SLD.pdb
     RDKit          3D

 23 22  0  0  1  0  0  0  0  0999 V2000
   20.0245  -12.6725  -19.4756 O   0  0  0  0  0  0  0  0  0  0  0  0
   20.4083  -11.9606  -18.3639 C   0  0  0  0  0  0  0  0  0  0  0  0
   21.8137  -12.3523  -17.8955 C   0  0  2  0  0  0  0  0  0  0  0  0
   21.7124  -13.6940  -17.3506 N   0  0  0  0  0  0  0  0  0  0  0  0
   22.3006  -11.4205  -16.8514 C   0  0  0  0  0  0  0  0  0  0  0  0
   21.8224  -11.3966  -15.6801 O   0  0  0  0  0  0  0  0  0  0  0  0
   26.0963  -10.7359  -14.5380 C   0  0  0  0  0  0  0  0  0  0  0  0
   26.1312  -10.3586  -15.9886 C   0  0  2  0  0  0  0  0  0  0  0  0
   27.5541   -9.9486  -16.3131 C   0  0  0  0  0  0  0  0  0  0  0  0
   25.2432   -9.1960  -16.3194 C   0  0  0  0  0  0  0  0  0  0  0  0
   23.7692   -9.5181  -16.1451 C   0  0  2  0  0  0  0  0  0  0  0  0
   23.3466  -10.5031  -17.1440 N   0  0  0  0  0  0  0  0  0  0  0  0
   23.0131   -8.2492  -16.4145 C   0  0  0  0  0  0  0  0  0  0  0  0
   22.9536   -7.7634  -17.5722 O   0  0  0  0  0  0  0  0  0  0  0  0
   22.3388   -7.5524  -15.3787 N   0  0  0  0  0  0  0  0  0  0  0  0
   21.7194   -6.2707  -15.5923 C   0  0  1  0  0  0  0  0  0  0  0  0
   20.5526   -6.0459  -14.6603 C   0  0  0  0  0  0  0  0  0  0  0  0
   19.8952   -4.7450  -14.8529 C   0  0  0  0  0  0  0  0  0  0  0  0
   19.6529   -4.3082  -15.9986 O   0  0  0  0  0  0  0  0  0  0  0  0
   22.7213   -5.1586  -15.5155 C   0  0  0  0  0  0  0  0  0  0  0  0
   22.7070   -4.2260  -16.3389 O   0  0  0  0  0  0  0  0  0  0  0  0
   19.5316   -3.9773  -13.7614 O   0  0  0  0  0  0  0  0  0  0  0  0
   23.6949   -5.1253  -14.5334 O   0  0  0  0  0  0  0  0  0  0  0  0
  2  1  1  0
  3  4  1  1
  3  2  1  0
  5  3  1  0
  6  5  2  0
  8  7  1  1
  8 10  1  0
  9  8  1  0
 11 10  1  6
 11 13  1  0
 11 12  1  0
 12  5  1  0
 13 15  1  0
 14 13  2  0
 15 16  1  0
 16 17  1  1
 16 20  1  0
 18 17  1  0
 19 18  2  0
 20 21  2  0
 20 23  1  0
 22 18  1  0
M  END
$$$$
