SLD.pdb
     RDKit          3D

 23 22  0  0  1  0  0  0  0  0999 V2000
   15.6176   -9.1703  -19.0638 O   0  0  0  0  0  0  0  0  0  0  0  0
   16.2656   -8.8709  -17.8889 C   0  0  0  0  0  0  0  0  0  0  0  0
   16.9215  -10.1098  -17.2700 C   0  0  2  0  0  0  0  0  0  0  0  0
   15.8644  -10.8556  -16.6112 N   0  0  0  0  0  0  0  0  0  0  0  0
   17.9546   -9.7216  -16.2815 C   0  0  0  0  0  0  0  0  0  0  0  0
   17.6689   -9.3263  -15.1139 O   0  0  0  0  0  0  0  0  0  0  0  0
   24.0765  -10.3712  -15.3461 C   0  0  0  0  0  0  0  0  0  0  0  0
   22.7840   -9.6646  -15.0664 C   0  0  2  0  0  0  0  0  0  0  0  0
   22.4036   -9.9729  -13.6318 C   0  0  0  0  0  0  0  0  0  0  0  0
   21.6553  -10.1276  -15.9390 C   0  0  0  0  0  0  0  0  0  0  0  0
   20.3577   -9.3908  -15.6563 C   0  0  2  0  0  0  0  0  0  0  0  0
   19.3326   -9.7843  -16.6264 N   0  0  0  0  0  0  0  0  0  0  0  0
   20.6353   -7.9294  -15.8607 C   0  0  0  0  0  0  0  0  0  0  0  0
   20.8788   -7.4697  -17.0049 O   0  0  0  0  0  0  0  0  0  0  0  0
   20.6330   -7.0143  -14.7765 N   0  0  0  0  0  0  0  0  0  0  0  0
   20.9801   -5.6272  -14.9417 C   0  0  1  0  0  0  0  0  0  0  0  0
   19.7577   -4.7413  -14.9848 C   0  0  0  0  0  0  0  0  0  0  0  0
   20.0761   -3.3175  -15.1664 C   0  0  0  0  0  0  0  0  0  0  0  0
   21.2571   -2.9336  -15.3072 O   0  0  0  0  0  0  0  0  0  0  0  0
   21.9606   -5.1801  -13.9001 C   0  0  0  0  0  0  0  0  0  0  0  0
   22.7042   -4.2025  -14.0984 O   0  0  0  0  0  0  0  0  0  0  0  0
   19.0664   -2.3724  -15.1842 O   0  0  0  0  0  0  0  0  0  0  0  0
   22.0773   -5.8320  -12.6856 O   0  0  0  0  0  0  0  0  0  0  0  0
  2  1  1  0
  3  4  1  1
  3  2  1  0
  5  3  1  0
  6  5  2  0
  8  7  1  6
  8 10  1  0
  9  8  1  0
 11 10  1  6
 11 13  1  0
 11 12  1  0
 12  5  1  0
 13 15  1  0
 14 13  2  0
 15 16  1  0
 16 17  1  1
 16 20  1  0
 18 17  1  0
 19 18  2  0
 20 21  2  0
 20 23  1  0
 22 18  1  0
M  END
$$$$
