SLD.pdb
     RDKit          3D

 23 22  0  0  1  0  0  0  0  0999 V2000
   26.3627  -18.1769  -16.2158 O   0  0  0  0  0  0  0  0  0  0  0  0
   27.2173  -18.1665  -15.1390 C   0  0  0  0  0  0  0  0  0  0  0  0
   27.6788  -19.5793  -14.7662 C   0  0  2  0  0  0  0  0  0  0  0  0
   28.1720  -20.1920  -15.9864 N   0  0  0  0  0  0  0  0  0  0  0  0
   26.5537  -20.3755  -14.2225 C   0  0  0  0  0  0  0  0  0  0  0  0
   26.1389  -21.4368  -14.7729 O   0  0  0  0  0  0  0  0  0  0  0  0
   26.6629  -21.9946  -10.3226 C   0  0  0  0  0  0  0  0  0  0  0  0
   26.0628  -20.6234  -10.2367 C   0  0  2  0  0  0  0  0  0  0  0  0
   25.8156  -20.3311   -8.7699 C   0  0  0  0  0  0  0  0  0  0  0  0
   24.7456  -20.5083  -10.9449 C   0  0  0  0  0  0  0  0  0  0  0  0
   24.8540  -20.7989  -12.4318 C   0  0  2  0  0  0  0  0  0  0  0  0
   25.8913  -19.9585  -13.0356 N   0  0  0  0  0  0  0  0  0  0  0  0
   23.5414  -20.4077  -13.0470 C   0  0  0  0  0  0  0  0  0  0  0  0
   22.9661  -19.3385  -12.7217 O   0  0  0  0  0  0  0  0  0  0  0  0
   22.9023  -21.2244  -14.0152 N   0  0  0  0  0  0  0  0  0  0  0  0
   21.5818  -20.9374  -14.5109 C   0  0  1  0  0  0  0  0  0  0  0  0
   21.3674  -21.4929  -15.8988 C   0  0  0  0  0  0  0  0  0  0  0  0
   22.3714  -21.0360  -16.8708 C   0  0  0  0  0  0  0  0  0  0  0  0
   22.5472  -19.8186  -17.0925 O   0  0  0  0  0  0  0  0  0  0  0  0
   20.5251  -21.3975  -13.5528 C   0  0  0  0  0  0  0  0  0  0  0  0
   19.3604  -20.9666  -13.6290 O   0  0  0  0  0  0  0  0  0  0  0  0
   23.1433  -21.9527  -17.5613 O   0  0  0  0  0  0  0  0  0  0  0  0
   20.8006  -22.3128  -12.5530 O   0  0  0  0  0  0  0  0  0  0  0  0
  2  1  1  0
  3  4  1  6
  3  2  1  0
  5  3  1  0
  6  5  2  0
  8  7  1  1
  8 10  1  0
  9  8  1  0
 11 10  1  1
 11 13  1  0
 11 12  1  0
 12  5  1  0
 13 15  1  0
 14 13  2  0
 15 16  1  0
 16 17  1  6
 16 20  1  0
 18 17  1  0
 19 18  2  0
 20 21  2  0
 20 23  1  0
 22 18  1  0
M  END
$$$$
