SLD.pdb
     RDKit          3D

 23 22  0  0  1  0  0  0  0  0999 V2000
   18.9095   -8.2880  -19.0722 O   0  0  0  0  0  0  0  0  0  0  0  0
   18.4767   -9.5921  -19.0273 C   0  0  0  0  0  0  0  0  0  0  0  0
   19.5832  -10.5421  -18.5570 C   0  0  2  0  0  0  0  0  0  0  0  0
   18.9888  -11.8638  -18.4712 N   0  0  0  0  0  0  0  0  0  0  0  0
   20.0989  -10.1350  -17.2290 C   0  0  0  0  0  0  0  0  0  0  0  0
   19.4285  -10.2716  -16.1645 O   0  0  0  0  0  0  0  0  0  0  0  0
   22.9173  -11.4654  -14.2336 C   0  0  0  0  0  0  0  0  0  0  0  0
   23.5542  -10.9015  -15.4682 C   0  0  2  0  0  0  0  0  0  0  0  0
   25.0483  -11.1279  -15.3477 C   0  0  0  0  0  0  0  0  0  0  0  0
   23.3356   -9.4260  -15.6258 C   0  0  0  0  0  0  0  0  0  0  0  0
   21.8717   -9.0689  -15.8163 C   0  0  2  0  0  0  0  0  0  0  0  0
   21.3959   -9.5647  -17.1104 N   0  0  0  0  0  0  0  0  0  0  0  0
   21.7917   -7.5700  -15.8501 C   0  0  0  0  0  0  0  0  0  0  0  0
   22.2377   -6.9189  -16.8284 O   0  0  0  0  0  0  0  0  0  0  0  0
   21.2118   -6.8331  -14.7854 N   0  0  0  0  0  0  0  0  0  0  0  0
   21.1347   -5.3958  -14.7989 C   0  0  1  0  0  0  0  0  0  0  0  0
   19.7097   -4.9065  -14.6965 C   0  0  0  0  0  0  0  0  0  0  0  0
   19.5920   -3.4417  -14.7404 C   0  0  0  0  0  0  0  0  0  0  0  0
   20.4045   -2.7485  -15.3896 O   0  0  0  0  0  0  0  0  0  0  0  0
   22.0130   -4.7903  -13.7460 C   0  0  0  0  0  0  0  0  0  0  0  0
   22.3893   -5.4568  -12.7652 O   0  0  0  0  0  0  0  0  0  0  0  0
   18.5729   -2.8017  -14.0586 O   0  0  0  0  0  0  0  0  0  0  0  0
   22.4368   -3.4758  -13.8223 O   0  0  0  0  0  0  0  0  0  0  0  0
  2  1  1  0
  3  4  1  1
  3  2  1  0
  5  3  1  0
  6  5  2  0
  8  7  1  1
  8 10  1  0
  9  8  1  0
 11 10  1  6
 11 13  1  0
 11 12  1  0
 12  5  1  0
 13 15  1  0
 14 13  2  0
 15 16  1  0
 16 17  1  1
 16 20  1  0
 18 17  1  0
 19 18  2  0
 20 21  2  0
 20 23  1  0
 22 18  1  0
M  END
$$$$
