VTT.pdb
     RDKit          3D

 22 21  0  0  1  0  0  0  0  0999 V2000
   24.3280  -11.5973  -16.4756 C   0  0  0  0  0  0  0  0  0  0  0  0
   23.3523  -12.3748  -15.6351 C   0  0  2  0  0  0  0  0  0  0  0  0
   23.7931  -13.8077  -15.5267 C   0  0  0  0  0  0  0  0  0  0  0  0
   21.9323  -12.2441  -16.1219 C   0  0  2  0  0  0  0  0  0  0  0  0
   21.8127  -13.0348  -17.3278 N   0  0  0  0  0  0  0  0  0  0  0  0
   21.5596  -10.8498  -16.4290 C   0  0  0  0  0  0  0  0  0  0  0  0
   21.7245  -10.3496  -17.5713 O   0  0  0  0  0  0  0  0  0  0  0  0
   18.2576   -9.6518  -16.1630 C   0  0  0  0  0  0  0  0  0  0  0  0
   19.0202   -8.7262  -15.2298 C   0  0  1  0  0  0  0  0  0  0  0  0
   18.8647   -9.2366  -13.9440 O   0  0  0  0  0  0  0  0  0  0  0  0
   20.5041   -8.7086  -15.6168 C   0  0  2  0  0  0  0  0  0  0  0  0
   21.0004  -10.0482  -15.4133 N   0  0  0  0  0  0  0  0  0  0  0  0
   21.2461   -7.6959  -14.8724 C   0  0  0  0  0  0  0  0  0  0  0  0
   21.7721   -7.9890  -13.7728 O   0  0  0  0  0  0  0  0  0  0  0  0
   24.0691   -5.3161  -16.2677 C   0  0  0  0  0  0  0  0  0  0  0  0
   23.0122   -4.5278  -15.5434 C   0  0  1  0  0  0  0  0  0  0  0  0
   22.1449   -4.0167  -16.5182 O   0  0  0  0  0  0  0  0  0  0  0  0
   22.2254   -5.4404  -14.6146 C   0  0  2  0  0  0  0  0  0  0  0  0
   21.4047   -6.3671  -15.3424 N   0  0  0  0  0  0  0  0  0  0  0  0
   21.4100   -4.5504  -13.7320 C   0  0  0  0  0  0  0  0  0  0  0  0
   20.1716   -4.5773  -13.7391 O   0  0  0  0  0  0  0  0  0  0  0  0
   22.0847   -3.6777  -12.8896 O   0  0  0  0  0  0  0  0  0  0  0  0
  2  1  1  6
  2  3  1  0
  4  2  1  0
  4  6  1  0
  4  5  1  6
  6  7  2  0
  6 12  1  0
  9 11  1  0
  9  8  1  6
 10  9  1  0
 11 13  1  0
 11 12  1  1
 13 19  1  0
 13 14  2  0
 16 15  1  6
 16 18  1  0
 17 16  1  0
 18 20  1  0
 18 19  1  6
 20 22  1  0
 21 20  2  0
M  END
$$$$
