VTT.pdb
     RDKit          3D

 22 21  0  0  1  0  0  0  0  0999 V2000
   19.1740  -12.1227  -18.5720 C   0  0  0  0  0  0  0  0  0  0  0  0
   18.5057  -12.4797  -17.2724 C   0  0  2  0  0  0  0  0  0  0  0  0
   17.1868  -13.1498  -17.5382 C   0  0  0  0  0  0  0  0  0  0  0  0
   18.3762  -11.3014  -16.3421 C   0  0  2  0  0  0  0  0  0  0  0  0
   17.4371  -10.3775  -16.9406 N   0  0  0  0  0  0  0  0  0  0  0  0
   19.6572  -10.6022  -16.1241 C   0  0  0  0  0  0  0  0  0  0  0  0
   20.6177  -11.1404  -15.5159 O   0  0  0  0  0  0  0  0  0  0  0  0
   22.2337   -9.6450  -18.3079 C   0  0  0  0  0  0  0  0  0  0  0  0
   21.6169   -8.3330  -17.8526 C   0  0  1  0  0  0  0  0  0  0  0  0
   20.6185   -8.0196  -18.7707 O   0  0  0  0  0  0  0  0  0  0  0  0
   21.0145   -8.5025  -16.4524 C   0  0  2  0  0  0  0  0  0  0  0  0
   19.8149   -9.2887  -16.6108 N   0  0  0  0  0  0  0  0  0  0  0  0
   20.7833   -7.2162  -15.8028 C   0  0  0  0  0  0  0  0  0  0  0  0
   19.8865   -6.4520  -16.2311 O   0  0  0  0  0  0  0  0  0  0  0  0
   19.7979   -6.5528  -12.2818 C   0  0  0  0  0  0  0  0  0  0  0  0
   21.0156   -5.7092  -12.5438 C   0  0  1  0  0  0  0  0  0  0  0  0
   22.1130   -6.4018  -12.0150 O   0  0  0  0  0  0  0  0  0  0  0  0
   21.2181   -5.5363  -14.0416 C   0  0  2  0  0  0  0  0  0  0  0  0
   21.5401   -6.7786  -14.6858 N   0  0  0  0  0  0  0  0  0  0  0  0
   22.3059   -4.5243  -14.2110 C   0  0  0  0  0  0  0  0  0  0  0  0
   23.3964   -4.8139  -14.7222 O   0  0  0  0  0  0  0  0  0  0  0  0
   22.0612   -3.2297  -13.7744 O   0  0  0  0  0  0  0  0  0  0  0  0
  2  1  1  6
  2  3  1  0
  4  2  1  0
  4  6  1  0
  4  5  1  6
  6  7  2  0
  6 12  1  0
  9 11  1  0
  9  8  1  6
 10  9  1  0
 11 13  1  0
 11 12  1  6
 13 19  1  0
 13 14  2  0
 16 15  1  6
 16 18  1  0
 17 16  1  0
 18 20  1  0
 18 19  1  1
 20 22  1  0
 21 20  2  0
M  END
$$$$
