VTT.pdb
     RDKit          3D

 22 21  0  0  1  0  0  0  0  0999 V2000
   16.7249   -8.8604  -17.0623 C   0  0  0  0  0  0  0  0  0  0  0  0
   17.4669   -9.8621  -17.9043 C   0  0  2  0  0  0  0  0  0  0  0  0
   16.5438  -10.4571  -18.9305 C   0  0  0  0  0  0  0  0  0  0  0  0
   18.1646  -10.9123  -17.0791 C   0  0  2  0  0  0  0  0  0  0  0  0
   17.1431  -11.7543  -16.4951 N   0  0  0  0  0  0  0  0  0  0  0  0
   18.9829  -10.3363  -15.9947 C   0  0  0  0  0  0  0  0  0  0  0  0
   18.5206  -10.1368  -14.8420 O   0  0  0  0  0  0  0  0  0  0  0  0
   23.5459   -9.7211  -14.3765 C   0  0  0  0  0  0  0  0  0  0  0  0
   22.5366  -10.2456  -15.3841 C   0  0  1  0  0  0  0  0  0  0  0  0
   22.3148  -11.5835  -15.0699 O   0  0  0  0  0  0  0  0  0  0  0  0
   21.2298   -9.4510  -15.2696 C   0  0  2  0  0  0  0  0  0  0  0  0
   20.3263   -9.9971  -16.2532 N   0  0  0  0  0  0  0  0  0  0  0  0
   21.4531   -8.0166  -15.4202 C   0  0  0  0  0  0  0  0  0  0  0  0
   21.9683   -7.5715  -16.4729 O   0  0  0  0  0  0  0  0  0  0  0  0
   19.1104   -5.1978  -15.6091 C   0  0  0  0  0  0  0  0  0  0  0  0
   20.0541   -4.8692  -14.4846 C   0  0  1  0  0  0  0  0  0  0  0  0
   19.4133   -5.2367  -13.2938 O   0  0  0  0  0  0  0  0  0  0  0  0
   21.3345   -5.6787  -14.6244 C   0  0  2  0  0  0  0  0  0  0  0  0
   21.1081   -7.0806  -14.4118 N   0  0  0  0  0  0  0  0  0  0  0  0
   22.3050   -5.1164  -13.6356 C   0  0  0  0  0  0  0  0  0  0  0  0
   22.7907   -3.9843  -13.7652 O   0  0  0  0  0  0  0  0  0  0  0  0
   22.6555   -5.9063  -12.5494 O   0  0  0  0  0  0  0  0  0  0  0  0
  2  1  1  1
  2  3  1  0
  4  2  1  0
  4  6  1  0
  4  5  1  1
  6  7  2  0
  6 12  1  0
  9 11  1  0
  9  8  1  1
 10  9  1  0
 11 13  1  0
 11 12  1  6
 13 19  1  0
 13 14  2  0
 16 15  1  6
 16 18  1  0
 17 16  1  0
 18 20  1  0
 18 19  1  1
 20 22  1  0
 21 20  2  0
M  END
$$$$
