VTT.pdb
     RDKit          3D

 22 21  0  0  1  0  0  0  0  0999 V2000
   16.2176  -13.1311  -14.1773 C   0  0  0  0  0  0  0  0  0  0  0  0
   15.2111  -13.6641  -13.1945 C   0  0  2  0  0  0  0  0  0  0  0  0
   14.2730  -14.6158  -13.8825 C   0  0  0  0  0  0  0  0  0  0  0  0
   14.4833  -12.5703  -12.4565 C   0  0  2  0  0  0  0  0  0  0  0  0
   13.7087  -11.8314  -13.4300 N   0  0  0  0  0  0  0  0  0  0  0  0
   15.3978  -11.6377  -11.7701 C   0  0  0  0  0  0  0  0  0  0  0  0
   16.2000  -12.0213  -10.8804 O   0  0  0  0  0  0  0  0  0  0  0  0
   18.1481  -10.0430  -12.9878 C   0  0  0  0  0  0  0  0  0  0  0  0
   17.2335   -8.8738  -12.6630 C   0  0  1  0  0  0  0  0  0  0  0  0
   16.5396   -8.5712  -13.8313 O   0  0  0  0  0  0  0  0  0  0  0  0
   16.2535   -9.2756  -11.5538 C   0  0  2  0  0  0  0  0  0  0  0  0
   15.3759  -10.2721  -12.1187 N   0  0  0  0  0  0  0  0  0  0  0  0
   15.5459   -8.1201  -11.0113 C   0  0  0  0  0  0  0  0  0  0  0  0
   14.4573   -7.7596  -11.5179 O   0  0  0  0  0  0  0  0  0  0  0  0
   14.5152   -7.1451   -7.2920 C   0  0  0  0  0  0  0  0  0  0  0  0
   15.3750   -6.0899   -7.9326 C   0  0  1  0  0  0  0  0  0  0  0  0
   16.6899   -6.3217   -7.5072 O   0  0  0  0  0  0  0  0  0  0  0  0
   15.3179   -6.2189   -9.4473 C   0  0  2  0  0  0  0  0  0  0  0  0
   16.0404   -7.3684   -9.9149 N   0  0  0  0  0  0  0  0  0  0  0  0
   15.8747   -4.9481  -10.0051 C   0  0  0  0  0  0  0  0  0  0  0  0
   16.9339   -4.9228  -10.6468 O   0  0  0  0  0  0  0  0  0  0  0  0
   15.1646   -3.7763   -9.7832 O   0  0  0  0  0  0  0  0  0  0  0  0
  2  1  1  6
  2  3  1  0
  4  2  1  0
  4  6  1  0
  4  5  1  6
  6  7  2  0
  6 12  1  0
  9 11  1  0
  9  8  1  6
 10  9  1  0
 11 13  1  0
 11 12  1  6
 13 19  1  0
 13 14  2  0
 16 15  1  1
 16 18  1  0
 17 16  1  0
 18 20  1  0
 18 19  1  6
 20 22  1  0
 21 20  2  0
M  END
$$$$
