VTT.pdb
     RDKit          3D

 22 21  0  0  1  0  0  0  0  0999 V2000
   17.1560  -13.1723  -16.3591 C   0  0  0  0  0  0  0  0  0  0  0  0
   17.6883  -11.8036  -16.6853 C   0  0  2  0  0  0  0  0  0  0  0  0
   18.6061  -11.8774  -17.8733 C   0  0  0  0  0  0  0  0  0  0  0  0
   18.3328  -11.1326  -15.5001 C   0  0  2  0  0  0  0  0  0  0  0  0
   17.4043  -11.2208  -14.3939 N   0  0  0  0  0  0  0  0  0  0  0  0
   18.6437   -9.7115  -15.7473 C   0  0  0  0  0  0  0  0  0  0  0  0
   19.3487   -9.3407  -16.7208 O   0  0  0  0  0  0  0  0  0  0  0  0
   17.2527   -5.1186  -14.5541 C   0  0  0  0  0  0  0  0  0  0  0  0
   17.0645   -6.6263  -14.5340 C   0  0  1  0  0  0  0  0  0  0  0  0
   16.0071   -6.9097  -15.3941 O   0  0  0  0  0  0  0  0  0  0  0  0
   18.3446   -7.3144  -15.0238 C   0  0  2  0  0  0  0  0  0  0  0  0
   18.1368   -8.7338  -14.8674 N   0  0  0  0  0  0  0  0  0  0  0  0
   19.5267   -6.8208  -14.3243 C   0  0  0  0  0  0  0  0  0  0  0  0
   19.6629   -7.0382  -13.0972 O   0  0  0  0  0  0  0  0  0  0  0  0
   23.1936   -7.3838  -15.4666 C   0  0  0  0  0  0  0  0  0  0  0  0
   22.9914   -5.9282  -15.1447 C   0  0  1  0  0  0  0  0  0  0  0  0
   22.7857   -5.2660  -16.3624 O   0  0  0  0  0  0  0  0  0  0  0  0
   21.7561   -5.7530  -14.2743 C   0  0  2  0  0  0  0  0  0  0  0  0
   20.5516   -6.0910  -14.9792 N   0  0  0  0  0  0  0  0  0  0  0  0
   21.7527   -4.3283  -13.8201 C   0  0  0  0  0  0  0  0  0  0  0  0
   20.8575   -3.5379  -14.1489 O   0  0  0  0  0  0  0  0  0  0  0  0
   22.7946   -3.9043  -13.0070 O   0  0  0  0  0  0  0  0  0  0  0  0
  2  1  1  1
  2  3  1  0
  4  2  1  0
  4  6  1  0
  4  5  1  1
  6  7  2  0
  6 12  1  0
  9 11  1  0
  9  8  1  6
 10  9  1  0
 11 13  1  0
 11 12  1  1
 13 19  1  0
 13 14  2  0
 16 15  1  6
 16 18  1  0
 17 16  1  0
 18 20  1  0
 18 19  1  6
 20 22  1  0
 21 20  2  0
M  END
$$$$
