VTT.pdb
     RDKit          3D

 22 21  0  0  1  0  0  0  0  0999 V2000
   16.4314  -11.6682  -16.8628 C   0  0  0  0  0  0  0  0  0  0  0  0
   17.3175  -11.5253  -18.0700 C   0  0  2  0  0  0  0  0  0  0  0  0
   17.6116  -12.8776  -18.6564 C   0  0  0  0  0  0  0  0  0  0  0  0
   18.5693  -10.7372  -17.7826 C   0  0  2  0  0  0  0  0  0  0  0  0
   19.4771  -11.6100  -17.0699 N   0  0  0  0  0  0  0  0  0  0  0  0
   18.3144   -9.5408  -16.9574 C   0  0  0  0  0  0  0  0  0  0  0  0
   17.5100   -8.6418  -17.3137 O   0  0  0  0  0  0  0  0  0  0  0  0
   18.9940   -9.7963  -12.9564 C   0  0  0  0  0  0  0  0  0  0  0  0
   18.2213   -8.6540  -13.5944 C   0  0  1  0  0  0  0  0  0  0  0  0
   18.2238   -7.6068  -12.6773 O   0  0  0  0  0  0  0  0  0  0  0  0
   18.9136   -8.2224  -14.8931 C   0  0  2  0  0  0  0  0  0  0  0  0
   18.9915   -9.3955  -15.7297 N   0  0  0  0  0  0  0  0  0  0  0  0
   20.2114   -7.6061  -14.6362 C   0  0  0  0  0  0  0  0  0  0  0  0
   21.1717   -8.3110  -14.2457 O   0  0  0  0  0  0  0  0  0  0  0  0
   22.0807   -5.2571  -17.0786 C   0  0  0  0  0  0  0  0  0  0  0  0
   22.0857   -4.6347  -15.7091 C   0  0  1  0  0  0  0  0  0  0  0  0
   21.0743   -3.6648  -15.6983 O   0  0  0  0  0  0  0  0  0  0  0  0
   21.7698   -5.6868  -14.6566 C   0  0  2  0  0  0  0  0  0  0  0  0
   20.4446   -6.2179  -14.8106 N   0  0  0  0  0  0  0  0  0  0  0  0
   21.9534   -5.0284  -13.3266 C   0  0  0  0  0  0  0  0  0  0  0  0
   21.0117   -4.8718  -12.5374 O   0  0  0  0  0  0  0  0  0  0  0  0
   23.2264   -4.5887  -12.9907 O   0  0  0  0  0  0  0  0  0  0  0  0
  2  1  1  1
  2  3  1  0
  4  2  1  0
  4  6  1  0
  4  5  1  1
  6  7  2  0
  6 12  1  0
  9 11  1  0
  9  8  1  1
 10  9  1  0
 11 13  1  0
 11 12  1  6
 13 19  1  0
 13 14  2  0
 16 15  1  6
 16 18  1  0
 17 16  1  0
 18 20  1  0
 18 19  1  6
 20 22  1  0
 21 20  2  0
M  END
$$$$
