VTT.pdb
     RDKit          3D

 22 21  0  0  1  0  0  0  0  0999 V2000
   15.3496  -13.8925  -17.3993 C   0  0  0  0  0  0  0  0  0  0  0  0
   16.4313  -14.6864  -16.7190 C   0  0  2  0  0  0  0  0  0  0  0  0
   15.8509  -15.9319  -16.1101 C   0  0  0  0  0  0  0  0  0  0  0  0
   17.2140  -13.8692  -15.7239 C   0  0  2  0  0  0  0  0  0  0  0  0
   16.3200  -13.5396  -14.6349 N   0  0  0  0  0  0  0  0  0  0  0  0
   17.7414  -12.6179  -16.3011 C   0  0  0  0  0  0  0  0  0  0  0  0
   18.5111  -12.6127  -17.2959 O   0  0  0  0  0  0  0  0  0  0  0  0
   15.7670   -9.9267  -17.6693 C   0  0  0  0  0  0  0  0  0  0  0  0
   16.5155   -9.2994  -16.5051 C   0  0  1  0  0  0  0  0  0  0  0  0
   15.6625   -9.3502  -15.4062 O   0  0  0  0  0  0  0  0  0  0  0  0
   17.7936  -10.0981  -16.2208 C   0  0  2  0  0  0  0  0  0  0  0  0
   17.3743  -11.3859  -15.7229 N   0  0  0  0  0  0  0  0  0  0  0  0
   18.6857   -9.3868  -15.3106 C   0  0  0  0  0  0  0  0  0  0  0  0
   18.4323   -9.3575  -14.0831 O   0  0  0  0  0  0  0  0  0  0  0  0
   22.3692   -9.9167  -14.6204 C   0  0  0  0  0  0  0  0  0  0  0  0
   22.1733   -8.4767  -15.0091 C   0  0  1  0  0  0  0  0  0  0  0  0
   22.4866   -8.3758  -16.3711 O   0  0  0  0  0  0  0  0  0  0  0  0
   20.7200   -8.0748  -14.8074 C   0  0  2  0  0  0  0  0  0  0  0  0
   19.8510   -8.7122  -15.7564 N   0  0  0  0  0  0  0  0  0  0  0  0
   20.6695   -6.5847  -14.9214 C   0  0  0  0  0  0  0  0  0  0  0  0
   20.0163   -6.0171  -15.8076 O   0  0  0  0  0  0  0  0  0  0  0  0
   21.3845   -5.8386  -13.9947 O   0  0  0  0  0  0  0  0  0  0  0  0
  2  1  1  1
  2  3  1  0
  4  2  1  0
  4  6  1  0
  4  5  1  1
  6  7  2  0
  6 12  1  0
  9 11  1  0
  9  8  1  6
 10  9  1  0
 11 13  1  0
 11 12  1  1
 13 19  1  0
 13 14  2  0
 16 15  1  6
 16 18  1  0
 17 16  1  0
 18 20  1  0
 18 19  1  6
 20 22  1  0
 21 20  2  0
M  END
$$$$
