VTT.pdb
     RDKit          3D

 22 21  0  0  1  0  0  0  0  0999 V2000
   18.0915  -13.7163  -16.3350 C   0  0  0  0  0  0  0  0  0  0  0  0
   19.3741  -13.2611  -16.9758 C   0  0  2  0  0  0  0  0  0  0  0  0
   20.5512  -13.8102  -16.2194 C   0  0  0  0  0  0  0  0  0  0  0  0
   19.4426  -11.7649  -17.1413 C   0  0  2  0  0  0  0  0  0  0  0  0
   20.1460  -11.4971  -18.3770 N   0  0  0  0  0  0  0  0  0  0  0  0
   20.1564  -11.0997  -16.0344 C   0  0  0  0  0  0  0  0  0  0  0  0
   19.7821  -11.2054  -14.8382 O   0  0  0  0  0  0  0  0  0  0  0  0
   23.5608  -11.5330  -14.9086 C   0  0  0  0  0  0  0  0  0  0  0  0
   23.4934  -10.1018  -15.4148 C   0  0  1  0  0  0  0  0  0  0  0  0
   23.9190  -10.1250  -16.7401 O   0  0  0  0  0  0  0  0  0  0  0  0
   22.0500   -9.5904  -15.3310 C   0  0  2  0  0  0  0  0  0  0  0  0
   21.2948  -10.3196  -16.3211 N   0  0  0  0  0  0  0  0  0  0  0  0
   21.9778   -8.1422  -15.4973 C   0  0  0  0  0  0  0  0  0  0  0  0
   22.2353   -7.6275  -16.6110 O   0  0  0  0  0  0  0  0  0  0  0  0
   19.4025   -5.8776  -15.8160 C   0  0  0  0  0  0  0  0  0  0  0  0
   20.1719   -5.3062  -14.6565 C   0  0  1  0  0  0  0  0  0  0  0  0
   19.5229   -5.7285  -13.4886 O   0  0  0  0  0  0  0  0  0  0  0  0
   21.5926   -5.8501  -14.6541 C   0  0  2  0  0  0  0  0  0  0  0  0
   21.6228   -7.2692  -14.4372 N   0  0  0  0  0  0  0  0  0  0  0  0
   22.3315   -5.1090  -13.5860 C   0  0  0  0  0  0  0  0  0  0  0  0
   22.7219   -5.6672  -12.5515 O   0  0  0  0  0  0  0  0  0  0  0  0
   22.5742   -3.7567  -13.7840 O   0  0  0  0  0  0  0  0  0  0  0  0
  2  1  1  1
  2  3  1  0
  4  2  1  0
  4  6  1  0
  4  5  1  6
  6  7  2  0
  6 12  1  0
  9 11  1  0
  9  8  1  6
 10  9  1  0
 11 13  1  0
 11 12  1  6
 13 19  1  0
 13 14  2  0
 16 15  1  6
 16 18  1  0
 17 16  1  0
 18 20  1  0
 18 19  1  1
 20 22  1  0
 21 20  2  0
M  END
$$$$
