VTT.pdb
     RDKit          3D

 22 21  0  0  1  0  0  0  0  0999 V2000
   15.9352  -13.8508  -17.6544 C   0  0  0  0  0  0  0  0  0  0  0  0
   17.2577  -14.4229  -17.2222 C   0  0  2  0  0  0  0  0  0  0  0  0
   17.0727  -15.8284  -16.7228 C   0  0  0  0  0  0  0  0  0  0  0  0
   17.9726  -13.5469  -16.2261 C   0  0  2  0  0  0  0  0  0  0  0  0
   17.1605  -13.4987  -15.0296 N   0  0  0  0  0  0  0  0  0  0  0  0
   18.1762  -12.1708  -16.7181 C   0  0  0  0  0  0  0  0  0  0  0  0
   18.8109  -11.9259  -17.7761 O   0  0  0  0  0  0  0  0  0  0  0  0
   15.6062   -9.7191  -17.5167 C   0  0  0  0  0  0  0  0  0  0  0  0
   16.4042   -9.0918  -16.3859 C   0  0  1  0  0  0  0  0  0  0  0  0
   15.7195   -9.3745  -15.2072 O   0  0  0  0  0  0  0  0  0  0  0  0
   17.8095   -9.7045  -16.3420 C   0  0  2  0  0  0  0  0  0  0  0  0
   17.6445  -11.0922  -15.9827 N   0  0  0  0  0  0  0  0  0  0  0  0
   18.6917   -8.9725  -15.4387 C   0  0  0  0  0  0  0  0  0  0  0  0
   18.5518   -9.0885  -14.1983 O   0  0  0  0  0  0  0  0  0  0  0  0
   22.3434   -9.1989  -14.8147 C   0  0  0  0  0  0  0  0  0  0  0  0
   22.0517   -7.7803  -15.2215 C   0  0  1  0  0  0  0  0  0  0  0  0
   22.3057   -7.6899  -16.5965 O   0  0  0  0  0  0  0  0  0  0  0  0
   20.5870   -7.4557  -14.9692 C   0  0  2  0  0  0  0  0  0  0  0  0
   19.7225   -8.1173  -15.9056 N   0  0  0  0  0  0  0  0  0  0  0  0
   20.4594   -5.9681  -15.0505 C   0  0  0  0  0  0  0  0  0  0  0  0
   19.8185   -5.4138  -15.9539 O   0  0  0  0  0  0  0  0  0  0  0  0
   21.0872   -5.2088  -14.0727 O   0  0  0  0  0  0  0  0  0  0  0  0
  2  1  1  1
  2  3  1  0
  4  2  1  0
  4  6  1  0
  4  5  1  1
  6  7  2  0
  6 12  1  0
  9 11  1  0
  9  8  1  6
 10  9  1  0
 11 13  1  0
 11 12  1  1
 13 19  1  0
 13 14  2  0
 16 15  1  6
 16 18  1  0
 17 16  1  0
 18 20  1  0
 18 19  1  6
 20 22  1  0
 21 20  2  0
M  END
$$$$
