VTT.pdb
     RDKit          3D

 22 21  0  0  1  0  0  0  0  0999 V2000
   15.6000  -10.7034  -17.0111 C   0  0  0  0  0  0  0  0  0  0  0  0
   16.8217  -11.5333  -16.7252 C   0  0  2  0  0  0  0  0  0  0  0  0
   16.4207  -12.9436  -16.3941 C   0  0  0  0  0  0  0  0  0  0  0  0
   17.7054  -10.9224  -15.6686 C   0  0  2  0  0  0  0  0  0  0  0  0
   17.0285  -11.0703  -14.3984 N   0  0  0  0  0  0  0  0  0  0  0  0
   17.9689   -9.4895  -15.9026 C   0  0  0  0  0  0  0  0  0  0  0  0
   18.5193   -9.0739  -16.9545 O   0  0  0  0  0  0  0  0  0  0  0  0
   16.9596   -4.9060  -14.4157 C   0  0  0  0  0  0  0  0  0  0  0  0
   16.6618   -6.3937  -14.5007 C   0  0  1  0  0  0  0  0  0  0  0  0
   15.6313   -6.5440  -15.4245 O   0  0  0  0  0  0  0  0  0  0  0  0
   17.9117   -7.1456  -14.9744 C   0  0  2  0  0  0  0  0  0  0  0  0
   17.5938   -8.5521  -14.9190 N   0  0  0  0  0  0  0  0  0  0  0  0
   19.0896   -6.7860  -14.1913 C   0  0  0  0  0  0  0  0  0  0  0  0
   19.1199   -7.0272  -12.9614 O   0  0  0  0  0  0  0  0  0  0  0  0
   22.6076   -7.9914  -14.5133 C   0  0  0  0  0  0  0  0  0  0  0  0
   22.6490   -6.4891  -14.5802 C   0  0  1  0  0  0  0  0  0  0  0  0
   22.6913   -6.1423  -15.9372 O   0  0  0  0  0  0  0  0  0  0  0  0
   21.3881   -5.9043  -13.9619 C   0  0  2  0  0  0  0  0  0  0  0  0
   20.2270   -6.1633  -14.7662 N   0  0  0  0  0  0  0  0  0  0  0  0
   21.6339   -4.4385  -13.7970 C   0  0  0  0  0  0  0  0  0  0  0  0
   21.0016   -3.5914  -14.4426 O   0  0  0  0  0  0  0  0  0  0  0  0
   22.6045   -4.0419  -12.8874 O   0  0  0  0  0  0  0  0  0  0  0  0
  2  1  1  1
  2  3  1  0
  4  2  1  0
  4  6  1  0
  4  5  1  1
  6  7  2  0
  6 12  1  0
  9 11  1  0
  9  8  1  6
 10  9  1  0
 11 13  1  0
 11 12  1  1
 13 19  1  0
 13 14  2  0
 16 15  1  6
 16 18  1  0
 17 16  1  0
 18 20  1  0
 18 19  1  6
 20 22  1  0
 21 20  2  0
M  END
$$$$
