SMR.pdb
     RDKit          3D

 26 25  0  0  1  0  0  0  0  0999 V2000
    7.6120  -15.8160   20.1083 O   0  0  0  0  0  0  0  0  0  0  0  0
    6.5445  -14.9204   20.1297 C   0  0  0  0  0  0  0  0  0  0  0  0
    7.0467  -13.5841   20.5933 C   0  0  2  0  0  0  0  0  0  0  0  0
    7.9283  -13.0212   19.6031 N   0  0  0  0  0  0  0  0  0  0  0  0
    7.7494  -13.7618   21.8899 C   0  0  0  0  0  0  0  0  0  0  0  0
    9.0033  -13.8445   21.9058 O   0  0  0  0  0  0  0  0  0  0  0  0
    7.6133  -11.9234   28.1934 C   0  0  0  0  0  0  0  0  0  0  0  0
    7.8124  -11.3855   26.4941 S   0  0  0  0  0  0  0  0  0  0  0  0
    6.5303  -12.2077   25.4821 C   0  0  0  0  0  0  0  0  0  0  0  0
    6.8291  -13.6754   25.4986 C   0  0  0  0  0  0  0  0  0  0  0  0
    7.7414  -14.0581   24.3334 C   0  0  2  0  0  0  0  0  0  0  0  0
    7.0168  -13.8397   23.1217 N   0  0  0  0  0  0  0  0  0  0  0  0
    8.0437  -15.5021   24.4856 C   0  0  0  0  0  0  0  0  0  0  0  0
    7.0810  -16.3211   24.5032 O   0  0  0  0  0  0  0  0  0  0  0  0
   14.9927  -17.5048   23.7650 N   0  0  0  0  0  0  0  0  0  0  0  0
   14.6172  -16.3188   23.0594 C   0  0  0  0  0  0  0  0  0  0  0  0
   15.4045  -15.2850   23.0844 N   0  0  0  0  0  0  0  0  0  0  0  0
   13.4231  -16.2106   22.3322 N   0  0  0  0  0  0  0  0  0  0  0  0
   12.5002  -17.3683   22.2845 C   0  0  0  0  0  0  0  0  0  0  0  0
   11.8148  -17.4003   23.5877 C   0  0  0  0  0  0  0  0  0  0  0  0
   10.4668  -17.9436   23.7165 C   0  0  0  0  0  0  0  0  0  0  0  0
    9.5830  -17.5108   24.7929 C   0  0  2  0  0  0  0  0  0  0  0  0
    9.3273  -16.0403   24.6117 N   0  0  0  0  0  0  0  0  0  0  0  0
   10.0470  -17.6266   26.1459 C   0  0  0  0  0  0  0  0  0  0  0  0
   10.2635  -18.9038   26.7088 O   0  0  0  0  0  0  0  0  0  0  0  0
   10.2852  -16.6797   26.9016 O   0  0  0  0  0  0  0  0  0  0  0  0
  2  3  1  0
  2  1  1  0
  3  4  1  6
  5 12  1  0
  5  3  1  0
  6  5  2  0
  7  8  1  0
  8  9  1  0
  9 10  1  0
 11 10  1  1
 11 12  1  0
 13 11  1  0
 14 13  2  0
 16 15  1  0
 17 16  2  0
 18 16  1  0
 19 18  1  0
 20 19  1  0
 21 20  1  0
 22 21  1  6
 22 24  1  0
 22 23  1  0
 23 13  1  0
 24 25  1  0
 26 24  2  0
M  END
$$$$
