SMR.pdb
     RDKit          3D

 26 25  0  0  1  0  0  0  0  0999 V2000
    7.6236  -17.8249   20.3272 O   0  0  0  0  0  0  0  0  0  0  0  0
    6.7031  -16.8004   20.1151 C   0  0  0  0  0  0  0  0  0  0  0  0
    7.4442  -15.4981   20.0282 C   0  0  2  0  0  0  0  0  0  0  0  0
    8.4519  -15.5749   19.0018 N   0  0  0  0  0  0  0  0  0  0  0  0
    8.0547  -15.2069   21.3506 C   0  0  0  0  0  0  0  0  0  0  0  0
    9.2682  -15.4726   21.5419 O   0  0  0  0  0  0  0  0  0  0  0  0
    6.9840  -11.0834   27.5099 C   0  0  0  0  0  0  0  0  0  0  0  0
    6.2167  -12.5957   26.9259 S   0  0  0  0  0  0  0  0  0  0  0  0
    7.4591  -13.5300   25.9628 C   0  0  0  0  0  0  0  0  0  0  0  0
    6.8777  -13.7646   24.6024 C   0  0  0  0  0  0  0  0  0  0  0  0
    7.9087  -14.4043   23.6729 C   0  0  2  0  0  0  0  0  0  0  0  0
    7.2791  -14.6274   22.4102 N   0  0  0  0  0  0  0  0  0  0  0  0
    8.2854  -15.7024   24.2837 C   0  0  0  0  0  0  0  0  0  0  0  0
    7.4459  -16.6471   24.2576 O   0  0  0  0  0  0  0  0  0  0  0  0
   13.4780  -20.7082   26.3737 N   0  0  0  0  0  0  0  0  0  0  0  0
   14.0670  -20.6393   25.0723 C   0  0  0  0  0  0  0  0  0  0  0  0
   15.3515  -20.7905   24.9443 N   0  0  0  0  0  0  0  0  0  0  0  0
   13.3190  -20.4108   23.9084 N   0  0  0  0  0  0  0  0  0  0  0  0
   11.8596  -20.1834   24.0220 C   0  0  0  0  0  0  0  0  0  0  0  0
   11.6919  -19.0509   24.9484 C   0  0  0  0  0  0  0  0  0  0  0  0
   10.9353  -17.8656   24.5595 C   0  0  0  0  0  0  0  0  0  0  0  0
    9.8854  -17.3303   25.4188 C   0  0  2  0  0  0  0  0  0  0  0  0
    9.5133  -15.9712   24.8944 N   0  0  0  0  0  0  0  0  0  0  0  0
   10.1845  -17.1067   26.8043 C   0  0  0  0  0  0  0  0  0  0  0  0
   10.0628  -15.8097   27.3502 O   0  0  0  0  0  0  0  0  0  0  0  0
   10.5554  -17.9725   27.6025 O   0  0  0  0  0  0  0  0  0  0  0  0
  2  3  1  0
  2  1  1  0
  3  4  1  6
  5 12  1  0
  5  3  1  0
  6  5  2  0
  7  8  1  0
  8  9  1  0
  9 10  1  0
 11 10  1  1
 11 12  1  0
 13 11  1  0
 14 13  2  0
 16 15  1  0
 17 16  2  0
 18 16  1  0
 19 18  1  0
 20 19  1  0
 21 20  1  0
 22 21  1  6
 22 24  1  0
 22 23  1  0
 23 13  1  0
 24 25  1  0
 26 24  2  0
M  END
$$$$
