SMR.pdb
     RDKit          3D

 26 25  0  0  1  0  0  0  0  0999 V2000
    7.7069  -19.7981   17.2453 O   0  0  0  0  0  0  0  0  0  0  0  0
    6.6741  -18.9705   16.8090 C   0  0  0  0  0  0  0  0  0  0  0  0
    7.2717  -17.7383   16.1948 C   0  0  2  0  0  0  0  0  0  0  0  0
    8.0642  -18.0975   15.0470 N   0  0  0  0  0  0  0  0  0  0  0  0
    8.1002  -17.0490   17.2171 C   0  0  0  0  0  0  0  0  0  0  0  0
    9.3499  -17.1792   17.1885 O   0  0  0  0  0  0  0  0  0  0  0  0
    6.5455  -11.4767   20.3464 C   0  0  0  0  0  0  0  0  0  0  0  0
    7.1913  -12.5167   21.6571 S   0  0  0  0  0  0  0  0  0  0  0  0
    8.2910  -13.7678   20.9025 C   0  0  0  0  0  0  0  0  0  0  0  0
    7.4715  -14.5349   19.9107 C   0  0  0  0  0  0  0  0  0  0  0  0
    8.3432  -15.5165   19.1278 C   0  0  2  0  0  0  0  0  0  0  0  0
    7.4937  -16.2381   18.2343 N   0  0  0  0  0  0  0  0  0  0  0  0
    8.9347  -16.4462   20.1206 C   0  0  0  0  0  0  0  0  0  0  0  0
    8.2394  -17.4229   20.5210 O   0  0  0  0  0  0  0  0  0  0  0  0
   16.3143  -19.9693   22.0605 N   0  0  0  0  0  0  0  0  0  0  0  0
   15.3750  -21.0207   22.3007 C   0  0  0  0  0  0  0  0  0  0  0  0
   15.7606  -22.0893   22.9320 N   0  0  0  0  0  0  0  0  0  0  0  0
   14.0382  -20.9586   21.8816 N   0  0  0  0  0  0  0  0  0  0  0  0
   13.6235  -19.8842   20.9501 C   0  0  0  0  0  0  0  0  0  0  0  0
   12.5405  -19.1503   21.6265 C   0  0  0  0  0  0  0  0  0  0  0  0
   11.8843  -18.0160   20.9850 C   0  0  0  0  0  0  0  0  0  0  0  0
   10.7873  -17.3142   21.6415 C   0  0  2  0  0  0  0  0  0  0  0  0
   10.2198  -16.3294   20.6573 N   0  0  0  0  0  0  0  0  0  0  0  0
   11.0795  -16.5258   22.8044 C   0  0  0  0  0  0  0  0  0  0  0  0
   11.0811  -17.1290   24.0815 O   0  0  0  0  0  0  0  0  0  0  0  0
   11.3400  -15.3189   22.8008 O   0  0  0  0  0  0  0  0  0  0  0  0
  2  3  1  0
  2  1  1  0
  3  4  1  6
  5 12  1  0
  5  3  1  0
  6  5  2  0
  7  8  1  0
  8  9  1  0
  9 10  1  0
 11 10  1  1
 11 12  1  0
 13 11  1  0
 14 13  2  0
 16 15  1  0
 17 16  2  0
 18 16  1  0
 19 18  1  0
 20 19  1  0
 21 20  1  0
 22 21  1  6
 22 24  1  0
 22 23  1  0
 23 13  1  0
 24 25  1  0
 26 24  2  0
M  END
$$$$
