SMR.pdb
     RDKit          3D

 26 25  0  0  1  0  0  0  0  0999 V2000
    6.8162  -17.9473   19.2636 O   0  0  0  0  0  0  0  0  0  0  0  0
    7.4598  -17.4907   20.4122 C   0  0  0  0  0  0  0  0  0  0  0  0
    7.8333  -16.0505   20.2141 C   0  0  2  0  0  0  0  0  0  0  0  0
    8.8046  -15.9368   19.1567 N   0  0  0  0  0  0  0  0  0  0  0  0
    8.3738  -15.5174   21.4909 C   0  0  0  0  0  0  0  0  0  0  0  0
    9.6062  -15.6022   21.7222 O   0  0  0  0  0  0  0  0  0  0  0  0
    6.8366  -11.5335   28.0695 C   0  0  0  0  0  0  0  0  0  0  0  0
    6.2033  -12.2142   26.5358 S   0  0  0  0  0  0  0  0  0  0  0  0
    7.4946  -13.2884   25.8129 C   0  0  0  0  0  0  0  0  0  0  0  0
    6.9687  -13.7905   24.5033 C   0  0  0  0  0  0  0  0  0  0  0  0
    8.0700  -14.4895   23.7067 C   0  0  2  0  0  0  0  0  0  0  0  0
    7.5093  -14.9083   22.4612 N   0  0  0  0  0  0  0  0  0  0  0  0
    8.4806  -15.6752   24.4975 C   0  0  0  0  0  0  0  0  0  0  0  0
    7.7410  -16.7001   24.4758 O   0  0  0  0  0  0  0  0  0  0  0  0
   13.4800  -21.0008   27.1787 N   0  0  0  0  0  0  0  0  0  0  0  0
   13.6771  -21.2982   25.7938 C   0  0  0  0  0  0  0  0  0  0  0  0
   14.2305  -22.4244   25.4552 N   0  0  0  0  0  0  0  0  0  0  0  0
   13.3003  -20.4226   24.7653 N   0  0  0  0  0  0  0  0  0  0  0  0
   13.3743  -18.9617   24.9985 C   0  0  0  0  0  0  0  0  0  0  0  0
   12.1126  -18.5875   25.6597 C   0  0  0  0  0  0  0  0  0  0  0  0
   11.3436  -17.4301   25.2148 C   0  0  0  0  0  0  0  0  0  0  0  0
   10.1186  -17.0346   25.9002 C   0  0  2  0  0  0  0  0  0  0  0  0
    9.6382  -15.7537   25.2765 N   0  0  0  0  0  0  0  0  0  0  0  0
   10.1848  -16.7433   27.3038 C   0  0  0  0  0  0  0  0  0  0  0  0
   10.2821  -17.7983   28.2378 O   0  0  0  0  0  0  0  0  0  0  0  0
   10.1629  -15.6126   27.7992 O   0  0  0  0  0  0  0  0  0  0  0  0
  2  3  1  0
  2  1  1  0
  3  4  1  6
  5 12  1  0
  5  3  1  0
  6  5  2  0
  7  8  1  0
  8  9  1  0
  9 10  1  0
 11 10  1  1
 11 12  1  0
 13 11  1  0
 14 13  2  0
 16 15  1  0
 17 16  2  0
 18 16  1  0
 19 18  1  0
 20 19  1  0
 21 20  1  0
 22 21  1  6
 22 24  1  0
 22 23  1  0
 23 13  1  0
 24 25  1  0
 26 24  2  0
M  END
$$$$
