SMR.pdb
     RDKit          3D

 26 25  0  0  1  0  0  0  0  0999 V2000
    7.3488  -20.0645   19.6526 O   0  0  0  0  0  0  0  0  0  0  0  0
    7.8889  -20.1874   18.3739 C   0  0  0  0  0  0  0  0  0  0  0  0
    7.9525  -18.8259   17.7454 C   0  0  2  0  0  0  0  0  0  0  0  0
    8.6076  -18.9068   16.4653 N   0  0  0  0  0  0  0  0  0  0  0  0
    8.6844  -17.9119   18.6594 C   0  0  0  0  0  0  0  0  0  0  0  0
    9.9319  -18.0179   18.7690 O   0  0  0  0  0  0  0  0  0  0  0  0
    7.0622  -11.7780   19.9030 C   0  0  0  0  0  0  0  0  0  0  0  0
    7.5605  -12.3318   21.5344 S   0  0  0  0  0  0  0  0  0  0  0  0
    8.6456  -13.7901   21.3345 C   0  0  0  0  0  0  0  0  0  0  0  0
    7.8859  -14.7982   20.5279 C   0  0  0  0  0  0  0  0  0  0  0  0
    8.7481  -16.0273   20.2415 C   0  0  2  0  0  0  0  0  0  0  0  0
    7.9873  -16.9117   19.4169 N   0  0  0  0  0  0  0  0  0  0  0  0
    9.0218  -16.6699   21.5499 C   0  0  0  0  0  0  0  0  0  0  0  0
    8.0978  -17.3337   22.1007 O   0  0  0  0  0  0  0  0  0  0  0  0
   11.1943  -22.7873   24.5048 N   0  0  0  0  0  0  0  0  0  0  0  0
   12.2533  -22.3372   25.3540 C   0  0  0  0  0  0  0  0  0  0  0  0
   12.4669  -22.9432   26.4838 N   0  0  0  0  0  0  0  0  0  0  0  0
   13.0854  -21.2569   25.0270 N   0  0  0  0  0  0  0  0  0  0  0  0
   12.8337  -20.5056   23.7755 C   0  0  0  0  0  0  0  0  0  0  0  0
   11.8736  -19.4435   24.1207 C   0  0  0  0  0  0  0  0  0  0  0  0
   11.4430  -18.4655   23.1273 C   0  0  0  0  0  0  0  0  0  0  0  0
   10.5206  -17.3927   23.4812 C   0  0  2  0  0  0  0  0  0  0  0  0
   10.2385  -16.6016   22.2341 N   0  0  0  0  0  0  0  0  0  0  0  0
   10.9491  -16.4104   24.4355 C   0  0  0  0  0  0  0  0  0  0  0  0
   10.9817  -16.7323   25.8104 O   0  0  0  0  0  0  0  0  0  0  0  0
   11.3069  -15.2605   24.1636 O   0  0  0  0  0  0  0  0  0  0  0  0
  2  3  1  0
  2  1  1  0
  3  4  1  6
  5 12  1  0
  5  3  1  0
  6  5  2  0
  7  8  1  0
  8  9  1  0
  9 10  1  0
 11 10  1  1
 11 12  1  0
 13 11  1  0
 14 13  2  0
 16 15  1  0
 17 16  2  0
 18 16  1  0
 19 18  1  0
 20 19  1  0
 21 20  1  0
 22 21  1  6
 22 24  1  0
 22 23  1  0
 23 13  1  0
 24 25  1  0
 26 24  2  0
M  END
$$$$
