SMR.pdb
     RDKit          3D

 26 25  0  0  1  0  0  0  0  0999 V2000
    8.4255  -17.0153   15.6550 O   0  0  0  0  0  0  0  0  0  0  0  0
    9.5305  -17.7261   16.1195 C   0  0  0  0  0  0  0  0  0  0  0  0
    9.2570  -18.1759   17.5250 C   0  0  2  0  0  0  0  0  0  0  0  0
    7.8360  -18.2517   17.7479 N   0  0  0  0  0  0  0  0  0  0  0  0
    9.8913  -17.2168   18.4653 C   0  0  0  0  0  0  0  0  0  0  0  0
   11.1412  -17.0851   18.4624 O   0  0  0  0  0  0  0  0  0  0  0  0
    6.0913  -12.9623   20.4536 C   0  0  0  0  0  0  0  0  0  0  0  0
    7.5281  -12.1618   19.7386 S   0  0  0  0  0  0  0  0  0  0  0  0
    8.7686  -13.4506   19.3588 C   0  0  0  0  0  0  0  0  0  0  0  0
    8.8239  -14.3713   20.5391 C   0  0  0  0  0  0  0  0  0  0  0  0
    9.7629  -15.5466   20.2689 C   0  0  2  0  0  0  0  0  0  0  0  0
    9.0975  -16.4404   19.3748 N   0  0  0  0  0  0  0  0  0  0  0  0
    9.9924  -16.2169   21.5719 C   0  0  0  0  0  0  0  0  0  0  0  0
    9.0947  -16.9852   22.0211 O   0  0  0  0  0  0  0  0  0  0  0  0
   13.5639  -22.4531   21.9571 N   0  0  0  0  0  0  0  0  0  0  0  0
   13.8626  -22.2080   23.3341 C   0  0  0  0  0  0  0  0  0  0  0  0
   14.7235  -22.9661   23.9452 N   0  0  0  0  0  0  0  0  0  0  0  0
   13.2634  -21.1770   24.0720 N   0  0  0  0  0  0  0  0  0  0  0  0
   12.1761  -20.3844   23.4525 C   0  0  0  0  0  0  0  0  0  0  0  0
   12.8300  -19.4473   22.5234 C   0  0  0  0  0  0  0  0  0  0  0  0
   12.1720  -18.2113   22.1133 C   0  0  0  0  0  0  0  0  0  0  0  0
   11.7783  -17.2088   23.0967 C   0  0  2  0  0  0  0  0  0  0  0  0
   11.1395  -16.0671   22.3559 N   0  0  0  0  0  0  0  0  0  0  0  0
   12.8025  -16.5898   23.8886 C   0  0  0  0  0  0  0  0  0  0  0  0
   13.0838  -17.0797   25.1832 O   0  0  0  0  0  0  0  0  0  0  0  0
   13.4923  -15.6281   23.5369 O   0  0  0  0  0  0  0  0  0  0  0  0
  2  3  1  0
  2  1  1  0
  3  4  1  1
  5 12  1  0
  5  3  1  0
  6  5  2  0
  7  8  1  0
  8  9  1  0
  9 10  1  0
 11 10  1  1
 11 12  1  0
 13 11  1  0
 14 13  2  0
 16 15  1  0
 17 16  2  0
 18 16  1  0
 19 18  1  0
 20 19  1  0
 21 20  1  0
 22 21  1  6
 22 24  1  0
 22 23  1  0
 23 13  1  0
 24 25  1  0
 26 24  2  0
M  END
$$$$
