SMR.pdb
     RDKit          3D

 26 25  0  0  1  0  0  0  0  0999 V2000
    7.7922  -18.6936   21.4375 O   0  0  0  0  0  0  0  0  0  0  0  0
    6.4892  -18.2466   21.2267 C   0  0  0  0  0  0  0  0  0  0  0  0
    6.5344  -16.7969   20.8406 C   0  0  2  0  0  0  0  0  0  0  0  0
    7.0148  -16.6641   19.4892 N   0  0  0  0  0  0  0  0  0  0  0  0
    7.4195  -16.0768   21.7917 C   0  0  0  0  0  0  0  0  0  0  0  0
    8.6193  -15.8685   21.4808 O   0  0  0  0  0  0  0  0  0  0  0  0
    5.3722  -11.7143   26.1854 C   0  0  0  0  0  0  0  0  0  0  0  0
    6.6712  -12.5591   27.0885 S   0  0  0  0  0  0  0  0  0  0  0  0
    7.7917  -13.3436   25.8749 C   0  0  0  0  0  0  0  0  0  0  0  0
    6.9436  -14.1836   24.9699 C   0  0  0  0  0  0  0  0  0  0  0  0
    7.7973  -14.8617   23.8986 C   0  0  2  0  0  0  0  0  0  0  0  0
    6.9237  -15.6170   23.0577 N   0  0  0  0  0  0  0  0  0  0  0  0
    8.7258  -15.7746   24.6087 C   0  0  0  0  0  0  0  0  0  0  0  0
    8.3214  -16.9350   24.9051 O   0  0  0  0  0  0  0  0  0  0  0  0
   15.9465  -16.5696   20.4283 N   0  0  0  0  0  0  0  0  0  0  0  0
   15.1327  -15.3979   20.3271 C   0  0  0  0  0  0  0  0  0  0  0  0
   15.5817  -14.3627   19.6823 N   0  0  0  0  0  0  0  0  0  0  0  0
   13.8556  -15.3054   20.8989 N   0  0  0  0  0  0  0  0  0  0  0  0
   13.1975  -16.5356   21.3968 C   0  0  0  0  0  0  0  0  0  0  0  0
   13.0227  -16.3489   22.8472 C   0  0  0  0  0  0  0  0  0  0  0  0
   11.7875  -15.7956   23.3919 C   0  0  0  0  0  0  0  0  0  0  0  0
   11.2183  -16.3091   24.6326 C   0  0  2  0  0  0  0  0  0  0  0  0
   10.0334  -15.4519   24.9818 N   0  0  0  0  0  0  0  0  0  0  0  0
   12.0305  -16.2912   25.8155 C   0  0  0  0  0  0  0  0  0  0  0  0
   13.0683  -17.2366   25.9710 O   0  0  0  0  0  0  0  0  0  0  0  0
   11.9068  -15.4980   26.7535 O   0  0  0  0  0  0  0  0  0  0  0  0
  2  3  1  0
  2  1  1  0
  3  4  1  6
  5 12  1  0
  5  3  1  0
  6  5  2  0
  7  8  1  0
  8  9  1  0
  9 10  1  0
 11 10  1  1
 11 12  1  0
 13 11  1  0
 14 13  2  0
 16 15  1  0
 17 16  2  0
 18 16  1  0
 19 18  1  0
 20 19  1  0
 21 20  1  0
 22 21  1  6
 22 24  1  0
 22 23  1  0
 23 13  1  0
 24 25  1  0
 26 24  2  0
M  END
$$$$
