SMR.pdb
     RDKit          3D

 26 25  0  0  1  0  0  0  0  0999 V2000
    7.6297  -17.1893   20.3606 O   0  0  0  0  0  0  0  0  0  0  0  0
    6.6266  -16.2238   20.4206 C   0  0  0  0  0  0  0  0  0  0  0  0
    7.2641  -14.8653   20.3919 C   0  0  2  0  0  0  0  0  0  0  0  0
    8.1061  -14.7432   19.2297 N   0  0  0  0  0  0  0  0  0  0  0  0
    8.0501  -14.6802   21.6386 C   0  0  0  0  0  0  0  0  0  0  0  0
    9.3057  -14.6986   21.5848 O   0  0  0  0  0  0  0  0  0  0  0  0
    6.1749   -9.9785   26.4963 C   0  0  0  0  0  0  0  0  0  0  0  0
    6.3549  -11.7596   26.6061 S   0  0  0  0  0  0  0  0  0  0  0  0
    7.1704  -12.3453   25.0777 C   0  0  0  0  0  0  0  0  0  0  0  0
    7.3209  -13.8307   25.1992 C   0  0  0  0  0  0  0  0  0  0  0  0
    8.2005  -14.3820   24.0773 C   0  0  2  0  0  0  0  0  0  0  0  0
    7.3963  -14.4810   22.9007 N   0  0  0  0  0  0  0  0  0  0  0  0
    8.6369  -15.7340   24.5036 C   0  0  0  0  0  0  0  0  0  0  0  0
    7.8393  -16.7021   24.3475 O   0  0  0  0  0  0  0  0  0  0  0  0
   16.3862  -19.8778   23.3891 N   0  0  0  0  0  0  0  0  0  0  0  0
   15.4436  -20.7673   23.9938 C   0  0  0  0  0  0  0  0  0  0  0  0
   15.7593  -22.0176   24.1563 N   0  0  0  0  0  0  0  0  0  0  0  0
   14.1748  -20.3546   24.4253 N   0  0  0  0  0  0  0  0  0  0  0  0
   13.7328  -18.9690   24.1444 C   0  0  0  0  0  0  0  0  0  0  0  0
   12.3875  -18.8410   24.7299 C   0  0  0  0  0  0  0  0  0  0  0  0
   11.6619  -17.5762   24.6805 C   0  0  0  0  0  0  0  0  0  0  0  0
   10.3542  -17.4362   25.3109 C   0  0  2  0  0  0  0  0  0  0  0  0
    9.8790  -16.0300   25.0717 N   0  0  0  0  0  0  0  0  0  0  0  0
   10.2597  -17.6059   26.7327 C   0  0  0  0  0  0  0  0  0  0  0  0
   10.4320  -18.8872   27.3016 O   0  0  0  0  0  0  0  0  0  0  0  0
   10.0313  -16.7045   27.5449 O   0  0  0  0  0  0  0  0  0  0  0  0
  2  3  1  0
  2  1  1  0
  3  4  1  6
  5 12  1  0
  5  3  1  0
  6  5  2  0
  7  8  1  0
  8  9  1  0
  9 10  1  0
 11 10  1  1
 11 12  1  0
 13 11  1  0
 14 13  2  0
 16 15  1  0
 17 16  2  0
 18 16  1  0
 19 18  1  0
 20 19  1  0
 21 20  1  0
 22 21  1  1
 22 24  1  0
 22 23  1  0
 23 13  1  0
 24 25  1  0
 26 24  2  0
M  END
$$$$
