SMR.pdb
     RDKit          3D

 26 25  0  0  1  0  0  0  0  0999 V2000
    8.1226  -15.2202   18.8586 O   0  0  0  0  0  0  0  0  0  0  0  0
    6.8668  -14.6267   18.9713 C   0  0  0  0  0  0  0  0  0  0  0  0
    7.0455  -13.2012   19.4057 C   0  0  2  0  0  0  0  0  0  0  0  0
    7.8140  -12.4817   18.4227 N   0  0  0  0  0  0  0  0  0  0  0  0
    7.7256  -13.1861   20.7262 C   0  0  0  0  0  0  0  0  0  0  0  0
    8.9461  -12.8924   20.7882 O   0  0  0  0  0  0  0  0  0  0  0  0
    6.8112  -12.1157   28.3606 C   0  0  0  0  0  0  0  0  0  0  0  0
    6.0225  -12.4900   26.7939 S   0  0  0  0  0  0  0  0  0  0  0  0
    7.3237  -12.9628   25.5993 C   0  0  0  0  0  0  0  0  0  0  0  0
    6.6708  -13.0714   24.2555 C   0  0  0  0  0  0  0  0  0  0  0  0
    7.6988  -13.4123   23.1770 C   0  0  2  0  0  0  0  0  0  0  0  0
    7.0091  -13.5015   21.9291 N   0  0  0  0  0  0  0  0  0  0  0  0
    8.2672  -14.7352   23.5334 C   0  0  0  0  0  0  0  0  0  0  0  0
    7.5258  -15.7547   23.4408 O   0  0  0  0  0  0  0  0  0  0  0  0
   15.1096  -15.5064   18.5707 N   0  0  0  0  0  0  0  0  0  0  0  0
   14.8064  -16.8012   19.0969 C   0  0  0  0  0  0  0  0  0  0  0  0
   15.4192  -17.8435   18.6201 N   0  0  0  0  0  0  0  0  0  0  0  0
   13.8651  -17.0085   20.1155 N   0  0  0  0  0  0  0  0  0  0  0  0
   13.1016  -15.8518   20.6384 C   0  0  0  0  0  0  0  0  0  0  0  0
   12.3318  -16.3548   21.7887 C   0  0  0  0  0  0  0  0  0  0  0  0
   11.3500  -15.5127   22.4640 C   0  0  0  0  0  0  0  0  0  0  0  0
   10.4366  -16.0716   23.4541 C   0  0  2  0  0  0  0  0  0  0  0  0
    9.5777  -14.9501   23.9689 N   0  0  0  0  0  0  0  0  0  0  0  0
   10.9913  -16.6657   24.6367 C   0  0  0  0  0  0  0  0  0  0  0  0
   11.6533  -17.9107   24.5548 O   0  0  0  0  0  0  0  0  0  0  0  0
   10.9449  -16.1767   25.7695 O   0  0  0  0  0  0  0  0  0  0  0  0
  2  3  1  0
  2  1  1  0
  3  4  1  6
  5 12  1  0
  5  3  1  0
  6  5  2  0
  7  8  1  0
  8  9  1  0
  9 10  1  0
 11 10  1  1
 11 12  1  0
 13 11  1  0
 14 13  2  0
 16 15  1  0
 17 16  2  0
 18 16  1  0
 19 18  1  0
 20 19  1  0
 21 20  1  0
 22 21  1  6
 22 24  1  0
 22 23  1  0
 23 13  1  0
 24 25  1  0
 26 24  2  0
M  END
$$$$
