SMR.pdb
     RDKit          3D

 26 25  0  0  1  0  0  0  0  0999 V2000
    7.4507  -15.6857   18.5141 O   0  0  0  0  0  0  0  0  0  0  0  0
    7.5736  -15.7136   19.9019 C   0  0  0  0  0  0  0  0  0  0  0  0
    7.4503  -14.3118   20.4241 C   0  0  2  0  0  0  0  0  0  0  0  0
    8.1037  -13.3947   19.5260 N   0  0  0  0  0  0  0  0  0  0  0  0
    8.0574  -14.2517   21.7784 C   0  0  0  0  0  0  0  0  0  0  0  0
    9.2774  -13.9732   21.8958 O   0  0  0  0  0  0  0  0  0  0  0  0
    6.1404  -10.3330   26.8326 C   0  0  0  0  0  0  0  0  0  0  0  0
    6.7835  -12.0072   26.8407 S   0  0  0  0  0  0  0  0  0  0  0  0
    6.4305  -12.7612   25.2126 C   0  0  0  0  0  0  0  0  0  0  0  0
    6.8645  -14.1930   25.2859 C   0  0  0  0  0  0  0  0  0  0  0  0
    7.9212  -14.4963   24.2239 C   0  0  2  0  0  0  0  0  0  0  0  0
    7.2711  -14.5066   22.9518 N   0  0  0  0  0  0  0  0  0  0  0  0
    8.4546  -15.8466   24.5272 C   0  0  0  0  0  0  0  0  0  0  0  0
    7.7061  -16.8473   24.3369 O   0  0  0  0  0  0  0  0  0  0  0  0
   15.4080  -19.7467   22.0541 N   0  0  0  0  0  0  0  0  0  0  0  0
   14.0392  -20.1252   21.8860 C   0  0  0  0  0  0  0  0  0  0  0  0
   13.6721  -20.7236   20.7922 N   0  0  0  0  0  0  0  0  0  0  0  0
   13.0558  -19.8782   22.8547 N   0  0  0  0  0  0  0  0  0  0  0  0
   13.4462  -19.2365   24.1315 C   0  0  0  0  0  0  0  0  0  0  0  0
   12.1930  -18.9789   24.8610 C   0  0  0  0  0  0  0  0  0  0  0  0
   11.4201  -17.7642   24.6246 C   0  0  0  0  0  0  0  0  0  0  0  0
   10.2074  -17.4865   25.3857 C   0  0  2  0  0  0  0  0  0  0  0  0
    9.7388  -16.1074   25.0129 N   0  0  0  0  0  0  0  0  0  0  0  0
   10.2914  -17.4579   26.8180 C   0  0  0  0  0  0  0  0  0  0  0  0
   10.4383  -18.6638   27.5386 O   0  0  0  0  0  0  0  0  0  0  0  0
   10.2448  -16.4398   27.5149 O   0  0  0  0  0  0  0  0  0  0  0  0
  2  3  1  0
  2  1  1  0
  3  4  1  6
  5 12  1  0
  5  3  1  0
  6  5  2  0
  7  8  1  0
  8  9  1  0
  9 10  1  0
 11 10  1  1
 11 12  1  0
 13 11  1  0
 14 13  2  0
 16 15  1  0
 17 16  2  0
 18 16  1  0
 19 18  1  0
 20 19  1  0
 21 20  1  0
 22 21  1  6
 22 24  1  0
 22 23  1  0
 23 13  1  0
 24 25  1  0
 26 24  2  0
M  END
$$$$
