SMR.pdb
     RDKit          3D

 26 25  0  0  1  0  0  0  0  0999 V2000
    6.8989  -14.9916   18.3704 O   0  0  0  0  0  0  0  0  0  0  0  0
    7.7031  -14.9138   19.5059 C   0  0  0  0  0  0  0  0  0  0  0  0
    7.3994  -13.6310   20.2235 C   0  0  2  0  0  0  0  0  0  0  0  0
    7.7756  -12.5089   19.4026 N   0  0  0  0  0  0  0  0  0  0  0  0
    8.1391  -13.6178   21.5116 C   0  0  0  0  0  0  0  0  0  0  0  0
    9.3573  -13.3086   21.5204 O   0  0  0  0  0  0  0  0  0  0  0  0
    7.4455  -11.7201   27.9584 C   0  0  0  0  0  0  0  0  0  0  0  0
    6.1997  -11.9057   26.6816 S   0  0  0  0  0  0  0  0  0  0  0  0
    7.0498  -12.2735   25.1049 C   0  0  0  0  0  0  0  0  0  0  0  0
    7.3993  -13.7300   25.1213 C   0  0  0  0  0  0  0  0  0  0  0  0
    8.2760  -14.0927   23.9229 C   0  0  2  0  0  0  0  0  0  0  0  0
    7.4825  -13.9526   22.7432 N   0  0  0  0  0  0  0  0  0  0  0  0
    8.6710  -15.5116   24.0980 C   0  0  0  0  0  0  0  0  0  0  0  0
    7.8383  -16.4116   23.7908 O   0  0  0  0  0  0  0  0  0  0  0  0
   15.7725  -19.7502   21.2462 N   0  0  0  0  0  0  0  0  0  0  0  0
   15.0037  -20.6529   22.0458 C   0  0  0  0  0  0  0  0  0  0  0  0
   15.3561  -21.9020   22.1159 N   0  0  0  0  0  0  0  0  0  0  0  0
   13.8696  -20.2547   22.7679 N   0  0  0  0  0  0  0  0  0  0  0  0
   13.4409  -18.8378   22.7139 C   0  0  0  0  0  0  0  0  0  0  0  0
   12.2479  -18.7373   23.5716 C   0  0  0  0  0  0  0  0  0  0  0  0
   11.5330  -17.4743   23.7223 C   0  0  0  0  0  0  0  0  0  0  0  0
   10.3411  -17.3818   24.5576 C   0  0  2  0  0  0  0  0  0  0  0  0
    9.9096  -15.9418   24.5816 N   0  0  0  0  0  0  0  0  0  0  0  0
   10.4475  -17.7438   25.9422 C   0  0  0  0  0  0  0  0  0  0  0  0
   10.2923  -16.7577   26.9414 O   0  0  0  0  0  0  0  0  0  0  0  0
   10.6725  -18.8812   26.3666 O   0  0  0  0  0  0  0  0  0  0  0  0
  2  3  1  0
  2  1  1  0
  3  4  1  6
  5 12  1  0
  5  3  1  0
  6  5  2  0
  7  8  1  0
  8  9  1  0
  9 10  1  0
 11 10  1  1
 11 12  1  0
 13 11  1  0
 14 13  2  0
 16 15  1  0
 17 16  2  0
 18 16  1  0
 19 18  1  0
 20 19  1  0
 21 20  1  0
 22 21  1  1
 22 24  1  0
 22 23  1  0
 23 13  1  0
 24 25  1  0
 26 24  2  0
M  END
$$$$
