SMR.pdb
     RDKit          3D

 26 25  0  0  1  0  0  0  0  0999 V2000
    7.5224  -17.9599   20.5255 O   0  0  0  0  0  0  0  0  0  0  0  0
    6.4396  -17.0829   20.5038 C   0  0  0  0  0  0  0  0  0  0  0  0
    6.9508  -15.6934   20.2568 C   0  0  2  0  0  0  0  0  0  0  0  0
    7.7029  -15.6588   19.0289 N   0  0  0  0  0  0  0  0  0  0  0  0
    7.7951  -15.2836   21.4081 C   0  0  0  0  0  0  0  0  0  0  0  0
    9.0462  -15.3544   21.3117 O   0  0  0  0  0  0  0  0  0  0  0  0
    5.8720  -11.4149   26.3218 C   0  0  0  0  0  0  0  0  0  0  0  0
    6.9092  -12.6024   27.1764 S   0  0  0  0  0  0  0  0  0  0  0  0
    8.0368  -13.3596   25.9520 C   0  0  0  0  0  0  0  0  0  0  0  0
    7.1955  -13.8128   24.7984 C   0  0  0  0  0  0  0  0  0  0  0  0
    8.0636  -14.4236   23.6987 C   0  0  2  0  0  0  0  0  0  0  0  0
    7.2024  -14.8088   22.6260 N   0  0  0  0  0  0  0  0  0  0  0  0
    8.7080  -15.6252   24.2828 C   0  0  0  0  0  0  0  0  0  0  0  0
    8.0303  -16.6882   24.3745 O   0  0  0  0  0  0  0  0  0  0  0  0
   15.5930  -17.2898   22.2758 N   0  0  0  0  0  0  0  0  0  0  0  0
   15.8653  -18.3820   23.1579 C   0  0  0  0  0  0  0  0  0  0  0  0
   17.0979  -18.6840   23.4383 N   0  0  0  0  0  0  0  0  0  0  0  0
   14.8551  -19.1583   23.7439 N   0  0  0  0  0  0  0  0  0  0  0  0
   13.4386  -18.8379   23.4525 C   0  0  0  0  0  0  0  0  0  0  0  0
   12.9397  -18.0877   24.6175 C   0  0  0  0  0  0  0  0  0  0  0  0
   12.0200  -16.9669   24.4540 C   0  0  0  0  0  0  0  0  0  0  0  0
   10.7141  -16.9670   25.1033 C   0  0  2  0  0  0  0  0  0  0  0  0
   10.0253  -15.6792   24.7462 N   0  0  0  0  0  0  0  0  0  0  0  0
   10.6639  -17.0110   26.5368 C   0  0  0  0  0  0  0  0  0  0  0  0
   10.6755  -18.2561   27.2036 O   0  0  0  0  0  0  0  0  0  0  0  0
   10.6078  -16.0259   27.2789 O   0  0  0  0  0  0  0  0  0  0  0  0
  2  3  1  0
  2  1  1  0
  3  4  1  6
  5 12  1  0
  5  3  1  0
  6  5  2  0
  7  8  1  0
  8  9  1  0
  9 10  1  0
 11 10  1  1
 11 12  1  0
 13 11  1  0
 14 13  2  0
 16 15  1  0
 17 16  2  0
 18 16  1  0
 19 18  1  0
 20 19  1  0
 21 20  1  0
 22 21  1  1
 22 24  1  0
 22 23  1  0
 23 13  1  0
 24 25  1  0
 26 24  2  0
M  END
$$$$
