SMR.pdb
     RDKit          3D

 26 25  0  0  1  0  0  0  0  0999 V2000
    7.7595  -15.7764   19.9823 O   0  0  0  0  0  0  0  0  0  0  0  0
    6.6414  -14.9601   19.8229 C   0  0  0  0  0  0  0  0  0  0  0  0
    7.0056  -13.5610   20.2264 C   0  0  2  0  0  0  0  0  0  0  0  0
    7.6842  -12.8989   19.1421 N   0  0  0  0  0  0  0  0  0  0  0  0
    7.8681  -13.6216   21.4342 C   0  0  0  0  0  0  0  0  0  0  0  0
    9.1170  -13.5699   21.3036 O   0  0  0  0  0  0  0  0  0  0  0  0
    5.5130  -12.4429   27.4458 C   0  0  0  0  0  0  0  0  0  0  0  0
    6.6512  -11.2777   26.6951 S   0  0  0  0  0  0  0  0  0  0  0  0
    7.0218  -11.8548   24.9999 C   0  0  0  0  0  0  0  0  0  0  0  0
    7.3703  -13.3085   25.0949 C   0  0  0  0  0  0  0  0  0  0  0  0
    8.1718  -13.7568   23.8731 C   0  0  2  0  0  0  0  0  0  0  0  0
    7.2953  -13.7380   22.7451 N   0  0  0  0  0  0  0  0  0  0  0  0
    8.6164  -15.1461   24.1416 C   0  0  0  0  0  0  0  0  0  0  0  0
    7.7717  -16.0805   24.0360 O   0  0  0  0  0  0  0  0  0  0  0  0
   15.2344  -14.6996   21.6032 N   0  0  0  0  0  0  0  0  0  0  0  0
   14.1954  -14.9822   20.6620 C   0  0  0  0  0  0  0  0  0  0  0  0
   14.1596  -14.3328   19.5368 N   0  0  0  0  0  0  0  0  0  0  0  0
   13.1954  -15.9373   20.8948 N   0  0  0  0  0  0  0  0  0  0  0  0
   13.2325  -16.7302   22.1454 C   0  0  0  0  0  0  0  0  0  0  0  0
   11.9151  -16.5563   22.7805 C   0  0  0  0  0  0  0  0  0  0  0  0
   11.6302  -17.1275   24.0925 C   0  0  0  0  0  0  0  0  0  0  0  0
   10.3298  -16.9409   24.7259 C   0  0  2  0  0  0  0  0  0  0  0  0
    9.9147  -15.5126   24.5065 N   0  0  0  0  0  0  0  0  0  0  0  0
   10.2285  -17.1263   26.1452 C   0  0  0  0  0  0  0  0  0  0  0  0
   10.2841  -18.4279   26.6908 O   0  0  0  0  0  0  0  0  0  0  0  0
   10.0900  -16.2220   26.9744 O   0  0  0  0  0  0  0  0  0  0  0  0
  2  3  1  0
  2  1  1  0
  3  4  1  6
  5 12  1  0
  5  3  1  0
  6  5  2  0
  7  8  1  0
  8  9  1  0
  9 10  1  0
 11 10  1  1
 11 12  1  0
 13 11  1  0
 14 13  2  0
 16 15  1  0
 17 16  2  0
 18 16  1  0
 19 18  1  0
 20 19  1  0
 21 20  1  0
 22 21  1  1
 22 24  1  0
 22 23  1  0
 23 13  1  0
 24 25  1  0
 26 24  2  0
M  END
$$$$
