SMR.pdb
     RDKit          3D

 26 25  0  0  1  0  0  0  0  0999 V2000
    8.4225  -15.4352   19.4583 O   0  0  0  0  0  0  0  0  0  0  0  0
    7.2851  -14.6301   19.4531 C   0  0  0  0  0  0  0  0  0  0  0  0
    7.6407  -13.2911   20.0306 C   0  0  2  0  0  0  0  0  0  0  0  0
    8.5304  -12.5931   19.1385 N   0  0  0  0  0  0  0  0  0  0  0  0
    8.2741  -13.4968   21.3583 C   0  0  0  0  0  0  0  0  0  0  0  0
    9.5146  -13.3371   21.4814 O   0  0  0  0  0  0  0  0  0  0  0  0
    5.8528  -10.6516   27.1418 C   0  0  0  0  0  0  0  0  0  0  0  0
    6.1385  -12.3873   26.7919 S   0  0  0  0  0  0  0  0  0  0  0  0
    6.7763  -12.5268   25.0837 C   0  0  0  0  0  0  0  0  0  0  0  0
    7.1283  -13.9656   24.8603 C   0  0  0  0  0  0  0  0  0  0  0  0
    8.1591  -14.1059   23.7404 C   0  0  2  0  0  0  0  0  0  0  0  0
    7.4900  -13.8744   22.4996 N   0  0  0  0  0  0  0  0  0  0  0  0
    8.6557  -15.5026   23.7912 C   0  0  0  0  0  0  0  0  0  0  0  0
    7.8748  -16.4332   23.4421 O   0  0  0  0  0  0  0  0  0  0  0  0
   14.5451  -14.6131   19.9989 N   0  0  0  0  0  0  0  0  0  0  0  0
   13.2681  -15.0502   19.5263 C   0  0  0  0  0  0  0  0  0  0  0  0
   12.8543  -14.6645   18.3561 N   0  0  0  0  0  0  0  0  0  0  0  0
   12.4241  -15.8850   20.2728 N   0  0  0  0  0  0  0  0  0  0  0  0
   12.7059  -16.0945   21.7119 C   0  0  0  0  0  0  0  0  0  0  0  0
   11.7376  -17.1020   22.1770 C   0  0  0  0  0  0  0  0  0  0  0  0
   11.6350  -17.4521   23.5896 C   0  0  0  0  0  0  0  0  0  0  0  0
   10.3725  -17.3151   24.3069 C   0  0  2  0  0  0  0  0  0  0  0  0
    9.9382  -15.8798   24.1988 N   0  0  0  0  0  0  0  0  0  0  0  0
   10.3545  -17.5865   25.7159 C   0  0  0  0  0  0  0  0  0  0  0  0
   10.6173  -18.8928   26.1844 O   0  0  0  0  0  0  0  0  0  0  0  0
   10.1204  -16.7562   26.5991 O   0  0  0  0  0  0  0  0  0  0  0  0
  2  3  1  0
  2  1  1  0
  3  4  1  6
  5 12  1  0
  5  3  1  0
  6  5  2  0
  7  8  1  0
  8  9  1  0
  9 10  1  0
 11 10  1  1
 11 12  1  0
 13 11  1  0
 14 13  2  0
 16 15  1  0
 17 16  2  0
 18 16  1  0
 19 18  1  0
 20 19  1  0
 21 20  1  0
 22 21  1  1
 22 24  1  0
 22 23  1  0
 23 13  1  0
 24 25  1  0
 26 24  2  0
M  END
$$$$
