SMR.pdb
     RDKit          3D

 26 25  0  0  1  0  0  0  0  0999 V2000
    7.8646  -14.8672   18.2579 O   0  0  0  0  0  0  0  0  0  0  0  0
    8.1052  -14.4501   19.5657 C   0  0  0  0  0  0  0  0  0  0  0  0
    8.4181  -15.6544   20.4050 C   0  0  2  0  0  0  0  0  0  0  0  0
    7.3123  -16.5766   20.3710 N   0  0  0  0  0  0  0  0  0  0  0  0
    8.6952  -15.2090   21.7947 C   0  0  0  0  0  0  0  0  0  0  0  0
    9.6582  -14.4314   22.0128 O   0  0  0  0  0  0  0  0  0  0  0  0
    5.6620  -11.6512   26.8197 C   0  0  0  0  0  0  0  0  0  0  0  0
    6.4072  -13.2823   26.7920 S   0  0  0  0  0  0  0  0  0  0  0  0
    6.3806  -13.8919   25.0682 C   0  0  0  0  0  0  0  0  0  0  0  0
    6.9957  -15.2577   25.0736 C   0  0  0  0  0  0  0  0  0  0  0  0
    8.2607  -15.2881   24.2161 C   0  0  2  0  0  0  0  0  0  0  0  0
    7.8797  -15.6539   22.8888 N   0  0  0  0  0  0  0  0  0  0  0  0
    9.1411  -16.3332   24.7928 C   0  0  0  0  0  0  0  0  0  0  0  0
    8.7090  -17.5196   24.8533 O   0  0  0  0  0  0  0  0  0  0  0  0
   16.1967  -14.6752   22.0427 N   0  0  0  0  0  0  0  0  0  0  0  0
   15.1295  -15.3248   21.3467 C   0  0  0  0  0  0  0  0  0  0  0  0
   14.9850  -15.1254   20.0706 N   0  0  0  0  0  0  0  0  0  0  0  0
   14.2143  -16.1777   21.9803 N   0  0  0  0  0  0  0  0  0  0  0  0
   14.3140  -16.3833   23.4439 C   0  0  0  0  0  0  0  0  0  0  0  0
   12.9494  -16.6834   23.9098 C   0  0  0  0  0  0  0  0  0  0  0  0
   12.6744  -16.9403   25.3194 C   0  0  0  0  0  0  0  0  0  0  0  0
   11.3188  -17.2159   25.7813 C   0  0  2  0  0  0  0  0  0  0  0  0
   10.4312  -16.1100   25.2815 N   0  0  0  0  0  0  0  0  0  0  0  0
   11.0738  -17.2566   27.1947 C   0  0  0  0  0  0  0  0  0  0  0  0
   11.4471  -18.3961   27.9412 O   0  0  0  0  0  0  0  0  0  0  0  0
   10.5445  -16.3561   27.8529 O   0  0  0  0  0  0  0  0  0  0  0  0
  2  3  1  0
  2  1  1  0
  3  4  1  1
  5 12  1  0
  5  3  1  0
  6  5  2  0
  7  8  1  0
  8  9  1  0
  9 10  1  0
 11 10  1  1
 11 12  1  0
 13 11  1  0
 14 13  2  0
 16 15  1  0
 17 16  2  0
 18 16  1  0
 19 18  1  0
 20 19  1  0
 21 20  1  0
 22 21  1  1
 22 24  1  0
 22 23  1  0
 23 13  1  0
 24 25  1  0
 26 24  2  0
M  END
$$$$
