RGT.pdb
     RDKit          3D

 23 22  0  0  1  0  0  0  0  0999 V2000
    7.6562  -15.2280   16.4683 N   0  0  0  0  0  0  0  0  0  0  0  0
    8.3898  -14.0083   16.4916 C   0  0  0  0  0  0  0  0  0  0  0  0
    9.2529  -13.7675   15.5450 N   0  0  0  0  0  0  0  0  0  0  0  0
    8.2252  -13.0351   17.5033 N   0  0  0  0  0  0  0  0  0  0  0  0
    8.4710  -13.3038   18.9009 C   0  0  0  0  0  0  0  0  0  0  0  0
    7.2284  -14.0364   19.4492 C   0  0  0  0  0  0  0  0  0  0  0  0
    7.5576  -14.5012   20.8290 C   0  0  0  0  0  0  0  0  0  0  0  0
    8.4916  -15.6701   20.8438 C   0  0  2  0  0  0  0  0  0  0  0  0
    7.8274  -16.8726   20.3374 N   0  0  0  0  0  0  0  0  0  0  0  0
    9.1338  -15.9015   22.1318 C   0  0  0  0  0  0  0  0  0  0  0  0
    9.9336  -15.0340   22.5864 O   0  0  0  0  0  0  0  0  0  0  0  0
    9.8448  -12.9018   15.5798 N   0  0  0  0  0  0  0  0  0  0  0  0
    8.9128  -17.0693   22.9292 C   0  0  0  0  0  0  0  0  0  0  0  0
    9.6426  -17.2506   24.1362 C   0  0  0  0  0  0  0  0  0  0  0  0
    9.0705  -16.4920   25.2805 O   0  0  0  0  0  0  0  0  0  0  0  0
    7.8649  -16.2086   25.3984 C   0  0  0  0  0  0  0  0  0  0  0  0
   10.0659  -14.6921   29.8229 C   0  0  2  0  0  0  0  0  0  0  0  0
   10.5776  -15.3067   28.5422 O   0  0  0  0  0  0  0  0  0  0  0  0
   11.0113  -16.6042   28.8484 C   0  0  1  0  0  0  0  0  0  0  0  0
    9.4974  -15.3601   27.4798 N   0  0  0  0  0  0  0  0  0  0  0  0
    9.9640  -16.0689   26.2975 C   0  0  0  0  0  0  0  0  0  0  0  0
    8.9750  -14.0257   27.1448 O   0  0  0  0  0  0  0  0  0  0  0  0
    7.9868  -13.4603   27.9167 O   0  0  0  0  0  0  0  0  0  0  0  0
  2  4  1  0
  2  1  1  0
  3  2  2  0
  5  4  1  0
  6  5  1  0
  7  8  1  0
  7  6  1  0
  8  9  1  1
  8 10  1  0
 10 12  1  0
 10 11  2  0
 12 13  1  0
 14 13  1  0
 14 20  1  0
 15 14  2  0
 17 16  1  1
 18 17  1  0
 19 21  1  0
 19 20  1  6
 19 17  1  0
 21 22  1  0
 23 21  2  0
M  END
$$$$
