RGT.pdb
     RDKit          3D

 23 22  0  0  1  0  0  0  0  0999 V2000
    9.5824  -14.5341   16.6582 N   0  0  0  0  0  0  0  0  0  0  0  0
    8.3737  -13.8776   16.2915 C   0  0  0  0  0  0  0  0  0  0  0  0
    8.3945  -12.9987   15.3291 N   0  0  0  0  0  0  0  0  0  0  0  0
    7.1386  -14.1361   16.9280 N   0  0  0  0  0  0  0  0  0  0  0  0
    7.0391  -14.7263   18.2424 C   0  0  0  0  0  0  0  0  0  0  0  0
    7.7530  -13.7736   19.2245 C   0  0  0  0  0  0  0  0  0  0  0  0
    7.5776  -14.3347   20.5967 C   0  0  0  0  0  0  0  0  0  0  0  0
    8.8145  -14.9944   21.1199 C   0  0  2  0  0  0  0  0  0  0  0  0
    9.2269  -16.0936   20.2452 N   0  0  0  0  0  0  0  0  0  0  0  0
    8.7219  -15.4102   22.5141 C   0  0  0  0  0  0  0  0  0  0  0  0
    8.3654  -14.5670   23.3863 O   0  0  0  0  0  0  0  0  0  0  0  0
    7.5161  -12.4918   15.0599 N   0  0  0  0  0  0  0  0  0  0  0  0
    9.0143  -16.7360   22.9668 C   0  0  0  0  0  0  0  0  0  0  0  0
    8.8978  -17.0541   24.3479 C   0  0  0  0  0  0  0  0  0  0  0  0
    9.9240  -16.3804   25.1877 O   0  0  0  0  0  0  0  0  0  0  0  0
   11.0493  -16.0421   24.7792 C   0  0  0  0  0  0  0  0  0  0  0  0
    8.6901  -14.1548   28.5725 C   0  0  2  0  0  0  0  0  0  0  0  0
    9.9959  -14.0631   27.8199 O   0  0  0  0  0  0  0  0  0  0  0  0
   10.9160  -13.4217   28.6609 C   0  0  1  0  0  0  0  0  0  0  0  0
   10.5150  -15.4350   27.4366 N   0  0  0  0  0  0  0  0  0  0  0  0
    9.5893  -16.1103   26.5393 C   0  0  0  0  0  0  0  0  0  0  0  0
   10.8356  -16.2608   28.6117 O   0  0  0  0  0  0  0  0  0  0  0  0
   10.1376  -17.4225   28.8469 O   0  0  0  0  0  0  0  0  0  0  0  0
  2  4  1  0
  2  1  1  0
  3  2  2  0
  5  4  1  0
  6  5  1  0
  7  8  1  0
  7  6  1  0
  8  9  1  6
  8 10  1  0
 10 12  1  0
 10 11  2  0
 12 13  1  0
 14 13  1  0
 14 20  1  0
 15 14  2  0
 17 16  1  6
 18 17  1  0
 19 21  1  0
 19 20  1  6
 19 17  1  0
 21 22  1  0
 23 21  2  0
M  END
$$$$
