RGT.pdb
     RDKit          3D

 23 22  0  0  1  0  0  0  0  0999 V2000
    9.0943  -14.1871   17.4609 N   0  0  0  0  0  0  0  0  0  0  0  0
    9.3864  -13.3890   18.6028 C   0  0  0  0  0  0  0  0  0  0  0  0
   10.6304  -13.1845   18.9340 N   0  0  0  0  0  0  0  0  0  0  0  0
    8.3809  -12.8012   19.4035 N   0  0  0  0  0  0  0  0  0  0  0  0
    8.1317  -13.1969   20.7699 C   0  0  0  0  0  0  0  0  0  0  0  0
    6.9328  -14.1684   20.7511 C   0  0  0  0  0  0  0  0  0  0  0  0
    7.4054  -15.4706   21.3075 C   0  0  0  0  0  0  0  0  0  0  0  0
    7.4650  -15.4791   22.8026 C   0  0  2  0  0  0  0  0  0  0  0  0
    8.1899  -14.3086   23.3005 N   0  0  0  0  0  0  0  0  0  0  0  0
    7.9762  -16.7209   23.3699 C   0  0  0  0  0  0  0  0  0  0  0  0
    7.2211  -17.7340   23.4163 O   0  0  0  0  0  0  0  0  0  0  0  0
   10.8626  -12.5943   19.7700 N   0  0  0  0  0  0  0  0  0  0  0  0
    9.3024  -16.8691   23.8871 C   0  0  0  0  0  0  0  0  0  0  0  0
    9.7240  -18.1247   24.4049 C   0  0  0  0  0  0  0  0  0  0  0  0
    9.5615  -18.2289   25.8797 O   0  0  0  0  0  0  0  0  0  0  0  0
    8.5982  -17.7595   26.5117 C   0  0  0  0  0  0  0  0  0  0  0  0
   10.3467  -21.7309   27.3085 C   0  0  2  0  0  0  0  0  0  0  0  0
   10.9630  -20.7016   28.2253 O   0  0  0  0  0  0  0  0  0  0  0  0
   12.3413  -20.6896   27.9695 C   0  0  2  0  0  0  0  0  0  0  0  0
   10.3808  -19.3226   27.9852 N   0  0  0  0  0  0  0  0  0  0  0  0
   10.5743  -18.9087   26.6034 C   0  0  0  0  0  0  0  0  0  0  0  0
   10.9005  -18.3227   28.9317 O   0  0  0  0  0  0  0  0  0  0  0  0
   10.6579  -18.4595   30.2787 O   0  0  0  0  0  0  0  0  0  0  0  0
  2  4  1  0
  2  1  1  0
  3  2  2  0
  5  4  1  0
  6  5  1  0
  7  8  1  0
  7  6  1  0
  8  9  1  6
  8 10  1  0
 10 12  1  0
 10 11  2  0
 12 13  1  0
 14 13  1  0
 14 20  1  0
 15 14  2  0
 17 16  1  1
 18 17  1  0
 19 21  1  0
 19 20  1  1
 19 17  1  0
 21 22  1  0
 23 21  2  0
M  END
$$$$
