RGT.pdb
     RDKit          3D

 23 22  0  0  1  0  0  0  0  0999 V2000
    9.7828  -14.2495   17.3973 N   0  0  0  0  0  0  0  0  0  0  0  0
    8.5417  -13.7520   16.9088 C   0  0  0  0  0  0  0  0  0  0  0  0
    8.2870  -13.8219   15.6324 N   0  0  0  0  0  0  0  0  0  0  0  0
    7.5616  -13.1796   17.7511 N   0  0  0  0  0  0  0  0  0  0  0  0
    7.7143  -13.0840   19.1840 C   0  0  0  0  0  0  0  0  0  0  0  0
    7.6430  -14.5194   19.7463 C   0  0  0  0  0  0  0  0  0  0  0  0
    7.7323  -14.4207   21.2331 C   0  0  0  0  0  0  0  0  0  0  0  0
    7.7198  -15.7559   21.9085 C   0  0  2  0  0  0  0  0  0  0  0  0
    7.1771  -16.7836   21.0180 N   0  0  0  0  0  0  0  0  0  0  0  0
    7.0630  -15.7575   23.2098 C   0  0  0  0  0  0  0  0  0  0  0  0
    6.1803  -14.8861   23.4558 O   0  0  0  0  0  0  0  0  0  0  0  0
    7.3572  -13.5058   15.2629 N   0  0  0  0  0  0  0  0  0  0  0  0
    7.3588  -16.6996   24.2458 C   0  0  0  0  0  0  0  0  0  0  0  0
    6.6538  -16.6398   25.4793 C   0  0  0  0  0  0  0  0  0  0  0  0
    7.1831  -17.5861   26.4974 O   0  0  0  0  0  0  0  0  0  0  0  0
    6.6968  -17.7353   27.6327 C   0  0  0  0  0  0  0  0  0  0  0  0
    7.8713  -21.3052   26.0911 C   0  0  2  0  0  0  0  0  0  0  0  0
    9.1741  -20.6352   26.4565 O   0  0  0  0  0  0  0  0  0  0  0  0
    9.9148  -20.4947   25.2745 C   0  0  2  0  0  0  0  0  0  0  0  0
    8.9434  -19.2757   27.0865 N   0  0  0  0  0  0  0  0  0  0  0  0
    8.3148  -18.3639   26.1424 C   0  0  0  0  0  0  0  0  0  0  0  0
   10.1749  -18.7065   27.6567 O   0  0  0  0  0  0  0  0  0  0  0  0
   10.8428  -19.3749   28.6563 O   0  0  0  0  0  0  0  0  0  0  0  0
  2  4  1  0
  2  1  1  0
  3  2  2  0
  5  4  1  0
  6  5  1  0
  7  8  1  0
  7  6  1  0
  8  9  1  6
  8 10  1  0
 10 12  1  0
 10 11  2  0
 12 13  1  0
 14 13  1  0
 14 20  1  0
 15 14  2  0
 17 16  1  1
 18 17  1  0
 19 21  1  0
 19 20  1  1
 19 17  1  0
 21 22  1  0
 23 21  2  0
M  END
$$$$
