RGT.pdb
     RDKit          3D

 23 22  0  0  1  0  0  0  0  0999 V2000
    8.7017  -14.7499   15.8752 N   0  0  0  0  0  0  0  0  0  0  0  0
    8.1392  -13.9139   16.8808 C   0  0  0  0  0  0  0  0  0  0  0  0
    6.9713  -13.3720   16.6769 N   0  0  0  0  0  0  0  0  0  0  0  0
    8.7937  -13.6403   18.1033 N   0  0  0  0  0  0  0  0  0  0  0  0
    8.4267  -14.2697   19.3502 C   0  0  0  0  0  0  0  0  0  0  0  0
    7.0743  -13.6660   19.7843 C   0  0  0  0  0  0  0  0  0  0  0  0
    6.7664  -14.1951   21.1457 C   0  0  0  0  0  0  0  0  0  0  0  0
    7.7768  -15.1877   21.6284 C   0  0  2  0  0  0  0  0  0  0  0  0
    7.6561  -16.4499   20.8964 N   0  0  0  0  0  0  0  0  0  0  0  0
    7.7687  -15.3899   23.0720 C   0  0  0  0  0  0  0  0  0  0  0  0
    7.8710  -14.3870   23.8354 O   0  0  0  0  0  0  0  0  0  0  0  0
    6.5043  -12.8244   17.4404 N   0  0  0  0  0  0  0  0  0  0  0  0
    7.6503  -16.6745   23.6918 C   0  0  0  0  0  0  0  0  0  0  0  0
    7.5511  -16.7711   25.1071 C   0  0  0  0  0  0  0  0  0  0  0  0
    8.8672  -16.6578   25.7907 O   0  0  0  0  0  0  0  0  0  0  0  0
    9.8841  -17.2931   25.4591 C   0  0  0  0  0  0  0  0  0  0  0  0
    9.1072  -13.9824   29.2037 C   0  0  2  0  0  0  0  0  0  0  0  0
   10.2514  -14.1831   28.2392 O   0  0  0  0  0  0  0  0  0  0  0  0
   11.4398  -14.0276   28.9664 C   0  0  1  0  0  0  0  0  0  0  0  0
   10.2099  -15.5594   27.6049 N   0  0  0  0  0  0  0  0  0  0  0  0
    8.9593  -15.7660   26.8898 C   0  0  0  0  0  0  0  0  0  0  0  0
   10.4648  -16.6328   28.5789 O   0  0  0  0  0  0  0  0  0  0  0  0
   11.7317  -16.8192   29.0810 O   0  0  0  0  0  0  0  0  0  0  0  0
  2  4  1  0
  2  1  1  0
  3  2  2  0
  5  4  1  0
  6  5  1  0
  7  8  1  0
  7  6  1  0
  8  9  1  6
  8 10  1  0
 10 12  1  0
 10 11  2  0
 12 13  1  0
 14 13  1  0
 14 20  1  0
 15 14  2  0
 17 16  1  6
 18 17  1  0
 19 21  1  0
 19 20  1  6
 19 17  1  0
 21 22  1  0
 23 21  2  0
M  END
$$$$
