RGT.pdb
     RDKit          3D

 23 22  0  0  1  0  0  0  0  0999 V2000
    8.1283  -11.9350   19.9349 N   0  0  0  0  0  0  0  0  0  0  0  0
    8.0739  -13.0711   19.0789 C   0  0  0  0  0  0  0  0  0  0  0  0
    8.7892  -13.0808   17.9892 N   0  0  0  0  0  0  0  0  0  0  0  0
    7.2727  -14.2017   19.3573 N   0  0  0  0  0  0  0  0  0  0  0  0
    6.5170  -14.3490   20.5792 C   0  0  0  0  0  0  0  0  0  0  0  0
    6.7631  -15.7818   21.0969 C   0  0  0  0  0  0  0  0  0  0  0  0
    7.5714  -15.6714   22.3471 C   0  0  0  0  0  0  0  0  0  0  0  0
    7.8697  -16.9996   22.9683 C   0  0  2  0  0  0  0  0  0  0  0  0
    6.6337  -17.7363   23.2386 N   0  0  0  0  0  0  0  0  0  0  0  0
    8.7306  -16.9265   24.1425 C   0  0  0  0  0  0  0  0  0  0  0  0
    8.2674  -16.4481   25.2175 O   0  0  0  0  0  0  0  0  0  0  0  0
    8.7868  -13.9244   17.3653 N   0  0  0  0  0  0  0  0  0  0  0  0
   10.0914  -17.3696   24.1564 C   0  0  0  0  0  0  0  0  0  0  0  0
   11.1462  -16.4159   24.1700 C   0  0  0  0  0  0  0  0  0  0  0  0
   11.2909  -15.7286   25.4811 O   0  0  0  0  0  0  0  0  0  0  0  0
   11.6056  -14.5321   25.6121 C   0  0  0  0  0  0  0  0  0  0  0  0
   10.5860  -13.6390   27.0725 C   0  0  2  0  0  0  0  0  0  0  0  0
   10.2285  -14.6938   28.0920 O   0  0  0  0  0  0  0  0  0  0  0  0
    8.8980  -15.0668   27.8549 C   0  0  2  0  0  0  0  0  0  0  0  0
   11.1327  -15.9055   27.9799 N   0  0  0  0  0  0  0  0  0  0  0  0
   11.0529  -16.4939   26.6512 C   0  0  0  0  0  0  0  0  0  0  0  0
   10.8703  -16.8994   29.0330 O   0  0  0  0  0  0  0  0  0  0  0  0
   11.2158  -16.6278   30.3364 O   0  0  0  0  0  0  0  0  0  0  0  0
  2  4  1  0
  2  1  1  0
  3  2  2  0
  5  4  1  0
  6  5  1  0
  7  8  1  0
  7  6  1  0
  8  9  1  1
  8 10  1  0
 10 12  1  0
 10 11  2  0
 12 13  1  0
 14 13  1  0
 14 20  1  0
 15 14  2  0
 17 16  1  1
 18 17  1  0
 19 21  1  0
 19 20  1  1
 19 17  1  0
 21 22  1  0
 23 21  2  0
M  END
$$$$
