RGT.pdb
     RDKit          3D

 23 22  0  0  1  0  0  0  0  0999 V2000
    7.4585  -11.9600   19.3399 N   0  0  0  0  0  0  0  0  0  0  0  0
    7.9867  -13.0141   18.5422 C   0  0  0  0  0  0  0  0  0  0  0  0
    7.5805  -13.1440   17.3105 N   0  0  0  0  0  0  0  0  0  0  0  0
    8.9411  -13.9368   19.0274 N   0  0  0  0  0  0  0  0  0  0  0  0
    8.6238  -14.9623   19.9935 C   0  0  0  0  0  0  0  0  0  0  0  0
    7.3748  -14.4890   20.7664 C   0  0  0  0  0  0  0  0  0  0  0  0
    6.7364  -15.6982   21.3653 C   0  0  0  0  0  0  0  0  0  0  0  0
    7.6719  -16.8614   21.4687 C   0  0  2  0  0  0  0  0  0  0  0  0
    6.9484  -18.0787   21.8405 N   0  0  0  0  0  0  0  0  0  0  0  0
    8.8224  -16.6239   22.3318 C   0  0  0  0  0  0  0  0  0  0  0  0
    9.5571  -15.6177   22.1164 O   0  0  0  0  0  0  0  0  0  0  0  0
    8.0661  -13.8124   16.6636 N   0  0  0  0  0  0  0  0  0  0  0  0
    9.1799  -17.4727   23.4273 C   0  0  0  0  0  0  0  0  0  0  0  0
   10.2781  -17.1264   24.2618 C   0  0  0  0  0  0  0  0  0  0  0  0
   10.4522  -18.0571   25.4088 O   0  0  0  0  0  0  0  0  0  0  0  0
    9.7701  -18.0204   26.4486 C   0  0  0  0  0  0  0  0  0  0  0  0
   12.6320  -22.3322   26.7338 C   0  0  2  0  0  0  0  0  0  0  0  0
   12.6947  -21.0774   25.8965 O   0  0  0  0  0  0  0  0  0  0  0  0
   12.4892  -21.4573   24.5627 C   0  0  1  0  0  0  0  0  0  0  0  0
   11.6384  -20.0743   26.3167 N   0  0  0  0  0  0  0  0  0  0  0  0
   11.4626  -19.0466   25.3014 C   0  0  0  0  0  0  0  0  0  0  0  0
   11.9140  -19.4921   27.6399 O   0  0  0  0  0  0  0  0  0  0  0  0
   11.3885  -20.0737   28.7702 O   0  0  0  0  0  0  0  0  0  0  0  0
  2  4  1  0
  2  1  1  0
  3  2  2  0
  5  4  1  0
  6  5  1  0
  7  8  1  0
  7  6  1  0
  8  9  1  1
  8 10  1  0
 10 12  1  0
 10 11  2  0
 12 13  1  0
 14 13  1  0
 14 20  1  0
 15 14  2  0
 17 16  1  6
 18 17  1  0
 19 21  1  0
 19 20  1  1
 19 17  1  0
 21 22  1  0
 23 21  2  0
M  END
$$$$
