RGT.pdb
     RDKit          3D

 23 22  0  0  1  0  0  0  0  0999 V2000
    9.4722  -14.4069   16.6373 N   0  0  0  0  0  0  0  0  0  0  0  0
    8.1743  -14.0710   16.1587 C   0  0  0  0  0  0  0  0  0  0  0  0
    7.9910  -13.9104   14.8782 N   0  0  0  0  0  0  0  0  0  0  0  0
    7.0627  -13.9017   17.0150 N   0  0  0  0  0  0  0  0  0  0  0  0
    6.9699  -14.5223   18.3158 C   0  0  0  0  0  0  0  0  0  0  0  0
    7.6503  -13.5717   19.3234 C   0  0  0  0  0  0  0  0  0  0  0  0
    7.5238  -14.1910   20.6758 C   0  0  0  0  0  0  0  0  0  0  0  0
    8.8103  -14.7690   21.1755 C   0  0  2  0  0  0  0  0  0  0  0  0
    9.2285  -15.9008   20.3461 N   0  0  0  0  0  0  0  0  0  0  0  0
    8.7995  -15.1052   22.5940 C   0  0  0  0  0  0  0  0  0  0  0  0
    8.4422  -14.2286   23.4323 O   0  0  0  0  0  0  0  0  0  0  0  0
    7.0195  -13.8148   14.4933 N   0  0  0  0  0  0  0  0  0  0  0  0
    9.1744  -16.3874   23.1075 C   0  0  0  0  0  0  0  0  0  0  0  0
    8.9224  -16.7051   24.4705 C   0  0  0  0  0  0  0  0  0  0  0  0
    9.8817  -16.0579   25.4048 O   0  0  0  0  0  0  0  0  0  0  0  0
   10.9624  -15.5498   25.0560 C   0  0  0  0  0  0  0  0  0  0  0  0
    9.7334  -13.0408   27.0722 C   0  0  2  0  0  0  0  0  0  0  0  0
    9.7614  -14.0421   28.2020 O   0  0  0  0  0  0  0  0  0  0  0  0
    8.4357  -14.2449   28.6104 C   0  0  2  0  0  0  0  0  0  0  0  0
   10.3743  -15.3579   27.7645 N   0  0  0  0  0  0  0  0  0  0  0  0
    9.5339  -16.0222   26.7794 C   0  0  0  0  0  0  0  0  0  0  0  0
   10.6806  -16.2390   28.9028 O   0  0  0  0  0  0  0  0  0  0  0  0
   11.6245  -15.8621   29.8296 O   0  0  0  0  0  0  0  0  0  0  0  0
  2  4  1  0
  2  1  1  0
  3  2  2  0
  5  4  1  0
  6  5  1  0
  7  8  1  0
  7  6  1  0
  8  9  1  6
  8 10  1  0
 10 12  1  0
 10 11  2  0
 12 13  1  0
 14 13  1  0
 14 20  1  0
 15 14  2  0
 17 16  1  1
 18 17  1  0
 19 21  1  0
 19 20  1  1
 19 17  1  0
 21 22  1  0
 23 21  2  0
M  END
$$$$
