RGT.pdb
     RDKit          3D

 23 22  0  0  1  0  0  0  0  0999 V2000
    8.7199  -12.9981   15.2590 N   0  0  0  0  0  0  0  0  0  0  0  0
    7.8366  -14.0799   15.5343 C   0  0  0  0  0  0  0  0  0  0  0  0
    7.4834  -14.8750   14.5636 N   0  0  0  0  0  0  0  0  0  0  0  0
    7.3184  -14.3360   16.8241 N   0  0  0  0  0  0  0  0  0  0  0  0
    7.9625  -13.8833   18.0349 C   0  0  0  0  0  0  0  0  0  0  0  0
    7.0048  -14.1953   19.2041 C   0  0  0  0  0  0  0  0  0  0  0  0
    7.7275  -13.8739   20.4702 C   0  0  0  0  0  0  0  0  0  0  0  0
    8.3305  -15.0793   21.1201 C   0  0  2  0  0  0  0  0  0  0  0  0
    7.6759  -16.3031   20.6542 N   0  0  0  0  0  0  0  0  0  0  0  0
    8.3820  -15.0067   22.5752 C   0  0  0  0  0  0  0  0  0  0  0  0
    8.9829  -14.0383   23.1230 O   0  0  0  0  0  0  0  0  0  0  0  0
    6.8198  -15.6669   14.7466 N   0  0  0  0  0  0  0  0  0  0  0  0
    7.7851  -15.9793   23.4389 C   0  0  0  0  0  0  0  0  0  0  0  0
    7.6699  -15.7136   24.8312 C   0  0  0  0  0  0  0  0  0  0  0  0
    8.9589  -15.8595   25.5589 O   0  0  0  0  0  0  0  0  0  0  0  0
    9.9779  -16.3861   25.0772 C   0  0  0  0  0  0  0  0  0  0  0  0
    9.2590  -13.8347   29.3266 C   0  0  2  0  0  0  0  0  0  0  0  0
   10.4545  -14.1562   28.4622 O   0  0  0  0  0  0  0  0  0  0  0  0
   11.5578  -14.2986   29.3154 C   0  0  1  0  0  0  0  0  0  0  0  0
   10.2434  -15.4332   27.6729 N   0  0  0  0  0  0  0  0  0  0  0  0
    9.0210  -15.3634   26.8862 C   0  0  0  0  0  0  0  0  0  0  0  0
   10.2744  -16.6312   28.5271 O   0  0  0  0  0  0  0  0  0  0  0  0
   11.4724  -17.0934   29.0202 O   0  0  0  0  0  0  0  0  0  0  0  0
  2  4  1  0
  2  1  1  0
  3  2  2  0
  5  4  1  0
  6  5  1  0
  7  8  1  0
  7  6  1  0
  8  9  1  1
  8 10  1  0
 10 12  1  0
 10 11  2  0
 12 13  1  0
 14 13  1  0
 14 20  1  0
 15 14  2  0
 17 16  1  6
 18 17  1  0
 19 21  1  0
 19 20  1  6
 19 17  1  0
 21 22  1  0
 23 21  2  0
M  END
$$$$
