RGT.pdb
     RDKit          3D

 23 22  0  0  1  0  0  0  0  0999 V2000
    7.8966  -12.0431   18.4665 N   0  0  0  0  0  0  0  0  0  0  0  0
    8.2408  -13.2884   17.8687 C   0  0  0  0  0  0  0  0  0  0  0  0
    8.0723  -13.4457   16.5857 N   0  0  0  0  0  0  0  0  0  0  0  0
    8.7622  -14.3743   18.6079 N   0  0  0  0  0  0  0  0  0  0  0  0
    8.3498  -14.6771   19.9584 C   0  0  0  0  0  0  0  0  0  0  0  0
    6.8095  -14.7725   19.9535 C   0  0  0  0  0  0  0  0  0  0  0  0
    6.3902  -15.2824   21.2924 C   0  0  0  0  0  0  0  0  0  0  0  0
    7.4352  -16.1294   21.9478 C   0  0  2  0  0  0  0  0  0  0  0  0
    7.3101  -17.5265   21.5281 N   0  0  0  0  0  0  0  0  0  0  0  0
    7.4839  -15.9966   23.3986 C   0  0  0  0  0  0  0  0  0  0  0  0
    7.6182  -14.8471   23.9081 O   0  0  0  0  0  0  0  0  0  0  0  0
    8.3999  -14.3246   16.1154 N   0  0  0  0  0  0  0  0  0  0  0  0
    7.3879  -17.1045   24.2996 C   0  0  0  0  0  0  0  0  0  0  0  0
    7.4964  -16.8885   25.7010 C   0  0  0  0  0  0  0  0  0  0  0  0
    8.8987  -16.6767   26.1492 O   0  0  0  0  0  0  0  0  0  0  0  0
    9.8984  -16.8789   25.4368 C   0  0  0  0  0  0  0  0  0  0  0  0
   10.1588  -13.4669   27.7282 C   0  0  2  0  0  0  0  0  0  0  0  0
   10.4745  -14.5903   28.6864 O   0  0  0  0  0  0  0  0  0  0  0  0
    9.5172  -14.5450   29.7096 C   0  0  2  0  0  0  0  0  0  0  0  0
   10.4301  -15.9395   27.9964 N   0  0  0  0  0  0  0  0  0  0  0  0
    9.0995  -16.2145   27.4750 C   0  0  0  0  0  0  0  0  0  0  0  0
   10.9119  -17.0275   28.8623 O   0  0  0  0  0  0  0  0  0  0  0  0
   10.0480  -18.0185   29.2666 O   0  0  0  0  0  0  0  0  0  0  0  0
  2  4  1  0
  2  1  1  0
  3  2  2  0
  5  4  1  0
  6  5  1  0
  7  8  1  0
  7  6  1  0
  8  9  1  1
  8 10  1  0
 10 12  1  0
 10 11  2  0
 12 13  1  0
 14 13  1  0
 14 20  1  0
 15 14  2  0
 17 16  1  1
 18 17  1  0
 19 21  1  0
 19 20  1  1
 19 17  1  0
 21 22  1  0
 23 21  2  0
M  END
$$$$
