RGT.pdb
     RDKit          3D

 23 22  0  0  1  0  0  0  0  0999 V2000
    8.4620  -13.7076   17.6474 N   0  0  0  0  0  0  0  0  0  0  0  0
    8.2383  -13.1007   18.9155 C   0  0  0  0  0  0  0  0  0  0  0  0
    9.0586  -12.1772   19.3317 N   0  0  0  0  0  0  0  0  0  0  0  0
    7.1573  -13.4556   19.7540 N   0  0  0  0  0  0  0  0  0  0  0  0
    6.9177  -14.8086   20.1987 C   0  0  0  0  0  0  0  0  0  0  0  0
    8.2094  -15.6105   19.9338 C   0  0  0  0  0  0  0  0  0  0  0  0
    7.9760  -17.0038   20.4161 C   0  0  0  0  0  0  0  0  0  0  0  0
    8.1410  -17.1442   21.8967 C   0  0  2  0  0  0  0  0  0  0  0  0
    7.1129  -16.3827   22.6087 N   0  0  0  0  0  0  0  0  0  0  0  0
    9.4819  -16.8344   22.3773 C   0  0  0  0  0  0  0  0  0  0  0  0
   10.4706  -17.4497   21.8846 O   0  0  0  0  0  0  0  0  0  0  0  0
    8.9565  -11.7783   20.2969 N   0  0  0  0  0  0  0  0  0  0  0  0
    9.7557  -15.8606   23.3897 C   0  0  0  0  0  0  0  0  0  0  0  0
   11.1011  -15.5721   23.7489 C   0  0  0  0  0  0  0  0  0  0  0  0
   11.3164  -15.5444   25.2203 O   0  0  0  0  0  0  0  0  0  0  0  0
   12.4358  -15.5361   25.7630 C   0  0  0  0  0  0  0  0  0  0  0  0
    9.3710  -12.7606   26.9025 C   0  0  2  0  0  0  0  0  0  0  0  0
    9.1392  -14.0271   27.6912 O   0  0  0  0  0  0  0  0  0  0  0  0
    7.8920  -14.5361   27.3028 C   0  0  2  0  0  0  0  0  0  0  0  0
   10.2220  -15.0544   27.4255 N   0  0  0  0  0  0  0  0  0  0  0  0
   10.1661  -15.5264   26.0499 C   0  0  0  0  0  0  0  0  0  0  0  0
   10.1847  -16.1687   28.3861 O   0  0  0  0  0  0  0  0  0  0  0  0
   10.3153  -15.9204   29.7327 O   0  0  0  0  0  0  0  0  0  0  0  0
  2  4  1  0
  2  1  1  0
  3  2  2  0
  5  4  1  0
  6  5  1  0
  7  8  1  0
  7  6  1  0
  8  9  1  1
  8 10  1  0
 10 12  1  0
 10 11  2  0
 12 13  1  0
 14 13  1  0
 14 20  1  0
 15 14  2  0
 17 16  1  1
 18 17  1  0
 19 21  1  0
 19 20  1  1
 19 17  1  0
 21 22  1  0
 23 21  2  0
M  END
$$$$
