RGT.pdb
     RDKit          3D

 23 22  0  0  1  0  0  0  0  0999 V2000
    8.5298  -18.4532   14.6094 N   0  0  0  0  0  0  0  0  0  0  0  0
    9.0398  -19.6449   15.1977 C   0  0  0  0  0  0  0  0  0  0  0  0
    9.2611  -20.6830   14.4412 N   0  0  0  0  0  0  0  0  0  0  0  0
    9.3210  -19.7574   16.5783 N   0  0  0  0  0  0  0  0  0  0  0  0
    8.4542  -19.2255   17.6037 C   0  0  0  0  0  0  0  0  0  0  0  0
    9.3426  -18.4304   18.5836 C   0  0  0  0  0  0  0  0  0  0  0  0
    8.4366  -17.7547   19.5588 C   0  0  0  0  0  0  0  0  0  0  0  0
    9.1766  -16.9684   20.5947 C   0  0  2  0  0  0  0  0  0  0  0  0
   10.2738  -17.7561   21.1596 N   0  0  0  0  0  0  0  0  0  0  0  0
    8.3232  -16.3983   21.6300 C   0  0  0  0  0  0  0  0  0  0  0  0
    8.0891  -17.0706   22.6750 O   0  0  0  0  0  0  0  0  0  0  0  0
    9.7288  -21.5341   14.8386 N   0  0  0  0  0  0  0  0  0  0  0  0
    7.7223  -15.1027   21.5373 C   0  0  0  0  0  0  0  0  0  0  0  0
    6.9081  -14.6224   22.5998 C   0  0  0  0  0  0  0  0  0  0  0  0
    7.6981  -14.1095   23.7508 O   0  0  0  0  0  0  0  0  0  0  0  0
    8.9413  -14.0935   23.7937 C   0  0  0  0  0  0  0  0  0  0  0  0
    6.6090  -10.7724   25.8092 C   0  0  2  0  0  0  0  0  0  0  0  0
    6.7943  -11.9847   26.6900 O   0  0  0  0  0  0  0  0  0  0  0  0
    5.5202  -12.5091   26.9484 C   0  0  2  0  0  0  0  0  0  0  0  0
    7.6585  -13.0338   26.0184 N   0  0  0  0  0  0  0  0  0  0  0  0
    6.9797  -13.6083   24.8664 C   0  0  0  0  0  0  0  0  0  0  0  0
    8.1111  -14.0718   26.9582 O   0  0  0  0  0  0  0  0  0  0  0  0
    8.8745  -13.7264   28.0490 O   0  0  0  0  0  0  0  0  0  0  0  0
  2  4  1  0
  2  1  1  0
  3  2  2  0
  5  4  1  0
  6  5  1  0
  7  8  1  0
  7  6  1  0
  8  9  1  1
  8 10  1  0
 10 12  1  0
 10 11  2  0
 12 13  1  0
 14 13  1  0
 14 20  1  0
 15 14  2  0
 17 16  1  1
 18 17  1  0
 19 21  1  0
 19 20  1  1
 19 17  1  0
 21 22  1  0
 23 21  2  0
M  END
$$$$
