RGT.pdb
     RDKit          3D

 23 22  0  0  1  0  0  0  0  0999 V2000
    7.6511  -12.7660   16.8306 N   0  0  0  0  0  0  0  0  0  0  0  0
    8.1375  -13.7351   17.7530 C   0  0  0  0  0  0  0  0  0  0  0  0
    8.5043  -14.9053   17.3111 N   0  0  0  0  0  0  0  0  0  0  0  0
    8.2429  -13.4863   19.1403 N   0  0  0  0  0  0  0  0  0  0  0  0
    7.9905  -14.4955   20.1420 C   0  0  0  0  0  0  0  0  0  0  0  0
    6.4819  -14.4500   20.4642 C   0  0  0  0  0  0  0  0  0  0  0  0
    6.1885  -15.5868   21.3861 C   0  0  0  0  0  0  0  0  0  0  0  0
    7.4242  -16.2665   21.8863 C   0  0  2  0  0  0  0  0  0  0  0  0
    7.5351  -17.6170   21.3318 N   0  0  0  0  0  0  0  0  0  0  0  0
    7.5608  -16.2584   23.3376 C   0  0  0  0  0  0  0  0  0  0  0  0
    7.6060  -15.1509   23.9461 O   0  0  0  0  0  0  0  0  0  0  0  0
    8.9153  -15.6115   17.9693 N   0  0  0  0  0  0  0  0  0  0  0  0
    7.6489  -17.4456   24.1320 C   0  0  0  0  0  0  0  0  0  0  0  0
    7.6676  -17.3481   25.5506 C   0  0  0  0  0  0  0  0  0  0  0  0
    8.9898  -16.9279   26.0866 O   0  0  0  0  0  0  0  0  0  0  0  0
   10.0190  -16.8127   25.3972 C   0  0  0  0  0  0  0  0  0  0  0  0
    9.0513  -14.2485   29.1842 C   0  0  2  0  0  0  0  0  0  0  0  0
   10.1956  -14.6173   28.2707 O   0  0  0  0  0  0  0  0  0  0  0  0
   11.3719  -14.1376   28.8638 C   0  0  1  0  0  0  0  0  0  0  0  0
   10.2903  -16.1177   28.0749 N   0  0  0  0  0  0  0  0  0  0  0  0
    9.0733  -16.6423   27.4734 C   0  0  0  0  0  0  0  0  0  0  0  0
   10.6318  -16.8245   29.3196 O   0  0  0  0  0  0  0  0  0  0  0  0
   11.8824  -16.6772   29.8731 O   0  0  0  0  0  0  0  0  0  0  0  0
  2  4  1  0
  2  1  1  0
  3  2  2  0
  5  4  1  0
  6  5  1  0
  7  8  1  0
  7  6  1  0
  8  9  1  1
  8 10  1  0
 10 12  1  0
 10 11  2  0
 12 13  1  0
 14 13  1  0
 14 20  1  0
 15 14  2  0
 17 16  1  6
 18 17  1  0
 19 21  1  0
 19 20  1  6
 19 17  1  0
 21 22  1  0
 23 21  2  0
M  END
$$$$
