FCQ.pdb
     RDKit          3D

 27 27  0  0  1  0  0  0  0  0999 V2000
   22.6980  -12.3360  -19.4897 N   0  0  0  0  0  0  0  0  0  0  0  0
   22.9171  -10.9326  -19.3393 C   0  0  1  0  0  0  0  0  0  0  0  0
   21.9239  -10.0799  -20.0990 C   0  0  0  0  0  0  0  0  0  0  0  0
   22.1452  -10.3299  -21.5501 C   0  0  0  0  0  0  0  0  0  0  0  0
   23.3729  -10.0323  -22.1090 C   0  0  0  0  0  0  0  0  0  0  0  0
   23.6450  -10.2377  -23.4397 C   0  0  0  0  0  0  0  0  0  0  0  0
   22.6423  -10.7618  -24.2328 C   0  0  0  0  0  0  0  0  0  0  0  0
   21.3914  -11.0747  -23.7066 C   0  0  0  0  0  0  0  0  0  0  0  0
   21.1685  -10.8498  -22.3648 C   0  0  0  0  0  0  0  0  0  0  0  0
   22.9035  -10.4832  -17.9250 C   0  0  0  0  0  0  0  0  0  0  0  0
   22.0487  -11.0240  -17.1691 O   0  0  0  0  0  0  0  0  0  0  0  0
   23.7988   -9.4987  -17.4369 N   0  0  0  0  0  0  0  0  0  0  0  0
   23.7214   -9.1692  -16.0158 C   0  0  1  0  0  0  0  0  0  0  0  0
   25.1653   -9.2551  -15.5198 C   0  0  0  0  0  0  0  0  0  0  0  0
   26.2305   -8.2502  -16.5602 S   0  0  0  0  0  0  0  0  0  0  0  0
   23.2378   -7.7941  -15.8166 C   0  0  0  0  0  0  0  0  0  0  0  0
   23.5923   -6.9058  -16.6645 O   0  0  0  0  0  0  0  0  0  0  0  0
   19.4335   -7.0464  -18.2085 N   0  0  0  0  0  0  0  0  0  0  0  0
   19.4356   -6.8767  -16.8084 C   0  0  0  0  0  0  0  0  0  0  0  0
   18.9201   -7.8140  -16.1063 O   0  0  0  0  0  0  0  0  0  0  0  0
   19.9839   -5.7236  -16.1080 C   0  0  0  0  0  0  0  0  0  0  0  0
   20.5682   -5.9185  -14.7760 C   0  0  0  0  0  0  0  0  0  0  0  0
   22.0321   -5.9478  -14.5915 C   0  0  2  0  0  0  0  0  0  0  0  0
   22.4107   -7.3809  -14.7628 N   0  0  0  0  0  0  0  0  0  0  0  0
   22.4916   -5.4167  -13.3184 C   0  0  0  0  0  0  0  0  0  0  0  0
   21.6440   -5.0723  -12.4500 O   0  0  0  0  0  0  0  0  0  0  0  0
   23.8207   -5.2829  -13.0235 O   0  0  0  0  0  0  0  0  0  0  0  0
  2  1  1  1
  3  2  1  0
  4  3  1  0
  5  4  2  0
  6  5  1  0
  7  6  2  0
  7  8  1  0
  8  9  2  0
  9  4  1  0
 10  2  1  0
 10 11  2  0
 12 10  1  0
 13 12  1  0
 13 14  1  6
 14 15  1  0
 16 13  1  0
 17 16  2  0
 19 18  1  0
 19 21  1  0
 20 19  2  0
 22 21  1  0
 23 22  1  1
 23 24  1  0
 24 16  1  0
 25 23  1  0
 26 25  2  0
 27 25  1  0
M  END
$$$$
