FCQ.pdb
     RDKit          3D

 27 27  0  0  1  0  0  0  0  0999 V2000
   28.5602  -20.9147   -8.7805 N   0  0  0  0  0  0  0  0  0  0  0  0
   27.1714  -20.6667   -8.5575 C   0  0  1  0  0  0  0  0  0  0  0  0
   26.9065  -19.5386   -7.5839 C   0  0  0  0  0  0  0  0  0  0  0  0
   27.6729  -19.8365   -6.3425 C   0  0  0  0  0  0  0  0  0  0  0  0
   28.8632  -19.1766   -6.1068 C   0  0  0  0  0  0  0  0  0  0  0  0
   29.6203  -19.4029   -4.9830 C   0  0  0  0  0  0  0  0  0  0  0  0
   29.1586  -20.3278   -4.0661 C   0  0  0  0  0  0  0  0  0  0  0  0
   27.9634  -21.0136   -4.2679 C   0  0  0  0  0  0  0  0  0  0  0  0
   27.2405  -20.7504   -5.4120 C   0  0  0  0  0  0  0  0  0  0  0  0
   26.4193  -20.3701   -9.8020 C   0  0  0  0  0  0  0  0  0  0  0  0
   26.8564  -19.4229  -10.5135 O   0  0  0  0  0  0  0  0  0  0  0  0
   25.2686  -21.1052  -10.1822 N   0  0  0  0  0  0  0  0  0  0  0  0
   24.6282  -20.7407  -11.4436 C   0  0  1  0  0  0  0  0  0  0  0  0
   25.6147  -21.1900  -12.5222 C   0  0  0  0  0  0  0  0  0  0  0  0
   26.6579  -22.5072  -11.8866 S   0  0  0  0  0  0  0  0  0  0  0  0
   23.3658  -21.4735  -11.6277 C   0  0  0  0  0  0  0  0  0  0  0  0
   22.9123  -22.1433  -10.6381 O   0  0  0  0  0  0  0  0  0  0  0  0
   19.4048  -18.3317  -14.0688 N   0  0  0  0  0  0  0  0  0  0  0  0
   18.8782  -18.6992  -12.8132 C   0  0  0  0  0  0  0  0  0  0  0  0
   17.7169  -18.2528  -12.5142 O   0  0  0  0  0  0  0  0  0  0  0  0
   19.5521  -19.5494  -11.8416 C   0  0  0  0  0  0  0  0  0  0  0  0
   20.9111  -20.0185  -12.1361 C   0  0  0  0  0  0  0  0  0  0  0  0
   21.1336  -21.3213  -12.7928 C   0  0  2  0  0  0  0  0  0  0  0  0
   22.6158  -21.4918  -12.8120 N   0  0  0  0  0  0  0  0  0  0  0  0
   20.5602  -21.4327  -14.1243 C   0  0  0  0  0  0  0  0  0  0  0  0
   19.4832  -22.0698  -14.2824 O   0  0  0  0  0  0  0  0  0  0  0  0
   21.1479  -20.8605  -15.2191 O   0  0  0  0  0  0  0  0  0  0  0  0
  2  1  1  6
  3  2  1  0
  4  3  1  0
  5  4  2  0
  6  5  1  0
  7  6  2  0
  7  8  1  0
  8  9  2  0
  9  4  1  0
 10  2  1  0
 10 11  2  0
 12 10  1  0
 13 12  1  0
 13 14  1  6
 14 15  1  0
 16 13  1  0
 17 16  2  0
 19 18  1  0
 19 21  1  0
 20 19  2  0
 22 21  1  0
 23 22  1  6
 23 24  1  0
 24 16  1  0
 25 23  1  0
 26 25  2  0
 27 25  1  0
M  END
$$$$
