FCQ.pdb
     RDKit          3D

 27 27  0  0  1  0  0  0  0  0999 V2000
   26.5873  -20.7202  -13.7201 N   0  0  0  0  0  0  0  0  0  0  0  0
   25.4385  -19.8981  -13.9311 C   0  0  1  0  0  0  0  0  0  0  0  0
   25.0746  -19.7292  -15.3905 C   0  0  0  0  0  0  0  0  0  0  0  0
   26.1359  -18.8938  -16.0172 C   0  0  0  0  0  0  0  0  0  0  0  0
   27.0685  -19.4909  -16.8429 C   0  0  0  0  0  0  0  0  0  0  0  0
   28.0735  -18.7805  -17.4530 C   0  0  0  0  0  0  0  0  0  0  0  0
   28.1384  -17.4199  -17.2207 C   0  0  0  0  0  0  0  0  0  0  0  0
   27.2168  -16.7812  -16.3947 C   0  0  0  0  0  0  0  0  0  0  0  0
   26.2270  -17.5391  -15.8059 C   0  0  0  0  0  0  0  0  0  0  0  0
   24.2290  -20.3837  -13.2213 C   0  0  0  0  0  0  0  0  0  0  0  0
   24.2172  -21.6036  -12.8957 O   0  0  0  0  0  0  0  0  0  0  0  0
   23.1376  -19.5312  -12.9193 N   0  0  0  0  0  0  0  0  0  0  0  0
   22.0692  -20.0808  -12.0882 C   0  0  1  0  0  0  0  0  0  0  0  0
   21.4910  -18.8715  -11.3521 C   0  0  0  0  0  0  0  0  0  0  0  0
   20.2057  -19.4042  -10.2158 S   0  0  0  0  0  0  0  0  0  0  0  0
   21.0089  -20.6777  -12.9152 C   0  0  0  0  0  0  0  0  0  0  0  0
   20.6540  -20.0563  -13.9742 O   0  0  0  0  0  0  0  0  0  0  0  0
   18.6855  -26.6493  -12.3665 N   0  0  0  0  0  0  0  0  0  0  0  0
   17.7765  -25.9579  -13.1939 C   0  0  0  0  0  0  0  0  0  0  0  0
   16.7531  -26.6061  -13.6059 O   0  0  0  0  0  0  0  0  0  0  0  0
   17.9132  -24.5675  -13.6052 C   0  0  0  0  0  0  0  0  0  0  0  0
   18.9885  -23.7597  -13.0180 C   0  0  0  0  0  0  0  0  0  0  0  0
   19.2430  -22.3849  -13.4902 C   0  0  2  0  0  0  0  0  0  0  0  0
   20.3552  -21.8848  -12.6305 N   0  0  0  0  0  0  0  0  0  0  0  0
   18.0862  -21.5054  -13.4418 C   0  0  0  0  0  0  0  0  0  0  0  0
   17.4568  -21.2524  -14.5052 O   0  0  0  0  0  0  0  0  0  0  0  0
   17.6481  -20.9439  -12.2738 O   0  0  0  0  0  0  0  0  0  0  0  0
  2  1  1  6
  3  2  1  0
  4  3  1  0
  5  4  2  0
  6  5  1  0
  7  6  2  0
  7  8  1  0
  8  9  2  0
  9  4  1  0
 10  2  1  0
 10 11  2  0
 12 10  1  0
 13 12  1  0
 13 14  1  6
 14 15  1  0
 16 13  1  0
 17 16  2  0
 19 18  1  0
 19 21  1  0
 20 19  2  0
 22 21  1  0
 23 22  1  1
 23 24  1  0
 24 16  1  0
 25 23  1  0
 26 25  2  0
 27 25  1  0
M  END
$$$$
