FCQ.pdb
     RDKit          3D

 27 27  0  0  1  0  0  0  0  0999 V2000
   23.7910  -20.7169  -17.7594 N   0  0  0  0  0  0  0  0  0  0  0  0
   22.5825  -20.1032  -17.3089 C   0  0  1  0  0  0  0  0  0  0  0  0
   21.3991  -20.3575  -18.2175 C   0  0  0  0  0  0  0  0  0  0  0  0
   21.2468  -19.1612  -19.0909 C   0  0  0  0  0  0  0  0  0  0  0  0
   20.2540  -18.2419  -18.8132 C   0  0  0  0  0  0  0  0  0  0  0  0
   20.0578  -17.1171  -19.5769 C   0  0  0  0  0  0  0  0  0  0  0  0
   20.8936  -16.9143  -20.6584 C   0  0  0  0  0  0  0  0  0  0  0  0
   21.9061  -17.8180  -20.9710 C   0  0  0  0  0  0  0  0  0  0  0  0
   22.0617  -18.9315  -20.1732 C   0  0  0  0  0  0  0  0  0  0  0  0
   22.1903  -20.5125  -15.9374 C   0  0  0  0  0  0  0  0  0  0  0  0
   22.6317  -21.6240  -15.5322 O   0  0  0  0  0  0  0  0  0  0  0  0
   21.3635  -19.7058  -15.1161 N   0  0  0  0  0  0  0  0  0  0  0  0
   21.1139  -20.1721  -13.7544 C   0  0  1  0  0  0  0  0  0  0  0  0
   20.9661  -18.8935  -12.9287 C   0  0  0  0  0  0  0  0  0  0  0  0
   20.5728  -19.3072  -11.2254 S   0  0  0  0  0  0  0  0  0  0  0  0
   19.8549  -20.9293  -13.6763 C   0  0  0  0  0  0  0  0  0  0  0  0
   18.8431  -20.4760  -14.3122 O   0  0  0  0  0  0  0  0  0  0  0  0
   18.9827  -26.3590  -10.3004 N   0  0  0  0  0  0  0  0  0  0  0  0
   17.7370  -26.0574  -10.8887 C   0  0  0  0  0  0  0  0  0  0  0  0
   16.7667  -26.8540  -10.6416 O   0  0  0  0  0  0  0  0  0  0  0  0
   17.4745  -24.9094  -11.7457 C   0  0  0  0  0  0  0  0  0  0  0  0
   18.5682  -23.9716  -12.0247 C   0  0  0  0  0  0  0  0  0  0  0  0
   18.3484  -22.7896  -12.8806 C   0  0  2  0  0  0  0  0  0  0  0  0
   19.6791  -22.1187  -12.9553 N   0  0  0  0  0  0  0  0  0  0  0  0
   17.3135  -21.8846  -12.4072 C   0  0  0  0  0  0  0  0  0  0  0  0
   17.5767  -21.0788  -11.4732 O   0  0  0  0  0  0  0  0  0  0  0  0
   16.0570  -21.8707  -12.9478 O   0  0  0  0  0  0  0  0  0  0  0  0
  2  1  1  6
  3  2  1  0
  4  3  1  0
  5  4  2  0
  6  5  1  0
  7  6  2  0
  7  8  1  0
  8  9  2  0
  9  4  1  0
 10  2  1  0
 10 11  2  0
 12 10  1  0
 13 12  1  0
 13 14  1  1
 14 15  1  0
 16 13  1  0
 17 16  2  0
 19 18  1  0
 19 21  1  0
 20 19  2  0
 22 21  1  0
 23 22  1  1
 23 24  1  0
 24 16  1  0
 25 23  1  0
 26 25  2  0
 27 25  1  0
M  END
$$$$
