FCQ.pdb
     RDKit          3D

 27 27  0  0  1  0  0  0  0  0999 V2000
   22.9819  -19.4585  -15.2891 N   0  0  0  0  0  0  0  0  0  0  0  0
   22.7617  -18.3427  -16.1533 C   0  0  1  0  0  0  0  0  0  0  0  0
   21.3204  -18.1892  -16.5887 C   0  0  0  0  0  0  0  0  0  0  0  0
   21.0832  -19.1674  -17.6860 C   0  0  0  0  0  0  0  0  0  0  0  0
   20.5382  -20.4010  -17.3874 C   0  0  0  0  0  0  0  0  0  0  0  0
   20.2932  -21.3499  -18.3500 C   0  0  0  0  0  0  0  0  0  0  0  0
   20.6098  -21.0416  -19.6592 C   0  0  0  0  0  0  0  0  0  0  0  0
   21.1607  -19.8088  -20.0003 C   0  0  0  0  0  0  0  0  0  0  0  0
   21.3873  -18.8907  -18.9972 C   0  0  0  0  0  0  0  0  0  0  0  0
   23.1923  -17.0496  -15.5661 C   0  0  0  0  0  0  0  0  0  0  0  0
   22.9404  -16.8741  -14.3412 O   0  0  0  0  0  0  0  0  0  0  0  0
   23.8528  -16.0557  -16.3309 N   0  0  0  0  0  0  0  0  0  0  0  0
   24.2481  -14.8314  -15.6388 C   0  0  1  0  0  0  0  0  0  0  0  0
   25.7283  -14.6550  -15.9799 C   0  0  0  0  0  0  0  0  0  0  0  0
   26.7233  -15.7684  -14.9812 S   0  0  0  0  0  0  0  0  0  0  0  0
   23.5064  -13.6695  -16.1529 C   0  0  0  0  0  0  0  0  0  0  0  0
   23.0651  -13.7230  -17.3511 O   0  0  0  0  0  0  0  0  0  0  0  0
   21.3978   -8.7010  -12.6407 N   0  0  0  0  0  0  0  0  0  0  0  0
   21.2567   -8.3113  -13.9888 C   0  0  0  0  0  0  0  0  0  0  0  0
   20.8161   -7.1309  -14.2119 O   0  0  0  0  0  0  0  0  0  0  0  0
   21.5800   -9.1462  -15.1375 C   0  0  0  0  0  0  0  0  0  0  0  0
   22.2290  -10.4423  -14.9082 C   0  0  0  0  0  0  0  0  0  0  0  0
   22.4970  -11.3609  -16.0317 C   0  0  2  0  0  0  0  0  0  0  0  0
   23.2426  -12.5014  -15.4239 N   0  0  0  0  0  0  0  0  0  0  0  0
   23.2293  -10.7655  -17.1377 C   0  0  0  0  0  0  0  0  0  0  0  0
   24.4881  -10.7045  -17.0843 O   0  0  0  0  0  0  0  0  0  0  0  0
   22.5975  -10.2718  -18.2461 O   0  0  0  0  0  0  0  0  0  0  0  0
  2  1  1  1
  3  2  1  0
  4  3  1  0
  5  4  2  0
  6  5  1  0
  7  6  2  0
  7  8  1  0
  8  9  2  0
  9  4  1  0
 10  2  1  0
 10 11  2  0
 12 10  1  0
 13 12  1  0
 13 14  1  6
 14 15  1  0
 16 13  1  0
 17 16  2  0
 19 18  1  0
 19 21  1  0
 20 19  2  0
 22 21  1  0
 23 22  1  1
 23 24  1  0
 24 16  1  0
 25 23  1  0
 26 25  2  0
 27 25  1  0
M  END
$$$$
