FCQ.pdb
     RDKit          3D

 27 27  0  0  1  0  0  0  0  0999 V2000
   27.8357  -20.1788  -15.4811 N   0  0  0  0  0  0  0  0  0  0  0  0
   27.1715  -19.5479  -14.3853 C   0  0  1  0  0  0  0  0  0  0  0  0
   26.1315  -18.5337  -14.8103 C   0  0  0  0  0  0  0  0  0  0  0  0
   26.8601  -17.3193  -15.2701 C   0  0  0  0  0  0  0  0  0  0  0  0
   27.2731  -17.2348  -16.5855 C   0  0  0  0  0  0  0  0  0  0  0  0
   27.9492  -16.1443  -17.0762 C   0  0  0  0  0  0  0  0  0  0  0  0
   28.2171  -15.1034  -16.2077 C   0  0  0  0  0  0  0  0  0  0  0  0
   27.8173  -15.1511  -14.8745 C   0  0  0  0  0  0  0  0  0  0  0  0
   27.1415  -16.2680  -14.4312 C   0  0  0  0  0  0  0  0  0  0  0  0
   26.5114  -20.5076  -13.4657 C   0  0  0  0  0  0  0  0  0  0  0  0
   25.9423  -21.5005  -13.9995 O   0  0  0  0  0  0  0  0  0  0  0  0
   26.5134  -20.3292  -12.0596 N   0  0  0  0  0  0  0  0  0  0  0  0
   25.6591  -21.2142  -11.2715 C   0  0  1  0  0  0  0  0  0  0  0  0
   26.1947  -21.0985   -9.8439 C   0  0  0  0  0  0  0  0  0  0  0  0
   25.7272  -19.5124   -9.1418 S   0  0  0  0  0  0  0  0  0  0  0  0
   24.2619  -20.7536  -11.2873 C   0  0  0  0  0  0  0  0  0  0  0  0
   24.0311  -19.5536  -11.6619 O   0  0  0  0  0  0  0  0  0  0  0  0
   19.4890  -20.9108  -14.6671 N   0  0  0  0  0  0  0  0  0  0  0  0
   20.3696  -21.9996  -14.4994 C   0  0  0  0  0  0  0  0  0  0  0  0
   20.2485  -22.9788  -15.3140 O   0  0  0  0  0  0  0  0  0  0  0  0
   21.4041  -22.0870  -13.4781 C   0  0  0  0  0  0  0  0  0  0  0  0
   21.6557  -20.9191  -12.6258 C   0  0  0  0  0  0  0  0  0  0  0  0
   21.7616  -21.0631  -11.1609 C   0  0  2  0  0  0  0  0  0  0  0  0
   23.1567  -21.5355  -10.9229 N   0  0  0  0  0  0  0  0  0  0  0  0
   20.7804  -21.9581  -10.5691 C   0  0  0  0  0  0  0  0  0  0  0  0
   21.1387  -23.1083  -10.1952 O   0  0  0  0  0  0  0  0  0  0  0  0
   19.4739  -21.5918  -10.3951 O   0  0  0  0  0  0  0  0  0  0  0  0
  2  1  1  6
  3  2  1  0
  4  3  1  0
  5  4  2  0
  6  5  1  0
  7  6  2  0
  7  8  1  0
  8  9  2  0
  9  4  1  0
 10  2  1  0
 10 11  2  0
 12 10  1  0
 13 12  1  0
 13 14  1  1
 14 15  1  0
 16 13  1  0
 17 16  2  0
 19 18  1  0
 19 21  1  0
 20 19  2  0
 22 21  1  0
 23 22  1  6
 23 24  1  0
 24 16  1  0
 25 23  1  0
 26 25  2  0
 27 25  1  0
M  END
$$$$
