FCQ.pdb
     RDKit          3D

 27 27  0  0  1  0  0  0  0  0999 V2000
   28.6937  -27.7050  -15.9666 N   0  0  0  0  0  0  0  0  0  0  0  0
   28.4573  -26.8631  -17.0959 C   0  0  1  0  0  0  0  0  0  0  0  0
   27.4172  -27.4086  -18.0506 C   0  0  0  0  0  0  0  0  0  0  0  0
   28.0605  -28.5048  -18.8262 C   0  0  0  0  0  0  0  0  0  0  0  0
   27.7842  -29.8181  -18.4993 C   0  0  0  0  0  0  0  0  0  0  0  0
   28.3423  -30.8773  -19.1727 C   0  0  0  0  0  0  0  0  0  0  0  0
   29.2094  -30.5999  -20.2122 C   0  0  0  0  0  0  0  0  0  0  0  0
   29.5132  -29.2893  -20.5721 C   0  0  0  0  0  0  0  0  0  0  0  0
   28.9267  -28.2615  -19.8648 C   0  0  0  0  0  0  0  0  0  0  0  0
   28.0478  -25.4852  -16.7271 C   0  0  0  0  0  0  0  0  0  0  0  0
   27.4071  -25.3568  -15.6466 O   0  0  0  0  0  0  0  0  0  0  0  0
   28.3544  -24.3638  -17.5381 N   0  0  0  0  0  0  0  0  0  0  0  0
   27.9074  -23.0552  -17.0672 C   0  0  1  0  0  0  0  0  0  0  0  0
   28.9627  -22.0769  -17.5846 C   0  0  0  0  0  0  0  0  0  0  0  0
   28.5012  -20.3950  -17.1541 S   0  0  0  0  0  0  0  0  0  0  0  0
   26.6071  -22.6967  -17.6549 C   0  0  0  0  0  0  0  0  0  0  0  0
   26.3345  -23.1410  -18.8219 O   0  0  0  0  0  0  0  0  0  0  0  0
   22.4557  -25.7703  -17.6574 N   0  0  0  0  0  0  0  0  0  0  0  0
   21.7676  -24.6231  -18.1038 C   0  0  0  0  0  0  0  0  0  0  0  0
   20.5662  -24.7855  -18.5129 O   0  0  0  0  0  0  0  0  0  0  0  0
   22.3186  -23.2751  -18.1266 C   0  0  0  0  0  0  0  0  0  0  0  0
   23.7004  -23.0693  -17.6775 C   0  0  0  0  0  0  0  0  0  0  0  0
   24.2838  -21.7146  -17.6285 C   0  0  2  0  0  0  0  0  0  0  0  0
   25.6368  -21.9023  -17.0282 N   0  0  0  0  0  0  0  0  0  0  0  0
   23.4949  -20.7432  -16.8882 C   0  0  0  0  0  0  0  0  0  0  0  0
   23.8106  -20.4680  -15.6985 O   0  0  0  0  0  0  0  0  0  0  0  0
   22.4184  -20.1068  -17.4427 O   0  0  0  0  0  0  0  0  0  0  0  0
  2  1  1  1
  3  2  1  0
  4  3  1  0
  5  4  2  0
  6  5  1  0
  7  6  2  0
  7  8  1  0
  8  9  2  0
  9  4  1  0
 10  2  1  0
 10 11  2  0
 12 10  1  0
 13 12  1  0
 13 14  1  6
 14 15  1  0
 16 13  1  0
 17 16  2  0
 19 18  1  0
 19 21  1  0
 20 19  2  0
 22 21  1  0
 23 22  1  1
 23 24  1  0
 24 16  1  0
 25 23  1  0
 26 25  2  0
 27 25  1  0
M  END
$$$$
