FCQ.pdb
     RDKit          3D

 27 27  0  0  1  0  0  0  0  0999 V2000
   21.2536  -32.0707  -10.3533 N   0  0  0  0  0  0  0  0  0  0  0  0
   22.4557  -31.3831  -10.0037 C   0  0  1  0  0  0  0  0  0  0  0  0
   22.2284  -30.1807   -9.1130 C   0  0  0  0  0  0  0  0  0  0  0  0
   21.4080  -29.2071   -9.8851 C   0  0  0  0  0  0  0  0  0  0  0  0
   20.0848  -29.0126   -9.5398 C   0  0  0  0  0  0  0  0  0  0  0  0
   19.2714  -28.1306  -10.2090 C   0  0  0  0  0  0  0  0  0  0  0  0
   19.8139  -27.4208  -11.2631 C   0  0  0  0  0  0  0  0  0  0  0  0
   21.1436  -27.5889  -11.6416 C   0  0  0  0  0  0  0  0  0  0  0  0
   21.9182  -28.4864  -10.9379 C   0  0  0  0  0  0  0  0  0  0  0  0
   23.4577  -32.2513   -9.3369 C   0  0  0  0  0  0  0  0  0  0  0  0
   23.0068  -33.1466   -8.5691 O   0  0  0  0  0  0  0  0  0  0  0  0
   24.8509  -32.0929   -9.5437 N   0  0  0  0  0  0  0  0  0  0  0  0
   25.7411  -33.0087   -8.8346 C   0  0  1  0  0  0  0  0  0  0  0  0
   27.0978  -32.8367   -9.5189 C   0  0  0  0  0  0  0  0  0  0  0  0
   28.3502  -33.7776   -8.6396 S   0  0  0  0  0  0  0  0  0  0  0  0
   25.8770  -32.6264   -7.4204 C   0  0  0  0  0  0  0  0  0  0  0  0
   25.8770  -31.3807   -7.1342 O   0  0  0  0  0  0  0  0  0  0  0  0
   22.1669  -31.9774   -3.3919 N   0  0  0  0  0  0  0  0  0  0  0  0
   22.5697  -33.3130   -3.5989 C   0  0  0  0  0  0  0  0  0  0  0  0
   21.7235  -34.2288   -3.3120 O   0  0  0  0  0  0  0  0  0  0  0  0
   23.8671  -33.7228   -4.1183 C   0  0  0  0  0  0  0  0  0  0  0  0
   24.8358  -32.6871   -4.4961 C   0  0  0  0  0  0  0  0  0  0  0  0
   26.1904  -33.0523   -4.9540 C   0  0  2  0  0  0  0  0  0  0  0  0
   26.0049  -33.5292   -6.3555 N   0  0  0  0  0  0  0  0  0  0  0  0
   26.8595  -34.0459   -4.1299 C   0  0  0  0  0  0  0  0  0  0  0  0
   27.0211  -35.2137   -4.5782 O   0  0  0  0  0  0  0  0  0  0  0  0
   27.3303  -33.7551   -2.8788 O   0  0  0  0  0  0  0  0  0  0  0  0
  2  1  1  1
  3  2  1  0
  4  3  1  0
  5  4  2  0
  6  5  1  0
  7  6  2  0
  7  8  1  0
  8  9  2  0
  9  4  1  0
 10  2  1  0
 10 11  2  0
 12 10  1  0
 13 12  1  0
 13 14  1  6
 14 15  1  0
 16 13  1  0
 17 16  2  0
 19 18  1  0
 19 21  1  0
 20 19  2  0
 22 21  1  0
 23 22  1  1
 23 24  1  0
 24 16  1  0
 25 23  1  0
 26 25  2  0
 27 25  1  0
M  END
$$$$
