FCQ.pdb
     RDKit          3D

 27 27  0  0  1  0  0  0  0  0999 V2000
   22.2097   -6.5588  -10.2931 N   0  0  0  0  0  0  0  0  0  0  0  0
   20.9202   -6.5614  -10.9074 C   0  0  1  0  0  0  0  0  0  0  0  0
   20.4658   -7.9338  -11.3557 C   0  0  0  0  0  0  0  0  0  0  0  0
   21.3130   -8.3229  -12.5167 C   0  0  0  0  0  0  0  0  0  0  0  0
   21.0681   -7.7580  -13.7532 C   0  0  0  0  0  0  0  0  0  0  0  0
   21.8105   -8.0715  -14.8657 C   0  0  0  0  0  0  0  0  0  0  0  0
   22.8354   -8.9873  -14.7238 C   0  0  0  0  0  0  0  0  0  0  0  0
   23.1135   -9.5786  -13.4939 C   0  0  0  0  0  0  0  0  0  0  0  0
   22.3392   -9.2302  -12.4078 C   0  0  0  0  0  0  0  0  0  0  0  0
   19.8548   -5.9974  -10.0418 C   0  0  0  0  0  0  0  0  0  0  0  0
   19.8130   -6.4177   -8.8518 O   0  0  0  0  0  0  0  0  0  0  0  0
   18.9268   -5.0365  -10.5156 N   0  0  0  0  0  0  0  0  0  0  0  0
   17.9156   -4.5618   -9.5742 C   0  0  1  0  0  0  0  0  0  0  0  0
   17.9589   -3.0381   -9.6958 C   0  0  0  0  0  0  0  0  0  0  0  0
   16.6779   -2.3059   -8.6711 S   0  0  0  0  0  0  0  0  0  0  0  0
   16.5737   -5.0254   -9.9602 C   0  0  0  0  0  0  0  0  0  0  0  0
   16.2339   -4.9202  -11.1878 O   0  0  0  0  0  0  0  0  0  0  0  0
   13.2026   -9.7108   -7.4687 N   0  0  0  0  0  0  0  0  0  0  0  0
   12.2660   -8.9648   -8.2139 C   0  0  0  0  0  0  0  0  0  0  0  0
   11.0630   -9.3998   -8.2417 O   0  0  0  0  0  0  0  0  0  0  0  0
   12.5646   -7.7402   -8.9435 C   0  0  0  0  0  0  0  0  0  0  0  0
   13.8979   -7.1429   -8.8051 C   0  0  0  0  0  0  0  0  0  0  0  0
   14.2495   -5.9066   -9.5302 C   0  0  2  0  0  0  0  0  0  0  0  0
   15.6339   -5.5796   -9.0798 N   0  0  0  0  0  0  0  0  0  0  0  0
   13.3350   -4.7974   -9.3125 C   0  0  0  0  0  0  0  0  0  0  0  0
   13.5070   -4.0401   -8.3185 O   0  0  0  0  0  0  0  0  0  0  0  0
   12.2909   -4.5393  -10.1578 O   0  0  0  0  0  0  0  0  0  0  0  0
  2  1  1  1
  3  2  1  0
  4  3  1  0
  5  4  2  0
  6  5  1  0
  7  6  2  0
  7  8  1  0
  8  9  2  0
  9  4  1  0
 10  2  1  0
 10 11  2  0
 12 10  1  0
 13 12  1  0
 13 14  1  6
 14 15  1  0
 16 13  1  0
 17 16  2  0
 19 18  1  0
 19 21  1  0
 20 19  2  0
 22 21  1  0
 23 22  1  1
 23 24  1  0
 24 16  1  0
 25 23  1  0
 26 25  2  0
 27 25  1  0
M  END
$$$$
