FCQ.pdb
     RDKit          3D

 27 27  0  0  1  0  0  0  0  0999 V2000
   26.1449   -9.9158  -19.3150 N   0  0  0  0  0  0  0  0  0  0  0  0
   25.4513   -8.8715  -18.6308 C   0  0  1  0  0  0  0  0  0  0  0  0
   24.9906   -7.7532  -19.5407 C   0  0  0  0  0  0  0  0  0  0  0  0
   26.2088   -7.0493  -20.0282 C   0  0  0  0  0  0  0  0  0  0  0  0
   26.7717   -7.4250  -21.2323 C   0  0  0  0  0  0  0  0  0  0  0  0
   27.8945   -6.8187  -21.7410 C   0  0  0  0  0  0  0  0  0  0  0  0
   28.4682   -5.7977  -21.0076 C   0  0  0  0  0  0  0  0  0  0  0  0
   27.9304   -5.3902  -19.7893 C   0  0  0  0  0  0  0  0  0  0  0  0
   26.8025   -6.0308  -19.3223 C   0  0  0  0  0  0  0  0  0  0  0  0
   24.2677   -9.3489  -17.8734 C   0  0  0  0  0  0  0  0  0  0  0  0
   23.4820  -10.1256  -18.4849 O   0  0  0  0  0  0  0  0  0  0  0  0
   24.0219   -8.9598  -16.5328 N   0  0  0  0  0  0  0  0  0  0  0  0
   22.8288   -9.5015  -15.8868 C   0  0  1  0  0  0  0  0  0  0  0  0
   23.3341  -10.0813  -14.5651 C   0  0  0  0  0  0  0  0  0  0  0  0
   21.9446  -10.6230  -13.5636 S   0  0  0  0  0  0  0  0  0  0  0  0
   21.8572   -8.4370  -15.5912 C   0  0  0  0  0  0  0  0  0  0  0  0
   22.2652   -7.4191  -14.9347 O   0  0  0  0  0  0  0  0  0  0  0  0
   19.7316   -4.3303  -18.5246 N   0  0  0  0  0  0  0  0  0  0  0  0
   18.5543   -4.4721  -17.7611 C   0  0  0  0  0  0  0  0  0  0  0  0
   17.7139   -3.5081  -17.7999 O   0  0  0  0  0  0  0  0  0  0  0  0
   18.2245   -5.6308  -16.9427 C   0  0  0  0  0  0  0  0  0  0  0  0
   19.1652   -6.7564  -16.9004 C   0  0  0  0  0  0  0  0  0  0  0  0
   19.5858   -7.3399  -15.6118 C   0  0  2  0  0  0  0  0  0  0  0  0
   20.5100   -8.4522  -15.9790 N   0  0  0  0  0  0  0  0  0  0  0  0
   18.4924   -7.8017  -14.7719 C   0  0  0  0  0  0  0  0  0  0  0  0
   18.0687   -8.9825  -14.9023 O   0  0  0  0  0  0  0  0  0  0  0  0
   17.9072   -6.9973  -13.8328 O   0  0  0  0  0  0  0  0  0  0  0  0
  2  1  1  6
  3  2  1  0
  4  3  1  0
  5  4  2  0
  6  5  1  0
  7  6  2  0
  7  8  1  0
  8  9  2  0
  9  4  1  0
 10  2  1  0
 10 11  2  0
 12 10  1  0
 13 12  1  0
 13 14  1  1
 14 15  1  0
 16 13  1  0
 17 16  2  0
 19 18  1  0
 19 21  1  0
 20 19  2  0
 22 21  1  0
 23 22  1  6
 23 24  1  0
 24 16  1  0
 25 23  1  0
 26 25  2  0
 27 25  1  0
M  END
$$$$
