FCQ.pdb
     RDKit          3D

 27 27  0  0  1  0  0  0  0  0999 V2000
   23.2452  -20.0037  -13.3019 N   0  0  0  0  0  0  0  0  0  0  0  0
   22.0502  -20.1071  -12.5264 C   0  0  1  0  0  0  0  0  0  0  0  0
   20.8269  -20.4626  -13.3437 C   0  0  0  0  0  0  0  0  0  0  0  0
   20.5534  -19.3152  -14.2524 C   0  0  0  0  0  0  0  0  0  0  0  0
   19.8751  -18.2139  -13.7674 C   0  0  0  0  0  0  0  0  0  0  0  0
   19.5896  -17.1217  -14.5501 C   0  0  0  0  0  0  0  0  0  0  0  0
   20.0037  -17.1432  -15.8682 C   0  0  0  0  0  0  0  0  0  0  0  0
   20.6900  -18.2348  -16.3943 C   0  0  0  0  0  0  0  0  0  0  0  0
   20.9520  -19.3064  -15.5674 C   0  0  0  0  0  0  0  0  0  0  0  0
   22.1503  -21.0904  -11.4193 C   0  0  0  0  0  0  0  0  0  0  0  0
   22.9292  -22.0676  -11.6010 O   0  0  0  0  0  0  0  0  0  0  0  0
   21.4146  -20.9501  -10.2160 N   0  0  0  0  0  0  0  0  0  0  0  0
   21.4780  -22.0532   -9.2604 C   0  0  1  0  0  0  0  0  0  0  0  0
   22.5382  -21.6248   -8.2451 C   0  0  0  0  0  0  0  0  0  0  0  0
   22.2365  -19.9327   -7.7226 S   0  0  0  0  0  0  0  0  0  0  0  0
   20.1959  -22.2198   -8.5581 C   0  0  0  0  0  0  0  0  0  0  0  0
   19.4914  -21.1755   -8.3419 O   0  0  0  0  0  0  0  0  0  0  0  0
   18.4286  -25.0271  -11.0574 N   0  0  0  0  0  0  0  0  0  0  0  0
   17.4737  -24.0161  -10.8233 C   0  0  0  0  0  0  0  0  0  0  0  0
   17.0586  -23.3589  -11.8397 O   0  0  0  0  0  0  0  0  0  0  0  0
   16.9242  -23.6724   -9.5191 C   0  0  0  0  0  0  0  0  0  0  0  0
   17.5014  -24.2965   -8.3228 C   0  0  0  0  0  0  0  0  0  0  0  0
   18.3658  -23.5226   -7.4108 C   0  0  2  0  0  0  0  0  0  0  0  0
   19.6831  -23.4441   -8.1070 N   0  0  0  0  0  0  0  0  0  0  0  0
   18.4933  -24.0853   -6.0762 C   0  0  0  0  0  0  0  0  0  0  0  0
   19.5772  -24.6346   -5.7378 O   0  0  0  0  0  0  0  0  0  0  0  0
   17.4744  -24.0335   -5.1649 O   0  0  0  0  0  0  0  0  0  0  0  0
  2  1  1  6
  3  2  1  0
  4  3  1  0
  5  4  2  0
  6  5  1  0
  7  6  2  0
  7  8  1  0
  8  9  2  0
  9  4  1  0
 10  2  1  0
 10 11  2  0
 12 10  1  0
 13 12  1  0
 13 14  1  1
 14 15  1  0
 16 13  1  0
 17 16  2  0
 19 18  1  0
 19 21  1  0
 20 19  2  0
 22 21  1  0
 23 22  1  6
 23 24  1  0
 24 16  1  0
 25 23  1  0
 26 25  2  0
 27 25  1  0
M  END
$$$$
