FCQ.pdb
     RDKit          3D

 27 27  0  0  1  0  0  0  0  0999 V2000
   26.6013  -17.9834  -17.0422 N   0  0  0  0  0  0  0  0  0  0  0  0
   26.2439  -17.7972  -15.6719 C   0  0  1  0  0  0  0  0  0  0  0  0
   25.2377  -16.6878  -15.4540 C   0  0  0  0  0  0  0  0  0  0  0  0
   25.9156  -15.4043  -15.7860 C   0  0  0  0  0  0  0  0  0  0  0  0
   26.8232  -14.8672  -14.8940 C   0  0  0  0  0  0  0  0  0  0  0  0
   27.4841  -13.6877  -15.1367 C   0  0  0  0  0  0  0  0  0  0  0  0
   27.2187  -13.0282  -16.3217 C   0  0  0  0  0  0  0  0  0  0  0  0
   26.3104  -13.5375  -17.2465 C   0  0  0  0  0  0  0  0  0  0  0  0
   25.6732  -14.7249  -16.9556 C   0  0  0  0  0  0  0  0  0  0  0  0
   25.7043  -19.0231  -15.0328 C   0  0  0  0  0  0  0  0  0  0  0  0
   25.0557  -19.8095  -15.7780 O   0  0  0  0  0  0  0  0  0  0  0  0
   25.9005  -19.3067  -13.6580 N   0  0  0  0  0  0  0  0  0  0  0  0
   25.2946  -20.5281  -13.1335 C   0  0  1  0  0  0  0  0  0  0  0  0
   25.9908  -20.7600  -11.7919 C   0  0  0  0  0  0  0  0  0  0  0  0
   25.2452  -22.1607  -10.9497 S   0  0  0  0  0  0  0  0  0  0  0  0
   23.8556  -20.3428  -12.8896 C   0  0  0  0  0  0  0  0  0  0  0  0
   23.4972  -19.3928  -12.1133 O   0  0  0  0  0  0  0  0  0  0  0  0
   19.3020  -16.5303  -14.4638 N   0  0  0  0  0  0  0  0  0  0  0  0
   19.7922  -17.8332  -14.6898 C   0  0  0  0  0  0  0  0  0  0  0  0
   19.7326  -18.2796  -15.8874 O   0  0  0  0  0  0  0  0  0  0  0  0
   20.3636  -18.6992  -13.6677 C   0  0  0  0  0  0  0  0  0  0  0  0
   20.8574  -20.0243  -14.0601 C   0  0  0  0  0  0  0  0  0  0  0  0
   21.4129  -20.9505  -13.0544 C   0  0  2  0  0  0  0  0  0  0  0  0
   22.8405  -21.1318  -13.4486 N   0  0  0  0  0  0  0  0  0  0  0  0
   20.7152  -22.2222  -12.9533 C   0  0  0  0  0  0  0  0  0  0  0  0
   20.8146  -22.8994  -11.8938 O   0  0  0  0  0  0  0  0  0  0  0  0
   19.9430  -22.7107  -13.9713 O   0  0  0  0  0  0  0  0  0  0  0  0
  2  1  1  6
  3  2  1  0
  4  3  1  0
  5  4  2  0
  6  5  1  0
  7  6  2  0
  7  8  1  0
  8  9  2  0
  9  4  1  0
 10  2  1  0
 10 11  2  0
 12 10  1  0
 13 12  1  0
 13 14  1  1
 14 15  1  0
 16 13  1  0
 17 16  2  0
 19 18  1  0
 19 21  1  0
 20 19  2  0
 22 21  1  0
 23 22  1  6
 23 24  1  0
 24 16  1  0
 25 23  1  0
 26 25  2  0
 27 25  1  0
M  END
$$$$
