FCQ.pdb
     RDKit          3D

 27 27  0  0  1  0  0  0  0  0999 V2000
   27.9951  -20.2099  -15.7926 N   0  0  0  0  0  0  0  0  0  0  0  0
   27.3000  -19.5737  -14.7191 C   0  0  1  0  0  0  0  0  0  0  0  0
   26.2424  -18.5936  -15.1790 C   0  0  0  0  0  0  0  0  0  0  0  0
   26.9504  -17.4091  -15.7383 C   0  0  0  0  0  0  0  0  0  0  0  0
   27.2785  -16.3593  -14.9026 C   0  0  0  0  0  0  0  0  0  0  0  0
   27.9311  -15.2371  -15.3519 C   0  0  0  0  0  0  0  0  0  0  0  0
   28.2636  -15.1736  -16.6915 C   0  0  0  0  0  0  0  0  0  0  0  0
   27.9500  -16.2113  -17.5658 C   0  0  0  0  0  0  0  0  0  0  0  0
   27.2945  -17.3160  -17.0654 C   0  0  0  0  0  0  0  0  0  0  0  0
   26.6498  -20.5308  -13.7899 C   0  0  0  0  0  0  0  0  0  0  0  0
   26.1471  -21.5671  -14.3076 O   0  0  0  0  0  0  0  0  0  0  0  0
   26.5902  -20.3040  -12.3920 N   0  0  0  0  0  0  0  0  0  0  0  0
   25.5716  -21.0314  -11.6388 C   0  0  1  0  0  0  0  0  0  0  0  0
   25.8196  -20.6450  -10.1802 C   0  0  0  0  0  0  0  0  0  0  0  0
   24.5062  -21.2973   -9.1426 S   0  0  0  0  0  0  0  0  0  0  0  0
   24.2192  -20.5928  -12.0170 C   0  0  0  0  0  0  0  0  0  0  0  0
   23.9976  -19.3366  -12.0975 O   0  0  0  0  0  0  0  0  0  0  0  0
   18.7983  -19.7622  -16.2828 N   0  0  0  0  0  0  0  0  0  0  0  0
   20.0197  -20.1089  -15.6690 C   0  0  0  0  0  0  0  0  0  0  0  0
   21.0862  -19.6072  -16.1672 O   0  0  0  0  0  0  0  0  0  0  0  0
   20.1543  -20.9848  -14.5133 C   0  0  0  0  0  0  0  0  0  0  0  0
   21.4909  -21.2131  -13.9520 C   0  0  0  0  0  0  0  0  0  0  0  0
   21.7722  -20.9246  -12.5323 C   0  0  2  0  0  0  0  0  0  0  0  0
   23.1484  -21.4523  -12.3001 N   0  0  0  0  0  0  0  0  0  0  0  0
   20.8123  -21.4911  -11.5987 C   0  0  0  0  0  0  0  0  0  0  0  0
   21.0891  -22.5691  -11.0052 O   0  0  0  0  0  0  0  0  0  0  0  0
   19.6133  -20.8882  -11.3334 O   0  0  0  0  0  0  0  0  0  0  0  0
  2  1  1  6
  3  2  1  0
  4  3  1  0
  5  4  2  0
  6  5  1  0
  7  6  2  0
  7  8  1  0
  8  9  2  0
  9  4  1  0
 10  2  1  0
 10 11  2  0
 12 10  1  0
 13 12  1  0
 13 14  1  1
 14 15  1  0
 16 13  1  0
 17 16  2  0
 19 18  1  0
 19 21  1  0
 20 19  2  0
 22 21  1  0
 23 22  1  6
 23 24  1  0
 24 16  1  0
 25 23  1  0
 26 25  2  0
 27 25  1  0
M  END
$$$$
