MTG.pdb
     RDKit          3D

 20 19  0  0  1  0  0  0  0  0999 V2000
   29.0271  -19.9378   -4.2998 C   0  0  0  0  0  0  0  0  0  0  0  0
   28.0185  -19.4367   -5.6968 S   0  0  0  0  0  0  0  0  0  0  0  0
   28.1058  -20.6492   -7.0324 C   0  0  0  0  0  0  0  0  0  0  0  0
   27.2678  -20.1945   -8.2215 C   0  0  0  0  0  0  0  0  0  0  0  0
   27.4030  -21.2373   -9.3053 C   0  0  2  0  0  0  0  0  0  0  0  0
   28.7872  -21.4295   -9.6145 N   0  0  0  0  0  0  0  0  0  0  0  0
   26.6335  -20.7388  -10.4923 C   0  0  0  0  0  0  0  0  0  0  0  0
   27.2424  -20.1744  -11.4386 O   0  0  0  0  0  0  0  0  0  0  0  0
   26.6613  -21.1936  -12.9667 C   0  0  0  0  0  0  0  0  0  0  0  0
   25.1664  -21.2616  -12.9195 C   0  0  1  0  0  0  0  0  0  0  0  0
   24.8255  -22.6097  -12.6793 O   0  0  0  0  0  0  0  0  0  0  0  0
   24.5313  -20.4355  -11.8277 C   0  0  2  0  0  0  0  0  0  0  0  0
   25.2367  -20.8744  -10.6002 N   0  0  0  0  0  0  0  0  0  0  0  0
   23.0885  -20.6233  -11.6754 C   0  0  0  0  0  0  0  0  0  0  0  0
   22.6663  -21.4013  -10.7787 O   0  0  0  0  0  0  0  0  0  0  0  0
   22.1256  -19.9770  -12.4804 N   0  0  0  0  0  0  0  0  0  0  0  0
   20.6995  -20.0741  -12.2066 C   0  0  0  0  0  0  0  0  0  0  0  0
   20.1118  -21.2636  -12.8596 C   0  0  0  0  0  0  0  0  0  0  0  0
   20.8497  -22.1560  -13.3435 O   0  0  0  0  0  0  0  0  0  0  0  0
   18.7554  -21.4299  -12.9573 O   0  0  0  0  0  0  0  0  0  0  0  0
  1  2  1  0
  3  2  1  0
  3  4  1  0
  5  4  1  0
  5  6  1  6
  7  5  1  0
  8  7  2  0
 10  9  1  1
 10 11  1  0
 10 12  1  0
 12 13  1  1
 13  7  1  0
 14 12  1  0
 14 16  1  0
 15 14  2  0
 17 16  1  0
 18 17  1  0
 19 18  2  0
 20 18  1  0
M  END
$$$$
