MTG.pdb
     RDKit          3D

 20 19  0  0  1  0  0  0  0  0999 V2000
   15.8836  -12.6400  -17.9086 C   0  0  0  0  0  0  0  0  0  0  0  0
   16.2995  -14.3243  -18.3673 S   0  0  0  0  0  0  0  0  0  0  0  0
   18.0851  -14.5302  -18.5435 C   0  0  0  0  0  0  0  0  0  0  0  0
   18.8268  -13.5106  -17.6872 C   0  0  0  0  0  0  0  0  0  0  0  0
   20.3070  -13.7208  -17.9003 C   0  0  2  0  0  0  0  0  0  0  0  0
   20.6693  -15.0385  -17.4750 N   0  0  0  0  0  0  0  0  0  0  0  0
   21.0187  -12.6661  -17.1059 C   0  0  0  0  0  0  0  0  0  0  0  0
   21.4467  -12.9357  -15.9531 O   0  0  0  0  0  0  0  0  0  0  0  0
   23.8441   -8.7549  -16.9682 C   0  0  0  0  0  0  0  0  0  0  0  0
   23.0415   -9.8587  -17.5839 C   0  0  1  0  0  0  0  0  0  0  0  0
   23.9154  -10.9531  -17.7564 O   0  0  0  0  0  0  0  0  0  0  0  0
   21.8806  -10.3375  -16.7466 C   0  0  2  0  0  0  0  0  0  0  0  0
   21.2346  -11.3651  -17.5975 N   0  0  0  0  0  0  0  0  0  0  0  0
   20.9140   -9.3004  -16.3859 C   0  0  0  0  0  0  0  0  0  0  0  0
   20.2226   -8.7685  -17.2951 O   0  0  0  0  0  0  0  0  0  0  0  0
   20.7028   -8.8527  -15.0638 N   0  0  0  0  0  0  0  0  0  0  0  0
   19.7343   -7.8141  -14.7456 C   0  0  0  0  0  0  0  0  0  0  0  0
   20.3808   -6.4860  -14.6776 C   0  0  0  0  0  0  0  0  0  0  0  0
   21.6192   -6.3696  -14.8450 O   0  0  0  0  0  0  0  0  0  0  0  0
   19.6569   -5.3489  -14.4321 O   0  0  0  0  0  0  0  0  0  0  0  0
  1  2  1  0
  3  2  1  0
  3  4  1  0
  5  4  1  0
  5  6  1  1
  7  5  1  0
  8  7  2  0
 10  9  1  1
 10 11  1  0
 10 12  1  0
 12 13  1  6
 13  7  1  0
 14 12  1  0
 14 16  1  0
 15 14  2  0
 17 16  1  0
 18 17  1  0
 19 18  2  0
 20 18  1  0
M  END
$$$$
