MTG.pdb
     RDKit          3D

 20 19  0  0  1  0  0  0  0  0999 V2000
   28.4097  -11.8120  -17.0058 C   0  0  0  0  0  0  0  0  0  0  0  0
   28.1437  -12.8788  -15.5876 S   0  0  0  0  0  0  0  0  0  0  0  0
   26.3887  -13.2425  -15.3652 C   0  0  0  0  0  0  0  0  0  0  0  0
   25.5435  -12.0197  -15.7017 C   0  0  0  0  0  0  0  0  0  0  0  0
   24.0927  -12.4362  -15.6555 C   0  0  2  0  0  0  0  0  0  0  0  0
   23.8915  -13.5651  -16.5121 N   0  0  0  0  0  0  0  0  0  0  0  0
   23.2825  -11.2536  -16.0967 C   0  0  0  0  0  0  0  0  0  0  0  0
   22.8201  -11.2155  -17.2670 O   0  0  0  0  0  0  0  0  0  0  0  0
   20.8549  -10.8556  -16.9554 C   0  0  0  0  0  0  0  0  0  0  0  0
   20.8045   -9.7449  -15.9527 C   0  0  1  0  0  0  0  0  0  0  0  0
   20.3850  -10.3145  -14.7317 O   0  0  0  0  0  0  0  0  0  0  0  0
   22.1267   -9.0624  -15.7000 C   0  0  2  0  0  0  0  0  0  0  0  0
   23.0096  -10.1641  -15.2484 N   0  0  0  0  0  0  0  0  0  0  0  0
   22.0882   -8.0015  -14.6935 C   0  0  0  0  0  0  0  0  0  0  0  0
   22.6085   -8.2121  -13.5654 O   0  0  0  0  0  0  0  0  0  0  0  0
   21.4979   -6.7376  -14.9104 N   0  0  0  0  0  0  0  0  0  0  0  0
   21.5173   -5.6923  -13.8980 C   0  0  0  0  0  0  0  0  0  0  0  0
   22.1946   -4.4774  -14.3999 C   0  0  0  0  0  0  0  0  0  0  0  0
   22.7492   -4.4749  -15.5257 O   0  0  0  0  0  0  0  0  0  0  0  0
   22.2389   -3.3250  -13.6602 O   0  0  0  0  0  0  0  0  0  0  0  0
  1  2  1  0
  3  2  1  0
  3  4  1  0
  5  4  1  0
  5  6  1  6
  7  5  1  0
  8  7  2  0
 10  9  1  6
 10 11  1  0
 10 12  1  0
 12 13  1  1
 13  7  1  0
 14 12  1  0
 14 16  1  0
 15 14  2  0
 17 16  1  0
 18 17  1  0
 19 18  2  0
 20 18  1  0
M  END
$$$$
