MTG.pdb
     RDKit          3D

 20 19  0  0  1  0  0  0  0  0999 V2000
   24.1029  -20.4278   -9.2940 C   0  0  0  0  0  0  0  0  0  0  0  0
   25.5296  -21.4942   -9.5111 S   0  0  0  0  0  0  0  0  0  0  0  0
   26.8165  -20.6734  -10.4765 C   0  0  0  0  0  0  0  0  0  0  0  0
   26.2134  -19.9920  -11.6992 C   0  0  0  0  0  0  0  0  0  0  0  0
   26.2969  -20.9614  -12.8540 C   0  0  2  0  0  0  0  0  0  0  0  0
   27.6396  -21.0033  -13.3476 N   0  0  0  0  0  0  0  0  0  0  0  0
   25.3358  -20.4808  -13.9006 C   0  0  0  0  0  0  0  0  0  0  0  0
   25.7014  -19.6062  -14.7290 O   0  0  0  0  0  0  0  0  0  0  0  0
   23.1409  -21.6953  -17.5521 C   0  0  0  0  0  0  0  0  0  0  0  0
   23.9255  -21.5036  -16.2914 C   0  0  1  0  0  0  0  0  0  0  0  0
   25.0902  -20.7869  -16.6392 O   0  0  0  0  0  0  0  0  0  0  0  0
   23.2145  -20.7140  -15.2196 C   0  0  2  0  0  0  0  0  0  0  0  0
   24.0202  -20.9704  -14.0022 N   0  0  0  0  0  0  0  0  0  0  0  0
   21.8216  -21.1001  -14.9938 C   0  0  0  0  0  0  0  0  0  0  0  0
   21.5732  -22.2499  -14.5421 O   0  0  0  0  0  0  0  0  0  0  0  0
   20.7225  -20.2526  -15.2521 N   0  0  0  0  0  0  0  0  0  0  0  0
   19.3497  -20.6752  -15.0176 C   0  0  0  0  0  0  0  0  0  0  0  0
   19.1187  -20.9637  -13.5859 C   0  0  0  0  0  0  0  0  0  0  0  0
   18.6977  -22.0884  -13.2212 O   0  0  0  0  0  0  0  0  0  0  0  0
   19.3541  -20.0223  -12.6187 O   0  0  0  0  0  0  0  0  0  0  0  0
  1  2  1  0
  3  2  1  0
  3  4  1  0
  5  4  1  0
  5  6  1  6
  7  5  1  0
  8  7  2  0
 10  9  1  6
 10 11  1  0
 10 12  1  0
 12 13  1  1
 13  7  1  0
 14 12  1  0
 14 16  1  0
 15 14  2  0
 17 16  1  0
 18 17  1  0
 19 18  2  0
 20 18  1  0
M  END
$$$$
