MTG.pdb
     RDKit          3D

 20 19  0  0  1  0  0  0  0  0999 V2000
   16.0156  -15.1709  -17.5955 C   0  0  0  0  0  0  0  0  0  0  0  0
   16.8979  -14.2519  -16.3319 S   0  0  0  0  0  0  0  0  0  0  0  0
   18.1772  -13.2055  -17.0601 C   0  0  0  0  0  0  0  0  0  0  0  0
   18.8252  -12.3331  -15.9914 C   0  0  0  0  0  0  0  0  0  0  0  0
   19.9492  -11.5645  -16.6442 C   0  0  2  0  0  0  0  0  0  0  0  0
   20.9764  -12.4736  -17.0529 N   0  0  0  0  0  0  0  0  0  0  0  0
   20.4519  -10.5781  -15.6322 C   0  0  0  0  0  0  0  0  0  0  0  0
   21.2576  -10.9540  -14.7411 O   0  0  0  0  0  0  0  0  0  0  0  0
   22.8633   -9.5402  -15.1191 C   0  0  0  0  0  0  0  0  0  0  0  0
   22.1476   -8.2289  -15.2185 C   0  0  1  0  0  0  0  0  0  0  0  0
   22.1217   -7.8794  -16.5853 O   0  0  0  0  0  0  0  0  0  0  0  0
   20.7188   -8.2513  -14.7327 C   0  0  2  0  0  0  0  0  0  0  0  0
   20.0578   -9.2269  -15.6317 N   0  0  0  0  0  0  0  0  0  0  0  0
   20.0293   -6.9625  -14.7919 C   0  0  0  0  0  0  0  0  0  0  0  0
   20.3809   -6.0460  -14.0019 O   0  0  0  0  0  0  0  0  0  0  0  0
   18.9808   -6.6762  -15.6929 N   0  0  0  0  0  0  0  0  0  0  0  0
   18.2515   -5.4174  -15.6541 C   0  0  0  0  0  0  0  0  0  0  0  0
   18.5843   -4.5730  -16.8215 C   0  0  0  0  0  0  0  0  0  0  0  0
   19.4691   -4.9307  -17.6365 O   0  0  0  0  0  0  0  0  0  0  0  0
   17.9441   -3.3835  -17.0506 O   0  0  0  0  0  0  0  0  0  0  0  0
  1  2  1  0
  3  2  1  0
  3  4  1  0
  5  4  1  0
  5  6  1  1
  7  5  1  0
  8  7  2  0
 10  9  1  6
 10 11  1  0
 10 12  1  0
 12 13  1  6
 13  7  1  0
 14 12  1  0
 14 16  1  0
 15 14  2  0
 17 16  1  0
 18 17  1  0
 19 18  2  0
 20 18  1  0
M  END
$$$$
