MTG.pdb
     RDKit          3D

 20 19  0  0  1  0  0  0  0  0999 V2000
   29.3713  -20.1351   -6.6902 C   0  0  0  0  0  0  0  0  0  0  0  0
   28.0269  -19.0544   -6.1957 S   0  0  0  0  0  0  0  0  0  0  0  0
   26.5377  -19.3813   -7.1638 C   0  0  0  0  0  0  0  0  0  0  0  0
   26.9052  -19.8904   -8.5526 C   0  0  0  0  0  0  0  0  0  0  0  0
   25.6204  -20.1406   -9.3057 C   0  0  2  0  0  0  0  0  0  0  0  0
   24.8639  -21.1555   -8.6377 N   0  0  0  0  0  0  0  0  0  0  0  0
   26.0006  -20.5565  -10.6958 C   0  0  0  0  0  0  0  0  0  0  0  0
   26.0784  -21.7800  -10.9818 O   0  0  0  0  0  0  0  0  0  0  0  0
   24.6310  -21.7990  -12.5258 C   0  0  0  0  0  0  0  0  0  0  0  0
   25.0135  -20.6532  -13.4103 C   0  0  1  0  0  0  0  0  0  0  0  0
   24.0611  -19.6344  -13.1951 O   0  0  0  0  0  0  0  0  0  0  0  0
   26.3740  -20.0643  -13.1273 C   0  0  2  0  0  0  0  0  0  0  0  0
   26.2798  -19.6263  -11.7144 N   0  0  0  0  0  0  0  0  0  0  0  0
   26.7452  -18.9364  -13.9818 C   0  0  0  0  0  0  0  0  0  0  0  0
   26.5278  -17.7645  -13.5733 O   0  0  0  0  0  0  0  0  0  0  0  0
   27.3420  -19.0805  -15.2531 N   0  0  0  0  0  0  0  0  0  0  0  0
   27.9203  -17.9519  -15.9671 C   0  0  0  0  0  0  0  0  0  0  0  0
   28.5303  -18.3848  -17.2426 C   0  0  0  0  0  0  0  0  0  0  0  0
   28.5361  -19.5968  -17.5684 O   0  0  0  0  0  0  0  0  0  0  0  0
   29.1040  -17.4863  -18.1033 O   0  0  0  0  0  0  0  0  0  0  0  0
  1  2  1  0
  3  2  1  0
  3  4  1  0
  5  4  1  0
  5  6  1  1
  7  5  1  0
  8  7  2  0
 10  9  1  1
 10 11  1  0
 10 12  1  0
 12 13  1  1
 13  7  1  0
 14 12  1  0
 14 16  1  0
 15 14  2  0
 17 16  1  0
 18 17  1  0
 19 18  2  0
 20 18  1  0
M  END
$$$$
