MTG.pdb
     RDKit          3D

 20 19  0  0  1  0  0  0  0  0999 V2000
   26.2627  -18.9457   -6.9999 C   0  0  0  0  0  0  0  0  0  0  0  0
   27.5111  -20.2010   -7.2924 S   0  0  0  0  0  0  0  0  0  0  0  0
   27.0749  -21.2377   -8.7054 C   0  0  0  0  0  0  0  0  0  0  0  0
   26.2327  -20.4522   -9.7037 C   0  0  0  0  0  0  0  0  0  0  0  0
   25.9757  -21.3467  -10.8930 C   0  0  2  0  0  0  0  0  0  0  0  0
   27.2234  -21.7725  -11.4500 N   0  0  0  0  0  0  0  0  0  0  0  0
   25.1725  -20.5485  -11.8768 C   0  0  0  0  0  0  0  0  0  0  0  0
   25.6389  -19.4735  -12.3368 O   0  0  0  0  0  0  0  0  0  0  0  0
   24.1385  -22.2418  -14.8584 C   0  0  0  0  0  0  0  0  0  0  0  0
   24.1106  -20.7591  -14.6529 C   0  0  1  0  0  0  0  0  0  0  0  0
   23.5584  -20.1942  -15.8222 O   0  0  0  0  0  0  0  0  0  0  0  0
   23.2668  -20.2990  -13.4892 C   0  0  2  0  0  0  0  0  0  0  0  0
   23.8984  -20.9520  -12.3180 N   0  0  0  0  0  0  0  0  0  0  0  0
   21.8535  -20.6675  -13.5714 C   0  0  0  0  0  0  0  0  0  0  0  0
   21.4888  -21.7887  -13.1267 O   0  0  0  0  0  0  0  0  0  0  0  0
   20.8576  -19.8332  -14.1239 N   0  0  0  0  0  0  0  0  0  0  0  0
   19.4556  -20.2221  -14.1573 C   0  0  0  0  0  0  0  0  0  0  0  0
   18.6518  -19.3960  -13.2309 C   0  0  0  0  0  0  0  0  0  0  0  0
   19.1261  -18.3431  -12.7395 O   0  0  0  0  0  0  0  0  0  0  0  0
   17.3748  -19.7488  -12.8815 O   0  0  0  0  0  0  0  0  0  0  0  0
  1  2  1  0
  3  2  1  0
  3  4  1  0
  5  4  1  0
  5  6  1  6
  7  5  1  0
  8  7  2  0
 10  9  1  6
 10 11  1  0
 10 12  1  0
 12 13  1  1
 13  7  1  0
 14 12  1  0
 14 16  1  0
 15 14  2  0
 17 16  1  0
 18 17  1  0
 19 18  2  0
 20 18  1  0
M  END
$$$$
