MTG.pdb
     RDKit          3D

 20 19  0  0  1  0  0  0  0  0999 V2000
   18.6870  -23.1282  -14.7834 C   0  0  0  0  0  0  0  0  0  0  0  0
   17.8301  -21.5566  -14.6574 S   0  0  0  0  0  0  0  0  0  0  0  0
   18.9937  -20.1756  -14.6830 C   0  0  0  0  0  0  0  0  0  0  0  0
   20.2513  -20.5517  -15.4576 C   0  0  0  0  0  0  0  0  0  0  0  0
   21.2081  -19.3863  -15.3753 C   0  0  2  0  0  0  0  0  0  0  0  0
   20.5841  -18.2159  -15.9131 N   0  0  0  0  0  0  0  0  0  0  0  0
   22.4330  -19.7687  -16.1521 C   0  0  0  0  0  0  0  0  0  0  0  0
   22.3705  -19.8711  -17.4052 O   0  0  0  0  0  0  0  0  0  0  0  0
   23.9240  -18.9147  -18.1579 C   0  0  0  0  0  0  0  0  0  0  0  0
   25.0727  -19.2365  -17.2532 C   0  0  1  0  0  0  0  0  0  0  0  0
   25.2746  -18.1078  -16.4308 O   0  0  0  0  0  0  0  0  0  0  0  0
   24.8479  -20.4206  -16.3447 C   0  0  2  0  0  0  0  0  0  0  0  0
   23.6719  -20.0232  -15.5347 N   0  0  0  0  0  0  0  0  0  0  0  0
   25.9751  -20.7479  -15.4715 C   0  0  0  0  0  0  0  0  0  0  0  0
   25.9992  -20.2748  -14.3039 O   0  0  0  0  0  0  0  0  0  0  0  0
   27.0521  -21.5739  -15.8597 N   0  0  0  0  0  0  0  0  0  0  0  0
   28.0860  -21.9862  -14.9221 C   0  0  0  0  0  0  0  0  0  0  0  0
   29.1075  -22.8216  -15.5894 C   0  0  0  0  0  0  0  0  0  0  0  0
   28.9995  -23.1118  -16.8056 O   0  0  0  0  0  0  0  0  0  0  0  0
   30.1954  -23.3022  -14.9092 O   0  0  0  0  0  0  0  0  0  0  0  0
  1  2  1  0
  3  2  1  0
  3  4  1  0
  5  4  1  0
  5  6  1  6
  7  5  1  0
  8  7  2  0
 10  9  1  6
 10 11  1  0
 10 12  1  0
 12 13  1  1
 13  7  1  0
 14 12  1  0
 14 16  1  0
 15 14  2  0
 17 16  1  0
 18 17  1  0
 19 18  2  0
 20 18  1  0
M  END
$$$$
