MTG.pdb
     RDKit          3D

 20 19  0  0  1  0  0  0  0  0999 V2000
   14.9403  -14.0276  -18.7567 C   0  0  0  0  0  0  0  0  0  0  0  0
   15.3371  -12.5237  -17.8619 S   0  0  0  0  0  0  0  0  0  0  0  0
   17.0721  -12.5017  -17.3608 C   0  0  0  0  0  0  0  0  0  0  0  0
   17.4274  -11.1619  -16.7270 C   0  0  0  0  0  0  0  0  0  0  0  0
   18.8772  -11.2209  -16.3086 C   0  0  2  0  0  0  0  0  0  0  0  0
   19.0873  -12.3618  -15.4703 N   0  0  0  0  0  0  0  0  0  0  0  0
   19.1785   -9.9402  -15.5882 C   0  0  0  0  0  0  0  0  0  0  0  0
   18.6315   -9.7045  -14.4792 O   0  0  0  0  0  0  0  0  0  0  0  0
   22.2795   -8.9562  -14.2277 C   0  0  0  0  0  0  0  0  0  0  0  0
   21.8433   -7.8157  -15.0941 C   0  0  1  0  0  0  0  0  0  0  0  0
   22.4633   -7.9945  -16.3490 O   0  0  0  0  0  0  0  0  0  0  0  0
   20.3552   -7.7390  -15.3344 C   0  0  2  0  0  0  0  0  0  0  0  0
   20.0600   -8.9714  -16.1033 N   0  0  0  0  0  0  0  0  0  0  0  0
   19.9131   -6.5607  -16.0800 C   0  0  0  0  0  0  0  0  0  0  0  0
   19.7154   -6.6627  -17.3202 O   0  0  0  0  0  0  0  0  0  0  0  0
   19.6890   -5.2985  -15.4886 N   0  0  0  0  0  0  0  0  0  0  0  0
   19.3077   -4.1343  -16.2742 C   0  0  0  0  0  0  0  0  0  0  0  0
   18.9932   -2.9828  -15.4015 C   0  0  0  0  0  0  0  0  0  0  0  0
   19.0083   -3.1056  -14.1526 O   0  0  0  0  0  0  0  0  0  0  0  0
   18.6779   -1.7552  -15.9217 O   0  0  0  0  0  0  0  0  0  0  0  0
  1  2  1  0
  3  2  1  0
  3  4  1  0
  5  4  1  0
  5  6  1  1
  7  5  1  0
  8  7  2  0
 10  9  1  1
 10 11  1  0
 10 12  1  0
 12 13  1  6
 13  7  1  0
 14 12  1  0
 14 16  1  0
 15 14  2  0
 17 16  1  0
 18 17  1  0
 19 18  2  0
 20 18  1  0
M  END
$$$$
