MTG.pdb
     RDKit          3D

 20 19  0  0  1  0  0  0  0  0999 V2000
   28.1958  -11.2877  -16.2461 C   0  0  0  0  0  0  0  0  0  0  0  0
   27.5291  -12.8021  -15.5518 S   0  0  0  0  0  0  0  0  0  0  0  0
   25.7588  -12.9454  -15.8789 C   0  0  0  0  0  0  0  0  0  0  0  0
   25.1384  -11.5666  -16.0714 C   0  0  0  0  0  0  0  0  0  0  0  0
   23.6726  -11.7604  -16.3782 C   0  0  2  0  0  0  0  0  0  0  0  0
   23.5320  -12.5565  -17.5593 N   0  0  0  0  0  0  0  0  0  0  0  0
   23.0772  -10.3951  -16.5554 C   0  0  0  0  0  0  0  0  0  0  0  0
   23.3239   -9.7375  -17.6001 O   0  0  0  0  0  0  0  0  0  0  0  0
   19.7503   -9.5995  -17.1165 C   0  0  0  0  0  0  0  0  0  0  0  0
   20.1503   -8.7783  -15.9303 C   0  0  1  0  0  0  0  0  0  0  0  0
   19.8012   -9.5206  -14.7821 O   0  0  0  0  0  0  0  0  0  0  0  0
   21.6265   -8.4774  -15.8398 C   0  0  2  0  0  0  0  0  0  0  0  0
   22.2402   -9.8034  -15.5908 N   0  0  0  0  0  0  0  0  0  0  0  0
   21.9990   -7.5414  -14.7790 C   0  0  0  0  0  0  0  0  0  0  0  0
   22.5479   -7.9883  -13.7366 O   0  0  0  0  0  0  0  0  0  0  0  0
   21.7806   -6.1486  -14.8516 N   0  0  0  0  0  0  0  0  0  0  0  0
   22.1356   -5.2534  -13.7604 C   0  0  0  0  0  0  0  0  0  0  0  0
   21.8811   -3.8430  -14.1246 C   0  0  0  0  0  0  0  0  0  0  0  0
   21.4307   -3.5478  -15.2581 O   0  0  0  0  0  0  0  0  0  0  0  0
   22.1260   -2.8211  -13.2453 O   0  0  0  0  0  0  0  0  0  0  0  0
  1  2  1  0
  3  2  1  0
  3  4  1  0
  5  4  1  0
  5  6  1  6
  7  5  1  0
  8  7  2  0
 10  9  1  6
 10 11  1  0
 10 12  1  0
 12 13  1  1
 13  7  1  0
 14 12  1  0
 14 16  1  0
 15 14  2  0
 17 16  1  0
 18 17  1  0
 19 18  2  0
 20 18  1  0
M  END
$$$$
