MTG.pdb
     RDKit          3D

 20 19  0  0  1  0  0  0  0  0999 V2000
   14.1741  -16.0810  -15.7831 C   0  0  0  0  0  0  0  0  0  0  0  0
   14.6419  -16.5049  -17.4628 S   0  0  0  0  0  0  0  0  0  0  0  0
   16.4260  -16.3556  -17.7003 C   0  0  0  0  0  0  0  0  0  0  0  0
   16.9472  -15.0832  -17.0427 C   0  0  0  0  0  0  0  0  0  0  0  0
   18.4532  -15.0915  -17.1540 C   0  0  2  0  0  0  0  0  0  0  0  0
   18.9655  -16.3179  -16.6231 N   0  0  0  0  0  0  0  0  0  0  0  0
   18.9561  -13.9031  -16.3894 C   0  0  0  0  0  0  0  0  0  0  0  0
   19.1157  -13.9847  -15.1433 O   0  0  0  0  0  0  0  0  0  0  0  0
   22.0994  -12.5168  -16.4160 C   0  0  0  0  0  0  0  0  0  0  0  0
   21.1899  -11.3630  -16.7044 C   0  0  1  0  0  0  0  0  0  0  0  0
   21.1343  -11.2265  -18.1078 O   0  0  0  0  0  0  0  0  0  0  0  0
   19.7736  -11.5377  -16.2129 C   0  0  2  0  0  0  0  0  0  0  0  0
   19.2635  -12.6781  -17.0107 N   0  0  0  0  0  0  0  0  0  0  0  0
   18.9118  -10.3696  -16.3940 C   0  0  0  0  0  0  0  0  0  0  0  0
   18.1485  -10.3243  -17.3954 O   0  0  0  0  0  0  0  0  0  0  0  0
   18.8798   -9.2747  -15.5033 N   0  0  0  0  0  0  0  0  0  0  0  0
   17.9966   -8.1366  -15.7100 C   0  0  0  0  0  0  0  0  0  0  0  0
   18.2825   -7.0577  -14.7400 C   0  0  0  0  0  0  0  0  0  0  0  0
   19.1477   -7.2169  -13.8450 O   0  0  0  0  0  0  0  0  0  0  0  0
   17.6190   -5.8598  -14.7854 O   0  0  0  0  0  0  0  0  0  0  0  0
  1  2  1  0
  3  2  1  0
  3  4  1  0
  5  4  1  0
  5  6  1  1
  7  5  1  0
  8  7  2  0
 10  9  1  6
 10 11  1  0
 10 12  1  0
 12 13  1  6
 13  7  1  0
 14 12  1  0
 14 16  1  0
 15 14  2  0
 17 16  1  0
 18 17  1  0
 19 18  2  0
 20 18  1  0
M  END
$$$$
