MTG.pdb
     RDKit          3D

 20 19  0  0  1  0  0  0  0  0999 V2000
   21.3139  -21.0475   -8.3026 C   0  0  0  0  0  0  0  0  0  0  0  0
   22.5600  -21.1493   -7.0154 S   0  0  0  0  0  0  0  0  0  0  0  0
   24.2013  -21.4245   -7.7170 C   0  0  0  0  0  0  0  0  0  0  0  0
   24.3551  -20.6641   -9.0289 C   0  0  0  0  0  0  0  0  0  0  0  0
   25.6934  -21.0357   -9.6218 C   0  0  2  0  0  0  0  0  0  0  0  0
   26.7394  -20.6344   -8.7312 N   0  0  0  0  0  0  0  0  0  0  0  0
   25.7950  -20.3392  -10.9464 C   0  0  0  0  0  0  0  0  0  0  0  0
   26.1925  -19.1458  -10.9951 O   0  0  0  0  0  0  0  0  0  0  0  0
   27.8897  -20.8137  -13.6761 C   0  0  0  0  0  0  0  0  0  0  0  0
   26.5127  -20.8660  -14.2616 C   0  0  1  0  0  0  0  0  0  0  0  0
   26.1674  -22.2295  -14.3743 O   0  0  0  0  0  0  0  0  0  0  0  0
   25.4465  -20.1993  -13.4270 C   0  0  2  0  0  0  0  0  0  0  0  0
   25.4604  -20.9686  -12.1601 N   0  0  0  0  0  0  0  0  0  0  0  0
   24.1065  -20.2170  -14.0136 C   0  0  0  0  0  0  0  0  0  0  0  0
   23.2155  -20.9286  -13.4774 O   0  0  0  0  0  0  0  0  0  0  0  0
   23.7430  -19.4748  -15.1582 N   0  0  0  0  0  0  0  0  0  0  0  0
   22.3864  -19.4830  -15.6851 C   0  0  0  0  0  0  0  0  0  0  0  0
   22.2873  -18.6651  -16.9130 C   0  0  0  0  0  0  0  0  0  0  0  0
   23.3022  -18.0987  -17.3863 O   0  0  0  0  0  0  0  0  0  0  0  0
   21.0958  -18.4998  -17.5689 O   0  0  0  0  0  0  0  0  0  0  0  0
  1  2  1  0
  3  2  1  0
  3  4  1  0
  5  4  1  0
  5  6  1  1
  7  5  1  0
  8  7  2  0
 10  9  1  1
 10 11  1  0
 10 12  1  0
 12 13  1  1
 13  7  1  0
 14 12  1  0
 14 16  1  0
 15 14  2  0
 17 16  1  0
 18 17  1  0
 19 18  2  0
 20 18  1  0
M  END
$$$$
