MTG.pdb
     RDKit          3D

 20 19  0  0  1  0  0  0  0  0999 V2000
   26.7709  -15.2217  -15.2159 C   0  0  0  0  0  0  0  0  0  0  0  0
   25.3463  -16.3115  -15.2708 S   0  0  0  0  0  0  0  0  0  0  0  0
   23.9395  -15.5061  -16.0669 C   0  0  0  0  0  0  0  0  0  0  0  0
   23.4166  -14.3664  -15.2004 C   0  0  0  0  0  0  0  0  0  0  0  0
   22.3070  -13.6813  -15.9619 C   0  0  2  0  0  0  0  0  0  0  0  0
   22.7350  -13.4241  -17.3032 N   0  0  0  0  0  0  0  0  0  0  0  0
   21.9898  -12.4122  -15.2278 C   0  0  0  0  0  0  0  0  0  0  0  0
   21.8443  -12.4342  -13.9776 O   0  0  0  0  0  0  0  0  0  0  0  0
   23.3895  -10.7845  -13.5492 C   0  0  0  0  0  0  0  0  0  0  0  0
   22.8941   -9.6671  -14.4139 C   0  0  1  0  0  0  0  0  0  0  0  0
   23.8654   -9.4645  -15.4173 O   0  0  0  0  0  0  0  0  0  0  0  0
   21.5814   -9.9398  -15.1069 C   0  0  2  0  0  0  0  0  0  0  0  0
   21.8443  -11.1750  -15.8829 N   0  0  0  0  0  0  0  0  0  0  0  0
   21.1228   -8.8728  -15.9964 C   0  0  0  0  0  0  0  0  0  0  0  0
   21.3989   -8.9415  -17.2239 O   0  0  0  0  0  0  0  0  0  0  0  0
   20.3780   -7.7558  -15.5601 N   0  0  0  0  0  0  0  0  0  0  0  0
   19.8109   -6.7935  -16.4931 C   0  0  0  0  0  0  0  0  0  0  0  0
   18.9361   -5.8270  -15.7951 C   0  0  0  0  0  0  0  0  0  0  0  0
   18.7663   -5.9007  -14.5538 O   0  0  0  0  0  0  0  0  0  0  0  0
   18.2881   -4.8283  -16.4732 O   0  0  0  0  0  0  0  0  0  0  0  0
  1  2  1  0
  3  2  1  0
  3  4  1  0
  5  4  1  0
  5  6  1  6
  7  5  1  0
  8  7  2  0
 10  9  1  6
 10 11  1  0
 10 12  1  0
 12 13  1  6
 13  7  1  0
 14 12  1  0
 14 16  1  0
 15 14  2  0
 17 16  1  0
 18 17  1  0
 19 18  2  0
 20 18  1  0
M  END
$$$$
