LCE.pdb
     RDKit          3D

 24 23  0  0  1  0  0  0  0  0999 V2000
   17.0758  -13.8598  -11.4218 C   0  0  0  0  0  0  0  0  0  0  0  0
   16.3686  -13.2659  -12.6121 C   0  0  2  0  0  0  0  0  0  0  0  0
   17.3475  -13.3560  -13.7911 C   0  0  0  0  0  0  0  0  0  0  0  0
   16.0384  -11.8210  -12.4378 C   0  0  0  0  0  0  0  0  0  0  0  0
   14.9834  -11.5812  -11.3822 C   0  0  2  0  0  0  0  0  0  0  0  0
   13.7547  -12.2451  -11.6519 N   0  0  0  0  0  0  0  0  0  0  0  0
   14.7488  -10.1405  -11.1491 C   0  0  0  0  0  0  0  0  0  0  0  0
   13.9232   -9.4866  -11.8421 O   0  0  0  0  0  0  0  0  0  0  0  0
   15.4666   -9.4821  -10.1265 N   0  0  0  0  0  0  0  0  0  0  0  0
   15.2710   -8.0740   -9.7698 C   0  0  1  0  0  0  0  0  0  0  0  0
   15.1609   -7.9532   -8.2628 C   0  0  0  0  0  0  0  0  0  0  0  0
   15.2489   -6.2252   -7.7752 S   0  0  0  0  0  0  0  0  0  0  0  0
   16.4885   -7.3636  -10.2084 C   0  0  0  0  0  0  0  0  0  0  0  0
   17.6299   -7.8909   -9.9661 O   0  0  0  0  0  0  0  0  0  0  0  0
   16.4902   -6.1209  -10.8924 N   0  0  0  0  0  0  0  0  0  0  0  0
   17.7111   -5.6214  -11.5056 C   0  0  1  0  0  0  0  0  0  0  0  0
   18.2755   -6.5983  -12.5034 C   0  0  0  0  0  0  0  0  0  0  0  0
   19.4560   -6.0676  -13.2676 C   0  0  0  0  0  0  0  0  0  0  0  0
   19.9346   -7.1549  -14.1516 C   0  0  0  0  0  0  0  0  0  0  0  0
   20.9324   -6.9424  -14.8782 O   0  0  0  0  0  0  0  0  0  0  0  0
   17.4723   -4.3512  -12.2325 C   0  0  0  0  0  0  0  0  0  0  0  0
   18.4826   -3.5076  -12.6690 O   0  0  0  0  0  0  0  0  0  0  0  0
   19.3204   -8.3910  -14.2023 O   0  0  0  0  0  0  0  0  0  0  0  0
   16.2877   -4.0098  -12.4721 O   0  0  0  0  0  0  0  0  0  0  0  0
  2  1  1  1
  2  3  1  0
  4  5  1  0
  4  2  1  0
  5  6  1  6
  5  7  1  0
  7  8  2  0
  9  7  1  0
  9 10  1  0
 10 13  1  0
 10 11  1  1
 11 12  1  0
 13 14  2  0
 15 16  1  0
 15 13  1  0
 16 21  1  0
 16 17  1  6
 18 17  1  0
 19 20  2  0
 19 18  1  0
 21 24  2  0
 21 22  1  0
 23 19  1  0
M  END
$$$$
