LCE.pdb
     RDKit          3D

 24 23  0  0  1  0  0  0  0  0999 V2000
   16.8480  -11.4691  -18.5806 C   0  0  0  0  0  0  0  0  0  0  0  0
   18.2404  -12.0420  -18.5311 C   0  0  2  0  0  0  0  0  0  0  0  0
   18.2129  -13.3288  -19.3676 C   0  0  0  0  0  0  0  0  0  0  0  0
   18.6654  -12.4335  -17.1551 C   0  0  0  0  0  0  0  0  0  0  0  0
   20.1371  -12.7665  -17.0657 C   0  0  2  0  0  0  0  0  0  0  0  0
   20.3895  -14.1450  -16.8219 N   0  0  0  0  0  0  0  0  0  0  0  0
   20.8354  -11.9315  -16.0658 C   0  0  0  0  0  0  0  0  0  0  0  0
   20.5504  -11.9950  -14.8393 O   0  0  0  0  0  0  0  0  0  0  0  0
   21.8451  -11.0421  -16.4950 N   0  0  0  0  0  0  0  0  0  0  0  0
   22.6059  -10.1750  -15.5910 C   0  0  1  0  0  0  0  0  0  0  0  0
   24.0550  -10.6199  -15.5773 C   0  0  0  0  0  0  0  0  0  0  0  0
   24.3473  -11.7246  -14.1896 S   0  0  0  0  0  0  0  0  0  0  0  0
   22.5388   -8.8173  -16.1667 C   0  0  0  0  0  0  0  0  0  0  0  0
   22.4924   -8.6902  -17.4400 O   0  0  0  0  0  0  0  0  0  0  0  0
   22.5187   -7.6218  -15.4034 N   0  0  0  0  0  0  0  0  0  0  0  0
   21.9064   -6.4168  -15.9412 C   0  0  1  0  0  0  0  0  0  0  0  0
   20.4310   -6.5996  -16.1827 C   0  0  0  0  0  0  0  0  0  0  0  0
   19.7552   -5.3809  -16.7457 C   0  0  0  0  0  0  0  0  0  0  0  0
   18.3993   -5.7886  -17.1793 C   0  0  0  0  0  0  0  0  0  0  0  0
   17.4781   -5.8075  -16.3309 O   0  0  0  0  0  0  0  0  0  0  0  0
   22.0531   -5.2722  -15.0100 C   0  0  0  0  0  0  0  0  0  0  0  0
   22.2225   -3.9583  -15.4195 O   0  0  0  0  0  0  0  0  0  0  0  0
   18.1166   -6.1477  -18.4827 O   0  0  0  0  0  0  0  0  0  0  0  0
   22.0234   -5.4954  -13.7746 O   0  0  0  0  0  0  0  0  0  0  0  0
  2  1  1  1
  2  3  1  0
  4  5  1  0
  4  2  1  0
  5  6  1  1
  5  7  1  0
  7  8  2  0
  9  7  1  0
  9 10  1  0
 10 13  1  0
 10 11  1  6
 11 12  1  0
 13 14  2  0
 15 16  1  0
 15 13  1  0
 16 21  1  0
 16 17  1  1
 18 17  1  0
 19 20  2  0
 19 18  1  0
 21 24  2  0
 21 22  1  0
 23 19  1  0
M  END
$$$$
