LCE.pdb
     RDKit          3D

 24 23  0  0  1  0  0  0  0  0999 V2000
   19.3846  -12.7506  -20.9702 C   0  0  0  0  0  0  0  0  0  0  0  0
   19.9112  -13.6222  -19.8600 C   0  0  2  0  0  0  0  0  0  0  0  0
   19.0362  -14.8835  -19.8430 C   0  0  0  0  0  0  0  0  0  0  0  0
   19.7860  -12.9948  -18.5117 C   0  0  0  0  0  0  0  0  0  0  0  0
   20.5874  -11.7201  -18.3787 C   0  0  2  0  0  0  0  0  0  0  0  0
   21.9796  -11.9029  -18.6062 N   0  0  0  0  0  0  0  0  0  0  0  0
   20.3621  -11.0560  -17.0776 C   0  0  0  0  0  0  0  0  0  0  0  0
   19.2091  -10.9626  -16.5761 O   0  0  0  0  0  0  0  0  0  0  0  0
   21.4642  -10.5137  -16.3806 N   0  0  0  0  0  0  0  0  0  0  0  0
   21.3557   -9.8301  -15.0887 C   0  0  1  0  0  0  0  0  0  0  0  0
   22.4408  -10.3422  -14.1623 C   0  0  0  0  0  0  0  0  0  0  0  0
   24.0611   -9.9549  -14.8377 S   0  0  0  0  0  0  0  0  0  0  0  0
   21.6052   -8.3998  -15.3557 C   0  0  0  0  0  0  0  0  0  0  0  0
   22.3304   -8.0785  -16.3610 O   0  0  0  0  0  0  0  0  0  0  0  0
   21.0914   -7.3353  -14.5714 N   0  0  0  0  0  0  0  0  0  0  0  0
   21.3665   -5.9544  -14.9365 C   0  0  1  0  0  0  0  0  0  0  0  0
   20.1069   -5.1309  -14.9976 C   0  0  0  0  0  0  0  0  0  0  0  0
   20.3469   -3.6818  -15.3162 C   0  0  0  0  0  0  0  0  0  0  0  0
   19.0223   -3.0312  -15.4378 C   0  0  0  0  0  0  0  0  0  0  0  0
   17.9946   -3.7230  -15.2539 O   0  0  0  0  0  0  0  0  0  0  0  0
   22.2620   -5.3013  -13.9514 C   0  0  0  0  0  0  0  0  0  0  0  0
   23.1064   -4.2440  -14.2551 O   0  0  0  0  0  0  0  0  0  0  0  0
   18.8818   -1.6921  -15.7461 O   0  0  0  0  0  0  0  0  0  0  0  0
   22.2634   -5.7234  -12.7687 O   0  0  0  0  0  0  0  0  0  0  0  0
  2  1  1  6
  2  3  1  0
  4  5  1  0
  4  2  1  0
  5  6  1  1
  5  7  1  0
  7  8  2  0
  9  7  1  0
  9 10  1  0
 10 13  1  0
 10 11  1  1
 11 12  1  0
 13 14  2  0
 15 16  1  0
 15 13  1  0
 16 21  1  0
 16 17  1  1
 18 17  1  0
 19 20  2  0
 19 18  1  0
 21 24  2  0
 21 22  1  0
 23 19  1  0
M  END
$$$$
