LCE.pdb
     RDKit          3D

 24 23  0  0  1  0  0  0  0  0999 V2000
   20.7866  -13.2647  -20.6791 C   0  0  0  0  0  0  0  0  0  0  0  0
   21.7394  -13.9632  -19.7443 C   0  0  2  0  0  0  0  0  0  0  0  0
   21.0364  -15.2482  -19.2847 C   0  0  0  0  0  0  0  0  0  0  0  0
   22.0386  -13.1739  -18.5136 C   0  0  0  0  0  0  0  0  0  0  0  0
   22.6547  -11.8265  -18.8135 C   0  0  2  0  0  0  0  0  0  0  0  0
   23.8784  -11.9136  -19.5333 N   0  0  0  0  0  0  0  0  0  0  0  0
   22.8336  -11.0138  -17.5919 C   0  0  0  0  0  0  0  0  0  0  0  0
   21.8977  -10.8564  -16.7619 O   0  0  0  0  0  0  0  0  0  0  0  0
   24.0821  -10.3997  -17.3495 N   0  0  0  0  0  0  0  0  0  0  0  0
   24.3748   -9.5870  -16.1655 C   0  0  1  0  0  0  0  0  0  0  0  0
   25.8701   -9.3531  -16.0800 C   0  0  0  0  0  0  0  0  0  0  0  0
   26.6077  -10.5026  -14.9112 S   0  0  0  0  0  0  0  0  0  0  0  0
   23.7096   -8.2870  -16.3817 C   0  0  0  0  0  0  0  0  0  0  0  0
   23.8782   -7.6877  -17.5006 O   0  0  0  0  0  0  0  0  0  0  0  0
   22.8809   -7.6410  -15.4286 N   0  0  0  0  0  0  0  0  0  0  0  0
   22.2345   -6.3788  -15.7525 C   0  0  1  0  0  0  0  0  0  0  0  0
   20.7400   -6.5285  -15.8636 C   0  0  0  0  0  0  0  0  0  0  0  0
   20.0269   -5.2471  -16.1928 C   0  0  0  0  0  0  0  0  0  0  0  0
   18.5848   -5.5622  -16.3115 C   0  0  0  0  0  0  0  0  0  0  0  0
   18.1272   -5.8649  -17.4373 O   0  0  0  0  0  0  0  0  0  0  0  0
   22.4896   -5.3558  -14.7097 C   0  0  0  0  0  0  0  0  0  0  0  0
   22.4419   -3.9890  -14.9385 O   0  0  0  0  0  0  0  0  0  0  0  0
   17.7302   -5.5336  -15.2268 O   0  0  0  0  0  0  0  0  0  0  0  0
   22.7664   -5.7399  -13.5466 O   0  0  0  0  0  0  0  0  0  0  0  0
  2  1  1  6
  2  3  1  0
  4  5  1  0
  4  2  1  0
  5  6  1  1
  5  7  1  0
  7  8  2  0
  9  7  1  0
  9 10  1  0
 10 13  1  0
 10 11  1  6
 11 12  1  0
 13 14  2  0
 15 16  1  0
 15 13  1  0
 16 21  1  0
 16 17  1  1
 18 17  1  0
 19 20  2  0
 19 18  1  0
 21 24  2  0
 21 22  1  0
 23 19  1  0
M  END
$$$$
