LCE.pdb
     RDKit          3D

 24 23  0  0  1  0  0  0  0  0999 V2000
   29.2848  -21.3823  -17.2156 C   0  0  0  0  0  0  0  0  0  0  0  0
   28.5487  -20.3115  -16.4533 C   0  0  2  0  0  0  0  0  0  0  0  0
   29.6104  -19.3172  -15.9625 C   0  0  0  0  0  0  0  0  0  0  0  0
   27.8516  -20.8290  -15.2395 C   0  0  0  0  0  0  0  0  0  0  0  0
   26.5034  -20.1837  -15.0146 C   0  0  2  0  0  0  0  0  0  0  0  0
   26.5904  -18.8273  -14.5951 N   0  0  0  0  0  0  0  0  0  0  0  0
   25.6665  -20.9595  -14.0752 C   0  0  0  0  0  0  0  0  0  0  0  0
   25.4644  -22.1933  -14.2370 O   0  0  0  0  0  0  0  0  0  0  0  0
   25.0799  -20.3026  -12.9711 N   0  0  0  0  0  0  0  0  0  0  0  0
   24.2932  -20.9853  -11.9399 C   0  0  1  0  0  0  0  0  0  0  0  0
   24.7376  -20.5017  -10.5737 C   0  0  0  0  0  0  0  0  0  0  0  0
   26.3272  -21.2267  -10.1505 S   0  0  0  0  0  0  0  0  0  0  0  0
   22.8913  -20.5729  -12.1489 C   0  0  0  0  0  0  0  0  0  0  0  0
   22.6351  -19.3313  -12.3293 O   0  0  0  0  0  0  0  0  0  0  0  0
   21.7871  -21.4632  -12.1683 N   0  0  0  0  0  0  0  0  0  0  0  0
   20.4460  -20.9650  -12.4316 C   0  0  1  0  0  0  0  0  0  0  0  0
   19.7046  -21.8433  -13.4049 C   0  0  0  0  0  0  0  0  0  0  0  0
   20.3936  -21.9902  -14.7326 C   0  0  0  0  0  0  0  0  0  0  0  0
   19.6405  -22.9996  -15.5116 C   0  0  0  0  0  0  0  0  0  0  0  0
   20.0418  -23.2922  -16.6614 O   0  0  0  0  0  0  0  0  0  0  0  0
   19.6339  -20.9127  -11.1920 C   0  0  0  0  0  0  0  0  0  0  0  0
   18.4250  -20.2416  -11.0866 O   0  0  0  0  0  0  0  0  0  0  0  0
   18.5146  -23.6271  -15.0154 O   0  0  0  0  0  0  0  0  0  0  0  0
   20.0575  -21.5085  -10.1709 O   0  0  0  0  0  0  0  0  0  0  0  0
  2  1  1  1
  2  3  1  0
  4  5  1  0
  4  2  1  0
  5  6  1  1
  5  7  1  0
  7  8  2  0
  9  7  1  0
  9 10  1  0
 10 13  1  0
 10 11  1  1
 11 12  1  0
 13 14  2  0
 15 16  1  0
 15 13  1  0
 16 21  1  0
 16 17  1  6
 18 17  1  0
 19 20  2  0
 19 18  1  0
 21 24  2  0
 21 22  1  0
 23 19  1  0
M  END
$$$$
