LCE.pdb
     RDKit          3D

 24 23  0  0  1  0  0  0  0  0999 V2000
   26.8234  -14.8494  -15.2555 C   0  0  0  0  0  0  0  0  0  0  0  0
   26.5259  -14.7520  -16.7292 C   0  0  2  0  0  0  0  0  0  0  0  0
   27.8714  -14.8869  -17.4558 C   0  0  0  0  0  0  0  0  0  0  0  0
   25.9541  -13.4320  -17.1264 C   0  0  0  0  0  0  0  0  0  0  0  0
   24.5961  -13.1708  -16.5160 C   0  0  2  0  0  0  0  0  0  0  0  0
   23.7076  -14.2765  -16.6232 N   0  0  0  0  0  0  0  0  0  0  0  0
   23.9667  -11.9507  -17.0637 C   0  0  0  0  0  0  0  0  0  0  0  0
   24.5921  -10.8578  -17.1266 O   0  0  0  0  0  0  0  0  0  0  0  0
   22.6340  -12.0114  -17.5271 N   0  0  0  0  0  0  0  0  0  0  0  0
   21.9355  -10.8839  -18.1509 C   0  0  1  0  0  0  0  0  0  0  0  0
   20.7389  -11.4051  -18.9217 C   0  0  0  0  0  0  0  0  0  0  0  0
   19.7521  -10.0313  -19.5303 S   0  0  0  0  0  0  0  0  0  0  0  0
   21.4468  -10.0374  -17.0446 C   0  0  0  0  0  0  0  0  0  0  0  0
   21.0158  -10.6038  -15.9801 O   0  0  0  0  0  0  0  0  0  0  0  0
   21.4203   -8.6193  -17.0702 N   0  0  0  0  0  0  0  0  0  0  0  0
   20.9781   -7.8714  -15.9036 C   0  0  1  0  0  0  0  0  0  0  0  0
   21.8526   -6.6730  -15.6436 C   0  0  0  0  0  0  0  0  0  0  0  0
   21.4020   -5.8374  -14.4783 C   0  0  0  0  0  0  0  0  0  0  0  0
   22.2727   -4.6405  -14.4305 C   0  0  0  0  0  0  0  0  0  0  0  0
   23.4742   -4.7586  -14.7637 O   0  0  0  0  0  0  0  0  0  0  0  0
   19.5943   -7.3672  -16.0753 C   0  0  0  0  0  0  0  0  0  0  0  0
   18.7223   -7.1266  -15.0243 O   0  0  0  0  0  0  0  0  0  0  0  0
   21.8067   -3.4028  -14.0322 O   0  0  0  0  0  0  0  0  0  0  0  0
   19.1774   -7.1413  -17.2382 O   0  0  0  0  0  0  0  0  0  0  0  0
  2  1  1  1
  2  3  1  0
  4  5  1  0
  4  2  1  0
  5  6  1  6
  5  7  1  0
  7  8  2  0
  9  7  1  0
  9 10  1  0
 10 13  1  0
 10 11  1  1
 11 12  1  0
 13 14  2  0
 15 16  1  0
 15 13  1  0
 16 21  1  0
 16 17  1  6
 18 17  1  0
 19 20  2  0
 19 18  1  0
 21 24  2  0
 21 22  1  0
 23 19  1  0
M  END
$$$$
