LCE.pdb
     RDKit          3D

 24 23  0  0  1  0  0  0  0  0999 V2000
   20.3886  -11.6951  -19.5422 C   0  0  0  0  0  0  0  0  0  0  0  0
   20.5006  -12.5007  -18.2741 C   0  0  2  0  0  0  0  0  0  0  0  0
   19.5733  -13.7123  -18.4434 C   0  0  0  0  0  0  0  0  0  0  0  0
   20.0269  -11.7630  -17.0664 C   0  0  0  0  0  0  0  0  0  0  0  0
   20.7878  -10.4796  -16.8241 C   0  0  2  0  0  0  0  0  0  0  0  0
   22.1374  -10.6905  -16.4273 N   0  0  0  0  0  0  0  0  0  0  0  0
   20.0989   -9.6002  -15.8561 C   0  0  0  0  0  0  0  0  0  0  0  0
   18.9404   -9.8638  -15.4346 O   0  0  0  0  0  0  0  0  0  0  0  0
   20.7544   -8.4380  -15.3932 N   0  0  0  0  0  0  0  0  0  0  0  0
   20.1520   -7.4774  -14.4645 C   0  0  1  0  0  0  0  0  0  0  0  0
   20.1564   -8.0662  -13.0677 C   0  0  0  0  0  0  0  0  0  0  0  0
   21.8304   -8.5206  -12.5958 S   0  0  0  0  0  0  0  0  0  0  0  0
   21.0275   -6.2888  -14.4739 C   0  0  0  0  0  0  0  0  0  0  0  0
   22.2857   -6.4522  -14.6462 O   0  0  0  0  0  0  0  0  0  0  0  0
   20.5727   -4.9556  -14.3065 N   0  0  0  0  0  0  0  0  0  0  0  0
   21.4612   -3.8364  -14.5786 C   0  0  1  0  0  0  0  0  0  0  0  0
   21.3891   -3.4030  -16.0192 C   0  0  0  0  0  0  0  0  0  0  0  0
   22.3141   -2.2672  -16.3557 C   0  0  0  0  0  0  0  0  0  0  0  0
   22.1094   -1.9398  -17.7853 C   0  0  0  0  0  0  0  0  0  0  0  0
   21.8134   -2.8645  -18.5765 O   0  0  0  0  0  0  0  0  0  0  0  0
   21.1125   -2.6544  -13.7540 C   0  0  0  0  0  0  0  0  0  0  0  0
   21.9932   -1.6215  -13.4706 O   0  0  0  0  0  0  0  0  0  0  0  0
   22.2333   -0.6540  -18.2744 O   0  0  0  0  0  0  0  0  0  0  0  0
   19.9526   -2.5743  -13.2792 O   0  0  0  0  0  0  0  0  0  0  0  0
  2  1  1  6
  2  3  1  0
  4  5  1  0
  4  2  1  0
  5  6  1  1
  5  7  1  0
  7  8  2  0
  9  7  1  0
  9 10  1  0
 10 13  1  0
 10 11  1  1
 11 12  1  0
 13 14  2  0
 15 16  1  0
 15 13  1  0
 16 21  1  0
 16 17  1  6
 18 17  1  0
 19 20  2  0
 19 18  1  0
 21 24  2  0
 21 22  1  0
 23 19  1  0
M  END
$$$$
