LCE.pdb
     RDKit          3D

 24 23  0  0  1  0  0  0  0  0999 V2000
   21.7387  -11.7336  -20.0403 C   0  0  0  0  0  0  0  0  0  0  0  0
   20.2580  -11.5419  -19.8394 C   0  0  2  0  0  0  0  0  0  0  0  0
   19.7128  -10.9522  -21.1477 C   0  0  0  0  0  0  0  0  0  0  0  0
   19.9339  -10.5637  -18.7599 C   0  0  0  0  0  0  0  0  0  0  0  0
   20.3585  -11.0377  -17.3888 C   0  0  2  0  0  0  0  0  0  0  0  0
   19.6898  -12.2210  -16.9692 N   0  0  0  0  0  0  0  0  0  0  0  0
   20.2187   -9.9786  -16.3674 C   0  0  0  0  0  0  0  0  0  0  0  0
   19.2011   -9.9074  -15.6267 O   0  0  0  0  0  0  0  0  0  0  0  0
   21.2494   -9.0245  -16.2185 N   0  0  0  0  0  0  0  0  0  0  0  0
   21.1549   -7.8519  -15.3443 C   0  0  1  0  0  0  0  0  0  0  0  0
   22.1584   -7.9899  -14.2167 C   0  0  0  0  0  0  0  0  0  0  0  0
   22.1959   -6.4829  -13.2373 S   0  0  0  0  0  0  0  0  0  0  0  0
   21.5360   -6.6890  -16.1700 C   0  0  0  0  0  0  0  0  0  0  0  0
   22.3954   -6.8530  -17.1050 O   0  0  0  0  0  0  0  0  0  0  0  0
   21.0114   -5.3813  -16.0056 N   0  0  0  0  0  0  0  0  0  0  0  0
   21.4496   -4.2993  -16.8735 C   0  0  1  0  0  0  0  0  0  0  0  0
   21.0472   -4.5341  -18.3058 C   0  0  0  0  0  0  0  0  0  0  0  0
   19.5670   -4.4268  -18.5432 C   0  0  0  0  0  0  0  0  0  0  0  0
   19.3228   -4.7580  -19.9657 C   0  0  0  0  0  0  0  0  0  0  0  0
   20.1882   -5.4181  -20.5854 O   0  0  0  0  0  0  0  0  0  0  0  0
   20.8567   -3.0030  -16.4654 C   0  0  0  0  0  0  0  0  0  0  0  0
   21.2510   -1.7762  -16.9776 O   0  0  0  0  0  0  0  0  0  0  0  0
   18.1774   -4.3653  -20.6302 O   0  0  0  0  0  0  0  0  0  0  0  0
   19.9420   -3.0052  -15.6049 O   0  0  0  0  0  0  0  0  0  0  0  0
  2  1  1  6
  2  3  1  0
  4  5  1  0
  4  2  1  0
  5  6  1  1
  5  7  1  0
  7  8  2  0
  9  7  1  0
  9 10  1  0
 10 13  1  0
 10 11  1  1
 11 12  1  0
 13 14  2  0
 15 16  1  0
 15 13  1  0
 16 21  1  0
 16 17  1  6
 18 17  1  0
 19 20  2  0
 19 18  1  0
 21 24  2  0
 21 22  1  0
 23 19  1  0
M  END
$$$$
