LCE.pdb
     RDKit          3D

 24 23  0  0  1  0  0  0  0  0999 V2000
   19.7550  -10.8958  -20.8954 C   0  0  0  0  0  0  0  0  0  0  0  0
   18.5359  -10.6192  -20.0547 C   0  0  2  0  0  0  0  0  0  0  0  0
   17.6730   -9.6292  -20.8496 C   0  0  0  0  0  0  0  0  0  0  0  0
   18.8568   -9.9610  -18.7543 C   0  0  0  0  0  0  0  0  0  0  0  0
   19.6425  -10.8531  -17.8207 C   0  0  2  0  0  0  0  0  0  0  0  0
   18.9499  -12.0424  -17.4613 N   0  0  0  0  0  0  0  0  0  0  0  0
   20.0895  -10.1328  -16.6099 C   0  0  0  0  0  0  0  0  0  0  0  0
   19.2928   -9.8658  -15.6700 O   0  0  0  0  0  0  0  0  0  0  0  0
   21.4404   -9.7348  -16.5042 N   0  0  0  0  0  0  0  0  0  0  0  0
   21.9853   -8.9943  -15.3628 C   0  0  1  0  0  0  0  0  0  0  0  0
   23.4317   -9.3965  -15.1536 C   0  0  0  0  0  0  0  0  0  0  0  0
   23.5408  -10.6680  -13.8875 S   0  0  0  0  0  0  0  0  0  0  0  0
   21.9462   -7.5674  -15.7391 C   0  0  0  0  0  0  0  0  0  0  0  0
   21.8279   -7.2600  -16.9765 O   0  0  0  0  0  0  0  0  0  0  0  0
   22.0283   -6.4917  -14.8179 N   0  0  0  0  0  0  0  0  0  0  0  0
   21.8115   -5.1242  -15.2639 C   0  0  1  0  0  0  0  0  0  0  0  0
   20.4450   -4.9444  -15.8711 C   0  0  0  0  0  0  0  0  0  0  0  0
   20.1990   -3.5621  -16.4076 C   0  0  0  0  0  0  0  0  0  0  0  0
   18.8232   -3.5393  -16.9548 C   0  0  0  0  0  0  0  0  0  0  0  0
   18.0334   -2.6526  -16.5565 O   0  0  0  0  0  0  0  0  0  0  0  0
   21.9135   -4.1643  -14.1383 C   0  0  0  0  0  0  0  0  0  0  0  0
   22.3109   -2.8435  -14.2812 O   0  0  0  0  0  0  0  0  0  0  0  0
   18.3826   -4.4592  -17.8862 O   0  0  0  0  0  0  0  0  0  0  0  0
   21.6250   -4.5613  -12.9823 O   0  0  0  0  0  0  0  0  0  0  0  0
  2  1  1  6
  2  3  1  0
  4  5  1  0
  4  2  1  0
  5  6  1  1
  5  7  1  0
  7  8  2  0
  9  7  1  0
  9 10  1  0
 10 13  1  0
 10 11  1  6
 11 12  1  0
 13 14  2  0
 15 16  1  0
 15 13  1  0
 16 21  1  0
 16 17  1  1
 18 17  1  0
 19 20  2  0
 19 18  1  0
 21 24  2  0
 21 22  1  0
 23 19  1  0
M  END
$$$$
