LCE.pdb
     RDKit          3D

 24 23  0  0  1  0  0  0  0  0999 V2000
   20.4773  -15.9509  -16.6386 C   0  0  0  0  0  0  0  0  0  0  0  0
   21.8517  -16.3518  -17.1073 C   0  0  2  0  0  0  0  0  0  0  0  0
   21.8248  -17.8764  -17.2849 C   0  0  0  0  0  0  0  0  0  0  0  0
   22.9217  -16.0547  -16.1103 C   0  0  0  0  0  0  0  0  0  0  0  0
   24.1604  -15.4560  -16.7365 C   0  0  2  0  0  0  0  0  0  0  0  0
   25.2660  -16.3505  -16.7657 N   0  0  0  0  0  0  0  0  0  0  0  0
   24.5467  -14.1821  -16.0943 C   0  0  0  0  0  0  0  0  0  0  0  0
   24.9724  -14.1443  -14.9083 O   0  0  0  0  0  0  0  0  0  0  0  0
   24.4360  -12.9797  -16.8269 N   0  0  0  0  0  0  0  0  0  0  0  0
   24.8300  -11.6679  -16.3053 C   0  0  1  0  0  0  0  0  0  0  0  0
   26.2284  -11.3395  -16.7895 C   0  0  0  0  0  0  0  0  0  0  0  0
   27.4486  -12.0810  -15.6973 S   0  0  0  0  0  0  0  0  0  0  0  0
   23.8907  -10.6912  -16.8910 C   0  0  0  0  0  0  0  0  0  0  0  0
   23.2530  -11.0115  -17.9542 O   0  0  0  0  0  0  0  0  0  0  0  0
   23.6341   -9.4032  -16.3547 N   0  0  0  0  0  0  0  0  0  0  0  0
   22.6919   -8.5090  -17.0095 C   0  0  1  0  0  0  0  0  0  0  0  0
   22.4598   -7.2562  -16.2063 C   0  0  0  0  0  0  0  0  0  0  0  0
   21.8027   -7.5034  -14.8774 C   0  0  0  0  0  0  0  0  0  0  0  0
   21.6863   -6.1957  -14.1924 C   0  0  0  0  0  0  0  0  0  0  0  0
   22.6193   -5.8253  -13.4434 O   0  0  0  0  0  0  0  0  0  0  0  0
   23.1850   -8.0828  -18.3414 C   0  0  0  0  0  0  0  0  0  0  0  0
   22.3712   -7.9210  -19.4525 O   0  0  0  0  0  0  0  0  0  0  0  0
   20.5879   -5.3733  -14.3506 O   0  0  0  0  0  0  0  0  0  0  0  0
   24.4114   -7.8521  -18.4823 O   0  0  0  0  0  0  0  0  0  0  0  0
  2  1  1  1
  2  3  1  0
  4  5  1  0
  4  2  1  0
  5  6  1  1
  5  7  1  0
  7  8  2  0
  9  7  1  0
  9 10  1  0
 10 13  1  0
 10 11  1  6
 11 12  1  0
 13 14  2  0
 15 16  1  0
 15 13  1  0
 16 21  1  0
 16 17  1  1
 18 17  1  0
 19 20  2  0
 19 18  1  0
 21 24  2  0
 21 22  1  0
 23 19  1  0
M  END
$$$$
