LCE.pdb
     RDKit          3D

 24 23  0  0  1  0  0  0  0  0999 V2000
   27.3396  -13.4109  -15.3938 C   0  0  0  0  0  0  0  0  0  0  0  0
   27.7402  -12.7227  -16.6727 C   0  0  2  0  0  0  0  0  0  0  0  0
   29.0631  -11.9997  -16.3834 C   0  0  0  0  0  0  0  0  0  0  0  0
   26.7665  -11.6785  -17.1071 C   0  0  0  0  0  0  0  0  0  0  0  0
   25.4004  -12.2426  -17.4243 C   0  0  2  0  0  0  0  0  0  0  0  0
   25.4331  -13.2946  -18.3812 N   0  0  0  0  0  0  0  0  0  0  0  0
   24.4507  -11.1921  -17.8475 C   0  0  0  0  0  0  0  0  0  0  0  0
   24.4029  -10.7887  -19.0410 O   0  0  0  0  0  0  0  0  0  0  0  0
   23.5769  -10.6276  -16.8923 N   0  0  0  0  0  0  0  0  0  0  0  0
   22.5854   -9.5944  -17.2043 C   0  0  1  0  0  0  0  0  0  0  0  0
   21.1951  -10.1554  -16.9803 C   0  0  0  0  0  0  0  0  0  0  0  0
   19.9697   -8.8510  -17.1496 S   0  0  0  0  0  0  0  0  0  0  0  0
   22.8099   -8.5009  -16.2384 C   0  0  0  0  0  0  0  0  0  0  0  0
   22.9760   -8.7950  -15.0032 O   0  0  0  0  0  0  0  0  0  0  0  0
   22.8592   -7.1251  -16.5806 N   0  0  0  0  0  0  0  0  0  0  0  0
   23.1934   -6.1292  -15.5744 C   0  0  1  0  0  0  0  0  0  0  0  0
   23.8779   -4.9316  -16.1791 C   0  0  0  0  0  0  0  0  0  0  0  0
   25.1706   -5.2601  -16.8718 C   0  0  0  0  0  0  0  0  0  0  0  0
   25.7141   -3.9946  -17.4158 C   0  0  0  0  0  0  0  0  0  0  0  0
   25.0979   -2.9287  -17.1857 O   0  0  0  0  0  0  0  0  0  0  0  0
   21.9809   -5.6297  -14.8822 C   0  0  0  0  0  0  0  0  0  0  0  0
   22.0017   -4.9760  -13.6595 O   0  0  0  0  0  0  0  0  0  0  0  0
   26.8731   -3.9495  -18.1657 O   0  0  0  0  0  0  0  0  0  0  0  0
   20.8632   -5.8042  -15.4276 O   0  0  0  0  0  0  0  0  0  0  0  0
  2  1  1  1
  2  3  1  0
  4  5  1  0
  4  2  1  0
  5  6  1  6
  5  7  1  0
  7  8  2  0
  9  7  1  0
  9 10  1  0
 10 13  1  0
 10 11  1  1
 11 12  1  0
 13 14  2  0
 15 16  1  0
 15 13  1  0
 16 21  1  0
 16 17  1  6
 18 17  1  0
 19 20  2  0
 19 18  1  0
 21 24  2  0
 21 22  1  0
 23 19  1  0
M  END
$$$$
