GHD.pdb
     RDKit          3D

 23 23  0  0  1  0  0  0  0  0999 V2000
   10.2739  -18.3907   16.5527 N   0  0  0  0  0  0  0  0  0  0  0  0
    9.9104  -18.6938   17.9174 C   0  0  0  0  0  0  0  0  0  0  0  0
   10.4395  -17.6909   18.8762 C   0  0  0  0  0  0  0  0  0  0  0  0
   11.6278  -17.2865   18.6375 O   0  0  0  0  0  0  0  0  0  0  0  0
    9.6838  -17.2289   19.9587 N   0  0  0  0  0  0  0  0  0  0  0  0
   10.1797  -16.1697   20.8356 C   0  0  1  0  0  0  0  0  0  0  0  0
    9.0974  -15.5554   21.6331 C   0  0  0  0  0  0  0  0  0  0  0  0
    8.1517  -14.6872   20.8990 C   0  0  0  0  0  0  0  0  0  0  0  0
    6.8253  -14.8735   20.6595 C   0  0  0  0  0  0  0  0  0  0  0  0
    6.3455  -13.7735   20.0031 N   0  0  0  0  0  0  0  0  0  0  0  0
    7.3819  -12.9501   19.8613 C   0  0  0  0  0  0  0  0  0  0  0  0
    8.4787  -13.4594   20.3836 N   0  0  0  0  0  0  0  0  0  0  0  0
   11.0860  -16.8717   21.8354 C   0  0  0  0  0  0  0  0  0  0  0  0
   10.9279  -18.0427   22.2021 O   0  0  0  0  0  0  0  0  0  0  0  0
   12.1890  -16.1732   22.4028 N   0  0  0  0  0  0  0  0  0  0  0  0
   13.2139  -16.8273   23.2170 C   0  0  1  0  0  0  0  0  0  0  0  0
   14.4586  -15.9916   23.0325 C   0  0  0  0  0  0  0  0  0  0  0  0
   15.6299  -16.4419   23.7773 C   0  0  0  0  0  0  0  0  0  0  0  0
   15.8646  -17.6189   24.1252 O   0  0  0  0  0  0  0  0  0  0  0  0
   12.7869  -16.7108   24.6265 C   0  0  0  0  0  0  0  0  0  0  0  0
   11.6493  -15.9840   24.9245 O   0  0  0  0  0  0  0  0  0  0  0  0
   16.5695  -15.4448   24.1262 O   0  0  0  0  0  0  0  0  0  0  0  0
   13.4028  -17.2369   25.5658 O   0  0  0  0  0  0  0  0  0  0  0  0
  2  3  1  0
  2  1  1  0
  3  5  1  0
  4  3  2  0
  5  6  1  0
  6  7  1  1
  6 13  1  0
  8  9  2  0
  8  7  1  0
 10  9  1  0
 11 12  2  0
 11 10  1  0
 12  8  1  0
 13 14  2  0
 13 15  1  0
 15 16  1  0
 16 17  1  1
 17 18  1  0
 18 22  1  0
 19 18  2  0
 20 21  1  0
 20 16  1  0
 23 20  2  0
M  END
$$$$
