GHD.pdb
     RDKit          3D

 23 23  0  0  1  0  0  0  0  0999 V2000
   14.3462  -15.6770   14.2753 N   0  0  0  0  0  0  0  0  0  0  0  0
   13.3166  -16.3648   15.0190 C   0  0  0  0  0  0  0  0  0  0  0  0
   12.7511  -15.5247   16.1050 C   0  0  0  0  0  0  0  0  0  0  0  0
   13.5840  -14.7397   16.6731 O   0  0  0  0  0  0  0  0  0  0  0  0
   11.4033  -15.5952   16.4718 N   0  0  0  0  0  0  0  0  0  0  0  0
   10.8839  -14.8379   17.6092 C   0  0  1  0  0  0  0  0  0  0  0  0
    9.4062  -14.8176   17.6360 C   0  0  0  0  0  0  0  0  0  0  0  0
    8.7792  -14.0261   18.7165 C   0  0  0  0  0  0  0  0  0  0  0  0
    9.1133  -12.7911   19.1796 C   0  0  0  0  0  0  0  0  0  0  0  0
    8.2078  -12.4290   20.1388 N   0  0  0  0  0  0  0  0  0  0  0  0
    7.3503  -13.4428   20.2348 C   0  0  0  0  0  0  0  0  0  0  0  0
    7.6572  -14.4159   19.4015 N   0  0  0  0  0  0  0  0  0  0  0  0
   11.3115  -15.6233   18.8396 C   0  0  0  0  0  0  0  0  0  0  0  0
   11.3865  -16.8578   18.8752 O   0  0  0  0  0  0  0  0  0  0  0  0
   11.6523  -14.9328   20.0370 N   0  0  0  0  0  0  0  0  0  0  0  0
   12.1106  -15.6143   21.2480 C   0  0  1  0  0  0  0  0  0  0  0  0
   13.2372  -14.7604   21.7801 C   0  0  0  0  0  0  0  0  0  0  0  0
   14.5331  -14.9667   21.1417 C   0  0  0  0  0  0  0  0  0  0  0  0
   14.9957  -16.0660   20.7691 O   0  0  0  0  0  0  0  0  0  0  0  0
   10.9986  -15.5655   22.2195 C   0  0  0  0  0  0  0  0  0  0  0  0
   11.0804  -16.3263   23.3709 O   0  0  0  0  0  0  0  0  0  0  0  0
   15.3189  -13.8096   20.9354 O   0  0  0  0  0  0  0  0  0  0  0  0
    9.9851  -14.8700   22.0535 O   0  0  0  0  0  0  0  0  0  0  0  0
  2  3  1  0
  2  1  1  0
  3  5  1  0
  4  3  2  0
  5  6  1  0
  6  7  1  6
  6 13  1  0
  8  9  2  0
  8  7  1  0
 10  9  1  0
 11 12  2  0
 11 10  1  0
 12  8  1  0
 13 14  2  0
 13 15  1  0
 15 16  1  0
 16 17  1  1
 17 18  1  0
 18 22  1  0
 19 18  2  0
 20 21  1  0
 20 16  1  0
 23 20  2  0
M  END
$$$$
