GHD.pdb
     RDKit          3D

 23 23  0  0  1  0  0  0  0  0999 V2000
   10.0795  -18.2680   16.8100 N   0  0  0  0  0  0  0  0  0  0  0  0
    9.8374  -18.5236   18.2109 C   0  0  0  0  0  0  0  0  0  0  0  0
   10.2936  -17.4043   19.0735 C   0  0  0  0  0  0  0  0  0  0  0  0
   11.3934  -16.8592   18.7184 O   0  0  0  0  0  0  0  0  0  0  0  0
    9.5650  -16.9849   20.1913 N   0  0  0  0  0  0  0  0  0  0  0  0
   10.0889  -15.9701   21.1038 C   0  0  1  0  0  0  0  0  0  0  0  0
    9.0212  -15.1009   21.6415 C   0  0  0  0  0  0  0  0  0  0  0  0
    8.2829  -14.2810   20.6568 C   0  0  0  0  0  0  0  0  0  0  0  0
    8.6289  -13.0872   20.1032 C   0  0  0  0  0  0  0  0  0  0  0  0
    7.6724  -12.7409   19.1886 N   0  0  0  0  0  0  0  0  0  0  0  0
    6.7754  -13.7244   19.2060 C   0  0  0  0  0  0  0  0  0  0  0  0
    7.1043  -14.6632   20.0695 N   0  0  0  0  0  0  0  0  0  0  0  0
   10.6320  -16.7464   22.2937 C   0  0  0  0  0  0  0  0  0  0  0  0
   10.2066  -17.8544   22.6436 O   0  0  0  0  0  0  0  0  0  0  0  0
   11.6899  -16.1987   23.0730 N   0  0  0  0  0  0  0  0  0  0  0  0
   12.3616  -16.9410   24.1402 C   0  0  1  0  0  0  0  0  0  0  0  0
   13.6844  -16.2392   24.3382 C   0  0  0  0  0  0  0  0  0  0  0  0
   14.6067  -16.3139   23.2100 C   0  0  0  0  0  0  0  0  0  0  0  0
   14.7731  -17.3059   22.4686 O   0  0  0  0  0  0  0  0  0  0  0  0
   11.5572  -16.7601   25.3661 C   0  0  0  0  0  0  0  0  0  0  0  0
   10.4724  -15.9037   25.3358 O   0  0  0  0  0  0  0  0  0  0  0  0
   15.3696  -15.1524   22.9489 O   0  0  0  0  0  0  0  0  0  0  0  0
   11.8078  -17.3428   26.4320 O   0  0  0  0  0  0  0  0  0  0  0  0
  2  3  1  0
  2  1  1  0
  3  5  1  0
  4  3  2  0
  5  6  1  0
  6  7  1  1
  6 13  1  0
  8  9  2  0
  8  7  1  0
 10  9  1  0
 11 12  2  0
 11 10  1  0
 12  8  1  0
 13 14  2  0
 13 15  1  0
 15 16  1  0
 16 17  1  1
 17 18  1  0
 18 22  1  0
 19 18  2  0
 20 21  1  0
 20 16  1  0
 23 20  2  0
M  END
$$$$
