GHD.pdb
     RDKit          3D

 23 23  0  0  1  0  0  0  0  0999 V2000
    8.2943  -19.1651   17.4127 N   0  0  0  0  0  0  0  0  0  0  0  0
    8.1804  -19.1738   18.8526 C   0  0  0  0  0  0  0  0  0  0  0  0
    8.9673  -18.0851   19.4854 C   0  0  0  0  0  0  0  0  0  0  0  0
    9.9808  -17.6886   18.8159 O   0  0  0  0  0  0  0  0  0  0  0  0
    8.6160  -17.5399   20.7246 N   0  0  0  0  0  0  0  0  0  0  0  0
    9.4569  -16.5412   21.3822 C   0  0  1  0  0  0  0  0  0  0  0  0
    8.6880  -15.3451   21.7857 C   0  0  0  0  0  0  0  0  0  0  0  0
    8.3049  -14.4139   20.7026 C   0  0  0  0  0  0  0  0  0  0  0  0
    8.5855  -14.4826   19.3730 C   0  0  0  0  0  0  0  0  0  0  0  0
    7.9631  -13.4390   18.7448 N   0  0  0  0  0  0  0  0  0  0  0  0
    7.3227  -12.7663   19.6986 C   0  0  0  0  0  0  0  0  0  0  0  0
    7.5017  -13.3171   20.8818 N   0  0  0  0  0  0  0  0  0  0  0  0
    9.9162  -17.1964   22.6758 C   0  0  0  0  0  0  0  0  0  0  0  0
    9.1449  -17.6923   23.5065 O   0  0  0  0  0  0  0  0  0  0  0  0
   11.3049  -17.2611   22.9823 N   0  0  0  0  0  0  0  0  0  0  0  0
   11.8290  -17.9360   24.1701 C   0  0  1  0  0  0  0  0  0  0  0  0
   13.1760  -18.4786   23.7547 C   0  0  0  0  0  0  0  0  0  0  0  0
   13.1457  -19.4858   22.6992 C   0  0  0  0  0  0  0  0  0  0  0  0
   12.3806  -20.4727   22.6548 O   0  0  0  0  0  0  0  0  0  0  0  0
   12.0489  -16.8968   25.1969 C   0  0  0  0  0  0  0  0  0  0  0  0
   12.3650  -17.2840   26.4858 O   0  0  0  0  0  0  0  0  0  0  0  0
   14.0702  -19.3123   21.6436 O   0  0  0  0  0  0  0  0  0  0  0  0
   11.9637  -15.6823   24.9596 O   0  0  0  0  0  0  0  0  0  0  0  0
  2  3  1  0
  2  1  1  0
  3  5  1  0
  4  3  2  0
  5  6  1  0
  6  7  1  1
  6 13  1  0
  8  9  2  0
  8  7  1  0
 10  9  1  0
 11 12  2  0
 11 10  1  0
 12  8  1  0
 13 14  2  0
 13 15  1  0
 15 16  1  0
 16 17  1  6
 17 18  1  0
 18 22  1  0
 19 18  2  0
 20 21  1  0
 20 16  1  0
 23 20  2  0
M  END
$$$$
