GHD.pdb
     RDKit          3D

 23 23  0  0  1  0  0  0  0  0999 V2000
    8.9850  -18.8475   15.7282 N   0  0  0  0  0  0  0  0  0  0  0  0
    9.1605  -19.3534   17.0697 C   0  0  0  0  0  0  0  0  0  0  0  0
    9.8094  -18.3616   17.9642 C   0  0  0  0  0  0  0  0  0  0  0  0
   11.0608  -18.1925   17.7694 O   0  0  0  0  0  0  0  0  0  0  0  0
    9.0937  -17.6681   18.9456 N   0  0  0  0  0  0  0  0  0  0  0  0
    9.7642  -16.7692   19.8833 C   0  0  1  0  0  0  0  0  0  0  0  0
    8.8080  -15.9003   20.6013 C   0  0  0  0  0  0  0  0  0  0  0  0
    8.1892  -14.8122   19.8136 C   0  0  0  0  0  0  0  0  0  0  0  0
    8.4388  -14.4330   18.5310 C   0  0  0  0  0  0  0  0  0  0  0  0
    7.5749  -13.4248   18.2020 N   0  0  0  0  0  0  0  0  0  0  0  0
    6.8253  -13.2171   19.2823 C   0  0  0  0  0  0  0  0  0  0  0  0
    7.1610  -14.0261   20.2663 N   0  0  0  0  0  0  0  0  0  0  0  0
   10.3743  -17.6779   20.9394 C   0  0  0  0  0  0  0  0  0  0  0  0
   10.0381  -18.8565   21.1094 O   0  0  0  0  0  0  0  0  0  0  0  0
   11.3927  -17.1789   21.7999 N   0  0  0  0  0  0  0  0  0  0  0  0
   12.2155  -18.0429   22.6470 C   0  0  1  0  0  0  0  0  0  0  0  0
   13.1061  -18.8015   21.6915 C   0  0  0  0  0  0  0  0  0  0  0  0
   14.0443  -19.7294   22.3145 C   0  0  0  0  0  0  0  0  0  0  0  0
   14.1880  -19.9059   23.5431 O   0  0  0  0  0  0  0  0  0  0  0  0
   13.0690  -17.1592   23.4674 C   0  0  0  0  0  0  0  0  0  0  0  0
   13.0895  -15.8042   23.1938 O   0  0  0  0  0  0  0  0  0  0  0  0
   14.8523  -20.4855   21.4344 O   0  0  0  0  0  0  0  0  0  0  0  0
   13.7754  -17.5746   24.3985 O   0  0  0  0  0  0  0  0  0  0  0  0
  2  3  1  0
  2  1  1  0
  3  5  1  0
  4  3  2  0
  5  6  1  0
  6  7  1  1
  6 13  1  0
  8  9  2  0
  8  7  1  0
 10  9  1  0
 11 12  2  0
 11 10  1  0
 12  8  1  0
 13 14  2  0
 13 15  1  0
 15 16  1  0
 16 17  1  6
 17 18  1  0
 18 22  1  0
 19 18  2  0
 20 21  1  0
 20 16  1  0
 23 20  2  0
M  END
$$$$
