GHD.pdb
     RDKit          3D

 23 23  0  0  1  0  0  0  0  0999 V2000
    8.9183  -14.6148   12.6255 N   0  0  0  0  0  0  0  0  0  0  0  0
    8.7122  -15.4120   13.8122 C   0  0  0  0  0  0  0  0  0  0  0  0
    8.9899  -14.6503   15.0563 C   0  0  0  0  0  0  0  0  0  0  0  0
   10.0725  -13.9718   15.0467 O   0  0  0  0  0  0  0  0  0  0  0  0
    8.1228  -14.6803   16.1534 N   0  0  0  0  0  0  0  0  0  0  0  0
    8.5039  -14.1005   17.4401 C   0  0  1  0  0  0  0  0  0  0  0  0
    7.4013  -14.1543   18.4230 C   0  0  0  0  0  0  0  0  0  0  0  0
    7.7184  -13.6943   19.7923 C   0  0  0  0  0  0  0  0  0  0  0  0
    7.8188  -12.4238   20.2687 C   0  0  0  0  0  0  0  0  0  0  0  0
    8.0588  -12.4838   21.6140 N   0  0  0  0  0  0  0  0  0  0  0  0
    8.0968  -13.7783   21.9223 C   0  0  0  0  0  0  0  0  0  0  0  0
    7.8975  -14.5337   20.8616 N   0  0  0  0  0  0  0  0  0  0  0  0
    9.5905  -15.0157   17.9835 C   0  0  0  0  0  0  0  0  0  0  0  0
    9.7028  -16.2083   17.6739 O   0  0  0  0  0  0  0  0  0  0  0  0
   10.5505  -14.5063   18.9029 N   0  0  0  0  0  0  0  0  0  0  0  0
   11.7458  -15.2501   19.3020 C   0  0  1  0  0  0  0  0  0  0  0  0
   12.9098  -14.3939   18.8621 C   0  0  0  0  0  0  0  0  0  0  0  0
   14.2313  -14.9221   19.1844 C   0  0  0  0  0  0  0  0  0  0  0  0
   14.4616  -15.9873   19.7957 O   0  0  0  0  0  0  0  0  0  0  0  0
   11.7483  -15.3058   20.7784 C   0  0  0  0  0  0  0  0  0  0  0  0
   10.7406  -14.6653   21.4752 O   0  0  0  0  0  0  0  0  0  0  0  0
   15.3345  -14.1467   18.7594 O   0  0  0  0  0  0  0  0  0  0  0  0
   12.6170  -15.9036   21.4315 O   0  0  0  0  0  0  0  0  0  0  0  0
  2  3  1  0
  2  1  1  0
  3  5  1  0
  4  3  2  0
  5  6  1  0
  6  7  1  1
  6 13  1  0
  8  9  2  0
  8  7  1  0
 10  9  1  0
 11 12  2  0
 11 10  1  0
 12  8  1  0
 13 14  2  0
 13 15  1  0
 15 16  1  0
 16 17  1  1
 17 18  1  0
 18 22  1  0
 19 18  2  0
 20 21  1  0
 20 16  1  0
 23 20  2  0
M  END
$$$$
