GHD.pdb
     RDKit          3D

 23 23  0  0  1  0  0  0  0  0999 V2000
    9.8203  -19.1063   17.2076 N   0  0  0  0  0  0  0  0  0  0  0  0
    9.9112  -19.3693   18.6250 C   0  0  0  0  0  0  0  0  0  0  0  0
   10.4041  -18.1924   19.3847 C   0  0  0  0  0  0  0  0  0  0  0  0
   11.6267  -17.8853   19.1760 O   0  0  0  0  0  0  0  0  0  0  0  0
    9.5817  -17.4787   20.2624 N   0  0  0  0  0  0  0  0  0  0  0  0
   10.1000  -16.3646   21.0542 C   0  0  1  0  0  0  0  0  0  0  0  0
    9.0194  -15.4955   21.5659 C   0  0  0  0  0  0  0  0  0  0  0  0
    8.3486  -14.6276   20.5740 C   0  0  0  0  0  0  0  0  0  0  0  0
    8.6094  -14.4815   19.2466 C   0  0  0  0  0  0  0  0  0  0  0  0
    7.6860  -13.6231   18.7161 N   0  0  0  0  0  0  0  0  0  0  0  0
    6.8908  -13.2713   19.7241 C   0  0  0  0  0  0  0  0  0  0  0  0
    7.2534  -13.8503   20.8504 N   0  0  0  0  0  0  0  0  0  0  0  0
   10.7327  -17.0066   22.2793 C   0  0  0  0  0  0  0  0  0  0  0  0
   10.3557  -18.0805   22.7645 O   0  0  0  0  0  0  0  0  0  0  0  0
   11.8229  -16.3644   22.9316 N   0  0  0  0  0  0  0  0  0  0  0  0
   12.5163  -16.9428   24.0830 C   0  0  1  0  0  0  0  0  0  0  0  0
   13.7980  -16.1536   24.2103 C   0  0  0  0  0  0  0  0  0  0  0  0
   14.7812  -16.3842   23.1570 C   0  0  0  0  0  0  0  0  0  0  0  0
   15.2657  -17.4920   22.8415 O   0  0  0  0  0  0  0  0  0  0  0  0
   11.6857  -16.6653   25.2729 C   0  0  0  0  0  0  0  0  0  0  0  0
   12.0494  -17.2160   26.4877 O   0  0  0  0  0  0  0  0  0  0  0  0
   15.2106  -15.2422   22.4426 O   0  0  0  0  0  0  0  0  0  0  0  0
   10.6684  -15.9565   25.2377 O   0  0  0  0  0  0  0  0  0  0  0  0
  2  3  1  0
  2  1  1  0
  3  5  1  0
  4  3  2  0
  5  6  1  0
  6  7  1  1
  6 13  1  0
  8  9  2  0
  8  7  1  0
 10  9  1  0
 11 12  2  0
 11 10  1  0
 12  8  1  0
 13 14  2  0
 13 15  1  0
 15 16  1  0
 16 17  1  1
 17 18  1  0
 18 22  1  0
 19 18  2  0
 20 21  1  0
 20 16  1  0
 23 20  2  0
M  END
$$$$
