GHD.pdb
     RDKit          3D

 23 23  0  0  1  0  0  0  0  0999 V2000
    7.2306  -19.3749   16.2357 N   0  0  0  0  0  0  0  0  0  0  0  0
    7.4050  -19.4554   17.6673 C   0  0  0  0  0  0  0  0  0  0  0  0
    8.3822  -18.4575   18.1716 C   0  0  0  0  0  0  0  0  0  0  0  0
    9.3627  -18.2150   17.3890 O   0  0  0  0  0  0  0  0  0  0  0  0
    8.2311  -17.8341   19.4145 N   0  0  0  0  0  0  0  0  0  0  0  0
    9.2585  -16.9411   19.9473 C   0  0  1  0  0  0  0  0  0  0  0  0
    8.6753  -15.7803   20.6525 C   0  0  0  0  0  0  0  0  0  0  0  0
    8.1572  -14.6870   19.8020 C   0  0  0  0  0  0  0  0  0  0  0  0
    8.2218  -14.5478   18.4500 C   0  0  0  0  0  0  0  0  0  0  0  0
    7.5432  -13.4132   18.0989 N   0  0  0  0  0  0  0  0  0  0  0  0
    7.0840  -12.8941   19.2355 C   0  0  0  0  0  0  0  0  0  0  0  0
    7.4293  -13.6257   20.2752 N   0  0  0  0  0  0  0  0  0  0  0  0
    9.9805  -17.7540   21.0109 C   0  0  0  0  0  0  0  0  0  0  0  0
    9.4354  -18.6291   21.6950 O   0  0  0  0  0  0  0  0  0  0  0  0
   11.3626  -17.5227   21.2617 N   0  0  0  0  0  0  0  0  0  0  0  0
   12.1433  -18.3117   22.2152 C   0  0  1  0  0  0  0  0  0  0  0  0
   13.5866  -18.0684   21.8418 C   0  0  0  0  0  0  0  0  0  0  0  0
   13.9730  -18.5231   20.5102 C   0  0  0  0  0  0  0  0  0  0  0  0
   13.6107  -19.5903   19.9704 O   0  0  0  0  0  0  0  0  0  0  0  0
   11.9102  -17.7291   23.5527 C   0  0  0  0  0  0  0  0  0  0  0  0
   12.3982  -18.3884   24.6655 O   0  0  0  0  0  0  0  0  0  0  0  0
   14.8324  -17.6678   19.7830 O   0  0  0  0  0  0  0  0  0  0  0  0
   11.2927  -16.6682   23.7304 O   0  0  0  0  0  0  0  0  0  0  0  0
  2  3  1  0
  2  1  1  0
  3  5  1  0
  4  3  2  0
  5  6  1  0
  6  7  1  1
  6 13  1  0
  8  9  2  0
  8  7  1  0
 10  9  1  0
 11 12  2  0
 11 10  1  0
 12  8  1  0
 13 14  2  0
 13 15  1  0
 15 16  1  0
 16 17  1  6
 17 18  1  0
 18 22  1  0
 19 18  2  0
 20 21  1  0
 20 16  1  0
 23 20  2  0
M  END
$$$$
