GHD.pdb
     RDKit          3D

 23 23  0  0  1  0  0  0  0  0999 V2000
   12.1012  -17.8093   16.3891 N   0  0  0  0  0  0  0  0  0  0  0  0
   11.1283  -17.9735   17.4440 C   0  0  0  0  0  0  0  0  0  0  0  0
   11.3140  -16.9873   18.5385 C   0  0  0  0  0  0  0  0  0  0  0  0
   12.3349  -16.2286   18.4176 O   0  0  0  0  0  0  0  0  0  0  0  0
   10.4297  -16.9032   19.6189 N   0  0  0  0  0  0  0  0  0  0  0  0
   10.5909  -15.8861   20.6563 C   0  0  1  0  0  0  0  0  0  0  0  0
    9.2923  -15.4330   21.1979 C   0  0  0  0  0  0  0  0  0  0  0  0
    8.5106  -14.5111   20.3458 C   0  0  0  0  0  0  0  0  0  0  0  0
    8.8253  -13.9947   19.1270 C   0  0  0  0  0  0  0  0  0  0  0  0
    7.7673  -13.2473   18.6874 N   0  0  0  0  0  0  0  0  0  0  0  0
    6.8410  -13.3272   19.6402 C   0  0  0  0  0  0  0  0  0  0  0  0
    7.2466  -14.0732   20.6472 N   0  0  0  0  0  0  0  0  0  0  0  0
   11.2954  -16.5946   21.8032 C   0  0  0  0  0  0  0  0  0  0  0  0
   11.1006  -17.7793   22.1024 O   0  0  0  0  0  0  0  0  0  0  0  0
   12.2391  -15.8865   22.5998 N   0  0  0  0  0  0  0  0  0  0  0  0
   13.0205  -16.5198   23.6625 C   0  0  1  0  0  0  0  0  0  0  0  0
   14.1908  -15.5943   23.8981 C   0  0  0  0  0  0  0  0  0  0  0  0
   15.5081  -16.2136   23.7952 C   0  0  0  0  0  0  0  0  0  0  0  0
   15.8716  -17.0105   22.9041 O   0  0  0  0  0  0  0  0  0  0  0  0
   12.1806  -16.5172   24.8779 C   0  0  0  0  0  0  0  0  0  0  0  0
   12.4901  -17.3850   25.9086 O   0  0  0  0  0  0  0  0  0  0  0  0
   16.4403  -15.8694   24.8009 O   0  0  0  0  0  0  0  0  0  0  0  0
   11.2020  -15.7690   25.0225 O   0  0  0  0  0  0  0  0  0  0  0  0
  2  3  1  0
  2  1  1  0
  3  5  1  0
  4  3  2  0
  5  6  1  0
  6  7  1  1
  6 13  1  0
  8  9  2  0
  8  7  1  0
 10  9  1  0
 11 12  2  0
 11 10  1  0
 12  8  1  0
 13 14  2  0
 13 15  1  0
 15 16  1  0
 16 17  1  1
 17 18  1  0
 18 22  1  0
 19 18  2  0
 20 21  1  0
 20 16  1  0
 23 20  2  0
M  END
$$$$
