GHD.pdb
     RDKit          3D

 23 23  0  0  1  0  0  0  0  0999 V2000
    9.1505  -19.2078   16.2002 N   0  0  0  0  0  0  0  0  0  0  0  0
    8.5361  -19.0713   17.5003 C   0  0  0  0  0  0  0  0  0  0  0  0
    9.2357  -18.0754   18.3510 C   0  0  0  0  0  0  0  0  0  0  0  0
   10.2964  -17.5769   17.8420 O   0  0  0  0  0  0  0  0  0  0  0  0
    8.7599  -17.7159   19.6161 N   0  0  0  0  0  0  0  0  0  0  0  0
    9.5211  -16.8252   20.4902 C   0  0  1  0  0  0  0  0  0  0  0  0
    8.6764  -15.7601   21.0708 C   0  0  0  0  0  0  0  0  0  0  0  0
    8.2496  -14.6845   20.1500 C   0  0  0  0  0  0  0  0  0  0  0  0
    8.5596  -14.5060   18.8372 C   0  0  0  0  0  0  0  0  0  0  0  0
    7.8775  -13.4136   18.3762 N   0  0  0  0  0  0  0  0  0  0  0  0
    7.1733  -12.9579   19.4100 C   0  0  0  0  0  0  0  0  0  0  0  0
    7.3680  -13.6901   20.4877 N   0  0  0  0  0  0  0  0  0  0  0  0
    9.9587  -17.6931   21.6602 C   0  0  0  0  0  0  0  0  0  0  0  0
    9.3142  -18.6650   22.0738 O   0  0  0  0  0  0  0  0  0  0  0  0
   11.1733  -17.4011   22.3428 N   0  0  0  0  0  0  0  0  0  0  0  0
   11.6668  -18.1955   23.4682 C   0  0  1  0  0  0  0  0  0  0  0  0
   13.1454  -17.8964   23.5452 C   0  0  0  0  0  0  0  0  0  0  0  0
   13.9316  -18.3304   22.3951 C   0  0  0  0  0  0  0  0  0  0  0  0
   14.0051  -19.5000   21.9614 O   0  0  0  0  0  0  0  0  0  0  0  0
   11.0260  -17.6627   24.6881 C   0  0  0  0  0  0  0  0  0  0  0  0
   11.1959  -18.3362   25.8834 O   0  0  0  0  0  0  0  0  0  0  0  0
   14.6673  -17.3251   21.7263 O   0  0  0  0  0  0  0  0  0  0  0  0
   10.3363  -16.6318   24.6952 O   0  0  0  0  0  0  0  0  0  0  0  0
  2  3  1  0
  2  1  1  0
  3  5  1  0
  4  3  2  0
  5  6  1  0
  6  7  1  1
  6 13  1  0
  8  9  2  0
  8  7  1  0
 10  9  1  0
 11 12  2  0
 11 10  1  0
 12  8  1  0
 13 14  2  0
 13 15  1  0
 15 16  1  0
 16 17  1  1
 17 18  1  0
 18 22  1  0
 19 18  2  0
 20 21  1  0
 20 16  1  0
 23 20  2  0
M  END
$$$$
