GHD.pdb
     RDKit          3D

 23 23  0  0  1  0  0  0  0  0999 V2000
    8.8423  -16.1326   18.7764 N   0  0  0  0  0  0  0  0  0  0  0  0
    7.7496  -16.0096   19.7130 C   0  0  0  0  0  0  0  0  0  0  0  0
    8.1677  -15.3630   20.9827 C   0  0  0  0  0  0  0  0  0  0  0  0
    9.4283  -15.2091   21.1237 O   0  0  0  0  0  0  0  0  0  0  0  0
    7.2409  -14.9558   21.9479 N   0  0  0  0  0  0  0  0  0  0  0  0
    7.6716  -14.3871   23.2238 C   0  0  1  0  0  0  0  0  0  0  0  0
    6.5490  -13.7806   23.9698 C   0  0  0  0  0  0  0  0  0  0  0  0
    6.8619  -13.2564   25.3168 C   0  0  0  0  0  0  0  0  0  0  0  0
    6.3220  -13.5998   26.5177 C   0  0  0  0  0  0  0  0  0  0  0  0
    6.9728  -12.9043   27.4994 N   0  0  0  0  0  0  0  0  0  0  0  0
    7.8867  -12.1617   26.8785 C   0  0  0  0  0  0  0  0  0  0  0  0
    7.8525  -12.3440   25.5743 N   0  0  0  0  0  0  0  0  0  0  0  0
    8.1299  -15.5753   24.0554 C   0  0  0  0  0  0  0  0  0  0  0  0
    7.4814  -16.6224   24.1736 O   0  0  0  0  0  0  0  0  0  0  0  0
    9.3702  -15.5158   24.7516 N   0  0  0  0  0  0  0  0  0  0  0  0
    9.9326  -16.6546   25.4781 C   0  0  1  0  0  0  0  0  0  0  0  0
   11.4150  -16.6140   25.1911 C   0  0  0  0  0  0  0  0  0  0  0  0
   12.0358  -17.9074   24.9247 C   0  0  0  0  0  0  0  0  0  0  0  0
   11.4609  -19.0158   24.9723 O   0  0  0  0  0  0  0  0  0  0  0  0
    9.7359  -16.3894   26.9181 C   0  0  0  0  0  0  0  0  0  0  0  0
    9.7701  -15.0834   27.3701 O   0  0  0  0  0  0  0  0  0  0  0  0
   13.4079  -17.8834   24.5846 O   0  0  0  0  0  0  0  0  0  0  0  0
    9.5398  -17.2874   27.7510 O   0  0  0  0  0  0  0  0  0  0  0  0
  2  3  1  0
  2  1  1  0
  3  5  1  0
  4  3  2  0
  5  6  1  0
  6  7  1  1
  6 13  1  0
  8  9  2  0
  8  7  1  0
 10  9  1  0
 11 12  2  0
 11 10  1  0
 12  8  1  0
 13 14  2  0
 13 15  1  0
 15 16  1  0
 16 17  1  1
 17 18  1  0
 18 22  1  0
 19 18  2  0
 20 21  1  0
 20 16  1  0
 23 20  2  0
M  END
$$$$
