GHD.pdb
     RDKit          3D

 23 23  0  0  1  0  0  0  0  0999 V2000
   13.7622  -15.5170   15.4430 N   0  0  0  0  0  0  0  0  0  0  0  0
   12.7805  -16.1017   16.3266 C   0  0  0  0  0  0  0  0  0  0  0  0
   12.6268  -15.3297   17.5857 C   0  0  0  0  0  0  0  0  0  0  0  0
   13.5454  -14.4706   17.8109 O   0  0  0  0  0  0  0  0  0  0  0  0
   11.5508  -15.5357   18.4553 N   0  0  0  0  0  0  0  0  0  0  0  0
   11.4909  -14.8792   19.7600 C   0  0  1  0  0  0  0  0  0  0  0  0
   10.1150  -14.8359   20.2984 C   0  0  0  0  0  0  0  0  0  0  0  0
    9.1593  -13.9576   19.5897 C   0  0  0  0  0  0  0  0  0  0  0  0
    9.3677  -13.1597   18.5075 C   0  0  0  0  0  0  0  0  0  0  0  0
    8.1760  -12.5878   18.1555 N   0  0  0  0  0  0  0  0  0  0  0  0
    7.2778  -13.0484   19.0235 C   0  0  0  0  0  0  0  0  0  0  0  0
    7.8256  -13.8696   19.8958 N   0  0  0  0  0  0  0  0  0  0  0  0
   12.2761  -15.7835   20.6977 C   0  0  0  0  0  0  0  0  0  0  0  0
   12.2419  -17.0194   20.6492 O   0  0  0  0  0  0  0  0  0  0  0  0
   13.1084  -15.2113   21.7009 N   0  0  0  0  0  0  0  0  0  0  0  0
   13.9662  -16.0100   22.5768 C   0  0  1  0  0  0  0  0  0  0  0  0
   14.9934  -15.0419   23.1145 C   0  0  0  0  0  0  0  0  0  0  0  0
   16.2855  -15.0611   22.4366 C   0  0  0  0  0  0  0  0  0  0  0  0
   17.3954  -14.8667   22.9768 O   0  0  0  0  0  0  0  0  0  0  0  0
   13.1286  -16.4651   23.7055 C   0  0  0  0  0  0  0  0  0  0  0  0
   13.6125  -17.4515   24.5445 O   0  0  0  0  0  0  0  0  0  0  0  0
   16.2583  -15.3244   21.0478 O   0  0  0  0  0  0  0  0  0  0  0  0
   12.0019  -16.0030   23.9414 O   0  0  0  0  0  0  0  0  0  0  0  0
  2  3  1  0
  2  1  1  0
  3  5  1  0
  4  3  2  0
  5  6  1  0
  6  7  1  1
  6 13  1  0
  8  9  2  0
  8  7  1  0
 10  9  1  0
 11 12  2  0
 11 10  1  0
 12  8  1  0
 13 14  2  0
 13 15  1  0
 15 16  1  0
 16 17  1  1
 17 18  1  0
 18 22  1  0
 19 18  2  0
 20 21  1  0
 20 16  1  0
 23 20  2  0
M  END
$$$$
