GHD.pdb
     RDKit          3D

 23 23  0  0  1  0  0  0  0  0999 V2000
    9.9086  -18.5772   16.8607 N   0  0  0  0  0  0  0  0  0  0  0  0
    9.1647  -18.5516   18.0986 C   0  0  0  0  0  0  0  0  0  0  0  0
    9.6835  -17.5318   19.0452 C   0  0  0  0  0  0  0  0  0  0  0  0
   10.9036  -17.1969   18.8667 O   0  0  0  0  0  0  0  0  0  0  0  0
    8.8863  -16.9840   20.0554 N   0  0  0  0  0  0  0  0  0  0  0  0
    9.4336  -16.0410   21.0290 C   0  0  1  0  0  0  0  0  0  0  0  0
    8.4122  -15.0916   21.5191 C   0  0  0  0  0  0  0  0  0  0  0  0
    7.9177  -14.0966   20.5432 C   0  0  0  0  0  0  0  0  0  0  0  0
    8.3276  -12.8147   20.3427 C   0  0  0  0  0  0  0  0  0  0  0  0
    7.6329  -12.2990   19.2832 N   0  0  0  0  0  0  0  0  0  0  0  0
    6.8246  -13.2712   18.8665 C   0  0  0  0  0  0  0  0  0  0  0  0
    6.9651  -14.3611   19.5931 N   0  0  0  0  0  0  0  0  0  0  0  0
    9.8233  -16.8893   22.2299 C   0  0  0  0  0  0  0  0  0  0  0  0
    9.2175  -17.9115   22.5749 O   0  0  0  0  0  0  0  0  0  0  0  0
   10.9430  -16.5169   23.0262 N   0  0  0  0  0  0  0  0  0  0  0  0
   11.5371  -17.4003   24.0300 C   0  0  1  0  0  0  0  0  0  0  0  0
   12.9470  -16.8923   24.2193 C   0  0  0  0  0  0  0  0  0  0  0  0
   13.7752  -17.6727   25.1328 C   0  0  0  0  0  0  0  0  0  0  0  0
   13.5366  -17.8729   26.3429 O   0  0  0  0  0  0  0  0  0  0  0  0
   10.7973  -17.1830   25.2903 C   0  0  0  0  0  0  0  0  0  0  0  0
   10.5951  -18.2529   26.1421 O   0  0  0  0  0  0  0  0  0  0  0  0
   14.9451  -18.2441   24.5816 O   0  0  0  0  0  0  0  0  0  0  0  0
   10.3435  -16.0787   25.6268 O   0  0  0  0  0  0  0  0  0  0  0  0
  2  3  1  0
  2  1  1  0
  3  5  1  0
  4  3  2  0
  5  6  1  0
  6  7  1  1
  6 13  1  0
  8  9  2  0
  8  7  1  0
 10  9  1  0
 11 12  2  0
 11 10  1  0
 12  8  1  0
 13 14  2  0
 13 15  1  0
 15 16  1  0
 16 17  1  1
 17 18  1  0
 18 22  1  0
 19 18  2  0
 20 21  1  0
 20 16  1  0
 23 20  2  0
M  END
$$$$
