GHD.pdb
     RDKit          3D

 23 23  0  0  1  0  0  0  0  0999 V2000
   14.0505  -14.7763   15.6128 N   0  0  0  0  0  0  0  0  0  0  0  0
   12.9919  -15.4477   16.3305 C   0  0  0  0  0  0  0  0  0  0  0  0
   12.8557  -14.9529   17.7239 C   0  0  0  0  0  0  0  0  0  0  0  0
   13.8457  -14.2707   18.1565 O   0  0  0  0  0  0  0  0  0  0  0  0
   11.7219  -15.2197   18.4981 N   0  0  0  0  0  0  0  0  0  0  0  0
   11.5947  -14.7089   19.8619 C   0  0  1  0  0  0  0  0  0  0  0  0
   10.2083  -14.8056   20.3651 C   0  0  0  0  0  0  0  0  0  0  0  0
    9.1969  -13.9827   19.6673 C   0  0  0  0  0  0  0  0  0  0  0  0
    9.3554  -13.1465   18.6057 C   0  0  0  0  0  0  0  0  0  0  0  0
    8.1280  -12.6547   18.2551 N   0  0  0  0  0  0  0  0  0  0  0  0
    7.2588  -13.1997   19.1034 C   0  0  0  0  0  0  0  0  0  0  0  0
    7.8578  -13.9991   19.9621 N   0  0  0  0  0  0  0  0  0  0  0  0
   12.4162  -15.6578   20.7211 C   0  0  0  0  0  0  0  0  0  0  0  0
   12.4842  -16.8776   20.5257 O   0  0  0  0  0  0  0  0  0  0  0  0
   13.1624  -15.1496   21.8218 N   0  0  0  0  0  0  0  0  0  0  0  0
   13.9666  -15.9994   22.7006 C   0  0  1  0  0  0  0  0  0  0  0  0
   15.2044  -15.1904   23.0087 C   0  0  0  0  0  0  0  0  0  0  0  0
   16.1676  -15.0817   21.9180 C   0  0  0  0  0  0  0  0  0  0  0  0
   16.7385  -16.0379   21.3512 O   0  0  0  0  0  0  0  0  0  0  0  0
   13.2046  -16.1691   23.9549 C   0  0  0  0  0  0  0  0  0  0  0  0
   13.7123  -16.9938   24.9415 O   0  0  0  0  0  0  0  0  0  0  0  0
   16.4679  -13.7719   21.4781 O   0  0  0  0  0  0  0  0  0  0  0  0
   12.1216  -15.6042   24.1704 O   0  0  0  0  0  0  0  0  0  0  0  0
  2  3  1  0
  2  1  1  0
  3  5  1  0
  4  3  2  0
  5  6  1  0
  6  7  1  1
  6 13  1  0
  8  9  2  0
  8  7  1  0
 10  9  1  0
 11 12  2  0
 11 10  1  0
 12  8  1  0
 13 14  2  0
 13 15  1  0
 15 16  1  0
 16 17  1  1
 17 18  1  0
 18 22  1  0
 19 18  2  0
 20 21  1  0
 20 16  1  0
 23 20  2  0
M  END
$$$$
