GHD.pdb
     RDKit          3D

 23 23  0  0  1  0  0  0  0  0999 V2000
    8.6630  -18.7240   16.9633 N   0  0  0  0  0  0  0  0  0  0  0  0
    8.9005  -18.9915   18.3628 C   0  0  0  0  0  0  0  0  0  0  0  0
    9.6048  -17.8719   19.0375 C   0  0  0  0  0  0  0  0  0  0  0  0
   10.6261  -17.4205   18.4164 O   0  0  0  0  0  0  0  0  0  0  0  0
    9.1734  -17.3560   20.2639 N   0  0  0  0  0  0  0  0  0  0  0  0
    9.8791  -16.2545   20.9163 C   0  0  1  0  0  0  0  0  0  0  0  0
    8.9529  -15.3286   21.6016 C   0  0  0  0  0  0  0  0  0  0  0  0
    8.0971  -14.4923   20.7326 C   0  0  0  0  0  0  0  0  0  0  0  0
    6.7397  -14.4540   20.6464 C   0  0  0  0  0  0  0  0  0  0  0  0
    6.3900  -13.4751   19.7573 N   0  0  0  0  0  0  0  0  0  0  0  0
    7.5329  -12.9441   19.3282 C   0  0  0  0  0  0  0  0  0  0  0  0
    8.5751  -13.5241   19.8875 N   0  0  0  0  0  0  0  0  0  0  0  0
   10.7051  -16.9055   22.0151 C   0  0  0  0  0  0  0  0  0  0  0  0
   10.3953  -17.9668   22.5705 O   0  0  0  0  0  0  0  0  0  0  0  0
   11.9094  -16.2874   22.4559 N   0  0  0  0  0  0  0  0  0  0  0  0
   12.8719  -16.9522   23.3349 C   0  0  1  0  0  0  0  0  0  0  0  0
   14.1969  -16.2875   23.0452 C   0  0  0  0  0  0  0  0  0  0  0  0
   15.3201  -16.7550   23.8509 C   0  0  0  0  0  0  0  0  0  0  0  0
   15.4718  -17.9165   24.2862 O   0  0  0  0  0  0  0  0  0  0  0  0
   12.4877  -16.6254   24.7235 C   0  0  0  0  0  0  0  0  0  0  0  0
   13.0306  -17.3614   25.7602 O   0  0  0  0  0  0  0  0  0  0  0  0
   16.3130  -15.7954   24.1548 O   0  0  0  0  0  0  0  0  0  0  0  0
   11.6950  -15.7154   25.0100 O   0  0  0  0  0  0  0  0  0  0  0  0
  2  3  1  0
  2  1  1  0
  3  5  1  0
  4  3  2  0
  5  6  1  0
  6  7  1  1
  6 13  1  0
  8  9  2  0
  8  7  1  0
 10  9  1  0
 11 12  2  0
 11 10  1  0
 12  8  1  0
 13 14  2  0
 13 15  1  0
 15 16  1  0
 16 17  1  6
 17 18  1  0
 18 22  1  0
 19 18  2  0
 20 21  1  0
 20 16  1  0
 23 20  2  0
M  END
$$$$
