GHD.pdb
     RDKit          3D

 23 23  0  0  1  0  0  0  0  0999 V2000
    8.9750  -16.3789   18.6339 N   0  0  0  0  0  0  0  0  0  0  0  0
    7.8914  -16.3477   19.5886 C   0  0  0  0  0  0  0  0  0  0  0  0
    8.2675  -15.6476   20.8430 C   0  0  0  0  0  0  0  0  0  0  0  0
    9.5204  -15.4531   21.0010 O   0  0  0  0  0  0  0  0  0  0  0  0
    7.3118  -15.2353   21.7773 N   0  0  0  0  0  0  0  0  0  0  0  0
    7.7035  -14.6766   23.0701 C   0  0  1  0  0  0  0  0  0  0  0  0
    6.5439  -14.1602   23.8274 C   0  0  0  0  0  0  0  0  0  0  0  0
    6.8386  -13.5341   25.1344 C   0  0  0  0  0  0  0  0  0  0  0  0
    8.0433  -13.3073   25.7247 C   0  0  0  0  0  0  0  0  0  0  0  0
    7.8308  -12.6376   26.8984 N   0  0  0  0  0  0  0  0  0  0  0  0
    6.5132  -12.4726   26.9930 C   0  0  0  0  0  0  0  0  0  0  0  0
    5.8854  -12.9939   25.9589 N   0  0  0  0  0  0  0  0  0  0  0  0
    8.2310  -15.8572   23.8710 C   0  0  0  0  0  0  0  0  0  0  0  0
    7.6816  -16.9653   23.9047 O   0  0  0  0  0  0  0  0  0  0  0  0
    9.4221  -15.7166   24.6379 N   0  0  0  0  0  0  0  0  0  0  0  0
   10.1260  -16.8527   25.2336 C   0  0  1  0  0  0  0  0  0  0  0  0
   11.5504  -16.7363   24.7443 C   0  0  0  0  0  0  0  0  0  0  0  0
   12.4740  -17.7388   25.2649 C   0  0  0  0  0  0  0  0  0  0  0  0
   12.1828  -18.6524   26.0662 O   0  0  0  0  0  0  0  0  0  0  0  0
   10.1241  -16.6448   26.6963 C   0  0  0  0  0  0  0  0  0  0  0  0
    9.8365  -15.3876   27.1943 O   0  0  0  0  0  0  0  0  0  0  0  0
   13.8103  -17.6523   24.8113 O   0  0  0  0  0  0  0  0  0  0  0  0
   10.3698  -17.5492   27.5087 O   0  0  0  0  0  0  0  0  0  0  0  0
  2  3  1  0
  2  1  1  0
  3  5  1  0
  4  3  2  0
  5  6  1  0
  6  7  1  1
  6 13  1  0
  8  9  2  0
  8  7  1  0
 10  9  1  0
 11 12  2  0
 11 10  1  0
 12  8  1  0
 13 14  2  0
 13 15  1  0
 15 16  1  0
 16 17  1  6
 17 18  1  0
 18 22  1  0
 19 18  2  0
 20 21  1  0
 20 16  1  0
 23 20  2  0
M  END
$$$$
