HKE.pdb
     RDKit          3D

 29 29  0  0  1  0  0  0  0  0999 V2000
   23.1285  -38.1529  -11.3679 N   0  0  0  0  0  0  0  0  0  0  0  0
   22.6135  -37.3294  -10.2981 C   0  0  1  0  0  0  0  0  0  0  0  0
   21.2538  -37.8872   -9.8840 C   0  0  0  0  0  0  0  0  0  0  0  0
   20.3003  -37.6988  -11.0061 C   0  0  0  0  0  0  0  0  0  0  0  0
   19.4213  -36.6266  -11.1372 C   0  0  0  0  0  0  0  0  0  0  0  0
   18.7176  -36.7860  -12.2639 N   0  0  0  0  0  0  0  0  0  0  0  0
   19.1188  -37.9270  -12.8585 C   0  0  0  0  0  0  0  0  0  0  0  0
   20.0911  -38.4755  -12.0735 N   0  0  0  0  0  0  0  0  0  0  0  0
   23.5047  -37.3609   -9.1061 C   0  0  0  0  0  0  0  0  0  0  0  0
   24.4834  -38.1475   -9.0775 O   0  0  0  0  0  0  0  0  0  0  0  0
   23.2160  -36.4893   -8.0254 N   0  0  0  0  0  0  0  0  0  0  0  0
   24.1488  -36.3776   -6.9428 C   0  0  1  0  0  0  0  0  0  0  0  0
   24.5055  -35.0014   -6.5126 C   0  0  0  0  0  0  0  0  0  0  0  0
   25.5036  -34.8405   -5.4371 C   0  0  0  0  0  0  0  0  0  0  0  0
   25.7302  -33.4258   -4.9950 C   0  0  0  0  0  0  0  0  0  0  0  0
   26.4319  -33.5355   -3.6250 C   0  0  0  0  0  0  0  0  0  0  0  0
   26.7366  -32.1863   -3.1989 N   0  0  0  0  0  0  0  0  0  0  0  0
   23.4789  -37.0823   -5.7734 C   0  0  0  0  0  0  0  0  0  0  0  0
   22.2488  -37.0184   -5.5770 O   0  0  0  0  0  0  0  0  0  0  0  0
   24.2962  -37.8281   -4.8941 N   0  0  0  0  0  0  0  0  0  0  0  0
   23.6853  -38.5512   -3.7305 C   0  0  1  0  0  0  0  0  0  0  0  0
   24.6984  -39.5545   -3.3495 C   0  0  0  0  0  0  0  0  0  0  0  0
   24.3055  -40.4884   -2.2793 C   0  0  0  0  0  0  0  0  0  0  0  0
   25.3236  -41.4459   -1.8658 C   0  0  0  0  0  0  0  0  0  0  0  0
   26.1823  -41.1207   -0.9985 O   0  0  0  0  0  0  0  0  0  0  0  0
   23.1795  -37.6020   -2.7690 C   0  0  0  0  0  0  0  0  0  0  0  0
   21.9672  -37.8155   -2.0801 O   0  0  0  0  0  0  0  0  0  0  0  0
   25.3478  -42.7295   -2.4265 O   0  0  0  0  0  0  0  0  0  0  0  0
   23.7700  -36.5445   -2.4853 O   0  0  0  0  0  0  0  0  0  0  0  0
  2  1  1  6
  2  3  1  0
  3  4  1  0
  4  8  1  0
  5  4  2  0
  5  6  1  0
  6  7  1  0
  8  7  2  0
  9 10  2  0
  9  2  1  0
 11  9  1  0
 12 13  1  1
 12 11  1  0
 13 14  1  0
 14 15  1  0
 15 16  1  0
 16 17  1  0
 18 12  1  0
 19 18  2  0
 20 18  1  0
 21 20  1  0
 21 22  1  1
 23 24  1  0
 23 22  1  0
 24 25  2  0
 26 27  1  0
 26 21  1  0
 28 24  1  0
 29 26  2  0
M  END
$$$$
