HKE.pdb
     RDKit          3D

 29 29  0  0  1  0  0  0  0  0999 V2000
   24.7713  -16.2899  -18.2605 N   0  0  0  0  0  0  0  0  0  0  0  0
   24.6216  -16.5796  -16.8529 C   0  0  1  0  0  0  0  0  0  0  0  0
   23.6643  -15.5502  -16.2568 C   0  0  0  0  0  0  0  0  0  0  0  0
   24.4363  -14.3339  -15.8986 C   0  0  0  0  0  0  0  0  0  0  0  0
   25.8160  -14.1954  -16.0278 C   0  0  0  0  0  0  0  0  0  0  0  0
   26.1639  -12.9728  -15.6105 N   0  0  0  0  0  0  0  0  0  0  0  0
   25.0497  -12.3239  -15.2181 C   0  0  0  0  0  0  0  0  0  0  0  0
   23.9976  -13.1735  -15.4013 N   0  0  0  0  0  0  0  0  0  0  0  0
   24.0378  -17.9311  -16.6316 C   0  0  0  0  0  0  0  0  0  0  0  0
   22.9147  -18.2144  -17.1172 O   0  0  0  0  0  0  0  0  0  0  0  0
   24.7790  -18.8689  -15.8688 N   0  0  0  0  0  0  0  0  0  0  0  0
   24.2575  -20.1904  -15.6784 C   0  0  1  0  0  0  0  0  0  0  0  0
   25.2408  -21.2498  -15.3364 C   0  0  0  0  0  0  0  0  0  0  0  0
   26.1268  -21.7539  -16.4039 C   0  0  0  0  0  0  0  0  0  0  0  0
   26.9589  -22.9416  -16.0229 C   0  0  0  0  0  0  0  0  0  0  0  0
   27.7696  -23.2927  -17.2882 C   0  0  0  0  0  0  0  0  0  0  0  0
   28.6950  -24.3420  -16.9175 N   0  0  0  0  0  0  0  0  0  0  0  0
   23.2761  -20.0624  -14.5236 C   0  0  0  0  0  0  0  0  0  0  0  0
   23.6231  -19.6408  -13.4021 O   0  0  0  0  0  0  0  0  0  0  0  0
   21.9331  -20.4387  -14.7517 N   0  0  0  0  0  0  0  0  0  0  0  0
   20.9238  -20.3312  -13.6473 C   0  0  1  0  0  0  0  0  0  0  0  0
   20.1316  -19.1340  -13.9899 C   0  0  0  0  0  0  0  0  0  0  0  0
   18.9747  -18.8596  -13.1193 C   0  0  0  0  0  0  0  0  0  0  0  0
   18.1108  -17.7626  -13.5371 C   0  0  0  0  0  0  0  0  0  0  0  0
   17.3235  -17.9143  -14.5131 O   0  0  0  0  0  0  0  0  0  0  0  0
   20.2878  -21.6082  -13.4329 C   0  0  0  0  0  0  0  0  0  0  0  0
   20.4166  -22.6673  -14.3556 O   0  0  0  0  0  0  0  0  0  0  0  0
   18.1495  -16.5403  -12.8536 O   0  0  0  0  0  0  0  0  0  0  0  0
   19.5915  -21.8593  -12.4330 O   0  0  0  0  0  0  0  0  0  0  0  0
  2  1  1  6
  2  3  1  0
  3  4  1  0
  4  8  1  0
  5  4  2  0
  5  6  1  0
  6  7  1  0
  8  7  2  0
  9 10  2  0
  9  2  1  0
 11  9  1  0
 12 13  1  1
 12 11  1  0
 13 14  1  0
 14 15  1  0
 15 16  1  0
 16 17  1  0
 18 12  1  0
 19 18  2  0
 20 18  1  0
 21 20  1  0
 21 22  1  6
 23 24  1  0
 23 22  1  0
 24 25  2  0
 26 27  1  0
 26 21  1  0
 28 24  1  0
 29 26  2  0
M  END
$$$$
