HKE.pdb
     RDKit          3D

 29 29  0  0  1  0  0  0  0  0999 V2000
   19.0852  -10.9288  -19.1924 N   0  0  0  0  0  0  0  0  0  0  0  0
   20.0096   -9.8342  -19.0046 C   0  0  1  0  0  0  0  0  0  0  0  0
   19.2305   -8.5281  -19.1401 C   0  0  0  0  0  0  0  0  0  0  0  0
   18.7734   -8.3902  -20.5457 C   0  0  0  0  0  0  0  0  0  0  0  0
   19.5166   -7.8196  -21.5760 C   0  0  0  0  0  0  0  0  0  0  0  0
   18.7930   -7.8643  -22.7005 N   0  0  0  0  0  0  0  0  0  0  0  0
   17.6095   -8.4460  -22.4223 C   0  0  0  0  0  0  0  0  0  0  0  0
   17.6134   -8.7630  -21.0949 N   0  0  0  0  0  0  0  0  0  0  0  0
   20.6238   -9.8635  -17.6488 C   0  0  0  0  0  0  0  0  0  0  0  0
   19.9472  -10.2505  -16.6639 O   0  0  0  0  0  0  0  0  0  0  0  0
   21.9724   -9.4478  -17.5107 N   0  0  0  0  0  0  0  0  0  0  0  0
   22.5982   -9.5052  -16.2223 C   0  0  1  0  0  0  0  0  0  0  0  0
   23.8197  -10.3432  -16.1138 C   0  0  0  0  0  0  0  0  0  0  0  0
   23.6899  -11.7996  -16.3158 C   0  0  0  0  0  0  0  0  0  0  0  0
   24.9812  -12.5599  -16.2637 C   0  0  0  0  0  0  0  0  0  0  0  0
   24.5943  -14.0349  -16.5008 C   0  0  0  0  0  0  0  0  0  0  0  0
   25.8164  -14.8071  -16.4308 N   0  0  0  0  0  0  0  0  0  0  0  0
   22.9791   -8.0670  -15.9067 C   0  0  0  0  0  0  0  0  0  0  0  0
   23.7705   -7.4186  -16.6203 O   0  0  0  0  0  0  0  0  0  0  0  0
   22.4055   -7.4663  -14.7633 N   0  0  0  0  0  0  0  0  0  0  0  0
   22.5702   -5.9946  -14.5241 C   0  0  1  0  0  0  0  0  0  0  0  0
   22.1203   -5.3663  -15.7815 C   0  0  0  0  0  0  0  0  0  0  0  0
   22.1174   -3.8926  -15.7969 C   0  0  0  0  0  0  0  0  0  0  0  0
   21.6401   -3.2708  -17.0256 C   0  0  0  0  0  0  0  0  0  0  0  0
   20.4014   -3.1108  -17.2134 O   0  0  0  0  0  0  0  0  0  0  0  0
   21.9819   -5.6307  -13.2581 C   0  0  0  0  0  0  0  0  0  0  0  0
   21.1049   -6.4950  -12.5699 O   0  0  0  0  0  0  0  0  0  0  0  0
   22.5551   -2.8457  -17.9976 O   0  0  0  0  0  0  0  0  0  0  0  0
   22.2047   -4.5444  -12.6944 O   0  0  0  0  0  0  0  0  0  0  0  0
  2  1  1  1
  2  3  1  0
  3  4  1  0
  4  8  1  0
  5  4  2  0
  5  6  1  0
  6  7  1  0
  8  7  2  0
  9 10  2  0
  9  2  1  0
 11  9  1  0
 12 13  1  6
 12 11  1  0
 13 14  1  0
 14 15  1  0
 15 16  1  0
 16 17  1  0
 18 12  1  0
 19 18  2  0
 20 18  1  0
 21 20  1  0
 21 22  1  6
 23 24  1  0
 23 22  1  0
 24 25  2  0
 26 27  1  0
 26 21  1  0
 28 24  1  0
 29 26  2  0
M  END
$$$$
