HKE.pdb
     RDKit          3D

 29 29  0  0  1  0  0  0  0  0999 V2000
   21.9286  -15.7535  -18.0611 N   0  0  0  0  0  0  0  0  0  0  0  0
   21.0855  -14.9760  -17.1822 C   0  0  1  0  0  0  0  0  0  0  0  0
   21.5101  -15.2618  -15.7437 C   0  0  0  0  0  0  0  0  0  0  0  0
   21.1786  -16.6724  -15.4210 C   0  0  0  0  0  0  0  0  0  0  0  0
   22.1100  -17.6674  -15.1347 C   0  0  0  0  0  0  0  0  0  0  0  0
   21.4554  -18.8091  -14.8938 N   0  0  0  0  0  0  0  0  0  0  0  0
   20.1337  -18.5761  -15.0168 C   0  0  0  0  0  0  0  0  0  0  0  0
   19.9806  -17.2593  -15.3409 N   0  0  0  0  0  0  0  0  0  0  0  0
   21.2417  -13.5156  -17.4251 C   0  0  0  0  0  0  0  0  0  0  0  0
   22.3826  -13.0354  -17.6378 O   0  0  0  0  0  0  0  0  0  0  0  0
   20.0807  -12.7015  -17.4085 N   0  0  0  0  0  0  0  0  0  0  0  0
   20.1884  -11.3149  -17.7554 C   0  0  1  0  0  0  0  0  0  0  0  0
   19.2056  -10.7987  -18.7423 C   0  0  0  0  0  0  0  0  0  0  0  0
   19.2855  -11.2889  -20.1323 C   0  0  0  0  0  0  0  0  0  0  0  0
   18.2566  -10.7177  -21.0613 C   0  0  0  0  0  0  0  0  0  0  0  0
   18.4990  -11.4167  -22.4156 C   0  0  0  0  0  0  0  0  0  0  0  0
   17.5322  -10.8763  -23.3473 N   0  0  0  0  0  0  0  0  0  0  0  0
   19.9860  -10.5662  -16.4472 C   0  0  0  0  0  0  0  0  0  0  0  0
   19.2762  -11.0191  -15.5268 O   0  0  0  0  0  0  0  0  0  0  0  0
   20.6329   -9.3194  -16.2913 N   0  0  0  0  0  0  0  0  0  0  0  0
   20.4721   -8.5424  -15.0184 C   0  0  1  0  0  0  0  0  0  0  0  0
   21.5739   -7.5608  -15.0463 C   0  0  0  0  0  0  0  0  0  0  0  0
   21.6696   -6.6705  -13.8759 C   0  0  0  0  0  0  0  0  0  0  0  0
   22.8090   -5.7618  -13.8600 C   0  0  0  0  0  0  0  0  0  0  0  0
   23.7751   -5.9452  -14.6528 O   0  0  0  0  0  0  0  0  0  0  0  0
   19.1014   -8.1184  -14.8679 C   0  0  0  0  0  0  0  0  0  0  0  0
   18.4553   -8.1220  -13.6140 O   0  0  0  0  0  0  0  0  0  0  0  0
   22.8317   -4.6812  -12.9687 O   0  0  0  0  0  0  0  0  0  0  0  0
   18.4048   -7.7259  -15.8209 O   0  0  0  0  0  0  0  0  0  0  0  0
  2  1  1  6
  2  3  1  0
  3  4  1  0
  4  8  1  0
  5  4  2  0
  5  6  1  0
  6  7  1  0
  8  7  2  0
  9 10  2  0
  9  2  1  0
 11  9  1  0
 12 13  1  6
 12 11  1  0
 13 14  1  0
 14 15  1  0
 15 16  1  0
 16 17  1  0
 18 12  1  0
 19 18  2  0
 20 18  1  0
 21 20  1  0
 21 22  1  6
 23 24  1  0
 23 22  1  0
 24 25  2  0
 26 27  1  0
 26 21  1  0
 28 24  1  0
 29 26  2  0
M  END
$$$$
