HKE.pdb
     RDKit          3D

 29 29  0  0  1  0  0  0  0  0999 V2000
   27.3346  -19.8675  -18.1848 N   0  0  0  0  0  0  0  0  0  0  0  0
   26.6666  -18.9766  -17.2640 C   0  0  1  0  0  0  0  0  0  0  0  0
   25.6620  -18.1433  -18.0562 C   0  0  0  0  0  0  0  0  0  0  0  0
   26.4077  -17.2301  -18.9583 C   0  0  0  0  0  0  0  0  0  0  0  0
   26.2539  -17.1705  -20.3412 C   0  0  0  0  0  0  0  0  0  0  0  0
   27.0833  -16.2381  -20.8237 N   0  0  0  0  0  0  0  0  0  0  0  0
   27.7635  -15.6988  -19.7928 C   0  0  0  0  0  0  0  0  0  0  0  0
   27.3370  -16.3188  -18.6544 N   0  0  0  0  0  0  0  0  0  0  0  0
   25.9170  -19.7295  -16.2211 C   0  0  0  0  0  0  0  0  0  0  0  0
   25.2109  -20.7155  -16.5476 O   0  0  0  0  0  0  0  0  0  0  0  0
   26.0256  -19.3032  -14.8730 N   0  0  0  0  0  0  0  0  0  0  0  0
   25.3087  -20.0087  -13.8518 C   0  0  1  0  0  0  0  0  0  0  0  0
   25.8620  -19.9288  -12.4757 C   0  0  0  0  0  0  0  0  0  0  0  0
   25.1175  -20.5840  -11.3825 C   0  0  0  0  0  0  0  0  0  0  0  0
   25.6566  -20.3215  -10.0082 C   0  0  0  0  0  0  0  0  0  0  0  0
   24.7773  -21.1628   -9.0592 C   0  0  0  0  0  0  0  0  0  0  0  0
   25.3550  -21.0473   -7.7371 N   0  0  0  0  0  0  0  0  0  0  0  0
   23.9219  -19.3843  -13.8433 C   0  0  0  0  0  0  0  0  0  0  0  0
   23.7495  -18.1533  -13.7398 O   0  0  0  0  0  0  0  0  0  0  0  0
   22.8076  -20.2460  -13.9578 N   0  0  0  0  0  0  0  0  0  0  0  0
   21.4170  -19.6987  -13.8278 C   0  0  1  0  0  0  0  0  0  0  0  0
   20.8048  -19.9354  -15.1497 C   0  0  0  0  0  0  0  0  0  0  0  0
   19.9787  -21.1503  -15.2657 C   0  0  0  0  0  0  0  0  0  0  0  0
   19.8566  -21.7104  -16.6057 C   0  0  0  0  0  0  0  0  0  0  0  0
   20.3966  -22.8190  -16.8792 O   0  0  0  0  0  0  0  0  0  0  0  0
   20.8006  -20.1966  -12.6223 C   0  0  0  0  0  0  0  0  0  0  0  0
   19.6716  -19.5722  -12.0518 O   0  0  0  0  0  0  0  0  0  0  0  0
   19.1362  -21.0219  -17.5904 O   0  0  0  0  0  0  0  0  0  0  0  0
   21.2169  -21.1971  -12.0115 O   0  0  0  0  0  0  0  0  0  0  0  0
  2  1  1  6
  2  3  1  0
  3  4  1  0
  4  8  1  0
  5  4  2  0
  5  6  1  0
  6  7  1  0
  8  7  2  0
  9 10  2  0
  9  2  1  0
 11  9  1  0
 12 13  1  1
 12 11  1  0
 13 14  1  0
 14 15  1  0
 15 16  1  0
 16 17  1  0
 18 12  1  0
 19 18  2  0
 20 18  1  0
 21 20  1  0
 21 22  1  6
 23 24  1  0
 23 22  1  0
 24 25  2  0
 26 27  1  0
 26 21  1  0
 28 24  1  0
 29 26  2  0
M  END
$$$$
