HKE.pdb
     RDKit          3D

 29 29  0  0  1  0  0  0  0  0999 V2000
   19.4927  -12.3481  -17.0547 N   0  0  0  0  0  0  0  0  0  0  0  0
   18.5650  -11.5031  -16.3384 C   0  0  1  0  0  0  0  0  0  0  0  0
   18.4462  -12.0334  -14.9116 C   0  0  0  0  0  0  0  0  0  0  0  0
   17.7609  -13.3498  -14.9486 C   0  0  0  0  0  0  0  0  0  0  0  0
   18.3441  -14.5651  -14.5989 C   0  0  0  0  0  0  0  0  0  0  0  0
   17.4360  -15.5353  -14.7542 N   0  0  0  0  0  0  0  0  0  0  0  0
   16.2893  -14.9791  -15.1924 C   0  0  0  0  0  0  0  0  0  0  0  0
   16.5055  -13.6364  -15.3066 N   0  0  0  0  0  0  0  0  0  0  0  0
   19.0491  -10.0972  -16.2665 C   0  0  0  0  0  0  0  0  0  0  0  0
   20.2375   -9.8611  -15.9357 O   0  0  0  0  0  0  0  0  0  0  0  0
   18.1401   -9.0544  -16.5784 N   0  0  0  0  0  0  0  0  0  0  0  0
   18.5996   -7.6966  -16.5780 C   0  0  1  0  0  0  0  0  0  0  0  0
   18.5500   -6.9782  -17.8771 C   0  0  0  0  0  0  0  0  0  0  0  0
   18.9187   -5.5491  -17.9015 C   0  0  0  0  0  0  0  0  0  0  0  0
   18.8562   -4.9059  -19.2544 C   0  0  0  0  0  0  0  0  0  0  0  0
   19.4012   -3.4766  -19.0506 C   0  0  0  0  0  0  0  0  0  0  0  0
   19.8994   -3.4056  -17.6936 N   0  0  0  0  0  0  0  0  0  0  0  0
   17.6866   -6.9736  -15.6000 C   0  0  0  0  0  0  0  0  0  0  0  0
   16.4684   -7.2291  -15.5170 O   0  0  0  0  0  0  0  0  0  0  0  0
   18.2586   -5.9846  -14.7681 N   0  0  0  0  0  0  0  0  0  0  0  0
   17.3937   -5.2045  -13.8229 C   0  0  1  0  0  0  0  0  0  0  0  0
   17.4814   -5.9453  -12.5494 C   0  0  0  0  0  0  0  0  0  0  0  0
   16.8830   -5.2805  -11.3782 C   0  0  0  0  0  0  0  0  0  0  0  0
   16.9640   -6.0135  -10.1210 C   0  0  0  0  0  0  0  0  0  0  0  0
   17.5036   -7.1551  -10.0885 O   0  0  0  0  0  0  0  0  0  0  0  0
   17.7252   -3.8022  -13.8926 C   0  0  0  0  0  0  0  0  0  0  0  0
   18.9553   -3.3541  -14.4178 O   0  0  0  0  0  0  0  0  0  0  0  0
   16.4477   -5.4506   -8.9467 O   0  0  0  0  0  0  0  0  0  0  0  0
   16.9593   -2.9042  -13.4995 O   0  0  0  0  0  0  0  0  0  0  0  0
  2  1  1  6
  2  3  1  0
  3  4  1  0
  4  8  1  0
  5  4  2  0
  5  6  1  0
  6  7  1  0
  8  7  2  0
  9 10  2  0
  9  2  1  0
 11  9  1  0
 12 13  1  6
 12 11  1  0
 13 14  1  0
 14 15  1  0
 15 16  1  0
 16 17  1  0
 18 12  1  0
 19 18  2  0
 20 18  1  0
 21 20  1  0
 21 22  1  1
 23 24  1  0
 23 22  1  0
 24 25  2  0
 26 27  1  0
 26 21  1  0
 28 24  1  0
 29 26  2  0
M  END
$$$$
