HKE.pdb
     RDKit          3D

 29 29  0  0  1  0  0  0  0  0999 V2000
   16.1844  -13.2966  -14.9762 N   0  0  0  0  0  0  0  0  0  0  0  0
   16.3553  -12.2755  -15.9841 C   0  0  1  0  0  0  0  0  0  0  0  0
   15.4636  -11.0922  -15.6152 C   0  0  0  0  0  0  0  0  0  0  0  0
   14.0445  -11.4982  -15.7734 C   0  0  0  0  0  0  0  0  0  0  0  0
   13.2088  -11.0964  -16.8125 C   0  0  0  0  0  0  0  0  0  0  0  0
   12.0053  -11.6525  -16.6326 N   0  0  0  0  0  0  0  0  0  0  0  0
   12.0443  -12.3982  -15.5106 C   0  0  0  0  0  0  0  0  0  0  0  0
   13.3035  -12.2928  -14.9950 N   0  0  0  0  0  0  0  0  0  0  0  0
   17.7617  -11.7907  -16.0385 C   0  0  0  0  0  0  0  0  0  0  0  0
   18.4393  -11.7173  -14.9835 O   0  0  0  0  0  0  0  0  0  0  0  0
   18.2994  -11.4219  -17.2978 N   0  0  0  0  0  0  0  0  0  0  0  0
   19.6863  -11.0734  -17.3962 C   0  0  1  0  0  0  0  0  0  0  0  0
   20.3921  -11.4988  -18.6319 C   0  0  0  0  0  0  0  0  0  0  0  0
   21.8180  -11.1474  -18.7802 C   0  0  0  0  0  0  0  0  0  0  0  0
   22.4732  -11.6839  -20.0175 C   0  0  0  0  0  0  0  0  0  0  0  0
   23.9224  -11.1555  -19.9718 C   0  0  0  0  0  0  0  0  0  0  0  0
   24.5810  -11.6287  -21.1707 N   0  0  0  0  0  0  0  0  0  0  0  0
   19.7147   -9.5542  -17.3318 C   0  0  0  0  0  0  0  0  0  0  0  0
   18.9128   -8.8480  -17.9754 O   0  0  0  0  0  0  0  0  0  0  0  0
   20.6893   -8.9448  -16.5096 N   0  0  0  0  0  0  0  0  0  0  0  0
   20.6869   -7.4573  -16.3161 C   0  0  1  0  0  0  0  0  0  0  0  0
   21.2692   -7.2612  -14.9742 C   0  0  0  0  0  0  0  0  0  0  0  0
   21.4518   -5.8610  -14.5527 C   0  0  0  0  0  0  0  0  0  0  0  0
   22.0349   -5.6659  -13.2312 C   0  0  0  0  0  0  0  0  0  0  0  0
   22.3355   -6.6649  -12.5191 O   0  0  0  0  0  0  0  0  0  0  0  0
   21.2504   -6.8074  -17.4742 C   0  0  0  0  0  0  0  0  0  0  0  0
   20.7842   -5.5545  -17.9243 O   0  0  0  0  0  0  0  0  0  0  0  0
   22.2670   -4.3703  -12.7515 O   0  0  0  0  0  0  0  0  0  0  0  0
   22.1738   -7.3008  -18.1462 O   0  0  0  0  0  0  0  0  0  0  0  0
  2  1  1  1
  2  3  1  0
  3  4  1  0
  4  8  1  0
  5  4  2  0
  5  6  1  0
  6  7  1  0
  8  7  2  0
  9 10  2  0
  9  2  1  0
 11  9  1  0
 12 13  1  6
 12 11  1  0
 13 14  1  0
 14 15  1  0
 15 16  1  0
 16 17  1  0
 18 12  1  0
 19 18  2  0
 20 18  1  0
 21 20  1  0
 21 22  1  1
 23 24  1  0
 23 22  1  0
 24 25  2  0
 26 27  1  0
 26 21  1  0
 28 24  1  0
 29 26  2  0
M  END
$$$$
