HKE.pdb
     RDKit          3D

 29 29  0  0  1  0  0  0  0  0999 V2000
   28.2006  -20.9015  -16.2733 N   0  0  0  0  0  0  0  0  0  0  0  0
   26.8612  -21.1690  -16.7448 C   0  0  1  0  0  0  0  0  0  0  0  0
   26.2707  -22.2845  -15.8855 C   0  0  0  0  0  0  0  0  0  0  0  0
   27.0500  -23.5266  -16.1169 C   0  0  0  0  0  0  0  0  0  0  0  0
   28.1227  -23.6455  -16.9971 C   0  0  0  0  0  0  0  0  0  0  0  0
   28.5793  -24.9021  -16.9471 N   0  0  0  0  0  0  0  0  0  0  0  0
   27.8324  -25.5916  -16.0623 C   0  0  0  0  0  0  0  0  0  0  0  0
   26.8977  -24.7326  -15.5613 N   0  0  0  0  0  0  0  0  0  0  0  0
   25.9848  -19.9731  -16.6098 C   0  0  0  0  0  0  0  0  0  0  0  0
   25.9892  -19.3118  -15.5421 O   0  0  0  0  0  0  0  0  0  0  0  0
   25.1614  -19.6136  -17.7069 N   0  0  0  0  0  0  0  0  0  0  0  0
   24.3621  -18.4264  -17.6276 C   0  0  1  0  0  0  0  0  0  0  0  0
   24.3098  -17.5782  -18.8458 C   0  0  0  0  0  0  0  0  0  0  0  0
   25.1797  -16.3873  -18.9078 C   0  0  0  0  0  0  0  0  0  0  0  0
   26.4227  -16.5578  -19.7287 C   0  0  0  0  0  0  0  0  0  0  0  0
   27.1503  -15.1990  -19.6515 C   0  0  0  0  0  0  0  0  0  0  0  0
   28.3949  -15.3463  -20.3755 N   0  0  0  0  0  0  0  0  0  0  0  0
   22.9544  -18.9201  -17.3316 C   0  0  0  0  0  0  0  0  0  0  0  0
   22.4402  -19.8706  -17.9547 O   0  0  0  0  0  0  0  0  0  0  0  0
   22.2241  -18.2662  -16.3135 N   0  0  0  0  0  0  0  0  0  0  0  0
   20.8752  -18.7807  -15.9064 C   0  0  1  0  0  0  0  0  0  0  0  0
   21.0249  -19.1093  -14.4753 C   0  0  0  0  0  0  0  0  0  0  0  0
   21.8060  -20.3221  -14.1740 C   0  0  0  0  0  0  0  0  0  0  0  0
   21.8238  -20.7358  -12.7766 C   0  0  0  0  0  0  0  0  0  0  0  0
   22.7003  -20.2756  -11.9921 O   0  0  0  0  0  0  0  0  0  0  0  0
   19.8448  -17.8782  -16.3589 C   0  0  0  0  0  0  0  0  0  0  0  0
   18.4842  -18.2505  -16.3740 O   0  0  0  0  0  0  0  0  0  0  0  0
   20.8657  -21.6405  -12.3009 O   0  0  0  0  0  0  0  0  0  0  0  0
   20.0823  -16.7253  -16.7613 O   0  0  0  0  0  0  0  0  0  0  0  0
  2  1  1  1
  2  3  1  0
  3  4  1  0
  4  8  1  0
  5  4  2  0
  5  6  1  0
  6  7  1  0
  8  7  2  0
  9 10  2  0
  9  2  1  0
 11  9  1  0
 12 13  1  6
 12 11  1  0
 13 14  1  0
 14 15  1  0
 15 16  1  0
 16 17  1  0
 18 12  1  0
 19 18  2  0
 20 18  1  0
 21 20  1  0
 21 22  1  1
 23 24  1  0
 23 22  1  0
 24 25  2  0
 26 27  1  0
 26 21  1  0
 28 24  1  0
 29 26  2  0
M  END
$$$$
