HKE.pdb
     RDKit          3D

 29 29  0  0  1  0  0  0  0  0999 V2000
   23.9108  -13.7785  -18.1429 N   0  0  0  0  0  0  0  0  0  0  0  0
   23.1926  -12.6536  -18.6966 C   0  0  1  0  0  0  0  0  0  0  0  0
   21.7632  -12.6946  -18.1613 C   0  0  0  0  0  0  0  0  0  0  0  0
   21.0999  -13.9219  -18.6688 C   0  0  0  0  0  0  0  0  0  0  0  0
   21.0218  -14.2928  -20.0089 C   0  0  0  0  0  0  0  0  0  0  0  0
   20.3551  -15.4497  -20.0940 N   0  0  0  0  0  0  0  0  0  0  0  0
   20.0040  -15.8312  -18.8501 C   0  0  0  0  0  0  0  0  0  0  0  0
   20.4688  -14.8822  -17.9864 N   0  0  0  0  0  0  0  0  0  0  0  0
   23.8005  -11.3592  -18.2829 C   0  0  0  0  0  0  0  0  0  0  0  0
   24.4240  -11.2803  -17.1954 O   0  0  0  0  0  0  0  0  0  0  0  0
   23.6543  -10.2407  -19.1421 N   0  0  0  0  0  0  0  0  0  0  0  0
   24.2953   -9.0042  -18.8030 C   0  0  1  0  0  0  0  0  0  0  0  0
   25.1743   -8.4054  -19.8397 C   0  0  0  0  0  0  0  0  0  0  0  0
   25.8008   -7.0991  -19.5573 C   0  0  0  0  0  0  0  0  0  0  0  0
   26.5649   -6.5065  -20.7032 C   0  0  0  0  0  0  0  0  0  0  0  0
   27.1359   -5.1769  -20.1668 C   0  0  0  0  0  0  0  0  0  0  0  0
   27.8908   -4.5771  -21.2462 N   0  0  0  0  0  0  0  0  0  0  0  0
   23.1564   -8.0344  -18.5278 C   0  0  0  0  0  0  0  0  0  0  0  0
   22.3142   -7.7364  -19.3984 O   0  0  0  0  0  0  0  0  0  0  0  0
   23.0693   -7.4652  -17.2372 N   0  0  0  0  0  0  0  0  0  0  0  0
   21.9531   -6.5194  -16.9061 C   0  0  1  0  0  0  0  0  0  0  0  0
   21.2551   -7.1582  -15.7734 C   0  0  0  0  0  0  0  0  0  0  0  0
   19.7855   -7.2077  -15.8712 C   0  0  0  0  0  0  0  0  0  0  0  0
   19.1028   -7.9459  -14.8161 C   0  0  0  0  0  0  0  0  0  0  0  0
   19.7614   -8.4187  -13.8475 O   0  0  0  0  0  0  0  0  0  0  0  0
   22.4604   -5.1728  -16.8036 C   0  0  0  0  0  0  0  0  0  0  0  0
   21.6068   -4.0711  -16.5857 O   0  0  0  0  0  0  0  0  0  0  0  0
   17.7149   -8.1277  -14.8728 O   0  0  0  0  0  0  0  0  0  0  0  0
   23.6691   -4.8947  -16.8992 O   0  0  0  0  0  0  0  0  0  0  0  0
  2  1  1  1
  2  3  1  0
  3  4  1  0
  4  8  1  0
  5  4  2  0
  5  6  1  0
  6  7  1  0
  8  7  2  0
  9 10  2  0
  9  2  1  0
 11  9  1  0
 12 13  1  6
 12 11  1  0
 13 14  1  0
 14 15  1  0
 15 16  1  0
 16 17  1  0
 18 12  1  0
 19 18  2  0
 20 18  1  0
 21 20  1  0
 21 22  1  1
 23 24  1  0
 23 22  1  0
 24 25  2  0
 26 27  1  0
 26 21  1  0
 28 24  1  0
 29 26  2  0
M  END
$$$$
