HKE.pdb
     RDKit          3D

 29 29  0  0  1  0  0  0  0  0999 V2000
   15.1961  -14.2113    5.4457 N   0  0  0  0  0  0  0  0  0  0  0  0
   16.4407  -14.9409    5.3645 C   0  0  1  0  0  0  0  0  0  0  0  0
   17.5195  -13.9828    4.8649 C   0  0  0  0  0  0  0  0  0  0  0  0
   17.9239  -14.3931    3.4968 C   0  0  0  0  0  0  0  0  0  0  0  0
   17.4342  -15.5063    2.8181 C   0  0  0  0  0  0  0  0  0  0  0  0
   18.0191  -15.5656    1.6162 N   0  0  0  0  0  0  0  0  0  0  0  0
   18.8681  -14.5250    1.5041 C   0  0  0  0  0  0  0  0  0  0  0  0
   18.7978  -13.8147    2.6674 N   0  0  0  0  0  0  0  0  0  0  0  0
   16.8629  -15.4525    6.6972 C   0  0  0  0  0  0  0  0  0  0  0  0
   16.6488  -14.7662    7.7271 O   0  0  0  0  0  0  0  0  0  0  0  0
   17.5024  -16.7164    6.7624 N   0  0  0  0  0  0  0  0  0  0  0  0
   17.9095  -17.2344    8.0355 C   0  0  1  0  0  0  0  0  0  0  0  0
   17.6979  -18.6873    8.2600 C   0  0  0  0  0  0  0  0  0  0  0  0
   16.4046  -19.1285    8.8182 C   0  0  0  0  0  0  0  0  0  0  0  0
   16.2760  -20.6094    9.0141 C   0  0  0  0  0  0  0  0  0  0  0  0
   14.8712  -20.8191    9.6175 C   0  0  0  0  0  0  0  0  0  0  0  0
   14.7588  -22.2246    9.9441 N   0  0  0  0  0  0  0  0  0  0  0  0
   19.4023  -16.9540    8.1140 C   0  0  0  0  0  0  0  0  0  0  0  0
   20.1526  -17.0745    7.1248 O   0  0  0  0  0  0  0  0  0  0  0  0
   19.9342  -16.5446    9.3577 N   0  0  0  0  0  0  0  0  0  0  0  0
   21.4017  -16.2649    9.4928 C   0  0  1  0  0  0  0  0  0  0  0  0
   21.4642  -14.9349   10.1296 C   0  0  0  0  0  0  0  0  0  0  0  0
   22.8150  -14.4388   10.4473 C   0  0  0  0  0  0  0  0  0  0  0  0
   22.8785  -13.1226   11.0702 C   0  0  0  0  0  0  0  0  0  0  0  0
   21.8136  -12.5062   11.3555 O   0  0  0  0  0  0  0  0  0  0  0  0
   22.0698  -17.4020   10.0773 C   0  0  0  0  0  0  0  0  0  0  0  0
   23.4521  -17.6229    9.9029 O   0  0  0  0  0  0  0  0  0  0  0  0
   24.1207  -12.5420   11.3574 O   0  0  0  0  0  0  0  0  0  0  0  0
   21.4807  -18.2542   10.7659 O   0  0  0  0  0  0  0  0  0  0  0  0
  2  1  1  1
  2  3  1  0
  3  4  1  0
  4  8  1  0
  5  4  2  0
  5  6  1  0
  6  7  1  0
  8  7  2  0
  9 10  2  0
  9  2  1  0
 11  9  1  0
 12 13  1  6
 12 11  1  0
 13 14  1  0
 14 15  1  0
 15 16  1  0
 16 17  1  0
 18 12  1  0
 19 18  2  0
 20 18  1  0
 21 20  1  0
 21 22  1  1
 23 24  1  0
 23 22  1  0
 24 25  2  0
 26 27  1  0
 26 21  1  0
 28 24  1  0
 29 26  2  0
M  END
$$$$
