HKE.pdb
     RDKit          3D

 29 29  0  0  1  0  0  0  0  0999 V2000
   24.2538  -17.4602  -19.7613 N   0  0  0  0  0  0  0  0  0  0  0  0
   23.8419  -17.1794  -18.4050 C   0  0  1  0  0  0  0  0  0  0  0  0
   22.6136  -16.2741  -18.4611 C   0  0  0  0  0  0  0  0  0  0  0  0
   23.0099  -14.9701  -19.0496 C   0  0  0  0  0  0  0  0  0  0  0  0
   22.6308  -14.5130  -20.3092 C   0  0  0  0  0  0  0  0  0  0  0  0
   23.1705  -13.3046  -20.5057 N   0  0  0  0  0  0  0  0  0  0  0  0
   23.8836  -12.9737  -19.4110 C   0  0  0  0  0  0  0  0  0  0  0  0
   23.7747  -14.0071  -18.5263 N   0  0  0  0  0  0  0  0  0  0  0  0
   23.4625  -18.4230  -17.6800 C   0  0  0  0  0  0  0  0  0  0  0  0
   22.6921  -19.2532  -18.2230 O   0  0  0  0  0  0  0  0  0  0  0  0
   23.9907  -18.6338  -16.3810 N   0  0  0  0  0  0  0  0  0  0  0  0
   23.6997  -19.8571  -15.6929 C   0  0  1  0  0  0  0  0  0  0  0  0
   24.8655  -20.6505  -15.2265 C   0  0  0  0  0  0  0  0  0  0  0  0
   26.0090  -20.8207  -16.1442 C   0  0  0  0  0  0  0  0  0  0  0  0
   27.0990  -21.7143  -15.6329 C   0  0  0  0  0  0  0  0  0  0  0  0
   28.1190  -21.8126  -16.7868 C   0  0  0  0  0  0  0  0  0  0  0  0
   29.1961  -22.6620  -16.3253 N   0  0  0  0  0  0  0  0  0  0  0  0
   22.8914  -19.4391  -14.4743 C   0  0  0  0  0  0  0  0  0  0  0  0
   22.9868  -18.3005  -13.9739 O   0  0  0  0  0  0  0  0  0  0  0  0
   22.0100  -20.3875  -13.9078 N   0  0  0  0  0  0  0  0  0  0  0  0
   20.5997  -19.9992  -13.5753 C   0  0  1  0  0  0  0  0  0  0  0  0
   20.2046  -19.0854  -14.6648 C   0  0  0  0  0  0  0  0  0  0  0  0
   18.8230  -18.5759  -14.6053 C   0  0  0  0  0  0  0  0  0  0  0  0
   18.6824  -17.1496  -14.3404 C   0  0  0  0  0  0  0  0  0  0  0  0
   18.0291  -16.7549  -13.3340 O   0  0  0  0  0  0  0  0  0  0  0  0
   19.8217  -21.1754  -13.2716 C   0  0  0  0  0  0  0  0  0  0  0  0
   18.8184  -21.1678  -12.2801 O   0  0  0  0  0  0  0  0  0  0  0  0
   19.2758  -16.2152  -15.1991 O   0  0  0  0  0  0  0  0  0  0  0  0
   19.9802  -22.2624  -13.8555 O   0  0  0  0  0  0  0  0  0  0  0  0
  2  1  1  6
  2  3  1  0
  3  4  1  0
  4  8  1  0
  5  4  2  0
  5  6  1  0
  6  7  1  0
  8  7  2  0
  9 10  2  0
  9  2  1  0
 11  9  1  0
 12 13  1  1
 12 11  1  0
 13 14  1  0
 14 15  1  0
 15 16  1  0
 16 17  1  0
 18 12  1  0
 19 18  2  0
 20 18  1  0
 21 20  1  0
 21 22  1  6
 23 24  1  0
 23 22  1  0
 24 25  2  0
 26 27  1  0
 26 21  1  0
 28 24  1  0
 29 26  2  0
M  END
$$$$
