HKE.pdb
     RDKit          3D

 29 29  0  0  1  0  0  0  0  0999 V2000
   23.8306  -10.9595  -17.8687 N   0  0  0  0  0  0  0  0  0  0  0  0
   23.4371  -10.4259  -16.5848 C   0  0  1  0  0  0  0  0  0  0  0  0
   24.5921   -9.5841  -16.0478 C   0  0  0  0  0  0  0  0  0  0  0  0
   25.7783  -10.4595  -15.8737 C   0  0  0  0  0  0  0  0  0  0  0  0
   27.0544  -10.1830  -16.3582 C   0  0  0  0  0  0  0  0  0  0  0  0
   27.8685  -11.1883  -16.0164 N   0  0  0  0  0  0  0  0  0  0  0  0
   27.1534  -12.1000  -15.3281 C   0  0  0  0  0  0  0  0  0  0  0  0
   25.8718  -11.6374  -15.2492 N   0  0  0  0  0  0  0  0  0  0  0  0
   22.2427   -9.5449  -16.7015 C   0  0  0  0  0  0  0  0  0  0  0  0
   22.1637   -8.7203  -17.6456 O   0  0  0  0  0  0  0  0  0  0  0  0
   21.2177   -9.6667  -15.7292 N   0  0  0  0  0  0  0  0  0  0  0  0
   19.9865   -8.9557  -15.9117 C   0  0  1  0  0  0  0  0  0  0  0  0
   18.7944   -9.5017  -15.2139 C   0  0  0  0  0  0  0  0  0  0  0  0
   18.2259  -10.7770  -15.6925 C   0  0  0  0  0  0  0  0  0  0  0  0
   17.1745  -11.3705  -14.8035 C   0  0  0  0  0  0  0  0  0  0  0  0
   16.8449  -12.7442  -15.4247 C   0  0  0  0  0  0  0  0  0  0  0  0
   15.9776  -13.4310  -14.4915 N   0  0  0  0  0  0  0  0  0  0  0  0
   20.2557   -7.5599  -15.3710 C   0  0  0  0  0  0  0  0  0  0  0  0
   20.7997   -7.3707  -14.2645 O   0  0  0  0  0  0  0  0  0  0  0  0
   19.8688   -6.4567  -16.1651 N   0  0  0  0  0  0  0  0  0  0  0  0
   19.9413   -5.0661  -15.6074 C   0  0  1  0  0  0  0  0  0  0  0  0
   20.6518   -4.2920  -16.6438 C   0  0  0  0  0  0  0  0  0  0  0  0
   20.8886   -2.8709  -16.3335 C   0  0  0  0  0  0  0  0  0  0  0  0
   21.6380   -2.1186  -17.3319 C   0  0  0  0  0  0  0  0  0  0  0  0
   21.9918   -2.6756  -18.4089 O   0  0  0  0  0  0  0  0  0  0  0  0
   18.6426   -4.6560  -15.1317 C   0  0  0  0  0  0  0  0  0  0  0  0
   18.4949   -3.7543  -14.0570 O   0  0  0  0  0  0  0  0  0  0  0  0
   21.9624   -0.7756  -17.1000 O   0  0  0  0  0  0  0  0  0  0  0  0
   17.5783   -5.0641  -15.6300 O   0  0  0  0  0  0  0  0  0  0  0  0
  2  1  1  6
  2  3  1  0
  3  4  1  0
  4  8  1  0
  5  4  2  0
  5  6  1  0
  6  7  1  0
  8  7  2  0
  9 10  2  0
  9  2  1  0
 11  9  1  0
 12 13  1  1
 12 11  1  0
 13 14  1  0
 14 15  1  0
 15 16  1  0
 16 17  1  0
 18 12  1  0
 19 18  2  0
 20 18  1  0
 21 20  1  0
 21 22  1  6
 23 24  1  0
 23 22  1  0
 24 25  2  0
 26 27  1  0
 26 21  1  0
 28 24  1  0
 29 26  2  0
M  END
$$$$
