HKE.pdb
     RDKit          3D

 29 29  0  0  1  0  0  0  0  0999 V2000
   23.7366  -23.9872  -19.7368 N   0  0  0  0  0  0  0  0  0  0  0  0
   23.2576  -22.6363  -19.9194 C   0  0  1  0  0  0  0  0  0  0  0  0
   21.8211  -22.7085  -20.4316 C   0  0  0  0  0  0  0  0  0  0  0  0
   21.8349  -23.2547  -21.8119 C   0  0  0  0  0  0  0  0  0  0  0  0
   22.0466  -22.5052  -22.9665 C   0  0  0  0  0  0  0  0  0  0  0  0
   21.9900  -23.3233  -24.0236 N   0  0  0  0  0  0  0  0  0  0  0  0
   21.7487  -24.5735  -23.5819 C   0  0  0  0  0  0  0  0  0  0  0  0
   21.6561  -24.5142  -22.2216 N   0  0  0  0  0  0  0  0  0  0  0  0
   23.2499  -21.8806  -18.6368 C   0  0  0  0  0  0  0  0  0  0  0  0
   22.8149  -22.4258  -17.5923 O   0  0  0  0  0  0  0  0  0  0  0  0
   23.7412  -20.5504  -18.6352 N   0  0  0  0  0  0  0  0  0  0  0  0
   23.8978  -19.8594  -17.3891 C   0  0  1  0  0  0  0  0  0  0  0  0
   24.8963  -18.7602  -17.3599 C   0  0  0  0  0  0  0  0  0  0  0  0
   25.8545  -18.6547  -18.4777 C   0  0  0  0  0  0  0  0  0  0  0  0
   26.8990  -17.5916  -18.3132 C   0  0  0  0  0  0  0  0  0  0  0  0
   27.7076  -17.6094  -19.6276 C   0  0  0  0  0  0  0  0  0  0  0  0
   28.7196  -16.5811  -19.5131 N   0  0  0  0  0  0  0  0  0  0  0  0
   22.5289  -19.2656  -17.0949 C   0  0  0  0  0  0  0  0  0  0  0  0
   21.8756  -18.6455  -17.9578 O   0  0  0  0  0  0  0  0  0  0  0  0
   21.9996  -19.4346  -15.7954 N   0  0  0  0  0  0  0  0  0  0  0  0
   20.6794  -18.8205  -15.4352 C   0  0  1  0  0  0  0  0  0  0  0  0
   19.7006  -19.5354  -16.2773 C   0  0  0  0  0  0  0  0  0  0  0  0
   18.2885  -19.1659  -16.0738 C   0  0  0  0  0  0  0  0  0  0  0  0
   17.3084  -19.9999  -16.7581 C   0  0  0  0  0  0  0  0  0  0  0  0
   17.6902  -20.8759  -17.5839 O   0  0  0  0  0  0  0  0  0  0  0  0
   20.5319  -18.7716  -14.0009 C   0  0  0  0  0  0  0  0  0  0  0  0
   19.5046  -18.0275  -13.3839 O   0  0  0  0  0  0  0  0  0  0  0  0
   15.9421  -19.8338  -16.4969 O   0  0  0  0  0  0  0  0  0  0  0  0
   21.2904  -19.3743  -13.2206 O   0  0  0  0  0  0  0  0  0  0  0  0
  2  1  1  1
  2  3  1  0
  3  4  1  0
  4  8  1  0
  5  4  2  0
  5  6  1  0
  6  7  1  0
  8  7  2  0
  9 10  2  0
  9  2  1  0
 11  9  1  0
 12 13  1  6
 12 11  1  0
 13 14  1  0
 14 15  1  0
 15 16  1  0
 16 17  1  0
 18 12  1  0
 19 18  2  0
 20 18  1  0
 21 20  1  0
 21 22  1  6
 23 24  1  0
 23 22  1  0
 24 25  2  0
 26 27  1  0
 26 21  1  0
 28 24  1  0
 29 26  2  0
M  END
$$$$
