HKE.pdb
     RDKit          3D

 29 29  0  0  1  0  0  0  0  0999 V2000
   13.5265  -24.0968   -7.0361 N   0  0  0  0  0  0  0  0  0  0  0  0
   13.4632  -23.4216   -5.7601 C   0  0  1  0  0  0  0  0  0  0  0  0
   12.1006  -22.7412   -5.6517 C   0  0  0  0  0  0  0  0  0  0  0  0
   12.0158  -21.6783   -6.6845 C   0  0  0  0  0  0  0  0  0  0  0  0
   11.1504  -21.6906   -7.7756 C   0  0  0  0  0  0  0  0  0  0  0  0
   11.3495  -20.5781   -8.4916 N   0  0  0  0  0  0  0  0  0  0  0  0
   12.3154  -19.8536   -7.8929 C   0  0  0  0  0  0  0  0  0  0  0  0
   12.7140  -20.5431   -6.7846 N   0  0  0  0  0  0  0  0  0  0  0  0
   13.5892  -24.3795   -4.6276 C   0  0  0  0  0  0  0  0  0  0  0  0
   12.7369  -25.2903   -4.4810 O   0  0  0  0  0  0  0  0  0  0  0  0
   14.6831  -24.2309   -3.7376 N   0  0  0  0  0  0  0  0  0  0  0  0
   14.8584  -25.1757   -2.6740 C   0  0  1  0  0  0  0  0  0  0  0  0
   15.7816  -26.3090   -2.9375 C   0  0  0  0  0  0  0  0  0  0  0  0
   15.3882  -27.3128   -3.9457 C   0  0  0  0  0  0  0  0  0  0  0  0
   16.3917  -28.4033   -4.1732 C   0  0  0  0  0  0  0  0  0  0  0  0
   15.7698  -29.3084   -5.2574 C   0  0  0  0  0  0  0  0  0  0  0  0
   16.6855  -30.4104   -5.4619 N   0  0  0  0  0  0  0  0  0  0  0  0
   15.4205  -24.3643   -1.5169 C   0  0  0  0  0  0  0  0  0  0  0  0
   16.3405  -23.5364   -1.6727 O   0  0  0  0  0  0  0  0  0  0  0  0
   14.8670  -24.5712   -0.2331 N   0  0  0  0  0  0  0  0  0  0  0  0
   15.4472  -23.8684    0.9583 C   0  0  1  0  0  0  0  0  0  0  0  0
   14.3456  -23.0222    1.4571 C   0  0  0  0  0  0  0  0  0  0  0  0
   14.6118  -22.2966    2.7119 C   0  0  0  0  0  0  0  0  0  0  0  0
   13.5531  -21.4039    3.1667 C   0  0  0  0  0  0  0  0  0  0  0  0
   12.4790  -21.3104    2.5088 O   0  0  0  0  0  0  0  0  0  0  0  0
   16.1047  -24.8192    1.8213 C   0  0  0  0  0  0  0  0  0  0  0  0
   17.0349  -24.4146    2.8015 O   0  0  0  0  0  0  0  0  0  0  0  0
   13.7241  -20.6524    4.3365 O   0  0  0  0  0  0  0  0  0  0  0  0
   15.8991  -26.0446    1.7610 O   0  0  0  0  0  0  0  0  0  0  0  0
  2  1  1  6
  2  3  1  0
  3  4  1  0
  4  8  1  0
  5  4  2  0
  5  6  1  0
  6  7  1  0
  8  7  2  0
  9 10  2  0
  9  2  1  0
 11  9  1  0
 12 13  1  6
 12 11  1  0
 13 14  1  0
 14 15  1  0
 15 16  1  0
 16 17  1  0
 18 12  1  0
 19 18  2  0
 20 18  1  0
 21 20  1  0
 21 22  1  1
 23 24  1  0
 23 22  1  0
 24 25  2  0
 26 27  1  0
 26 21  1  0
 28 24  1  0
 29 26  2  0
M  END
$$$$
