IDD.pdb
     RDKit          3D

 25 24  0  0  1  0  0  0  0  0999 V2000
   30.4085  -20.6524  -11.0882 C   0  0  0  0  0  0  0  0  0  0  0  0
   29.5779  -19.9076  -12.1079 C   0  0  0  0  0  0  0  0  0  0  0  0
   28.2651  -20.6103  -12.3236 C   0  0  2  0  0  0  0  0  0  0  0  0
   28.5876  -22.0357  -12.7090 C   0  0  0  0  0  0  0  0  0  0  0  0
   27.3698  -19.9283  -13.3122 C   0  0  2  0  0  0  0  0  0  0  0  0
   27.2865  -18.5108  -13.0110 N   0  0  0  0  0  0  0  0  0  0  0  0
   26.0304  -20.4863  -13.4144 C   0  0  0  0  0  0  0  0  0  0  0  0
   25.7393  -21.5929  -13.9352 O   0  0  0  0  0  0  0  0  0  0  0  0
   24.9300  -19.7496  -12.8936 N   0  0  0  0  0  0  0  0  0  0  0  0
   23.5606  -20.2132  -13.0193 C   0  0  1  0  0  0  0  0  0  0  0  0
   22.6680  -19.6568  -11.9452 C   0  0  0  0  0  0  0  0  0  0  0  0
   21.2956  -20.1684  -11.9737 C   0  0  0  0  0  0  0  0  0  0  0  0
   20.8195  -20.9699  -12.8121 O   0  0  0  0  0  0  0  0  0  0  0  0
   22.9947  -19.7699  -14.3376 C   0  0  0  0  0  0  0  0  0  0  0  0
   23.1505  -18.5696  -14.7137 O   0  0  0  0  0  0  0  0  0  0  0  0
   20.4280  -19.7283  -10.9779 O   0  0  0  0  0  0  0  0  0  0  0  0
   22.2849  -20.6672  -15.1790 N   0  0  0  0  0  0  0  0  0  0  0  0
   21.7592  -20.2479  -16.4468 C   0  0  1  0  0  0  0  0  0  0  0  0
   22.6500  -20.6560  -17.6013 C   0  0  0  0  0  0  0  0  0  0  0  0
   22.1342  -20.1806  -18.8950 C   0  0  0  0  0  0  0  0  0  0  0  0
   21.1572  -20.7940  -19.3961 O   0  0  0  0  0  0  0  0  0  0  0  0
   20.3610  -20.6801  -16.6539 C   0  0  0  0  0  0  0  0  0  0  0  0
   19.9419  -21.9946  -16.5669 O   0  0  0  0  0  0  0  0  0  0  0  0
   22.6448  -19.1050  -19.6054 O   0  0  0  0  0  0  0  0  0  0  0  0
   19.5034  -19.8044  -16.9245 O   0  0  0  0  0  0  0  0  0  0  0  0
  2  1  1  0
  3  2  1  0
  3  4  1  6
  5  3  1  0
  5  6  1  1
  7  5  1  0
  7  8  2  0
  9  7  1  0
 10  9  1  0
 10 11  1  1
 12 11  1  0
 13 12  2  0
 14 10  1  0
 14 17  1  0
 15 14  2  0
 16 12  1  0
 18 17  1  0
 18 22  1  0
 19 20  1  0
 18 19  1  6
 20 21  2  0
 22 23  1  0
 24 20  1  0
 25 22  2  0
M  END
$$$$
