IDD.pdb
     RDKit          3D

 25 24  0  0  1  0  0  0  0  0999 V2000
   18.3637  -13.4207  -16.5348 C   0  0  0  0  0  0  0  0  0  0  0  0
   19.2177  -12.2372  -16.1420 C   0  0  0  0  0  0  0  0  0  0  0  0
   18.5276  -10.9520  -16.5105 C   0  0  2  0  0  0  0  0  0  0  0  0
   18.2018  -11.0348  -17.9840 C   0  0  0  0  0  0  0  0  0  0  0  0
   19.3078   -9.7236  -16.1550 C   0  0  2  0  0  0  0  0  0  0  0  0
   19.5519   -9.6873  -14.7246 N   0  0  0  0  0  0  0  0  0  0  0  0
   18.7060   -8.4696  -16.5806 C   0  0  0  0  0  0  0  0  0  0  0  0
   18.4463   -8.1517  -17.7688 O   0  0  0  0  0  0  0  0  0  0  0  0
   18.3680   -7.4943  -15.6011 N   0  0  0  0  0  0  0  0  0  0  0  0
   17.7113   -6.2472  -15.9466 C   0  0  1  0  0  0  0  0  0  0  0  0
   16.8815   -5.7059  -14.8160 C   0  0  0  0  0  0  0  0  0  0  0  0
   15.6854   -6.4949  -14.5114 C   0  0  0  0  0  0  0  0  0  0  0  0
   15.3935   -7.0024  -13.4027 O   0  0  0  0  0  0  0  0  0  0  0  0
   18.7422   -5.2062  -16.2757 C   0  0  0  0  0  0  0  0  0  0  0  0
   19.8431   -5.1951  -15.6478 O   0  0  0  0  0  0  0  0  0  0  0  0
   14.7787   -6.7077  -15.5461 O   0  0  0  0  0  0  0  0  0  0  0  0
   18.5134   -4.2276  -17.2792 N   0  0  0  0  0  0  0  0  0  0  0  0
   19.5188   -3.2656  -17.6304 C   0  0  1  0  0  0  0  0  0  0  0  0
   19.2759   -2.6524  -18.9934 C   0  0  0  0  0  0  0  0  0  0  0  0
   19.4558   -3.6278  -20.0806 C   0  0  0  0  0  0  0  0  0  0  0  0
   20.4433   -4.4038  -20.0126 O   0  0  0  0  0  0  0  0  0  0  0  0
   19.7057   -2.2326  -16.5900 C   0  0  0  0  0  0  0  0  0  0  0  0
   20.9124   -1.6083  -16.3347 O   0  0  0  0  0  0  0  0  0  0  0  0
   18.6174   -3.7568  -21.1772 O   0  0  0  0  0  0  0  0  0  0  0  0
   18.7125   -1.9018  -15.8973 O   0  0  0  0  0  0  0  0  0  0  0  0
  2  1  1  0
  3  2  1  0
  3  4  1  6
  5  3  1  0
  5  6  1  1
  7  5  1  0
  7  8  2  0
  9  7  1  0
 10  9  1  0
 10 11  1  1
 12 11  1  0
 13 12  2  0
 14 10  1  0
 14 17  1  0
 15 14  2  0
 16 12  1  0
 18 17  1  0
 18 22  1  0
 19 20  1  0
 18 19  1  6
 20 21  2  0
 22 23  1  0
 24 20  1  0
 25 22  2  0
M  END
$$$$
