IDD.pdb
     RDKit          3D

 25 24  0  0  1  0  0  0  0  0999 V2000
   15.5635  -15.9547  -15.6768 C   0  0  0  0  0  0  0  0  0  0  0  0
   15.6765  -14.6200  -14.9767 C   0  0  0  0  0  0  0  0  0  0  0  0
   16.7031  -13.7586  -15.6607 C   0  0  2  0  0  0  0  0  0  0  0  0
   17.9997  -14.5353  -15.6598 C   0  0  0  0  0  0  0  0  0  0  0  0
   16.8424  -12.3929  -15.0611 C   0  0  2  0  0  0  0  0  0  0  0  0
   15.5712  -11.6942  -15.1172 N   0  0  0  0  0  0  0  0  0  0  0  0
   17.8819  -11.5655  -15.6533 C   0  0  0  0  0  0  0  0  0  0  0  0
   19.0917  -11.8868  -15.7696 O   0  0  0  0  0  0  0  0  0  0  0  0
   17.5425  -10.2779  -16.1550 N   0  0  0  0  0  0  0  0  0  0  0  0
   18.5394   -9.3697  -16.6910 C   0  0  1  0  0  0  0  0  0  0  0  0
   18.0650   -8.6688  -17.9334 C   0  0  0  0  0  0  0  0  0  0  0  0
   17.9232   -9.5396  -19.1028 C   0  0  0  0  0  0  0  0  0  0  0  0
   16.9497   -9.5694  -19.8924 O   0  0  0  0  0  0  0  0  0  0  0  0
   18.8540   -8.3075  -15.6774 C   0  0  0  0  0  0  0  0  0  0  0  0
   17.9402   -7.8890  -14.9052 O   0  0  0  0  0  0  0  0  0  0  0  0
   18.9645  -10.4234  -19.3724 O   0  0  0  0  0  0  0  0  0  0  0  0
   20.1578   -7.7565  -15.5612 N   0  0  0  0  0  0  0  0  0  0  0  0
   20.4333   -6.6655  -14.6704 C   0  0  1  0  0  0  0  0  0  0  0  0
   21.8952   -6.5961  -14.2821 C   0  0  0  0  0  0  0  0  0  0  0  0
   22.1820   -5.4511  -13.4032 C   0  0  0  0  0  0  0  0  0  0  0  0
   21.8803   -5.5577  -12.1868 O   0  0  0  0  0  0  0  0  0  0  0  0
   19.9413   -5.3710  -15.1872 C   0  0  0  0  0  0  0  0  0  0  0  0
   19.3390   -4.4079  -14.3995 O   0  0  0  0  0  0  0  0  0  0  0  0
   22.7610   -4.2607  -13.8151 O   0  0  0  0  0  0  0  0  0  0  0  0
   20.0775   -5.1309  -16.4117 O   0  0  0  0  0  0  0  0  0  0  0  0
  2  1  1  0
  3  2  1  0
  3  4  1  1
  5  3  1  0
  5  6  1  6
  7  5  1  0
  7  8  2  0
  9  7  1  0
 10  9  1  0
 10 11  1  6
 12 11  1  0
 13 12  2  0
 14 10  1  0
 14 17  1  0
 15 14  2  0
 16 12  1  0
 18 17  1  0
 18 22  1  0
 19 20  1  0
 18 19  1  6
 20 21  2  0
 22 23  1  0
 24 20  1  0
 25 22  2  0
M  END
$$$$
