IDD.pdb
     RDKit          3D

 25 24  0  0  1  0  0  0  0  0999 V2000
   27.0005  -19.6072   -6.9405 C   0  0  0  0  0  0  0  0  0  0  0  0
   27.2932  -20.6045   -8.0377 C   0  0  0  0  0  0  0  0  0  0  0  0
   26.7233  -20.1234   -9.3444 C   0  0  2  0  0  0  0  0  0  0  0  0
   26.7711  -18.6130   -9.3152 C   0  0  0  0  0  0  0  0  0  0  0  0
   25.3551  -20.6568   -9.6401 C   0  0  2  0  0  0  0  0  0  0  0  0
   25.3461  -22.1021   -9.5055 N   0  0  0  0  0  0  0  0  0  0  0  0
   24.8180  -20.2831  -10.9392 C   0  0  0  0  0  0  0  0  0  0  0  0
   24.1362  -19.2542  -11.1777 O   0  0  0  0  0  0  0  0  0  0  0  0
   25.0621  -21.1256  -12.0596 N   0  0  0  0  0  0  0  0  0  0  0  0
   24.5605  -20.8136  -13.3852 C   0  0  1  0  0  0  0  0  0  0  0  0
   25.4666  -21.3195  -14.4728 C   0  0  0  0  0  0  0  0  0  0  0  0
   26.7864  -20.6845  -14.5051 C   0  0  0  0  0  0  0  0  0  0  0  0
   27.0172  -19.4581  -14.6254 O   0  0  0  0  0  0  0  0  0  0  0  0
   23.2225  -21.4647  -13.5866 C   0  0  0  0  0  0  0  0  0  0  0  0
   22.9263  -22.5042  -12.9248 O   0  0  0  0  0  0  0  0  0  0  0  0
   27.8985  -21.5142  -14.3921 O   0  0  0  0  0  0  0  0  0  0  0  0
   22.2744  -20.9417  -14.5056 N   0  0  0  0  0  0  0  0  0  0  0  0
   20.8629  -21.0666  -14.2781 C   0  0  1  0  0  0  0  0  0  0  0  0
   20.4510  -20.5380  -12.9203 C   0  0  0  0  0  0  0  0  0  0  0  0
   19.0032  -20.6680  -12.6903 C   0  0  0  0  0  0  0  0  0  0  0  0
   18.4096  -21.6353  -13.2322 O   0  0  0  0  0  0  0  0  0  0  0  0
   20.0567  -20.4726  -15.3653 C   0  0  0  0  0  0  0  0  0  0  0  0
   18.9253  -21.0646  -15.8948 O   0  0  0  0  0  0  0  0  0  0  0  0
   18.2418  -19.8029  -11.9196 O   0  0  0  0  0  0  0  0  0  0  0  0
   20.4190  -19.3668  -15.8360 O   0  0  0  0  0  0  0  0  0  0  0  0
  2  1  1  0
  3  2  1  0
  3  4  1  1
  5  3  1  0
  5  6  1  6
  7  5  1  0
  7  8  2  0
  9  7  1  0
 10  9  1  0
 10 11  1  6
 12 11  1  0
 13 12  2  0
 14 10  1  0
 14 17  1  0
 15 14  2  0
 16 12  1  0
 18 17  1  0
 18 22  1  0
 19 20  1  0
 18 19  1  1
 20 21  2  0
 22 23  1  0
 24 20  1  0
 25 22  2  0
M  END
$$$$
