IDD.pdb
     RDKit          3D

 25 24  0  0  1  0  0  0  0  0999 V2000
   23.3991  -14.8399  -14.2695 C   0  0  0  0  0  0  0  0  0  0  0  0
   23.7240  -14.6551  -15.7339 C   0  0  0  0  0  0  0  0  0  0  0  0
   23.2033  -13.3297  -16.2196 C   0  0  2  0  0  0  0  0  0  0  0  0
   23.7977  -12.2684  -15.3224 C   0  0  0  0  0  0  0  0  0  0  0  0
   21.7089  -13.2582  -16.2946 C   0  0  2  0  0  0  0  0  0  0  0  0
   21.1991  -14.3564  -17.0952 N   0  0  0  0  0  0  0  0  0  0  0  0
   21.1789  -11.9999  -16.7962 C   0  0  0  0  0  0  0  0  0  0  0  0
   21.4589  -11.4818  -17.9069 O   0  0  0  0  0  0  0  0  0  0  0  0
   20.2641  -11.2628  -15.9933 N   0  0  0  0  0  0  0  0  0  0  0  0
   19.7074   -9.9934  -16.4230 C   0  0  1  0  0  0  0  0  0  0  0  0
   18.2094  -10.0373  -16.5421 C   0  0  0  0  0  0  0  0  0  0  0  0
   17.6070   -8.8059  -17.0585 C   0  0  0  0  0  0  0  0  0  0  0  0
   18.0459   -8.1029  -17.9993 O   0  0  0  0  0  0  0  0  0  0  0  0
   20.0396   -8.9284  -15.4180 C   0  0  0  0  0  0  0  0  0  0  0  0
   19.9414   -9.1833  -14.1804 O   0  0  0  0  0  0  0  0  0  0  0  0
   16.4336   -8.3649  -16.4531 O   0  0  0  0  0  0  0  0  0  0  0  0
   20.4639   -7.6346  -15.8218 N   0  0  0  0  0  0  0  0  0  0  0  0
   20.7199   -6.5973  -14.8635 C   0  0  1  0  0  0  0  0  0  0  0  0
   22.0737   -5.9500  -15.0656 C   0  0  0  0  0  0  0  0  0  0  0  0
   22.3392   -4.8974  -14.0721 C   0  0  0  0  0  0  0  0  0  0  0  0
   22.5611   -3.7346  -14.4971 O   0  0  0  0  0  0  0  0  0  0  0  0
   19.6356   -5.5944  -14.8075 C   0  0  0  0  0  0  0  0  0  0  0  0
   18.5457   -5.5925  -15.6580 O   0  0  0  0  0  0  0  0  0  0  0  0
   22.3635   -5.0904  -12.6994 O   0  0  0  0  0  0  0  0  0  0  0  0
   19.7069   -4.6917  -13.9383 O   0  0  0  0  0  0  0  0  0  0  0  0
  2  1  1  0
  3  2  1  0
  3  4  1  1
  5  3  1  0
  5  6  1  6
  7  5  1  0
  7  8  2  0
  9  7  1  0
 10  9  1  0
 10 11  1  1
 12 11  1  0
 13 12  2  0
 14 10  1  0
 14 17  1  0
 15 14  2  0
 16 12  1  0
 18 17  1  0
 18 22  1  0
 19 20  1  0
 18 19  1  6
 20 21  2  0
 22 23  1  0
 24 20  1  0
 25 22  2  0
M  END
$$$$
