IDD.pdb
     RDKit          3D

 25 24  0  0  1  0  0  0  0  0999 V2000
   25.3598  -13.1223  -15.6755 C   0  0  0  0  0  0  0  0  0  0  0  0
   24.2229  -12.3910  -16.3513 C   0  0  0  0  0  0  0  0  0  0  0  0
   23.6429  -11.3587  -15.4231 C   0  0  2  0  0  0  0  0  0  0  0  0
   23.0643  -12.1044  -14.2426 C   0  0  0  0  0  0  0  0  0  0  0  0
   22.6516  -10.4461  -16.0777 C   0  0  2  0  0  0  0  0  0  0  0  0
   23.2138   -9.8957  -17.2975 N   0  0  0  0  0  0  0  0  0  0  0  0
   22.1606   -9.3670  -15.2349 C   0  0  0  0  0  0  0  0  0  0  0  0
   21.5059   -9.5125  -14.1716 O   0  0  0  0  0  0  0  0  0  0  0  0
   22.4221   -8.0195  -15.6101 N   0  0  0  0  0  0  0  0  0  0  0  0
   21.8273   -6.8940  -14.9134 C   0  0  1  0  0  0  0  0  0  0  0  0
   22.8433   -5.8502  -14.5418 C   0  0  0  0  0  0  0  0  0  0  0  0
   22.2989   -4.7155  -13.7920 C   0  0  0  0  0  0  0  0  0  0  0  0
   21.9099   -4.7314  -12.6002 O   0  0  0  0  0  0  0  0  0  0  0  0
   20.8138   -6.2282  -15.7991 C   0  0  0  0  0  0  0  0  0  0  0  0
   21.1366   -5.8939  -16.9782 O   0  0  0  0  0  0  0  0  0  0  0  0
   22.1996   -3.4971  -14.4581 O   0  0  0  0  0  0  0  0  0  0  0  0
   19.4944   -5.9622  -15.3460 N   0  0  0  0  0  0  0  0  0  0  0  0
   18.5323   -5.3064  -16.1851 C   0  0  1  0  0  0  0  0  0  0  0  0
   17.3372   -6.1865  -16.4853 C   0  0  0  0  0  0  0  0  0  0  0  0
   16.4019   -5.5500  -17.4264 C   0  0  0  0  0  0  0  0  0  0  0  0
   16.7319   -4.4404  -17.9182 O   0  0  0  0  0  0  0  0  0  0  0  0
   18.1231   -3.9874  -15.6581 C   0  0  0  0  0  0  0  0  0  0  0  0
   18.5864   -3.4578  -14.4682 O   0  0  0  0  0  0  0  0  0  0  0  0
   15.1813   -6.0817  -17.8131 O   0  0  0  0  0  0  0  0  0  0  0  0
   17.3081   -3.3078  -16.3285 O   0  0  0  0  0  0  0  0  0  0  0  0
  2  1  1  0
  3  2  1  0
  3  4  1  1
  5  3  1  0
  5  6  1  6
  7  5  1  0
  7  8  2  0
  9  7  1  0
 10  9  1  0
 10 11  1  6
 12 11  1  0
 13 12  2  0
 14 10  1  0
 14 17  1  0
 15 14  2  0
 16 12  1  0
 18 17  1  0
 18 22  1  0
 19 20  1  0
 18 19  1  1
 20 21  2  0
 22 23  1  0
 24 20  1  0
 25 22  2  0
M  END
$$$$
