IDD.pdb
     RDKit          3D

 25 24  0  0  1  0  0  0  0  0999 V2000
   20.2749  -14.3519  -16.9712 C   0  0  0  0  0  0  0  0  0  0  0  0
   18.9227  -13.8862  -17.4599 C   0  0  0  0  0  0  0  0  0  0  0  0
   18.9296  -12.3963  -17.6696 C   0  0  2  0  0  0  0  0  0  0  0  0
   20.0059  -12.1008  -18.6888 C   0  0  0  0  0  0  0  0  0  0  0  0
   19.0929  -11.6088  -16.4058 C   0  0  2  0  0  0  0  0  0  0  0  0
   18.0928  -12.0150  -15.4353 N   0  0  0  0  0  0  0  0  0  0  0  0
   19.0539  -10.1644  -16.5731 C   0  0  0  0  0  0  0  0  0  0  0  0
   19.8702   -9.4861  -17.2469 O   0  0  0  0  0  0  0  0  0  0  0  0
   18.0214   -9.4197  -15.9373 N   0  0  0  0  0  0  0  0  0  0  0  0
   17.8618   -7.9915  -16.1395 C   0  0  1  0  0  0  0  0  0  0  0  0
   16.4453   -7.5381  -15.9211 C   0  0  0  0  0  0  0  0  0  0  0  0
   15.4862   -8.0565  -16.8997 C   0  0  0  0  0  0  0  0  0  0  0  0
   15.4694   -7.8045  -18.1277 O   0  0  0  0  0  0  0  0  0  0  0  0
   18.7210   -7.2425  -15.1620 C   0  0  0  0  0  0  0  0  0  0  0  0
   19.1619   -7.8365  -14.1329 O   0  0  0  0  0  0  0  0  0  0  0  0
   14.4936   -8.9126  -16.4311 O   0  0  0  0  0  0  0  0  0  0  0  0
   19.0543   -5.8766  -15.3629 N   0  0  0  0  0  0  0  0  0  0  0  0
   20.0257   -5.2138  -14.5402 C   0  0  1  0  0  0  0  0  0  0  0  0
   21.3592   -5.9311  -14.5349 C   0  0  0  0  0  0  0  0  0  0  0  0
   22.3664   -5.2237  -13.7281 C   0  0  0  0  0  0  0  0  0  0  0  0
   23.0239   -4.3077  -14.2854 O   0  0  0  0  0  0  0  0  0  0  0  0
   20.1745   -3.7823  -14.8768 C   0  0  0  0  0  0  0  0  0  0  0  0
   20.3450   -2.7849  -13.9349 O   0  0  0  0  0  0  0  0  0  0  0  0
   22.6465   -5.4909  -12.3968 O   0  0  0  0  0  0  0  0  0  0  0  0
   20.1445   -3.4514  -16.0873 O   0  0  0  0  0  0  0  0  0  0  0  0
  2  1  1  0
  3  2  1  0
  3  4  1  6
  5  3  1  0
  5  6  1  1
  7  5  1  0
  7  8  2  0
  9  7  1  0
 10  9  1  0
 10 11  1  1
 12 11  1  0
 13 12  2  0
 14 10  1  0
 14 17  1  0
 15 14  2  0
 16 12  1  0
 18 17  1  0
 18 22  1  0
 19 20  1  0
 18 19  1  6
 20 21  2  0
 22 23  1  0
 24 20  1  0
 25 22  2  0
M  END
$$$$
