IDD.pdb
     RDKit          3D

 25 24  0  0  1  0  0  0  0  0999 V2000
   10.4252  -13.1671  -12.8949 C   0  0  0  0  0  0  0  0  0  0  0  0
   11.5219  -13.8021  -13.7183 C   0  0  0  0  0  0  0  0  0  0  0  0
   12.8394  -13.1330  -13.4354 C   0  0  2  0  0  0  0  0  0  0  0  0
   12.6568  -11.6614  -13.7276 C   0  0  0  0  0  0  0  0  0  0  0  0
   13.9942  -13.7345  -14.1761 C   0  0  2  0  0  0  0  0  0  0  0  0
   14.1308  -15.1370  -13.8278 N   0  0  0  0  0  0  0  0  0  0  0  0
   15.2668  -13.0566  -13.9842 C   0  0  0  0  0  0  0  0  0  0  0  0
   16.0473  -13.2318  -13.0144 O   0  0  0  0  0  0  0  0  0  0  0  0
   15.7010  -12.1084  -14.9523 N   0  0  0  0  0  0  0  0  0  0  0  0
   16.8881  -11.2961  -14.7604 C   0  0  1  0  0  0  0  0  0  0  0  0
   17.9720  -11.6257  -15.7486 C   0  0  0  0  0  0  0  0  0  0  0  0
   19.2494  -10.9563  -15.4914 C   0  0  0  0  0  0  0  0  0  0  0  0
   19.5131  -10.2084  -14.5203 O   0  0  0  0  0  0  0  0  0  0  0  0
   16.5455   -9.8462  -14.9478 C   0  0  0  0  0  0  0  0  0  0  0  0
   15.8522   -9.4910  -15.9475 O   0  0  0  0  0  0  0  0  0  0  0  0
   20.2766  -11.1641  -16.4077 O   0  0  0  0  0  0  0  0  0  0  0  0
   16.9814   -8.8565  -14.0271 N   0  0  0  0  0  0  0  0  0  0  0  0
   16.7202   -7.4625  -14.2465 C   0  0  1  0  0  0  0  0  0  0  0  0
   16.1191   -6.7921  -13.0291 C   0  0  0  0  0  0  0  0  0  0  0  0
   15.8577   -5.3618  -13.2558 C   0  0  0  0  0  0  0  0  0  0  0  0
   15.8326   -4.9532  -14.4451 O   0  0  0  0  0  0  0  0  0  0  0  0
   17.9054   -6.7333  -14.7448 C   0  0  0  0  0  0  0  0  0  0  0  0
   17.8385   -5.5334  -15.4281 O   0  0  0  0  0  0  0  0  0  0  0  0
   15.6363   -4.4277  -12.2555 O   0  0  0  0  0  0  0  0  0  0  0  0
   19.0389   -7.2307  -14.5362 O   0  0  0  0  0  0  0  0  0  0  0  0
  2  1  1  0
  3  2  1  0
  3  4  1  6
  5  3  1  0
  5  6  1  1
  7  5  1  0
  7  8  2  0
  9  7  1  0
 10  9  1  0
 10 11  1  6
 12 11  1  0
 13 12  2  0
 14 10  1  0
 14 17  1  0
 15 14  2  0
 16 12  1  0
 18 17  1  0
 18 22  1  0
 19 20  1  0
 18 19  1  1
 20 21  2  0
 22 23  1  0
 24 20  1  0
 25 22  2  0
M  END
$$$$
