IDD.pdb
     RDKit          3D

 25 24  0  0  1  0  0  0  0  0999 V2000
   26.5971  -21.4027   -9.1384 C   0  0  0  0  0  0  0  0  0  0  0  0
   25.5264  -20.3804   -9.4430 C   0  0  0  0  0  0  0  0  0  0  0  0
   24.8051  -20.7443  -10.7123 C   0  0  2  0  0  0  0  0  0  0  0  0
   25.8603  -20.9437  -11.7759 C   0  0  0  0  0  0  0  0  0  0  0  0
   23.7532  -19.7564  -11.1141 C   0  0  2  0  0  0  0  0  0  0  0  0
   22.8224  -19.5498  -10.0196 N   0  0  0  0  0  0  0  0  0  0  0  0
   23.0193  -20.0985  -12.3225 C   0  0  0  0  0  0  0  0  0  0  0  0
   23.5334  -20.4792  -13.4047 O   0  0  0  0  0  0  0  0  0  0  0  0
   21.5991  -20.0079  -12.3211 N   0  0  0  0  0  0  0  0  0  0  0  0
   20.8015  -20.3535  -13.4831 C   0  0  1  0  0  0  0  0  0  0  0  0
   19.3562  -20.5803  -13.1373 C   0  0  0  0  0  0  0  0  0  0  0  0
   19.1290  -21.6379  -12.1494 C   0  0  0  0  0  0  0  0  0  0  0  0
   18.5834  -21.5020  -11.0288 O   0  0  0  0  0  0  0  0  0  0  0  0
   20.8463  -19.2316  -14.4801 C   0  0  0  0  0  0  0  0  0  0  0  0
   20.6773  -18.0384  -14.0876 O   0  0  0  0  0  0  0  0  0  0  0  0
   19.5565  -22.9216  -12.4768 O   0  0  0  0  0  0  0  0  0  0  0  0
   21.0749  -19.4752  -15.8605 N   0  0  0  0  0  0  0  0  0  0  0  0
   21.2297  -18.3976  -16.7956 C   0  0  1  0  0  0  0  0  0  0  0  0
   22.6048  -18.3801  -17.4293 C   0  0  0  0  0  0  0  0  0  0  0  0
   22.7991  -17.2105  -18.3010 C   0  0  0  0  0  0  0  0  0  0  0  0
   21.8627  -16.3739  -18.3744 O   0  0  0  0  0  0  0  0  0  0  0  0
   20.1572  -18.3683  -17.8123 C   0  0  0  0  0  0  0  0  0  0  0  0
   19.0678  -17.5191  -17.7560 O   0  0  0  0  0  0  0  0  0  0  0  0
   23.9387  -16.9598  -19.0497 O   0  0  0  0  0  0  0  0  0  0  0  0
   20.2387  -19.1594  -18.7834 O   0  0  0  0  0  0  0  0  0  0  0  0
  2  1  1  0
  3  2  1  0
  3  4  1  6
  5  3  1  0
  5  6  1  1
  7  5  1  0
  7  8  2  0
  9  7  1  0
 10  9  1  0
 10 11  1  1
 12 11  1  0
 13 12  2  0
 14 10  1  0
 14 17  1  0
 15 14  2  0
 16 12  1  0
 18 17  1  0
 18 22  1  0
 19 20  1  0
 18 19  1  6
 20 21  2  0
 22 23  1  0
 24 20  1  0
 25 22  2  0
M  END
$$$$
