IDD.pdb
     RDKit          3D

 25 24  0  0  1  0  0  0  0  0999 V2000
   28.6332  -18.7984  -17.5996 C   0  0  0  0  0  0  0  0  0  0  0  0
   28.2975  -19.6573  -16.4021 C   0  0  0  0  0  0  0  0  0  0  0  0
   26.8082  -19.6997  -16.1929 C   0  0  2  0  0  0  0  0  0  0  0  0
   26.3594  -18.2792  -15.9378 C   0  0  0  0  0  0  0  0  0  0  0  0
   26.3758  -20.6487  -15.1175 C   0  0  2  0  0  0  0  0  0  0  0  0
   26.9721  -21.9536  -15.3379 N   0  0  0  0  0  0  0  0  0  0  0  0
   24.9360  -20.7883  -14.9645 C   0  0  0  0  0  0  0  0  0  0  0  0
   24.1795  -21.4302  -15.7367 O   0  0  0  0  0  0  0  0  0  0  0  0
   24.2911  -20.1612  -13.8619 N   0  0  0  0  0  0  0  0  0  0  0  0
   22.8483  -20.1649  -13.7062 C   0  0  1  0  0  0  0  0  0  0  0  0
   22.4256  -19.8873  -12.2905 C   0  0  0  0  0  0  0  0  0  0  0  0
   21.9128  -21.0562  -11.5717 C   0  0  0  0  0  0  0  0  0  0  0  0
   21.6060  -21.1049  -10.3571 O   0  0  0  0  0  0  0  0  0  0  0  0
   22.2434  -19.0927  -14.5661 C   0  0  0  0  0  0  0  0  0  0  0  0
   22.9913  -18.2121  -15.0871 O   0  0  0  0  0  0  0  0  0  0  0  0
   21.7463  -22.2318  -12.2985 O   0  0  0  0  0  0  0  0  0  0  0  0
   20.8456  -19.0404  -14.8119 N   0  0  0  0  0  0  0  0  0  0  0  0
   20.3242  -18.6568  -16.0928 C   0  0  1  0  0  0  0  0  0  0  0  0
   21.3720  -18.7266  -17.1837 C   0  0  0  0  0  0  0  0  0  0  0  0
   21.7006  -17.3974  -17.7231 C   0  0  0  0  0  0  0  0  0  0  0  0
   21.1114  -16.4030  -17.2271 O   0  0  0  0  0  0  0  0  0  0  0  0
   19.1028  -19.4053  -16.4571 C   0  0  0  0  0  0  0  0  0  0  0  0
   18.0293  -18.8462  -17.1249 O   0  0  0  0  0  0  0  0  0  0  0  0
   22.6127  -17.1571  -18.7392 O   0  0  0  0  0  0  0  0  0  0  0  0
   19.0348  -20.6186  -16.1427 O   0  0  0  0  0  0  0  0  0  0  0  0
  2  1  1  0
  3  2  1  0
  3  4  1  1
  5  3  1  0
  5  6  1  6
  7  5  1  0
  7  8  2  0
  9  7  1  0
 10  9  1  0
 10 11  1  1
 12 11  1  0
 13 12  2  0
 14 10  1  0
 14 17  1  0
 15 14  2  0
 16 12  1  0
 18 17  1  0
 18 22  1  0
 19 20  1  0
 18 19  1  6
 20 21  2  0
 22 23  1  0
 24 20  1  0
 25 22  2  0
M  END
$$$$
