IDD.pdb
     RDKit          3D

 25 24  0  0  1  0  0  0  0  0999 V2000
   29.2579  -13.9856  -16.6248 C   0  0  0  0  0  0  0  0  0  0  0  0
   27.8588  -13.5006  -16.3221 C   0  0  0  0  0  0  0  0  0  0  0  0
   27.7512  -12.0233  -16.5864 C   0  0  2  0  0  0  0  0  0  0  0  0
   28.7506  -11.3408  -15.6811 C   0  0  0  0  0  0  0  0  0  0  0  0
   26.3629  -11.4816  -16.4339 C   0  0  2  0  0  0  0  0  0  0  0  0
   25.4214  -12.3191  -17.1544 N   0  0  0  0  0  0  0  0  0  0  0  0
   26.1965  -10.0954  -16.8422 C   0  0  0  0  0  0  0  0  0  0  0  0
   26.7651   -9.1065  -16.3139 O   0  0  0  0  0  0  0  0  0  0  0  0
   25.3263   -9.7908  -17.9261 N   0  0  0  0  0  0  0  0  0  0  0  0
   25.1353   -8.4348  -18.4063 C   0  0  1  0  0  0  0  0  0  0  0  0
   24.7710   -8.3907  -19.8641 C   0  0  0  0  0  0  0  0  0  0  0  0
   25.8224   -8.8687  -20.7653 C   0  0  0  0  0  0  0  0  0  0  0  0
   27.0174   -8.4895  -20.7788 O   0  0  0  0  0  0  0  0  0  0  0  0
   24.0130   -7.7833  -17.6507 C   0  0  0  0  0  0  0  0  0  0  0  0
   23.0070   -8.4731  -17.3063 O   0  0  0  0  0  0  0  0  0  0  0  0
   25.4712   -9.8378  -21.7009 O   0  0  0  0  0  0  0  0  0  0  0  0
   24.0506   -6.4051  -17.3099 N   0  0  0  0  0  0  0  0  0  0  0  0
   23.0436   -5.8117  -16.4771 C   0  0  1  0  0  0  0  0  0  0  0  0
   22.9046   -6.5238  -15.1480 C   0  0  0  0  0  0  0  0  0  0  0  0
   21.9128   -5.8778  -14.2736 C   0  0  0  0  0  0  0  0  0  0  0  0
   20.6960   -6.0623  -14.5332 O   0  0  0  0  0  0  0  0  0  0  0  0
   23.2351   -4.3566  -16.3020 C   0  0  0  0  0  0  0  0  0  0  0  0
   22.2990   -3.5227  -15.7195 O   0  0  0  0  0  0  0  0  0  0  0  0
   22.2184   -5.0789  -13.1824 O   0  0  0  0  0  0  0  0  0  0  0  0
   24.3092   -3.8470  -16.7050 O   0  0  0  0  0  0  0  0  0  0  0  0
  2  1  1  0
  3  2  1  0
  3  4  1  1
  5  3  1  0
  5  6  1  6
  7  5  1  0
  7  8  2  0
  9  7  1  0
 10  9  1  0
 10 11  1  6
 12 11  1  0
 13 12  2  0
 14 10  1  0
 14 17  1  0
 15 14  2  0
 16 12  1  0
 18 17  1  0
 18 22  1  0
 19 20  1  0
 18 19  1  1
 20 21  2  0
 22 23  1  0
 24 20  1  0
 25 22  2  0
M  END
$$$$
