CVN.pdb
     RDKit          3D

 22 21  0  0  1  0  0  0  0  0999 V2000
    6.9315  -15.5646   20.6046 N   0  0  0  0  0  0  0  0  0  0  0  0
    6.5139  -15.7536   21.9690 C   0  0  1  0  0  0  0  0  0  0  0  0
    6.5821  -17.2482   22.2728 C   0  0  0  0  0  0  0  0  0  0  0  0
    5.9726  -17.5584   23.9616 S   0  0  0  0  0  0  0  0  0  0  0  0
    7.2885  -14.9722   22.9491 C   0  0  0  0  0  0  0  0  0  0  0  0
    8.5181  -14.7667   22.6620 O   0  0  0  0  0  0  0  0  0  0  0  0
    5.9856  -13.6733   26.8409 C   0  0  0  0  0  0  0  0  0  0  0  0
    6.7764  -12.7621   25.9325 C   0  0  1  0  0  0  0  0  0  0  0  0
    7.6367  -11.8327   26.7426 C   0  0  0  0  0  0  0  0  0  0  0  0
    7.5795  -13.6207   24.9791 C   0  0  2  0  0  0  0  0  0  0  0  0
    6.7560  -14.4524   24.1562 N   0  0  0  0  0  0  0  0  0  0  0  0
    8.6064  -14.4188   25.7128 C   0  0  0  0  0  0  0  0  0  0  0  0
    9.3615  -13.8656   26.5734 O   0  0  0  0  0  0  0  0  0  0  0  0
    7.0937  -18.7460   27.1459 N   0  0  0  0  0  0  0  0  0  0  0  0
    8.3582  -18.1496   27.3547 C   0  0  0  0  0  0  0  0  0  0  0  0
    8.5729  -17.7357   28.5458 O   0  0  0  0  0  0  0  0  0  0  0  0
    9.4247  -17.9613   26.3808 C   0  0  0  0  0  0  0  0  0  0  0  0
    9.8818  -16.5375   26.1791 C   0  0  2  0  0  0  0  0  0  0  0  0
    8.8118  -15.8049   25.5149 N   0  0  0  0  0  0  0  0  0  0  0  0
   11.1287  -16.5210   25.4026 C   0  0  0  0  0  0  0  0  0  0  0  0
   11.2025  -15.9722   24.2940 O   0  0  0  0  0  0  0  0  0  0  0  0
   12.2474  -17.1355   25.9288 O   0  0  0  0  0  0  0  0  0  0  0  0
  2  1  1  6
  2  3  1  0
  2  5  1  0
  4  3  1  0
  5 11  1  0
  5  6  2  0
  8  7  1  1
  8 10  1  0
  8  9  1  0
 10 12  1  0
 10 11  1  1
 12 19  1  0
 13 12  2  0
 14 15  1  0
 15 16  2  0
 17 15  1  0
 18 20  1  0
 18 17  1  6
 19 18  1  0
 20 22  1  0
 21 20  2  0
M  END
$$$$
