CVN.pdb
     RDKit          3D

 22 21  0  0  1  0  0  0  0  0999 V2000
    9.6742  -16.4223   15.0055 N   0  0  0  0  0  0  0  0  0  0  0  0
    8.8202  -16.5994   16.1504 C   0  0  1  0  0  0  0  0  0  0  0  0
    8.8317  -18.0823   16.5134 C   0  0  0  0  0  0  0  0  0  0  0  0
    7.8673  -19.0212   15.2853 S   0  0  0  0  0  0  0  0  0  0  0  0
    9.1833  -15.7622   17.3073 C   0  0  0  0  0  0  0  0  0  0  0  0
   10.4315  -15.6806   17.5752 O   0  0  0  0  0  0  0  0  0  0  0  0
    6.5241  -14.2834   20.3373 C   0  0  0  0  0  0  0  0  0  0  0  0
    7.6583  -13.4217   19.8355 C   0  0  1  0  0  0  0  0  0  0  0  0
    8.1867  -12.5537   20.9434 C   0  0  0  0  0  0  0  0  0  0  0  0
    8.7183  -14.3266   19.2450 C   0  0  2  0  0  0  0  0  0  0  0  0
    8.2481  -15.0640   18.1128 N   0  0  0  0  0  0  0  0  0  0  0  0
    9.2936  -15.2282   20.2871 C   0  0  0  0  0  0  0  0  0  0  0  0
    8.9837  -16.4611   20.3179 O   0  0  0  0  0  0  0  0  0  0  0  0
   13.9638  -15.9476   23.8726 N   0  0  0  0  0  0  0  0  0  0  0  0
   13.4100  -16.2001   22.5968 C   0  0  0  0  0  0  0  0  0  0  0  0
   13.8026  -17.2824   22.0393 O   0  0  0  0  0  0  0  0  0  0  0  0
   12.4563  -15.3797   21.8627 C   0  0  0  0  0  0  0  0  0  0  0  0
   11.0022  -15.7277   22.0659 C   0  0  2  0  0  0  0  0  0  0  0  0
   10.1973  -14.7961   21.2867 N   0  0  0  0  0  0  0  0  0  0  0  0
   10.6748  -15.6790   23.4971 C   0  0  0  0  0  0  0  0  0  0  0  0
   11.2240  -16.4248   24.3204 O   0  0  0  0  0  0  0  0  0  0  0  0
    9.7276  -14.7734   23.9315 O   0  0  0  0  0  0  0  0  0  0  0  0
  2  1  1  6
  2  3  1  0
  2  5  1  0
  4  3  1  0
  5 11  1  0
  5  6  2  0
  8  7  1  1
  8 10  1  0
  8  9  1  0
 10 12  1  0
 10 11  1  6
 12 19  1  0
 13 12  2  0
 14 15  1  0
 15 16  2  0
 17 15  1  0
 18 20  1  0
 18 17  1  1
 19 18  1  0
 20 22  1  0
 21 20  2  0
M  END
$$$$
