CVN.pdb
     RDKit          3D

 22 21  0  0  1  0  0  0  0  0999 V2000
    8.7057  -16.8295   15.8533 N   0  0  0  0  0  0  0  0  0  0  0  0
    7.9871  -16.9433   17.0951 C   0  0  1  0  0  0  0  0  0  0  0  0
    7.7312  -18.4268   17.3495 C   0  0  0  0  0  0  0  0  0  0  0  0
    6.3644  -19.0028   16.2913 S   0  0  0  0  0  0  0  0  0  0  0  0
    8.6639  -16.3124   18.2420 C   0  0  0  0  0  0  0  0  0  0  0  0
    9.9343  -16.4532   18.2948 O   0  0  0  0  0  0  0  0  0  0  0  0
    7.6956  -12.7514   19.9263 C   0  0  0  0  0  0  0  0  0  0  0  0
    8.0191  -13.8095   20.9543 C   0  0  1  0  0  0  0  0  0  0  0  0
    6.7629  -14.2870   21.6280 C   0  0  0  0  0  0  0  0  0  0  0  0
    8.7747  -14.9261   20.2663 C   0  0  2  0  0  0  0  0  0  0  0  0
    7.9987  -15.5797   19.2577 N   0  0  0  0  0  0  0  0  0  0  0  0
    9.3139  -15.9001   21.2615 C   0  0  0  0  0  0  0  0  0  0  0  0
    8.7084  -16.9951   21.4879 O   0  0  0  0  0  0  0  0  0  0  0  0
   14.4274  -17.4870   24.3668 N   0  0  0  0  0  0  0  0  0  0  0  0
   13.2125  -17.6602   23.6652 C   0  0  0  0  0  0  0  0  0  0  0  0
   12.6678  -18.8099   23.7990 O   0  0  0  0  0  0  0  0  0  0  0  0
   12.5242  -16.6898   22.8250 C   0  0  0  0  0  0  0  0  0  0  0  0
   11.0199  -16.6749   22.9415 C   0  0  2  0  0  0  0  0  0  0  0  0
   10.4998  -15.6881   22.0041 N   0  0  0  0  0  0  0  0  0  0  0  0
   10.6315  -16.3802   24.3273 C   0  0  0  0  0  0  0  0  0  0  0  0
   10.2166  -15.2633   24.6677 O   0  0  0  0  0  0  0  0  0  0  0  0
   10.7331  -17.3809   25.2729 O   0  0  0  0  0  0  0  0  0  0  0  0
  2  1  1  6
  2  3  1  0
  2  5  1  0
  4  3  1  0
  5 11  1  0
  5  6  2  0
  8  7  1  6
  8 10  1  0
  8  9  1  0
 10 12  1  0
 10 11  1  6
 12 19  1  0
 13 12  2  0
 14 15  1  0
 15 16  2  0
 17 15  1  0
 18 20  1  0
 18 17  1  1
 19 18  1  0
 20 22  1  0
 21 20  2  0
M  END
$$$$
