CVN.pdb
     RDKit          3D

 22 21  0  0  1  0  0  0  0  0999 V2000
    7.9321  -15.4806   20.7409 N   0  0  0  0  0  0  0  0  0  0  0  0
    7.2133  -15.5843   21.9835 C   0  0  1  0  0  0  0  0  0  0  0  0
    6.9077  -17.0611   22.2214 C   0  0  0  0  0  0  0  0  0  0  0  0
    5.9843  -17.2521   23.7805 S   0  0  0  0  0  0  0  0  0  0  0  0
    7.9142  -14.9903   23.1355 C   0  0  0  0  0  0  0  0  0  0  0  0
    9.1587  -15.2664   23.2425 O   0  0  0  0  0  0  0  0  0  0  0  0
    6.1029  -13.0502   26.4935 C   0  0  0  0  0  0  0  0  0  0  0  0
    7.3927  -12.5129   25.9203 C   0  0  1  0  0  0  0  0  0  0  0  0
    8.2454  -11.9247   27.0098 C   0  0  0  0  0  0  0  0  0  0  0  0
    8.0859  -13.6337   25.1756 C   0  0  2  0  0  0  0  0  0  0  0  0
    7.2980  -14.1539   24.1007 N   0  0  0  0  0  0  0  0  0  0  0  0
    8.5166  -14.7132   26.1132 C   0  0  0  0  0  0  0  0  0  0  0  0
    7.6886  -15.5924   26.5111 O   0  0  0  0  0  0  0  0  0  0  0  0
   13.0214  -15.1519   25.2419 N   0  0  0  0  0  0  0  0  0  0  0  0
   12.1631  -16.1162   25.8177 C   0  0  0  0  0  0  0  0  0  0  0  0
   11.7352  -17.0122   25.0114 O   0  0  0  0  0  0  0  0  0  0  0  0
   11.7235  -16.2014   27.2037 C   0  0  0  0  0  0  0  0  0  0  0  0
   10.2519  -15.9646   27.4383 C   0  0  2  0  0  0  0  0  0  0  0  0
    9.8342  -14.8380   26.6142 N   0  0  0  0  0  0  0  0  0  0  0  0
   10.0085  -15.7252   28.8672 C   0  0  0  0  0  0  0  0  0  0  0  0
    9.5619  -14.6470   29.2837 O   0  0  0  0  0  0  0  0  0  0  0  0
   10.2867  -16.7348   29.7668 O   0  0  0  0  0  0  0  0  0  0  0  0
  2  1  1  6
  2  3  1  0
  2  5  1  0
  4  3  1  0
  5 11  1  0
  5  6  2  0
  8  7  1  1
  8 10  1  0
  8  9  1  0
 10 12  1  0
 10 11  1  6
 12 19  1  0
 13 12  2  0
 14 15  1  0
 15 16  2  0
 17 15  1  0
 18 20  1  0
 18 17  1  1
 19 18  1  0
 20 22  1  0
 21 20  2  0
M  END
$$$$
