CVN.pdb
     RDKit          3D

 22 21  0  0  1  0  0  0  0  0999 V2000
    7.9732  -14.4585   20.2428 N   0  0  0  0  0  0  0  0  0  0  0  0
    7.2557  -14.8776   21.4180 C   0  0  1  0  0  0  0  0  0  0  0  0
    7.0555  -16.3884   21.3259 C   0  0  0  0  0  0  0  0  0  0  0  0
    6.1664  -16.9796   22.8022 S   0  0  0  0  0  0  0  0  0  0  0  0
    7.9046  -14.4999   22.6859 C   0  0  0  0  0  0  0  0  0  0  0  0
    9.1536  -14.7602   22.7800 O   0  0  0  0  0  0  0  0  0  0  0  0
    5.8842  -13.2513   26.2424 C   0  0  0  0  0  0  0  0  0  0  0  0
    7.2395  -12.6754   25.9073 C   0  0  1  0  0  0  0  0  0  0  0  0
    8.0136  -12.3915   27.1645 C   0  0  0  0  0  0  0  0  0  0  0  0
    7.9530  -13.6420   24.9866 C   0  0  2  0  0  0  0  0  0  0  0  0
    7.2354  -13.8814   23.7724 N   0  0  0  0  0  0  0  0  0  0  0  0
    8.2752  -14.9168   25.6945 C   0  0  0  0  0  0  0  0  0  0  0  0
    7.3519  -15.7318   26.0108 O   0  0  0  0  0  0  0  0  0  0  0  0
   11.5534  -16.6469   23.7190 N   0  0  0  0  0  0  0  0  0  0  0  0
   11.0175  -17.4362   24.7621 C   0  0  0  0  0  0  0  0  0  0  0  0
   10.4105  -18.4965   24.3833 O   0  0  0  0  0  0  0  0  0  0  0  0
   11.0825  -17.1805   26.1945 C   0  0  0  0  0  0  0  0  0  0  0  0
    9.8637  -16.5270   26.7978 C   0  0  2  0  0  0  0  0  0  0  0  0
    9.5877  -15.3039   26.0555 N   0  0  0  0  0  0  0  0  0  0  0  0
   10.0938  -16.2678   28.2253 C   0  0  0  0  0  0  0  0  0  0  0  0
   10.1291  -15.1175   28.6847 O   0  0  0  0  0  0  0  0  0  0  0  0
   10.2744  -17.3411   29.0747 O   0  0  0  0  0  0  0  0  0  0  0  0
  2  1  1  6
  2  3  1  0
  2  5  1  0
  4  3  1  0
  5 11  1  0
  5  6  2  0
  8  7  1  1
  8 10  1  0
  8  9  1  0
 10 12  1  0
 10 11  1  6
 12 19  1  0
 13 12  2  0
 14 15  1  0
 15 16  2  0
 17 15  1  0
 18 20  1  0
 18 17  1  6
 19 18  1  0
 20 22  1  0
 21 20  2  0
M  END
$$$$
