CVN.pdb
     RDKit          3D

 22 21  0  0  1  0  0  0  0  0999 V2000
    7.3684  -15.0757   20.8975 N   0  0  0  0  0  0  0  0  0  0  0  0
    6.8416  -15.3721   22.2036 C   0  0  1  0  0  0  0  0  0  0  0  0
    6.6304  -16.8818   22.2877 C   0  0  0  0  0  0  0  0  0  0  0  0
    5.9421  -17.3141   23.9184 S   0  0  0  0  0  0  0  0  0  0  0  0
    7.6787  -14.8860   23.3146 C   0  0  0  0  0  0  0  0  0  0  0  0
    8.9337  -15.1139   23.2173 O   0  0  0  0  0  0  0  0  0  0  0  0
    7.4403  -11.5089   25.6055 C   0  0  0  0  0  0  0  0  0  0  0  0
    7.5421  -12.7793   26.4159 C   0  0  1  0  0  0  0  0  0  0  0  0
    6.2102  -13.1213   27.0235 C   0  0  0  0  0  0  0  0  0  0  0  0
    8.0742  -13.8754   25.5178 C   0  0  2  0  0  0  0  0  0  0  0  0
    7.1787  -14.1994   24.4502 N   0  0  0  0  0  0  0  0  0  0  0  0
    8.4433  -15.0855   26.3112 C   0  0  0  0  0  0  0  0  0  0  0  0
    7.5518  -15.9140   26.6791 O   0  0  0  0  0  0  0  0  0  0  0  0
   11.9252  -16.8906   24.3948 N   0  0  0  0  0  0  0  0  0  0  0  0
   11.2330  -17.5222   25.4532 C   0  0  0  0  0  0  0  0  0  0  0  0
   10.4468  -18.4673   25.0997 O   0  0  0  0  0  0  0  0  0  0  0  0
   11.3180  -17.2224   26.8759 C   0  0  0  0  0  0  0  0  0  0  0  0
   10.0951  -16.5796   27.4827 C   0  0  2  0  0  0  0  0  0  0  0  0
    9.7682  -15.3939   26.7015 N   0  0  0  0  0  0  0  0  0  0  0  0
   10.3499  -16.2597   28.8936 C   0  0  0  0  0  0  0  0  0  0  0  0
   10.5817  -17.1409   29.7334 O   0  0  0  0  0  0  0  0  0  0  0  0
   10.3300  -14.9371   29.2891 O   0  0  0  0  0  0  0  0  0  0  0  0
  2  1  1  6
  2  3  1  0
  2  5  1  0
  4  3  1  0
  5 11  1  0
  5  6  2  0
  8  7  1  6
  8 10  1  0
  8  9  1  0
 10 12  1  0
 10 11  1  6
 12 19  1  0
 13 12  2  0
 14 15  1  0
 15 16  2  0
 17 15  1  0
 18 20  1  0
 18 17  1  6
 19 18  1  0
 20 22  1  0
 21 20  2  0
M  END
$$$$
