CVN.pdb
     RDKit          3D

 22 21  0  0  1  0  0  0  0  0999 V2000
    5.4981  -19.4564   23.5598 N   0  0  0  0  0  0  0  0  0  0  0  0
    5.9265  -18.1676   24.0361 C   0  0  1  0  0  0  0  0  0  0  0  0
    6.4523  -18.3492   25.4579 C   0  0  0  0  0  0  0  0  0  0  0  0
    6.8676  -16.7241   26.1696 S   0  0  0  0  0  0  0  0  0  0  0  0
    6.9256  -17.5097   23.1758 C   0  0  0  0  0  0  0  0  0  0  0  0
    7.7894  -18.2766   22.6260 O   0  0  0  0  0  0  0  0  0  0  0  0
    8.9660  -13.6861   20.8880 C   0  0  0  0  0  0  0  0  0  0  0  0
    7.7812  -14.1537   21.6995 C   0  0  1  0  0  0  0  0  0  0  0  0
    6.5110  -13.9960   20.9110 C   0  0  0  0  0  0  0  0  0  0  0  0
    8.0314  -15.5843   22.1261 C   0  0  2  0  0  0  0  0  0  0  0  0
    6.9757  -16.1133   22.9339 N   0  0  0  0  0  0  0  0  0  0  0  0
    9.3577  -15.7181   22.7991 C   0  0  0  0  0  0  0  0  0  0  0  0
    9.5970  -15.1007   23.8846 O   0  0  0  0  0  0  0  0  0  0  0  0
   11.4623  -17.7979   25.7889 N   0  0  0  0  0  0  0  0  0  0  0  0
   11.4699  -18.4544   24.5371 C   0  0  0  0  0  0  0  0  0  0  0  0
   10.8968  -19.5978   24.5204 O   0  0  0  0  0  0  0  0  0  0  0  0
   12.0453  -17.9785   23.2865 C   0  0  0  0  0  0  0  0  0  0  0  0
   11.7301  -16.5479   22.9246 C   0  0  2  0  0  0  0  0  0  0  0  0
   10.4147  -16.5151   22.2990 N   0  0  0  0  0  0  0  0  0  0  0  0
   12.7765  -16.0166   22.0410 C   0  0  0  0  0  0  0  0  0  0  0  0
   12.5840  -15.8419   20.8294 O   0  0  0  0  0  0  0  0  0  0  0  0
   14.0075  -15.7039   22.5822 O   0  0  0  0  0  0  0  0  0  0  0  0
  2  1  1  6
  2  3  1  0
  2  5  1  0
  4  3  1  0
  5 11  1  0
  5  6  2  0
  8  7  1  6
  8 10  1  0
  8  9  1  0
 10 12  1  0
 10 11  1  1
 12 19  1  0
 13 12  2  0
 14 15  1  0
 15 16  2  0
 17 15  1  0
 18 20  1  0
 18 17  1  6
 19 18  1  0
 20 22  1  0
 21 20  2  0
M  END
$$$$
