CVN.pdb
     RDKit          3D

 22 21  0  0  1  0  0  0  0  0999 V2000
    7.7723  -12.6526   19.3152 N   0  0  0  0  0  0  0  0  0  0  0  0
    7.2059  -13.6478   20.1870 C   0  0  1  0  0  0  0  0  0  0  0  0
    7.2283  -14.9821   19.4453 C   0  0  0  0  0  0  0  0  0  0  0  0
    6.4916  -16.2779   20.4932 S   0  0  0  0  0  0  0  0  0  0  0  0
    7.8744  -13.7518   21.4961 C   0  0  0  0  0  0  0  0  0  0  0  0
    9.1525  -13.6984   21.4828 O   0  0  0  0  0  0  0  0  0  0  0  0
    6.8439  -11.9957   24.8923 C   0  0  0  0  0  0  0  0  0  0  0  0
    7.1877  -13.4453   25.1399 C   0  0  1  0  0  0  0  0  0  0  0  0
    5.9422  -14.2385   25.4217 C   0  0  0  0  0  0  0  0  0  0  0  0
    7.9533  -13.9642   23.9416 C   0  0  2  0  0  0  0  0  0  0  0  0
    7.1936  -13.9026   22.7308 N   0  0  0  0  0  0  0  0  0  0  0  0
    8.4736  -15.3409   24.1939 C   0  0  0  0  0  0  0  0  0  0  0  0
    7.9756  -16.3415   23.5876 O   0  0  0  0  0  0  0  0  0  0  0  0
   12.4904  -18.8894   25.0114 N   0  0  0  0  0  0  0  0  0  0  0  0
   12.6418  -17.5939   24.4666 C   0  0  0  0  0  0  0  0  0  0  0  0
   13.7833  -17.3567   23.9401 O   0  0  0  0  0  0  0  0  0  0  0  0
   11.6576  -16.5207   24.4366 C   0  0  0  0  0  0  0  0  0  0  0  0
   10.3059  -16.8571   25.0167 C   0  0  2  0  0  0  0  0  0  0  0  0
    9.5254  -15.6293   25.0958 N   0  0  0  0  0  0  0  0  0  0  0  0
   10.4731  -17.4921   26.3308 C   0  0  0  0  0  0  0  0  0  0  0  0
   10.5050  -18.7237   26.4637 O   0  0  0  0  0  0  0  0  0  0  0  0
   10.5985  -16.6881   27.4461 O   0  0  0  0  0  0  0  0  0  0  0  0
  2  1  1  6
  2  3  1  0
  2  5  1  0
  4  3  1  0
  5 11  1  0
  5  6  2  0
  8  7  1  6
  8 10  1  0
  8  9  1  0
 10 12  1  0
 10 11  1  6
 12 19  1  0
 13 12  2  0
 14 15  1  0
 15 16  2  0
 17 15  1  0
 18 20  1  0
 18 17  1  1
 19 18  1  0
 20 22  1  0
 21 20  2  0
M  END
$$$$
