CVN.pdb
     RDKit          3D

 22 21  0  0  1  0  0  0  0  0999 V2000
    4.7594  -16.9470   22.1978 N   0  0  0  0  0  0  0  0  0  0  0  0
    6.1216  -17.2180   21.8205 C   0  0  1  0  0  0  0  0  0  0  0  0
    6.2394  -16.9959   20.3146 C   0  0  0  0  0  0  0  0  0  0  0  0
    5.0220  -18.0358   19.4449 S   0  0  0  0  0  0  0  0  0  0  0  0
    7.1198  -16.4241   22.5584 C   0  0  0  0  0  0  0  0  0  0  0  0
    8.3453  -16.6452   22.2653 O   0  0  0  0  0  0  0  0  0  0  0  0
    7.1606  -12.5788   23.8160 C   0  0  0  0  0  0  0  0  0  0  0  0
    7.4668  -13.5484   24.9326 C   0  0  1  0  0  0  0  0  0  0  0  0
    6.2929  -13.6615   25.8650 C   0  0  0  0  0  0  0  0  0  0  0  0
    7.8551  -14.8757   24.3173 C   0  0  2  0  0  0  0  0  0  0  0  0
    6.8003  -15.4574   23.5455 N   0  0  0  0  0  0  0  0  0  0  0  0
    8.3599  -15.8208   25.3575 C   0  0  0  0  0  0  0  0  0  0  0  0
    7.5576  -16.3662   26.1793 O   0  0  0  0  0  0  0  0  0  0  0  0
    9.6011  -20.1883   27.8605 N   0  0  0  0  0  0  0  0  0  0  0  0
    9.9848  -19.7463   26.5738 C   0  0  0  0  0  0  0  0  0  0  0  0
   10.8043  -20.5121   25.9589 O   0  0  0  0  0  0  0  0  0  0  0  0
    9.5544  -18.5384   25.8831 C   0  0  0  0  0  0  0  0  0  0  0  0
   10.1613  -17.2495   26.3806 C   0  0  2  0  0  0  0  0  0  0  0  0
    9.7231  -16.1712   25.5042 N   0  0  0  0  0  0  0  0  0  0  0  0
   11.6247  -17.3714   26.4189 C   0  0  0  0  0  0  0  0  0  0  0  0
   12.3401  -16.9665   25.4917 O   0  0  0  0  0  0  0  0  0  0  0  0
   12.2142  -17.9540   27.5231 O   0  0  0  0  0  0  0  0  0  0  0  0
  2  1  1  1
  2  3  1  0
  2  5  1  0
  4  3  1  0
  5 11  1  0
  5  6  2  0
  8  7  1  6
  8 10  1  0
  8  9  1  0
 10 12  1  0
 10 11  1  1
 12 19  1  0
 13 12  2  0
 14 15  1  0
 15 16  2  0
 17 15  1  0
 18 20  1  0
 18 17  1  6
 19 18  1  0
 20 22  1  0
 21 20  2  0
M  END
$$$$
