EIY.pdb
     RDKit          3D

 30 30  0  0  1  0  0  0  0  0999 V2000
   17.3009  -11.6860  -14.4909 N   0  0  0  0  0  0  0  0  0  0  0  0
   16.5242  -10.5827  -14.0160 C   0  0  1  0  0  0  0  0  0  0  0  0
   15.1726  -10.9708  -13.5099 C   0  0  0  0  0  0  0  0  0  0  0  0
   14.3448  -11.7027  -14.5052 C   0  0  0  0  0  0  0  0  0  0  0  0
   13.9289  -13.0507  -14.1044 C   0  0  0  0  0  0  0  0  0  0  0  0
   14.2940  -13.5992  -13.0388 O   0  0  0  0  0  0  0  0  0  0  0  0
   17.2660   -9.9313  -12.8969 C   0  0  0  0  0  0  0  0  0  0  0  0
   18.2499  -10.5417  -12.3555 O   0  0  0  0  0  0  0  0  0  0  0  0
   13.0793  -13.7899  -14.9349 O   0  0  0  0  0  0  0  0  0  0  0  0
   21.2485   -6.5217  -12.4449 C   0  0  0  0  0  0  0  0  0  0  0  0
   20.0488   -6.8074  -11.5830 C   0  0  0  0  0  0  0  0  0  0  0  0
   19.0796   -7.6857  -12.2679 C   0  0  2  0  0  0  0  0  0  0  0  0
   18.7281   -7.0841  -13.6337 C   0  0  0  0  0  0  0  0  0  0  0  0
   17.7967   -7.9502  -11.4982 C   0  0  2  0  0  0  0  0  0  0  0  0
   16.8789   -8.6507  -12.4444 N   0  0  0  0  0  0  0  0  0  0  0  0
   17.0996   -6.7208  -11.0651 C   0  0  0  0  0  0  0  0  0  0  0  0
   16.4788   -6.0100  -11.9262 O   0  0  0  0  0  0  0  0  0  0  0  0
   11.4490   -9.4380   -8.3742 O   0  0  0  0  0  0  0  0  0  0  0  0
   12.4648   -8.4810   -8.2942 C   0  0  0  0  0  0  0  0  0  0  0  0
   13.7873   -8.8380   -8.1374 C   0  0  0  0  0  0  0  0  0  0  0  0
   14.7892   -7.8881   -8.0587 C   0  0  0  0  0  0  0  0  0  0  0  0
   14.5207   -6.5364   -8.1324 C   0  0  0  0  0  0  0  0  0  0  0  0
   15.5838   -5.5036   -8.0425 C   0  0  0  0  0  0  0  0  0  0  0  0
   16.1671   -5.1346   -9.3919 C   0  0  2  0  0  0  0  0  0  0  0  0
   17.0619   -6.2583   -9.7361 N   0  0  0  0  0  0  0  0  0  0  0  0
   16.9451   -3.8754   -9.3038 C   0  0  0  0  0  0  0  0  0  0  0  0
   16.3175   -2.6268   -9.3295 O   0  0  0  0  0  0  0  0  0  0  0  0
   13.1891   -6.1848   -8.2902 C   0  0  0  0  0  0  0  0  0  0  0  0
   12.1909   -7.1319   -8.3686 C   0  0  0  0  0  0  0  0  0  0  0  0
   18.1930   -3.8782   -9.2030 O   0  0  0  0  0  0  0  0  0  0  0  0
  2  1  1  1
  2  3  1  0
  3  4  1  0
  4  5  1  0
  5  9  1  0
  6  5  2  0
  7  2  1  0
  8  7  2  0
 11 10  1  0
 12 13  1  6
 12 11  1  0
 12 14  1  0
 14 15  1  6
 15  7  1  0
 16 14  1  0
 16 17  2  0
 19 18  1  0
 20 19  2  0
 21 20  1  0
 22 21  2  0
 22 28  1  0
 24 23  1  1
 23 22  1  0
 24 25  1  0
 25 16  1  0
 26 24  1  0
 27 26  1  0
 28 29  2  0
 29 19  1  0
 30 26  2  0
M  END
$$$$
