EIY.pdb
     RDKit          3D

 30 30  0  0  1  0  0  0  0  0999 V2000
   20.3081  -12.6579  -17.3317 N   0  0  0  0  0  0  0  0  0  0  0  0
   19.6186  -11.4233  -17.1166 C   0  0  1  0  0  0  0  0  0  0  0  0
   18.5419  -11.5064  -16.0834 C   0  0  0  0  0  0  0  0  0  0  0  0
   17.3883  -12.3553  -16.4836 C   0  0  0  0  0  0  0  0  0  0  0  0
   17.5470  -13.7902  -16.2257 C   0  0  0  0  0  0  0  0  0  0  0  0
   17.8710  -14.2612  -15.1109 O   0  0  0  0  0  0  0  0  0  0  0  0
   20.6099  -10.4018  -16.6683 C   0  0  0  0  0  0  0  0  0  0  0  0
   21.5829  -10.7566  -15.9192 O   0  0  0  0  0  0  0  0  0  0  0  0
   17.3322  -14.7085  -17.2595 O   0  0  0  0  0  0  0  0  0  0  0  0
   23.5616   -5.9368  -19.1641 C   0  0  0  0  0  0  0  0  0  0  0  0
   23.0973   -6.4640  -17.8337 C   0  0  0  0  0  0  0  0  0  0  0  0
   22.1124   -7.5528  -17.9899 C   0  0  2  0  0  0  0  0  0  0  0  0
   20.9514   -7.0639  -18.8638 C   0  0  0  0  0  0  0  0  0  0  0  0
   21.5547   -8.1062  -16.6895 C   0  0  2  0  0  0  0  0  0  0  0  0
   20.4682   -9.0559  -17.0718 N   0  0  0  0  0  0  0  0  0  0  0  0
   20.9348   -7.0802  -15.8248 C   0  0  0  0  0  0  0  0  0  0  0  0
   19.6898   -6.8203  -15.9461 O   0  0  0  0  0  0  0  0  0  0  0  0
   16.6965   -3.7432   -9.2963 O   0  0  0  0  0  0  0  0  0  0  0  0
   17.4868   -4.3885  -10.2517 C   0  0  0  0  0  0  0  0  0  0  0  0
   17.3286   -4.1555  -11.6015 C   0  0  0  0  0  0  0  0  0  0  0  0
   18.1127   -4.7960  -12.5435 C   0  0  0  0  0  0  0  0  0  0  0  0
   19.0920   -5.6999  -12.1851 C   0  0  0  0  0  0  0  0  0  0  0  0
   19.9374   -6.4013  -13.1842 C   0  0  0  0  0  0  0  0  0  0  0  0
   20.8685   -5.4682  -13.9322 C   0  0  2  0  0  0  0  0  0  0  0  0
   21.6290   -6.3459  -14.8449 N   0  0  0  0  0  0  0  0  0  0  0  0
   21.7943   -4.7851  -12.9967 C   0  0  0  0  0  0  0  0  0  0  0  0
   21.5381   -3.4926  -12.5306 O   0  0  0  0  0  0  0  0  0  0  0  0
   19.2456   -5.9292  -10.8266 C   0  0  0  0  0  0  0  0  0  0  0  0
   18.4640   -5.2904   -9.8881 C   0  0  0  0  0  0  0  0  0  0  0  0
   22.8410   -5.3363  -12.5867 O   0  0  0  0  0  0  0  0  0  0  0  0
  2  1  1  1
  2  3  1  0
  3  4  1  0
  4  5  1  0
  5  9  1  0
  6  5  2  0
  7  2  1  0
  8  7  2  0
 11 10  1  0
 12 13  1  6
 12 11  1  0
 12 14  1  0
 14 15  1  6
 15  7  1  0
 16 14  1  0
 16 17  2  0
 19 18  1  0
 20 19  2  0
 21 20  1  0
 22 21  2  0
 22 28  1  0
 24 23  1  1
 23 22  1  0
 24 25  1  0
 25 16  1  0
 26 24  1  0
 27 26  1  0
 28 29  2  0
 29 19  1  0
 30 26  2  0
M  END
$$$$
