EIY.pdb
     RDKit          3D

 30 30  0  0  1  0  0  0  0  0999 V2000
   44.2473  -10.9658   -6.4918 N   0  0  0  0  0  0  0  0  0  0  0  0
   43.0024  -10.5187   -5.9475 C   0  0  1  0  0  0  0  0  0  0  0  0
   43.1510   -9.5340   -4.8330 C   0  0  0  0  0  0  0  0  0  0  0  0
   43.8151  -10.0895   -3.6239 C   0  0  0  0  0  0  0  0  0  0  0  0
   43.8841   -9.1818   -2.4741 C   0  0  0  0  0  0  0  0  0  0  0  0
   43.0521   -9.1872   -1.5374 O   0  0  0  0  0  0  0  0  0  0  0  0
   42.2186   -9.8668   -7.0372 C   0  0  0  0  0  0  0  0  0  0  0  0
   42.8337   -9.3522   -8.0326 O   0  0  0  0  0  0  0  0  0  0  0  0
   44.9226   -8.2478   -2.3892 O   0  0  0  0  0  0  0  0  0  0  0  0
   39.1995  -12.0842  -10.2929 C   0  0  0  0  0  0  0  0  0  0  0  0
   40.0733  -11.0873   -9.5815 C   0  0  0  0  0  0  0  0  0  0  0  0
   39.2766  -10.1219   -8.7983 C   0  0  2  0  0  0  0  0  0  0  0  0
   38.2912   -9.4054   -9.7292 C   0  0  0  0  0  0  0  0  0  0  0  0
   40.0878   -9.0837   -8.0419 C   0  0  2  0  0  0  0  0  0  0  0  0
   40.8091   -9.8220   -6.9633 N   0  0  0  0  0  0  0  0  0  0  0  0
   39.2617   -8.0571   -7.3721 C   0  0  0  0  0  0  0  0  0  0  0  0
   38.4781   -8.3979   -6.4223 O   0  0  0  0  0  0  0  0  0  0  0  0
   36.2571   -2.3630   -1.8829 O   0  0  0  0  0  0  0  0  0  0  0  0
   36.9249   -3.2140   -2.7682 C   0  0  0  0  0  0  0  0  0  0  0  0
   38.1354   -2.8699   -3.3316 C   0  0  0  0  0  0  0  0  0  0  0  0
   38.7928   -3.7148   -4.2070 C   0  0  0  0  0  0  0  0  0  0  0  0
   38.2747   -4.9432   -4.5631 C   0  0  0  0  0  0  0  0  0  0  0  0
   38.9643   -5.8590   -5.5071 C   0  0  0  0  0  0  0  0  0  0  0  0
   38.4403   -5.7527   -6.9253 C   0  0  2  0  0  0  0  0  0  0  0  0
   39.2730   -6.6898   -7.7064 N   0  0  0  0  0  0  0  0  0  0  0  0
   38.6036   -4.3740   -7.4461 C   0  0  0  0  0  0  0  0  0  0  0  0
   37.5860   -3.4234   -7.3260 O   0  0  0  0  0  0  0  0  0  0  0  0
   37.0576   -5.2828   -3.9929 C   0  0  0  0  0  0  0  0  0  0  0  0
   36.4029   -4.4404   -3.1204 C   0  0  0  0  0  0  0  0  0  0  0  0
   39.6569   -4.0051   -8.0134 O   0  0  0  0  0  0  0  0  0  0  0  0
  2  1  1  6
  2  3  1  0
  3  4  1  0
  4  5  1  0
  5  9  1  0
  6  5  2  0
  7  2  1  0
  8  7  2  0
 11 10  1  0
 12 13  1  6
 12 11  1  0
 12 14  1  0
 14 15  1  1
 15  7  1  0
 16 14  1  0
 16 17  2  0
 19 18  1  0
 20 19  2  0
 21 20  1  0
 22 21  2  0
 22 28  1  0
 24 23  1  1
 23 22  1  0
 24 25  1  0
 25 16  1  0
 26 24  1  0
 27 26  1  0
 28 29  2  0
 29 19  1  0
 30 26  2  0
M  END
$$$$
