EIY.pdb
     RDKit          3D

 30 30  0  0  1  0  0  0  0  0999 V2000
   25.1756  -20.4778  -18.5059 N   0  0  0  0  0  0  0  0  0  0  0  0
   24.6304  -19.8633  -17.3350 C   0  0  1  0  0  0  0  0  0  0  0  0
   23.1852  -19.5036  -17.4605 C   0  0  0  0  0  0  0  0  0  0  0  0
   22.8983  -18.5378  -18.5544 C   0  0  0  0  0  0  0  0  0  0  0  0
   22.5374  -17.1853  -18.1173 C   0  0  0  0  0  0  0  0  0  0  0  0
   21.4771  -16.9152  -17.5069 O   0  0  0  0  0  0  0  0  0  0  0  0
   24.7712  -20.8151  -16.1943 C   0  0  0  0  0  0  0  0  0  0  0  0
   24.7769  -22.0728  -16.4221 O   0  0  0  0  0  0  0  0  0  0  0  0
   23.4022  -16.1174  -18.3812 O   0  0  0  0  0  0  0  0  0  0  0  0
   28.4868  -19.5258  -12.6772 C   0  0  0  0  0  0  0  0  0  0  0  0
   27.5759  -20.3167  -13.5763 C   0  0  0  0  0  0  0  0  0  0  0  0
   26.2827  -20.6077  -12.9260 C   0  0  2  0  0  0  0  0  0  0  0  0
   26.5254  -21.4615  -11.6757 C   0  0  0  0  0  0  0  0  0  0  0  0
   25.2611  -21.3028  -13.8099 C   0  0  2  0  0  0  0  0  0  0  0  0
   24.8966  -20.3237  -14.8762 N   0  0  0  0  0  0  0  0  0  0  0  0
   24.0074  -21.6506  -13.1085 C   0  0  0  0  0  0  0  0  0  0  0  0
   24.0271  -22.5217  -12.1742 O   0  0  0  0  0  0  0  0  0  0  0  0
   17.7830  -22.1650   -7.4034 O   0  0  0  0  0  0  0  0  0  0  0  0
   18.7767  -21.8516   -8.3352 C   0  0  0  0  0  0  0  0  0  0  0  0
   18.5337  -21.0097   -9.3997 C   0  0  0  0  0  0  0  0  0  0  0  0
   19.5196  -20.7022  -10.3194 C   0  0  0  0  0  0  0  0  0  0  0  0
   20.7952  -21.2196  -10.2221 C   0  0  0  0  0  0  0  0  0  0  0  0
   21.8631  -20.9052  -11.2049 C   0  0  0  0  0  0  0  0  0  0  0  0
   21.5832  -21.4675  -12.5842 C   0  0  2  0  0  0  0  0  0  0  0  0
   22.7542  -21.0772  -13.3955 N   0  0  0  0  0  0  0  0  0  0  0  0
   20.3501  -20.8744  -13.1555 C   0  0  0  0  0  0  0  0  0  0  0  0
   19.1055  -21.4922  -13.0038 O   0  0  0  0  0  0  0  0  0  0  0  0
   21.0325  -22.0651   -9.1494 C   0  0  0  0  0  0  0  0  0  0  0  0
   20.0496  -22.3711   -8.2330 C   0  0  0  0  0  0  0  0  0  0  0  0
   20.3723  -19.7987  -13.7956 O   0  0  0  0  0  0  0  0  0  0  0  0
  2  1  1  6
  2  3  1  0
  3  4  1  0
  4  5  1  0
  5  9  1  0
  6  5  2  0
  7  2  1  0
  8  7  2  0
 11 10  1  0
 12 13  1  1
 12 11  1  0
 12 14  1  0
 14 15  1  6
 15  7  1  0
 16 14  1  0
 16 17  2  0
 19 18  1  0
 20 19  2  0
 21 20  1  0
 22 21  2  0
 22 28  1  0
 24 23  1  1
 23 22  1  0
 24 25  1  0
 25 16  1  0
 26 24  1  0
 27 26  1  0
 28 29  2  0
 29 19  1  0
 30 26  2  0
M  END
$$$$
