EIY.pdb
     RDKit          3D

 30 30  0  0  1  0  0  0  0  0999 V2000
   28.3157  -21.0643  -17.3420 N   0  0  0  0  0  0  0  0  0  0  0  0
   28.3532  -20.2176  -16.1898 C   0  0  1  0  0  0  0  0  0  0  0  0
   27.6364  -18.9189  -16.3727 C   0  0  0  0  0  0  0  0  0  0  0  0
   26.5428  -18.9719  -17.3791 C   0  0  0  0  0  0  0  0  0  0  0  0
   26.7441  -18.1366  -18.5676 C   0  0  0  0  0  0  0  0  0  0  0  0
   27.0661  -18.5943  -19.6886 O   0  0  0  0  0  0  0  0  0  0  0  0
   27.7132  -20.9412  -15.0523 C   0  0  0  0  0  0  0  0  0  0  0  0
   27.1101  -22.0469  -15.2703 O   0  0  0  0  0  0  0  0  0  0  0  0
   26.5753  -16.7505  -18.4777 O   0  0  0  0  0  0  0  0  0  0  0  0
   30.2333  -20.7973  -10.3084 C   0  0  0  0  0  0  0  0  0  0  0  0
   29.4452  -21.2992  -11.4876 C   0  0  0  0  0  0  0  0  0  0  0  0
   28.0248  -20.9050  -11.4045 C   0  0  2  0  0  0  0  0  0  0  0  0
   27.3821  -21.5810  -10.1876 C   0  0  0  0  0  0  0  0  0  0  0  0
   27.1977  -21.2184  -12.6397 C   0  0  2  0  0  0  0  0  0  0  0  0
   27.7770  -20.4032  -13.7481 N   0  0  0  0  0  0  0  0  0  0  0  0
   25.7786  -20.8224  -12.5206 C   0  0  0  0  0  0  0  0  0  0  0  0
   25.4735  -19.5850  -12.4321 O   0  0  0  0  0  0  0  0  0  0  0  0
   16.8801  -21.1282  -12.0884 O   0  0  0  0  0  0  0  0  0  0  0  0
   18.2356  -21.4222  -12.2620 C   0  0  0  0  0  0  0  0  0  0  0  0
   18.9384  -22.1739  -11.3443 C   0  0  0  0  0  0  0  0  0  0  0  0
   20.2794  -22.4625  -11.5199 C   0  0  0  0  0  0  0  0  0  0  0  0
   20.9843  -22.0154  -12.6188 C   0  0  0  0  0  0  0  0  0  0  0  0
   22.4258  -22.3105  -12.8187 C   0  0  0  0  0  0  0  0  0  0  0  0
   23.3330  -21.2146  -12.2962 C   0  0  2  0  0  0  0  0  0  0  0  0
   24.7024  -21.7295  -12.4995 N   0  0  0  0  0  0  0  0  0  0  0  0
   23.0911  -20.9727  -10.8534 C   0  0  0  0  0  0  0  0  0  0  0  0
   22.1993  -19.9884  -10.4182 O   0  0  0  0  0  0  0  0  0  0  0  0
   20.2714  -21.2605  -13.5374 C   0  0  0  0  0  0  0  0  0  0  0  0
   18.9349  -20.9732  -13.3620 C   0  0  0  0  0  0  0  0  0  0  0  0
   23.6741  -21.6381   -9.9675 O   0  0  0  0  0  0  0  0  0  0  0  0
  2  1  1  6
  2  3  1  0
  3  4  1  0
  4  5  1  0
  5  9  1  0
  6  5  2  0
  7  2  1  0
  8  7  2  0
 11 10  1  0
 12 13  1  1
 12 11  1  0
 12 14  1  0
 14 15  1  6
 15  7  1  0
 16 14  1  0
 16 17  2  0
 19 18  1  0
 20 19  2  0
 21 20  1  0
 22 21  2  0
 22 28  1  0
 24 23  1  1
 23 22  1  0
 24 25  1  0
 25 16  1  0
 26 24  1  0
 27 26  1  0
 28 29  2  0
 29 19  1  0
 30 26  2  0
M  END
$$$$
