EIY.pdb
     RDKit          3D

 30 30  0  0  1  0  0  0  0  0999 V2000
   34.2156  -24.3325  -17.8768 N   0  0  0  0  0  0  0  0  0  0  0  0
   33.0353  -24.4209  -18.6798 C   0  0  1  0  0  0  0  0  0  0  0  0
   33.0387  -25.5732  -19.6316 C   0  0  0  0  0  0  0  0  0  0  0  0
   34.0548  -25.4586  -20.7113 C   0  0  0  0  0  0  0  0  0  0  0  0
   33.6737  -24.6067  -21.8426 C   0  0  0  0  0  0  0  0  0  0  0  0
   34.4965  -24.1329  -22.6600 O   0  0  0  0  0  0  0  0  0  0  0  0
   31.8595  -24.5749  -17.7738 C   0  0  0  0  0  0  0  0  0  0  0  0
   32.0453  -24.9080  -16.5538 O   0  0  0  0  0  0  0  0  0  0  0  0
   32.3268  -24.2875  -22.0473 O   0  0  0  0  0  0  0  0  0  0  0  0
   28.5007  -20.6928  -17.3284 C   0  0  0  0  0  0  0  0  0  0  0  0
   29.3386  -21.9172  -17.0788 C   0  0  0  0  0  0  0  0  0  0  0  0
   28.6273  -23.1540  -17.4585 C   0  0  2  0  0  0  0  0  0  0  0  0
   27.3327  -23.2639  -16.6443 C   0  0  0  0  0  0  0  0  0  0  0  0
   29.4287  -24.4337  -17.2898 C   0  0  2  0  0  0  0  0  0  0  0  0
   30.5547  -24.3529  -18.2665 N   0  0  0  0  0  0  0  0  0  0  0  0
   28.6693  -25.6580  -17.6202 C   0  0  0  0  0  0  0  0  0  0  0  0
   28.1816  -25.8018  -18.7922 O   0  0  0  0  0  0  0  0  0  0  0  0
   25.2020  -33.8690  -17.1488 O   0  0  0  0  0  0  0  0  0  0  0  0
   25.8920  -32.6753  -16.9188 C   0  0  0  0  0  0  0  0  0  0  0  0
   27.0183  -32.3378  -17.6389 C   0  0  0  0  0  0  0  0  0  0  0  0
   27.6979  -31.1557  -17.4082 C   0  0  0  0  0  0  0  0  0  0  0  0
   27.2874  -30.2534  -16.4481 C   0  0  0  0  0  0  0  0  0  0  0  0
   28.0098  -28.9834  -16.1831 C   0  0  0  0  0  0  0  0  0  0  0  0
   27.6618  -27.8867  -17.1697 C   0  0  2  0  0  0  0  0  0  0  0  0
   28.4364  -26.7130  -16.7178 N   0  0  0  0  0  0  0  0  0  0  0  0
   26.2111  -27.5826  -17.1305 C   0  0  0  0  0  0  0  0  0  0  0  0
   25.3288  -28.1126  -18.0761 O   0  0  0  0  0  0  0  0  0  0  0  0
   26.1544  -30.5990  -15.7281 C   0  0  0  0  0  0  0  0  0  0  0  0
   25.4773  -31.7772  -15.9585 C   0  0  0  0  0  0  0  0  0  0  0  0
   25.7175  -26.8406  -16.2511 O   0  0  0  0  0  0  0  0  0  0  0  0
  2  1  1  1
  2  3  1  0
  3  4  1  0
  4  5  1  0
  5  9  1  0
  6  5  2  0
  7  2  1  0
  8  7  2  0
 11 10  1  0
 12 13  1  1
 12 11  1  0
 12 14  1  0
 14 15  1  6
 15  7  1  0
 16 14  1  0
 16 17  2  0
 19 18  1  0
 20 19  2  0
 21 20  1  0
 22 21  2  0
 22 28  1  0
 24 23  1  1
 23 22  1  0
 24 25  1  0
 25 16  1  0
 26 24  1  0
 27 26  1  0
 28 29  2  0
 29 19  1  0
 30 26  2  0
M  END
$$$$
