EIY.pdb
     RDKit          3D

 30 30  0  0  1  0  0  0  0  0999 V2000
   20.0462  -13.9968  -18.7832 N   0  0  0  0  0  0  0  0  0  0  0  0
   19.0734  -13.6614  -17.7898 C   0  0  1  0  0  0  0  0  0  0  0  0
   19.2808  -14.3579  -16.4838 C   0  0  0  0  0  0  0  0  0  0  0  0
   18.9895  -15.8156  -16.5265 C   0  0  0  0  0  0  0  0  0  0  0  0
   17.5668  -16.1696  -16.5629 C   0  0  0  0  0  0  0  0  0  0  0  0
   16.7381  -15.7937  -15.7017 O   0  0  0  0  0  0  0  0  0  0  0  0
   19.1390  -12.1910  -17.5435 C   0  0  0  0  0  0  0  0  0  0  0  0
   20.2410  -11.5709  -17.7307 O   0  0  0  0  0  0  0  0  0  0  0  0
   17.0774  -16.9687  -17.6020 O   0  0  0  0  0  0  0  0  0  0  0  0
   15.1581   -9.1197  -19.2562 C   0  0  0  0  0  0  0  0  0  0  0  0
   16.5424   -9.5722  -18.8788 C   0  0  0  0  0  0  0  0  0  0  0  0
   16.7877   -9.4329  -17.4295 C   0  0  2  0  0  0  0  0  0  0  0  0
   16.7264   -7.9497  -17.0458 C   0  0  0  0  0  0  0  0  0  0  0  0
   18.1026  -10.0170  -16.9414 C   0  0  2  0  0  0  0  0  0  0  0  0
   17.9895  -11.4962  -17.1072 N   0  0  0  0  0  0  0  0  0  0  0  0
   18.3661   -9.7709  -15.5079 C   0  0  0  0  0  0  0  0  0  0  0  0
   17.6245  -10.3222  -14.6258 O   0  0  0  0  0  0  0  0  0  0  0  0
   22.7371   -3.5738  -15.5945 O   0  0  0  0  0  0  0  0  0  0  0  0
   22.3380   -4.8008  -15.0570 C   0  0  0  0  0  0  0  0  0  0  0  0
   21.9411   -4.9223  -13.7422 C   0  0  0  0  0  0  0  0  0  0  0  0
   21.5469   -6.1382  -13.2143 C   0  0  0  0  0  0  0  0  0  0  0  0
   21.5296   -7.2915  -13.9719 C   0  0  0  0  0  0  0  0  0  0  0  0
   21.1159   -8.6059  -13.4186 C   0  0  0  0  0  0  0  0  0  0  0  0
   19.6306   -8.8697  -13.5653 C   0  0  2  0  0  0  0  0  0  0  0  0
   19.4046   -8.9539  -15.0226 N   0  0  0  0  0  0  0  0  0  0  0  0
   18.8378   -7.7551  -12.9927 C   0  0  0  0  0  0  0  0  0  0  0  0
   18.6527   -7.6248  -11.6135 O   0  0  0  0  0  0  0  0  0  0  0  0
   21.9297   -7.1620  -15.2929 C   0  0  0  0  0  0  0  0  0  0  0  0
   22.3224   -5.9499  -15.8186 C   0  0  0  0  0  0  0  0  0  0  0  0
   18.3028   -6.8868  -13.7188 O   0  0  0  0  0  0  0  0  0  0  0  0
  2  1  1  6
  2  3  1  0
  3  4  1  0
  4  5  1  0
  5  9  1  0
  6  5  2  0
  7  2  1  0
  8  7  2  0
 11 10  1  0
 12 13  1  6
 12 11  1  0
 12 14  1  0
 14 15  1  1
 15  7  1  0
 16 14  1  0
 16 17  2  0
 19 18  1  0
 20 19  2  0
 21 20  1  0
 22 21  2  0
 22 28  1  0
 24 23  1  6
 23 22  1  0
 24 25  1  0
 25 16  1  0
 26 24  1  0
 27 26  1  0
 28 29  2  0
 29 19  1  0
 30 26  2  0
M  END
$$$$
