EIY.pdb
     RDKit          3D

 30 30  0  0  1  0  0  0  0  0999 V2000
   23.4622  -20.5326  -16.4534 N   0  0  0  0  0  0  0  0  0  0  0  0
   23.7231  -19.7008  -15.3194 C   0  0  1  0  0  0  0  0  0  0  0  0
   24.4610  -18.4441  -15.6509 C   0  0  0  0  0  0  0  0  0  0  0  0
   25.4146  -18.5871  -16.7830 C   0  0  0  0  0  0  0  0  0  0  0  0
   24.8879  -18.2068  -18.0978 C   0  0  0  0  0  0  0  0  0  0  0  0
   24.3601  -19.0186  -18.8929 O   0  0  0  0  0  0  0  0  0  0  0  0
   22.4181  -19.3205  -14.7037 C   0  0  0  0  0  0  0  0  0  0  0  0
   22.3997  -18.4900  -13.7322 O   0  0  0  0  0  0  0  0  0  0  0  0
   24.9639  -16.8737  -18.5162 O   0  0  0  0  0  0  0  0  0  0  0  0
   18.7446  -16.9682  -17.1876 C   0  0  0  0  0  0  0  0  0  0  0  0
   19.6217  -17.5363  -16.1053 C   0  0  0  0  0  0  0  0  0  0  0  0
   19.0910  -18.8116  -15.5837 C   0  0  2  0  0  0  0  0  0  0  0  0
   17.6832  -18.5819  -15.0213 C   0  0  0  0  0  0  0  0  0  0  0  0
   19.9473  -19.4765  -14.5194 C   0  0  2  0  0  0  0  0  0  0  0  0
   21.2168  -19.8771  -15.1951 N   0  0  0  0  0  0  0  0  0  0  0  0
   19.3543  -20.7124  -13.9665 C   0  0  0  0  0  0  0  0  0  0  0  0
   19.1080  -21.6968  -14.7426 O   0  0  0  0  0  0  0  0  0  0  0  0
   16.3364  -26.9196   -8.3506 O   0  0  0  0  0  0  0  0  0  0  0  0
   16.9581  -25.8185   -8.9463 C   0  0  0  0  0  0  0  0  0  0  0  0
   16.6255  -24.5248   -8.6048 C   0  0  0  0  0  0  0  0  0  0  0  0
   17.2431  -23.4382   -9.1966 C   0  0  0  0  0  0  0  0  0  0  0  0
   18.2219  -23.5892  -10.1576 C   0  0  0  0  0  0  0  0  0  0  0  0
   18.8898  -22.4332  -10.8077 C   0  0  0  0  0  0  0  0  0  0  0  0
   18.3531  -22.1421  -12.1950 C   0  0  2  0  0  0  0  0  0  0  0  0
   19.0322  -20.8974  -12.6087 N   0  0  0  0  0  0  0  0  0  0  0  0
   16.8857  -21.9315  -12.1594 C   0  0  0  0  0  0  0  0  0  0  0  0
   16.3305  -20.7459  -11.6698 O   0  0  0  0  0  0  0  0  0  0  0  0
   18.5515  -24.8925  -10.4960 C   0  0  0  0  0  0  0  0  0  0  0  0
   17.9357  -25.9752   -9.9058 C   0  0  0  0  0  0  0  0  0  0  0  0
   16.0853  -22.8044  -12.5654 O   0  0  0  0  0  0  0  0  0  0  0  0
  2  1  1  6
  2  3  1  0
  3  4  1  0
  4  5  1  0
  5  9  1  0
  6  5  2  0
  7  2  1  0
  8  7  2  0
 11 10  1  0
 12 13  1  1
 12 11  1  0
 12 14  1  0
 14 15  1  6
 15  7  1  0
 16 14  1  0
 16 17  2  0
 19 18  1  0
 20 19  2  0
 21 20  1  0
 22 21  2  0
 22 28  1  0
 24 23  1  1
 23 22  1  0
 24 25  1  0
 25 16  1  0
 26 24  1  0
 27 26  1  0
 28 29  2  0
 29 19  1  0
 30 26  2  0
M  END
$$$$
