EIY.pdb
     RDKit          3D

 30 30  0  0  1  0  0  0  0  0999 V2000
   22.7449  -20.2539  -15.9985 N   0  0  0  0  0  0  0  0  0  0  0  0
   23.3661  -19.4265  -15.0108 C   0  0  1  0  0  0  0  0  0  0  0  0
   22.4366  -18.9766  -13.9304 C   0  0  0  0  0  0  0  0  0  0  0  0
   21.4823  -20.0254  -13.4824 C   0  0  0  0  0  0  0  0  0  0  0  0
   21.4986  -20.3146  -12.0447 C   0  0  0  0  0  0  0  0  0  0  0  0
   20.9455  -19.5885  -11.1865 O   0  0  0  0  0  0  0  0  0  0  0  0
   24.4717  -20.2013  -14.3748 C   0  0  0  0  0  0  0  0  0  0  0  0
   24.5391  -21.4648  -14.5561 O   0  0  0  0  0  0  0  0  0  0  0  0
   22.1590  -21.4550  -11.5743 O   0  0  0  0  0  0  0  0  0  0  0  0
   29.0144  -18.5501  -15.7177 C   0  0  0  0  0  0  0  0  0  0  0  0
   27.8602  -19.3918  -15.2455 C   0  0  0  0  0  0  0  0  0  0  0  0
   27.8338  -19.5086  -13.7739 C   0  0  2  0  0  0  0  0  0  0  0  0
   29.1430  -20.1455  -13.2930 C   0  0  0  0  0  0  0  0  0  0  0  0
   26.6634  -20.2982  -13.2129 C   0  0  2  0  0  0  0  0  0  0  0  0
   25.4324  -19.5378  -13.5803 N   0  0  0  0  0  0  0  0  0  0  0  0
   26.6707  -20.4045  -11.7386 C   0  0  0  0  0  0  0  0  0  0  0  0
   26.4657  -19.3620  -11.0292 O   0  0  0  0  0  0  0  0  0  0  0  0
   27.2570  -19.7023   -3.4183 O   0  0  0  0  0  0  0  0  0  0  0  0
   27.3245  -19.8724   -4.8040 C   0  0  0  0  0  0  0  0  0  0  0  0
   26.5826  -19.0947   -5.6676 C   0  0  0  0  0  0  0  0  0  0  0  0
   26.6524  -19.2662   -7.0380 C   0  0  0  0  0  0  0  0  0  0  0  0
   27.4650  -20.2217   -7.6134 C   0  0  0  0  0  0  0  0  0  0  0  0
   27.5461  -20.4236   -9.0823 C   0  0  0  0  0  0  0  0  0  0  0  0
   26.7326  -21.6085   -9.5635 C   0  0  2  0  0  0  0  0  0  0  0  0
   26.8893  -21.6022  -11.0322 N   0  0  0  0  0  0  0  0  0  0  0  0
   25.3028  -21.4471   -9.2053 C   0  0  0  0  0  0  0  0  0  0  0  0
   24.7495  -22.0999   -8.1001 O   0  0  0  0  0  0  0  0  0  0  0  0
   28.2081  -20.9999   -6.7393 C   0  0  0  0  0  0  0  0  0  0  0  0
   28.1383  -20.8284   -5.3736 C   0  0  0  0  0  0  0  0  0  0  0  0
   24.5340  -20.7216   -9.8760 O   0  0  0  0  0  0  0  0  0  0  0  0
  2  1  1  6
  2  3  1  0
  3  4  1  0
  4  5  1  0
  5  9  1  0
  6  5  2  0
  7  2  1  0
  8  7  2  0
 11 10  1  0
 12 13  1  6
 12 11  1  0
 12 14  1  0
 14 15  1  1
 15  7  1  0
 16 14  1  0
 16 17  2  0
 19 18  1  0
 20 19  2  0
 21 20  1  0
 22 21  2  0
 22 28  1  0
 24 23  1  1
 23 22  1  0
 24 25  1  0
 25 16  1  0
 26 24  1  0
 27 26  1  0
 28 29  2  0
 29 19  1  0
 30 26  2  0
M  END
$$$$
