EIY.pdb
     RDKit          3D

 30 30  0  0  1  0  0  0  0  0999 V2000
   25.6124  -24.7707  -16.8935 N   0  0  0  0  0  0  0  0  0  0  0  0
   25.1391  -23.4215  -16.8557 C   0  0  1  0  0  0  0  0  0  0  0  0
   23.7137  -23.2947  -16.4244 C   0  0  0  0  0  0  0  0  0  0  0  0
   22.7359  -23.8076  -17.4206 C   0  0  0  0  0  0  0  0  0  0  0  0
   22.7122  -23.0926  -18.7009 C   0  0  0  0  0  0  0  0  0  0  0  0
   22.8768  -21.8550  -18.8054 O   0  0  0  0  0  0  0  0  0  0  0  0
   25.9820  -22.6532  -15.8933 C   0  0  0  0  0  0  0  0  0  0  0  0
   26.5981  -23.2749  -14.9618 O   0  0  0  0  0  0  0  0  0  0  0  0
   22.4965  -23.8022  -19.8874 O   0  0  0  0  0  0  0  0  0  0  0  0
   29.0548  -18.6311  -17.7040 C   0  0  0  0  0  0  0  0  0  0  0  0
   28.5831  -19.8082  -16.8944 C   0  0  0  0  0  0  0  0  0  0  0  0
   27.6297  -19.4024  -15.8426 C   0  0  2  0  0  0  0  0  0  0  0  0
   28.3311  -18.4559  -14.8612 C   0  0  0  0  0  0  0  0  0  0  0  0
   27.0050  -20.5483  -15.0649 C   0  0  2  0  0  0  0  0  0  0  0  0
   26.0938  -21.2507  -16.0162 N   0  0  0  0  0  0  0  0  0  0  0  0
   26.1706  -20.1086  -13.9268 C   0  0  0  0  0  0  0  0  0  0  0  0
   25.3519  -19.1401  -14.0810 O   0  0  0  0  0  0  0  0  0  0  0  0
   19.0803  -20.0985   -9.3584 O   0  0  0  0  0  0  0  0  0  0  0  0
   20.2492  -20.2677  -10.1059 C   0  0  0  0  0  0  0  0  0  0  0  0
   21.3824  -19.5219   -9.8596 C   0  0  0  0  0  0  0  0  0  0  0  0
   22.5369  -19.6924  -10.6015 C   0  0  0  0  0  0  0  0  0  0  0  0
   22.6171  -20.6146  -11.6250 C   0  0  0  0  0  0  0  0  0  0  0  0
   23.8466  -20.8051  -12.4356 C   0  0  0  0  0  0  0  0  0  0  0  0
   25.1101  -20.4099  -11.6976 C   0  0  2  0  0  0  0  0  0  0  0  0
   26.2057  -20.6933  -12.6469 N   0  0  0  0  0  0  0  0  0  0  0  0
   25.2800  -21.2232  -10.4694 C   0  0  0  0  0  0  0  0  0  0  0  0
   25.8586  -22.4948  -10.5108 O   0  0  0  0  0  0  0  0  0  0  0  0
   21.4742  -21.3610  -11.8670 C   0  0  0  0  0  0  0  0  0  0  0  0
   20.3239  -21.1908  -11.1272 C   0  0  0  0  0  0  0  0  0  0  0  0
   24.9133  -20.8058   -9.3475 O   0  0  0  0  0  0  0  0  0  0  0  0
  2  1  1  1
  2  3  1  0
  3  4  1  0
  4  5  1  0
  5  9  1  0
  6  5  2  0
  7  2  1  0
  8  7  2  0
 11 10  1  0
 12 13  1  1
 12 11  1  0
 12 14  1  0
 14 15  1  6
 15  7  1  0
 16 14  1  0
 16 17  2  0
 19 18  1  0
 20 19  2  0
 21 20  1  0
 22 21  2  0
 22 28  1  0
 24 23  1  6
 23 22  1  0
 24 25  1  0
 25 16  1  0
 26 24  1  0
 27 26  1  0
 28 29  2  0
 29 19  1  0
 30 26  2  0
M  END
$$$$
