EIY.pdb
     RDKit          3D

 30 30  0  0  1  0  0  0  0  0999 V2000
   19.3150  -12.9021  -16.4778 N   0  0  0  0  0  0  0  0  0  0  0  0
   19.5694  -11.6482  -17.1172 C   0  0  1  0  0  0  0  0  0  0  0  0
   18.3306  -10.9051  -17.5007 C   0  0  0  0  0  0  0  0  0  0  0  0
   17.4970  -11.6068  -18.5127 C   0  0  0  0  0  0  0  0  0  0  0  0
   16.2783  -10.8998  -18.9198 C   0  0  0  0  0  0  0  0  0  0  0  0
   15.5260  -10.2994  -18.1178 O   0  0  0  0  0  0  0  0  0  0  0  0
   20.3496  -10.7901  -16.1782 C   0  0  0  0  0  0  0  0  0  0  0  0
   20.0727  -10.8105  -14.9305 O   0  0  0  0  0  0  0  0  0  0  0  0
   15.9082  -10.8762  -20.2691 O   0  0  0  0  0  0  0  0  0  0  0  0
   25.3020  -11.3721  -15.4332 C   0  0  0  0  0  0  0  0  0  0  0  0
   23.8437  -11.0116  -15.3502 C   0  0  0  0  0  0  0  0  0  0  0  0
   23.5979   -9.6216  -15.7830 C   0  0  2  0  0  0  0  0  0  0  0  0
   24.4871   -8.6734  -14.9699 C   0  0  0  0  0  0  0  0  0  0  0  0
   22.1541   -9.1610  -15.6754 C   0  0  2  0  0  0  0  0  0  0  0  0
   21.3843   -9.9645  -16.6705 N   0  0  0  0  0  0  0  0  0  0  0  0
   21.9554   -7.7408  -16.0340 C   0  0  0  0  0  0  0  0  0  0  0  0
   22.2482   -7.3397  -17.2111 O   0  0  0  0  0  0  0  0  0  0  0  0
   19.1310    0.5887  -16.6623 O   0  0  0  0  0  0  0  0  0  0  0  0
   19.3413   -0.7520  -16.3276 C   0  0  0  0  0  0  0  0  0  0  0  0
   19.6356   -1.1404  -15.0377 C   0  0  0  0  0  0  0  0  0  0  0  0
   19.8428   -2.4680  -14.7108 C   0  0  0  0  0  0  0  0  0  0  0  0
   19.7669   -3.4723  -15.6542 C   0  0  0  0  0  0  0  0  0  0  0  0
   19.9936   -4.9015  -15.3211 C   0  0  0  0  0  0  0  0  0  0  0  0
   21.4148   -5.3544  -15.5899 C   0  0  2  0  0  0  0  0  0  0  0  0
   21.4500   -6.7652  -15.1541 N   0  0  0  0  0  0  0  0  0  0  0  0
   22.3816   -4.5551  -14.7992 C   0  0  0  0  0  0  0  0  0  0  0  0
   23.0988   -3.5015  -15.3730 O   0  0  0  0  0  0  0  0  0  0  0  0
   19.4705   -3.0747  -16.9488 C   0  0  0  0  0  0  0  0  0  0  0  0
   19.2639   -1.7514  -17.2741 C   0  0  0  0  0  0  0  0  0  0  0  0
   22.5952   -4.7901  -13.5882 O   0  0  0  0  0  0  0  0  0  0  0  0
  2  1  1  1
  2  3  1  0
  3  4  1  0
  4  5  1  0
  5  9  1  0
  6  5  2  0
  7  2  1  0
  8  7  2  0
 11 10  1  0
 12 13  1  1
 12 11  1  0
 12 14  1  0
 14 15  1  6
 15  7  1  0
 16 14  1  0
 16 17  2  0
 19 18  1  0
 20 19  2  0
 21 20  1  0
 22 21  2  0
 22 28  1  0
 24 23  1  1
 23 22  1  0
 24 25  1  0
 25 16  1  0
 26 24  1  0
 27 26  1  0
 28 29  2  0
 29 19  1  0
 30 26  2  0
M  END
$$$$
