EIY.pdb
     RDKit          3D

 30 30  0  0  1  0  0  0  0  0999 V2000
   27.9534  -22.7027  -17.2074 N   0  0  0  0  0  0  0  0  0  0  0  0
   27.3973  -21.5055  -16.6568 C   0  0  1  0  0  0  0  0  0  0  0  0
   26.4464  -20.8058  -17.5733 C   0  0  0  0  0  0  0  0  0  0  0  0
   27.1061  -20.1243  -18.7187 C   0  0  0  0  0  0  0  0  0  0  0  0
   28.1046  -19.1134  -18.3557 C   0  0  0  0  0  0  0  0  0  0  0  0
   27.8195  -17.9213  -18.0963 O   0  0  0  0  0  0  0  0  0  0  0  0
   26.6591  -21.8591  -15.4091 C   0  0  0  0  0  0  0  0  0  0  0  0
   26.0787  -22.9947  -15.3226 O   0  0  0  0  0  0  0  0  0  0  0  0
   29.4565  -19.4675  -18.2867 O   0  0  0  0  0  0  0  0  0  0  0  0
   28.8369  -20.7178  -10.7233 C   0  0  0  0  0  0  0  0  0  0  0  0
   28.0444  -21.4079  -11.8001 C   0  0  0  0  0  0  0  0  0  0  0  0
   26.6878  -20.8400  -11.9304 C   0  0  2  0  0  0  0  0  0  0  0  0
   25.9080  -21.0887  -10.6339 C   0  0  0  0  0  0  0  0  0  0  0  0
   25.8800  -21.3687  -13.1036 C   0  0  2  0  0  0  0  0  0  0  0  0
   26.6059  -20.9422  -14.3363 N   0  0  0  0  0  0  0  0  0  0  0  0
   24.5201  -20.7966  -13.1943 C   0  0  0  0  0  0  0  0  0  0  0  0
   24.3560  -19.5355  -13.0722 O   0  0  0  0  0  0  0  0  0  0  0  0
   15.9876  -19.4896  -15.2113 O   0  0  0  0  0  0  0  0  0  0  0  0
   17.3099  -19.9264  -15.0903 C   0  0  0  0  0  0  0  0  0  0  0  0
   18.3724  -19.1418  -15.4862 C   0  0  0  0  0  0  0  0  0  0  0  0
   19.6791  -19.5778  -15.3647 C   0  0  0  0  0  0  0  0  0  0  0  0
   19.9894  -20.8171  -14.8429 C   0  0  0  0  0  0  0  0  0  0  0  0
   21.3865  -21.3030  -14.7123 C   0  0  0  0  0  0  0  0  0  0  0  0
   22.0443  -20.8742  -13.4159 C   0  0  2  0  0  0  0  0  0  0  0  0
   23.3550  -21.5552  -13.4146 N   0  0  0  0  0  0  0  0  0  0  0  0
   21.2435  -21.3133  -12.2476 C   0  0  0  0  0  0  0  0  0  0  0  0
   20.3875  -20.4343  -11.5781 O   0  0  0  0  0  0  0  0  0  0  0  0
   18.9165  -21.6004  -14.4469 C   0  0  0  0  0  0  0  0  0  0  0  0
   17.6143  -21.1654  -14.5680 C   0  0  0  0  0  0  0  0  0  0  0  0
   21.3007  -22.4862  -11.8136 O   0  0  0  0  0  0  0  0  0  0  0  0
  2  1  1  6
  2  3  1  0
  3  4  1  0
  4  5  1  0
  5  9  1  0
  6  5  2  0
  7  2  1  0
  8  7  2  0
 11 10  1  0
 12 13  1  1
 12 11  1  0
 12 14  1  0
 14 15  1  6
 15  7  1  0
 16 14  1  0
 16 17  2  0
 19 18  1  0
 20 19  2  0
 21 20  1  0
 22 21  2  0
 22 28  1  0
 24 23  1  6
 23 22  1  0
 24 25  1  0
 25 16  1  0
 26 24  1  0
 27 26  1  0
 28 29  2  0
 29 19  1  0
 30 26  2  0
M  END
$$$$
