EIY.pdb
     RDKit          3D

 30 30  0  0  1  0  0  0  0  0999 V2000
   26.4709  -23.8019  -16.3617 N   0  0  0  0  0  0  0  0  0  0  0  0
   26.1974  -22.4530  -15.9725 C   0  0  1  0  0  0  0  0  0  0  0  0
   25.4788  -21.6589  -17.0150 C   0  0  0  0  0  0  0  0  0  0  0  0
   26.3068  -21.3458  -18.2099 C   0  0  0  0  0  0  0  0  0  0  0  0
   27.5135  -20.5550  -17.9463 C   0  0  0  0  0  0  0  0  0  0  0  0
   27.4899  -19.3508  -17.6014 O   0  0  0  0  0  0  0  0  0  0  0  0
   25.3478  -22.4795  -14.7460 C   0  0  0  0  0  0  0  0  0  0  0  0
   24.5228  -23.4405  -14.5734 O   0  0  0  0  0  0  0  0  0  0  0  0
   28.7739  -21.1483  -18.0783 O   0  0  0  0  0  0  0  0  0  0  0  0
   25.7746  -20.5861   -9.0044 C   0  0  0  0  0  0  0  0  0  0  0  0
   24.8612  -21.1144  -10.0769 C   0  0  0  0  0  0  0  0  0  0  0  0
   25.4993  -21.0747  -11.4077 C   0  0  2  0  0  0  0  0  0  0  0  0
   25.9575  -19.6425  -11.7070 C   0  0  0  0  0  0  0  0  0  0  0  0
   24.6293  -21.5659  -12.5523 C   0  0  2  0  0  0  0  0  0  0  0  0
   25.4590  -21.4481  -13.7877 N   0  0  0  0  0  0  0  0  0  0  0  0
   23.4207  -20.7445  -12.7746 C   0  0  0  0  0  0  0  0  0  0  0  0
   23.3509  -19.9888  -13.8023 O   0  0  0  0  0  0  0  0  0  0  0  0
   17.5650  -15.2159  -14.9162 O   0  0  0  0  0  0  0  0  0  0  0  0
   18.5612  -16.0655  -14.4268 C   0  0  0  0  0  0  0  0  0  0  0  0
   18.8683  -16.1258  -13.0839 C   0  0  0  0  0  0  0  0  0  0  0  0
   19.8547  -16.9678  -12.6039 C   0  0  0  0  0  0  0  0  0  0  0  0
   20.5825  -17.7901  -13.4396 C   0  0  0  0  0  0  0  0  0  0  0  0
   21.6495  -18.6947  -12.9411 C   0  0  0  0  0  0  0  0  0  0  0  0
   21.1060  -19.9618  -12.3117 C   0  0  2  0  0  0  0  0  0  0  0  0
   22.3038  -20.7312  -11.9180 N   0  0  0  0  0  0  0  0  0  0  0  0
   20.3053  -20.7357  -13.2909 C   0  0  0  0  0  0  0  0  0  0  0  0
   20.8843  -21.7326  -14.0812 O   0  0  0  0  0  0  0  0  0  0  0  0
   20.2684  -17.7246  -14.7882 C   0  0  0  0  0  0  0  0  0  0  0  0
   19.2852  -16.8853  -15.2662 C   0  0  0  0  0  0  0  0  0  0  0  0
   19.0808  -20.5290  -13.4499 O   0  0  0  0  0  0  0  0  0  0  0  0
  2  1  1  6
  2  3  1  0
  3  4  1  0
  4  5  1  0
  5  9  1  0
  6  5  2  0
  7  2  1  0
  8  7  2  0
 11 10  1  0
 12 13  1  6
 12 11  1  0
 12 14  1  0
 14 15  1  6
 15  7  1  0
 16 14  1  0
 16 17  2  0
 19 18  1  0
 20 19  2  0
 21 20  1  0
 22 21  2  0
 22 28  1  0
 24 23  1  6
 23 22  1  0
 24 25  1  0
 25 16  1  0
 26 24  1  0
 27 26  1  0
 28 29  2  0
 29 19  1  0
 30 26  2  0
M  END
$$$$
