TEM.pdb
     RDKit          3D

 25 24  0  0  1  0  0  0  0  0999 V2000
   14.8278  -10.6743  -15.6026 C   0  0  0  0  0  0  0  0  0  0  0  0
   15.2410  -12.0631  -15.2206 C   0  0  1  0  0  0  0  0  0  0  0  0
   14.4097  -13.0103  -15.8180 O   0  0  0  0  0  0  0  0  0  0  0  0
   16.6605  -12.2910  -15.7504 C   0  0  2  0  0  0  0  0  0  0  0  0
   17.0773  -13.6419  -15.4421 N   0  0  0  0  0  0  0  0  0  0  0  0
   17.5924  -11.3271  -15.1205 C   0  0  0  0  0  0  0  0  0  0  0  0
   17.8984  -11.4452  -13.9066 O   0  0  0  0  0  0  0  0  0  0  0  0
   18.1653  -10.2529  -15.8492 N   0  0  0  0  0  0  0  0  0  0  0  0
   18.9819   -9.2863  -15.1452 C   0  0  1  0  0  0  0  0  0  0  0  0
   19.8018   -8.4578  -16.1127 C   0  0  0  0  0  0  0  0  0  0  0  0
   20.9157   -9.2378  -16.7480 C   0  0  0  0  0  0  0  0  0  0  0  0
   21.7252   -8.4742  -17.7069 C   0  0  0  0  0  0  0  0  0  0  0  0
   21.4059   -8.3565  -18.9088 O   0  0  0  0  0  0  0  0  0  0  0  0
   18.0729   -8.3287  -14.4185 C   0  0  0  0  0  0  0  0  0  0  0  0
   17.0215   -7.9200  -14.9622 O   0  0  0  0  0  0  0  0  0  0  0  0
   22.9093   -7.8272  -17.3376 O   0  0  0  0  0  0  0  0  0  0  0  0
   14.6617   -6.2411   -7.8801 C   0  0  0  0  0  0  0  0  0  0  0  0
   15.8591   -7.3824   -8.6617 S   0  0  0  0  0  0  0  0  0  0  0  0
   16.2689   -6.6375  -10.2883 C   0  0  0  0  0  0  0  0  0  0  0  0
   17.1849   -7.5445  -11.0593 C   0  0  0  0  0  0  0  0  0  0  0  0
   17.5103   -6.9879  -12.4124 C   0  0  2  0  0  0  0  0  0  0  0  0
   18.4161   -7.9006  -13.1281 N   0  0  0  0  0  0  0  0  0  0  0  0
   18.1374   -5.6642  -12.3219 C   0  0  0  0  0  0  0  0  0  0  0  0
   19.4031   -5.5731  -12.4649 O   0  0  0  0  0  0  0  0  0  0  0  0
   17.4721   -4.4850  -12.0947 O   0  0  0  0  0  0  0  0  0  0  0  0
  2  1  1  6
  2  3  1  0
  4  2  1  0
  4  5  1  1
  6  4  1  0
  6  7  2  0
  8  6  1  0
  9  8  1  0
  9 14  1  0
  9 10  1  6
 11 10  1  0
 12 11  1  0
 13 12  2  0
 14 15  2  0
 14 22  1  0
 16 12  1  0
 18 17  1  0
 19 18  1  0
 20 19  1  0
 21 20  1  1
 22 21  1  0
 23 25  1  0
 23 21  1  0
 24 23  2  0
M  END
$$$$
