TEM.pdb
     RDKit          3D

 25 24  0  0  1  0  0  0  0  0999 V2000
   14.8480  -11.5742  -12.5968 C   0  0  0  0  0  0  0  0  0  0  0  0
   15.2944  -10.4373  -11.7286 C   0  0  1  0  0  0  0  0  0  0  0  0
   14.5609  -10.4006  -10.5430 O   0  0  0  0  0  0  0  0  0  0  0  0
   16.7617  -10.6791  -11.3596 C   0  0  2  0  0  0  0  0  0  0  0  0
   16.8520  -11.8148  -10.4676 N   0  0  0  0  0  0  0  0  0  0  0  0
   17.3163   -9.4780  -10.6932 C   0  0  0  0  0  0  0  0  0  0  0  0
   17.4238   -9.4432   -9.4408 O   0  0  0  0  0  0  0  0  0  0  0  0
   17.7401   -8.3411  -11.4288 N   0  0  0  0  0  0  0  0  0  0  0  0
   18.1344   -7.1485  -10.7085 C   0  0  1  0  0  0  0  0  0  0  0  0
   19.1327   -6.3350  -11.5064 C   0  0  0  0  0  0  0  0  0  0  0  0
   20.5235   -6.4095  -10.9473 C   0  0  0  0  0  0  0  0  0  0  0  0
   21.5386   -5.7045  -11.7414 C   0  0  0  0  0  0  0  0  0  0  0  0
   22.5602   -5.2014  -11.2279 O   0  0  0  0  0  0  0  0  0  0  0  0
   16.9189   -6.2776  -10.5202 C   0  0  0  0  0  0  0  0  0  0  0  0
   16.0361   -6.2250  -11.4067 O   0  0  0  0  0  0  0  0  0  0  0  0
   21.4287   -5.5493  -13.1273 O   0  0  0  0  0  0  0  0  0  0  0  0
   11.7470   -3.2950   -5.6036 C   0  0  0  0  0  0  0  0  0  0  0  0
   13.1487   -4.4482   -5.8329 S   0  0  0  0  0  0  0  0  0  0  0  0
   13.8129   -4.0984   -7.5078 C   0  0  0  0  0  0  0  0  0  0  0  0
   14.9747   -5.0027   -7.8054 C   0  0  0  0  0  0  0  0  0  0  0  0
   15.5778   -4.7116   -9.1463 C   0  0  2  0  0  0  0  0  0  0  0  0
   16.7867   -5.5275   -9.3429 N   0  0  0  0  0  0  0  0  0  0  0  0
   15.9280   -3.2938   -9.2913 C   0  0  0  0  0  0  0  0  0  0  0  0
   17.1615   -2.9632   -9.2964 O   0  0  0  0  0  0  0  0  0  0  0  0
   15.0297   -2.2647   -9.4281 O   0  0  0  0  0  0  0  0  0  0  0  0
  2  1  1  6
  2  3  1  0
  4  2  1  0
  4  5  1  1
  6  4  1  0
  6  7  2  0
  8  6  1  0
  9  8  1  0
  9 14  1  0
  9 10  1  6
 11 10  1  0
 12 11  1  0
 13 12  2  0
 14 15  2  0
 14 22  1  0
 16 12  1  0
 18 17  1  0
 19 18  1  0
 20 19  1  0
 21 20  1  1
 22 21  1  0
 23 25  1  0
 23 21  1  0
 24 23  2  0
M  END
$$$$
