TEM.pdb
     RDKit          3D

 25 24  0  0  1  0  0  0  0  0999 V2000
   19.8281  -14.1702  -15.9599 C   0  0  0  0  0  0  0  0  0  0  0  0
   19.9977  -12.7618  -16.4429 C   0  0  1  0  0  0  0  0  0  0  0  0
   20.4015  -12.7401  -17.7777 O   0  0  0  0  0  0  0  0  0  0  0  0
   18.6325  -12.0713  -16.3593 C   0  0  2  0  0  0  0  0  0  0  0  0
   17.7521  -12.6244  -17.3657 N   0  0  0  0  0  0  0  0  0  0  0  0
   18.7914  -10.6157  -16.5833 C   0  0  0  0  0  0  0  0  0  0  0  0
   18.8865  -10.1629  -17.7525 O   0  0  0  0  0  0  0  0  0  0  0  0
   18.8414   -9.6928  -15.5067 N   0  0  0  0  0  0  0  0  0  0  0  0
   18.9663   -8.2805  -15.8007 C   0  0  1  0  0  0  0  0  0  0  0  0
   17.8673   -7.4844  -15.1276 C   0  0  0  0  0  0  0  0  0  0  0  0
   16.5332   -7.6553  -15.7937 C   0  0  0  0  0  0  0  0  0  0  0  0
   15.4432   -6.8827  -15.1831 C   0  0  0  0  0  0  0  0  0  0  0  0
   14.2720   -6.9195  -15.6160 O   0  0  0  0  0  0  0  0  0  0  0  0
   20.2704   -7.7851  -15.2306 C   0  0  0  0  0  0  0  0  0  0  0  0
   20.7464   -8.3066  -14.1964 O   0  0  0  0  0  0  0  0  0  0  0  0
   15.6444   -6.0531  -14.0749 O   0  0  0  0  0  0  0  0  0  0  0  0
   27.0258   -4.2757  -17.0461 C   0  0  0  0  0  0  0  0  0  0  0  0
   25.3255   -4.6214  -17.6266 S   0  0  0  0  0  0  0  0  0  0  0  0
   24.4652   -5.4081  -16.2090 C   0  0  0  0  0  0  0  0  0  0  0  0
   23.0724   -5.8086  -16.6037 C   0  0  0  0  0  0  0  0  0  0  0  0
   22.3198   -6.4111  -15.4561 C   0  0  2  0  0  0  0  0  0  0  0  0
   20.9451   -6.7350  -15.8696 N   0  0  0  0  0  0  0  0  0  0  0  0
   22.2720   -5.5079  -14.3003 C   0  0  0  0  0  0  0  0  0  0  0  0
   21.3621   -4.6131  -14.2572 O   0  0  0  0  0  0  0  0  0  0  0  0
   23.1353   -5.5388  -13.2332 O   0  0  0  0  0  0  0  0  0  0  0  0
  2  1  1  6
  2  3  1  0
  4  2  1  0
  4  5  1  6
  6  4  1  0
  6  7  2  0
  8  6  1  0
  9  8  1  0
  9 14  1  0
  9 10  1  1
 11 10  1  0
 12 11  1  0
 13 12  2  0
 14 15  2  0
 14 22  1  0
 16 12  1  0
 18 17  1  0
 19 18  1  0
 20 19  1  0
 21 20  1  6
 22 21  1  0
 23 25  1  0
 23 21  1  0
 24 23  2  0
M  END
$$$$
