TEM.pdb
     RDKit          3D

 25 24  0  0  1  0  0  0  0  0999 V2000
   18.8913  -10.2523  -18.0905 C   0  0  0  0  0  0  0  0  0  0  0  0
   20.0164  -11.2239  -17.9017 C   0  0  1  0  0  0  0  0  0  0  0  0
   19.6535  -12.4956  -18.3445 O   0  0  0  0  0  0  0  0  0  0  0  0
   21.1923  -10.7504  -18.7623 C   0  0  2  0  0  0  0  0  0  0  0  0
   22.2469  -11.7402  -18.7211 N   0  0  0  0  0  0  0  0  0  0  0  0
   21.7026   -9.4583  -18.2482 C   0  0  0  0  0  0  0  0  0  0  0  0
   22.5548   -9.4382  -17.3238 O   0  0  0  0  0  0  0  0  0  0  0  0
   21.2577   -8.2159  -18.7695 N   0  0  0  0  0  0  0  0  0  0  0  0
   21.8251   -6.9923  -18.2427 C   0  0  1  0  0  0  0  0  0  0  0  0
   21.3758   -5.7915  -19.0496 C   0  0  0  0  0  0  0  0  0  0  0  0
   21.8990   -4.4949  -18.5041 C   0  0  0  0  0  0  0  0  0  0  0  0
   21.5295   -3.3096  -19.2894 C   0  0  0  0  0  0  0  0  0  0  0  0
   21.1779   -2.2359  -18.7563 O   0  0  0  0  0  0  0  0  0  0  0  0
   21.3100   -6.7888  -16.8411 C   0  0  0  0  0  0  0  0  0  0  0  0
   20.0845   -6.8782  -16.5994 O   0  0  0  0  0  0  0  0  0  0  0  0
   21.5467   -3.3041  -20.6881 O   0  0  0  0  0  0  0  0  0  0  0  0
   21.7222  -10.3080  -12.2430 C   0  0  0  0  0  0  0  0  0  0  0  0
   22.1305   -8.8558  -11.2077 S   0  0  0  0  0  0  0  0  0  0  0  0
   21.6266   -7.3878  -12.1873 C   0  0  0  0  0  0  0  0  0  0  0  0
   22.1005   -7.5224  -13.6063 C   0  0  0  0  0  0  0  0  0  0  0  0
   21.7114   -6.3379  -14.4382 C   0  0  2  0  0  0  0  0  0  0  0  0
   22.2161   -6.4987  -15.8112 N   0  0  0  0  0  0  0  0  0  0  0  0
   22.2319   -5.0842  -13.8803 C   0  0  0  0  0  0  0  0  0  0  0  0
   23.1293   -4.4489  -14.5296 O   0  0  0  0  0  0  0  0  0  0  0  0
   21.8313   -4.5160  -12.6965 O   0  0  0  0  0  0  0  0  0  0  0  0
  2  1  1  6
  2  3  1  0
  4  2  1  0
  4  5  1  1
  6  4  1  0
  6  7  2  0
  8  6  1  0
  9  8  1  0
  9 14  1  0
  9 10  1  6
 11 10  1  0
 12 11  1  0
 13 12  2  0
 14 15  2  0
 14 22  1  0
 16 12  1  0
 18 17  1  0
 19 18  1  0
 20 19  1  0
 21 20  1  1
 22 21  1  0
 23 25  1  0
 23 21  1  0
 24 23  2  0
M  END
$$$$
