TEM.pdb
     RDKit          3D

 25 24  0  0  1  0  0  0  0  0999 V2000
   30.5223  -14.3337  -17.6726 C   0  0  0  0  0  0  0  0  0  0  0  0
   29.1389  -13.8264  -17.3999 C   0  0  1  0  0  0  0  0  0  0  0  0
   28.4555  -14.6863  -16.5403 O   0  0  0  0  0  0  0  0  0  0  0  0
   29.2680  -12.4718  -16.6956 C   0  0  2  0  0  0  0  0  0  0  0  0
   27.9762  -12.0736  -16.1795 N   0  0  0  0  0  0  0  0  0  0  0  0
   29.7566  -11.4526  -17.6531 C   0  0  0  0  0  0  0  0  0  0  0  0
   30.8506  -11.6195  -18.2501 O   0  0  0  0  0  0  0  0  0  0  0  0
   29.0223  -10.2701  -17.9286 N   0  0  0  0  0  0  0  0  0  0  0  0
   29.5271   -9.3490  -18.9253 C   0  0  1  0  0  0  0  0  0  0  0  0
   28.4364   -8.9442  -19.8955 C   0  0  0  0  0  0  0  0  0  0  0  0
   28.0848  -10.0352  -20.8643 C   0  0  0  0  0  0  0  0  0  0  0  0
   27.0633   -9.6665  -21.8535 C   0  0  0  0  0  0  0  0  0  0  0  0
   26.8606  -10.3363  -22.8884 O   0  0  0  0  0  0  0  0  0  0  0  0
   29.9773   -8.0896  -18.2306 C   0  0  0  0  0  0  0  0  0  0  0  0
   29.6352   -7.8642  -17.0473 O   0  0  0  0  0  0  0  0  0  0  0  0
   26.2487   -8.5394  -21.7027 O   0  0  0  0  0  0  0  0  0  0  0  0
   34.9704   -2.0442  -18.1741 C   0  0  0  0  0  0  0  0  0  0  0  0
   34.4446   -3.5264  -19.1089 S   0  0  0  0  0  0  0  0  0  0  0  0
   32.9439   -4.1480  -18.2546 C   0  0  0  0  0  0  0  0  0  0  0  0
   32.4285   -5.3810  -18.9405 C   0  0  0  0  0  0  0  0  0  0  0  0
   31.2429   -5.9597  -18.2292 C   0  0  2  0  0  0  0  0  0  0  0  0
   30.7826   -7.1735  -18.9222 N   0  0  0  0  0  0  0  0  0  0  0  0
   30.1328   -5.0029  -18.1504 C   0  0  0  0  0  0  0  0  0  0  0  0
   29.2151   -5.0526  -19.0370 O   0  0  0  0  0  0  0  0  0  0  0  0
   29.9849   -4.0371  -17.1861 O   0  0  0  0  0  0  0  0  0  0  0  0
  2  1  1  1
  2  3  1  0
  4  2  1  0
  4  5  1  6
  6  4  1  0
  6  7  2  0
  8  6  1  0
  9  8  1  0
  9 14  1  0
  9 10  1  6
 11 10  1  0
 12 11  1  0
 13 12  2  0
 14 15  2  0
 14 22  1  0
 16 12  1  0
 18 17  1  0
 19 18  1  0
 20 19  1  0
 21 20  1  6
 22 21  1  0
 23 25  1  0
 23 21  1  0
 24 23  2  0
M  END
$$$$
