TEM.pdb
     RDKit          3D

 25 24  0  0  1  0  0  0  0  0999 V2000
   28.1602  -11.3815  -15.7462 C   0  0  0  0  0  0  0  0  0  0  0  0
   27.3367  -12.6121  -15.9762 C   0  0  1  0  0  0  0  0  0  0  0  0
   27.7048  -13.6278  -15.0941 O   0  0  0  0  0  0  0  0  0  0  0  0
   25.8741  -12.2561  -15.6901 C   0  0  2  0  0  0  0  0  0  0  0  0
   25.0639  -13.4522  -15.7706 N   0  0  0  0  0  0  0  0  0  0  0  0
   25.3958  -11.2639  -16.6806 C   0  0  0  0  0  0  0  0  0  0  0  0
   24.5092  -11.5801  -17.5142 O   0  0  0  0  0  0  0  0  0  0  0  0
   25.9103   -9.9424  -16.7261 N   0  0  0  0  0  0  0  0  0  0  0  0
   25.3247   -8.9947  -17.6512 C   0  0  1  0  0  0  0  0  0  0  0  0
   23.9039   -8.6516  -17.2533 C   0  0  0  0  0  0  0  0  0  0  0  0
   23.7801   -8.2719  -15.8066 C   0  0  0  0  0  0  0  0  0  0  0  0
   22.4044   -8.0182  -15.3582 C   0  0  0  0  0  0  0  0  0  0  0  0
   21.4095   -8.2884  -16.0636 O   0  0  0  0  0  0  0  0  0  0  0  0
   26.1133   -7.7120  -17.5877 C   0  0  0  0  0  0  0  0  0  0  0  0
   26.5101   -7.2684  -16.4859 O   0  0  0  0  0  0  0  0  0  0  0  0
   22.1164   -7.4562  -14.1100 O   0  0  0  0  0  0  0  0  0  0  0  0
   30.6859   -6.0118  -21.8712 C   0  0  0  0  0  0  0  0  0  0  0  0
   29.8697   -4.4019  -21.5725 S   0  0  0  0  0  0  0  0  0  0  0  0
   29.0131   -4.5694  -19.9580 C   0  0  0  0  0  0  0  0  0  0  0  0
   28.0051   -5.6814  -20.0174 C   0  0  0  0  0  0  0  0  0  0  0  0
   27.2699   -5.8366  -18.7205 C   0  0  2  0  0  0  0  0  0  0  0  0
   26.3982   -7.0209  -18.7740 N   0  0  0  0  0  0  0  0  0  0  0  0
   26.4554   -4.6559  -18.4099 C   0  0  0  0  0  0  0  0  0  0  0  0
   27.0416   -3.5908  -18.0194 O   0  0  0  0  0  0  0  0  0  0  0  0
   25.0876   -4.5883  -18.5054 O   0  0  0  0  0  0  0  0  0  0  0  0
  2  1  1  1
  2  3  1  0
  4  2  1  0
  4  5  1  6
  6  4  1  0
  6  7  2  0
  8  6  1  0
  9  8  1  0
  9 14  1  0
  9 10  1  1
 11 10  1  0
 12 11  1  0
 13 12  2  0
 14 15  2  0
 14 22  1  0
 16 12  1  0
 18 17  1  0
 19 18  1  0
 20 19  1  0
 21 20  1  6
 22 21  1  0
 23 25  1  0
 23 21  1  0
 24 23  2  0
M  END
$$$$
