TEM.pdb
     RDKit          3D

 25 24  0  0  1  0  0  0  0  0999 V2000
   15.8432   -7.1660  -13.5538 C   0  0  0  0  0  0  0  0  0  0  0  0
   15.7427   -7.7245  -12.1669 C   0  0  1  0  0  0  0  0  0  0  0  0
   14.4096   -7.8374  -11.7726 O   0  0  0  0  0  0  0  0  0  0  0  0
   16.3422   -9.1344  -12.1861 C   0  0  2  0  0  0  0  0  0  0  0  0
   16.2340   -9.7205  -10.8676 N   0  0  0  0  0  0  0  0  0  0  0  0
   17.7671   -9.0688  -12.5857 C   0  0  0  0  0  0  0  0  0  0  0  0
   18.6334   -8.6586  -11.7719 O   0  0  0  0  0  0  0  0  0  0  0  0
   18.2016   -9.4592  -13.8788 N   0  0  0  0  0  0  0  0  0  0  0  0
   19.5886   -9.2564  -14.2421 C   0  0  1  0  0  0  0  0  0  0  0  0
   19.9453  -10.0387  -15.4893 C   0  0  0  0  0  0  0  0  0  0  0  0
   20.1027  -11.5085  -15.2293 C   0  0  0  0  0  0  0  0  0  0  0  0
   20.4912  -12.2977  -16.4058 C   0  0  0  0  0  0  0  0  0  0  0  0
   21.5495  -12.9601  -16.4483 O   0  0  0  0  0  0  0  0  0  0  0  0
   19.7900   -7.7999  -14.5727 C   0  0  0  0  0  0  0  0  0  0  0  0
   19.1361   -7.2658  -15.4973 O   0  0  0  0  0  0  0  0  0  0  0  0
   19.7010  -12.3601  -17.5584 O   0  0  0  0  0  0  0  0  0  0  0  0
   18.6553   -0.7482  -14.4870 C   0  0  0  0  0  0  0  0  0  0  0  0
   18.2945   -2.4865  -14.0446 S   0  0  0  0  0  0  0  0  0  0  0  0
   19.8752   -3.3939  -14.2598 C   0  0  0  0  0  0  0  0  0  0  0  0
   19.6644   -4.8646  -14.0390 C   0  0  0  0  0  0  0  0  0  0  0  0
   20.9391   -5.6387  -14.1892 C   0  0  2  0  0  0  0  0  0  0  0  0
   20.7166   -7.0495  -13.8348 N   0  0  0  0  0  0  0  0  0  0  0  0
   22.0101   -5.0959  -13.3453 C   0  0  0  0  0  0  0  0  0  0  0  0
   22.4309   -3.9119  -13.5727 O   0  0  0  0  0  0  0  0  0  0  0  0
   22.6148   -5.7592  -12.3065 O   0  0  0  0  0  0  0  0  0  0  0  0
  2  1  1  6
  2  3  1  0
  4  2  1  0
  4  5  1  1
  6  4  1  0
  6  7  2  0
  8  6  1  0
  9  8  1  0
  9 14  1  0
  9 10  1  6
 11 10  1  0
 12 11  1  0
 13 12  2  0
 14 15  2  0
 14 22  1  0
 16 12  1  0
 18 17  1  0
 19 18  1  0
 20 19  1  0
 21 20  1  1
 22 21  1  0
 23 25  1  0
 23 21  1  0
 24 23  2  0
M  END
$$$$
