TEM.pdb
     RDKit          3D

 25 24  0  0  1  0  0  0  0  0999 V2000
   14.0748   -8.5611  -16.6110 C   0  0  0  0  0  0  0  0  0  0  0  0
   15.4697   -8.1693  -16.2288 C   0  0  1  0  0  0  0  0  0  0  0  0
   15.4702   -6.9748  -15.5089 O   0  0  0  0  0  0  0  0  0  0  0  0
   16.0285   -9.2635  -15.3133 C   0  0  2  0  0  0  0  0  0  0  0  0
   15.2244   -9.3424  -14.1130 N   0  0  0  0  0  0  0  0  0  0  0  0
   17.4304   -8.9493  -14.9529 C   0  0  0  0  0  0  0  0  0  0  0  0
   17.7085   -8.5348  -13.7988 O   0  0  0  0  0  0  0  0  0  0  0  0
   18.4945   -9.1010  -15.8792 N   0  0  0  0  0  0  0  0  0  0  0  0
   19.8531   -8.8885  -15.4256 C   0  0  1  0  0  0  0  0  0  0  0  0
   20.8294   -9.7394  -16.2114 C   0  0  0  0  0  0  0  0  0  0  0  0
   22.2518   -9.5498  -15.7714 C   0  0  0  0  0  0  0  0  0  0  0  0
   23.2212  -10.4206  -16.4496 C   0  0  0  0  0  0  0  0  0  0  0  0
   23.6259  -10.1961  -17.6100 O   0  0  0  0  0  0  0  0  0  0  0  0
   20.2261   -7.4514  -15.6844 C   0  0  0  0  0  0  0  0  0  0  0  0
   19.8393   -6.8764  -16.7274 O   0  0  0  0  0  0  0  0  0  0  0  0
   23.7562  -11.5607  -15.8408 O   0  0  0  0  0  0  0  0  0  0  0  0
   18.0834   -2.0736  -13.3480 C   0  0  0  0  0  0  0  0  0  0  0  0
   18.6074   -2.2003  -15.0963 S   0  0  0  0  0  0  0  0  0  0  0  0
   20.2130   -3.0891  -15.0721 C   0  0  0  0  0  0  0  0  0  0  0  0
   19.9852   -4.5716  -14.9902 C   0  0  0  0  0  0  0  0  0  0  0  0
   21.2761   -5.3319  -14.9472 C   0  0  2  0  0  0  0  0  0  0  0  0
   21.0103   -6.7652  -14.7461 N   0  0  0  0  0  0  0  0  0  0  0  0
   22.1564   -4.8530  -13.8749 C   0  0  0  0  0  0  0  0  0  0  0  0
   22.6269   -3.6683  -13.9497 O   0  0  0  0  0  0  0  0  0  0  0  0
   22.5279   -5.5783  -12.7701 O   0  0  0  0  0  0  0  0  0  0  0  0
  2  1  1  1
  2  3  1  0
  4  2  1  0
  4  5  1  1
  6  4  1  0
  6  7  2  0
  8  6  1  0
  9  8  1  0
  9 14  1  0
  9 10  1  6
 11 10  1  0
 12 11  1  0
 13 12  2  0
 14 15  2  0
 14 22  1  0
 16 12  1  0
 18 17  1  0
 19 18  1  0
 20 19  1  0
 21 20  1  1
 22 21  1  0
 23 25  1  0
 23 21  1  0
 24 23  2  0
M  END
$$$$
