TEM.pdb
     RDKit          3D

 25 24  0  0  1  0  0  0  0  0999 V2000
   17.4982  -15.5225  -16.3070 C   0  0  0  0  0  0  0  0  0  0  0  0
   18.0192  -14.2321  -16.8628 C   0  0  1  0  0  0  0  0  0  0  0  0
   16.9850  -13.4750  -17.4127 O   0  0  0  0  0  0  0  0  0  0  0  0
   18.6153  -13.4297  -15.7015 C   0  0  2  0  0  0  0  0  0  0  0  0
   17.5612  -13.0609  -14.7814 N   0  0  0  0  0  0  0  0  0  0  0  0
   19.2724  -12.2078  -16.2205 C   0  0  0  0  0  0  0  0  0  0  0  0
   20.2986  -12.2997  -16.9413 O   0  0  0  0  0  0  0  0  0  0  0  0
   18.7782  -10.9099  -15.9296 N   0  0  0  0  0  0  0  0  0  0  0  0
   19.3991   -9.7660  -16.5643 C   0  0  1  0  0  0  0  0  0  0  0  0
   18.5172   -8.5389  -16.4587 C   0  0  0  0  0  0  0  0  0  0  0  0
   18.1722   -8.1903  -15.0402 C   0  0  0  0  0  0  0  0  0  0  0  0
   17.1914   -7.1057  -14.9000 C   0  0  0  0  0  0  0  0  0  0  0  0
   16.0607   -7.2857  -14.4004 O   0  0  0  0  0  0  0  0  0  0  0  0
   20.6763   -9.4451  -15.8315 C   0  0  0  0  0  0  0  0  0  0  0  0
   20.7933   -9.7210  -14.6157 O   0  0  0  0  0  0  0  0  0  0  0  0
   17.4585   -5.7975  -15.3173 O   0  0  0  0  0  0  0  0  0  0  0  0
   27.9123  -10.9952  -15.3058 C   0  0  0  0  0  0  0  0  0  0  0  0
   26.3446  -11.1556  -16.2352 S   0  0  0  0  0  0  0  0  0  0  0  0
   25.3102   -9.7307  -15.7174 C   0  0  0  0  0  0  0  0  0  0  0  0
   23.9253   -9.8606  -16.2843 C   0  0  0  0  0  0  0  0  0  0  0  0
   23.0451   -8.7201  -15.8710 C   0  0  2  0  0  0  0  0  0  0  0  0
   21.7315   -8.8349  -16.5245 N   0  0  0  0  0  0  0  0  0  0  0  0
   23.6378   -7.4215  -16.2121 C   0  0  0  0  0  0  0  0  0  0  0  0
   24.7223   -7.0711  -15.6360 O   0  0  0  0  0  0  0  0  0  0  0  0
   23.1226   -6.5276  -17.1177 O   0  0  0  0  0  0  0  0  0  0  0  0
  2  1  1  1
  2  3  1  0
  4  2  1  0
  4  5  1  1
  6  4  1  0
  6  7  2  0
  8  6  1  0
  9  8  1  0
  9 14  1  0
  9 10  1  1
 11 10  1  0
 12 11  1  0
 13 12  2  0
 14 15  2  0
 14 22  1  0
 16 12  1  0
 18 17  1  0
 19 18  1  0
 20 19  1  0
 21 20  1  6
 22 21  1  0
 23 25  1  0
 23 21  1  0
 24 23  2  0
M  END
$$$$
