TEM.pdb
     RDKit          3D

 25 24  0  0  1  0  0  0  0  0999 V2000
   16.7827  -13.4833  -14.6096 C   0  0  0  0  0  0  0  0  0  0  0  0
   17.5730  -12.3346  -15.1586 C   0  0  1  0  0  0  0  0  0  0  0  0
   18.4585  -12.7679  -16.1452 O   0  0  0  0  0  0  0  0  0  0  0  0
   16.5885  -11.3603  -15.8137 C   0  0  2  0  0  0  0  0  0  0  0  0
   15.9182  -12.0211  -16.9127 N   0  0  0  0  0  0  0  0  0  0  0  0
   17.3169  -10.1729  -16.3172 C   0  0  0  0  0  0  0  0  0  0  0  0
   17.6168  -10.0850  -17.5351 O   0  0  0  0  0  0  0  0  0  0  0  0
   17.6975   -9.1080  -15.4601 N   0  0  0  0  0  0  0  0  0  0  0  0
   18.5246   -8.0442  -15.9903 C   0  0  1  0  0  0  0  0  0  0  0  0
   17.7611   -6.7371  -16.0470 C   0  0  0  0  0  0  0  0  0  0  0  0
   17.1900   -6.3385  -14.7175 C   0  0  0  0  0  0  0  0  0  0  0  0
   16.4844   -5.0500  -14.7184 C   0  0  0  0  0  0  0  0  0  0  0  0
   16.9852   -4.0119  -14.2366 O   0  0  0  0  0  0  0  0  0  0  0  0
   19.6854   -7.8269  -15.0542 C   0  0  0  0  0  0  0  0  0  0  0  0
   19.6804   -8.3402  -13.9120 O   0  0  0  0  0  0  0  0  0  0  0  0
   15.2032   -4.8994  -15.2594 O   0  0  0  0  0  0  0  0  0  0  0  0
   26.6017  -10.0880  -14.4204 C   0  0  0  0  0  0  0  0  0  0  0  0
   25.0163   -9.9960  -15.3288 S   0  0  0  0  0  0  0  0  0  0  0  0
   24.1841   -8.4752  -14.7262 C   0  0  0  0  0  0  0  0  0  0  0  0
   22.8149   -8.3570  -15.3325 C   0  0  0  0  0  0  0  0  0  0  0  0
   22.0624   -7.1825  -14.7840 C   0  0  2  0  0  0  0  0  0  0  0  0
   20.7704   -7.0446  -15.4748 N   0  0  0  0  0  0  0  0  0  0  0  0
   22.8189   -5.9333  -14.9291 C   0  0  0  0  0  0  0  0  0  0  0  0
   22.6506   -5.2323  -15.9831 O   0  0  0  0  0  0  0  0  0  0  0  0
   23.7111   -5.4351  -14.0124 O   0  0  0  0  0  0  0  0  0  0  0  0
  2  1  1  6
  2  3  1  0
  4  2  1  0
  4  5  1  6
  6  4  1  0
  6  7  2  0
  8  6  1  0
  9  8  1  0
  9 14  1  0
  9 10  1  1
 11 10  1  0
 12 11  1  0
 13 12  2  0
 14 15  2  0
 14 22  1  0
 16 12  1  0
 18 17  1  0
 19 18  1  0
 20 19  1  0
 21 20  1  6
 22 21  1  0
 23 25  1  0
 23 21  1  0
 24 23  2  0
M  END
$$$$
