TEM.pdb
     RDKit          3D

 25 24  0  0  1  0  0  0  0  0999 V2000
   15.5089   -6.2280   -9.0987 C   0  0  0  0  0  0  0  0  0  0  0  0
   15.0357   -7.6247   -8.8323 C   0  0  1  0  0  0  0  0  0  0  0  0
   13.9722   -7.6247   -7.9299 O   0  0  0  0  0  0  0  0  0  0  0  0
   14.5229   -8.2048  -10.1544 C   0  0  2  0  0  0  0  0  0  0  0  0
   14.0669   -9.5610   -9.9393 N   0  0  0  0  0  0  0  0  0  0  0  0
   15.6101   -8.1993  -11.1604 C   0  0  0  0  0  0  0  0  0  0  0  0
   16.3630   -9.1990  -11.2826 O   0  0  0  0  0  0  0  0  0  0  0  0
   15.8399   -7.0861  -12.0097 N   0  0  0  0  0  0  0  0  0  0  0  0
   16.8036   -7.2118  -13.0831 C   0  0  1  0  0  0  0  0  0  0  0  0
   16.2937   -6.5608  -14.3524 C   0  0  0  0  0  0  0  0  0  0  0  0
   15.1479   -7.3081  -14.9700 C   0  0  0  0  0  0  0  0  0  0  0  0
   14.5890   -6.6803  -16.1747 C   0  0  0  0  0  0  0  0  0  0  0  0
   14.0752   -5.5417  -16.1597 O   0  0  0  0  0  0  0  0  0  0  0  0
   18.0572   -6.4726  -12.6915 C   0  0  0  0  0  0  0  0  0  0  0  0
   17.9876   -5.4404  -11.9860 O   0  0  0  0  0  0  0  0  0  0  0  0
   14.5947   -7.3164  -17.4206 O   0  0  0  0  0  0  0  0  0  0  0  0
   22.4427  -10.0608   -9.3399 C   0  0  0  0  0  0  0  0  0  0  0  0
   22.7767   -9.2439  -10.9425 S   0  0  0  0  0  0  0  0  0  0  0  0
   21.4243   -8.0244  -11.1716 C   0  0  0  0  0  0  0  0  0  0  0  0
   21.6196   -7.2665  -12.4537 C   0  0  0  0  0  0  0  0  0  0  0  0
   20.5263   -6.2670  -12.6819 C   0  0  2  0  0  0  0  0  0  0  0  0
   19.3016   -6.9522  -13.1248 N   0  0  0  0  0  0  0  0  0  0  0  0
   20.9037   -5.2644  -13.6850 C   0  0  0  0  0  0  0  0  0  0  0  0
   20.4378   -5.3744  -14.8688 O   0  0  0  0  0  0  0  0  0  0  0  0
   21.7299   -4.1910  -13.4619 O   0  0  0  0  0  0  0  0  0  0  0  0
  2  1  1  6
  2  3  1  0
  4  2  1  0
  4  5  1  1
  6  4  1  0
  6  7  2  0
  8  6  1  0
  9  8  1  0
  9 14  1  0
  9 10  1  6
 11 10  1  0
 12 11  1  0
 13 12  2  0
 14 15  2  0
 14 22  1  0
 16 12  1  0
 18 17  1  0
 19 18  1  0
 20 19  1  0
 21 20  1  6
 22 21  1  0
 23 25  1  0
 23 21  1  0
 24 23  2  0
M  END
$$$$
