TEM.pdb
     RDKit          3D

 25 24  0  0  1  0  0  0  0  0999 V2000
   12.5674   -9.6663   -9.9338 C   0  0  0  0  0  0  0  0  0  0  0  0
   13.3500  -10.9408   -9.8411 C   0  0  1  0  0  0  0  0  0  0  0  0
   12.5756  -12.0291  -10.2426 O   0  0  0  0  0  0  0  0  0  0  0  0
   14.5351  -10.8329  -10.8063 C   0  0  2  0  0  0  0  0  0  0  0  0
   15.3177  -12.0483  -10.7439 N   0  0  0  0  0  0  0  0  0  0  0  0
   15.3824   -9.6763  -10.4338 C   0  0  0  0  0  0  0  0  0  0  0  0
   16.1558   -9.7519   -9.4453 O   0  0  0  0  0  0  0  0  0  0  0  0
   15.3545   -8.4605  -11.1648 N   0  0  0  0  0  0  0  0  0  0  0  0
   16.2178   -7.3745  -10.7502 C   0  0  1  0  0  0  0  0  0  0  0  0
   17.0478   -6.8646  -11.9104 C   0  0  0  0  0  0  0  0  0  0  0  0
   18.2034   -7.7642  -12.2389 C   0  0  0  0  0  0  0  0  0  0  0  0
   18.9830   -7.3512  -13.4135 C   0  0  0  0  0  0  0  0  0  0  0  0
   18.5843   -6.4721  -14.2066 O   0  0  0  0  0  0  0  0  0  0  0  0
   15.3571   -6.2240  -10.2956 C   0  0  0  0  0  0  0  0  0  0  0  0
   14.1109   -6.2869  -10.4017 O   0  0  0  0  0  0  0  0  0  0  0  0
   20.2251   -7.9154  -13.7227 O   0  0  0  0  0  0  0  0  0  0  0  0
   11.6933   -2.8435   -5.1668 C   0  0  0  0  0  0  0  0  0  0  0  0
   12.4654   -4.2546   -6.0386 S   0  0  0  0  0  0  0  0  0  0  0  0
   13.4997   -3.5166   -7.3630 C   0  0  0  0  0  0  0  0  0  0  0  0
   14.2631   -4.5900   -8.0850 C   0  0  0  0  0  0  0  0  0  0  0  0
   15.1186   -4.0254   -9.1785 C   0  0  2  0  0  0  0  0  0  0  0  0
   15.9653   -5.0831   -9.7529 N   0  0  0  0  0  0  0  0  0  0  0  0
   15.9750   -2.9362   -8.6946 C   0  0  0  0  0  0  0  0  0  0  0  0
   17.1898   -3.1954   -8.3984 O   0  0  0  0  0  0  0  0  0  0  0  0
   15.5815   -1.6314   -8.5291 O   0  0  0  0  0  0  0  0  0  0  0  0
  2  1  1  6
  2  3  1  0
  4  2  1  0
  4  5  1  1
  6  4  1  0
  6  7  2  0
  8  6  1  0
  9  8  1  0
  9 14  1  0
  9 10  1  6
 11 10  1  0
 12 11  1  0
 13 12  2  0
 14 15  2  0
 14 22  1  0
 16 12  1  0
 18 17  1  0
 19 18  1  0
 20 19  1  0
 21 20  1  1
 22 21  1  0
 23 25  1  0
 23 21  1  0
 24 23  2  0
M  END
$$$$
