TEM.pdb
     RDKit          3D

 25 24  0  0  1  0  0  0  0  0999 V2000
   24.1622  -11.1598  -14.6065 C   0  0  0  0  0  0  0  0  0  0  0  0
   24.1151  -11.7795  -15.9700 C   0  0  1  0  0  0  0  0  0  0  0  0
   24.7871  -13.0016  -15.9832 O   0  0  0  0  0  0  0  0  0  0  0  0
   22.6461  -12.0536  -16.3086 C   0  0  2  0  0  0  0  0  0  0  0  0
   22.5642  -12.7120  -17.5944 N   0  0  0  0  0  0  0  0  0  0  0  0
   21.8949  -10.7778  -16.3545 C   0  0  0  0  0  0  0  0  0  0  0  0
   21.9771  -10.0320  -17.3636 O   0  0  0  0  0  0  0  0  0  0  0  0
   21.0686  -10.3555  -15.2811 N   0  0  0  0  0  0  0  0  0  0  0  0
   20.3032   -9.1348  -15.4253 C   0  0  1  0  0  0  0  0  0  0  0  0
   18.9369   -9.2692  -14.7849 C   0  0  0  0  0  0  0  0  0  0  0  0
   18.0545  -10.2523  -15.4973 C   0  0  0  0  0  0  0  0  0  0  0  0
   16.7277  -10.4307  -14.8925 C   0  0  0  0  0  0  0  0  0  0  0  0
   16.1000  -11.5086  -14.9606 O   0  0  0  0  0  0  0  0  0  0  0  0
   21.0184   -8.0303  -14.6905 C   0  0  0  0  0  0  0  0  0  0  0  0
   21.4249   -8.2104  -13.5199 O   0  0  0  0  0  0  0  0  0  0  0  0
   16.0779   -9.4041  -14.1993 O   0  0  0  0  0  0  0  0  0  0  0  0
   24.6985   -4.6983  -19.1964 C   0  0  0  0  0  0  0  0  0  0  0  0
   24.9472   -5.0965  -17.4281 S   0  0  0  0  0  0  0  0  0  0  0  0
   23.2674   -5.3487  -16.7330 C   0  0  0  0  0  0  0  0  0  0  0  0
   23.3506   -5.6190  -15.2577 C   0  0  0  0  0  0  0  0  0  0  0  0
   21.9923   -5.7527  -14.6385 C   0  0  2  0  0  0  0  0  0  0  0  0
   21.2239   -6.7998  -15.3306 N   0  0  0  0  0  0  0  0  0  0  0  0
   21.2413   -4.4929  -14.6922 C   0  0  0  0  0  0  0  0  0  0  0  0
   21.6337   -3.5129  -13.9737 O   0  0  0  0  0  0  0  0  0  0  0  0
   20.1298   -4.2642  -15.4648 O   0  0  0  0  0  0  0  0  0  0  0  0
  2  1  1  1
  2  3  1  0
  4  2  1  0
  4  5  1  6
  6  4  1  0
  6  7  2  0
  8  6  1  0
  9  8  1  0
  9 14  1  0
  9 10  1  1
 11 10  1  0
 12 11  1  0
 13 12  2  0
 14 15  2  0
 14 22  1  0
 16 12  1  0
 18 17  1  0
 19 18  1  0
 20 19  1  0
 21 20  1  6
 22 21  1  0
 23 25  1  0
 23 21  1  0
 24 23  2  0
M  END
$$$$
