FMP.pdb
     RDKit          3D

 27 28  0  0  1  0  0  0  0  0999 V2000
   23.3491  -10.7020  -17.2440 N   0  0  0  0  0  0  0  0  0  0  0  0
   23.2951   -9.9900  -15.9838 C   0  0  1  0  0  0  0  0  0  0  0  0
   24.4355   -9.0157  -15.9296 C   0  0  0  0  0  0  0  0  0  0  0  0
   25.7532   -9.6284  -16.0273 C   0  0  0  0  0  0  0  0  0  0  0  0
   26.0653  -10.6752  -15.1522 C   0  0  0  0  0  0  0  0  0  0  0  0
   27.3147  -11.2590  -15.2409 C   0  0  0  0  0  0  0  0  0  0  0  0
   28.2492  -10.8325  -16.1665 C   0  0  0  0  0  0  0  0  0  0  0  0
   27.9138   -9.7889  -17.0260 C   0  0  0  0  0  0  0  0  0  0  0  0
   26.6728   -9.1906  -16.9563 C   0  0  0  0  0  0  0  0  0  0  0  0
   21.9851   -9.2381  -15.9540 C   0  0  0  0  0  0  0  0  0  0  0  0
   21.4449   -8.8544  -17.0210 O   0  0  0  0  0  0  0  0  0  0  0  0
   17.5693  -11.4223  -10.9602 C   0  0  0  0  0  0  0  0  0  0  0  0
   18.1451   -9.7840  -11.4110 S   0  0  0  0  0  0  0  0  0  0  0  0
   18.9536   -9.7991  -13.0459 C   0  0  0  0  0  0  0  0  0  0  0  0
   19.4542   -8.3887  -13.2914 C   0  0  0  0  0  0  0  0  0  0  0  0
   20.0803   -8.2558  -14.6582 C   0  0  2  0  0  0  0  0  0  0  0  0
   21.3482   -8.9556  -14.7253 N   0  0  0  0  0  0  0  0  0  0  0  0
   20.2987   -6.8411  -15.0461 C   0  0  0  0  0  0  0  0  0  0  0  0
   21.4006   -6.2558  -14.7751 O   0  0  0  0  0  0  0  0  0  0  0  0
   19.3341   -6.0418  -15.7312 N   0  0  0  0  0  0  0  0  0  0  0  0
   18.0145   -6.4321  -16.1798 C   0  0  0  0  0  0  0  0  0  0  0  0
   17.8454   -5.6673  -17.4895 C   0  0  0  0  0  0  0  0  0  0  0  0
   18.9742   -4.6608  -17.5383 C   0  0  0  0  0  0  0  0  0  0  0  0
   19.4839   -4.6471  -16.1146 C   0  0  1  0  0  0  0  0  0  0  0  0
   18.6622   -3.7698  -15.2491 C   0  0  0  0  0  0  0  0  0  0  0  0
   18.7201   -2.5312  -15.2904 O   0  0  0  0  0  0  0  0  0  0  0  0
   17.7806   -4.3449  -14.3435 O   0  0  0  0  0  0  0  0  0  0  0  0
  2  1  1  6
  3  2  1  0
  4  9  1  0
  4  3  1  0
  5  4  2  0
  6  7  2  0
  6  5  1  0
  7  8  1  0
  8  9  2  0
 10 17  1  0
 10  2  1  0
 11 10  2  0
 13 12  1  0
 14 13  1  0
 15 14  1  0
 16 15  1  1
 16 17  1  0
 18 19  2  0
 18 16  1  0
 20 18  1  0
 21 20  1  0
 22 21  1  0
 23 22  1  0
 24 23  1  0
 24 20  1  0
 24 25  1  1
 26 25  2  0
 27 25  1  0
M  END
$$$$
