FMP.pdb
     RDKit          3D

 27 28  0  0  1  0  0  0  0  0999 V2000
   25.0614  -18.9179   -7.8214 N   0  0  0  0  0  0  0  0  0  0  0  0
   26.3311  -19.5756   -8.0523 C   0  0  1  0  0  0  0  0  0  0  0  0
   26.5612  -20.5796   -6.9605 C   0  0  0  0  0  0  0  0  0  0  0  0
   27.3511  -20.0805   -5.8433 C   0  0  0  0  0  0  0  0  0  0  0  0
   26.8196  -20.1900   -4.5531 C   0  0  0  0  0  0  0  0  0  0  0  0
   27.5653  -19.7170   -3.4901 C   0  0  0  0  0  0  0  0  0  0  0  0
   28.8104  -19.1453   -3.6765 C   0  0  0  0  0  0  0  0  0  0  0  0
   29.3168  -19.0482   -4.9706 C   0  0  0  0  0  0  0  0  0  0  0  0
   28.5908  -19.5134   -6.0474 C   0  0  0  0  0  0  0  0  0  0  0  0
   26.2277  -20.2873   -9.3809 C   0  0  0  0  0  0  0  0  0  0  0  0
   25.1156  -20.4197   -9.9494 O   0  0  0  0  0  0  0  0  0  0  0  0
   31.6381  -22.3307  -12.1357 C   0  0  0  0  0  0  0  0  0  0  0  0
   30.7688  -21.9640  -13.6616 S   0  0  0  0  0  0  0  0  0  0  0  0
   29.1584  -21.1757  -13.3267 C   0  0  0  0  0  0  0  0  0  0  0  0
   28.9447  -21.2537  -11.8273 C   0  0  0  0  0  0  0  0  0  0  0  0
   27.5684  -20.7698  -11.4405 C   0  0  2  0  0  0  0  0  0  0  0  0
   27.3808  -20.8144  -10.0037 N   0  0  0  0  0  0  0  0  0  0  0  0
   26.4892  -21.5575  -12.0842 C   0  0  0  0  0  0  0  0  0  0  0  0
   26.1772  -22.7141  -11.6424 O   0  0  0  0  0  0  0  0  0  0  0  0
   25.7334  -21.1082  -13.2091 N   0  0  0  0  0  0  0  0  0  0  0  0
   25.9433  -19.9150  -14.0009 C   0  0  0  0  0  0  0  0  0  0  0  0
   24.5268  -19.4745  -14.3592 C   0  0  0  0  0  0  0  0  0  0  0  0
   23.6203  -20.6276  -13.9878 C   0  0  0  0  0  0  0  0  0  0  0  0
   24.5856  -21.7767  -13.8008 C   0  0  1  0  0  0  0  0  0  0  0  0
   24.9468  -22.4020  -15.0941 C   0  0  0  0  0  0  0  0  0  0  0  0
   26.0637  -22.2755  -15.6192 O   0  0  0  0  0  0  0  0  0  0  0  0
   24.0023  -23.1689  -15.7631 O   0  0  0  0  0  0  0  0  0  0  0  0
  2  1  1  1
  3  2  1  0
  4  9  1  0
  4  3  1  0
  5  4  2  0
  6  7  2  0
  6  5  1  0
  7  8  1  0
  8  9  2  0
 10 17  1  0
 10  2  1  0
 11 10  2  0
 13 12  1  0
 14 13  1  0
 15 14  1  0
 16 15  1  1
 16 17  1  0
 18 19  2  0
 18 16  1  0
 20 18  1  0
 21 20  1  0
 22 21  1  0
 23 22  1  0
 24 23  1  0
 24 20  1  0
 24 25  1  6
 26 25  2  0
 27 25  1  0
M  END
$$$$
