FMP.pdb
     RDKit          3D

 27 28  0  0  1  0  0  0  0  0999 V2000
   27.4312  -19.7308  -18.6281 N   0  0  0  0  0  0  0  0  0  0  0  0
   26.5752  -19.2025  -17.5858 C   0  0  1  0  0  0  0  0  0  0  0  0
   25.1828  -19.0624  -18.1284 C   0  0  0  0  0  0  0  0  0  0  0  0
   24.9310  -17.8041  -18.8172 C   0  0  0  0  0  0  0  0  0  0  0  0
   24.5590  -17.8481  -20.1658 C   0  0  0  0  0  0  0  0  0  0  0  0
   24.3199  -16.6564  -20.8234 C   0  0  0  0  0  0  0  0  0  0  0  0
   24.4403  -15.4380  -20.1810 C   0  0  0  0  0  0  0  0  0  0  0  0
   24.8119  -15.4215  -18.8386 C   0  0  0  0  0  0  0  0  0  0  0  0
   25.0558  -16.5981  -18.1611 C   0  0  0  0  0  0  0  0  0  0  0  0
   26.5798  -20.2053  -16.4561 C   0  0  0  0  0  0  0  0  0  0  0  0
   26.3545  -21.4205  -16.6802 O   0  0  0  0  0  0  0  0  0  0  0  0
   29.4617  -19.5909  -10.7808 C   0  0  0  0  0  0  0  0  0  0  0  0
   30.1994  -20.6876  -11.9939 S   0  0  0  0  0  0  0  0  0  0  0  0
   29.0322  -21.0486  -13.3483 C   0  0  0  0  0  0  0  0  0  0  0  0
   27.7015  -20.4454  -12.9418 C   0  0  0  0  0  0  0  0  0  0  0  0
   26.6468  -20.6744  -13.9969 C   0  0  2  0  0  0  0  0  0  0  0  0
   26.8377  -19.7911  -15.1305 N   0  0  0  0  0  0  0  0  0  0  0  0
   25.2720  -20.4844  -13.4741 C   0  0  0  0  0  0  0  0  0  0  0  0
   24.6444  -19.3915  -13.6787 O   0  0  0  0  0  0  0  0  0  0  0  0
   24.5574  -21.4693  -12.7270 N   0  0  0  0  0  0  0  0  0  0  0  0
   25.0283  -22.7655  -12.2879 C   0  0  0  0  0  0  0  0  0  0  0  0
   23.7889  -23.6487  -12.4001 C   0  0  0  0  0  0  0  0  0  0  0  0
   22.6213  -22.7109  -12.6162 C   0  0  0  0  0  0  0  0  0  0  0  0
   23.1912  -21.3612  -12.2411 C   0  0  1  0  0  0  0  0  0  0  0  0
   23.1666  -21.1465  -10.7758 C   0  0  0  0  0  0  0  0  0  0  0  0
   22.1335  -20.8637  -10.1498 O   0  0  0  0  0  0  0  0  0  0  0  0
   24.3470  -21.2636  -10.0540 O   0  0  0  0  0  0  0  0  0  0  0  0
  2  1  1  6
  3  2  1  0
  4  9  1  0
  4  3  1  0
  5  4  2  0
  6  7  2  0
  6  5  1  0
  7  8  1  0
  8  9  2  0
 10 17  1  0
 10  2  1  0
 11 10  2  0
 13 12  1  0
 14 13  1  0
 15 14  1  0
 16 15  1  1
 16 17  1  0
 18 19  2  0
 18 16  1  0
 20 18  1  0
 21 20  1  0
 22 21  1  0
 23 22  1  0
 24 23  1  0
 24 20  1  0
 24 25  1  1
 26 25  2  0
 27 25  1  0
M  END
$$$$
