FMP.pdb
     RDKit          3D

 27 28  0  0  1  0  0  0  0  0999 V2000
   25.2770  -21.3810  -13.2024 N   0  0  0  0  0  0  0  0  0  0  0  0
   24.7668  -20.4343  -12.2321 C   0  0  1  0  0  0  0  0  0  0  0  0
   23.2731  -20.3662  -12.3623 C   0  0  0  0  0  0  0  0  0  0  0  0
   22.8050  -19.8754  -13.6512 C   0  0  0  0  0  0  0  0  0  0  0  0
   22.1626  -20.7743  -14.5105 C   0  0  0  0  0  0  0  0  0  0  0  0
   21.7176  -20.3131  -15.7348 C   0  0  0  0  0  0  0  0  0  0  0  0
   21.8935  -18.9969  -16.1203 C   0  0  0  0  0  0  0  0  0  0  0  0
   22.5358  -18.1224  -15.2467 C   0  0  0  0  0  0  0  0  0  0  0  0
   22.9887  -18.5597  -14.0193 C   0  0  0  0  0  0  0  0  0  0  0  0
   25.1323  -20.9599  -10.8637 C   0  0  0  0  0  0  0  0  0  0  0  0
   24.9367  -22.1653  -10.5697 O   0  0  0  0  0  0  0  0  0  0  0  0
   28.6330  -19.2435   -3.9575 C   0  0  0  0  0  0  0  0  0  0  0  0
   28.2704  -18.8280   -5.6647 S   0  0  0  0  0  0  0  0  0  0  0  0
   26.9770  -19.9191   -6.3455 C   0  0  0  0  0  0  0  0  0  0  0  0
   26.9525  -19.6756   -7.8422 C   0  0  0  0  0  0  0  0  0  0  0  0
   25.9041  -20.5223   -8.5218 C   0  0  2  0  0  0  0  0  0  0  0  0
   25.6995  -20.1033   -9.8944 N   0  0  0  0  0  0  0  0  0  0  0  0
   24.6006  -20.4849   -7.8154 C   0  0  0  0  0  0  0  0  0  0  0  0
   23.7491  -19.5686   -8.0713 O   0  0  0  0  0  0  0  0  0  0  0  0
   24.1991  -21.4342   -6.8273 N   0  0  0  0  0  0  0  0  0  0  0  0
   24.9775  -22.5200   -6.2706 C   0  0  0  0  0  0  0  0  0  0  0  0
   23.9448  -23.6232   -6.0585 C   0  0  0  0  0  0  0  0  0  0  0  0
   22.5905  -22.9727   -6.2376 C   0  0  0  0  0  0  0  0  0  0  0  0
   22.9066  -21.4956   -6.1638 C   0  0  1  0  0  0  0  0  0  0  0  0
   23.0094  -21.0289   -4.7618 C   0  0  0  0  0  0  0  0  0  0  0  0
   22.0270  -20.9107   -4.0134 O   0  0  0  0  0  0  0  0  0  0  0  0
   24.2568  -20.7041   -4.2455 O   0  0  0  0  0  0  0  0  0  0  0  0
  2  1  1  6
  3  2  1  0
  4  9  1  0
  4  3  1  0
  5  4  2  0
  6  7  2  0
  6  5  1  0
  7  8  1  0
  8  9  2  0
 10 17  1  0
 10  2  1  0
 11 10  2  0
 13 12  1  0
 14 13  1  0
 15 14  1  0
 16 15  1  1
 16 17  1  0
 18 19  2  0
 18 16  1  0
 20 18  1  0
 21 20  1  0
 22 21  1  0
 23 22  1  0
 24 23  1  0
 24 20  1  0
 24 25  1  1
 26 25  2  0
 27 25  1  0
M  END
$$$$
