FMP.pdb
     RDKit          3D

 27 28  0  0  1  0  0  0  0  0999 V2000
   23.2859  -12.3598  -17.7903 N   0  0  0  0  0  0  0  0  0  0  0  0
   22.8938  -11.9450  -16.4591 C   0  0  1  0  0  0  0  0  0  0  0  0
   24.1034  -11.9649  -15.5706 C   0  0  0  0  0  0  0  0  0  0  0  0
   24.7042  -13.2812  -15.4046 C   0  0  0  0  0  0  0  0  0  0  0  0
   23.9087  -14.3151  -14.8976 C   0  0  0  0  0  0  0  0  0  0  0  0
   24.4750  -15.5655  -14.7376 C   0  0  0  0  0  0  0  0  0  0  0  0
   25.7959  -15.8095  -15.0654 C   0  0  0  0  0  0  0  0  0  0  0  0
   26.5663  -14.7635  -15.5681 C   0  0  0  0  0  0  0  0  0  0  0  0
   26.0230  -13.5067  -15.7366 C   0  0  0  0  0  0  0  0  0  0  0  0
   22.3704  -10.5322  -16.5701 C   0  0  0  0  0  0  0  0  0  0  0  0
   22.9859   -9.6750  -17.2511 O   0  0  0  0  0  0  0  0  0  0  0  0
   16.1625   -7.8840  -15.5692 C   0  0  0  0  0  0  0  0  0  0  0  0
   16.6321   -9.5508  -16.0383 S   0  0  0  0  0  0  0  0  0  0  0  0
   18.3563   -9.6049  -16.6309 C   0  0  0  0  0  0  0  0  0  0  0  0
   19.1741   -8.7861  -15.6508 C   0  0  0  0  0  0  0  0  0  0  0  0
   20.6420   -8.8115  -16.0009 C   0  0  2  0  0  0  0  0  0  0  0  0
   21.1805  -10.1543  -15.9093 N   0  0  0  0  0  0  0  0  0  0  0  0
   21.4469   -7.9177  -15.1333 C   0  0  0  0  0  0  0  0  0  0  0  0
   22.0501   -8.3793  -14.1070 O   0  0  0  0  0  0  0  0  0  0  0  0
   21.6124   -6.5181  -15.3618 N   0  0  0  0  0  0  0  0  0  0  0  0
   21.0381   -5.7172  -16.4218 C   0  0  0  0  0  0  0  0  0  0  0  0
   22.1354   -4.7036  -16.7336 C   0  0  0  0  0  0  0  0  0  0  0  0
   23.1465   -4.8195  -15.6139 C   0  0  0  0  0  0  0  0  0  0  0  0
   22.3986   -5.5985  -14.5552 C   0  0  1  0  0  0  0  0  0  0  0  0
   21.5207   -4.7193  -13.7488 C   0  0  0  0  0  0  0  0  0  0  0  0
   21.9467   -3.9746  -12.8526 O   0  0  0  0  0  0  0  0  0  0  0  0
   20.1542   -4.7167  -13.9949 O   0  0  0  0  0  0  0  0  0  0  0  0
  2  1  1  6
  3  2  1  0
  4  9  1  0
  4  3  1  0
  5  4  2  0
  6  7  2  0
  6  5  1  0
  7  8  1  0
  8  9  2  0
 10 17  1  0
 10  2  1  0
 11 10  2  0
 13 12  1  0
 14 13  1  0
 15 14  1  0
 16 15  1  1
 16 17  1  0
 18 19  2  0
 18 16  1  0
 20 18  1  0
 21 20  1  0
 22 21  1  0
 23 22  1  0
 24 23  1  0
 24 20  1  0
 24 25  1  6
 26 25  2  0
 27 25  1  0
M  END
$$$$
