FMP.pdb
     RDKit          3D

 27 28  0  0  1  0  0  0  0  0999 V2000
   20.1559  -17.3416  -16.6774 N   0  0  0  0  0  0  0  0  0  0  0  0
   21.0762  -18.3458  -17.1700 C   0  0  1  0  0  0  0  0  0  0  0  0
   21.4104  -18.0354  -18.6000 C   0  0  0  0  0  0  0  0  0  0  0  0
   20.5746  -18.7234  -19.5744 C   0  0  0  0  0  0  0  0  0  0  0  0
   19.4774  -18.0386  -20.1093 C   0  0  0  0  0  0  0  0  0  0  0  0
   18.6812  -18.6879  -21.0336 C   0  0  0  0  0  0  0  0  0  0  0  0
   18.9462  -19.9846  -21.4335 C   0  0  0  0  0  0  0  0  0  0  0  0
   20.0443  -20.6441  -20.8861 C   0  0  0  0  0  0  0  0  0  0  0  0
   20.8535  -20.0166  -19.9618 C   0  0  0  0  0  0  0  0  0  0  0  0
   22.3263  -18.2547  -16.3268 C   0  0  0  0  0  0  0  0  0  0  0  0
   22.9945  -17.1918  -16.2884 O   0  0  0  0  0  0  0  0  0  0  0  0
   26.2661  -22.1492  -10.8337 C   0  0  0  0  0  0  0  0  0  0  0  0
   24.8168  -21.1831  -11.2637 S   0  0  0  0  0  0  0  0  0  0  0  0
   25.1338  -20.1386  -12.7251 C   0  0  0  0  0  0  0  0  0  0  0  0
   23.8160  -20.0251  -13.4670 C   0  0  0  0  0  0  0  0  0  0  0  0
   23.9899  -19.3351  -14.7979 C   0  0  2  0  0  0  0  0  0  0  0  0
   22.7624  -19.3639  -15.5687 N   0  0  0  0  0  0  0  0  0  0  0  0
   25.0743  -19.9374  -15.6108 C   0  0  0  0  0  0  0  0  0  0  0  0
   24.8050  -20.7830  -16.5288 O   0  0  0  0  0  0  0  0  0  0  0  0
   26.4599  -19.6348  -15.4455 N   0  0  0  0  0  0  0  0  0  0  0  0
   27.0723  -18.8009  -14.4334 C   0  0  0  0  0  0  0  0  0  0  0  0
   28.2202  -18.1257  -15.1784 C   0  0  0  0  0  0  0  0  0  0  0  0
   28.3563  -18.8580  -16.4955 C   0  0  0  0  0  0  0  0  0  0  0  0
   27.5542  -20.1203  -16.2709 C   0  0  1  0  0  0  0  0  0  0  0  0
   28.3429  -21.1476  -15.5523 C   0  0  0  0  0  0  0  0  0  0  0  0
   28.1456  -21.4445  -14.3640 O   0  0  0  0  0  0  0  0  0  0  0  0
   29.3544  -21.8191  -16.2260 O   0  0  0  0  0  0  0  0  0  0  0  0
  2  1  1  1
  3  2  1  0
  4  9  1  0
  4  3  1  0
  5  4  2  0
  6  7  2  0
  6  5  1  0
  7  8  1  0
  8  9  2  0
 10 17  1  0
 10  2  1  0
 11 10  2  0
 13 12  1  0
 14 13  1  0
 15 14  1  0
 16 15  1  1
 16 17  1  0
 18 19  2  0
 18 16  1  0
 20 18  1  0
 21 20  1  0
 22 21  1  0
 23 22  1  0
 24 23  1  0
 24 20  1  0
 24 25  1  1
 26 25  2  0
 27 25  1  0
M  END
$$$$
