FMP.pdb
     RDKit          3D

 27 28  0  0  1  0  0  0  0  0999 V2000
   15.0928  -11.5740  -11.3762 N   0  0  0  0  0  0  0  0  0  0  0  0
   15.0906  -10.3654  -12.1745 C   0  0  1  0  0  0  0  0  0  0  0  0
   14.5083   -9.2482  -11.3586 C   0  0  0  0  0  0  0  0  0  0  0  0
   13.0663   -9.3306  -11.1711 C   0  0  0  0  0  0  0  0  0  0  0  0
   12.5798  -10.0395  -10.0666 C   0  0  0  0  0  0  0  0  0  0  0  0
   11.2123  -10.1210   -9.8852 C   0  0  0  0  0  0  0  0  0  0  0  0
   10.3283   -9.5225  -10.7640 C   0  0  0  0  0  0  0  0  0  0  0  0
   10.8381   -8.8228  -11.8554 C   0  0  0  0  0  0  0  0  0  0  0  0
   12.1994   -8.7278  -12.0572 C   0  0  0  0  0  0  0  0  0  0  0  0
   16.5298  -10.0512  -12.5089 C   0  0  0  0  0  0  0  0  0  0  0  0
   17.4580  -10.4255  -11.7500 O   0  0  0  0  0  0  0  0  0  0  0  0
   21.9906  -10.7141  -17.7366 C   0  0  0  0  0  0  0  0  0  0  0  0
   20.3064  -10.8595  -17.1358 S   0  0  0  0  0  0  0  0  0  0  0  0
   20.0302   -9.7836  -15.6890 C   0  0  0  0  0  0  0  0  0  0  0  0
   18.5807   -9.9707  -15.2841 C   0  0  0  0  0  0  0  0  0  0  0  0
   18.2247   -9.1116  -14.0954 C   0  0  2  0  0  0  0  0  0  0  0  0
   16.8531   -9.3314  -13.6805 N   0  0  0  0  0  0  0  0  0  0  0  0
   18.4124   -7.6654  -14.3651 C   0  0  0  0  0  0  0  0  0  0  0  0
   17.4531   -6.9609  -14.8273 O   0  0  0  0  0  0  0  0  0  0  0  0
   19.6340   -6.9617  -14.1388 N   0  0  0  0  0  0  0  0  0  0  0  0
   20.8917   -7.4962  -13.6621 C   0  0  0  0  0  0  0  0  0  0  0  0
   21.4508   -6.3688  -12.7989 C   0  0  0  0  0  0  0  0  0  0  0  0
   20.5990   -5.1527  -13.0907 C   0  0  0  0  0  0  0  0  0  0  0  0
   19.8656   -5.5425  -14.3546 C   0  0  1  0  0  0  0  0  0  0  0  0
   20.6981   -5.3199  -15.5593 C   0  0  0  0  0  0  0  0  0  0  0  0
   21.2761   -6.2373  -16.1623 O   0  0  0  0  0  0  0  0  0  0  0  0
   20.8488   -4.0297  -16.0499 O   0  0  0  0  0  0  0  0  0  0  0  0
  2  1  1  1
  3  2  1  0
  4  9  1  0
  4  3  1  0
  5  4  2  0
  6  7  2  0
  6  5  1  0
  7  8  1  0
  8  9  2  0
 10 17  1  0
 10  2  1  0
 11 10  2  0
 13 12  1  0
 14 13  1  0
 15 14  1  0
 16 15  1  6
 16 17  1  0
 18 19  2  0
 18 16  1  0
 20 18  1  0
 21 20  1  0
 22 21  1  0
 23 22  1  0
 24 23  1  0
 24 20  1  0
 24 25  1  6
 26 25  2  0
 27 25  1  0
M  END
$$$$
