FMP.pdb
     RDKit          3D

 27 28  0  0  1  0  0  0  0  0999 V2000
   21.9692  -19.6175  -13.6655 N   0  0  0  0  0  0  0  0  0  0  0  0
   22.4134  -20.6246  -12.7240 C   0  0  1  0  0  0  0  0  0  0  0  0
   22.3989  -21.9624  -13.4043 C   0  0  0  0  0  0  0  0  0  0  0  0
   21.0728  -22.5462  -13.5517 C   0  0  0  0  0  0  0  0  0  0  0  0
   20.4640  -23.1050  -12.4220 C   0  0  0  0  0  0  0  0  0  0  0  0
   19.2061  -23.6608  -12.5574 C   0  0  0  0  0  0  0  0  0  0  0  0
   18.5475  -23.6744  -13.7730 C   0  0  0  0  0  0  0  0  0  0  0  0
   19.1751  -23.1118  -14.8821 C   0  0  0  0  0  0  0  0  0  0  0  0
   20.4306  -22.5511  -14.7714 C   0  0  0  0  0  0  0  0  0  0  0  0
   23.8287  -20.2718  -12.3308 C   0  0  0  0  0  0  0  0  0  0  0  0
   24.6329  -19.8162  -13.1813 O   0  0  0  0  0  0  0  0  0  0  0  0
   27.1539  -18.5042   -6.2374 C   0  0  0  0  0  0  0  0  0  0  0  0
   27.2858  -20.1765   -6.8737 S   0  0  0  0  0  0  0  0  0  0  0  0
   27.2586  -20.1891   -8.6975 C   0  0  0  0  0  0  0  0  0  0  0  0
   25.8042  -20.3251   -9.1052 C   0  0  0  0  0  0  0  0  0  0  0  0
   25.6325  -20.1687  -10.5965 C   0  0  2  0  0  0  0  0  0  0  0  0
   24.2688  -20.4492  -11.0003 N   0  0  0  0  0  0  0  0  0  0  0  0
   26.5454  -21.0475  -11.3671 C   0  0  0  0  0  0  0  0  0  0  0  0
   26.2912  -22.2917  -11.4995 O   0  0  0  0  0  0  0  0  0  0  0  0
   27.7407  -20.5963  -12.0047 N   0  0  0  0  0  0  0  0  0  0  0  0
   28.3783  -19.3027  -11.8829 C   0  0  0  0  0  0  0  0  0  0  0  0
   28.9358  -19.0501  -13.2808 C   0  0  0  0  0  0  0  0  0  0  0  0
   28.8272  -20.3651  -14.0217 C   0  0  0  0  0  0  0  0  0  0  0  0
   28.5768  -21.3636  -12.9138 C   0  0  1  0  0  0  0  0  0  0  0  0
   29.8376  -21.7738  -12.2535 C   0  0  0  0  0  0  0  0  0  0  0  0
   30.1658  -21.3879  -11.1210 O   0  0  0  0  0  0  0  0  0  0  0  0
   30.7041  -22.6300  -12.9199 O   0  0  0  0  0  0  0  0  0  0  0  0
  2  1  1  6
  3  2  1  0
  4  9  1  0
  4  3  1  0
  5  4  2  0
  6  7  2  0
  6  5  1  0
  7  8  1  0
  8  9  2  0
 10 17  1  0
 10  2  1  0
 11 10  2  0
 13 12  1  0
 14 13  1  0
 15 14  1  0
 16 15  1  1
 16 17  1  0
 18 19  2  0
 18 16  1  0
 20 18  1  0
 21 20  1  0
 22 21  1  0
 23 22  1  0
 24 23  1  0
 24 20  1  0
 24 25  1  1
 26 25  2  0
 27 25  1  0
M  END
$$$$
