FMP.pdb
     RDKit          3D

 27 28  0  0  1  0  0  0  0  0999 V2000
   24.5452  -20.8482   -7.9422 N   0  0  0  0  0  0  0  0  0  0  0  0
   25.6697  -20.1361   -8.5136 C   0  0  1  0  0  0  0  0  0  0  0  0
   26.9384  -20.8199   -8.0944 C   0  0  0  0  0  0  0  0  0  0  0  0
   27.5220  -20.3004   -6.8653 C   0  0  0  0  0  0  0  0  0  0  0  0
   27.5398  -18.9141   -6.6728 C   0  0  0  0  0  0  0  0  0  0  0  0
   28.0934  -18.4168   -5.5084 C   0  0  0  0  0  0  0  0  0  0  0  0
   28.6229  -19.2536   -4.5434 C   0  0  0  0  0  0  0  0  0  0  0  0
   28.5928  -20.6294   -4.7591 C   0  0  0  0  0  0  0  0  0  0  0  0
   28.0455  -21.1493   -5.9136 C   0  0  0  0  0  0  0  0  0  0  0  0
   25.5264  -20.2114  -10.0156 C   0  0  0  0  0  0  0  0  0  0  0  0
   24.7209  -21.0197  -10.5404 O   0  0  0  0  0  0  0  0  0  0  0  0
   26.7558  -15.4930  -15.0316 C   0  0  0  0  0  0  0  0  0  0  0  0
   27.8431  -16.9196  -15.0701 S   0  0  0  0  0  0  0  0  0  0  0  0
   26.9989  -18.4059  -14.4333 C   0  0  0  0  0  0  0  0  0  0  0  0
   26.9392  -18.2541  -12.9255 C   0  0  0  0  0  0  0  0  0  0  0  0
   26.1267  -19.3569  -12.2919 C   0  0  2  0  0  0  0  0  0  0  0  0
   26.2966  -19.3735  -10.8523 N   0  0  0  0  0  0  0  0  0  0  0  0
   26.4755  -20.6959  -12.8258 C   0  0  0  0  0  0  0  0  0  0  0  0
   27.4204  -21.3775  -12.3036 O   0  0  0  0  0  0  0  0  0  0  0  0
   25.8100  -21.3161  -13.9263 N   0  0  0  0  0  0  0  0  0  0  0  0
   24.7367  -20.7766  -14.7337 C   0  0  0  0  0  0  0  0  0  0  0  0
   23.8786  -21.9996  -15.0444 C   0  0  0  0  0  0  0  0  0  0  0  0
   24.6967  -23.2040  -14.6325 C   0  0  0  0  0  0  0  0  0  0  0  0
   26.0886  -22.6349  -14.4718 C   0  0  1  0  0  0  0  0  0  0  0  0
   26.7895  -22.5316  -15.7725 C   0  0  0  0  0  0  0  0  0  0  0  0
   26.9271  -21.4614  -16.3848 O   0  0  0  0  0  0  0  0  0  0  0  0
   27.3236  -23.6772  -16.3472 O   0  0  0  0  0  0  0  0  0  0  0  0
  2  1  1  1
  3  2  1  0
  4  9  1  0
  4  3  1  0
  5  4  2  0
  6  7  2  0
  6  5  1  0
  7  8  1  0
  8  9  2  0
 10 17  1  0
 10  2  1  0
 11 10  2  0
 13 12  1  0
 14 13  1  0
 15 14  1  0
 16 15  1  6
 16 17  1  0
 18 19  2  0
 18 16  1  0
 20 18  1  0
 21 20  1  0
 22 21  1  0
 23 22  1  0
 24 23  1  0
 24 20  1  0
 24 25  1  6
 26 25  2  0
 27 25  1  0
M  END
$$$$
