FMP.pdb
     RDKit          3D

 27 28  0  0  1  0  0  0  0  0999 V2000
   28.9372  -20.8263  -17.3372 N   0  0  0  0  0  0  0  0  0  0  0  0
   28.3155  -19.8912  -16.4223 C   0  0  1  0  0  0  0  0  0  0  0  0
   27.4541  -18.9461  -17.2081 C   0  0  0  0  0  0  0  0  0  0  0  0
   28.1962  -17.9625  -17.9846 C   0  0  0  0  0  0  0  0  0  0  0  0
   29.0211  -17.0618  -17.3008 C   0  0  0  0  0  0  0  0  0  0  0  0
   29.7264  -16.1263  -18.0335 C   0  0  0  0  0  0  0  0  0  0  0  0
   29.6326  -16.0653  -19.4116 C   0  0  0  0  0  0  0  0  0  0  0  0
   28.8048  -16.9730  -20.0683 C   0  0  0  0  0  0  0  0  0  0  0  0
   28.0909  -17.9159  -19.3583 C   0  0  0  0  0  0  0  0  0  0  0  0
   27.4531  -20.6980  -15.4802 C   0  0  0  0  0  0  0  0  0  0  0  0
   26.7958  -21.6822  -15.9011 O   0  0  0  0  0  0  0  0  0  0  0  0
   24.7855  -20.8615   -7.9912 C   0  0  0  0  0  0  0  0  0  0  0  0
   26.1169  -20.5963   -9.1641 S   0  0  0  0  0  0  0  0  0  0  0  0
   25.5826  -20.9879  -10.8635 C   0  0  0  0  0  0  0  0  0  0  0  0
   26.7553  -20.6636  -11.7688 C   0  0  0  0  0  0  0  0  0  0  0  0
   26.4604  -21.0246  -13.2043 C   0  0  2  0  0  0  0  0  0  0  0  0
   27.3731  -20.3575  -14.1117 N   0  0  0  0  0  0  0  0  0  0  0  0
   25.0705  -20.6896  -13.5986 C   0  0  0  0  0  0  0  0  0  0  0  0
   24.7708  -19.5095  -13.9829 O   0  0  0  0  0  0  0  0  0  0  0  0
   23.9888  -21.6215  -13.5849 N   0  0  0  0  0  0  0  0  0  0  0  0
   23.9936  -22.9808  -13.0878 C   0  0  0  0  0  0  0  0  0  0  0  0
   23.0680  -23.7142  -14.0542 C   0  0  0  0  0  0  0  0  0  0  0  0
   22.3669  -22.6430  -14.8609 C   0  0  0  0  0  0  0  0  0  0  0  0
   22.6382  -21.3838  -14.0686 C   0  0  1  0  0  0  0  0  0  0  0  0
   21.6910  -21.2345  -12.9397 C   0  0  0  0  0  0  0  0  0  0  0  0
   21.9995  -21.4693  -11.7611 O   0  0  0  0  0  0  0  0  0  0  0  0
   20.3931  -20.8130  -13.1954 O   0  0  0  0  0  0  0  0  0  0  0  0
  2  1  1  6
  3  2  1  0
  4  9  1  0
  4  3  1  0
  5  4  2  0
  6  7  2  0
  6  5  1  0
  7  8  1  0
  8  9  2  0
 10 17  1  0
 10  2  1  0
 11 10  2  0
 13 12  1  0
 14 13  1  0
 15 14  1  0
 16 15  1  1
 16 17  1  0
 18 19  2  0
 18 16  1  0
 20 18  1  0
 21 20  1  0
 22 21  1  0
 23 22  1  0
 24 23  1  0
 24 20  1  0
 24 25  1  1
 26 25  2  0
 27 25  1  0
M  END
$$$$
