FMP.pdb
     RDKit          3D

 27 28  0  0  1  0  0  0  0  0999 V2000
   25.2630  -21.1646   -7.1381 N   0  0  0  0  0  0  0  0  0  0  0  0
   26.1792  -20.4769   -8.0245 C   0  0  1  0  0  0  0  0  0  0  0  0
   27.5798  -20.9100   -7.7030 C   0  0  0  0  0  0  0  0  0  0  0  0
   28.1626  -20.2456   -6.5454 C   0  0  0  0  0  0  0  0  0  0  0  0
   29.0299  -20.9777   -5.7264 C   0  0  0  0  0  0  0  0  0  0  0  0
   29.5845  -20.3514   -4.6264 C   0  0  0  0  0  0  0  0  0  0  0  0
   29.3011  -19.0321   -4.3250 C   0  0  0  0  0  0  0  0  0  0  0  0
   28.4348  -18.3255   -5.1560 C   0  0  0  0  0  0  0  0  0  0  0  0
   27.8690  -18.9293   -6.2597 C   0  0  0  0  0  0  0  0  0  0  0  0
   25.8312  -20.8941   -9.4341 C   0  0  0  0  0  0  0  0  0  0  0  0
   25.8496  -22.1059   -9.7641 O   0  0  0  0  0  0  0  0  0  0  0  0
   20.0092  -21.6496  -13.0461 C   0  0  0  0  0  0  0  0  0  0  0  0
   21.2187  -20.3443  -12.8177 S   0  0  0  0  0  0  0  0  0  0  0  0
   22.8409  -21.0284  -12.3408 C   0  0  0  0  0  0  0  0  0  0  0  0
   23.7653  -19.8432  -12.1394 C   0  0  0  0  0  0  0  0  0  0  0  0
   25.1594  -20.2876  -11.7692 C   0  0  2  0  0  0  0  0  0  0  0  0
   25.4798  -19.9273  -10.4021 N   0  0  0  0  0  0  0  0  0  0  0  0
   26.1932  -19.7148  -12.6651 C   0  0  0  0  0  0  0  0  0  0  0  0
   26.8041  -18.6394  -12.3480 O   0  0  0  0  0  0  0  0  0  0  0  0
   26.5817  -20.2941  -13.9110 N   0  0  0  0  0  0  0  0  0  0  0  0
   26.0374  -21.4729  -14.5505 C   0  0  0  0  0  0  0  0  0  0  0  0
   27.2544  -22.1072  -15.2178 C   0  0  0  0  0  0  0  0  0  0  0  0
   28.3569  -21.0728  -15.1537 C   0  0  0  0  0  0  0  0  0  0  0  0
   27.6150  -19.8013  -14.8075 C   0  0  1  0  0  0  0  0  0  0  0  0
   27.0175  -19.1737  -16.0087 C   0  0  0  0  0  0  0  0  0  0  0  0
   25.8045  -19.2207  -16.2651 O   0  0  0  0  0  0  0  0  0  0  0  0
   27.8398  -18.4973  -16.8999 O   0  0  0  0  0  0  0  0  0  0  0  0
  2  1  1  1
  3  2  1  0
  4  9  1  0
  4  3  1  0
  5  4  2  0
  6  7  2  0
  6  5  1  0
  7  8  1  0
  8  9  2  0
 10 17  1  0
 10  2  1  0
 11 10  2  0
 13 12  1  0
 14 13  1  0
 15 14  1  0
 16 15  1  6
 16 17  1  0
 18 19  2  0
 18 16  1  0
 20 18  1  0
 21 20  1  0
 22 21  1  0
 23 22  1  0
 24 23  1  0
 24 20  1  0
 24 25  1  6
 26 25  2  0
 27 25  1  0
M  END
$$$$
