FMP.pdb
     RDKit          3D

 27 28  0  0  1  0  0  0  0  0999 V2000
   21.7318  -17.6726  -17.1725 N   0  0  0  0  0  0  0  0  0  0  0  0
   21.6293  -18.8295  -16.3069 C   0  0  1  0  0  0  0  0  0  0  0  0
   21.0274  -19.9633  -17.0847 C   0  0  0  0  0  0  0  0  0  0  0  0
   19.5981  -19.8298  -17.3311 C   0  0  0  0  0  0  0  0  0  0  0  0
   19.1757  -19.4906  -18.6217 C   0  0  0  0  0  0  0  0  0  0  0  0
   17.8205  -19.3621  -18.8598 C   0  0  0  0  0  0  0  0  0  0  0  0
   16.8875  -19.5600  -17.8588 C   0  0  0  0  0  0  0  0  0  0  0  0
   17.3339  -19.8968  -16.5830 C   0  0  0  0  0  0  0  0  0  0  0  0
   18.6816  -20.0308  -16.3212 C   0  0  0  0  0  0  0  0  0  0  0  0
   23.0331  -19.1943  -15.8845 C   0  0  0  0  0  0  0  0  0  0  0  0
   24.0038  -18.9966  -16.6567 O   0  0  0  0  0  0  0  0  0  0  0  0
   24.2493  -21.0363   -9.8973 C   0  0  0  0  0  0  0  0  0  0  0  0
   25.9020  -21.3486  -10.5217 S   0  0  0  0  0  0  0  0  0  0  0  0
   25.9869  -21.0704  -12.3224 C   0  0  0  0  0  0  0  0  0  0  0  0
   24.6587  -20.4601  -12.7267 C   0  0  0  0  0  0  0  0  0  0  0  0
   24.5892  -20.2276  -14.2163 C   0  0  2  0  0  0  0  0  0  0  0  0
   23.2748  -19.7632  -14.6145 N   0  0  0  0  0  0  0  0  0  0  0  0
   24.9177  -21.4459  -14.9957 C   0  0  0  0  0  0  0  0  0  0  0  0
   23.9934  -22.2333  -15.3906 O   0  0  0  0  0  0  0  0  0  0  0  0
   26.2442  -21.8287  -15.3598 N   0  0  0  0  0  0  0  0  0  0  0  0
   27.4902  -21.2250  -14.9381 C   0  0  0  0  0  0  0  0  0  0  0  0
   28.3769  -21.3434  -16.1745 C   0  0  0  0  0  0  0  0  0  0  0  0
   27.6578  -22.2802  -17.1205 C   0  0  0  0  0  0  0  0  0  0  0  0
   26.6158  -22.9278  -16.2363 C   0  0  1  0  0  0  0  0  0  0  0  0
   27.1829  -24.0546  -15.4598 C   0  0  0  0  0  0  0  0  0  0  0  0
   27.4383  -23.9814  -14.2479 O   0  0  0  0  0  0  0  0  0  0  0  0
   27.4469  -25.2561  -16.1036 O   0  0  0  0  0  0  0  0  0  0  0  0
  2  1  1  6
  3  2  1  0
  4  9  1  0
  4  3  1  0
  5  4  2  0
  6  7  2  0
  6  5  1  0
  7  8  1  0
  8  9  2  0
 10 17  1  0
 10  2  1  0
 11 10  2  0
 13 12  1  0
 14 13  1  0
 15 14  1  0
 16 15  1  1
 16 17  1  0
 18 19  2  0
 18 16  1  0
 20 18  1  0
 21 20  1  0
 22 21  1  0
 23 22  1  0
 24 23  1  0
 24 20  1  0
 24 25  1  1
 26 25  2  0
 27 25  1  0
M  END
$$$$
