FMP.pdb
     RDKit          3D

 27 28  0  0  1  0  0  0  0  0999 V2000
   25.9388  -21.8172   -7.1349 N   0  0  0  0  0  0  0  0  0  0  0  0
   25.9622  -20.6378   -7.9754 C   0  0  1  0  0  0  0  0  0  0  0  0
   27.3535  -20.0747   -7.9797 C   0  0  0  0  0  0  0  0  0  0  0  0
   27.7688  -19.4921   -6.7111 C   0  0  0  0  0  0  0  0  0  0  0  0
   28.3701  -20.3270   -5.7622 C   0  0  0  0  0  0  0  0  0  0  0  0
   28.7650  -19.7786   -4.5567 C   0  0  0  0  0  0  0  0  0  0  0  0
   28.5788  -18.4377   -4.2757 C   0  0  0  0  0  0  0  0  0  0  0  0
   27.9781  -17.6281   -5.2370 C   0  0  0  0  0  0  0  0  0  0  0  0
   27.5756  -18.1529   -6.4476 C   0  0  0  0  0  0  0  0  0  0  0  0
   25.5906  -21.0796   -9.3715 C   0  0  0  0  0  0  0  0  0  0  0  0
   26.2514  -21.9742   -9.9551 O   0  0  0  0  0  0  0  0  0  0  0  0
   19.6426  -21.5049  -12.4120 C   0  0  0  0  0  0  0  0  0  0  0  0
   20.6355  -20.3861  -13.4025 S   0  0  0  0  0  0  0  0  0  0  0  0
   22.4150  -20.7284  -13.1944 C   0  0  0  0  0  0  0  0  0  0  0  0
   22.7261  -20.5114  -11.7260 C   0  0  0  0  0  0  0  0  0  0  0  0
   24.1729  -20.8118  -11.4185 C   0  0  2  0  0  0  0  0  0  0  0  0
   24.4941  -20.4929  -10.0413 N   0  0  0  0  0  0  0  0  0  0  0  0
   25.1054  -20.0750  -12.3057 C   0  0  0  0  0  0  0  0  0  0  0  0
   25.4709  -18.8856  -12.0196 O   0  0  0  0  0  0  0  0  0  0  0  0
   25.6557  -20.6111  -13.5092 N   0  0  0  0  0  0  0  0  0  0  0  0
   25.4152  -21.9136  -14.0928 C   0  0  0  0  0  0  0  0  0  0  0  0
   26.7656  -22.2845  -14.6989 C   0  0  0  0  0  0  0  0  0  0  0  0
   27.6010  -21.0232  -14.6704 C   0  0  0  0  0  0  0  0  0  0  0  0
   26.5783  -19.9399  -14.4107 C   0  0  1  0  0  0  0  0  0  0  0  0
   25.8928  -19.5264  -15.6569 C   0  0  0  0  0  0  0  0  0  0  0  0
   24.7188  -19.8317  -15.9176 O   0  0  0  0  0  0  0  0  0  0  0  0
   26.5824  -18.7608  -16.5876 O   0  0  0  0  0  0  0  0  0  0  0  0
  2  1  1  1
  3  2  1  0
  4  9  1  0
  4  3  1  0
  5  4  2  0
  6  7  2  0
  6  5  1  0
  7  8  1  0
  8  9  2  0
 10 17  1  0
 10  2  1  0
 11 10  2  0
 13 12  1  0
 14 13  1  0
 15 14  1  0
 16 15  1  6
 16 17  1  0
 18 19  2  0
 18 16  1  0
 20 18  1  0
 21 20  1  0
 22 21  1  0
 23 22  1  0
 24 23  1  0
 24 20  1  0
 24 25  1  6
 26 25  2  0
 27 25  1  0
M  END
$$$$
