FMP.pdb
     RDKit          3D

 27 28  0  0  1  0  0  0  0  0999 V2000
   18.4075  -12.3332  -17.2475 N   0  0  0  0  0  0  0  0  0  0  0  0
   17.7721  -11.4117  -16.3282 C   0  0  1  0  0  0  0  0  0  0  0  0
   17.8667  -11.9722  -14.9391 C   0  0  0  0  0  0  0  0  0  0  0  0
   17.0696  -13.1714  -14.7205 C   0  0  0  0  0  0  0  0  0  0  0  0
   15.6782  -13.0392  -14.6451 C   0  0  0  0  0  0  0  0  0  0  0  0
   14.9180  -14.1743  -14.4370 C   0  0  0  0  0  0  0  0  0  0  0  0
   15.5002  -15.4213  -14.3036 C   0  0  0  0  0  0  0  0  0  0  0  0
   16.8870  -15.5259  -14.3825 C   0  0  0  0  0  0  0  0  0  0  0  0
   17.6667  -14.4070  -14.5898 C   0  0  0  0  0  0  0  0  0  0  0  0
   18.5375  -10.1114  -16.4026 C   0  0  0  0  0  0  0  0  0  0  0  0
   19.7777  -10.1110  -16.6013 O   0  0  0  0  0  0  0  0  0  0  0  0
   15.5877   -3.9954  -17.2691 C   0  0  0  0  0  0  0  0  0  0  0  0
   17.0634   -3.8520  -16.2589 S   0  0  0  0  0  0  0  0  0  0  0  0
   18.2822   -5.1386  -16.6906 C   0  0  0  0  0  0  0  0  0  0  0  0
   17.5713   -6.4705  -16.5464 C   0  0  0  0  0  0  0  0  0  0  0  0
   18.5536   -7.6070  -16.4002 C   0  0  2  0  0  0  0  0  0  0  0  0
   17.8694   -8.8762  -16.2498 N   0  0  0  0  0  0  0  0  0  0  0  0
   19.4671   -7.4213  -15.2467 C   0  0  0  0  0  0  0  0  0  0  0  0
   19.1190   -7.7930  -14.0759 O   0  0  0  0  0  0  0  0  0  0  0  0
   20.7656   -6.8350  -15.3414 N   0  0  0  0  0  0  0  0  0  0  0  0
   21.4141   -6.2983  -16.5188 C   0  0  0  0  0  0  0  0  0  0  0  0
   22.8813   -6.6633  -16.3118 C   0  0  0  0  0  0  0  0  0  0  0  0
   23.0019   -7.1264  -14.8764 C   0  0  0  0  0  0  0  0  0  0  0  0
   21.7102   -6.6484  -14.2518 C   0  0  1  0  0  0  0  0  0  0  0  0
   21.7889   -5.2225  -13.8588 C   0  0  0  0  0  0  0  0  0  0  0  0
   21.2463   -4.3114  -14.5028 O   0  0  0  0  0  0  0  0  0  0  0  0
   22.4996   -4.8720  -12.7186 O   0  0  0  0  0  0  0  0  0  0  0  0
  2  1  1  6
  3  2  1  0
  4  9  1  0
  4  3  1  0
  5  4  2  0
  6  7  2  0
  6  5  1  0
  7  8  1  0
  8  9  2  0
 10 17  1  0
 10  2  1  0
 11 10  2  0
 13 12  1  0
 14 13  1  0
 15 14  1  0
 16 15  1  1
 16 17  1  0
 18 19  2  0
 18 16  1  0
 20 18  1  0
 21 20  1  0
 22 21  1  0
 23 22  1  0
 24 23  1  0
 24 20  1  0
 24 25  1  6
 26 25  2  0
 27 25  1  0
M  END
$$$$
