FMP.pdb
     RDKit          3D

 27 28  0  0  1  0  0  0  0  0999 V2000
   34.9821  -19.1040    3.2322 N   0  0  0  0  0  0  0  0  0  0  0  0
   34.1120  -20.0922    3.8360 C   0  0  1  0  0  0  0  0  0  0  0  0
   33.5834  -20.9937    2.7586 C   0  0  0  0  0  0  0  0  0  0  0  0
   32.6670  -20.3459    1.8303 C   0  0  0  0  0  0  0  0  0  0  0  0
   31.4397  -19.8858    2.3212 C   0  0  0  0  0  0  0  0  0  0  0  0
   30.5667  -19.2713    1.4437 C   0  0  0  0  0  0  0  0  0  0  0  0
   30.8805  -19.1054    0.1074 C   0  0  0  0  0  0  0  0  0  0  0  0
   32.1084  -19.5721   -0.3561 C   0  0  0  0  0  0  0  0  0  0  0  0
   32.9961  -20.1888    0.5009 C   0  0  0  0  0  0  0  0  0  0  0  0
   34.9532  -20.8950    4.8003 C   0  0  0  0  0  0  0  0  0  0  0  0
   36.1084  -21.2702    4.4804 O   0  0  0  0  0  0  0  0  0  0  0  0
   34.2585  -20.5190   11.2481 C   0  0  0  0  0  0  0  0  0  0  0  0
   34.7310  -22.2422   11.0871 S   0  0  0  0  0  0  0  0  0  0  0  0
   35.4981  -22.5638    9.4638 C   0  0  0  0  0  0  0  0  0  0  0  0
   34.7057  -21.7643    8.4475 C   0  0  0  0  0  0  0  0  0  0  0  0
   35.2544  -21.9464    7.0533 C   0  0  2  0  0  0  0  0  0  0  0  0
   34.4529  -21.2357    6.0766 N   0  0  0  0  0  0  0  0  0  0  0  0
   35.3303  -23.3733    6.6563 C   0  0  0  0  0  0  0  0  0  0  0  0
   34.3356  -23.9457    6.0965 O   0  0  0  0  0  0  0  0  0  0  0  0
   36.4779  -24.1990    6.8562 N   0  0  0  0  0  0  0  0  0  0  0  0
   37.7286  -23.8428    7.4914 C   0  0  0  0  0  0  0  0  0  0  0  0
   38.7677  -24.6180    6.6863 C   0  0  0  0  0  0  0  0  0  0  0  0
   37.9934  -25.5974    5.8314 C   0  0  0  0  0  0  0  0  0  0  0  0
   36.6189  -25.5916    6.4621 C   0  0  1  0  0  0  0  0  0  0  0  0
   36.5563  -26.4840    7.6426 C   0  0  0  0  0  0  0  0  0  0  0  0
   36.5835  -27.7215    7.5585 O   0  0  0  0  0  0  0  0  0  0  0  0
   36.4624  -25.9252    8.9102 O   0  0  0  0  0  0  0  0  0  0  0  0
  2  1  1  6
  3  2  1  0
  4  9  1  0
  4  3  1  0
  5  4  2  0
  6  7  2  0
  6  5  1  0
  7  8  1  0
  8  9  2  0
 10 17  1  0
 10  2  1  0
 11 10  2  0
 13 12  1  0
 14 13  1  0
 15 14  1  0
 16 15  1  1
 16 17  1  0
 18 19  2  0
 18 16  1  0
 20 18  1  0
 21 20  1  0
 22 21  1  0
 23 22  1  0
 24 23  1  0
 24 20  1  0
 24 25  1  1
 26 25  2  0
 27 25  1  0
M  END
$$$$
