PFQ.pdb
     RDKit          3D

 28 29  0  0  1  0  0  0  0  0999 V2000
    7.5110  -15.2429   19.2645 N   0  0  0  0  0  0  0  0  0  0  0  0
    7.2533  -14.9276   17.8834 C   0  0  0  0  0  0  0  0  0  0  0  0
    7.8407  -13.5636   17.7126 C   0  0  0  0  0  0  0  0  0  0  0  0
    8.8006  -13.3914   18.8604 C   0  0  0  0  0  0  0  0  0  0  0  0
    8.8541  -14.7692   19.4852 C   0  0  1  0  0  0  0  0  0  0  0  0
    9.0762  -14.5942   20.9310 C   0  0  0  0  0  0  0  0  0  0  0  0
   10.2376  -14.3102   21.3351 O   0  0  0  0  0  0  0  0  0  0  0  0
    7.9754  -14.7527   21.8043 N   0  0  0  0  0  0  0  0  0  0  0  0
    8.1010  -14.3663   23.1930 C   0  0  1  0  0  0  0  0  0  0  0  0
    6.8473  -13.6148   23.5900 C   0  0  0  0  0  0  0  0  0  0  0  0
    6.9236  -13.1261   24.9868 C   0  0  0  0  0  0  0  0  0  0  0  0
    7.8693  -12.1944   25.3615 C   0  0  0  0  0  0  0  0  0  0  0  0
    7.9408  -11.7371   26.6677 C   0  0  0  0  0  0  0  0  0  0  0  0
    7.0787  -12.1880   27.6426 C   0  0  0  0  0  0  0  0  0  0  0  0
    6.1290  -13.1206   27.2763 C   0  0  0  0  0  0  0  0  0  0  0  0
    6.0628  -13.5719   25.9746 C   0  0  0  0  0  0  0  0  0  0  0  0
    8.2561  -15.6139   23.9844 C   0  0  0  0  0  0  0  0  0  0  0  0
    7.6588  -16.6838   23.6966 O   0  0  0  0  0  0  0  0  0  0  0  0
   13.5624  -17.3340   23.3477 N   0  0  0  0  0  0  0  0  0  0  0  0
   12.4657  -18.1880   23.0802 C   0  0  0  0  0  0  0  0  0  0  0  0
   12.5957  -19.0633   22.1936 O   0  0  0  0  0  0  0  0  0  0  0  0
   11.1919  -18.0622   23.8204 C   0  0  0  0  0  0  0  0  0  0  0  0
   11.2089  -16.8610   24.7363 C   0  0  0  0  0  0  0  0  0  0  0  0
    9.8543  -16.8506   25.4505 C   0  0  2  0  0  0  0  0  0  0  0  0
    9.1123  -15.6445   25.1320 N   0  0  0  0  0  0  0  0  0  0  0  0
   10.0105  -17.0262   26.9131 C   0  0  0  0  0  0  0  0  0  0  0  0
   10.1914  -16.0085   27.6251 O   0  0  0  0  0  0  0  0  0  0  0  0
    9.9688  -18.2512   27.5465 O   0  0  0  0  0  0  0  0  0  0  0  0
  1  5  1  0
  2  3  1  0
  2  1  1  0
  3  4  1  0
  4  5  1  0
  5  6  1  1
  6  7  2  0
  8  9  1  0
  8  6  1  0
  9 17  1  0
 10 11  1  0
  9 10  1  1
 11 12  2  0
 12 13  1  0
 14 13  2  0
 15 14  1  0
 16 15  2  0
 16 11  1  0
 17 18  2  0
 20 19  1  0
 20 21  2  0
 22 23  1  0
 22 20  1  0
 24 23  1  6
 24 26  1  0
 25 24  1  0
 25 17  1  0
 26 27  2  0
 26 28  1  0
M  END
$$$$
