PFQ.pdb
     RDKit          3D

 28 29  0  0  1  0  0  0  0  0999 V2000
    7.5612  -15.0544   19.3158 N   0  0  0  0  0  0  0  0  0  0  0  0
    7.3073  -14.7109   17.9407 C   0  0  0  0  0  0  0  0  0  0  0  0
    7.8388  -13.3191   17.8159 C   0  0  0  0  0  0  0  0  0  0  0  0
    8.7765  -13.1398   18.9808 C   0  0  0  0  0  0  0  0  0  0  0  0
    8.8804  -14.5314   19.5675 C   0  0  1  0  0  0  0  0  0  0  0  0
    9.0773  -14.3886   21.0205 C   0  0  0  0  0  0  0  0  0  0  0  0
   10.2465  -14.2022   21.4575 O   0  0  0  0  0  0  0  0  0  0  0  0
    7.9446  -14.4669   21.8633 N   0  0  0  0  0  0  0  0  0  0  0  0
    8.0827  -14.1902   23.2768 C   0  0  1  0  0  0  0  0  0  0  0  0
    6.8624  -13.4148   23.7283 C   0  0  0  0  0  0  0  0  0  0  0  0
    6.9170  -13.1070   25.1767 C   0  0  0  0  0  0  0  0  0  0  0  0
    7.7544  -12.1241   25.6618 C   0  0  0  0  0  0  0  0  0  0  0  0
    7.8056  -11.8359   27.0163 C   0  0  0  0  0  0  0  0  0  0  0  0
    7.0295  -12.5116   27.9318 C   0  0  0  0  0  0  0  0  0  0  0  0
    6.1885  -13.4971   27.4549 C   0  0  0  0  0  0  0  0  0  0  0  0
    6.1420  -13.7793   26.1057 C   0  0  0  0  0  0  0  0  0  0  0  0
    8.1794  -15.4986   23.9737 C   0  0  0  0  0  0  0  0  0  0  0  0
    7.2557  -16.3534   23.9527 O   0  0  0  0  0  0  0  0  0  0  0  0
   13.0272  -16.7583   22.9200 N   0  0  0  0  0  0  0  0  0  0  0  0
   12.2494  -17.8687   23.3271 C   0  0  0  0  0  0  0  0  0  0  0  0
   12.1166  -18.8261   22.5305 O   0  0  0  0  0  0  0  0  0  0  0  0
   11.6034  -17.9118   24.6565 C   0  0  0  0  0  0  0  0  0  0  0  0
   10.1201  -18.1703   24.5348 C   0  0  0  0  0  0  0  0  0  0  0  0
    9.4310  -17.1159   25.4057 C   0  0  2  0  0  0  0  0  0  0  0  0
    9.3567  -15.8426   24.7129 N   0  0  0  0  0  0  0  0  0  0  0  0
   10.0939  -16.9832   26.7239 C   0  0  0  0  0  0  0  0  0  0  0  0
   10.2088  -18.0043   27.4448 O   0  0  0  0  0  0  0  0  0  0  0  0
   10.5973  -15.7952   27.2123 O   0  0  0  0  0  0  0  0  0  0  0  0
  1  5  1  0
  2  3  1  0
  2  1  1  0
  3  4  1  0
  4  5  1  0
  5  6  1  1
  6  7  2  0
  8  9  1  0
  8  6  1  0
  9 17  1  0
 10 11  1  0
  9 10  1  1
 11 12  2  0
 12 13  1  0
 14 13  2  0
 15 14  1  0
 16 15  2  0
 16 11  1  0
 17 18  2  0
 20 19  1  0
 20 21  2  0
 22 23  1  0
 22 20  1  0
 24 23  1  6
 24 26  1  0
 25 24  1  0
 25 17  1  0
 26 27  2  0
 26 28  1  0
M  END
$$$$
