PFQ.pdb
     RDKit          3D

 28 29  0  0  1  0  0  0  0  0999 V2000
    7.6416  -15.0168   19.2681 N   0  0  0  0  0  0  0  0  0  0  0  0
    7.3895  -14.6873   17.8893 C   0  0  0  0  0  0  0  0  0  0  0  0
    7.8764  -13.2795   17.7634 C   0  0  0  0  0  0  0  0  0  0  0  0
    8.7969  -13.0649   18.9360 C   0  0  0  0  0  0  0  0  0  0  0  0
    8.9406  -14.4500   19.5297 C   0  0  1  0  0  0  0  0  0  0  0  0
    9.1193  -14.2950   20.9837 C   0  0  0  0  0  0  0  0  0  0  0  0
   10.2509  -13.9471   21.4210 O   0  0  0  0  0  0  0  0  0  0  0  0
    8.0120  -14.5436   21.8274 N   0  0  0  0  0  0  0  0  0  0  0  0
    8.1004  -14.2292   23.2370 C   0  0  1  0  0  0  0  0  0  0  0  0
    6.7570  -13.6934   23.6871 C   0  0  0  0  0  0  0  0  0  0  0  0
    6.7881  -13.2651   25.1052 C   0  0  0  0  0  0  0  0  0  0  0  0
    6.4279  -14.1319   26.1160 C   0  0  0  0  0  0  0  0  0  0  0  0
    6.4569  -13.7316   27.4424 C   0  0  0  0  0  0  0  0  0  0  0  0
    6.8434  -12.4613   27.8087 C   0  0  0  0  0  0  0  0  0  0  0  0
    7.2055  -11.5872   26.8034 C   0  0  0  0  0  0  0  0  0  0  0  0
    7.1745  -11.9915   25.4851 C   0  0  0  0  0  0  0  0  0  0  0  0
    8.4454  -15.4874   23.9475 C   0  0  0  0  0  0  0  0  0  0  0  0
    7.8737  -16.5836   23.7117 O   0  0  0  0  0  0  0  0  0  0  0  0
   12.4754  -18.2443   22.2922 N   0  0  0  0  0  0  0  0  0  0  0  0
   12.5697  -18.8558   23.5653 C   0  0  0  0  0  0  0  0  0  0  0  0
   13.1071  -19.9845   23.6449 O   0  0  0  0  0  0  0  0  0  0  0  0
   12.0512  -18.1913   24.7803 C   0  0  0  0  0  0  0  0  0  0  0  0
   11.4639  -16.8383   24.4542 C   0  0  0  0  0  0  0  0  0  0  0  0
   10.1662  -16.7317   25.2603 C   0  0  2  0  0  0  0  0  0  0  0  0
    9.4667  -15.4980   24.9514 N   0  0  0  0  0  0  0  0  0  0  0  0
   10.4174  -16.8686   26.7138 C   0  0  0  0  0  0  0  0  0  0  0  0
   10.3695  -15.8402   27.4319 O   0  0  0  0  0  0  0  0  0  0  0  0
   10.7034  -18.0682   27.3323 O   0  0  0  0  0  0  0  0  0  0  0  0
  1  5  1  0
  2  3  1  0
  2  1  1  0
  3  4  1  0
  4  5  1  0
  5  6  1  1
  6  7  2  0
  8  9  1  0
  8  6  1  0
  9 17  1  0
 10 11  1  0
  9 10  1  1
 11 12  2  0
 12 13  1  0
 14 13  2  0
 15 14  1  0
 16 15  2  0
 16 11  1  0
 17 18  2  0
 20 19  1  0
 20 21  2  0
 22 23  1  0
 22 20  1  0
 24 23  1  6
 24 26  1  0
 25 24  1  0
 25 17  1  0
 26 27  2  0
 26 28  1  0
M  END
$$$$
