PFQ.pdb
     RDKit          3D

 28 29  0  0  1  0  0  0  0  0999 V2000
    7.4742  -15.0733   19.2605 N   0  0  0  0  0  0  0  0  0  0  0  0
    7.1981  -14.7361   17.8881 C   0  0  0  0  0  0  0  0  0  0  0  0
    7.6861  -13.3288   17.7606 C   0  0  0  0  0  0  0  0  0  0  0  0
    8.6281  -13.1225   18.9176 C   0  0  0  0  0  0  0  0  0  0  0  0
    8.7791  -14.5109   19.5015 C   0  0  1  0  0  0  0  0  0  0  0  0
    8.9843  -14.3638   20.9529 C   0  0  0  0  0  0  0  0  0  0  0  0
   10.1503  -14.1376   21.3796 O   0  0  0  0  0  0  0  0  0  0  0  0
    7.8628  -14.4828   21.8059 N   0  0  0  0  0  0  0  0  0  0  0  0
    7.9993  -14.1834   23.2149 C   0  0  1  0  0  0  0  0  0  0  0  0
    6.7737  -13.4097   23.6548 C   0  0  0  0  0  0  0  0  0  0  0  0
    6.8267  -13.0786   25.0981 C   0  0  0  0  0  0  0  0  0  0  0  0
    6.2780  -13.9236   26.0402 C   0  0  0  0  0  0  0  0  0  0  0  0
    6.3276  -13.6143   27.3901 C   0  0  0  0  0  0  0  0  0  0  0  0
    6.9216  -12.4594   27.8486 C   0  0  0  0  0  0  0  0  0  0  0  0
    7.4734  -11.6078   26.9125 C   0  0  0  0  0  0  0  0  0  0  0  0
    7.4209  -11.9212   25.5703 C   0  0  0  0  0  0  0  0  0  0  0  0
    8.1051  -15.4802   23.9319 C   0  0  0  0  0  0  0  0  0  0  0  0
    7.3279  -16.4461   23.7146 O   0  0  0  0  0  0  0  0  0  0  0  0
   12.6478  -18.4574   22.4788 N   0  0  0  0  0  0  0  0  0  0  0  0
   12.2489  -19.2328   23.5938 C   0  0  0  0  0  0  0  0  0  0  0  0
   12.7947  -20.3463   23.7699 O   0  0  0  0  0  0  0  0  0  0  0  0
   11.2148  -18.7537   24.5359 C   0  0  0  0  0  0  0  0  0  0  0  0
   10.6876  -17.3990   24.1253 C   0  0  0  0  0  0  0  0  0  0  0  0
    9.6343  -17.0173   25.1695 C   0  0  2  0  0  0  0  0  0  0  0  0
    9.1210  -15.6827   24.9207 N   0  0  0  0  0  0  0  0  0  0  0  0
   10.1620  -17.1522   26.5471 C   0  0  0  0  0  0  0  0  0  0  0  0
   10.4231  -16.1099   27.1959 O   0  0  0  0  0  0  0  0  0  0  0  0
   10.3862  -18.3645   27.1665 O   0  0  0  0  0  0  0  0  0  0  0  0
  1  5  1  0
  2  3  1  0
  2  1  1  0
  3  4  1  0
  4  5  1  0
  5  6  1  1
  6  7  2  0
  8  9  1  0
  8  6  1  0
  9 17  1  0
 10 11  1  0
  9 10  1  1
 11 12  2  0
 12 13  1  0
 14 13  2  0
 15 14  1  0
 16 15  2  0
 16 11  1  0
 17 18  2  0
 20 19  1  0
 20 21  2  0
 22 23  1  0
 22 20  1  0
 24 23  1  6
 24 26  1  0
 25 24  1  0
 25 17  1  0
 26 27  2  0
 26 28  1  0
M  END
$$$$
