PFQ.pdb
     RDKit          3D

 28 29  0  0  1  0  0  0  0  0999 V2000
    7.6376  -15.1346   19.2675 N   0  0  0  0  0  0  0  0  0  0  0  0
    7.3883  -14.8577   17.8766 C   0  0  0  0  0  0  0  0  0  0  0  0
    7.8717  -13.4542   17.6993 C   0  0  0  0  0  0  0  0  0  0  0  0
    8.7885  -13.1932   18.8654 C   0  0  0  0  0  0  0  0  0  0  0  0
    8.9344  -14.5547   19.5110 C   0  0  1  0  0  0  0  0  0  0  0  0
    9.1087  -14.3448   20.9586 C   0  0  0  0  0  0  0  0  0  0  0  0
   10.2321  -13.9568   21.3832 O   0  0  0  0  0  0  0  0  0  0  0  0
    8.0067  -14.5881   21.8107 N   0  0  0  0  0  0  0  0  0  0  0  0
    8.1087  -14.2777   23.2203 C   0  0  1  0  0  0  0  0  0  0  0  0
    6.9479  -13.3784   23.5917 C   0  0  0  0  0  0  0  0  0  0  0  0
    6.9920  -12.9935   25.0218 C   0  0  0  0  0  0  0  0  0  0  0  0
    7.8882  -12.0476   25.4744 C   0  0  0  0  0  0  0  0  0  0  0  0
    7.9296  -11.6873   26.8119 C   0  0  0  0  0  0  0  0  0  0  0  0
    7.0853  -12.2522   27.7420 C   0  0  0  0  0  0  0  0  0  0  0  0
    6.1851  -13.1998   27.2977 C   0  0  0  0  0  0  0  0  0  0  0  0
    6.1487  -13.5542   25.9652 C   0  0  0  0  0  0  0  0  0  0  0  0
    8.0521  -15.5652   23.9593 C   0  0  0  0  0  0  0  0  0  0  0  0
    7.1280  -16.4045   23.7991 O   0  0  0  0  0  0  0  0  0  0  0  0
   11.3414  -20.0345   23.8102 N   0  0  0  0  0  0  0  0  0  0  0  0
   11.2873  -18.7623   23.1918 C   0  0  0  0  0  0  0  0  0  0  0  0
   12.1494  -18.4843   22.3267 O   0  0  0  0  0  0  0  0  0  0  0  0
   10.2452  -17.7756   23.5479 C   0  0  0  0  0  0  0  0  0  0  0  0
    9.3000  -18.3307   24.5873 C   0  0  0  0  0  0  0  0  0  0  0  0
    9.0381  -17.1916   25.5767 C   0  0  2  0  0  0  0  0  0  0  0  0
    9.0730  -15.9058   24.9042 N   0  0  0  0  0  0  0  0  0  0  0  0
    9.9805  -17.2371   26.7187 C   0  0  0  0  0  0  0  0  0  0  0  0
   10.0910  -18.3075   27.3650 O   0  0  0  0  0  0  0  0  0  0  0  0
   10.7514  -16.1653   27.1192 O   0  0  0  0  0  0  0  0  0  0  0  0
  1  5  1  0
  2  3  1  0
  2  1  1  0
  3  4  1  0
  4  5  1  0
  5  6  1  1
  6  7  2  0
  8  9  1  0
  8  6  1  0
  9 17  1  0
 10 11  1  0
  9 10  1  1
 11 12  2  0
 12 13  1  0
 14 13  2  0
 15 14  1  0
 16 15  2  0
 16 11  1  0
 17 18  2  0
 20 19  1  0
 20 21  2  0
 22 23  1  0
 22 20  1  0
 24 23  1  6
 24 26  1  0
 25 24  1  0
 25 17  1  0
 26 27  2  0
 26 28  1  0
M  END
$$$$
