PFQ.pdb
     RDKit          3D

 28 29  0  0  1  0  0  0  0  0999 V2000
    7.3374  -14.9431   20.3463 N   0  0  0  0  0  0  0  0  0  0  0  0
    6.8144  -14.3806   19.1283 C   0  0  0  0  0  0  0  0  0  0  0  0
    7.1839  -12.9346   19.2150 C   0  0  0  0  0  0  0  0  0  0  0  0
    8.2913  -12.8618   20.2331 C   0  0  0  0  0  0  0  0  0  0  0  0
    8.6259  -14.3148   20.4949 C   0  0  1  0  0  0  0  0  0  0  0  0
    9.0616  -14.4256   21.8978 C   0  0  0  0  0  0  0  0  0  0  0  0
   10.1553  -13.8944   22.2359 O   0  0  0  0  0  0  0  0  0  0  0  0
    8.2328  -15.1243   22.8059 N   0  0  0  0  0  0  0  0  0  0  0  0
    8.5440  -15.1071   24.2189 C   0  0  1  0  0  0  0  0  0  0  0  0
    7.2426  -15.0172   24.9886 C   0  0  0  0  0  0  0  0  0  0  0  0
    7.0623  -13.6801   25.6010 C   0  0  0  0  0  0  0  0  0  0  0  0
    8.0822  -13.0820   26.3115 C   0  0  0  0  0  0  0  0  0  0  0  0
    7.9139  -11.8314   26.8842 C   0  0  0  0  0  0  0  0  0  0  0  0
    6.7312  -11.1347   26.7712 C   0  0  0  0  0  0  0  0  0  0  0  0
    5.7050  -11.7259   26.0617 C   0  0  0  0  0  0  0  0  0  0  0  0
    5.8786  -12.9709   25.4940 C   0  0  0  0  0  0  0  0  0  0  0  0
    9.2667  -16.3682   24.5256 C   0  0  0  0  0  0  0  0  0  0  0  0
    8.7442  -17.5051   24.3893 O   0  0  0  0  0  0  0  0  0  0  0  0
   14.3522  -17.9612   21.9065 N   0  0  0  0  0  0  0  0  0  0  0  0
   14.2940  -17.2346   23.1199 C   0  0  0  0  0  0  0  0  0  0  0  0
   15.3701  -16.9420   23.6903 O   0  0  0  0  0  0  0  0  0  0  0  0
   13.0026  -16.8241   23.7118 C   0  0  0  0  0  0  0  0  0  0  0  0
   12.8233  -17.4114   25.0919 C   0  0  0  0  0  0  0  0  0  0  0  0
   11.3139  -17.5737   25.2930 C   0  0  2  0  0  0  0  0  0  0  0  0
   10.6179  -16.3344   24.9991 N   0  0  0  0  0  0  0  0  0  0  0  0
   10.9976  -18.0691   26.6528 C   0  0  0  0  0  0  0  0  0  0  0  0
   10.3247  -17.3366   27.4184 O   0  0  0  0  0  0  0  0  0  0  0  0
   11.4012  -19.2976   27.1339 O   0  0  0  0  0  0  0  0  0  0  0  0
  1  5  1  0
  2  3  1  0
  2  1  1  0
  3  4  1  0
  4  5  1  0
  5  6  1  1
  6  7  2  0
  8  9  1  0
  8  6  1  0
  9 17  1  0
 10 11  1  0
  9 10  1  1
 11 12  2  0
 12 13  1  0
 14 13  2  0
 15 14  1  0
 16 15  2  0
 16 11  1  0
 17 18  2  0
 20 19  1  0
 20 21  2  0
 22 23  1  0
 22 20  1  0
 24 23  1  1
 24 26  1  0
 25 24  1  0
 25 17  1  0
 26 27  2  0
 26 28  1  0
M  END
$$$$
