PFQ.pdb
     RDKit          3D

 28 29  0  0  1  0  0  0  0  0999 V2000
    7.5151  -15.0858   19.3590 N   0  0  0  0  0  0  0  0  0  0  0  0
    7.1298  -14.7987   18.0016 C   0  0  0  0  0  0  0  0  0  0  0  0
    7.5464  -13.3764   17.8050 C   0  0  0  0  0  0  0  0  0  0  0  0
    8.5567  -13.0991   18.8870 C   0  0  0  0  0  0  0  0  0  0  0  0
    8.8080  -14.4633   19.4931 C   0  0  1  0  0  0  0  0  0  0  0  0
    9.1071  -14.2674   20.9222 C   0  0  0  0  0  0  0  0  0  0  0  0
   10.2407  -13.8183   21.2475 O   0  0  0  0  0  0  0  0  0  0  0  0
    8.1080  -14.5923   21.8688 N   0  0  0  0  0  0  0  0  0  0  0  0
    8.3000  -14.2463   23.2605 C   0  0  1  0  0  0  0  0  0  0  0  0
    7.0088  -13.6506   23.7822 C   0  0  0  0  0  0  0  0  0  0  0  0
    7.1255  -13.2579   25.2062 C   0  0  0  0  0  0  0  0  0  0  0  0
    6.6476  -14.0758   26.2089 C   0  0  0  0  0  0  0  0  0  0  0  0
    6.7567  -13.7088   27.5408 C   0  0  0  0  0  0  0  0  0  0  0  0
    7.3420  -12.5213   27.9206 C   0  0  0  0  0  0  0  0  0  0  0  0
    7.8230  -11.6966   26.9234 C   0  0  0  0  0  0  0  0  0  0  0  0
    7.7115  -12.0674   25.5996 C   0  0  0  0  0  0  0  0  0  0  0  0
    8.6470  -15.4982   23.9812 C   0  0  0  0  0  0  0  0  0  0  0  0
    7.9600  -16.5492   23.8938 O   0  0  0  0  0  0  0  0  0  0  0  0
   13.6706  -17.0951   22.4993 N   0  0  0  0  0  0  0  0  0  0  0  0
   13.5724  -16.6245   23.8307 C   0  0  0  0  0  0  0  0  0  0  0  0
   14.6145  -16.5796   24.5242 O   0  0  0  0  0  0  0  0  0  0  0  0
   12.2789  -16.1931   24.4026 C   0  0  0  0  0  0  0  0  0  0  0  0
   11.4486  -17.3800   24.8316 C   0  0  0  0  0  0  0  0  0  0  0  0
   10.1761  -16.8049   25.4602 C   0  0  2  0  0  0  0  0  0  0  0  0
    9.8047  -15.5551   24.8222 N   0  0  0  0  0  0  0  0  0  0  0  0
   10.3175  -16.6492   26.9266 C   0  0  0  0  0  0  0  0  0  0  0  0
   10.1475  -15.5120   27.4298 O   0  0  0  0  0  0  0  0  0  0  0  0
   10.6275  -17.6872   27.7809 O   0  0  0  0  0  0  0  0  0  0  0  0
  1  5  1  0
  2  3  1  0
  2  1  1  0
  3  4  1  0
  4  5  1  0
  5  6  1  1
  6  7  2  0
  8  9  1  0
  8  6  1  0
  9 17  1  0
 10 11  1  0
  9 10  1  1
 11 12  2  0
 12 13  1  0
 14 13  2  0
 15 14  1  0
 16 15  2  0
 16 11  1  0
 17 18  2  0
 20 19  1  0
 20 21  2  0
 22 23  1  0
 22 20  1  0
 24 23  1  6
 24 26  1  0
 25 24  1  0
 25 17  1  0
 26 27  2  0
 26 28  1  0
M  END
$$$$
