PFQ.pdb
     RDKit          3D

 28 29  0  0  1  0  0  0  0  0999 V2000
    7.6406  -17.3734   20.6187 N   0  0  0  0  0  0  0  0  0  0  0  0
    7.4317  -17.7590   19.2472 C   0  0  0  0  0  0  0  0  0  0  0  0
    8.0455  -16.6428   18.4646 C   0  0  0  0  0  0  0  0  0  0  0  0
    8.9711  -15.9402   19.4226 C   0  0  0  0  0  0  0  0  0  0  0  0
    8.9833  -16.8499   20.6326 C   0  0  1  0  0  0  0  0  0  0  0  0
    9.1623  -16.0030   21.8246 C   0  0  0  0  0  0  0  0  0  0  0  0
   10.3302  -15.6485   22.1456 O   0  0  0  0  0  0  0  0  0  0  0  0
    8.0145  -15.6239   22.5585 N   0  0  0  0  0  0  0  0  0  0  0  0
    8.1438  -14.6988   23.6635 C   0  0  1  0  0  0  0  0  0  0  0  0
    6.8794  -13.8679   23.7349 C   0  0  0  0  0  0  0  0  0  0  0  0
    6.9024  -12.9378   24.8881 C   0  0  0  0  0  0  0  0  0  0  0  0
    6.0487  -13.1125   25.9574 C   0  0  0  0  0  0  0  0  0  0  0  0
    6.0701  -12.2428   27.0361 C   0  0  0  0  0  0  0  0  0  0  0  0
    6.9371  -11.1739   27.0894 C   0  0  0  0  0  0  0  0  0  0  0  0
    7.7951  -10.9916   26.0234 C   0  0  0  0  0  0  0  0  0  0  0  0
    7.7690  -11.8606   24.9526 C   0  0  0  0  0  0  0  0  0  0  0  0
    8.3284  -15.5081   24.8955 C   0  0  0  0  0  0  0  0  0  0  0  0
    8.6200  -14.9996   26.0093 O   0  0  0  0  0  0  0  0  0  0  0  0
    6.2721  -21.5370   25.9900 N   0  0  0  0  0  0  0  0  0  0  0  0
    6.7390  -20.9984   27.2130 C   0  0  0  0  0  0  0  0  0  0  0  0
    6.5810  -21.6708   28.2580 O   0  0  0  0  0  0  0  0  0  0  0  0
    7.3986  -19.6763   27.2714 C   0  0  0  0  0  0  0  0  0  0  0  0
    7.4456  -19.0288   25.9075 C   0  0  0  0  0  0  0  0  0  0  0  0
    8.1679  -17.6915   26.0954 C   0  0  2  0  0  0  0  0  0  0  0  0
    8.1772  -16.9318   24.8588 N   0  0  0  0  0  0  0  0  0  0  0  0
    9.5363  -17.8841   26.6291 C   0  0  0  0  0  0  0  0  0  0  0  0
    9.6997  -17.9007   27.8735 O   0  0  0  0  0  0  0  0  0  0  0  0
   10.6525  -18.0478   25.8349 O   0  0  0  0  0  0  0  0  0  0  0  0
  1  5  1  0
  2  3  1  0
  2  1  1  0
  3  4  1  0
  4  5  1  0
  5  6  1  1
  6  7  2  0
  8  9  1  0
  8  6  1  0
  9 17  1  0
 10 11  1  0
  9 10  1  1
 11 12  2  0
 12 13  1  0
 14 13  2  0
 15 14  1  0
 16 15  2  0
 16 11  1  0
 17 18  2  0
 20 19  1  0
 20 21  2  0
 22 23  1  0
 22 20  1  0
 24 23  1  6
 24 26  1  0
 25 24  1  0
 25 17  1  0
 26 27  2  0
 26 28  1  0
M  END
$$$$
