PFQ.pdb
     RDKit          3D

 28 29  0  0  1  0  0  0  0  0999 V2000
    8.0901  -17.2450   20.2307 N   0  0  0  0  0  0  0  0  0  0  0  0
    7.5976  -17.7086   18.9595 C   0  0  0  0  0  0  0  0  0  0  0  0
    7.2731  -16.4497   18.2213 C   0  0  0  0  0  0  0  0  0  0  0  0
    8.0370  -15.3603   18.9270 C   0  0  0  0  0  0  0  0  0  0  0  0
    8.9232  -16.1189   19.8918 C   0  0  1  0  0  0  0  0  0  0  0  0
    9.1079  -15.2745   21.0847 C   0  0  0  0  0  0  0  0  0  0  0  0
    9.9956  -14.3779   21.0603 O   0  0  0  0  0  0  0  0  0  0  0  0
    8.2801  -15.5069   22.2075 N   0  0  0  0  0  0  0  0  0  0  0  0
    8.3298  -14.6004   23.3342 C   0  0  1  0  0  0  0  0  0  0  0  0
    6.9214  -14.4267   23.8638 C   0  0  0  0  0  0  0  0  0  0  0  0
    6.8906  -13.5408   25.0511 C   0  0  0  0  0  0  0  0  0  0  0  0
    6.6747  -14.0538   26.3133 C   0  0  0  0  0  0  0  0  0  0  0  0
    6.6459  -13.2255   27.4239 C   0  0  0  0  0  0  0  0  0  0  0  0
    6.8301  -11.8646   27.3192 C   0  0  0  0  0  0  0  0  0  0  0  0
    7.0468  -11.3427   26.0596 C   0  0  0  0  0  0  0  0  0  0  0  0
    7.0743  -12.1722   24.9580 C   0  0  0  0  0  0  0  0  0  0  0  0
    9.2183  -15.2147   24.3541 C   0  0  0  0  0  0  0  0  0  0  0  0
    9.1327  -14.9513   25.5819 O   0  0  0  0  0  0  0  0  0  0  0  0
    9.0807  -17.5790   28.2901 N   0  0  0  0  0  0  0  0  0  0  0  0
   10.0809  -18.5382   28.0017 C   0  0  0  0  0  0  0  0  0  0  0  0
   10.5615  -19.2001   28.9503 O   0  0  0  0  0  0  0  0  0  0  0  0
   10.5569  -18.7643   26.6201 C   0  0  0  0  0  0  0  0  0  0  0  0
    9.8018  -17.9037   25.6347 C   0  0  0  0  0  0  0  0  0  0  0  0
   10.8464  -17.0060   24.9652 C   0  0  2  0  0  0  0  0  0  0  0  0
   10.2292  -16.1522   23.9668 N   0  0  0  0  0  0  0  0  0  0  0  0
   11.9584  -17.8003   24.3934 C   0  0  0  0  0  0  0  0  0  0  0  0
   12.8121  -18.2883   25.1736 O   0  0  0  0  0  0  0  0  0  0  0  0
   12.1147  -18.0388   23.0436 O   0  0  0  0  0  0  0  0  0  0  0  0
  1  5  1  0
  2  3  1  0
  2  1  1  0
  3  4  1  0
  4  5  1  0
  5  6  1  1
  6  7  2  0
  8  9  1  0
  8  6  1  0
  9 17  1  0
 10 11  1  0
  9 10  1  1
 11 12  2  0
 12 13  1  0
 14 13  2  0
 15 14  1  0
 16 15  2  0
 16 11  1  0
 17 18  2  0
 20 19  1  0
 20 21  2  0
 22 23  1  0
 22 20  1  0
 24 23  1  6
 24 26  1  0
 25 24  1  0
 25 17  1  0
 26 27  2  0
 26 28  1  0
M  END
$$$$
