PFQ.pdb
     RDKit          3D

 28 29  0  0  1  0  0  0  0  0999 V2000
    7.6376  -15.1179   19.3146 N   0  0  0  0  0  0  0  0  0  0  0  0
    7.3486  -14.8103   17.9380 C   0  0  0  0  0  0  0  0  0  0  0  0
    7.8598  -13.4158   17.7683 C   0  0  0  0  0  0  0  0  0  0  0  0
    8.8212  -13.1975   18.9070 C   0  0  0  0  0  0  0  0  0  0  0  0
    8.9555  -14.5734   19.5239 C   0  0  1  0  0  0  0  0  0  0  0  0
    9.1833  -14.3936   20.9681 C   0  0  0  0  0  0  0  0  0  0  0  0
   10.3160  -13.9960   21.3575 O   0  0  0  0  0  0  0  0  0  0  0  0
    8.1199  -14.6753   21.8567 N   0  0  0  0  0  0  0  0  0  0  0  0
    8.2349  -14.3075   23.2513 C   0  0  1  0  0  0  0  0  0  0  0  0
    7.0377  -13.4542   23.6157 C   0  0  0  0  0  0  0  0  0  0  0  0
    7.0628  -13.0608   25.0440 C   0  0  0  0  0  0  0  0  0  0  0  0
    6.3395  -13.7627   25.9858 C   0  0  0  0  0  0  0  0  0  0  0  0
    6.3629  -13.3951   27.3217 C   0  0  0  0  0  0  0  0  0  0  0  0
    7.1027  -12.3217   27.7661 C   0  0  0  0  0  0  0  0  0  0  0  0
    7.8296  -11.6135   26.8302 C   0  0  0  0  0  0  0  0  0  0  0  0
    7.8023  -11.9843   25.5020 C   0  0  0  0  0  0  0  0  0  0  0  0
    8.2593  -15.5675   24.0379 C   0  0  0  0  0  0  0  0  0  0  0  0
    7.4839  -16.5317   23.8071 O   0  0  0  0  0  0  0  0  0  0  0  0
   10.5955  -19.6420   22.3069 N   0  0  0  0  0  0  0  0  0  0  0  0
   10.7556  -19.7129   23.7116 C   0  0  0  0  0  0  0  0  0  0  0  0
   10.2965  -20.7111   24.3130 O   0  0  0  0  0  0  0  0  0  0  0  0
   11.4453  -18.6430   24.4640 C   0  0  0  0  0  0  0  0  0  0  0  0
   10.8386  -17.2910   24.1708 C   0  0  0  0  0  0  0  0  0  0  0  0
    9.8519  -17.0111   25.3079 C   0  0  2  0  0  0  0  0  0  0  0  0
    9.1896  -15.7342   25.1139 N   0  0  0  0  0  0  0  0  0  0  0  0
   10.5127  -17.0887   26.6315 C   0  0  0  0  0  0  0  0  0  0  0  0
   10.5080  -18.1851   27.2427 O   0  0  0  0  0  0  0  0  0  0  0  0
   11.1389  -16.0200   27.2391 O   0  0  0  0  0  0  0  0  0  0  0  0
  1  5  1  0
  2  3  1  0
  2  1  1  0
  3  4  1  0
  4  5  1  0
  5  6  1  1
  6  7  2  0
  8  9  1  0
  8  6  1  0
  9 17  1  0
 10 11  1  0
  9 10  1  1
 11 12  2  0
 12 13  1  0
 14 13  2  0
 15 14  1  0
 16 15  2  0
 16 11  1  0
 17 18  2  0
 20 19  1  0
 20 21  2  0
 22 23  1  0
 22 20  1  0
 24 23  1  6
 24 26  1  0
 25 24  1  0
 25 17  1  0
 26 27  2  0
 26 28  1  0
M  END
$$$$
