PFQ.pdb
     RDKit          3D

 28 29  0  0  1  0  0  0  0  0999 V2000
    7.2335  -14.8872   20.4972 N   0  0  0  0  0  0  0  0  0  0  0  0
    6.7597  -14.1929   19.3281 C   0  0  0  0  0  0  0  0  0  0  0  0
    7.2354  -12.7899   19.5283 C   0  0  0  0  0  0  0  0  0  0  0  0
    8.3403  -12.8804   20.5478 C   0  0  0  0  0  0  0  0  0  0  0  0
    8.5644  -14.3704   20.6937 C   0  0  1  0  0  0  0  0  0  0  0  0
    8.9839  -14.6237   22.0829 C   0  0  0  0  0  0  0  0  0  0  0  0
   10.1553  -14.3065   22.4291 O   0  0  0  0  0  0  0  0  0  0  0  0
    8.0530  -15.2129   22.9695 N   0  0  0  0  0  0  0  0  0  0  0  0
    8.3679  -15.3104   24.3783 C   0  0  1  0  0  0  0  0  0  0  0  0
    7.0961  -15.0699   25.1649 C   0  0  0  0  0  0  0  0  0  0  0  0
    7.0374  -13.6886   25.6979 C   0  0  0  0  0  0  0  0  0  0  0  0
    5.8748  -13.1890   26.2470 C   0  0  0  0  0  0  0  0  0  0  0  0
    5.8197  -11.8972   26.7456 C   0  0  0  0  0  0  0  0  0  0  0  0
    6.9135  -11.0607   26.7161 C   0  0  0  0  0  0  0  0  0  0  0  0
    8.0813  -11.5526   26.1683 C   0  0  0  0  0  0  0  0  0  0  0  0
    8.1299  -12.8392   25.6736 C   0  0  0  0  0  0  0  0  0  0  0  0
    8.8998  -16.6769   24.6165 C   0  0  0  0  0  0  0  0  0  0  0  0
    8.1598  -17.6635   24.8677 O   0  0  0  0  0  0  0  0  0  0  0  0
   14.5285  -18.5954   22.7333 N   0  0  0  0  0  0  0  0  0  0  0  0
   13.3472  -18.2011   22.0605 C   0  0  0  0  0  0  0  0  0  0  0  0
   13.4165  -17.9473   20.8358 O   0  0  0  0  0  0  0  0  0  0  0  0
   12.0560  -18.0871   22.7720 C   0  0  0  0  0  0  0  0  0  0  0  0
   12.2015  -18.4554   24.2298 C   0  0  0  0  0  0  0  0  0  0  0  0
   10.8206  -18.2530   24.8602 C   0  0  2  0  0  0  0  0  0  0  0  0
   10.3091  -16.9265   24.5676 N   0  0  0  0  0  0  0  0  0  0  0  0
   10.8446  -18.5206   26.3171 C   0  0  0  0  0  0  0  0  0  0  0  0
   11.1763  -19.6646   26.7130 O   0  0  0  0  0  0  0  0  0  0  0  0
   10.5217  -17.5808   27.2741 O   0  0  0  0  0  0  0  0  0  0  0  0
  1  5  1  0
  2  3  1  0
  2  1  1  0
  3  4  1  0
  4  5  1  0
  5  6  1  1
  6  7  2  0
  8  9  1  0
  8  6  1  0
  9 17  1  0
 10 11  1  0
  9 10  1  1
 11 12  2  0
 12 13  1  0
 14 13  2  0
 15 14  1  0
 16 15  2  0
 16 11  1  0
 17 18  2  0
 20 19  1  0
 20 21  2  0
 22 23  1  0
 22 20  1  0
 24 23  1  1
 24 26  1  0
 25 24  1  0
 25 17  1  0
 26 27  2  0
 26 28  1  0
M  END
$$$$
