PFQ.pdb
     RDKit          3D

 28 29  0  0  1  0  0  0  0  0999 V2000
    7.5744  -15.1848   19.3342 N   0  0  0  0  0  0  0  0  0  0  0  0
    7.2159  -14.8489   17.9807 C   0  0  0  0  0  0  0  0  0  0  0  0
    7.5358  -13.3922   17.8772 C   0  0  0  0  0  0  0  0  0  0  0  0
    8.4862  -13.1068   19.0102 C   0  0  0  0  0  0  0  0  0  0  0  0
    8.8140  -14.4822   19.5508 C   0  0  1  0  0  0  0  0  0  0  0  0
    9.0495  -14.3472   20.9987 C   0  0  0  0  0  0  0  0  0  0  0  0
   10.1784  -13.9443   21.3935 O   0  0  0  0  0  0  0  0  0  0  0  0
    7.9973  -14.6760   21.8844 N   0  0  0  0  0  0  0  0  0  0  0  0
    8.1067  -14.3327   23.2857 C   0  0  1  0  0  0  0  0  0  0  0  0
    6.7822  -13.7508   23.7348 C   0  0  0  0  0  0  0  0  0  0  0  0
    6.8285  -13.3191   25.1515 C   0  0  0  0  0  0  0  0  0  0  0  0
    6.3748  -14.1441   26.1596 C   0  0  0  0  0  0  0  0  0  0  0  0
    6.4180  -13.7406   27.4846 C   0  0  0  0  0  0  0  0  0  0  0  0
    6.9117  -12.5085   27.8522 C   0  0  0  0  0  0  0  0  0  0  0  0
    7.3680  -11.6763   26.8496 C   0  0  0  0  0  0  0  0  0  0  0  0
    7.3223  -12.0836   25.5326 C   0  0  0  0  0  0  0  0  0  0  0  0
    8.4241  -15.5835   24.0216 C   0  0  0  0  0  0  0  0  0  0  0  0
    7.7354  -16.6316   23.9157 O   0  0  0  0  0  0  0  0  0  0  0  0
   12.3619  -18.2946   21.5480 N   0  0  0  0  0  0  0  0  0  0  0  0
   12.2348  -18.4026   22.9537 C   0  0  0  0  0  0  0  0  0  0  0  0
   13.2144  -18.8272   23.6087 O   0  0  0  0  0  0  0  0  0  0  0  0
   10.9831  -18.0275   23.6458 C   0  0  0  0  0  0  0  0  0  0  0  0
   11.2693  -17.3982   24.9889 C   0  0  0  0  0  0  0  0  0  0  0  0
    9.9226  -16.9011   25.5221 C   0  0  2  0  0  0  0  0  0  0  0  0
    9.5538  -15.6428   24.8999 N   0  0  0  0  0  0  0  0  0  0  0  0
    9.9281  -16.7994   27.0000 C   0  0  0  0  0  0  0  0  0  0  0  0
    9.7537  -15.6731   27.5260 O   0  0  0  0  0  0  0  0  0  0  0  0
   10.1149  -17.8765   27.8415 O   0  0  0  0  0  0  0  0  0  0  0  0
  1  5  1  0
  2  3  1  0
  2  1  1  0
  3  4  1  0
  4  5  1  0
  5  6  1  1
  6  7  2  0
  8  9  1  0
  8  6  1  0
  9 17  1  0
 10 11  1  0
  9 10  1  1
 11 12  2  0
 12 13  1  0
 14 13  2  0
 15 14  1  0
 16 15  2  0
 16 11  1  0
 17 18  2  0
 20 19  1  0
 20 21  2  0
 22 23  1  0
 22 20  1  0
 24 23  1  6
 24 26  1  0
 25 24  1  0
 25 17  1  0
 26 27  2  0
 26 28  1  0
M  END
$$$$
