PFQ.pdb
     RDKit          3D

 28 29  0  0  1  0  0  0  0  0999 V2000
    7.6105  -14.9159   19.1691 N   0  0  0  0  0  0  0  0  0  0  0  0
    7.2757  -14.5315   17.8225 C   0  0  0  0  0  0  0  0  0  0  0  0
    7.7267  -13.1089   17.7342 C   0  0  0  0  0  0  0  0  0  0  0  0
    8.7063  -12.9258   18.8634 C   0  0  0  0  0  0  0  0  0  0  0  0
    8.9104  -14.3322   19.3849 C   0  0  1  0  0  0  0  0  0  0  0  0
    9.1664  -14.2376   20.8326 C   0  0  0  0  0  0  0  0  0  0  0  0
   10.3161  -13.8934   21.2229 O   0  0  0  0  0  0  0  0  0  0  0  0
    8.1097  -14.5377   21.7231 N   0  0  0  0  0  0  0  0  0  0  0  0
    8.2541  -14.2413   23.1320 C   0  0  1  0  0  0  0  0  0  0  0  0
    6.9334  -13.6999   23.6390 C   0  0  0  0  0  0  0  0  0  0  0  0
    7.0237  -13.2826   25.0579 C   0  0  0  0  0  0  0  0  0  0  0  0
    7.5167  -12.0411   25.4021 C   0  0  0  0  0  0  0  0  0  0  0  0
    7.6011  -11.6506   26.7290 C   0  0  0  0  0  0  0  0  0  0  0  0
    7.2003  -12.4768   27.7555 C   0  0  0  0  0  0  0  0  0  0  0  0
    6.7057  -13.7212   27.4200 C   0  0  0  0  0  0  0  0  0  0  0  0
    6.6241  -14.1042   26.0975 C   0  0  0  0  0  0  0  0  0  0  0  0
    8.6146  -15.5110   23.8138 C   0  0  0  0  0  0  0  0  0  0  0  0
    7.9761  -16.5823   23.6443 O   0  0  0  0  0  0  0  0  0  0  0  0
   12.1336  -20.6694   24.3259 N   0  0  0  0  0  0  0  0  0  0  0  0
   12.5355  -19.3122   24.3224 C   0  0  0  0  0  0  0  0  0  0  0  0
   13.2782  -18.9140   23.3957 O   0  0  0  0  0  0  0  0  0  0  0  0
   12.0978  -18.3756   25.3797 C   0  0  0  0  0  0  0  0  0  0  0  0
   11.6857  -17.0454   24.7944 C   0  0  0  0  0  0  0  0  0  0  0  0
   10.2190  -16.8437   25.1858 C   0  0  2  0  0  0  0  0  0  0  0  0
    9.7296  -15.5624   24.7110 N   0  0  0  0  0  0  0  0  0  0  0  0
   10.0207  -16.9978   26.6458 C   0  0  0  0  0  0  0  0  0  0  0  0
    9.7400  -15.9804   27.3253 O   0  0  0  0  0  0  0  0  0  0  0  0
   10.1267  -18.2020   27.3107 O   0  0  0  0  0  0  0  0  0  0  0  0
  1  5  1  0
  2  3  1  0
  2  1  1  0
  3  4  1  0
  4  5  1  0
  5  6  1  1
  6  7  2  0
  8  9  1  0
  8  6  1  0
  9 17  1  0
 10 11  1  0
  9 10  1  1
 11 12  2  0
 12 13  1  0
 14 13  2  0
 15 14  1  0
 16 15  2  0
 16 11  1  0
 17 18  2  0
 20 19  1  0
 20 21  2  0
 22 23  1  0
 22 20  1  0
 24 23  1  1
 24 26  1  0
 25 24  1  0
 25 17  1  0
 26 27  2  0
 26 28  1  0
M  END
$$$$
