PFQ.pdb
     RDKit          3D

 28 29  0  0  1  0  0  0  0  0999 V2000
    7.5623  -15.0433   19.1030 N   0  0  0  0  0  0  0  0  0  0  0  0
    7.2423  -14.7170   17.7376 C   0  0  0  0  0  0  0  0  0  0  0  0
    7.6773  -13.2935   17.5988 C   0  0  0  0  0  0  0  0  0  0  0  0
    8.6384  -13.0533   18.7334 C   0  0  0  0  0  0  0  0  0  0  0  0
    8.8518  -14.4352   19.3134 C   0  0  1  0  0  0  0  0  0  0  0  0
    9.0858  -14.2799   20.7595 C   0  0  0  0  0  0  0  0  0  0  0  0
   10.2540  -14.0190   21.1593 O   0  0  0  0  0  0  0  0  0  0  0  0
    7.9880  -14.4305   21.6381 N   0  0  0  0  0  0  0  0  0  0  0  0
    8.1594  -14.1676   23.0506 C   0  0  1  0  0  0  0  0  0  0  0  0
    6.9023  -13.4951   23.5623 C   0  0  0  0  0  0  0  0  0  0  0  0
    6.9921  -13.2020   25.0120 C   0  0  0  0  0  0  0  0  0  0  0  0
    7.6901  -12.1046   25.4718 C   0  0  0  0  0  0  0  0  0  0  0  0
    7.7741  -11.8302   26.8275 C   0  0  0  0  0  0  0  0  0  0  0  0
    7.1700  -12.6334   27.7693 C   0  0  0  0  0  0  0  0  0  0  0  0
    6.4694  -13.7339   27.3178 C   0  0  0  0  0  0  0  0  0  0  0  0
    6.3893  -14.0018   25.9672 C   0  0  0  0  0  0  0  0  0  0  0  0
    8.3815  -15.4762   23.7178 C   0  0  0  0  0  0  0  0  0  0  0  0
    7.6090  -16.4586   23.5686 O   0  0  0  0  0  0  0  0  0  0  0  0
   13.9025  -19.1842   24.9790 N   0  0  0  0  0  0  0  0  0  0  0  0
   12.6464  -19.4504   24.3832 C   0  0  0  0  0  0  0  0  0  0  0  0
   12.6121  -20.1883   23.3717 O   0  0  0  0  0  0  0  0  0  0  0  0
   11.3971  -18.8786   24.9298 C   0  0  0  0  0  0  0  0  0  0  0  0
   11.1799  -17.4679   24.4352 C   0  0  0  0  0  0  0  0  0  0  0  0
    9.8495  -17.0057   25.0363 C   0  0  2  0  0  0  0  0  0  0  0  0
    9.5111  -15.6714   24.5761 N   0  0  0  0  0  0  0  0  0  0  0  0
    9.8650  -17.0864   26.5154 C   0  0  0  0  0  0  0  0  0  0  0  0
    9.8664  -16.0191   27.1760 O   0  0  0  0  0  0  0  0  0  0  0  0
    9.8781  -18.2737   27.2179 O   0  0  0  0  0  0  0  0  0  0  0  0
  1  5  1  0
  2  3  1  0
  2  1  1  0
  3  4  1  0
  4  5  1  0
  5  6  1  1
  6  7  2  0
  8  9  1  0
  8  6  1  0
  9 17  1  0
 10 11  1  0
  9 10  1  1
 11 12  2  0
 12 13  1  0
 14 13  2  0
 15 14  1  0
 16 15  2  0
 16 11  1  0
 17 18  2  0
 20 19  1  0
 20 21  2  0
 22 23  1  0
 22 20  1  0
 24 23  1  1
 24 26  1  0
 25 24  1  0
 25 17  1  0
 26 27  2  0
 26 28  1  0
M  END
$$$$
