TPE.pdb
     RDKit          3D

 24 24  0  0  1  0  0  0  0  0999 V2000
    7.3106  -16.9086   16.7407 C   0  0  0  0  0  0  0  0  0  0  0  0
    8.3420  -16.4657   15.7609 C   0  0  1  0  0  0  0  0  0  0  0  0
    8.0527  -16.7818   14.4442 O   0  0  0  0  0  0  0  0  0  0  0  0
    8.6208  -14.9866   15.9420 C   0  0  2  0  0  0  0  0  0  0  0  0
    9.2619  -14.4633   14.7596 N   0  0  0  0  0  0  0  0  0  0  0  0
    9.3697  -14.7072   17.1867 C   0  0  0  0  0  0  0  0  0  0  0  0
   10.6172  -14.9075   17.1466 O   0  0  0  0  0  0  0  0  0  0  0  0
    8.7538  -14.2426   18.3634 N   0  0  0  0  0  0  0  0  0  0  0  0
    7.3444  -14.0261   18.5575 C   0  0  0  0  0  0  0  0  0  0  0  0
    7.1742  -13.6083   20.0170 C   0  0  0  0  0  0  0  0  0  0  0  0
    8.4920  -12.9190   20.2976 C   0  0  0  0  0  0  0  0  0  0  0  0
    9.4468  -13.9040   19.5997 C   0  0  1  0  0  0  0  0  0  0  0  0
    9.5377  -15.0880   20.4960 C   0  0  0  0  0  0  0  0  0  0  0  0
    8.9926  -16.1934   20.1651 O   0  0  0  0  0  0  0  0  0  0  0  0
   10.2132  -15.0611   21.7277 N   0  0  0  0  0  0  0  0  0  0  0  0
   11.1274  -16.1653   22.1524 C   0  0  1  0  0  0  0  0  0  0  0  0
   12.2253  -16.2601   21.1449 C   0  0  0  0  0  0  0  0  0  0  0  0
   13.2054  -15.1687   21.1323 C   0  0  0  0  0  0  0  0  0  0  0  0
   14.4426  -15.3713   20.3565 C   0  0  0  0  0  0  0  0  0  0  0  0
   14.9664  -16.5107   20.1484 O   0  0  0  0  0  0  0  0  0  0  0  0
   11.5543  -15.9296   23.5019 C   0  0  0  0  0  0  0  0  0  0  0  0
   12.2652  -16.7444   24.1279 O   0  0  0  0  0  0  0  0  0  0  0  0
   15.0909  -14.2762   19.8125 O   0  0  0  0  0  0  0  0  0  0  0  0
   11.1919  -14.7508   24.1685 O   0  0  0  0  0  0  0  0  0  0  0  0
  2  1  1  1
  3  2  1  0
  4  6  1  0
  4  2  1  0
  4  5  1  6
  6  7  2  0
  8 12  1  0
  8  6  1  0
  9  8  1  0
 10  9  1  0
 10 11  1  0
 11 12  1  0
 12 13  1  1
 13 15  1  0
 13 14  2  0
 15 16  1  0
 16 21  1  0
 16 17  1  6
 18 17  1  0
 19 18  1  0
 20 19  2  0
 21 22  2  0
 21 24  1  0
 23 19  1  0
M  END
$$$$
