TPE.pdb
     RDKit          3D

 24 24  0  0  1  0  0  0  0  0999 V2000
    6.5781  -11.7527   26.6846 C   0  0  0  0  0  0  0  0  0  0  0  0
    7.2956  -12.9238   26.1069 C   0  0  1  0  0  0  0  0  0  0  0  0
    8.1894  -13.5306   26.9731 O   0  0  0  0  0  0  0  0  0  0  0  0
    6.2944  -13.9111   25.5402 C   0  0  2  0  0  0  0  0  0  0  0  0
    5.4638  -14.4266   26.6019 N   0  0  0  0  0  0  0  0  0  0  0  0
    6.9461  -14.9706   24.7394 C   0  0  0  0  0  0  0  0  0  0  0  0
    7.0663  -16.0992   25.2960 O   0  0  0  0  0  0  0  0  0  0  0  0
    7.4142  -14.7620   23.4290 N   0  0  0  0  0  0  0  0  0  0  0  0
    7.2442  -13.5671   22.6451 C   0  0  0  0  0  0  0  0  0  0  0  0
    8.0014  -13.8025   21.3393 C   0  0  0  0  0  0  0  0  0  0  0  0
    7.8917  -15.3041   21.1841 C   0  0  0  0  0  0  0  0  0  0  0  0
    8.1635  -15.7295   22.6381 C   0  0  1  0  0  0  0  0  0  0  0  0
    9.6271  -15.5615   22.8453 C   0  0  0  0  0  0  0  0  0  0  0  0
   10.0915  -14.4765   23.3307 O   0  0  0  0  0  0  0  0  0  0  0  0
   10.5613  -16.5623   22.5290 N   0  0  0  0  0  0  0  0  0  0  0  0
   11.8791  -16.6631   23.2277 C   0  0  1  0  0  0  0  0  0  0  0  0
   11.6089  -16.8536   24.6839 C   0  0  0  0  0  0  0  0  0  0  0  0
   11.0486  -18.1480   25.0871 C   0  0  0  0  0  0  0  0  0  0  0  0
   10.9134  -18.4131   26.5311 C   0  0  0  0  0  0  0  0  0  0  0  0
   10.2319  -17.6870   27.3210 O   0  0  0  0  0  0  0  0  0  0  0  0
   12.6609  -17.6959   22.6105 C   0  0  0  0  0  0  0  0  0  0  0  0
   12.1681  -18.5127   21.8037 O   0  0  0  0  0  0  0  0  0  0  0  0
   11.5542  -19.5081   27.0841 O   0  0  0  0  0  0  0  0  0  0  0  0
   14.0300  -17.8154   22.8878 O   0  0  0  0  0  0  0  0  0  0  0  0
  2  1  1  1
  3  2  1  0
  4  6  1  0
  4  2  1  0
  4  5  1  1
  6  7  2  0
  8 12  1  0
  8  6  1  0
  9  8  1  0
 10  9  1  0
 10 11  1  0
 11 12  1  0
 12 13  1  1
 13 15  1  0
 13 14  2  0
 15 16  1  0
 16 21  1  0
 16 17  1  1
 18 17  1  0
 19 18  1  0
 20 19  2  0
 21 22  2  0
 21 24  1  0
 23 19  1  0
M  END
$$$$
