TPE.pdb
     RDKit          3D

 24 24  0  0  1  0  0  0  0  0999 V2000
    6.8616  -13.7899   18.6074 C   0  0  0  0  0  0  0  0  0  0  0  0
    7.4988  -14.2590   19.8698 C   0  0  1  0  0  0  0  0  0  0  0  0
    8.3160  -15.3668   19.7204 O   0  0  0  0  0  0  0  0  0  0  0  0
    8.2210  -13.1066   20.5397 C   0  0  2  0  0  0  0  0  0  0  0  0
    9.1619  -12.5187   19.6166 N   0  0  0  0  0  0  0  0  0  0  0  0
    8.8330  -13.5028   21.8268 C   0  0  0  0  0  0  0  0  0  0  0  0
   10.0829  -13.6919   21.8179 O   0  0  0  0  0  0  0  0  0  0  0  0
    8.0898  -13.6663   23.0103 N   0  0  0  0  0  0  0  0  0  0  0  0
    6.6725  -13.4660   23.1593 C   0  0  0  0  0  0  0  0  0  0  0  0
    6.3362  -13.8528   24.5985 C   0  0  0  0  0  0  0  0  0  0  0  0
    7.6257  -13.5206   25.3179 C   0  0  0  0  0  0  0  0  0  0  0  0
    8.6353  -14.0764   24.2977 C   0  0  1  0  0  0  0  0  0  0  0  0
    8.5900  -15.5562   24.4439 C   0  0  0  0  0  0  0  0  0  0  0  0
    7.9783  -16.2730   23.5832 O   0  0  0  0  0  0  0  0  0  0  0  0
    9.2036  -16.2358   25.5097 N   0  0  0  0  0  0  0  0  0  0  0  0
    9.6515  -17.6570   25.3881 C   0  0  1  0  0  0  0  0  0  0  0  0
   10.5548  -17.7497   24.2028 C   0  0  0  0  0  0  0  0  0  0  0  0
   11.8347  -17.0385   24.2914 C   0  0  0  0  0  0  0  0  0  0  0  0
   12.8073  -17.2454   23.2028 C   0  0  0  0  0  0  0  0  0  0  0  0
   12.6525  -16.7968   22.0236 O   0  0  0  0  0  0  0  0  0  0  0  0
   10.2303  -18.0758   26.6324 C   0  0  0  0  0  0  0  0  0  0  0  0
   10.5304  -19.2671   26.8604 O   0  0  0  0  0  0  0  0  0  0  0  0
   13.9631  -17.9650   23.4515 O   0  0  0  0  0  0  0  0  0  0  0  0
   10.4945  -17.1432   27.6453 O   0  0  0  0  0  0  0  0  0  0  0  0
  2  1  1  6
  3  2  1  0
  4  6  1  0
  4  2  1  0
  4  5  1  6
  6  7  2  0
  8 12  1  0
  8  6  1  0
  9  8  1  0
 10  9  1  0
 10 11  1  0
 11 12  1  0
 12 13  1  6
 13 15  1  0
 13 14  2  0
 15 16  1  0
 16 21  1  0
 16 17  1  6
 18 17  1  0
 19 18  1  0
 20 19  2  0
 21 22  2  0
 21 24  1  0
 23 19  1  0
M  END
$$$$
