TPE.pdb
     RDKit          3D

 24 24  0  0  1  0  0  0  0  0999 V2000
    6.9021  -18.5269   19.8821 C   0  0  0  0  0  0  0  0  0  0  0  0
    7.8405  -18.4353   18.7284 C   0  0  1  0  0  0  0  0  0  0  0  0
    7.4748  -19.1982   17.6322 O   0  0  0  0  0  0  0  0  0  0  0  0
    8.0617  -16.9814   18.3604 C   0  0  2  0  0  0  0  0  0  0  0  0
    8.6016  -16.8934   17.0249 N   0  0  0  0  0  0  0  0  0  0  0  0
    8.8743  -16.2668   19.3690 C   0  0  0  0  0  0  0  0  0  0  0  0
   10.1290  -16.3566   19.2430 O   0  0  0  0  0  0  0  0  0  0  0  0
    8.3091  -15.5206   20.4194 N   0  0  0  0  0  0  0  0  0  0  0  0
    6.9063  -15.2821   20.6346 C   0  0  0  0  0  0  0  0  0  0  0  0
    6.8025  -14.5006   21.9432 C   0  0  0  0  0  0  0  0  0  0  0  0
    8.1123  -13.7423   21.9558 C   0  0  0  0  0  0  0  0  0  0  0  0
    9.0571  -14.8609   21.4817 C   0  0  1  0  0  0  0  0  0  0  0  0
    9.2316  -15.7686   22.6475 C   0  0  0  0  0  0  0  0  0  0  0  0
    8.3810  -16.6903   22.8829 O   0  0  0  0  0  0  0  0  0  0  0  0
   10.3164  -15.6691   23.5350 N   0  0  0  0  0  0  0  0  0  0  0  0
   11.0142  -16.8784   24.0696 C   0  0  1  0  0  0  0  0  0  0  0  0
   12.4070  -16.8753   23.5315 C   0  0  0  0  0  0  0  0  0  0  0  0
   13.2645  -18.0024   23.9139 C   0  0  0  0  0  0  0  0  0  0  0  0
   14.6607  -17.9892   23.4403 C   0  0  0  0  0  0  0  0  0  0  0  0
   15.0455  -18.5431   22.3629 O   0  0  0  0  0  0  0  0  0  0  0  0
   10.9114  -16.8866   25.5007 C   0  0  0  0  0  0  0  0  0  0  0  0
   10.7325  -15.8418   26.1621 O   0  0  0  0  0  0  0  0  0  0  0  0
   15.6274  -17.3442   24.1919 O   0  0  0  0  0  0  0  0  0  0  0  0
   10.9967  -18.0902   26.2146 O   0  0  0  0  0  0  0  0  0  0  0  0
  2  1  1  1
  3  2  1  0
  4  6  1  0
  4  2  1  0
  4  5  1  6
  6  7  2  0
  8 12  1  0
  8  6  1  0
  9  8  1  0
 10  9  1  0
 10 11  1  0
 11 12  1  0
 12 13  1  1
 13 15  1  0
 13 14  2  0
 15 16  1  0
 16 21  1  0
 16 17  1  1
 18 17  1  0
 19 18  1  0
 20 19  2  0
 21 22  2  0
 21 24  1  0
 23 19  1  0
M  END
$$$$
