TPE.pdb
     RDKit          3D

 24 24  0  0  1  0  0  0  0  0999 V2000
    8.0406  -16.9022   18.1536 C   0  0  0  0  0  0  0  0  0  0  0  0
    8.6145  -15.8204   17.3050 C   0  0  1  0  0  0  0  0  0  0  0  0
    8.2416  -15.8804   15.9728 O   0  0  0  0  0  0  0  0  0  0  0  0
    8.3095  -14.4688   17.9199 C   0  0  2  0  0  0  0  0  0  0  0  0
    8.5804  -13.4248   16.9609 N   0  0  0  0  0  0  0  0  0  0  0  0
    9.0041  -14.2726   19.2112 C   0  0  0  0  0  0  0  0  0  0  0  0
   10.2439  -14.0333   19.1495 O   0  0  0  0  0  0  0  0  0  0  0  0
    8.3464  -14.3416   20.4532 N   0  0  0  0  0  0  0  0  0  0  0  0
    6.9457  -14.5982   20.6608 C   0  0  0  0  0  0  0  0  0  0  0  0
    6.7432  -14.6598   22.1738 C   0  0  0  0  0  0  0  0  0  0  0  0
    7.8263  -13.7260   22.6694 C   0  0  0  0  0  0  0  0  0  0  0  0
    8.9811  -14.1686   21.7533 C   0  0  1  0  0  0  0  0  0  0  0  0
    9.4502  -15.4743   22.2904 C   0  0  0  0  0  0  0  0  0  0  0  0
    8.8531  -16.5566   21.9729 O   0  0  0  0  0  0  0  0  0  0  0  0
   10.5513  -15.5911   23.1554 N   0  0  0  0  0  0  0  0  0  0  0  0
   11.1402  -16.9185   23.5109 C   0  0  1  0  0  0  0  0  0  0  0  0
   12.5119  -16.9797   22.9242 C   0  0  0  0  0  0  0  0  0  0  0  0
   13.4866  -16.0031   23.4222 C   0  0  0  0  0  0  0  0  0  0  0  0
   14.8306  -16.0102   22.8160 C   0  0  0  0  0  0  0  0  0  0  0  0
   15.1997  -16.8415   21.9281 O   0  0  0  0  0  0  0  0  0  0  0  0
   11.0747  -17.0963   24.9332 C   0  0  0  0  0  0  0  0  0  0  0  0
   10.7040  -16.1843   25.7026 O   0  0  0  0  0  0  0  0  0  0  0  0
   15.7626  -15.0693   23.2180 O   0  0  0  0  0  0  0  0  0  0  0  0
   11.4182  -18.3250   25.5144 O   0  0  0  0  0  0  0  0  0  0  0  0
  2  1  1  1
  3  2  1  0
  4  6  1  0
  4  2  1  0
  4  5  1  6
  6  7  2  0
  8 12  1  0
  8  6  1  0
  9  8  1  0
 10  9  1  0
 10 11  1  0
 11 12  1  0
 12 13  1  1
 13 15  1  0
 13 14  2  0
 15 16  1  0
 16 21  1  0
 16 17  1  1
 18 17  1  0
 19 18  1  0
 20 19  2  0
 21 22  2  0
 21 24  1  0
 23 19  1  0
M  END
$$$$
