TPE.pdb
     RDKit          3D

 24 24  0  0  1  0  0  0  0  0999 V2000
    6.5080  -12.4644   26.8862 C   0  0  0  0  0  0  0  0  0  0  0  0
    7.2962  -13.4912   26.1484 C   0  0  1  0  0  0  0  0  0  0  0  0
    8.2911  -14.0956   26.8982 O   0  0  0  0  0  0  0  0  0  0  0  0
    6.3597  -14.5064   25.5236 C   0  0  2  0  0  0  0  0  0  0  0  0
    5.6895  -15.2540   26.5604 N   0  0  0  0  0  0  0  0  0  0  0  0
    7.0458  -15.3646   24.5331 C   0  0  0  0  0  0  0  0  0  0  0  0
    7.2893  -16.5515   24.8937 O   0  0  0  0  0  0  0  0  0  0  0  0
    7.4172  -14.9117   23.2537 N   0  0  0  0  0  0  0  0  0  0  0  0
    7.0775  -13.6412   22.6694 C   0  0  0  0  0  0  0  0  0  0  0  0
    7.7838  -13.5920   21.3157 C   0  0  0  0  0  0  0  0  0  0  0  0
    7.8281  -15.0565   20.9361 C   0  0  0  0  0  0  0  0  0  0  0  0
    8.2223  -15.6589   22.2964 C   0  0  1  0  0  0  0  0  0  0  0  0
    9.6684  -15.3570   22.4724 C   0  0  0  0  0  0  0  0  0  0  0  0
   10.0413  -14.2363   22.9557 O   0  0  0  0  0  0  0  0  0  0  0  0
   10.6838  -16.2649   22.1275 N   0  0  0  0  0  0  0  0  0  0  0  0
   11.7427  -16.6739   23.1005 C   0  0  1  0  0  0  0  0  0  0  0  0
   11.0626  -17.1191   24.3530 C   0  0  0  0  0  0  0  0  0  0  0  0
   11.9211  -17.6524   25.4162 C   0  0  0  0  0  0  0  0  0  0  0  0
   11.2818  -18.0058   26.6969 C   0  0  0  0  0  0  0  0  0  0  0  0
   10.0233  -18.0344   26.8730 O   0  0  0  0  0  0  0  0  0  0  0  0
   12.5938  -17.6519   22.4859 C   0  0  0  0  0  0  0  0  0  0  0  0
   12.1418  -18.5849   21.7885 O   0  0  0  0  0  0  0  0  0  0  0  0
   12.0732  -18.3293   27.7853 O   0  0  0  0  0  0  0  0  0  0  0  0
   13.9856  -17.5832   22.6399 O   0  0  0  0  0  0  0  0  0  0  0  0
  2  1  1  1
  3  2  1  0
  4  6  1  0
  4  2  1  0
  4  5  1  1
  6  7  2  0
  8 12  1  0
  8  6  1  0
  9  8  1  0
 10  9  1  0
 10 11  1  0
 11 12  1  0
 12 13  1  1
 13 15  1  0
 13 14  2  0
 15 16  1  0
 16 21  1  0
 16 17  1  1
 18 17  1  0
 19 18  1  0
 20 19  2  0
 21 22  2  0
 21 24  1  0
 23 19  1  0
M  END
$$$$
