TPE.pdb
     RDKit          3D

 24 24  0  0  1  0  0  0  0  0999 V2000
    7.0756  -17.3736   14.7296 C   0  0  0  0  0  0  0  0  0  0  0  0
    7.9547  -16.7767   15.7741 C   0  0  1  0  0  0  0  0  0  0  0  0
    9.1039  -17.5030   16.0373 O   0  0  0  0  0  0  0  0  0  0  0  0
    8.2622  -15.3342   15.4236 C   0  0  2  0  0  0  0  0  0  0  0  0
    8.7812  -15.2593   14.0790 N   0  0  0  0  0  0  0  0  0  0  0  0
    9.1383  -14.6898   16.4263 C   0  0  0  0  0  0  0  0  0  0  0  0
   10.3652  -14.6131   16.1312 O   0  0  0  0  0  0  0  0  0  0  0  0
    8.6598  -14.1809   17.6477 N   0  0  0  0  0  0  0  0  0  0  0  0
    7.3054  -14.2563   18.1284 C   0  0  0  0  0  0  0  0  0  0  0  0
    7.3150  -13.6440   19.5280 C   0  0  0  0  0  0  0  0  0  0  0  0
    8.4414  -12.6390   19.4186 C   0  0  0  0  0  0  0  0  0  0  0  0
    9.4653  -13.4892   18.6456 C   0  0  1  0  0  0  0  0  0  0  0  0
   10.0246  -14.4513   19.6329 C   0  0  0  0  0  0  0  0  0  0  0  0
    9.4975  -15.6037   19.7836 O   0  0  0  0  0  0  0  0  0  0  0  0
   11.1391  -14.1570   20.4364 N   0  0  0  0  0  0  0  0  0  0  0  0
   12.2578  -15.1309   20.6241 C   0  0  1  0  0  0  0  0  0  0  0  0
   13.5082  -14.4911   20.1174 C   0  0  0  0  0  0  0  0  0  0  0  0
   14.7469  -15.2651   20.2523 C   0  0  0  0  0  0  0  0  0  0  0  0
   15.9947  -14.6461   19.7691 C   0  0  0  0  0  0  0  0  0  0  0  0
   16.0458  -13.5067   19.2078 O   0  0  0  0  0  0  0  0  0  0  0  0
   12.2957  -15.5448   21.9974 C   0  0  0  0  0  0  0  0  0  0  0  0
   13.0223  -16.4818   22.3913 O   0  0  0  0  0  0  0  0  0  0  0  0
   17.1927  -15.3218   19.9227 O   0  0  0  0  0  0  0  0  0  0  0  0
   11.5148  -14.8908   22.9607 O   0  0  0  0  0  0  0  0  0  0  0  0
  2  1  1  6
  3  2  1  0
  4  6  1  0
  4  2  1  0
  4  5  1  6
  6  7  2  0
  8 12  1  0
  8  6  1  0
  9  8  1  0
 10  9  1  0
 10 11  1  0
 11 12  1  0
 12 13  1  1
 13 15  1  0
 13 14  2  0
 15 16  1  0
 16 21  1  0
 16 17  1  1
 18 17  1  0
 19 18  1  0
 20 19  2  0
 21 22  2  0
 21 24  1  0
 23 19  1  0
M  END
$$$$
