TPE.pdb
     RDKit          3D

 24 24  0  0  1  0  0  0  0  0999 V2000
    7.9123  -16.4480   19.3981 C   0  0  0  0  0  0  0  0  0  0  0  0
    8.4719  -15.3681   18.5375 C   0  0  1  0  0  0  0  0  0  0  0  0
    8.0247  -15.3920   17.2272 O   0  0  0  0  0  0  0  0  0  0  0  0
    8.2431  -14.0197   19.1914 C   0  0  2  0  0  0  0  0  0  0  0  0
    8.5016  -12.9663   18.2393 N   0  0  0  0  0  0  0  0  0  0  0  0
    9.0062  -13.8720   20.4499 C   0  0  0  0  0  0  0  0  0  0  0  0
   10.2267  -13.5643   20.3320 O   0  0  0  0  0  0  0  0  0  0  0  0
    8.4312  -14.0565   21.7208 N   0  0  0  0  0  0  0  0  0  0  0  0
    7.0482  -14.3451   21.9949 C   0  0  0  0  0  0  0  0  0  0  0  0
    6.9451  -14.5412   23.5064 C   0  0  0  0  0  0  0  0  0  0  0  0
    8.0536  -13.6431   24.0116 C   0  0  0  0  0  0  0  0  0  0  0  0
    9.1484  -13.9915   22.9875 C   0  0  1  0  0  0  0  0  0  0  0  0
    9.6578  -15.3342   23.3760 C   0  0  0  0  0  0  0  0  0  0  0  0
    8.9651  -16.3808   23.1448 O   0  0  0  0  0  0  0  0  0  0  0  0
   10.9007  -15.5256   24.0028 N   0  0  0  0  0  0  0  0  0  0  0  0
   11.4070  -16.8873   24.3556 C   0  0  1  0  0  0  0  0  0  0  0  0
   12.8991  -16.8317   24.3578 C   0  0  0  0  0  0  0  0  0  0  0  0
   13.5453  -16.4064   23.1114 C   0  0  0  0  0  0  0  0  0  0  0  0
   15.0067  -16.2129   23.1317 C   0  0  0  0  0  0  0  0  0  0  0  0
   15.7089  -16.2513   24.1907 O   0  0  0  0  0  0  0  0  0  0  0  0
   10.8088  -17.3062   25.5907 C   0  0  0  0  0  0  0  0  0  0  0  0
   10.1929  -16.5141   26.3353 O   0  0  0  0  0  0  0  0  0  0  0  0
   15.6775  -15.9746   21.9448 O   0  0  0  0  0  0  0  0  0  0  0  0
   10.8861  -18.6441   26.0024 O   0  0  0  0  0  0  0  0  0  0  0  0
  2  1  1  1
  3  2  1  0
  4  6  1  0
  4  2  1  0
  4  5  1  6
  6  7  2  0
  8 12  1  0
  8  6  1  0
  9  8  1  0
 10  9  1  0
 10 11  1  0
 11 12  1  0
 12 13  1  1
 13 15  1  0
 13 14  2  0
 15 16  1  0
 16 21  1  0
 16 17  1  1
 18 17  1  0
 19 18  1  0
 20 19  2  0
 21 22  2  0
 21 24  1  0
 23 19  1  0
M  END
$$$$
