TPE.pdb
     RDKit          3D

 24 24  0  0  1  0  0  0  0  0999 V2000
    7.1976  -17.2366   17.5318 C   0  0  0  0  0  0  0  0  0  0  0  0
    8.3435  -17.1544   16.5830 C   0  0  1  0  0  0  0  0  0  0  0  0
    8.0806  -17.6663   15.3235 O   0  0  0  0  0  0  0  0  0  0  0  0
    8.8581  -15.7297   16.5212 C   0  0  2  0  0  0  0  0  0  0  0  0
    9.7249  -15.5739   15.3779 N   0  0  0  0  0  0  0  0  0  0  0  0
    9.4838  -15.3058   17.7928 C   0  0  0  0  0  0  0  0  0  0  0  0
   10.6881  -15.6489   17.9660 O   0  0  0  0  0  0  0  0  0  0  0  0
    8.8009  -14.5607   18.7717 N   0  0  0  0  0  0  0  0  0  0  0  0
    7.4534  -14.0645   18.6766 C   0  0  0  0  0  0  0  0  0  0  0  0
    7.1473  -13.4021   20.0188 C   0  0  0  0  0  0  0  0  0  0  0  0
    8.5185  -12.9287   20.4504 C   0  0  0  0  0  0  0  0  0  0  0  0
    9.3472  -14.1666   20.0638 C   0  0  1  0  0  0  0  0  0  0  0  0
    9.0519  -15.1943   21.0982 C   0  0  0  0  0  0  0  0  0  0  0  0
    8.0930  -16.0203   20.9345 O   0  0  0  0  0  0  0  0  0  0  0  0
    9.7932  -15.3150   22.2857 N   0  0  0  0  0  0  0  0  0  0  0  0
   10.4216  -16.6075   22.6977 C   0  0  1  0  0  0  0  0  0  0  0  0
   11.2752  -17.0794   21.5670 C   0  0  0  0  0  0  0  0  0  0  0  0
   11.9930  -18.3432   21.7651 C   0  0  0  0  0  0  0  0  0  0  0  0
   12.8617  -18.8136   20.6707 C   0  0  0  0  0  0  0  0  0  0  0  0
   13.5336  -19.8917   20.7168 O   0  0  0  0  0  0  0  0  0  0  0  0
   11.1064  -16.4212   23.9447 C   0  0  0  0  0  0  0  0  0  0  0  0
   11.1490  -17.3107   24.8211 O   0  0  0  0  0  0  0  0  0  0  0  0
   12.9699  -18.0582   19.5161 O   0  0  0  0  0  0  0  0  0  0  0  0
   11.7728  -15.2187   24.2192 O   0  0  0  0  0  0  0  0  0  0  0  0
  2  1  1  1
  3  2  1  0
  4  6  1  0
  4  2  1  0
  4  5  1  6
  6  7  2  0
  8 12  1  0
  8  6  1  0
  9  8  1  0
 10  9  1  0
 10 11  1  0
 11 12  1  0
 12 13  1  1
 13 15  1  0
 13 14  2  0
 15 16  1  0
 16 21  1  0
 16 17  1  6
 18 17  1  0
 19 18  1  0
 20 19  2  0
 21 22  2  0
 21 24  1  0
 23 19  1  0
M  END
$$$$
