TPE.pdb
     RDKit          3D

 24 24  0  0  1  0  0  0  0  0999 V2000
    6.6680  -15.8019   20.6068 C   0  0  0  0  0  0  0  0  0  0  0  0
    7.5760  -14.9484   19.7901 C   0  0  1  0  0  0  0  0  0  0  0  0
    7.2087  -14.8323   18.4601 O   0  0  0  0  0  0  0  0  0  0  0  0
    7.7436  -13.5955   20.4534 C   0  0  2  0  0  0  0  0  0  0  0  0
    8.2871  -12.6522   19.5058 N   0  0  0  0  0  0  0  0  0  0  0  0
    8.5229  -13.6806   21.7078 C   0  0  0  0  0  0  0  0  0  0  0  0
    9.7784  -13.7598   21.5829 O   0  0  0  0  0  0  0  0  0  0  0  0
    7.9264  -13.6745   22.9822 N   0  0  0  0  0  0  0  0  0  0  0  0
    6.5235  -13.5211   23.2641 C   0  0  0  0  0  0  0  0  0  0  0  0
    6.3738  -13.6710   24.7770 C   0  0  0  0  0  0  0  0  0  0  0  0
    7.7084  -13.1576   25.2727 C   0  0  0  0  0  0  0  0  0  0  0  0
    8.6361  -13.8302   24.2452 C   0  0  1  0  0  0  0  0  0  0  0  0
    8.7082  -15.2634   24.6378 C   0  0  0  0  0  0  0  0  0  0  0  0
    7.8075  -16.0842   24.2589 O   0  0  0  0  0  0  0  0  0  0  0  0
    9.7465  -15.7858   25.4273 N   0  0  0  0  0  0  0  0  0  0  0  0
   10.2135  -17.1989   25.2853 C   0  0  1  0  0  0  0  0  0  0  0  0
   11.4941  -17.1802   24.5176 C   0  0  0  0  0  0  0  0  0  0  0  0
   12.1356  -18.4764   24.2728 C   0  0  0  0  0  0  0  0  0  0  0  0
   13.4200  -18.4765   23.5489 C   0  0  0  0  0  0  0  0  0  0  0  0
   13.9313  -17.4403   23.0191 O   0  0  0  0  0  0  0  0  0  0  0  0
   10.2882  -17.8025   26.5849 C   0  0  0  0  0  0  0  0  0  0  0  0
   10.4900  -17.1327   27.6202 O   0  0  0  0  0  0  0  0  0  0  0  0
   14.1301  -19.6579   23.4242 O   0  0  0  0  0  0  0  0  0  0  0  0
   10.1213  -19.1859   26.7389 O   0  0  0  0  0  0  0  0  0  0  0  0
  2  1  1  1
  3  2  1  0
  4  6  1  0
  4  2  1  0
  4  5  1  6
  6  7  2  0
  8 12  1  0
  8  6  1  0
  9  8  1  0
 10  9  1  0
 10 11  1  0
 11 12  1  0
 12 13  1  1
 13 15  1  0
 13 14  2  0
 15 16  1  0
 16 21  1  0
 16 17  1  1
 18 17  1  0
 19 18  1  0
 20 19  2  0
 21 22  2  0
 21 24  1  0
 23 19  1  0
M  END
$$$$
