TPE.pdb
     RDKit          3D

 24 24  0  0  1  0  0  0  0  0999 V2000
    6.6364  -17.9177   18.8351 C   0  0  0  0  0  0  0  0  0  0  0  0
    7.3327  -17.9070   17.5179 C   0  0  1  0  0  0  0  0  0  0  0  0
    6.6307  -18.5223   16.4952 O   0  0  0  0  0  0  0  0  0  0  0  0
    7.7324  -16.4892   17.1597 C   0  0  2  0  0  0  0  0  0  0  0  0
    8.1798  -16.4408   15.7884 N   0  0  0  0  0  0  0  0  0  0  0  0
    8.7110  -15.9259   18.1154 C   0  0  0  0  0  0  0  0  0  0  0  0
    9.9175  -16.2631   17.9456 O   0  0  0  0  0  0  0  0  0  0  0  0
    8.3475  -15.0600   19.1632 N   0  0  0  0  0  0  0  0  0  0  0  0
    7.0163  -14.6066   19.4689 C   0  0  0  0  0  0  0  0  0  0  0  0
    7.1339  -13.7636   20.7375 C   0  0  0  0  0  0  0  0  0  0  0  0
    8.5364  -13.2088   20.6118 C   0  0  0  0  0  0  0  0  0  0  0  0
    9.2673  -14.4746   20.1298 C   0  0  1  0  0  0  0  0  0  0  0  0
    9.4027  -15.3479   21.3266 C   0  0  0  0  0  0  0  0  0  0  0  0
    8.4168  -16.0510   21.7295 O   0  0  0  0  0  0  0  0  0  0  0  0
   10.5940  -15.4496   22.0647 N   0  0  0  0  0  0  0  0  0  0  0  0
   10.8291  -16.5603   23.0374 C   0  0  1  0  0  0  0  0  0  0  0  0
   12.2761  -16.9232   22.9730 C   0  0  0  0  0  0  0  0  0  0  0  0
   13.2329  -15.8997   23.4073 C   0  0  0  0  0  0  0  0  0  0  0  0
   14.6660  -16.2437   23.3661 C   0  0  0  0  0  0  0  0  0  0  0  0
   15.1060  -17.3992   23.0712 O   0  0  0  0  0  0  0  0  0  0  0  0
   10.3559  -16.1603   24.3316 C   0  0  0  0  0  0  0  0  0  0  0  0
    9.9858  -14.9918   24.5740 O   0  0  0  0  0  0  0  0  0  0  0  0
   15.6070  -15.2725   23.6607 O   0  0  0  0  0  0  0  0  0  0  0  0
   10.2799  -17.0872   25.3806 O   0  0  0  0  0  0  0  0  0  0  0  0
  2  1  1  1
  3  2  1  0
  4  6  1  0
  4  2  1  0
  4  5  1  6
  6  7  2  0
  8 12  1  0
  8  6  1  0
  9  8  1  0
 10  9  1  0
 10 11  1  0
 11 12  1  0
 12 13  1  1
 13 15  1  0
 13 14  2  0
 15 16  1  0
 16 21  1  0
 16 17  1  1
 18 17  1  0
 19 18  1  0
 20 19  2  0
 21 22  2  0
 21 24  1  0
 23 19  1  0
M  END
$$$$
