PLS.pdb
     RDKit          3D

 22 22  0  0  1  0  0  0  0  0999 V2000
    7.3087  -14.8333   20.7442 N   0  0  0  0  0  0  0  0  0  0  0  0
    6.9120  -14.2869   19.4571 C   0  0  0  0  0  0  0  0  0  0  0  0
    7.1295  -12.8055   19.6802 C   0  0  0  0  0  0  0  0  0  0  0  0
    8.4168  -12.7467   20.4900 C   0  0  0  0  0  0  0  0  0  0  0  0
    8.5166  -14.1097   21.0606 C   0  0  1  0  0  0  0  0  0  0  0  0
    8.8526  -14.1596   22.4946 C   0  0  0  0  0  0  0  0  0  0  0  0
   10.0572  -13.9334   22.8069 O   0  0  0  0  0  0  0  0  0  0  0  0
    7.8773  -11.6827   26.2728 C   0  0  0  0  0  0  0  0  0  0  0  0
    6.8112  -12.6204   25.6601 C   0  0  2  0  0  0  0  0  0  0  0  0
    5.5766  -12.3604   26.5210 C   0  0  0  0  0  0  0  0  0  0  0  0
    7.2167  -14.0406   25.8011 C   0  0  0  0  0  0  0  0  0  0  0  0
    8.3311  -14.5152   24.9327 C   0  0  2  0  0  0  0  0  0  0  0  0
    7.9521  -14.4352   23.5289 N   0  0  0  0  0  0  0  0  0  0  0  0
    8.9261  -15.8175   25.2919 C   0  0  0  0  0  0  0  0  0  0  0  0
    9.1429  -16.0269   26.5197 O   0  0  0  0  0  0  0  0  0  0  0  0
   10.2732  -18.5354   22.3274 O   0  0  0  0  0  0  0  0  0  0  0  0
    9.5956  -18.9986   23.4498 C   0  0  0  0  0  0  0  0  0  0  0  0
    9.7665  -18.0715   24.6375 C   0  0  2  0  0  0  0  0  0  0  0  0
    9.2371  -16.7794   24.2944 N   0  0  0  0  0  0  0  0  0  0  0  0
   11.1759  -18.0118   25.0866 C   0  0  0  0  0  0  0  0  0  0  0  0
   11.8240  -16.9391   25.0006 O   0  0  0  0  0  0  0  0  0  0  0  0
   11.8545  -19.0995   25.6153 O   0  0  0  0  0  0  0  0  0  0  0  0
  2  1  1  0
  3  4  1  0
  3  2  1  0
  4  5  1  0
  5  1  1  0
  5  6  1  1
  7  6  2  0
  9  8  1  1
  9 10  1  0
  9 11  1  0
 12 11  1  1
 12 13  1  0
 12 14  1  0
 13  6  1  0
 14 15  2  0
 17 16  1  0
 18 17  1  6
 19 14  1  0
 19 18  1  0
 20 18  1  0
 20 22  1  0
 21 20  2  0
M  END
$$$$
