PLS.pdb
     RDKit          3D

 22 22  0  0  1  0  0  0  0  0999 V2000
    7.6502  -14.8733   20.3497 N   0  0  0  0  0  0  0  0  0  0  0  0
    7.3162  -14.1630   19.1265 C   0  0  0  0  0  0  0  0  0  0  0  0
    7.2550  -12.7324   19.6174 C   0  0  0  0  0  0  0  0  0  0  0  0
    8.4136  -12.6369   20.5998 C   0  0  0  0  0  0  0  0  0  0  0  0
    8.6754  -14.0524   20.9479 C   0  0  1  0  0  0  0  0  0  0  0  0
    8.8497  -14.3159   22.3873 C   0  0  0  0  0  0  0  0  0  0  0  0
    9.9960  -14.6964   22.7633 O   0  0  0  0  0  0  0  0  0  0  0  0
    8.1297  -11.7444   26.3763 C   0  0  0  0  0  0  0  0  0  0  0  0
    6.9349  -12.3408   25.5965 C   0  0  2  0  0  0  0  0  0  0  0  0
    5.7227  -11.8848   26.4062 C   0  0  0  0  0  0  0  0  0  0  0  0
    6.9945  -13.8232   25.5962 C   0  0  0  0  0  0  0  0  0  0  0  0
    8.0660  -14.4569   24.7766 C   0  0  2  0  0  0  0  0  0  0  0  0
    7.8562  -14.1797   23.3624 N   0  0  0  0  0  0  0  0  0  0  0  0
    8.3341  -15.8831   25.0471 C   0  0  0  0  0  0  0  0  0  0  0  0
    7.5911  -16.7241   24.4649 O   0  0  0  0  0  0  0  0  0  0  0  0
   11.4756  -18.8093   24.3551 O   0  0  0  0  0  0  0  0  0  0  0  0
   10.8215  -17.5944   24.5271 C   0  0  0  0  0  0  0  0  0  0  0  0
   10.0109  -17.5637   25.8082 C   0  0  2  0  0  0  0  0  0  0  0  0
    9.3794  -16.2770   25.9241 N   0  0  0  0  0  0  0  0  0  0  0  0
   10.8385  -17.9036   26.9876 C   0  0  0  0  0  0  0  0  0  0  0  0
   11.0290  -17.0553   27.8944 O   0  0  0  0  0  0  0  0  0  0  0  0
   11.4400  -19.1402   27.1663 O   0  0  0  0  0  0  0  0  0  0  0  0
  2  1  1  0
  3  4  1  0
  3  2  1  0
  4  5  1  0
  5  1  1  0
  5  6  1  1
  7  6  2  0
  9  8  1  1
  9 10  1  0
  9 11  1  0
 12 11  1  1
 12 13  1  0
 12 14  1  0
 13  6  1  0
 14 15  2  0
 17 16  1  0
 18 17  1  6
 19 14  1  0
 19 18  1  0
 20 18  1  0
 20 22  1  0
 21 20  2  0
M  END
$$$$
