PLS.pdb
     RDKit          3D

 22 22  0  0  1  0  0  0  0  0999 V2000
    7.0948  -14.8036   20.5479 N   0  0  0  0  0  0  0  0  0  0  0  0
    6.8658  -14.1284   19.2814 C   0  0  0  0  0  0  0  0  0  0  0  0
    7.3450  -12.7276   19.5973 C   0  0  0  0  0  0  0  0  0  0  0  0
    8.5825  -12.9530   20.4542 C   0  0  0  0  0  0  0  0  0  0  0  0
    8.4005  -14.3373   20.9482 C   0  0  1  0  0  0  0  0  0  0  0  0
    8.6556  -14.5215   22.3879 C   0  0  0  0  0  0  0  0  0  0  0  0
    9.8631  -14.6509   22.7418 O   0  0  0  0  0  0  0  0  0  0  0  0
    8.0076  -11.8643   26.2233 C   0  0  0  0  0  0  0  0  0  0  0  0
    6.8172  -12.5480   25.5114 C   0  0  2  0  0  0  0  0  0  0  0  0
    5.6061  -12.0647   26.3067 C   0  0  0  0  0  0  0  0  0  0  0  0
    6.9172  -14.0243   25.6199 C   0  0  0  0  0  0  0  0  0  0  0  0
    7.9719  -14.6924   24.8057 C   0  0  2  0  0  0  0  0  0  0  0  0
    7.6762  -14.5641   23.3856 N   0  0  0  0  0  0  0  0  0  0  0  0
    8.3176  -16.0733   25.1963 C   0  0  0  0  0  0  0  0  0  0  0  0
    7.3878  -16.9288   25.1522 O   0  0  0  0  0  0  0  0  0  0  0  0
   12.1341  -17.5092   24.9877 O   0  0  0  0  0  0  0  0  0  0  0  0
   11.0024  -18.3127   25.0734 C   0  0  0  0  0  0  0  0  0  0  0  0
    9.9729  -17.7413   26.0289 C   0  0  2  0  0  0  0  0  0  0  0  0
    9.6362  -16.4099   25.6024 N   0  0  0  0  0  0  0  0  0  0  0  0
   10.4416  -17.7916   27.4322 C   0  0  0  0  0  0  0  0  0  0  0  0
   10.4332  -16.7546   28.1412 O   0  0  0  0  0  0  0  0  0  0  0  0
   10.9063  -18.9481   28.0400 O   0  0  0  0  0  0  0  0  0  0  0  0
  2  1  1  0
  3  4  1  0
  3  2  1  0
  4  5  1  0
  5  1  1  0
  5  6  1  1
  7  6  2  0
  9  8  1  1
  9 10  1  0
  9 11  1  0
 12 11  1  1
 12 13  1  0
 12 14  1  0
 13  6  1  0
 14 15  2  0
 17 16  1  0
 18 17  1  6
 19 14  1  0
 19 18  1  0
 20 18  1  0
 20 22  1  0
 21 20  2  0
M  END
$$$$
