PLS.pdb
     RDKit          3D

 22 22  0  0  1  0  0  0  0  0999 V2000
    7.4450  -15.4265   20.9246 N   0  0  0  0  0  0  0  0  0  0  0  0
    7.1594  -14.9945   19.5665 C   0  0  0  0  0  0  0  0  0  0  0  0
    7.3991  -13.5034   19.6693 C   0  0  0  0  0  0  0  0  0  0  0  0
    8.6239  -13.3947   20.5662 C   0  0  0  0  0  0  0  0  0  0  0  0
    8.6448  -14.7003   21.2648 C   0  0  1  0  0  0  0  0  0  0  0  0
    8.8720  -14.6231   22.7188 C   0  0  0  0  0  0  0  0  0  0  0  0
   10.0535  -14.3808   23.1000 O   0  0  0  0  0  0  0  0  0  0  0  0
    8.1830  -11.9117   26.2663 C   0  0  0  0  0  0  0  0  0  0  0  0
    6.9792  -12.6761   25.6681 C   0  0  2  0  0  0  0  0  0  0  0  0
    5.7921  -12.1480   26.4711 C   0  0  0  0  0  0  0  0  0  0  0  0
    7.1161  -14.1354   25.8983 C   0  0  0  0  0  0  0  0  0  0  0  0
    8.1781  -14.8446   25.1296 C   0  0  2  0  0  0  0  0  0  0  0  0
    7.8925  -14.7952   23.7025 N   0  0  0  0  0  0  0  0  0  0  0  0
    8.5237  -16.2012   25.5980 C   0  0  0  0  0  0  0  0  0  0  0  0
    7.5885  -17.0515   25.6246 O   0  0  0  0  0  0  0  0  0  0  0  0
   11.2964  -18.3018   24.4670 O   0  0  0  0  0  0  0  0  0  0  0  0
   11.4219  -18.3288   25.8516 C   0  0  0  0  0  0  0  0  0  0  0  0
   10.1762  -17.8106   26.5437 C   0  0  2  0  0  0  0  0  0  0  0  0
    9.8482  -16.5209   25.9987 N   0  0  0  0  0  0  0  0  0  0  0  0
   10.3378  -17.7860   28.0150 C   0  0  0  0  0  0  0  0  0  0  0  0
   10.6467  -18.8331   28.6366 O   0  0  0  0  0  0  0  0  0  0  0  0
   10.1652  -16.6439   28.7822 O   0  0  0  0  0  0  0  0  0  0  0  0
  2  1  1  0
  3  4  1  0
  3  2  1  0
  4  5  1  0
  5  1  1  0
  5  6  1  1
  7  6  2  0
  9  8  1  1
  9 10  1  0
  9 11  1  0
 12 11  1  1
 12 13  1  0
 12 14  1  0
 13  6  1  0
 14 15  2  0
 17 16  1  0
 18 17  1  6
 19 14  1  0
 19 18  1  0
 20 18  1  0
 20 22  1  0
 21 20  2  0
M  END
$$$$
