PLS.pdb
     RDKit          3D

 22 22  0  0  1  0  0  0  0  0999 V2000
    7.4307  -14.9818   20.1639 N   0  0  0  0  0  0  0  0  0  0  0  0
    7.2092  -14.5189   18.8041 C   0  0  0  0  0  0  0  0  0  0  0  0
    7.4015  -13.0256   18.9605 C   0  0  0  0  0  0  0  0  0  0  0  0
    8.5711  -12.9105   19.9275 C   0  0  0  0  0  0  0  0  0  0  0  0
    8.5893  -14.2346   20.5906 C   0  0  1  0  0  0  0  0  0  0  0  0
    8.7332  -14.1930   22.0567 C   0  0  0  0  0  0  0  0  0  0  0  0
    9.9074  -14.0748   22.5120 O   0  0  0  0  0  0  0  0  0  0  0  0
    5.7013  -12.3972   27.0447 C   0  0  0  0  0  0  0  0  0  0  0  0
    6.9543  -13.1337   26.5167 C   0  0  2  0  0  0  0  0  0  0  0  0
    8.0963  -12.1820   26.8676 C   0  0  0  0  0  0  0  0  0  0  0  0
    6.8870  -13.2962   25.0436 C   0  0  0  0  0  0  0  0  0  0  0  0
    7.8661  -14.2316   24.4209 C   0  0  2  0  0  0  0  0  0  0  0  0
    7.6827  -14.2733   22.9768 N   0  0  0  0  0  0  0  0  0  0  0  0
    7.9572  -15.5751   25.0257 C   0  0  0  0  0  0  0  0  0  0  0  0
    6.8801  -16.2290   25.1288 O   0  0  0  0  0  0  0  0  0  0  0  0
   11.2080  -17.8618   24.6209 O   0  0  0  0  0  0  0  0  0  0  0  0
    9.9587  -18.3284   25.0146 C   0  0  0  0  0  0  0  0  0  0  0  0
    9.3071  -17.4131   26.0329 C   0  0  2  0  0  0  0  0  0  0  0  0
    9.2026  -16.0948   25.4684 N   0  0  0  0  0  0  0  0  0  0  0  0
   10.0315  -17.4273   27.3239 C   0  0  0  0  0  0  0  0  0  0  0  0
   10.5295  -16.3694   27.7833 O   0  0  0  0  0  0  0  0  0  0  0  0
   10.2043  -18.5709   28.0888 O   0  0  0  0  0  0  0  0  0  0  0  0
  2  1  1  0
  3  4  1  0
  3  2  1  0
  4  5  1  0
  5  1  1  0
  5  6  1  1
  7  6  2  0
  9  8  1  6
  9 10  1  0
  9 11  1  0
 12 11  1  1
 12 13  1  0
 12 14  1  0
 13  6  1  0
 14 15  2  0
 17 16  1  0
 18 17  1  6
 19 14  1  0
 19 18  1  0
 20 18  1  0
 20 22  1  0
 21 20  2  0
M  END
$$$$
