PLS.pdb
     RDKit          3D

 22 22  0  0  1  0  0  0  0  0999 V2000
    7.2869  -14.6496   20.5515 N   0  0  0  0  0  0  0  0  0  0  0  0
    6.9781  -13.9438   19.3190 C   0  0  0  0  0  0  0  0  0  0  0  0
    7.3980  -12.5320   19.6685 C   0  0  0  0  0  0  0  0  0  0  0  0
    8.6759  -12.7231   20.4728 C   0  0  0  0  0  0  0  0  0  0  0  0
    8.5816  -14.1311   20.9224 C   0  0  1  0  0  0  0  0  0  0  0  0
    8.8983  -14.3514   22.3447 C   0  0  0  0  0  0  0  0  0  0  0  0
   10.1146  -14.5401   22.6361 O   0  0  0  0  0  0  0  0  0  0  0  0
    8.2465  -11.7225   26.1262 C   0  0  0  0  0  0  0  0  0  0  0  0
    7.0515  -12.5220   25.5569 C   0  0  2  0  0  0  0  0  0  0  0  0
    5.8931  -12.1207   26.4679 C   0  0  0  0  0  0  0  0  0  0  0  0
    7.2889  -13.9814   25.6801 C   0  0  0  0  0  0  0  0  0  0  0  0
    8.3225  -14.5763   24.7861 C   0  0  2  0  0  0  0  0  0  0  0  0
    7.9680  -14.3682   23.3891 N   0  0  0  0  0  0  0  0  0  0  0  0
    8.7093  -15.9708   25.0773 C   0  0  0  0  0  0  0  0  0  0  0  0
    7.8926  -16.8731   24.7351 O   0  0  0  0  0  0  0  0  0  0  0  0
   12.0051  -19.2469   25.3279 O   0  0  0  0  0  0  0  0  0  0  0  0
   11.5296  -17.9616   25.0924 C   0  0  0  0  0  0  0  0  0  0  0  0
   10.3433  -17.6259   25.9752 C   0  0  2  0  0  0  0  0  0  0  0  0
    9.9430  -16.2696   25.7142 N   0  0  0  0  0  0  0  0  0  0  0  0
   10.6387  -17.8705   27.4050 C   0  0  0  0  0  0  0  0  0  0  0  0
   10.5663  -16.9322   28.2371 O   0  0  0  0  0  0  0  0  0  0  0  0
   11.0032  -19.1107   27.9070 O   0  0  0  0  0  0  0  0  0  0  0  0
  2  1  1  0
  3  4  1  0
  3  2  1  0
  4  5  1  0
  5  1  1  0
  5  6  1  1
  7  6  2  0
  9  8  1  1
  9 10  1  0
  9 11  1  0
 12 11  1  1
 12 13  1  0
 12 14  1  0
 13  6  1  0
 14 15  2  0
 17 16  1  0
 18 17  1  6
 19 14  1  0
 19 18  1  0
 20 18  1  0
 20 22  1  0
 21 20  2  0
M  END
$$$$
