PLS.pdb
     RDKit          3D

 22 22  0  0  1  0  0  0  0  0999 V2000
    7.1094  -14.8002   20.6361 N   0  0  0  0  0  0  0  0  0  0  0  0
    6.8715  -14.1782   19.3442 C   0  0  0  0  0  0  0  0  0  0  0  0
    7.4065  -12.7820   19.5804 C   0  0  0  0  0  0  0  0  0  0  0  0
    8.6570  -13.0103   20.4175 C   0  0  0  0  0  0  0  0  0  0  0  0
    8.4402  -14.3622   20.9821 C   0  0  1  0  0  0  0  0  0  0  0  0
    8.7254  -14.4867   22.4225 C   0  0  0  0  0  0  0  0  0  0  0  0
    9.9430  -14.5418   22.7608 O   0  0  0  0  0  0  0  0  0  0  0  0
    8.0330  -11.7624   26.1005 C   0  0  0  0  0  0  0  0  0  0  0  0
    6.8547  -12.5561   25.4898 C   0  0  2  0  0  0  0  0  0  0  0  0
    5.6533  -12.0897   26.3096 C   0  0  0  0  0  0  0  0  0  0  0  0
    7.0453  -14.0143   25.6857 C   0  0  0  0  0  0  0  0  0  0  0  0
    8.0862  -14.6785   24.8510 C   0  0  2  0  0  0  0  0  0  0  0  0
    7.7641  -14.5482   23.4368 N   0  0  0  0  0  0  0  0  0  0  0  0
    8.4421  -16.0594   25.2325 C   0  0  0  0  0  0  0  0  0  0  0  0
    7.5115  -16.9149   25.2129 O   0  0  0  0  0  0  0  0  0  0  0  0
   12.4112  -17.2649   25.3023 O   0  0  0  0  0  0  0  0  0  0  0  0
   11.3473  -18.1406   25.1159 C   0  0  0  0  0  0  0  0  0  0  0  0
   10.1370  -17.7454   25.9395 C   0  0  2  0  0  0  0  0  0  0  0  0
    9.7710  -16.3959   25.6038 N   0  0  0  0  0  0  0  0  0  0  0  0
   10.3775  -17.9297   27.3886 C   0  0  0  0  0  0  0  0  0  0  0  0
   10.1984  -16.9768   28.1874 O   0  0  0  0  0  0  0  0  0  0  0  0
   10.8027  -19.1266   27.9449 O   0  0  0  0  0  0  0  0  0  0  0  0
  2  1  1  0
  3  4  1  0
  3  2  1  0
  4  5  1  0
  5  1  1  0
  5  6  1  1
  7  6  2  0
  9  8  1  1
  9 10  1  0
  9 11  1  0
 12 11  1  1
 12 13  1  0
 12 14  1  0
 13  6  1  0
 14 15  2  0
 17 16  1  0
 18 17  1  6
 19 14  1  0
 19 18  1  0
 20 18  1  0
 20 22  1  0
 21 20  2  0
M  END
$$$$
