PLS.pdb
     RDKit          3D

 22 22  0  0  1  0  0  0  0  0999 V2000
    8.5222  -14.8445   20.0689 N   0  0  0  0  0  0  0  0  0  0  0  0
    7.9441  -15.5184   18.9181 C   0  0  0  0  0  0  0  0  0  0  0  0
    7.4740  -16.8177   19.5363 C   0  0  0  0  0  0  0  0  0  0  0  0
    6.9192  -16.3951   20.8891 C   0  0  0  0  0  0  0  0  0  0  0  0
    7.5581  -15.0786   21.1169 C   0  0  1  0  0  0  0  0  0  0  0  0
    8.1227  -14.8872   22.4646 C   0  0  0  0  0  0  0  0  0  0  0  0
    9.3801  -14.9696   22.5739 O   0  0  0  0  0  0  0  0  0  0  0  0
    7.9915  -11.6284   26.0089 C   0  0  0  0  0  0  0  0  0  0  0  0
    6.7584  -12.4954   25.6640 C   0  0  2  0  0  0  0  0  0  0  0  0
    5.6979  -12.0072   26.6489 C   0  0  0  0  0  0  0  0  0  0  0  0
    7.0376  -13.9305   25.9161 C   0  0  0  0  0  0  0  0  0  0  0  0
    7.9537  -14.6189   24.9631 C   0  0  2  0  0  0  0  0  0  0  0  0
    7.3840  -14.6239   23.6229 N   0  0  0  0  0  0  0  0  0  0  0  0
    8.4484  -15.9457   25.3800 C   0  0  0  0  0  0  0  0  0  0  0  0
    7.6233  -16.9026   25.3354 O   0  0  0  0  0  0  0  0  0  0  0  0
   11.6099  -17.4022   24.1945 O   0  0  0  0  0  0  0  0  0  0  0  0
   11.6412  -17.6335   25.5653 C   0  0  0  0  0  0  0  0  0  0  0  0
   10.2855  -17.4137   26.2080 C   0  0  2  0  0  0  0  0  0  0  0  0
    9.7900  -16.1236   25.8108 N   0  0  0  0  0  0  0  0  0  0  0  0
   10.3441  -17.5766   27.6782 C   0  0  0  0  0  0  0  0  0  0  0  0
    9.9686  -16.6467   28.4348 O   0  0  0  0  0  0  0  0  0  0  0  0
   10.8023  -18.7282   28.3002 O   0  0  0  0  0  0  0  0  0  0  0  0
  2  1  1  0
  3  4  1  0
  3  2  1  0
  4  5  1  0
  5  1  1  0
  5  6  1  1
  7  6  2  0
  9  8  1  1
  9 10  1  0
  9 11  1  0
 12 11  1  1
 12 13  1  0
 12 14  1  0
 13  6  1  0
 14 15  2  0
 17 16  1  0
 18 17  1  1
 19 14  1  0
 19 18  1  0
 20 18  1  0
 20 22  1  0
 21 20  2  0
M  END
$$$$
