PLS.pdb
     RDKit          3D

 22 22  0  0  1  0  0  0  0  0999 V2000
    8.7345  -14.9410   20.1482 N   0  0  0  0  0  0  0  0  0  0  0  0
    8.0938  -15.5113   18.9748 C   0  0  0  0  0  0  0  0  0  0  0  0
    7.3637  -16.6931   19.5761 C   0  0  0  0  0  0  0  0  0  0  0  0
    6.8366  -16.1576   20.8997 C   0  0  0  0  0  0  0  0  0  0  0  0
    7.6976  -14.9792   21.1513 C   0  0  1  0  0  0  0  0  0  0  0  0
    8.2267  -14.8781   22.5230 C   0  0  0  0  0  0  0  0  0  0  0  0
    9.4484  -15.1624   22.6861 O   0  0  0  0  0  0  0  0  0  0  0  0
    8.1288  -11.7253   26.2613 C   0  0  0  0  0  0  0  0  0  0  0  0
    6.8589  -12.4864   25.8147 C   0  0  2  0  0  0  0  0  0  0  0  0
    5.7959  -12.0079   26.8015 C   0  0  0  0  0  0  0  0  0  0  0  0
    7.0435  -13.9508   25.9651 C   0  0  0  0  0  0  0  0  0  0  0  0
    7.9806  -14.6154   25.0156 C   0  0  2  0  0  0  0  0  0  0  0  0
    7.4908  -14.4958   23.6494 N   0  0  0  0  0  0  0  0  0  0  0  0
    8.3872  -15.9921   25.3598 C   0  0  0  0  0  0  0  0  0  0  0  0
    7.5142  -16.8963   25.2229 O   0  0  0  0  0  0  0  0  0  0  0  0
   11.8178  -19.1936   25.3262 O   0  0  0  0  0  0  0  0  0  0  0  0
   11.3008  -17.9191   25.1215 C   0  0  0  0  0  0  0  0  0  0  0  0
   10.1421  -17.6213   26.0533 C   0  0  2  0  0  0  0  0  0  0  0  0
    9.6999  -16.2725   25.8236 N   0  0  0  0  0  0  0  0  0  0  0  0
   10.4987  -17.8738   27.4678 C   0  0  0  0  0  0  0  0  0  0  0  0
   10.9227  -19.0016   27.8233 O   0  0  0  0  0  0  0  0  0  0  0  0
   10.3926  -16.9148   28.4638 O   0  0  0  0  0  0  0  0  0  0  0  0
  2  1  1  0
  3  4  1  0
  3  2  1  0
  4  5  1  0
  5  1  1  0
  5  6  1  1
  7  6  2  0
  9  8  1  1
  9 10  1  0
  9 11  1  0
 12 11  1  1
 12 13  1  0
 12 14  1  0
 13  6  1  0
 14 15  2  0
 17 16  1  0
 18 17  1  6
 19 14  1  0
 19 18  1  0
 20 18  1  0
 20 22  1  0
 21 20  2  0
M  END
$$$$
