PLS.pdb
     RDKit          3D

 22 22  0  0  1  0  0  0  0  0999 V2000
    6.9931  -14.6405   20.0354 N   0  0  0  0  0  0  0  0  0  0  0  0
    6.7831  -14.0383   18.7293 C   0  0  0  0  0  0  0  0  0  0  0  0
    7.3849  -12.6642   18.9323 C   0  0  0  0  0  0  0  0  0  0  0  0
    8.6244  -12.9326   19.7738 C   0  0  0  0  0  0  0  0  0  0  0  0
    8.3439  -14.2588   20.3702 C   0  0  1  0  0  0  0  0  0  0  0  0
    8.6254  -14.3630   21.8130 C   0  0  0  0  0  0  0  0  0  0  0  0
    9.8385  -14.4819   22.1510 O   0  0  0  0  0  0  0  0  0  0  0  0
    5.9800  -12.5813   27.0756 C   0  0  0  0  0  0  0  0  0  0  0  0
    7.2315  -13.2107   26.4208 C   0  0  2  0  0  0  0  0  0  0  0  0
    8.3174  -12.1628   26.6566 C   0  0  0  0  0  0  0  0  0  0  0  0
    7.0291  -13.3868   24.9616 C   0  0  0  0  0  0  0  0  0  0  0  0
    7.9886  -14.2766   24.2482 C   0  0  2  0  0  0  0  0  0  0  0  0
    7.6650  -14.3410   22.8298 N   0  0  0  0  0  0  0  0  0  0  0  0
    8.2089  -15.6080   24.8464 C   0  0  0  0  0  0  0  0  0  0  0  0
    7.1929  -16.3481   24.9819 O   0  0  0  0  0  0  0  0  0  0  0  0
   11.7585  -17.3784   24.4851 O   0  0  0  0  0  0  0  0  0  0  0  0
   10.6317  -18.1071   24.8496 C   0  0  0  0  0  0  0  0  0  0  0  0
    9.7379  -17.3319   25.7980 C   0  0  2  0  0  0  0  0  0  0  0  0
    9.5062  -16.0236   25.2481 N   0  0  0  0  0  0  0  0  0  0  0  0
   10.3011  -17.2862   27.1663 C   0  0  0  0  0  0  0  0  0  0  0  0
   10.4634  -16.1851   27.7489 O   0  0  0  0  0  0  0  0  0  0  0  0
   10.6757  -18.4178   27.8749 O   0  0  0  0  0  0  0  0  0  0  0  0
  2  1  1  0
  3  4  1  0
  3  2  1  0
  4  5  1  0
  5  1  1  0
  5  6  1  1
  7  6  2  0
  9  8  1  1
  9 10  1  0
  9 11  1  0
 12 11  1  1
 12 13  1  0
 12 14  1  0
 13  6  1  0
 14 15  2  0
 17 16  1  0
 18 17  1  6
 19 14  1  0
 19 18  1  0
 20 18  1  0
 20 22  1  0
 21 20  2  0
M  END
$$$$
