PLS.pdb
     RDKit          3D

 22 22  0  0  1  0  0  0  0  0999 V2000
    7.1614  -14.7421   20.5670 N   0  0  0  0  0  0  0  0  0  0  0  0
    6.9191  -14.1200   19.2759 C   0  0  0  0  0  0  0  0  0  0  0  0
    7.3954  -12.7058   19.5302 C   0  0  0  0  0  0  0  0  0  0  0  0
    8.6410  -12.8916   20.3849 C   0  0  0  0  0  0  0  0  0  0  0  0
    8.4687  -14.2551   20.9366 C   0  0  1  0  0  0  0  0  0  0  0  0
    8.7367  -14.3794   22.3803 C   0  0  0  0  0  0  0  0  0  0  0  0
    9.9501  -14.4392   22.7327 O   0  0  0  0  0  0  0  0  0  0  0  0
    7.8642  -11.8383   26.3176 C   0  0  0  0  0  0  0  0  0  0  0  0
    6.7344  -12.5961   25.5822 C   0  0  2  0  0  0  0  0  0  0  0  0
    5.4893  -12.2484   26.3956 C   0  0  0  0  0  0  0  0  0  0  0  0
    6.9620  -14.0611   25.6366 C   0  0  0  0  0  0  0  0  0  0  0  0
    8.0670  -14.6056   24.7976 C   0  0  2  0  0  0  0  0  0  0  0  0
    7.7635  -14.4359   23.3834 N   0  0  0  0  0  0  0  0  0  0  0  0
    8.5207  -15.9713   25.1261 C   0  0  0  0  0  0  0  0  0  0  0  0
    7.6863  -16.9061   24.9574 O   0  0  0  0  0  0  0  0  0  0  0  0
   12.0397  -19.0360   24.9737 O   0  0  0  0  0  0  0  0  0  0  0  0
   11.5504  -17.7360   24.9099 C   0  0  0  0  0  0  0  0  0  0  0  0
   10.3354  -17.5437   25.7966 C   0  0  2  0  0  0  0  0  0  0  0  0
    9.8346  -16.2087   25.6101 N   0  0  0  0  0  0  0  0  0  0  0  0
   10.6381  -17.8490   27.2131 C   0  0  0  0  0  0  0  0  0  0  0  0
   11.1165  -18.9656   27.5330 O   0  0  0  0  0  0  0  0  0  0  0  0
   10.4215  -16.9533   28.2494 O   0  0  0  0  0  0  0  0  0  0  0  0
  2  1  1  0
  3  4  1  0
  3  2  1  0
  4  5  1  0
  5  1  1  0
  5  6  1  1
  7  6  2  0
  9  8  1  1
  9 10  1  0
  9 11  1  0
 12 11  1  1
 12 13  1  0
 12 14  1  0
 13  6  1  0
 14 15  2  0
 17 16  1  0
 18 17  1  6
 19 14  1  0
 19 18  1  0
 20 18  1  0
 20 22  1  0
 21 20  2  0
M  END
$$$$
