PLS.pdb
     RDKit          3D

 22 22  0  0  1  0  0  0  0  0999 V2000
    7.0174  -14.6672   20.5805 N   0  0  0  0  0  0  0  0  0  0  0  0
    6.7951  -13.9870   19.3154 C   0  0  0  0  0  0  0  0  0  0  0  0
    7.3540  -12.6119   19.6119 C   0  0  0  0  0  0  0  0  0  0  0  0
    8.5974  -12.8977   20.4418 C   0  0  0  0  0  0  0  0  0  0  0  0
    8.3546  -14.2681   20.9482 C   0  0  1  0  0  0  0  0  0  0  0  0
    8.6327  -14.4584   22.3828 C   0  0  0  0  0  0  0  0  0  0  0  0
    9.8454  -14.5934   22.7163 O   0  0  0  0  0  0  0  0  0  0  0  0
    7.9593  -11.8341   26.2187 C   0  0  0  0  0  0  0  0  0  0  0  0
    6.7666  -12.5606   25.5545 C   0  0  2  0  0  0  0  0  0  0  0  0
    5.5729  -12.1259   26.4024 C   0  0  0  0  0  0  0  0  0  0  0  0
    6.9271  -14.0322   25.6521 C   0  0  0  0  0  0  0  0  0  0  0  0
    7.9874  -14.6544   24.8093 C   0  0  2  0  0  0  0  0  0  0  0  0
    7.6697  -14.5012   23.3964 N   0  0  0  0  0  0  0  0  0  0  0  0
    8.3730  -16.0346   25.1633 C   0  0  0  0  0  0  0  0  0  0  0  0
    7.4684  -16.9152   25.0960 O   0  0  0  0  0  0  0  0  0  0  0  0
   11.6223  -19.3799   24.9636 O   0  0  0  0  0  0  0  0  0  0  0  0
   11.1614  -18.0812   24.7775 C   0  0  0  0  0  0  0  0  0  0  0  0
   10.1146  -17.6988   25.8057 C   0  0  2  0  0  0  0  0  0  0  0  0
    9.7010  -16.3435   25.5611 N   0  0  0  0  0  0  0  0  0  0  0  0
   10.6029  -17.9077   27.1876 C   0  0  0  0  0  0  0  0  0  0  0  0
   10.9610  -19.0503   27.5677 O   0  0  0  0  0  0  0  0  0  0  0  0
   10.6955  -16.8906   28.1256 O   0  0  0  0  0  0  0  0  0  0  0  0
  2  1  1  0
  3  4  1  0
  3  2  1  0
  4  5  1  0
  5  1  1  0
  5  6  1  1
  7  6  2  0
  9  8  1  1
  9 10  1  0
  9 11  1  0
 12 11  1  1
 12 13  1  0
 12 14  1  0
 13  6  1  0
 14 15  2  0
 17 16  1  0
 18 17  1  6
 19 14  1  0
 19 18  1  0
 20 18  1  0
 20 22  1  0
 21 20  2  0
M  END
$$$$
