MMH.pdb
     RDKit          3D

 27 27  0  0  1  0  0  0  0  0999 V2000
    6.9225  -11.1502   26.5684 C   0  0  0  0  0  0  0  0  0  0  0  0
    7.3146  -12.9120   26.6474 S   0  0  0  0  0  0  0  0  0  0  0  0
    6.3038  -13.8975   25.5501 C   0  0  0  0  0  0  0  0  0  0  0  0
    6.4084  -15.3788   25.8312 C   0  0  0  0  0  0  0  0  0  0  0  0
    7.6888  -15.9715   25.2865 C   0  0  2  0  0  0  0  0  0  0  0  0
    8.8303  -15.1177   25.5590 N   0  0  0  0  0  0  0  0  0  0  0  0
    7.6438  -16.2344   23.8438 C   0  0  0  0  0  0  0  0  0  0  0  0
    6.8029  -17.0272   23.3512 O   0  0  0  0  0  0  0  0  0  0  0  0
    8.4485  -11.4363   19.9383 C   0  0  0  0  0  0  0  0  0  0  0  0
    7.0917  -12.6271   19.9077 S   0  0  0  0  0  0  0  0  0  0  0  0
    7.3766  -13.9988   21.0578 C   0  0  0  0  0  0  0  0  0  0  0  0
    8.5641  -14.8365   20.6288 C   0  0  0  0  0  0  0  0  0  0  0  0
    8.7721  -16.0033   21.5993 C   0  0  2  0  0  0  0  0  0  0  0  0
    8.5629  -15.5893   22.9582 N   0  0  0  0  0  0  0  0  0  0  0  0
   10.1088  -16.6059   21.3746 C   0  0  0  0  0  0  0  0  0  0  0  0
   10.5675  -16.5885   20.2056 O   0  0  0  0  0  0  0  0  0  0  0  0
   10.8079  -17.1707   22.4713 N   0  0  0  0  0  0  0  0  0  0  0  0
   12.2784  -17.1575   22.3950 C   0  0  1  0  0  0  0  0  0  0  0  0
   12.6599  -15.7129   22.1865 C   0  0  0  0  0  0  0  0  0  0  0  0
   13.1796  -15.4188   20.8378 C   0  0  0  0  0  0  0  0  0  0  0  0
   12.5287  -15.8547   19.6966 C   0  0  0  0  0  0  0  0  0  0  0  0
   13.2145  -15.4473   18.6156 N   0  0  0  0  0  0  0  0  0  0  0  0
   14.2652  -14.7747   19.0954 C   0  0  0  0  0  0  0  0  0  0  0  0
   14.2516  -14.7528   20.4347 N   0  0  0  0  0  0  0  0  0  0  0  0
   12.7855  -17.7340   23.6414 C   0  0  0  0  0  0  0  0  0  0  0  0
   14.1312  -18.0475   23.7718 O   0  0  0  0  0  0  0  0  0  0  0  0
   12.0766  -17.9884   24.6677 O   0  0  0  0  0  0  0  0  0  0  0  0
  2  1  1  0
  3  4  1  0
  3  2  1  0
  4  5  1  0
  5  6  1  6
  7  8  2  0
  7  5  1  0
 10 11  1  0
 10  9  1  0
 11 12  1  0
 13 12  1  6
 13 14  1  0
 14  7  1  0
 15 17  1  0
 15 13  1  0
 16 15  2  0
 18 25  1  0
 18 17  1  0
 18 19  1  1
 19 20  1  0
 20 24  1  0
 20 21  2  0
 21 22  1  0
 23 22  1  0
 24 23  2  0
 25 26  1  0
 27 25  2  0
M  END
$$$$
