MMH.pdb
     RDKit          3D

 27 27  0  0  1  0  0  0  0  0999 V2000
    8.2991  -20.6139   20.6931 C   0  0  0  0  0  0  0  0  0  0  0  0
    7.3226  -19.1984   20.1389 S   0  0  0  0  0  0  0  0  0  0  0  0
    8.1219  -17.6331   20.4675 C   0  0  0  0  0  0  0  0  0  0  0  0
    7.2160  -16.4498   20.2159 C   0  0  0  0  0  0  0  0  0  0  0  0
    7.9043  -15.1351   20.5081 C   0  0  2  0  0  0  0  0  0  0  0  0
    8.9411  -14.8476   19.5341 N   0  0  0  0  0  0  0  0  0  0  0  0
    8.4997  -15.0719   21.8475 C   0  0  0  0  0  0  0  0  0  0  0  0
    9.7304  -15.2524   22.0234 O   0  0  0  0  0  0  0  0  0  0  0  0
    6.3034  -10.2000   26.6250 C   0  0  0  0  0  0  0  0  0  0  0  0
    6.1547  -11.9983   26.5632 S   0  0  0  0  0  0  0  0  0  0  0  0
    7.2447  -12.7190   25.3070 C   0  0  0  0  0  0  0  0  0  0  0  0
    7.1663  -14.2321   25.3158 C   0  0  0  0  0  0  0  0  0  0  0  0
    8.1862  -14.8247   24.3384 C   0  0  2  0  0  0  0  0  0  0  0  0
    7.6867  -14.8011   22.9924 N   0  0  0  0  0  0  0  0  0  0  0  0
    8.5777  -16.1824   24.7895 C   0  0  0  0  0  0  0  0  0  0  0  0
    8.0362  -17.1640   24.2235 O   0  0  0  0  0  0  0  0  0  0  0  0
    9.5341  -16.3191   25.8274 N   0  0  0  0  0  0  0  0  0  0  0  0
   10.1886  -17.6322   25.9541 C   0  0  1  0  0  0  0  0  0  0  0  0
   11.3356  -17.6088   24.9743 C   0  0  0  0  0  0  0  0  0  0  0  0
   12.2590  -18.7514   25.1051 C   0  0  0  0  0  0  0  0  0  0  0  0
   12.0994  -19.7059   26.0949 C   0  0  0  0  0  0  0  0  0  0  0  0
   13.0716  -20.6260   25.9804 N   0  0  0  0  0  0  0  0  0  0  0  0
   13.8089  -20.2343   24.9365 C   0  0  0  0  0  0  0  0  0  0  0  0
   13.3256  -19.1046   24.4030 N   0  0  0  0  0  0  0  0  0  0  0  0
   10.6007  -17.7818   27.3507 C   0  0  0  0  0  0  0  0  0  0  0  0
   10.2776  -16.8075   28.2848 O   0  0  0  0  0  0  0  0  0  0  0  0
   11.2593  -18.7677   27.8143 O   0  0  0  0  0  0  0  0  0  0  0  0
  2  1  1  0
  3  4  1  0
  3  2  1  0
  4  5  1  0
  5  6  1  6
  7  8  2  0
  7  5  1  0
 10 11  1  0
 10  9  1  0
 11 12  1  0
 13 12  1  1
 13 14  1  0
 14  7  1  0
 15 17  1  0
 15 13  1  0
 16 15  2  0
 18 25  1  0
 18 17  1  0
 18 19  1  6
 19 20  1  0
 20 24  1  0
 20 21  2  0
 21 22  1  0
 23 22  1  0
 24 23  2  0
 25 26  1  0
 27 25  2  0
M  END
$$$$
