MMH.pdb
     RDKit          3D

 27 27  0  0  1  0  0  0  0  0999 V2000
    6.3737  -20.4215   20.8981 C   0  0  0  0  0  0  0  0  0  0  0  0
    7.2617  -19.8977   19.4145 S   0  0  0  0  0  0  0  0  0  0  0  0
    7.6319  -18.1484   19.4090 C   0  0  0  0  0  0  0  0  0  0  0  0
    8.5484  -17.7411   20.5397 C   0  0  0  0  0  0  0  0  0  0  0  0
    8.7566  -16.2439   20.5911 C   0  0  2  0  0  0  0  0  0  0  0  0
    9.7284  -15.8062   19.6061 N   0  0  0  0  0  0  0  0  0  0  0  0
    9.1839  -15.7581   21.9078 C   0  0  0  0  0  0  0  0  0  0  0  0
   10.4004  -15.6183   22.1883 O   0  0  0  0  0  0  0  0  0  0  0  0
    6.1412  -11.0299   26.5187 C   0  0  0  0  0  0  0  0  0  0  0  0
    6.1017  -12.8309   26.3984 S   0  0  0  0  0  0  0  0  0  0  0  0
    7.2394  -13.4437   25.1273 C   0  0  0  0  0  0  0  0  0  0  0  0
    7.3008  -14.9576   25.1301 C   0  0  0  0  0  0  0  0  0  0  0  0
    8.5045  -15.4441   24.3170 C   0  0  2  0  0  0  0  0  0  0  0  0
    8.2180  -15.4295   22.9100 N   0  0  0  0  0  0  0  0  0  0  0  0
    8.9326  -16.7762   24.8093 C   0  0  0  0  0  0  0  0  0  0  0  0
    8.7986  -17.7553   24.0343 O   0  0  0  0  0  0  0  0  0  0  0  0
    9.4686  -16.8926   26.1168 N   0  0  0  0  0  0  0  0  0  0  0  0
   10.5338  -17.8914   26.3078 C   0  0  1  0  0  0  0  0  0  0  0  0
   11.6939  -17.4107   25.4716 C   0  0  0  0  0  0  0  0  0  0  0  0
   11.9918  -18.2694   24.3100 C   0  0  0  0  0  0  0  0  0  0  0  0
   11.2495  -19.4051   24.0357 C   0  0  0  0  0  0  0  0  0  0  0  0
   11.7335  -19.9907   22.9277 N   0  0  0  0  0  0  0  0  0  0  0  0
   12.7538  -19.2207   22.5369 C   0  0  0  0  0  0  0  0  0  0  0  0
   12.9163  -18.1805   23.3652 N   0  0  0  0  0  0  0  0  0  0  0  0
   10.8194  -17.9563   27.7421 C   0  0  0  0  0  0  0  0  0  0  0  0
   10.5491  -16.8684   28.5603 O   0  0  0  0  0  0  0  0  0  0  0  0
   11.3164  -18.9639   28.3410 O   0  0  0  0  0  0  0  0  0  0  0  0
  2  1  1  0
  3  4  1  0
  3  2  1  0
  4  5  1  0
  5  6  1  6
  7  8  2  0
  7  5  1  0
 10 11  1  0
 10  9  1  0
 11 12  1  0
 13 12  1  1
 13 14  1  0
 14  7  1  0
 15 17  1  0
 15 13  1  0
 16 15  2  0
 18 25  1  0
 18 17  1  0
 18 19  1  6
 19 20  1  0
 20 24  1  0
 20 21  2  0
 21 22  1  0
 23 22  1  0
 24 23  2  0
 25 26  1  0
 27 25  2  0
M  END
$$$$
