MMH.pdb
     RDKit          3D

 27 27  0  0  1  0  0  0  0  0999 V2000
    8.0963  -11.5307   19.1231 C   0  0  0  0  0  0  0  0  0  0  0  0
    7.3167  -12.9403   18.3048 S   0  0  0  0  0  0  0  0  0  0  0  0
    7.7154  -14.5007   19.0815 C   0  0  0  0  0  0  0  0  0  0  0  0
    8.3342  -14.3315   20.4500 C   0  0  0  0  0  0  0  0  0  0  0  0
    8.5623  -15.6588   21.1384 C   0  0  2  0  0  0  0  0  0  0  0  0
    7.3326  -16.4219   21.2468 N   0  0  0  0  0  0  0  0  0  0  0  0
    9.1443  -15.5295   22.4789 C   0  0  0  0  0  0  0  0  0  0  0  0
   10.3709  -15.3105   22.6392 O   0  0  0  0  0  0  0  0  0  0  0  0
    6.7399  -10.6923   26.3035 C   0  0  0  0  0  0  0  0  0  0  0  0
    6.8516  -12.4352   26.7613 S   0  0  0  0  0  0  0  0  0  0  0  0
    7.6469  -13.4202   25.4640 C   0  0  0  0  0  0  0  0  0  0  0  0
    7.8444  -14.8551   25.9084 C   0  0  0  0  0  0  0  0  0  0  0  0
    8.8341  -15.5688   24.9822 C   0  0  2  0  0  0  0  0  0  0  0  0
    8.3225  -15.6505   23.6431 N   0  0  0  0  0  0  0  0  0  0  0  0
    9.1842  -16.8927   25.5525 C   0  0  0  0  0  0  0  0  0  0  0  0
    8.3521  -17.8238   25.4192 O   0  0  0  0  0  0  0  0  0  0  0  0
   10.4262  -17.0547   26.2170 N   0  0  0  0  0  0  0  0  0  0  0  0
   10.7726  -18.4200   26.6468 C   0  0  1  0  0  0  0  0  0  0  0  0
   12.2522  -18.5621   26.3892 C   0  0  0  0  0  0  0  0  0  0  0  0
   12.6098  -18.6098   24.9590 C   0  0  0  0  0  0  0  0  0  0  0  0
   11.6450  -18.5800   23.9667 C   0  0  0  0  0  0  0  0  0  0  0  0
   12.2460  -18.6333   22.7664 N   0  0  0  0  0  0  0  0  0  0  0  0
   13.5553  -18.6945   23.0281 C   0  0  0  0  0  0  0  0  0  0  0  0
   13.7832  -18.6808   24.3481 N   0  0  0  0  0  0  0  0  0  0  0  0
   10.3985  -18.5421   28.0567 C   0  0  0  0  0  0  0  0  0  0  0  0
   10.5401  -19.7547   28.7168 O   0  0  0  0  0  0  0  0  0  0  0  0
    9.9328  -17.5970   28.7713 O   0  0  0  0  0  0  0  0  0  0  0  0
  2  1  1  0
  3  4  1  0
  3  2  1  0
  4  5  1  0
  5  6  1  1
  7  8  2  0
  7  5  1  0
 10 11  1  0
 10  9  1  0
 11 12  1  0
 13 12  1  1
 13 14  1  0
 14  7  1  0
 15 17  1  0
 15 13  1  0
 16 15  2  0
 18 25  1  0
 18 17  1  0
 18 19  1  1
 19 20  1  0
 20 24  1  0
 20 21  2  0
 21 22  1  0
 23 22  1  0
 24 23  2  0
 25 26  1  0
 27 25  2  0
M  END
$$$$
