MMH.pdb
     RDKit          3D

 27 27  0  0  1  0  0  0  0  0999 V2000
    7.9556  -11.7598   18.8123 C   0  0  0  0  0  0  0  0  0  0  0  0
    6.6475  -12.9683   19.1167 S   0  0  0  0  0  0  0  0  0  0  0  0
    7.1573  -14.2790   20.2210 C   0  0  0  0  0  0  0  0  0  0  0  0
    8.3741  -15.0237   19.7222 C   0  0  0  0  0  0  0  0  0  0  0  0
    8.8278  -16.0880   20.6964 C   0  0  2  0  0  0  0  0  0  0  0  0
    7.7624  -17.0270   20.9951 N   0  0  0  0  0  0  0  0  0  0  0  0
    9.3320  -15.5447   21.9625 C   0  0  0  0  0  0  0  0  0  0  0  0
   10.3687  -14.8362   22.0016 O   0  0  0  0  0  0  0  0  0  0  0  0
    7.2012  -11.9266   26.7525 C   0  0  0  0  0  0  0  0  0  0  0  0
    6.4573  -13.5448   27.0489 S   0  0  0  0  0  0  0  0  0  0  0  0
    7.0974  -14.7973   25.9056 C   0  0  0  0  0  0  0  0  0  0  0  0
    8.1237  -14.2046   24.9617 C   0  0  0  0  0  0  0  0  0  0  0  0
    9.0778  -15.2930   24.4597 C   0  0  2  0  0  0  0  0  0  0  0  0
    8.6497  -15.8110   23.1908 N   0  0  0  0  0  0  0  0  0  0  0  0
    9.2249  -16.3434   25.4967 C   0  0  0  0  0  0  0  0  0  0  0  0
    8.2234  -17.0577   25.7497 O   0  0  0  0  0  0  0  0  0  0  0  0
   10.4717  -16.4991   26.1537 N   0  0  0  0  0  0  0  0  0  0  0  0
   10.8326  -17.8644   26.5714 C   0  0  1  0  0  0  0  0  0  0  0  0
   12.3339  -17.9426   26.4454 C   0  0  0  0  0  0  0  0  0  0  0  0
   12.9125  -19.2036   26.9461 C   0  0  0  0  0  0  0  0  0  0  0  0
   12.7254  -20.4037   26.2821 C   0  0  0  0  0  0  0  0  0  0  0  0
   13.3588  -21.3809   26.9519 N   0  0  0  0  0  0  0  0  0  0  0  0
   13.9212  -20.7812   28.0058 C   0  0  0  0  0  0  0  0  0  0  0  0
   13.6568  -19.4680   28.0097 N   0  0  0  0  0  0  0  0  0  0  0  0
   10.3386  -18.0481   27.9372 C   0  0  0  0  0  0  0  0  0  0  0  0
   10.3888  -19.2980   28.5382 O   0  0  0  0  0  0  0  0  0  0  0  0
    9.8430  -17.1268   28.6626 O   0  0  0  0  0  0  0  0  0  0  0  0
  2  1  1  0
  3  4  1  0
  3  2  1  0
  4  5  1  0
  5  6  1  1
  7  8  2  0
  7  5  1  0
 10 11  1  0
 10  9  1  0
 11 12  1  0
 13 12  1  1
 13 14  1  0
 14  7  1  0
 15 17  1  0
 15 13  1  0
 16 15  2  0
 18 25  1  0
 18 17  1  0
 18 19  1  1
 19 20  1  0
 20 24  1  0
 20 21  2  0
 21 22  1  0
 23 22  1  0
 24 23  2  0
 25 26  1  0
 27 25  2  0
M  END
$$$$
