MMH.pdb
     RDKit          3D

 27 27  0  0  1  0  0  0  0  0999 V2000
    8.2410  -12.5063   19.6943 C   0  0  0  0  0  0  0  0  0  0  0  0
    6.7629  -13.4686   19.3029 S   0  0  0  0  0  0  0  0  0  0  0  0
    6.9895  -15.2236   19.5598 C   0  0  0  0  0  0  0  0  0  0  0  0
    7.2310  -15.5759   21.0095 C   0  0  0  0  0  0  0  0  0  0  0  0
    8.6935  -15.4765   21.3823 C   0  0  2  0  0  0  0  0  0  0  0  0
    9.5163  -16.3323   20.5476 N   0  0  0  0  0  0  0  0  0  0  0  0
    8.9624  -15.8058   22.7865 C   0  0  0  0  0  0  0  0  0  0  0  0
   10.0431  -16.3432   23.1351 O   0  0  0  0  0  0  0  0  0  0  0  0
    6.4207  -10.5217   26.2532 C   0  0  0  0  0  0  0  0  0  0  0  0
    6.3102  -12.2704   26.6886 S   0  0  0  0  0  0  0  0  0  0  0  0
    7.3707  -13.2932   25.6328 C   0  0  0  0  0  0  0  0  0  0  0  0
    7.2715  -14.7573   26.0100 C   0  0  0  0  0  0  0  0  0  0  0  0
    8.2780  -15.5849   25.2046 C   0  0  2  0  0  0  0  0  0  0  0  0
    7.9933  -15.5203   23.7987 N   0  0  0  0  0  0  0  0  0  0  0  0
    8.3132  -16.9727   25.7273 C   0  0  0  0  0  0  0  0  0  0  0  0
    7.2234  -17.5903   25.8166 O   0  0  0  0  0  0  0  0  0  0  0  0
    9.5572  -17.5412   26.1012 N   0  0  0  0  0  0  0  0  0  0  0  0
    9.5079  -18.8324   26.8077 C   0  0  1  0  0  0  0  0  0  0  0  0
   10.6456  -19.6464   26.2427 C   0  0  0  0  0  0  0  0  0  0  0  0
   10.5229  -19.9273   24.8000 C   0  0  0  0  0  0  0  0  0  0  0  0
    9.3456  -19.6923   24.1108 C   0  0  0  0  0  0  0  0  0  0  0  0
    9.5142  -20.0327   22.8222 N   0  0  0  0  0  0  0  0  0  0  0  0
   10.7750  -20.4673   22.7325 C   0  0  0  0  0  0  0  0  0  0  0  0
   11.3903  -20.4070   23.9209 N   0  0  0  0  0  0  0  0  0  0  0  0
    9.6291  -18.5517   28.2393 C   0  0  0  0  0  0  0  0  0  0  0  0
    9.4870  -19.5732   29.1680 O   0  0  0  0  0  0  0  0  0  0  0  0
    9.8637  -17.4048   28.7394 O   0  0  0  0  0  0  0  0  0  0  0  0
  2  1  1  0
  3  4  1  0
  3  2  1  0
  4  5  1  0
  5  6  1  6
  7  8  2  0
  7  5  1  0
 10 11  1  0
 10  9  1  0
 11 12  1  0
 13 12  1  1
 13 14  1  0
 14  7  1  0
 15 17  1  0
 15 13  1  0
 16 15  2  0
 18 25  1  0
 18 17  1  0
 18 19  1  6
 19 20  1  0
 20 24  1  0
 20 21  2  0
 21 22  1  0
 23 22  1  0
 24 23  2  0
 25 26  1  0
 27 25  2  0
M  END
$$$$
