MMH.pdb
     RDKit          3D

 27 27  0  0  1  0  0  0  0  0999 V2000
    9.0602  -12.0740   18.8580 C   0  0  0  0  0  0  0  0  0  0  0  0
    7.4939  -12.5416   19.6275 S   0  0  0  0  0  0  0  0  0  0  0  0
    7.2226  -14.3089   19.6300 C   0  0  0  0  0  0  0  0  0  0  0  0
    8.5106  -15.0981   19.6808 C   0  0  0  0  0  0  0  0  0  0  0  0
    8.5539  -16.0393   20.8640 C   0  0  2  0  0  0  0  0  0  0  0  0
    7.3547  -16.8529   20.9427 N   0  0  0  0  0  0  0  0  0  0  0  0
    8.7316  -15.3546   22.1493 C   0  0  0  0  0  0  0  0  0  0  0  0
    8.7509  -14.1007   22.2233 O   0  0  0  0  0  0  0  0  0  0  0  0
    6.6366  -12.0880   28.2591 C   0  0  0  0  0  0  0  0  0  0  0  0
    6.4706  -12.8900   26.6500 S   0  0  0  0  0  0  0  0  0  0  0  0
    7.8036  -14.0820   26.3536 C   0  0  0  0  0  0  0  0  0  0  0  0
    7.7437  -14.6321   24.9431 C   0  0  0  0  0  0  0  0  0  0  0  0
    8.9735  -15.4993   24.6563 C   0  0  2  0  0  0  0  0  0  0  0  0
    8.8878  -16.1045   23.3570 N   0  0  0  0  0  0  0  0  0  0  0  0
    9.1512  -16.4882   25.7476 C   0  0  0  0  0  0  0  0  0  0  0  0
    8.1444  -17.1469   26.1076 O   0  0  0  0  0  0  0  0  0  0  0  0
   10.4316  -16.6500   26.3347 N   0  0  0  0  0  0  0  0  0  0  0  0
   10.5791  -17.7464   27.3067 C   0  0  1  0  0  0  0  0  0  0  0  0
   11.8413  -18.4715   26.9103 C   0  0  0  0  0  0  0  0  0  0  0  0
   11.8183  -19.0074   25.5364 C   0  0  0  0  0  0  0  0  0  0  0  0
   11.2115  -20.2150   25.2368 C   0  0  0  0  0  0  0  0  0  0  0  0
   11.3368  -20.4564   23.9212 N   0  0  0  0  0  0  0  0  0  0  0  0
   12.0095  -19.4103   23.4314 C   0  0  0  0  0  0  0  0  0  0  0  0
   12.3037  -18.5318   24.3991 N   0  0  0  0  0  0  0  0  0  0  0  0
   10.6314  -17.1439   28.6399 C   0  0  0  0  0  0  0  0  0  0  0  0
   10.6975  -17.9472   29.7697 O   0  0  0  0  0  0  0  0  0  0  0  0
   10.6215  -15.8927   28.8747 O   0  0  0  0  0  0  0  0  0  0  0  0
  2  1  1  0
  3  4  1  0
  3  2  1  0
  4  5  1  0
  5  6  1  1
  7  8  2  0
  7  5  1  0
 10 11  1  0
 10  9  1  0
 11 12  1  0
 13 12  1  1
 13 14  1  0
 14  7  1  0
 15 17  1  0
 15 13  1  0
 16 15  2  0
 18 25  1  0
 18 17  1  0
 18 19  1  6
 19 20  1  0
 20 24  1  0
 20 21  2  0
 21 22  1  0
 23 22  1  0
 24 23  2  0
 25 26  1  0
 27 25  2  0
M  END
$$$$
