MMH.pdb
     RDKit          3D

 27 27  0  0  1  0  0  0  0  0999 V2000
    8.6292  -11.9384   18.4643 C   0  0  0  0  0  0  0  0  0  0  0  0
    7.1151  -12.5985   19.1963 S   0  0  0  0  0  0  0  0  0  0  0  0
    7.4129  -14.0132   20.2485 C   0  0  0  0  0  0  0  0  0  0  0  0
    8.7588  -14.6542   19.9994 C   0  0  0  0  0  0  0  0  0  0  0  0
    8.9983  -15.8423   20.9041 C   0  0  2  0  0  0  0  0  0  0  0  0
    7.9054  -16.7947   20.8348 N   0  0  0  0  0  0  0  0  0  0  0  0
    9.2013  -15.4750   22.3099 C   0  0  0  0  0  0  0  0  0  0  0  0
   10.2021  -14.8074   22.6718 O   0  0  0  0  0  0  0  0  0  0  0  0
    7.6762  -12.0016   28.3739 C   0  0  0  0  0  0  0  0  0  0  0  0
    7.4876  -12.6236   26.6894 S   0  0  0  0  0  0  0  0  0  0  0  0
    7.2952  -14.4257   26.6571 C   0  0  0  0  0  0  0  0  0  0  0  0
    7.0896  -14.9299   25.2432 C   0  0  0  0  0  0  0  0  0  0  0  0
    8.3883  -15.5316   24.6974 C   0  0  2  0  0  0  0  0  0  0  0  0
    8.2573  -15.8713   23.3084 N   0  0  0  0  0  0  0  0  0  0  0  0
    8.7977  -16.6811   25.5408 C   0  0  0  0  0  0  0  0  0  0  0  0
    7.9337  -17.5572   25.7923 O   0  0  0  0  0  0  0  0  0  0  0  0
   10.1290  -16.7466   26.0245 N   0  0  0  0  0  0  0  0  0  0  0  0
   10.5013  -17.9592   26.7727 C   0  0  1  0  0  0  0  0  0  0  0  0
   11.9102  -18.2838   26.3419 C   0  0  0  0  0  0  0  0  0  0  0  0
   12.0025  -18.8867   24.9990 C   0  0  0  0  0  0  0  0  0  0  0  0
   10.8750  -19.1448   24.2386 C   0  0  0  0  0  0  0  0  0  0  0  0
   11.2481  -19.6885   23.0681 N   0  0  0  0  0  0  0  0  0  0  0  0
   12.5819  -19.7585   23.1192 C   0  0  0  0  0  0  0  0  0  0  0  0
   13.0448  -19.2770   24.2804 N   0  0  0  0  0  0  0  0  0  0  0  0
   10.3697  -17.6507   28.1976 C   0  0  0  0  0  0  0  0  0  0  0  0
   10.0223  -16.3714   28.6084 O   0  0  0  0  0  0  0  0  0  0  0  0
   10.5522  -18.4835   29.1431 O   0  0  0  0  0  0  0  0  0  0  0  0
  2  1  1  0
  3  4  1  0
  3  2  1  0
  4  5  1  0
  5  6  1  1
  7  8  2  0
  7  5  1  0
 10 11  1  0
 10  9  1  0
 11 12  1  0
 13 12  1  1
 13 14  1  0
 14  7  1  0
 15 17  1  0
 15 13  1  0
 16 15  2  0
 18 25  1  0
 18 17  1  0
 18 19  1  1
 19 20  1  0
 20 24  1  0
 20 21  2  0
 21 22  1  0
 23 22  1  0
 24 23  2  0
 25 26  1  0
 27 25  2  0
M  END
$$$$
