MMH.pdb
     RDKit          3D

 27 27  0  0  1  0  0  0  0  0999 V2000
    8.4256  -11.7395   19.5002 C   0  0  0  0  0  0  0  0  0  0  0  0
    7.1749  -13.0316   19.3260 S   0  0  0  0  0  0  0  0  0  0  0  0
    7.3738  -14.3541   20.5129 C   0  0  0  0  0  0  0  0  0  0  0  0
    8.6375  -15.1530   20.2917 C   0  0  0  0  0  0  0  0  0  0  0  0
    8.8357  -16.2090   21.3562 C   0  0  2  0  0  0  0  0  0  0  0  0
    7.6197  -16.9661   21.5896 N   0  0  0  0  0  0  0  0  0  0  0  0
    9.2944  -15.6663   22.6397 C   0  0  0  0  0  0  0  0  0  0  0  0
   10.3942  -15.0673   22.7390 O   0  0  0  0  0  0  0  0  0  0  0  0
    6.3986  -11.9307   27.3430 C   0  0  0  0  0  0  0  0  0  0  0  0
    5.7118  -12.7318   25.8779 S   0  0  0  0  0  0  0  0  0  0  0  0
    6.9799  -13.6363   24.9509 C   0  0  0  0  0  0  0  0  0  0  0  0
    7.6569  -14.6766   25.8198 C   0  0  0  0  0  0  0  0  0  0  0  0
    8.8684  -15.2707   25.0945 C   0  0  2  0  0  0  0  0  0  0  0  0
    8.4940  -15.8073   23.8164 N   0  0  0  0  0  0  0  0  0  0  0  0
    9.5345  -16.2657   25.9701 C   0  0  0  0  0  0  0  0  0  0  0  0
    9.7824  -15.9277   27.1540 O   0  0  0  0  0  0  0  0  0  0  0  0
    9.8617  -17.5417   25.4456 N   0  0  0  0  0  0  0  0  0  0  0  0
   10.6556  -18.4288   26.3124 C   0  0  1  0  0  0  0  0  0  0  0  0
    9.9637  -19.7685   26.2627 C   0  0  0  0  0  0  0  0  0  0  0  0
    8.6043  -19.7626   26.8351 C   0  0  0  0  0  0  0  0  0  0  0  0
    8.3911  -19.7380   28.2026 C   0  0  0  0  0  0  0  0  0  0  0  0
    7.0693  -19.7359   28.4423 N   0  0  0  0  0  0  0  0  0  0  0  0
    6.4907  -19.7588   27.2375 C   0  0  0  0  0  0  0  0  0  0  0  0
    7.4095  -19.7750   26.2628 N   0  0  0  0  0  0  0  0  0  0  0  0
   12.0221  -18.4437   25.7874 C   0  0  0  0  0  0  0  0  0  0  0  0
   13.0039  -19.2010   26.4108 O   0  0  0  0  0  0  0  0  0  0  0  0
   12.4163  -17.7973   24.7640 O   0  0  0  0  0  0  0  0  0  0  0  0
  2  1  1  0
  3  4  1  0
  3  2  1  0
  4  5  1  0
  5  6  1  1
  7  8  2  0
  7  5  1  0
 10 11  1  0
 10  9  1  0
 11 12  1  0
 13 12  1  1
 13 14  1  0
 14  7  1  0
 15 17  1  0
 15 13  1  0
 16 15  2  0
 18 25  1  0
 18 17  1  0
 18 19  1  6
 19 20  1  0
 20 24  1  0
 20 21  2  0
 21 22  1  0
 23 22  1  0
 24 23  2  0
 25 26  1  0
 27 25  2  0
M  END
$$$$
