MMH.pdb
     RDKit          3D

 27 27  0  0  1  0  0  0  0  0999 V2000
    6.7455  -12.3495   19.2898 C   0  0  0  0  0  0  0  0  0  0  0  0
    8.4965  -12.6867   18.9992 S   0  0  0  0  0  0  0  0  0  0  0  0
    9.0891  -14.1085   19.9071 C   0  0  0  0  0  0  0  0  0  0  0  0
    7.9732  -15.0280   20.3471 C   0  0  0  0  0  0  0  0  0  0  0  0
    8.4922  -16.2275   21.1083 C   0  0  2  0  0  0  0  0  0  0  0  0
    7.4676  -17.2430   21.2668 N   0  0  0  0  0  0  0  0  0  0  0  0
    9.0199  -15.8938   22.4359 C   0  0  0  0  0  0  0  0  0  0  0  0
   10.2390  -15.6456   22.6099 O   0  0  0  0  0  0  0  0  0  0  0  0
    7.7000  -11.0482   26.9292 C   0  0  0  0  0  0  0  0  0  0  0  0
    6.5670  -12.3348   26.3629 S   0  0  0  0  0  0  0  0  0  0  0  0
    7.3481  -13.4294   25.1475 C   0  0  0  0  0  0  0  0  0  0  0  0
    7.5516  -14.8203   25.7131 C   0  0  0  0  0  0  0  0  0  0  0  0
    8.6119  -15.5748   24.9049 C   0  0  2  0  0  0  0  0  0  0  0  0
    8.1519  -15.8427   23.5714 N   0  0  0  0  0  0  0  0  0  0  0  0
    9.0180  -16.7994   25.6368 C   0  0  0  0  0  0  0  0  0  0  0  0
    8.1826  -17.7334   25.7199 O   0  0  0  0  0  0  0  0  0  0  0  0
   10.3144  -16.8685   26.2069 N   0  0  0  0  0  0  0  0  0  0  0  0
   10.7189  -18.1662   26.7735 C   0  0  1  0  0  0  0  0  0  0  0  0
   12.1886  -18.3033   26.4620 C   0  0  0  0  0  0  0  0  0  0  0  0
   12.4769  -18.5844   25.0431 C   0  0  0  0  0  0  0  0  0  0  0  0
   11.4643  -18.7369   24.1116 C   0  0  0  0  0  0  0  0  0  0  0  0
   12.0070  -18.9811   22.9072 N   0  0  0  0  0  0  0  0  0  0  0  0
   13.3287  -18.9766   23.1066 C   0  0  0  0  0  0  0  0  0  0  0  0
   13.6204  -18.7381   24.3921 N   0  0  0  0  0  0  0  0  0  0  0  0
   10.4135  -18.1319   28.2048 C   0  0  0  0  0  0  0  0  0  0  0  0
    9.8650  -16.9927   28.7771 O   0  0  0  0  0  0  0  0  0  0  0  0
   10.6123  -19.0933   29.0153 O   0  0  0  0  0  0  0  0  0  0  0  0
  2  1  1  0
  3  4  1  0
  3  2  1  0
  4  5  1  0
  5  6  1  1
  7  8  2  0
  7  5  1  0
 10 11  1  0
 10  9  1  0
 11 12  1  0
 13 12  1  1
 13 14  1  0
 14  7  1  0
 15 17  1  0
 15 13  1  0
 16 15  2  0
 18 25  1  0
 18 17  1  0
 18 19  1  1
 19 20  1  0
 20 24  1  0
 20 21  2  0
 21 22  1  0
 23 22  1  0
 24 23  2  0
 25 26  1  0
 27 25  2  0
M  END
$$$$
