MMH.pdb
     RDKit          3D

 27 27  0  0  1  0  0  0  0  0999 V2000
    8.0656  -14.8236   16.7499 C   0  0  0  0  0  0  0  0  0  0  0  0
    8.0730  -13.2342   17.6090 S   0  0  0  0  0  0  0  0  0  0  0  0
    7.1530  -13.2700   19.1418 C   0  0  0  0  0  0  0  0  0  0  0  0
    8.0467  -13.2621   20.3606 C   0  0  0  0  0  0  0  0  0  0  0  0
    8.2918  -14.6558   20.8944 C   0  0  2  0  0  0  0  0  0  0  0  0
    7.0817  -15.4566   20.8712 N   0  0  0  0  0  0  0  0  0  0  0  0
    8.8297  -14.6728   22.2593 C   0  0  0  0  0  0  0  0  0  0  0  0
    9.9934  -14.2694   22.5069 O   0  0  0  0  0  0  0  0  0  0  0  0
    6.5903  -10.7411   27.0288 C   0  0  0  0  0  0  0  0  0  0  0  0
    6.8349  -12.5248   27.1658 S   0  0  0  0  0  0  0  0  0  0  0  0
    7.3122  -13.2605   25.5795 C   0  0  0  0  0  0  0  0  0  0  0  0
    7.4845  -14.7609   25.7006 C   0  0  0  0  0  0  0  0  0  0  0  0
    8.5246  -15.2613   24.6934 C   0  0  2  0  0  0  0  0  0  0  0  0
    8.0356  -15.1522   23.3477 N   0  0  0  0  0  0  0  0  0  0  0  0
    8.9411  -16.6394   25.0506 C   0  0  0  0  0  0  0  0  0  0  0  0
    8.0796  -17.5494   24.9671 O   0  0  0  0  0  0  0  0  0  0  0  0
   10.2760  -16.8742   25.4670 N   0  0  0  0  0  0  0  0  0  0  0  0
   10.6459  -18.2726   25.7429 C   0  0  1  0  0  0  0  0  0  0  0  0
   12.1014  -18.3886   25.3633 C   0  0  0  0  0  0  0  0  0  0  0  0
   12.3698  -18.1409   23.9343 C   0  0  0  0  0  0  0  0  0  0  0  0
   11.5544  -18.6559   22.9413 C   0  0  0  0  0  0  0  0  0  0  0  0
   12.0266  -18.2759   21.7424 N   0  0  0  0  0  0  0  0  0  0  0  0
   13.1120  -17.5416   22.0057 C   0  0  0  0  0  0  0  0  0  0  0  0
   13.3259  -17.4553   23.3253 N   0  0  0  0  0  0  0  0  0  0  0  0
   10.3775  -18.5239   27.1598 C   0  0  0  0  0  0  0  0  0  0  0  0
   10.5087  -19.8032   27.6817 O   0  0  0  0  0  0  0  0  0  0  0  0
   10.0176  -17.6388   28.0012 O   0  0  0  0  0  0  0  0  0  0  0  0
  2  1  1  0
  3  4  1  0
  3  2  1  0
  4  5  1  0
  5  6  1  1
  7  8  2  0
  7  5  1  0
 10 11  1  0
 10  9  1  0
 11 12  1  0
 13 12  1  1
 13 14  1  0
 14  7  1  0
 15 17  1  0
 15 13  1  0
 16 15  2  0
 18 25  1  0
 18 17  1  0
 18 19  1  1
 19 20  1  0
 20 24  1  0
 20 21  2  0
 21 22  1  0
 23 22  1  0
 24 23  2  0
 25 26  1  0
 27 25  2  0
M  END
$$$$
