VSS.pdb
     RDKit          3D

 20 19  0  0  1  0  0  0  0  0999 V2000
   20.9809   -9.2336  -18.8443 C   0  0  0  0  0  0  0  0  0  0  0  0
   19.8224  -10.1955  -18.6273 C   0  0  1  0  0  0  0  0  0  0  0  0
   20.0067  -11.4478  -19.4392 C   0  0  0  0  0  0  0  0  0  0  0  0
   19.7409  -10.4563  -17.1457 C   0  0  2  0  0  0  0  0  0  0  0  0
   18.5899  -11.3035  -16.8986 N   0  0  0  0  0  0  0  0  0  0  0  0
   19.6462   -9.1891  -16.3656 C   0  0  0  0  0  0  0  0  0  0  0  0
   18.6621   -8.4514  -16.5593 O   0  0  0  0  0  0  0  0  0  0  0  0
   20.4405   -8.4905  -12.4025 O   0  0  0  0  0  0  0  0  0  0  0  0
   21.2149   -7.7758  -13.3045 C   0  0  0  0  0  0  0  0  0  0  0  0
   20.6157   -7.6565  -14.6552 C   0  0  2  0  0  0  0  0  0  0  0  0
   20.6534   -8.8496  -15.4367 N   0  0  0  0  0  0  0  0  0  0  0  0
   21.0692   -6.4285  -15.3946 C   0  0  0  0  0  0  0  0  0  0  0  0
   22.0112   -6.4378  -16.2082 O   0  0  0  0  0  0  0  0  0  0  0  0
   18.6288   -3.1852  -15.0232 O   0  0  0  0  0  0  0  0  0  0  0  0
   19.3805   -3.3366  -16.1860 C   0  0  0  0  0  0  0  0  0  0  0  0
   20.7140   -4.0020  -15.8255 C   0  0  2  0  0  0  0  0  0  0  0  0
   20.3633   -5.2259  -15.1235 N   0  0  0  0  0  0  0  0  0  0  0  0
   21.4926   -3.1498  -14.9135 C   0  0  0  0  0  0  0  0  0  0  0  0
   21.9681   -1.9351  -15.3483 O   0  0  0  0  0  0  0  0  0  0  0  0
   21.7347   -3.5093  -13.7377 O   0  0  0  0  0  0  0  0  0  0  0  0
  2  1  1  1
  2  4  1  0
  3  2  1  0
  4  5  1  6
  6 11  1  0
  6  4  1  0
  7  6  2  0
 10  9  1  1
  9  8  1  0
 10 12  1  0
 10 11  1  0
 12 17  1  0
 13 12  2  0
 15 14  1  0
 16 18  1  0
 16 15  1  1
 17 16  1  0
 18 19  1  0
 20 18  2  0
M  END
$$$$
