VSS.pdb
     RDKit          3D

 20 19  0  0  1  0  0  0  0  0999 V2000
   18.4372  -13.3192  -18.9925 C   0  0  0  0  0  0  0  0  0  0  0  0
   18.2380  -11.8819  -18.5353 C   0  0  1  0  0  0  0  0  0  0  0  0
   16.9811  -11.7483  -17.7205 C   0  0  0  0  0  0  0  0  0  0  0  0
   19.4794  -11.4865  -17.7787 C   0  0  2  0  0  0  0  0  0  0  0  0
   19.6971  -12.4609  -16.7267 N   0  0  0  0  0  0  0  0  0  0  0  0
   19.3687  -10.1104  -17.2151 C   0  0  0  0  0  0  0  0  0  0  0  0
   19.3340   -9.1512  -18.0080 O   0  0  0  0  0  0  0  0  0  0  0  0
   18.9683   -9.2480  -12.9072 O   0  0  0  0  0  0  0  0  0  0  0  0
   18.4378   -8.5462  -13.9797 C   0  0  0  0  0  0  0  0  0  0  0  0
   19.2513   -8.6252  -15.2165 C   0  0  2  0  0  0  0  0  0  0  0  0
   19.3059   -9.9177  -15.8182 N   0  0  0  0  0  0  0  0  0  0  0  0
   20.5917   -7.9571  -15.0838 C   0  0  0  0  0  0  0  0  0  0  0  0
   21.6601   -8.5918  -15.0142 O   0  0  0  0  0  0  0  0  0  0  0  0
   23.0366   -4.0544  -15.9643 O   0  0  0  0  0  0  0  0  0  0  0  0
   21.9360   -4.8940  -16.1179 C   0  0  0  0  0  0  0  0  0  0  0  0
   21.8463   -5.8147  -14.8951 C   0  0  2  0  0  0  0  0  0  0  0  0
   20.5931   -6.5372  -15.0407 N   0  0  0  0  0  0  0  0  0  0  0  0
   21.7880   -5.0284  -13.6532 C   0  0  0  0  0  0  0  0  0  0  0  0
   22.9460   -4.7348  -12.9724 O   0  0  0  0  0  0  0  0  0  0  0  0
   20.6961   -4.6159  -13.1971 O   0  0  0  0  0  0  0  0  0  0  0  0
  2  1  1  1
  2  4  1  0
  3  2  1  0
  4  5  1  1
  6 11  1  0
  6  4  1  0
  7  6  2  0
 10  9  1  1
  9  8  1  0
 10 12  1  0
 10 11  1  0
 12 17  1  0
 13 12  2  0
 15 14  1  0
 16 18  1  0
 16 15  1  6
 17 16  1  0
 18 19  1  0
 20 18  2  0
M  END
$$$$
