VSS.pdb
     RDKit          3D

 20 19  0  0  1  0  0  0  0  0999 V2000
   16.9361  -11.0280  -16.2519 C   0  0  0  0  0  0  0  0  0  0  0  0
   18.2408  -11.5598  -16.8258 C   0  0  1  0  0  0  0  0  0  0  0  0
   18.0093  -12.8322  -17.5932 C   0  0  0  0  0  0  0  0  0  0  0  0
   18.8302  -10.4585  -17.6682 C   0  0  2  0  0  0  0  0  0  0  0  0
   19.5600  -11.0684  -18.7633 N   0  0  0  0  0  0  0  0  0  0  0  0
   19.7178   -9.5658  -16.8690 C   0  0  0  0  0  0  0  0  0  0  0  0
   19.2330   -8.9884  -15.8782 O   0  0  0  0  0  0  0  0  0  0  0  0
   24.1970   -7.6882  -16.2974 O   0  0  0  0  0  0  0  0  0  0  0  0
   23.3610   -8.5572  -16.9831 C   0  0  0  0  0  0  0  0  0  0  0  0
   21.9342   -8.4587  -16.5927 C   0  0  2  0  0  0  0  0  0  0  0  0
   21.0687   -9.3909  -17.2391 N   0  0  0  0  0  0  0  0  0  0  0  0
   21.4191   -7.0461  -16.5941 C   0  0  0  0  0  0  0  0  0  0  0  0
   21.0945   -6.4452  -17.6346 O   0  0  0  0  0  0  0  0  0  0  0  0
   19.5150   -5.4698  -13.4030 O   0  0  0  0  0  0  0  0  0  0  0  0
   19.5020   -4.9922  -14.7113 C   0  0  0  0  0  0  0  0  0  0  0  0
   20.9364   -5.0046  -15.2529 C   0  0  2  0  0  0  0  0  0  0  0  0
   21.3133   -6.4066  -15.3300 N   0  0  0  0  0  0  0  0  0  0  0  0
   21.8517   -4.3277  -14.3211 C   0  0  0  0  0  0  0  0  0  0  0  0
   21.6950   -2.9872  -14.0582 O   0  0  0  0  0  0  0  0  0  0  0  0
   22.7803   -4.9513  -13.7559 O   0  0  0  0  0  0  0  0  0  0  0  0
  2  1  1  6
  2  4  1  0
  3  2  1  0
  4  5  1  6
  6 11  1  0
  6  4  1  0
  7  6  2  0
 10  9  1  6
  9  8  1  0
 10 12  1  0
 10 11  1  0
 12 17  1  0
 13 12  2  0
 15 14  1  0
 16 18  1  0
 16 15  1  1
 17 16  1  0
 18 19  1  0
 20 18  2  0
M  END
$$$$
