VSS.pdb
     RDKit          3D

 20 19  0  0  1  0  0  0  0  0999 V2000
   20.5304  -10.5006  -18.3324 C   0  0  0  0  0  0  0  0  0  0  0  0
   20.1879   -9.2009  -17.6197 C   0  0  1  0  0  0  0  0  0  0  0  0
   18.6994   -8.9918  -17.5729 C   0  0  0  0  0  0  0  0  0  0  0  0
   20.8199   -9.2703  -16.2539 C   0  0  2  0  0  0  0  0  0  0  0  0
   20.2562  -10.4077  -15.5523 N   0  0  0  0  0  0  0  0  0  0  0  0
   20.6093   -8.0116  -15.4826 C   0  0  0  0  0  0  0  0  0  0  0  0
   19.6313   -7.9490  -14.7147 O   0  0  0  0  0  0  0  0  0  0  0  0
   22.3154   -4.0734  -13.4500 O   0  0  0  0  0  0  0  0  0  0  0  0
   22.5161   -5.2479  -14.1603 C   0  0  0  0  0  0  0  0  0  0  0  0
   21.3384   -5.6891  -14.9453 C   0  0  2  0  0  0  0  0  0  0  0  0
   21.5037   -6.9296  -15.6305 N   0  0  0  0  0  0  0  0  0  0  0  0
   20.7539   -4.5957  -15.7958 C   0  0  0  0  0  0  0  0  0  0  0  0
   21.2129   -4.2872  -16.9108 O   0  0  0  0  0  0  0  0  0  0  0  0
   16.9816   -3.9945  -16.2090 O   0  0  0  0  0  0  0  0  0  0  0  0
   17.5389   -2.8416  -15.6611 C   0  0  0  0  0  0  0  0  0  0  0  0
   19.0331   -2.8080  -16.0031 C   0  0  2  0  0  0  0  0  0  0  0  0
   19.6281   -3.9106  -15.2655 N   0  0  0  0  0  0  0  0  0  0  0  0
   19.6465   -1.5539  -15.5395 C   0  0  0  0  0  0  0  0  0  0  0  0
   19.2227   -0.3516  -16.0549 O   0  0  0  0  0  0  0  0  0  0  0  0
   20.5554   -1.5563  -14.6767 O   0  0  0  0  0  0  0  0  0  0  0  0
  2  1  1  1
  2  4  1  0
  3  2  1  0
  4  5  1  1
  6 11  1  0
  6  4  1  0
  7  6  2  0
 10  9  1  6
  9  8  1  0
 10 12  1  0
 10 11  1  0
 12 17  1  0
 13 12  2  0
 15 14  1  0
 16 18  1  0
 16 15  1  1
 17 16  1  0
 18 19  1  0
 20 18  2  0
M  END
$$$$
