VSS.pdb
     RDKit          3D

 20 19  0  0  1  0  0  0  0  0999 V2000
   16.3284   -9.7735  -17.8285 C   0  0  0  0  0  0  0  0  0  0  0  0
   17.0923   -8.6132  -17.2084 C   0  0  1  0  0  0  0  0  0  0  0  0
   16.1660   -7.4731  -16.8863 C   0  0  0  0  0  0  0  0  0  0  0  0
   17.8073   -9.1559  -15.9984 C   0  0  2  0  0  0  0  0  0  0  0  0
   16.8411   -9.8680  -15.1841 N   0  0  0  0  0  0  0  0  0  0  0  0
   18.4683   -8.0729  -15.2149 C   0  0  0  0  0  0  0  0  0  0  0  0
   17.7637   -7.3830  -14.4548 O   0  0  0  0  0  0  0  0  0  0  0  0
   21.9811   -8.0039  -13.2249 O   0  0  0  0  0  0  0  0  0  0  0  0
   21.9095   -7.0720  -14.2500 C   0  0  0  0  0  0  0  0  0  0  0  0
   20.5290   -6.7692  -14.6973 C   0  0  2  0  0  0  0  0  0  0  0  0
   19.8561   -7.8491  -15.3428 N   0  0  0  0  0  0  0  0  0  0  0  0
   20.4201   -5.4593  -15.4272 C   0  0  0  0  0  0  0  0  0  0  0  0
   20.4441   -5.3723  -16.6686 O   0  0  0  0  0  0  0  0  0  0  0  0
   18.9620   -0.9565  -14.9697 O   0  0  0  0  0  0  0  0  0  0  0  0
   19.0646   -2.2558  -14.4787 C   0  0  0  0  0  0  0  0  0  0  0  0
   20.1659   -2.9884  -15.2542 C   0  0  2  0  0  0  0  0  0  0  0  0
   20.2844   -4.2941  -14.6259 N   0  0  0  0  0  0  0  0  0  0  0  0
   21.4529   -2.2889  -15.1189 C   0  0  0  0  0  0  0  0  0  0  0  0
   21.7891   -1.2935  -16.0060 O   0  0  0  0  0  0  0  0  0  0  0  0
   22.2579   -2.5824  -14.2044 O   0  0  0  0  0  0  0  0  0  0  0  0
  2  1  1  1
  2  4  1  0
  3  2  1  0
  4  5  1  1
  6 11  1  0
  6  4  1  0
  7  6  2  0
 10  9  1  6
  9  8  1  0
 10 12  1  0
 10 11  1  0
 12 17  1  0
 13 12  2  0
 15 14  1  0
 16 18  1  0
 16 15  1  1
 17 16  1  0
 18 19  1  0
 20 18  2  0
M  END
$$$$
