VSS.pdb
     RDKit          3D

 20 19  0  0  1  0  0  0  0  0999 V2000
   16.0700  -12.3937  -16.5573 C   0  0  0  0  0  0  0  0  0  0  0  0
   17.0089  -11.7138  -15.5721 C   0  0  1  0  0  0  0  0  0  0  0  0
   17.9871  -12.7002  -14.9963 C   0  0  0  0  0  0  0  0  0  0  0  0
   17.6742  -10.5816  -16.3105 C   0  0  2  0  0  0  0  0  0  0  0  0
   18.3533  -11.1335  -17.4671 N   0  0  0  0  0  0  0  0  0  0  0  0
   18.6277   -9.8374  -15.4384 C   0  0  0  0  0  0  0  0  0  0  0  0
   18.1703   -9.2239  -14.4563 O   0  0  0  0  0  0  0  0  0  0  0  0
   22.9577   -9.7350  -16.1596 O   0  0  0  0  0  0  0  0  0  0  0  0
   22.3187   -9.6495  -14.9314 C   0  0  0  0  0  0  0  0  0  0  0  0
   20.9570   -9.0671  -14.9969 C   0  0  2  0  0  0  0  0  0  0  0  0
   20.0083   -9.8384  -15.7322 N   0  0  0  0  0  0  0  0  0  0  0  0
   20.9577   -7.6051  -15.3480 C   0  0  0  0  0  0  0  0  0  0  0  0
   20.5136   -7.1678  -16.4254 O   0  0  0  0  0  0  0  0  0  0  0  0
   19.9667   -3.4731  -14.7032 O   0  0  0  0  0  0  0  0  0  0  0  0
   20.0313   -4.8632  -14.6475 C   0  0  0  0  0  0  0  0  0  0  0  0
   21.5051   -5.2858  -14.6262 C   0  0  2  0  0  0  0  0  0  0  0  0
   21.4977   -6.7184  -14.3784 N   0  0  0  0  0  0  0  0  0  0  0  0
   22.2209   -4.6269  -13.5229 C   0  0  0  0  0  0  0  0  0  0  0  0
   22.7238   -3.3583  -13.6924 O   0  0  0  0  0  0  0  0  0  0  0  0
   22.3846   -5.2011  -12.4210 O   0  0  0  0  0  0  0  0  0  0  0  0
  2  1  1  6
  2  4  1  0
  3  2  1  0
  4  5  1  6
  6 11  1  0
  6  4  1  0
  7  6  2  0
 10  9  1  6
  9  8  1  0
 10 12  1  0
 10 11  1  0
 12 17  1  0
 13 12  2  0
 15 14  1  0
 16 18  1  0
 16 15  1  1
 17 16  1  0
 18 19  1  0
 20 18  2  0
M  END
$$$$
