VSS.pdb
     RDKit          3D

 20 19  0  0  1  0  0  0  0  0999 V2000
   17.4132  -11.2037  -16.5920 C   0  0  0  0  0  0  0  0  0  0  0  0
   17.8667  -10.7853  -15.2014 C   0  0  1  0  0  0  0  0  0  0  0  0
   19.3055  -11.1583  -14.9724 C   0  0  0  0  0  0  0  0  0  0  0  0
   17.6123   -9.3050  -15.0842 C   0  0  2  0  0  0  0  0  0  0  0  0
   18.4280   -8.6265  -16.0732 N   0  0  0  0  0  0  0  0  0  0  0  0
   17.9087   -8.7999  -13.7128 C   0  0  0  0  0  0  0  0  0  0  0  0
   17.2419   -9.2511  -12.7631 O   0  0  0  0  0  0  0  0  0  0  0  0
   20.9747   -6.5851  -10.7226 O   0  0  0  0  0  0  0  0  0  0  0  0
   20.6829   -7.0762  -11.9866 C   0  0  0  0  0  0  0  0  0  0  0  0
   19.2378   -7.3001  -12.2302 C   0  0  2  0  0  0  0  0  0  0  0  0
   18.9210   -7.8365  -13.5138 N   0  0  0  0  0  0  0  0  0  0  0  0
   18.3846   -6.1281  -11.8315 C   0  0  0  0  0  0  0  0  0  0  0  0
   18.2339   -5.1245  -12.5521 O   0  0  0  0  0  0  0  0  0  0  0  0
   14.5788   -4.5019  -10.2635 O   0  0  0  0  0  0  0  0  0  0  0  0
   15.4929   -5.4427  -10.7318 C   0  0  0  0  0  0  0  0  0  0  0  0
   16.8671   -5.1368  -10.1244 C   0  0  2  0  0  0  0  0  0  0  0  0
   17.7392   -6.2118  -10.5687 N   0  0  0  0  0  0  0  0  0  0  0  0
   16.8059   -5.1651   -8.6548 C   0  0  0  0  0  0  0  0  0  0  0  0
   16.0658   -4.2223   -7.9809 O   0  0  0  0  0  0  0  0  0  0  0  0
   17.4192   -6.0375   -7.9966 O   0  0  0  0  0  0  0  0  0  0  0  0
  2  1  1  6
  2  4  1  0
  3  2  1  0
  4  5  1  6
  6 11  1  0
  6  4  1  0
  7  6  2  0
 10  9  1  6
  9  8  1  0
 10 12  1  0
 10 11  1  0
 12 17  1  0
 13 12  2  0
 15 14  1  0
 16 18  1  0
 16 15  1  6
 17 16  1  0
 18 19  1  0
 20 18  2  0
M  END
$$$$
