VSS.pdb
     RDKit          3D

 20 19  0  0  1  0  0  0  0  0999 V2000
   17.9534   -8.7078  -18.1926 C   0  0  0  0  0  0  0  0  0  0  0  0
   17.0487   -9.6546  -17.4183 C   0  0  1  0  0  0  0  0  0  0  0  0
   16.2285  -10.4978  -18.3552 C   0  0  0  0  0  0  0  0  0  0  0  0
   17.9373  -10.4677  -16.5132 C   0  0  2  0  0  0  0  0  0  0  0  0
   17.0930  -11.3150  -15.6929 N   0  0  0  0  0  0  0  0  0  0  0  0
   18.8049   -9.6004  -15.6654 C   0  0  0  0  0  0  0  0  0  0  0  0
   18.2552   -8.7696  -14.9186 O   0  0  0  0  0  0  0  0  0  0  0  0
   23.0372  -10.1843  -15.6062 O   0  0  0  0  0  0  0  0  0  0  0  0
   22.3580   -9.6057  -14.5441 C   0  0  0  0  0  0  0  0  0  0  0  0
   21.0917   -8.9370  -14.9277 C   0  0  2  0  0  0  0  0  0  0  0  0
   20.2093   -9.7304  -15.7199 N   0  0  0  0  0  0  0  0  0  0  0  0
   21.2971   -7.5435  -15.4535 C   0  0  0  0  0  0  0  0  0  0  0  0
   21.1054   -7.2344  -16.6439 O   0  0  0  0  0  0  0  0  0  0  0  0
   20.6909   -3.3120  -15.6620 O   0  0  0  0  0  0  0  0  0  0  0  0
   20.5833   -4.6744  -15.3935 C   0  0  0  0  0  0  0  0  0  0  0  0
   21.9534   -5.1962  -14.9446 C   0  0  2  0  0  0  0  0  0  0  0  0
   21.7286   -6.5672  -14.5162 N   0  0  0  0  0  0  0  0  0  0  0  0
   22.4540   -4.4262  -13.7954 C   0  0  0  0  0  0  0  0  0  0  0  0
   23.0307   -3.1939  -13.9944 O   0  0  0  0  0  0  0  0  0  0  0  0
   22.3658   -4.8722  -12.6276 O   0  0  0  0  0  0  0  0  0  0  0  0
  2  1  1  6
  2  4  1  0
  3  2  1  0
  4  5  1  1
  6 11  1  0
  6  4  1  0
  7  6  2  0
 10  9  1  6
  9  8  1  0
 10 12  1  0
 10 11  1  0
 12 17  1  0
 13 12  2  0
 15 14  1  0
 16 18  1  0
 16 15  1  1
 17 16  1  0
 18 19  1  0
 20 18  2  0
M  END
$$$$
