VSS.pdb
     RDKit          3D

 20 19  0  0  1  0  0  0  0  0999 V2000
   18.0199  -10.6091  -20.7135 C   0  0  0  0  0  0  0  0  0  0  0  0
   18.2765   -9.8379  -19.4276 C   0  0  1  0  0  0  0  0  0  0  0  0
   16.9833   -9.3897  -18.8046 C   0  0  0  0  0  0  0  0  0  0  0  0
   19.0857  -10.7381  -18.5306 C   0  0  2  0  0  0  0  0  0  0  0  0
   18.3516  -11.9762  -18.3516 N   0  0  0  0  0  0  0  0  0  0  0  0
   19.3734  -10.0953  -17.2162 C   0  0  0  0  0  0  0  0  0  0  0  0
   18.4243   -9.9099  -16.4320 O   0  0  0  0  0  0  0  0  0  0  0  0
   22.0229   -9.1289  -13.5001 O   0  0  0  0  0  0  0  0  0  0  0  0
   21.7345   -9.8189  -14.6684 C   0  0  0  0  0  0  0  0  0  0  0  0
   21.0167   -9.0136  -15.6853 C   0  0  2  0  0  0  0  0  0  0  0  0
   20.6914   -9.7132  -16.8855 N   0  0  0  0  0  0  0  0  0  0  0  0
   21.6392   -7.6645  -15.9154 C   0  0  0  0  0  0  0  0  0  0  0  0
   22.5786   -7.4795  -16.7107 O   0  0  0  0  0  0  0  0  0  0  0  0
   20.0639   -4.5397  -16.8312 O   0  0  0  0  0  0  0  0  0  0  0  0
   20.5463   -4.2964  -15.5475 C   0  0  0  0  0  0  0  0  0  0  0  0
   21.7044   -5.2614  -15.2670 C   0  0  2  0  0  0  0  0  0  0  0  0
   21.1003   -6.5804  -15.1722 N   0  0  0  0  0  0  0  0  0  0  0  0
   22.3435   -4.9491  -13.9794 C   0  0  0  0  0  0  0  0  0  0  0  0
   22.2223   -5.8222  -12.9240 O   0  0  0  0  0  0  0  0  0  0  0  0
   23.0024   -3.8950  -13.8208 O   0  0  0  0  0  0  0  0  0  0  0  0
  2  1  1  6
  2  4  1  0
  3  2  1  0
  4  5  1  1
  6 11  1  0
  6  4  1  0
  7  6  2  0
 10  9  1  6
  9  8  1  0
 10 12  1  0
 10 11  1  0
 12 17  1  0
 13 12  2  0
 15 14  1  0
 16 18  1  0
 16 15  1  1
 17 16  1  0
 18 19  1  0
 20 18  2  0
M  END
$$$$
