VSS.pdb
     RDKit          3D

 20 19  0  0  1  0  0  0  0  0999 V2000
   15.4076  -10.6934  -17.1126 C   0  0  0  0  0  0  0  0  0  0  0  0
   15.2967  -12.0633  -16.4603 C   0  0  1  0  0  0  0  0  0  0  0  0
   14.7645  -13.0786  -17.4337 C   0  0  0  0  0  0  0  0  0  0  0  0
   16.6645  -12.4092  -15.9318 C   0  0  2  0  0  0  0  0  0  0  0  0
   16.5393  -13.5809  -15.0861 N   0  0  0  0  0  0  0  0  0  0  0  0
   17.2704  -11.2727  -15.1802 C   0  0  0  0  0  0  0  0  0  0  0  0
   16.7515  -10.9396  -14.0986 O   0  0  0  0  0  0  0  0  0  0  0  0
   20.9107   -8.2887  -14.3081 O   0  0  0  0  0  0  0  0  0  0  0  0
   20.4088   -9.4349  -14.9070 C   0  0  0  0  0  0  0  0  0  0  0  0
   18.9392   -9.4225  -15.1011 C   0  0  2  0  0  0  0  0  0  0  0  0
   18.4016  -10.6032  -15.6948 N   0  0  0  0  0  0  0  0  0  0  0  0
   18.4370   -8.1467  -15.7181 C   0  0  0  0  0  0  0  0  0  0  0  0
   18.5334   -7.8994  -16.9341 O   0  0  0  0  0  0  0  0  0  0  0  0
   16.6303   -5.4943  -13.1262 O   0  0  0  0  0  0  0  0  0  0  0  0
   16.1842   -5.5381  -14.4449 C   0  0  0  0  0  0  0  0  0  0  0  0
   17.3589   -5.9330  -15.3478 C   0  0  2  0  0  0  0  0  0  0  0  0
   17.8319   -7.2099  -14.8382 N   0  0  0  0  0  0  0  0  0  0  0  0
   18.4525   -4.9551  -15.2387 C   0  0  0  0  0  0  0  0  0  0  0  0
   18.2847   -3.6812  -15.7284 O   0  0  0  0  0  0  0  0  0  0  0  0
   19.5444   -5.2596  -14.7045 O   0  0  0  0  0  0  0  0  0  0  0  0
  2  1  1  6
  2  4  1  0
  3  2  1  0
  4  5  1  1
  6 11  1  0
  6  4  1  0
  7  6  2  0
 10  9  1  6
  9  8  1  0
 10 12  1  0
 10 11  1  0
 12 17  1  0
 13 12  2  0
 15 14  1  0
 16 18  1  0
 16 15  1  1
 17 16  1  0
 18 19  1  0
 20 18  2  0
M  END
$$$$
