VSS.pdb
     RDKit          3D

 20 19  0  0  1  0  0  0  0  0999 V2000
   16.6024  -12.0532  -17.6732 C   0  0  0  0  0  0  0  0  0  0  0  0
   17.4442  -11.4872  -16.5395 C   0  0  1  0  0  0  0  0  0  0  0  0
   18.3634  -12.5372  -15.9790 C   0  0  0  0  0  0  0  0  0  0  0  0
   18.1766  -10.2921  -17.0918 C   0  0  2  0  0  0  0  0  0  0  0  0
   18.9506  -10.7267  -18.2388 N   0  0  0  0  0  0  0  0  0  0  0  0
   19.0547   -9.6592  -16.0661 C   0  0  0  0  0  0  0  0  0  0  0  0
   18.5249   -9.2203  -15.0284 O   0  0  0  0  0  0  0  0  0  0  0  0
   22.6221  -10.5841  -14.3949 O   0  0  0  0  0  0  0  0  0  0  0  0
   22.6469   -9.4569  -15.2030 C   0  0  0  0  0  0  0  0  0  0  0  0
   21.3174   -8.8375  -15.4186 C   0  0  2  0  0  0  0  0  0  0  0  0
   20.4468   -9.5682  -16.2811 N   0  0  0  0  0  0  0  0  0  0  0  0
   21.3954   -7.3692  -15.7325 C   0  0  0  0  0  0  0  0  0  0  0  0
   21.6358   -6.9329  -16.8732 O   0  0  0  0  0  0  0  0  0  0  0  0
   19.3092   -4.7702  -13.5518 O   0  0  0  0  0  0  0  0  0  0  0  0
   19.8371   -4.5156  -14.8153 C   0  0  0  0  0  0  0  0  0  0  0  0
   21.2772   -5.0399  -14.8606 C   0  0  2  0  0  0  0  0  0  0  0  0
   21.1779   -6.4750  -14.6503 N   0  0  0  0  0  0  0  0  0  0  0  0
   22.0766   -4.4642  -13.7680 C   0  0  0  0  0  0  0  0  0  0  0  0
   22.5127   -5.2672  -12.7406 O   0  0  0  0  0  0  0  0  0  0  0  0
   22.3720   -3.2464  -13.7522 O   0  0  0  0  0  0  0  0  0  0  0  0
  2  1  1  6
  2  4  1  0
  3  2  1  0
  4  5  1  6
  6 11  1  0
  6  4  1  0
  7  6  2  0
 10  9  1  6
  9  8  1  0
 10 12  1  0
 10 11  1  0
 12 17  1  0
 13 12  2  0
 15 14  1  0
 16 18  1  0
 16 15  1  1
 17 16  1  0
 18 19  1  0
 20 18  2  0
M  END
$$$$
