VSS.pdb
     RDKit          3D

 20 19  0  0  1  0  0  0  0  0999 V2000
   17.8281  -13.3695  -16.1549 C   0  0  0  0  0  0  0  0  0  0  0  0
   18.3839  -12.0274  -15.7029 C   0  0  1  0  0  0  0  0  0  0  0  0
   19.5579  -11.6210  -16.5502 C   0  0  0  0  0  0  0  0  0  0  0  0
   17.2457  -11.0416  -15.7552 C   0  0  2  0  0  0  0  0  0  0  0  0
   16.7214  -11.0280  -17.1075 N   0  0  0  0  0  0  0  0  0  0  0  0
   17.6770   -9.6766  -15.3378 C   0  0  0  0  0  0  0  0  0  0  0  0
   18.1185   -8.9066  -16.2110 O   0  0  0  0  0  0  0  0  0  0  0  0
   18.2771   -8.3795  -11.1344 O   0  0  0  0  0  0  0  0  0  0  0  0
   17.6273   -7.6735  -12.1361 C   0  0  0  0  0  0  0  0  0  0  0  0
   18.0636   -8.0288  -13.5077 C   0  0  2  0  0  0  0  0  0  0  0  0
   17.5810   -9.2835  -13.9855 N   0  0  0  0  0  0  0  0  0  0  0  0
   19.5351   -7.8161  -13.7315 C   0  0  0  0  0  0  0  0  0  0  0  0
   20.3150   -8.7399  -14.0274 O   0  0  0  0  0  0  0  0  0  0  0  0
   22.7142   -5.9828  -15.9155 O   0  0  0  0  0  0  0  0  0  0  0  0
   21.5063   -6.4911  -15.4440 C   0  0  0  0  0  0  0  0  0  0  0  0
   21.3853   -6.1643  -13.9508 C   0  0  2  0  0  0  0  0  0  0  0  0
   20.0142   -6.4863  -13.5898 N   0  0  0  0  0  0  0  0  0  0  0  0
   21.6043   -4.7295  -13.7114 C   0  0  0  0  0  0  0  0  0  0  0  0
   20.5929   -3.8310  -13.9571 O   0  0  0  0  0  0  0  0  0  0  0  0
   22.7027   -4.3032  -13.2843 O   0  0  0  0  0  0  0  0  0  0  0  0
  2  1  1  6
  2  4  1  0
  3  2  1  0
  4  5  1  6
  6 11  1  0
  6  4  1  0
  7  6  2  0
 10  9  1  1
  9  8  1  0
 10 12  1  0
 10 11  1  0
 12 17  1  0
 13 12  2  0
 15 14  1  0
 16 18  1  0
 16 15  1  6
 17 16  1  0
 18 19  1  0
 20 18  2  0
M  END
$$$$
