SAD.pdb
     RDKit          3D

 20 19  0  0  1  0  0  0  0  0999 V2000
   -5.8204  -21.2898   23.3066 O   0  0  0  0  0  0  0  0  0  0  0  0
   -4.5794  -20.8320   23.6824 C   0  0  0  0  0  0  0  0  0  0  0  0
   -3.7688  -22.0419   24.1589 C   0  0  2  0  0  0  0  0  0  0  0  0
   -3.6722  -23.0210   23.1173 N   0  0  0  0  0  0  0  0  0  0  0  0
   -4.3681  -22.6550   25.3565 C   0  0  0  0  0  0  0  0  0  0  0  0
   -5.2307  -23.5525   25.2285 O   0  0  0  0  0  0  0  0  0  0  0  0
   -3.7693  -22.3382   29.0333 C   0  0  0  0  0  0  0  0  0  0  0  0
   -4.5421  -22.8277   27.8500 C   0  0  2  0  0  0  0  0  0  0  0  0
   -3.9820  -22.2430   26.6410 N   0  0  0  0  0  0  0  0  0  0  0  0
   -5.9968  -22.5147   27.9583 C   0  0  0  0  0  0  0  0  0  0  0  0
   -6.3945  -21.4216   27.5246 O   0  0  0  0  0  0  0  0  0  0  0  0
   -6.9336  -23.3991   28.5277 N   0  0  0  0  0  0  0  0  0  0  0  0
   -8.3673  -23.1180   28.6342 C   0  0  1  0  0  0  0  0  0  0  0  0
   -9.1349  -24.3397   29.0163 C   0  0  0  0  0  0  0  0  0  0  0  0
   -9.0807  -25.3623   27.9715 C   0  0  0  0  0  0  0  0  0  0  0  0
   -9.1519  -25.0277   26.7673 O   0  0  0  0  0  0  0  0  0  0  0  0
   -8.5716  -21.9915   29.5991 C   0  0  0  0  0  0  0  0  0  0  0  0
   -9.7236  -21.2253   29.4507 O   0  0  0  0  0  0  0  0  0  0  0  0
   -8.9550  -26.6931   28.2828 O   0  0  0  0  0  0  0  0  0  0  0  0
   -7.7997  -21.6803   30.5233 O   0  0  0  0  0  0  0  0  0  0  0  0
  2  1  1  0
  3  5  1  0
  3  2  1  0
  3  4  1  6
  5  6  2  0
  8  7  1  1
  9  8  1  0
  9  5  1  0
 10 11  2  0
 10  8  1  0
 12 10  1  0
 13 12  1  0
 13 17  1  0
 13 14  1  1
 15 16  2  0
 15 14  1  0
 17 18  1  0
 19 15  1  0
 20 17  2  0
M  END
$$$$
