SAD.pdb
     RDKit          3D

 20 19  0  0  1  0  0  0  0  0999 V2000
    7.6638  -18.0015   20.6341 O   0  0  0  0  0  0  0  0  0  0  0  0
    6.3569  -18.1144   20.2215 C   0  0  0  0  0  0  0  0  0  0  0  0
    6.2217  -17.3372   18.9078 C   0  0  2  0  0  0  0  0  0  0  0  0
    6.4692  -18.1981   17.7894 N   0  0  0  0  0  0  0  0  0  0  0  0
    7.1462  -16.1916   18.8610 C   0  0  0  0  0  0  0  0  0  0  0  0
    8.2295  -16.2933   18.2429 O   0  0  0  0  0  0  0  0  0  0  0  0
    7.0279  -12.6682   20.1063 C   0  0  0  0  0  0  0  0  0  0  0  0
    7.7441  -13.8590   19.5531 C   0  0  2  0  0  0  0  0  0  0  0  0
    6.8251  -14.9860   19.5030 N   0  0  0  0  0  0  0  0  0  0  0  0
    8.9572  -14.2069   20.3488 C   0  0  0  0  0  0  0  0  0  0  0  0
    9.8647  -13.3639   20.4318 O   0  0  0  0  0  0  0  0  0  0  0  0
    9.1178  -15.4424   21.0060 N   0  0  0  0  0  0  0  0  0  0  0  0
   10.2816  -15.7906   21.8246 C   0  0  1  0  0  0  0  0  0  0  0  0
    9.9442  -15.7913   23.2786 C   0  0  0  0  0  0  0  0  0  0  0  0
   11.1126  -16.0925   24.1056 C   0  0  0  0  0  0  0  0  0  0  0  0
   12.2349  -16.2372   23.5702 O   0  0  0  0  0  0  0  0  0  0  0  0
   10.8230  -17.1086   21.3645 C   0  0  0  0  0  0  0  0  0  0  0  0
   10.1109  -17.7807   20.3757 O   0  0  0  0  0  0  0  0  0  0  0  0
   11.0068  -16.2240   25.4678 O   0  0  0  0  0  0  0  0  0  0  0  0
   11.8555  -17.6560   21.7899 O   0  0  0  0  0  0  0  0  0  0  0  0
  2  1  1  0
  3  5  1  0
  3  2  1  0
  3  4  1  6
  5  6  2  0
  8  7  1  1
  9  8  1  0
  9  5  1  0
 10 11  2  0
 10  8  1  0
 12 10  1  0
 13 12  1  0
 13 17  1  0
 13 14  1  1
 15 16  2  0
 15 14  1  0
 17 18  1  0
 19 15  1  0
 20 17  2  0
M  END
$$$$
