SAD.pdb
     RDKit          3D

 20 19  0  0  1  0  0  0  0  0999 V2000
    8.9257  -17.8038   19.3368 O   0  0  0  0  0  0  0  0  0  0  0  0
    7.6530  -17.6035   18.8563 C   0  0  0  0  0  0  0  0  0  0  0  0
    7.7467  -16.5765   17.7229 C   0  0  2  0  0  0  0  0  0  0  0  0
    8.5125  -17.1033   16.6324 N   0  0  0  0  0  0  0  0  0  0  0  0
    8.3521  -15.3161   18.1857 C   0  0  0  0  0  0  0  0  0  0  0  0
    9.5450  -15.0613   17.9062 O   0  0  0  0  0  0  0  0  0  0  0  0
    7.1179  -12.3500   20.0998 C   0  0  0  0  0  0  0  0  0  0  0  0
    8.2032  -13.2221   19.5534 C   0  0  2  0  0  0  0  0  0  0  0  0
    7.6049  -14.3968   18.9376 N   0  0  0  0  0  0  0  0  0  0  0  0
    9.1856  -13.6231   20.6022 C   0  0  0  0  0  0  0  0  0  0  0  0
    9.7489  -12.7266   21.2504 O   0  0  0  0  0  0  0  0  0  0  0  0
    9.5008  -14.9660   20.8877 N   0  0  0  0  0  0  0  0  0  0  0  0
   10.3361  -15.3907   22.0136 C   0  0  1  0  0  0  0  0  0  0  0  0
    9.6294  -16.3880   22.8703 C   0  0  0  0  0  0  0  0  0  0  0  0
   10.4600  -16.8225   23.9934 C   0  0  0  0  0  0  0  0  0  0  0  0
   11.5503  -16.2507   24.2204 O   0  0  0  0  0  0  0  0  0  0  0  0
   11.6360  -15.9129   21.4849 C   0  0  0  0  0  0  0  0  0  0  0  0
   11.5853  -16.7270   20.3575 O   0  0  0  0  0  0  0  0  0  0  0  0
   10.0702  -17.8538   24.8108 O   0  0  0  0  0  0  0  0  0  0  0  0
   12.7591  -15.6820   21.9666 O   0  0  0  0  0  0  0  0  0  0  0  0
  2  1  1  0
  3  5  1  0
  3  2  1  0
  3  4  1  6
  5  6  2  0
  8  7  1  1
  9  8  1  0
  9  5  1  0
 10 11  2  0
 10  8  1  0
 12 10  1  0
 13 12  1  0
 13 17  1  0
 13 14  1  6
 15 16  2  0
 15 14  1  0
 17 18  1  0
 19 15  1  0
 20 17  2  0
M  END
$$$$
