SAD.pdb
     RDKit          3D

 20 19  0  0  1  0  0  0  0  0999 V2000
   -3.3468  -27.8587   27.5148 O   0  0  0  0  0  0  0  0  0  0  0  0
   -3.3492  -26.6531   28.1761 C   0  0  0  0  0  0  0  0  0  0  0  0
   -3.2367  -25.5495   27.1190 C   0  0  2  0  0  0  0  0  0  0  0  0
   -2.0092  -25.6774   26.3910 N   0  0  0  0  0  0  0  0  0  0  0  0
   -3.3108  -24.2101   27.7273 C   0  0  0  0  0  0  0  0  0  0  0  0
   -2.2807  -23.5032   27.7987 O   0  0  0  0  0  0  0  0  0  0  0  0
   -4.0586  -21.4035   27.7771 C   0  0  0  0  0  0  0  0  0  0  0  0
   -4.6652  -22.3659   28.7480 C   0  0  2  0  0  0  0  0  0  0  0  0
   -4.5254  -23.7178   28.2283 N   0  0  0  0  0  0  0  0  0  0  0  0
   -6.0979  -22.0572   29.0271 C   0  0  0  0  0  0  0  0  0  0  0  0
   -6.3721  -20.9577   29.5341 O   0  0  0  0  0  0  0  0  0  0  0  0
   -7.1473  -22.9528   28.7427 N   0  0  0  0  0  0  0  0  0  0  0  0
   -8.3629  -23.0749   29.5509 C   0  0  1  0  0  0  0  0  0  0  0  0
   -9.3902  -23.9137   28.8662 C   0  0  0  0  0  0  0  0  0  0  0  0
  -10.6300  -23.9899   29.6389 C   0  0  0  0  0  0  0  0  0  0  0  0
  -10.7858  -23.2568   30.6416 O   0  0  0  0  0  0  0  0  0  0  0  0
   -7.9976  -23.6099   30.9008 C   0  0  0  0  0  0  0  0  0  0  0  0
   -8.5243  -22.9556   32.0103 O   0  0  0  0  0  0  0  0  0  0  0  0
  -11.6356  -24.8562   29.2891 O   0  0  0  0  0  0  0  0  0  0  0  0
   -7.2630  -24.5898   31.1173 O   0  0  0  0  0  0  0  0  0  0  0  0
  2  1  1  0
  3  5  1  0
  3  2  1  0
  3  4  1  1
  5  6  2  0
  8  7  1  6
  9  8  1  0
  9  5  1  0
 10 11  2  0
 10  8  1  0
 12 10  1  0
 13 12  1  0
 13 17  1  0
 13 14  1  6
 15 16  2  0
 15 14  1  0
 17 18  1  0
 19 15  1  0
 20 17  2  0
M  END
$$$$
