SAD.pdb
     RDKit          3D

 20 19  0  0  1  0  0  0  0  0999 V2000
    7.8219  -16.9381   14.3155 O   0  0  0  0  0  0  0  0  0  0  0  0
    7.9125  -16.5483   15.6310 C   0  0  0  0  0  0  0  0  0  0  0  0
    7.9782  -15.0175   15.6526 C   0  0  2  0  0  0  0  0  0  0  0  0
    8.7461  -14.5340   14.5436 N   0  0  0  0  0  0  0  0  0  0  0  0
    8.5627  -14.5202   16.9098 C   0  0  0  0  0  0  0  0  0  0  0  0
    9.8051  -14.5208   17.0594 O   0  0  0  0  0  0  0  0  0  0  0  0
    7.1484  -13.1436   20.0908 C   0  0  0  0  0  0  0  0  0  0  0  0
    8.2595  -13.6978   19.2570 C   0  0  2  0  0  0  0  0  0  0  0  0
    7.7404  -14.0455   17.9429 N   0  0  0  0  0  0  0  0  0  0  0  0
    8.9067  -14.8810   19.8948 C   0  0  0  0  0  0  0  0  0  0  0  0
    9.3094  -15.7960   19.1587 O   0  0  0  0  0  0  0  0  0  0  0  0
    9.0797  -15.0057   21.2872 N   0  0  0  0  0  0  0  0  0  0  0  0
    9.9937  -15.9612   21.9177 C   0  0  1  0  0  0  0  0  0  0  0  0
   11.3775  -15.8314   21.3737 C   0  0  0  0  0  0  0  0  0  0  0  0
   11.8869  -17.1100   20.8780 C   0  0  0  0  0  0  0  0  0  0  0  0
   11.2614  -18.1668   21.1212 O   0  0  0  0  0  0  0  0  0  0  0  0
    9.9449  -15.7738   23.4024 C   0  0  0  0  0  0  0  0  0  0  0  0
   10.0750  -16.9111   24.1936 O   0  0  0  0  0  0  0  0  0  0  0  0
   13.0468  -17.1801   20.1476 O   0  0  0  0  0  0  0  0  0  0  0  0
    9.7978  -14.6882   23.9911 O   0  0  0  0  0  0  0  0  0  0  0  0
  2  1  1  0
  3  5  1  0
  3  2  1  0
  3  4  1  6
  5  6  2  0
  8  7  1  1
  9  8  1  0
  9  5  1  0
 10 11  2  0
 10  8  1  0
 12 10  1  0
 13 12  1  0
 13 17  1  0
 13 14  1  6
 15 16  2  0
 15 14  1  0
 17 18  1  0
 19 15  1  0
 20 17  2  0
M  END
$$$$
