SAD.pdb
     RDKit          3D

 20 19  0  0  1  0  0  0  0  0999 V2000
    8.3054  -15.9053   16.0983 O   0  0  0  0  0  0  0  0  0  0  0  0
    8.7698  -15.5859   17.3526 C   0  0  0  0  0  0  0  0  0  0  0  0
    8.0642  -14.2975   17.7889 C   0  0  2  0  0  0  0  0  0  0  0  0
    8.4129  -13.2159   16.9163 N   0  0  0  0  0  0  0  0  0  0  0  0
    8.4043  -13.9395   19.1766 C   0  0  0  0  0  0  0  0  0  0  0  0
    9.3830  -13.1932   19.4028 O   0  0  0  0  0  0  0  0  0  0  0  0
    6.6552  -14.2407   22.4327 C   0  0  0  0  0  0  0  0  0  0  0  0
    7.9010  -14.0445   21.6287 C   0  0  2  0  0  0  0  0  0  0  0  0
    7.6419  -14.4269   20.2489 N   0  0  0  0  0  0  0  0  0  0  0  0
    9.0539  -14.8154   22.1787 C   0  0  0  0  0  0  0  0  0  0  0  0
    9.3869  -14.6102   23.3569 O   0  0  0  0  0  0  0  0  0  0  0  0
    9.7773  -15.7600   21.4247 N   0  0  0  0  0  0  0  0  0  0  0  0
   10.8971  -16.5447   21.9502 C   0  0  1  0  0  0  0  0  0  0  0  0
   12.2093  -15.9516   21.5578 C   0  0  0  0  0  0  0  0  0  0  0  0
   13.3326  -16.7033   22.1175 C   0  0  0  0  0  0  0  0  0  0  0  0
   13.4114  -17.9385   21.9297 O   0  0  0  0  0  0  0  0  0  0  0  0
   10.7490  -16.6694   23.4350 C   0  0  0  0  0  0  0  0  0  0  0  0
   10.4911  -15.5041   24.1505 O   0  0  0  0  0  0  0  0  0  0  0  0
   14.3105  -16.0814   22.8528 O   0  0  0  0  0  0  0  0  0  0  0  0
   10.8368  -17.7257   24.0856 O   0  0  0  0  0  0  0  0  0  0  0  0
  2  1  1  0
  3  5  1  0
  3  2  1  0
  3  4  1  6
  5  6  2  0
  8  7  1  1
  9  8  1  0
  9  5  1  0
 10 11  2  0
 10  8  1  0
 12 10  1  0
 13 12  1  0
 13 17  1  0
 13 14  1  1
 15 16  2  0
 15 14  1  0
 17 18  1  0
 19 15  1  0
 20 17  2  0
M  END
$$$$
