SAD.pdb
     RDKit          3D

 20 19  0  0  1  0  0  0  0  0999 V2000
    9.8152  -18.6769   22.0506 O   0  0  0  0  0  0  0  0  0  0  0  0
    8.9548  -18.3473   21.0299 C   0  0  0  0  0  0  0  0  0  0  0  0
    9.3338  -16.9439   20.5452 C   0  0  2  0  0  0  0  0  0  0  0  0
   10.5215  -16.9947   19.7453 N   0  0  0  0  0  0  0  0  0  0  0  0
    9.5399  -16.0207   21.6742 C   0  0  0  0  0  0  0  0  0  0  0  0
   10.6995  -15.6627   21.9792 O   0  0  0  0  0  0  0  0  0  0  0  0
    7.3178  -13.9490   23.8174 C   0  0  0  0  0  0  0  0  0  0  0  0
    8.6100  -14.6561   23.5585 C   0  0  2  0  0  0  0  0  0  0  0  0
    8.4487  -15.5378   22.4123 N   0  0  0  0  0  0  0  0  0  0  0  0
    9.0805  -15.4238   24.7481 C   0  0  0  0  0  0  0  0  0  0  0  0
    9.2884  -14.8015   25.8020 O   0  0  0  0  0  0  0  0  0  0  0  0
    9.2983  -16.8153   24.7287 N   0  0  0  0  0  0  0  0  0  0  0  0
    9.8332  -17.5775   25.8595 C   0  0  1  0  0  0  0  0  0  0  0  0
    9.4158  -19.0092   25.7975 C   0  0  0  0  0  0  0  0  0  0  0  0
    7.9746  -19.1623   25.9963 C   0  0  0  0  0  0  0  0  0  0  0  0
    7.3445  -18.3151   26.6689 O   0  0  0  0  0  0  0  0  0  0  0  0
   11.3217  -17.4186   25.8925 C   0  0  0  0  0  0  0  0  0  0  0  0
   11.9109  -16.7102   24.8497 O   0  0  0  0  0  0  0  0  0  0  0  0
    7.2901  -20.2242   25.4600 O   0  0  0  0  0  0  0  0  0  0  0  0
   12.0786  -17.8656   26.7722 O   0  0  0  0  0  0  0  0  0  0  0  0
  2  1  1  0
  3  5  1  0
  3  2  1  0
  3  4  1  1
  5  6  2  0
  8  7  1  1
  9  8  1  0
  9  5  1  0
 10 11  2  0
 10  8  1  0
 12 10  1  0
 13 12  1  0
 13 17  1  0
 13 14  1  6
 15 16  2  0
 15 14  1  0
 17 18  1  0
 19 15  1  0
 20 17  2  0
M  END
$$$$
