SAD.pdb
     RDKit          3D

 20 19  0  0  1  0  0  0  0  0999 V2000
    8.3163  -14.1183   16.7306 O   0  0  0  0  0  0  0  0  0  0  0  0
    8.0127  -13.3071   17.7987 C   0  0  0  0  0  0  0  0  0  0  0  0
    9.3163  -13.0433   18.5597 C   0  0  2  0  0  0  0  0  0  0  0  0
   10.4470  -13.3867   17.7493 N   0  0  0  0  0  0  0  0  0  0  0  0
    9.3672  -13.8010   19.8217 C   0  0  0  0  0  0  0  0  0  0  0  0
    9.8730  -14.9455   19.8383 O   0  0  0  0  0  0  0  0  0  0  0  0
    6.9389  -14.4502   21.8299 C   0  0  0  0  0  0  0  0  0  0  0  0
    8.3621  -14.0779   22.1000 C   0  0  2  0  0  0  0  0  0  0  0  0
    8.8538  -13.2529   21.0069 N   0  0  0  0  0  0  0  0  0  0  0  0
    9.2325  -15.2753   22.2855 C   0  0  0  0  0  0  0  0  0  0  0  0
    8.8331  -16.3639   21.8421 O   0  0  0  0  0  0  0  0  0  0  0  0
   10.4799  -15.2259   22.9378 N   0  0  0  0  0  0  0  0  0  0  0  0
   11.3542  -16.3864   23.1245 C   0  0  1  0  0  0  0  0  0  0  0  0
   12.7754  -16.0533   22.8126 C   0  0  0  0  0  0  0  0  0  0  0  0
   12.9604  -15.7430   21.3951 C   0  0  0  0  0  0  0  0  0  0  0  0
   12.3099  -16.3710   20.5293 O   0  0  0  0  0  0  0  0  0  0  0  0
   11.1830  -16.9049   24.5187 C   0  0  0  0  0  0  0  0  0  0  0  0
   11.8709  -18.0664   24.8564 O   0  0  0  0  0  0  0  0  0  0  0  0
   13.8406  -14.7721   20.9872 O   0  0  0  0  0  0  0  0  0  0  0  0
   10.4781  -16.3870   25.4028 O   0  0  0  0  0  0  0  0  0  0  0  0
  2  1  1  0
  3  5  1  0
  3  2  1  0
  3  4  1  6
  5  6  2  0
  8  7  1  6
  9  8  1  0
  9  5  1  0
 10 11  2  0
 10  8  1  0
 12 10  1  0
 13 12  1  0
 13 17  1  0
 13 14  1  1
 15 16  2  0
 15 14  1  0
 17 18  1  0
 19 15  1  0
 20 17  2  0
M  END
$$$$
