SAD.pdb
     RDKit          3D

 20 19  0  0  1  0  0  0  0  0999 V2000
    8.9293  -15.7321   16.1601 O   0  0  0  0  0  0  0  0  0  0  0  0
    9.1497  -14.6680   17.0026 C   0  0  0  0  0  0  0  0  0  0  0  0
    7.7826  -14.1816   17.4950 C   0  0  2  0  0  0  0  0  0  0  0  0
    7.4372  -12.9407   16.8672 N   0  0  0  0  0  0  0  0  0  0  0  0
    7.7643  -14.0146   18.9583 C   0  0  0  0  0  0  0  0  0  0  0  0
    6.8868  -13.2982   19.4902 O   0  0  0  0  0  0  0  0  0  0  0  0
    7.1591  -15.8192   21.1672 C   0  0  0  0  0  0  0  0  0  0  0  0
    8.4448  -15.0559   21.1331 C   0  0  2  0  0  0  0  0  0  0  0  0
    8.7214  -14.6506   19.7633 N   0  0  0  0  0  0  0  0  0  0  0  0
    9.5836  -15.8452   21.6863 C   0  0  0  0  0  0  0  0  0  0  0  0
    9.4217  -17.0636   21.8607 O   0  0  0  0  0  0  0  0  0  0  0  0
   10.8272  -15.2726   22.0178 N   0  0  0  0  0  0  0  0  0  0  0  0
   11.6689  -15.7259   23.1278 C   0  0  1  0  0  0  0  0  0  0  0  0
   10.8449  -16.2342   24.2637 C   0  0  0  0  0  0  0  0  0  0  0  0
   11.5673  -17.2317   25.0531 C   0  0  0  0  0  0  0  0  0  0  0  0
   11.1443  -18.4086   25.1085 O   0  0  0  0  0  0  0  0  0  0  0  0
   12.6333  -16.7521   22.6191 C   0  0  0  0  0  0  0  0  0  0  0  0
   12.1116  -17.8013   21.8686 O   0  0  0  0  0  0  0  0  0  0  0  0
   12.7077  -16.9047   25.7434 O   0  0  0  0  0  0  0  0  0  0  0  0
   13.8623  -16.7484   22.8095 O   0  0  0  0  0  0  0  0  0  0  0  0
  2  1  1  0
  3  5  1  0
  3  2  1  0
  3  4  1  6
  5  6  2  0
  8  7  1  6
  9  8  1  0
  9  5  1  0
 10 11  2  0
 10  8  1  0
 12 10  1  0
 13 12  1  0
 13 17  1  0
 13 14  1  1
 15 16  2  0
 15 14  1  0
 17 18  1  0
 19 15  1  0
 20 17  2  0
M  END
$$$$
