SAD.pdb
     RDKit          3D

 20 19  0  0  1  0  0  0  0  0999 V2000
    9.0357  -17.4058   17.5878 O   0  0  0  0  0  0  0  0  0  0  0  0
    8.2127  -16.9679   16.5770 C   0  0  0  0  0  0  0  0  0  0  0  0
    8.7458  -15.6104   16.1067 C   0  0  2  0  0  0  0  0  0  0  0  0
    9.8535  -15.7894   15.2156 N   0  0  0  0  0  0  0  0  0  0  0  0
    9.1594  -14.7700   17.2434 C   0  0  0  0  0  0  0  0  0  0  0  0
   10.3756  -14.5580   17.4481 O   0  0  0  0  0  0  0  0  0  0  0  0
    7.3326  -12.6528   19.7168 C   0  0  0  0  0  0  0  0  0  0  0  0
    8.5651  -13.3265   19.2032 C   0  0  2  0  0  0  0  0  0  0  0  0
    8.2033  -14.2040   18.1003 N   0  0  0  0  0  0  0  0  0  0  0  0
    9.2756  -14.0907   20.2695 C   0  0  0  0  0  0  0  0  0  0  0  0
    9.6525  -13.4747   21.2793 O   0  0  0  0  0  0  0  0  0  0  0  0
    9.5366  -15.4722   20.1819 N   0  0  0  0  0  0  0  0  0  0  0  0
   10.1442  -16.2617   21.2558 C   0  0  1  0  0  0  0  0  0  0  0  0
   10.2306  -17.7057   20.8881 C   0  0  0  0  0  0  0  0  0  0  0  0
    8.9122  -18.3393   20.8678 C   0  0  0  0  0  0  0  0  0  0  0  0
    8.0090  -17.9238   21.6285 O   0  0  0  0  0  0  0  0  0  0  0  0
   11.4815  -15.6780   21.5916 C   0  0  0  0  0  0  0  0  0  0  0  0
   12.2977  -15.3004   20.5297 O   0  0  0  0  0  0  0  0  0  0  0  0
    8.6395  -19.3903   20.0282 O   0  0  0  0  0  0  0  0  0  0  0  0
   11.9272  -15.5010   22.7391 O   0  0  0  0  0  0  0  0  0  0  0  0
  2  1  1  0
  3  5  1  0
  3  2  1  0
  3  4  1  6
  5  6  2  0
  8  7  1  1
  9  8  1  0
  9  5  1  0
 10 11  2  0
 10  8  1  0
 12 10  1  0
 13 12  1  0
 13 17  1  0
 13 14  1  6
 15 16  2  0
 15 14  1  0
 17 18  1  0
 19 15  1  0
 20 17  2  0
M  END
$$$$
