SAD.pdb
     RDKit          3D

 20 19  0  0  1  0  0  0  0  0999 V2000
   -0.4081  -25.2613   25.6478 O   0  0  0  0  0  0  0  0  0  0  0  0
   -1.7358  -25.6006   25.7623 C   0  0  0  0  0  0  0  0  0  0  0  0
   -2.2345  -25.0561   27.1050 C   0  0  2  0  0  0  0  0  0  0  0  0
   -1.5225  -25.6670   28.1881 N   0  0  0  0  0  0  0  0  0  0  0  0
   -3.6797  -25.2831   27.2760 C   0  0  0  0  0  0  0  0  0  0  0  0
   -4.4929  -24.6943   26.5290 O   0  0  0  0  0  0  0  0  0  0  0  0
   -5.8749  -27.7477   28.7955 C   0  0  0  0  0  0  0  0  0  0  0  0
   -5.5721  -26.3014   28.5641 C   0  0  2  0  0  0  0  0  0  0  0  0
   -4.1551  -26.1534   28.2686 N   0  0  0  0  0  0  0  0  0  0  0  0
   -5.9562  -25.4518   29.7288 C   0  0  0  0  0  0  0  0  0  0  0  0
   -5.1364  -25.3175   30.6514 O   0  0  0  0  0  0  0  0  0  0  0  0
   -7.2006  -24.7993   29.8278 N   0  0  0  0  0  0  0  0  0  0  0  0
   -7.6061  -23.9755   30.9692 C   0  0  1  0  0  0  0  0  0  0  0  0
   -8.5317  -22.8821   30.5502 C   0  0  0  0  0  0  0  0  0  0  0  0
   -7.8123  -21.7753   29.9196 C   0  0  0  0  0  0  0  0  0  0  0  0
   -6.5633  -21.7250   29.9865 O   0  0  0  0  0  0  0  0  0  0  0  0
   -8.2060  -24.8596   32.0182 C   0  0  0  0  0  0  0  0  0  0  0  0
   -8.1618  -24.4089   33.3340 O   0  0  0  0  0  0  0  0  0  0  0  0
   -8.4805  -20.7795   29.2520 O   0  0  0  0  0  0  0  0  0  0  0  0
   -8.7413  -25.9637   31.8155 O   0  0  0  0  0  0  0  0  0  0  0  0
  2  1  1  0
  3  5  1  0
  3  2  1  0
  3  4  1  1
  5  6  2  0
  8  7  1  1
  9  8  1  0
  9  5  1  0
 10 11  2  0
 10  8  1  0
 12 10  1  0
 13 12  1  0
 13 17  1  0
 13 14  1  6
 15 16  2  0
 15 14  1  0
 17 18  1  0
 19 15  1  0
 20 17  2  0
M  END
$$$$
