SAD.pdb
     RDKit          3D

 20 19  0  0  1  0  0  0  0  0999 V2000
   -5.1928  -26.3490   27.5381 O   0  0  0  0  0  0  0  0  0  0  0  0
   -4.3217  -26.2303   26.4807 C   0  0  0  0  0  0  0  0  0  0  0  0
   -3.0825  -25.4855   26.9884 C   0  0  2  0  0  0  0  0  0  0  0  0
   -2.3808  -26.2805   27.9521 N   0  0  0  0  0  0  0  0  0  0  0  0
   -3.4404  -24.1884   27.5874 C   0  0  0  0  0  0  0  0  0  0  0  0
   -3.4158  -24.0514   28.8310 O   0  0  0  0  0  0  0  0  0  0  0  0
   -4.2508  -20.8111   26.2053 C   0  0  0  0  0  0  0  0  0  0  0  0
   -4.1348  -21.7953   27.3255 C   0  0  2  0  0  0  0  0  0  0  0  0
   -3.8091  -23.1034   26.7778 N   0  0  0  0  0  0  0  0  0  0  0  0
   -5.3793  -21.8654   28.1453 C   0  0  0  0  0  0  0  0  0  0  0  0
   -5.7558  -20.8357   28.7276 O   0  0  0  0  0  0  0  0  0  0  0  0
   -6.1417  -23.0414   28.2873 N   0  0  0  0  0  0  0  0  0  0  0  0
   -7.3751  -23.1292   29.0727 C   0  0  1  0  0  0  0  0  0  0  0  0
   -8.5565  -23.4025   28.2025 C   0  0  0  0  0  0  0  0  0  0  0  0
   -9.7830  -23.5524   28.9857 C   0  0  0  0  0  0  0  0  0  0  0  0
   -9.9504  -22.8666   30.0195 O   0  0  0  0  0  0  0  0  0  0  0  0
   -7.2001  -24.1663   30.1385 C   0  0  0  0  0  0  0  0  0  0  0  0
   -8.1249  -24.1750   31.1782 O   0  0  0  0  0  0  0  0  0  0  0  0
  -10.7633  -24.4375   28.6121 O   0  0  0  0  0  0  0  0  0  0  0  0
   -6.2984  -25.0220   30.1755 O   0  0  0  0  0  0  0  0  0  0  0  0
  2  1  1  0
  3  5  1  0
  3  2  1  0
  3  4  1  1
  5  6  2  0
  8  7  1  6
  9  8  1  0
  9  5  1  0
 10 11  2  0
 10  8  1  0
 12 10  1  0
 13 12  1  0
 13 17  1  0
 13 14  1  6
 15 16  2  0
 15 14  1  0
 17 18  1  0
 19 15  1  0
 20 17  2  0
M  END
$$$$
