SAD.pdb
     RDKit          3D

 20 19  0  0  1  0  0  0  0  0999 V2000
   12.7432  -17.1768   16.1058 O   0  0  0  0  0  0  0  0  0  0  0  0
   11.8409  -17.9738   16.7702 C   0  0  0  0  0  0  0  0  0  0  0  0
   10.6922  -17.0744   17.2390 C   0  0  2  0  0  0  0  0  0  0  0  0
   10.4965  -15.9928   16.3198 N   0  0  0  0  0  0  0  0  0  0  0  0
   10.9443  -16.5356   18.5864 C   0  0  0  0  0  0  0  0  0  0  0  0
   11.5222  -15.4331   18.7157 O   0  0  0  0  0  0  0  0  0  0  0  0
   10.0905  -17.6160   22.0594 C   0  0  0  0  0  0  0  0  0  0  0  0
   10.8812  -16.8135   21.0756 C   0  0  2  0  0  0  0  0  0  0  0  0
   10.5434  -17.2459   19.7280 N   0  0  0  0  0  0  0  0  0  0  0  0
   12.3506  -16.9248   21.3089 C   0  0  0  0  0  0  0  0  0  0  0  0
   13.0873  -17.1076   20.3265 O   0  0  0  0  0  0  0  0  0  0  0  0
   12.9357  -16.8327   22.5869 N   0  0  0  0  0  0  0  0  0  0  0  0
   14.3764  -16.7106   22.8223 C   0  0  1  0  0  0  0  0  0  0  0  0
   14.9439  -15.5214   22.1213 C   0  0  0  0  0  0  0  0  0  0  0  0
   16.3635  -15.3404   22.4243 C   0  0  0  0  0  0  0  0  0  0  0  0
   17.1242  -16.3339   22.4636 O   0  0  0  0  0  0  0  0  0  0  0  0
   14.6267  -16.6756   24.2981 C   0  0  0  0  0  0  0  0  0  0  0  0
   13.7723  -15.8960   25.0718 O   0  0  0  0  0  0  0  0  0  0  0  0
   16.8865  -14.0957   22.6715 O   0  0  0  0  0  0  0  0  0  0  0  0
   15.5334  -17.2837   24.8938 O   0  0  0  0  0  0  0  0  0  0  0  0
  2  1  1  0
  3  5  1  0
  3  2  1  0
  3  4  1  6
  5  6  2  0
  8  7  1  1
  9  8  1  0
  9  5  1  0
 10 11  2  0
 10  8  1  0
 12 10  1  0
 13 12  1  0
 13 17  1  0
 13 14  1  6
 15 16  2  0
 15 14  1  0
 17 18  1  0
 19 15  1  0
 20 17  2  0
M  END
$$$$
