SAD.pdb
     RDKit          3D

 20 19  0  0  1  0  0  0  0  0999 V2000
   11.6211  -16.9530   18.3147 O   0  0  0  0  0  0  0  0  0  0  0  0
   11.4731  -16.1559   17.2040 C   0  0  0  0  0  0  0  0  0  0  0  0
   11.9278  -14.7440   17.5884 C   0  0  2  0  0  0  0  0  0  0  0  0
   13.3438  -14.7163   17.8059 N   0  0  0  0  0  0  0  0  0  0  0  0
   11.2349  -14.2642   18.7963 C   0  0  0  0  0  0  0  0  0  0  0  0
   11.8910  -14.0280   19.8355 O   0  0  0  0  0  0  0  0  0  0  0  0
    7.7338  -13.1700   19.5089 C   0  0  0  0  0  0  0  0  0  0  0  0
    9.1384  -13.4776   19.9205 C   0  0  2  0  0  0  0  0  0  0  0  0
    9.8454  -14.0690   18.7946 N   0  0  0  0  0  0  0  0  0  0  0  0
    9.1932  -14.3808   21.1067 C   0  0  0  0  0  0  0  0  0  0  0  0
    8.6513  -14.0013   22.1572 O   0  0  0  0  0  0  0  0  0  0  0  0
    9.8290  -15.6376   21.0879 N   0  0  0  0  0  0  0  0  0  0  0  0
    9.7974  -16.5893   22.2010 C   0  0  1  0  0  0  0  0  0  0  0  0
    9.9877  -17.9910   21.7246 C   0  0  0  0  0  0  0  0  0  0  0  0
    8.8385  -18.4609   20.9510 C   0  0  0  0  0  0  0  0  0  0  0  0
    7.7110  -17.9495   21.1364 O   0  0  0  0  0  0  0  0  0  0  0  0
   10.8241  -16.1872   23.2140 C   0  0  0  0  0  0  0  0  0  0  0  0
   11.9659  -15.5450   22.7448 O   0  0  0  0  0  0  0  0  0  0  0  0
    8.9672  -19.4606   20.0194 O   0  0  0  0  0  0  0  0  0  0  0  0
   10.7451  -16.3776   24.4404 O   0  0  0  0  0  0  0  0  0  0  0  0
  2  1  1  0
  3  5  1  0
  3  2  1  0
  3  4  1  1
  5  6  2  0
  8  7  1  6
  9  8  1  0
  9  5  1  0
 10 11  2  0
 10  8  1  0
 12 10  1  0
 13 12  1  0
 13 17  1  0
 13 14  1  6
 15 16  2  0
 15 14  1  0
 17 18  1  0
 19 15  1  0
 20 17  2  0
M  END
$$$$
