RMS.pdb
     RDKit          3D

 26 25  0  0  1  0  0  0  0  0999 V2000
    8.6431  -15.1251   14.7057 N   0  0  0  0  0  0  0  0  0  0  0  0
    8.2404  -13.8801   15.2692 C   0  0  0  0  0  0  0  0  0  0  0  0
    7.9473  -12.8547   14.5447 N   0  0  0  0  0  0  0  0  0  0  0  0
    8.1407  -13.7072   16.6910 N   0  0  0  0  0  0  0  0  0  0  0  0
    8.4736  -14.8142   17.5516 C   0  0  0  0  0  0  0  0  0  0  0  0
    7.5583  -14.8589   18.7449 C   0  0  0  0  0  0  0  0  0  0  0  0
    8.3198  -14.6225   20.0243 C   0  0  0  0  0  0  0  0  0  0  0  0
    8.3573  -15.8408   20.9024 C   0  0  2  0  0  0  0  0  0  0  0  0
    7.1002  -16.5142   20.9999 N   0  0  0  0  0  0  0  0  0  0  0  0
    8.9394  -15.4872   22.2315 C   0  0  0  0  0  0  0  0  0  0  0  0
   10.1561  -15.1875   22.2121 O   0  0  0  0  0  0  0  0  0  0  0  0
    7.6560  -11.9542   14.9376 C   0  0  0  0  0  0  0  0  0  0  0  0
    7.2972  -11.5387   27.3931 S   0  0  0  0  0  0  0  0  0  0  0  0
    6.1199  -12.2470   26.2238 C   0  0  0  0  0  0  0  0  0  0  0  0
    7.0644  -13.1304   24.9172 C   0  0  0  0  0  0  0  0  0  0  0  0
    7.4912  -14.4220   25.5083 C   0  0  2  0  0  0  0  0  0  0  0  0
    8.5296  -15.1850   24.7148 N   0  0  0  0  0  0  0  0  0  0  0  0
    8.1368  -15.5071   23.3762 C   0  0  0  0  0  0  0  0  0  0  0  0
    9.0026  -16.3162   25.5007 O   0  0  0  0  0  0  0  0  0  0  0  0
    8.2102  -17.2417   25.8134 O   0  0  0  0  0  0  0  0  0  0  0  0
   12.6412  -19.1987   26.7474 C   0  0  0  0  0  0  0  0  0  0  0  0
   12.2281  -18.0340   26.1457 C   0  0  1  0  0  0  0  0  0  0  0  0
   10.8190  -17.6930   26.5712 N   0  0  0  0  0  0  0  0  0  0  0  0
   10.3458  -16.4696   25.9652 C   0  0  0  0  0  0  0  0  0  0  0  0
   10.8296  -17.5437   28.0417 O   0  0  0  0  0  0  0  0  0  0  0  0
   11.1460  -18.6339   28.8235 O   0  0  0  0  0  0  0  0  0  0  0  0
  2  3  2  0
  2  1  1  0
  4  2  1  0
  5  4  1  0
  6  5  1  0
  7  6  1  0
  7  8  1  0
  8  9  1  1
 10  8  1  0
 10 17  1  0
 11 10  2  0
 12 13  1  0
 14 13  1  0
 14 15  1  0
 16 15  1  6
 16 17  1  0
 18 16  1  0
 19 18  2  0
 20 21  1  0
 22 21  1  6
 22 24  1  0
 22 23  1  0
 23 18  1  0
 24 25  1  0
 26 24  2  0
M  END
$$$$
