RMS.pdb
     RDKit          3D

 26 25  0  0  1  0  0  0  0  0999 V2000
    7.9329  -12.8855   14.6544 N   0  0  0  0  0  0  0  0  0  0  0  0
    7.7962  -13.9424   15.5999 C   0  0  0  0  0  0  0  0  0  0  0  0
    8.0512  -15.1715   15.3059 N   0  0  0  0  0  0  0  0  0  0  0  0
    7.3619  -13.6838   16.9437 N   0  0  0  0  0  0  0  0  0  0  0  0
    7.3043  -14.7786   17.8791 C   0  0  0  0  0  0  0  0  0  0  0  0
    8.6242  -14.9541   18.5799 C   0  0  0  0  0  0  0  0  0  0  0  0
    8.5441  -14.4960   20.0140 C   0  0  0  0  0  0  0  0  0  0  0  0
    9.8596  -14.6186   20.7290 C   0  0  2  0  0  0  0  0  0  0  0  0
   10.7931  -15.4742   20.0660 N   0  0  0  0  0  0  0  0  0  0  0  0
    9.6257  -14.9965   22.1548 C   0  0  0  0  0  0  0  0  0  0  0  0
   10.2491  -16.0130   22.5405 O   0  0  0  0  0  0  0  0  0  0  0  0
    8.0674  -15.9237   16.0018 C   0  0  0  0  0  0  0  0  0  0  0  0
    5.7520  -11.1440   26.7026 S   0  0  0  0  0  0  0  0  0  0  0  0
    7.2582  -12.0705   27.0605 C   0  0  0  0  0  0  0  0  0  0  0  0
    7.0881  -13.7513   26.3354 C   0  0  0  0  0  0  0  0  0  0  0  0
    7.3437  -13.6091   24.8814 C   0  0  1  0  0  0  0  0  0  0  0  0
    8.5498  -14.3596   24.3600 N   0  0  0  0  0  0  0  0  0  0  0  0
    8.7643  -14.2345   22.9499 C   0  0  0  0  0  0  0  0  0  0  0  0
    8.5162  -15.7297   24.8527 O   0  0  0  0  0  0  0  0  0  0  0  0
    7.5568  -16.4849   24.5501 O   0  0  0  0  0  0  0  0  0  0  0  0
   10.4394  -19.8454   25.6347 C   0  0  0  0  0  0  0  0  0  0  0  0
   10.4746  -18.5295   25.2391 C   0  0  1  0  0  0  0  0  0  0  0  0
    9.5048  -17.7083   26.0563 N   0  0  0  0  0  0  0  0  0  0  0  0
    9.5221  -16.3121   25.6848 C   0  0  0  0  0  0  0  0  0  0  0  0
    9.8996  -17.8469   27.4740 O   0  0  0  0  0  0  0  0  0  0  0  0
   10.2046  -16.7146   28.1983 O   0  0  0  0  0  0  0  0  0  0  0  0
  2  3  2  0
  2  1  1  0
  4  2  1  0
  5  4  1  0
  6  5  1  0
  7  6  1  0
  7  8  1  0
  8  9  1  6
 10  8  1  0
 10 17  1  0
 11 10  2  0
 12 13  1  0
 14 13  1  0
 14 15  1  0
 16 15  1  1
 16 17  1  0
 18 16  1  0
 19 18  2  0
 20 21  1  0
 22 21  1  6
 22 24  1  0
 22 23  1  0
 23 18  1  0
 24 25  1  0
 26 24  2  0
M  END
$$$$
