RMS.pdb
     RDKit          3D

 26 25  0  0  1  0  0  0  0  0999 V2000
    9.5787  -15.3418   15.8141 N   0  0  0  0  0  0  0  0  0  0  0  0
    8.3546  -14.6141   15.8516 C   0  0  0  0  0  0  0  0  0  0  0  0
    7.5367  -14.5832   14.8554 N   0  0  0  0  0  0  0  0  0  0  0  0
    7.9692  -13.8707   17.0179 N   0  0  0  0  0  0  0  0  0  0  0  0
    8.8678  -13.8273   18.1437 C   0  0  0  0  0  0  0  0  0  0  0  0
    8.3030  -12.9743   19.2470 C   0  0  0  0  0  0  0  0  0  0  0  0
    7.4930  -13.8004   20.2134 C   0  0  0  0  0  0  0  0  0  0  0  0
    8.2050  -15.0554   20.6315 C   0  0  2  0  0  0  0  0  0  0  0  0
    7.4205  -16.2392   20.4685 N   0  0  0  0  0  0  0  0  0  0  0  0
    8.7437  -14.8930   22.0148 C   0  0  0  0  0  0  0  0  0  0  0  0
    9.9137  -14.4481   22.0768 O   0  0  0  0  0  0  0  0  0  0  0  0
    6.6298  -14.1071   14.8880 C   0  0  0  0  0  0  0  0  0  0  0  0
    6.2340  -10.4811   26.5248 S   0  0  0  0  0  0  0  0  0  0  0  0
    6.1277  -12.2818   26.4904 C   0  0  0  0  0  0  0  0  0  0  0  0
    7.4470  -12.9169   25.3786 C   0  0  0  0  0  0  0  0  0  0  0  0
    7.3048  -14.3930   25.3590 C   0  0  2  0  0  0  0  0  0  0  0  0
    8.3115  -15.1287   24.5016 N   0  0  0  0  0  0  0  0  0  0  0  0
    7.9543  -15.2293   23.1187 C   0  0  0  0  0  0  0  0  0  0  0  0
    8.6540  -16.3937   25.1367 O   0  0  0  0  0  0  0  0  0  0  0  0
    7.7737  -17.2782   25.2949 O   0  0  0  0  0  0  0  0  0  0  0  0
   12.3805  -17.8085   25.0191 C   0  0  0  0  0  0  0  0  0  0  0  0
   11.3755  -18.7061   25.2904 C   0  0  1  0  0  0  0  0  0  0  0  0
   10.2875  -18.0471   26.1057 N   0  0  0  0  0  0  0  0  0  0  0  0
    9.9589  -16.7284   25.6148 C   0  0  0  0  0  0  0  0  0  0  0  0
   10.7809  -17.9478   27.4955 O   0  0  0  0  0  0  0  0  0  0  0  0
   10.8052  -16.7149   28.1113 O   0  0  0  0  0  0  0  0  0  0  0  0
  2  3  2  0
  2  1  1  0
  4  2  1  0
  5  4  1  0
  6  5  1  0
  7  6  1  0
  7  8  1  0
  8  9  1  1
 10  8  1  0
 10 17  1  0
 11 10  2  0
 12 13  1  0
 14 13  1  0
 14 15  1  0
 16 15  1  6
 16 17  1  0
 18 16  1  0
 19 18  2  0
 20 21  1  0
 22 21  1  6
 22 24  1  0
 22 23  1  0
 23 18  1  0
 24 25  1  0
 26 24  2  0
M  END
$$$$
