RMS.pdb
     RDKit          3D

 26 25  0  0  1  0  0  0  0  0999 V2000
    9.0016  -15.5902   14.4683 N   0  0  0  0  0  0  0  0  0  0  0  0
    8.6842  -14.6235   15.4653 C   0  0  0  0  0  0  0  0  0  0  0  0
    7.8146  -13.6911   15.2736 N   0  0  0  0  0  0  0  0  0  0  0  0
    9.3274  -14.6430   16.7488 N   0  0  0  0  0  0  0  0  0  0  0  0
    8.9937  -13.6222   17.7098 C   0  0  0  0  0  0  0  0  0  0  0  0
    7.5841  -13.7949   18.2067 C   0  0  0  0  0  0  0  0  0  0  0  0
    7.5192  -13.6860   19.7089 C   0  0  0  0  0  0  0  0  0  0  0  0
    7.9812  -14.9401   20.3949 C   0  0  2  0  0  0  0  0  0  0  0  0
    7.0034  -15.9828   20.3992 N   0  0  0  0  0  0  0  0  0  0  0  0
    8.4946  -14.6100   21.7578 C   0  0  0  0  0  0  0  0  0  0  0  0
    9.4603  -13.8115   21.7791 O   0  0  0  0  0  0  0  0  0  0  0  0
    7.5405  -13.0210   15.9989 C   0  0  0  0  0  0  0  0  0  0  0  0
    6.3929  -10.8219   27.1460 S   0  0  0  0  0  0  0  0  0  0  0  0
    6.2812  -12.5922   26.8167 C   0  0  0  0  0  0  0  0  0  0  0  0
    7.3519  -12.9795   25.3732 C   0  0  0  0  0  0  0  0  0  0  0  0
    7.2643  -14.4456   25.1670 C   0  0  2  0  0  0  0  0  0  0  0  0
    8.3150  -15.0341   24.2507 N   0  0  0  0  0  0  0  0  0  0  0  0
    7.9011  -15.1807   22.8879 C   0  0  0  0  0  0  0  0  0  0  0  0
    8.8620  -16.2408   24.8553 O   0  0  0  0  0  0  0  0  0  0  0  0
    8.1806  -17.2978   24.8800 O   0  0  0  0  0  0  0  0  0  0  0  0
   12.7570  -18.8949   25.4678 C   0  0  0  0  0  0  0  0  0  0  0  0
   12.2051  -17.6641   25.2035 C   0  0  2  0  0  0  0  0  0  0  0  0
   10.7933  -17.5949   25.7370 N   0  0  0  0  0  0  0  0  0  0  0  0
   10.1604  -16.3288   25.4467 C   0  0  0  0  0  0  0  0  0  0  0  0
   10.8684  -17.7853   27.2008 O   0  0  0  0  0  0  0  0  0  0  0  0
   11.4316  -18.9409   27.6981 O   0  0  0  0  0  0  0  0  0  0  0  0
  2  3  2  0
  2  1  1  0
  4  2  1  0
  5  4  1  0
  6  5  1  0
  7  6  1  0
  7  8  1  0
  8  9  1  1
 10  8  1  0
 10 17  1  0
 11 10  2  0
 12 13  1  0
 14 13  1  0
 14 15  1  0
 16 15  1  6
 16 17  1  0
 18 16  1  0
 19 18  2  0
 20 21  1  0
 22 21  1  6
 22 24  1  0
 22 23  1  0
 23 18  1  0
 24 25  1  0
 26 24  2  0
M  END
$$$$
