RMS.pdb
     RDKit          3D

 26 25  0  0  1  0  0  0  0  0999 V2000
    9.0763  -15.5585   15.4105 N   0  0  0  0  0  0  0  0  0  0  0  0
    9.6701  -16.6406   16.1218 C   0  0  0  0  0  0  0  0  0  0  0  0
   10.7357  -17.2381   15.7097 N   0  0  0  0  0  0  0  0  0  0  0  0
    9.1012  -17.1228   17.3486 N   0  0  0  0  0  0  0  0  0  0  0  0
    7.9875  -16.4130   17.9254 C   0  0  0  0  0  0  0  0  0  0  0  0
    8.4306  -15.0920   18.4932 C   0  0  0  0  0  0  0  0  0  0  0  0
    7.2820  -14.3685   19.1489 C   0  0  0  0  0  0  0  0  0  0  0  0
    7.7260  -13.1369   19.8856 C   0  0  2  0  0  0  0  0  0  0  0  0
    8.5435  -12.2652   19.1013 N   0  0  0  0  0  0  0  0  0  0  0  0
    8.3560  -13.5245   21.1829 C   0  0  0  0  0  0  0  0  0  0  0  0
    9.5807  -13.7826   21.1188 O   0  0  0  0  0  0  0  0  0  0  0  0
   11.1986  -17.9866   16.2349 C   0  0  0  0  0  0  0  0  0  0  0  0
    6.2745  -11.0641   26.7180 S   0  0  0  0  0  0  0  0  0  0  0  0
    6.4003  -12.7748   27.2769 C   0  0  0  0  0  0  0  0  0  0  0  0
    7.5532  -13.6652   26.1553 C   0  0  0  0  0  0  0  0  0  0  0  0
    7.1282  -13.3400   24.7721 C   0  0  1  0  0  0  0  0  0  0  0  0
    8.0440  -13.8445   23.6782 N   0  0  0  0  0  0  0  0  0  0  0  0
    7.5854  -13.5776   22.3484 C   0  0  0  0  0  0  0  0  0  0  0  0
    8.3855  -15.2362   23.9380 O   0  0  0  0  0  0  0  0  0  0  0  0
    7.5440  -16.1440   23.7141 O   0  0  0  0  0  0  0  0  0  0  0  0
   12.2011  -16.6615   24.0722 C   0  0  0  0  0  0  0  0  0  0  0  0
   11.1531  -17.5327   23.8933 C   0  0  1  0  0  0  0  0  0  0  0  0
    9.9454  -17.0705   24.6748 N   0  0  0  0  0  0  0  0  0  0  0  0
    9.6474  -15.6753   24.4463 C   0  0  0  0  0  0  0  0  0  0  0  0
   10.2426  -17.2838   26.1069 O   0  0  0  0  0  0  0  0  0  0  0  0
   10.5408  -18.5554   26.5471 O   0  0  0  0  0  0  0  0  0  0  0  0
  2  3  2  0
  2  1  1  0
  4  2  1  0
  5  4  1  0
  6  5  1  0
  7  6  1  0
  7  8  1  0
  8  9  1  6
 10  8  1  0
 10 17  1  0
 11 10  2  0
 12 13  1  0
 14 13  1  0
 14 15  1  0
 16 15  1  1
 16 17  1  0
 18 16  1  0
 19 18  2  0
 20 21  1  0
 22 21  1  6
 22 24  1  0
 22 23  1  0
 23 18  1  0
 24 25  1  0
 26 24  2  0
M  END
$$$$
