RMS.pdb
     RDKit          3D

 26 25  0  0  1  0  0  0  0  0999 V2000
    7.7728  -12.2017   18.7802 N   0  0  0  0  0  0  0  0  0  0  0  0
    8.0843  -13.4739   18.2198 C   0  0  0  0  0  0  0  0  0  0  0  0
    8.4421  -13.6197   16.9898 N   0  0  0  0  0  0  0  0  0  0  0  0
    8.0133  -14.6702   19.0106 N   0  0  0  0  0  0  0  0  0  0  0  0
    7.2938  -14.6374   20.2588 C   0  0  0  0  0  0  0  0  0  0  0  0
    6.1218  -15.5804   20.2261 C   0  0  0  0  0  0  0  0  0  0  0  0
    6.5214  -16.9613   20.6805 C   0  0  0  0  0  0  0  0  0  0  0  0
    6.1714  -17.2148   22.1193 C   0  0  2  0  0  0  0  0  0  0  0  0
    4.7708  -17.3910   22.3444 N   0  0  0  0  0  0  0  0  0  0  0  0
    6.7765  -16.1552   22.9802 C   0  0  0  0  0  0  0  0  0  0  0  0
    6.3414  -14.9976   22.7769 O   0  0  0  0  0  0  0  0  0  0  0  0
    8.6942  -14.5254   16.5818 C   0  0  0  0  0  0  0  0  0  0  0  0
    6.3023  -11.5985   25.7911 S   0  0  0  0  0  0  0  0  0  0  0  0
    6.8215  -12.6397   27.1700 C   0  0  0  0  0  0  0  0  0  0  0  0
    8.1341  -13.7790   26.5707 C   0  0  0  0  0  0  0  0  0  0  0  0
    7.4716  -14.7364   25.6519 C   0  0  2  0  0  0  0  0  0  0  0  0
    8.4063  -15.6098   24.8436 N   0  0  0  0  0  0  0  0  0  0  0  0
    7.7512  -16.4909   23.9246 C   0  0  0  0  0  0  0  0  0  0  0  0
    9.3563  -16.2573   25.7377 O   0  0  0  0  0  0  0  0  0  0  0  0
    8.9422  -16.9533   26.7002 O   0  0  0  0  0  0  0  0  0  0  0  0
   12.6863  -16.5464   23.6956 C   0  0  0  0  0  0  0  0  0  0  0  0
   12.9301  -17.1207   24.9204 C   0  0  2  0  0  0  0  0  0  0  0  0
   11.6359  -17.3250   25.6727 N   0  0  0  0  0  0  0  0  0  0  0  0
   10.7769  -16.1650   25.6083 C   0  0  0  0  0  0  0  0  0  0  0  0
   11.9872  -17.6016   27.0816 O   0  0  0  0  0  0  0  0  0  0  0  0
   12.7457  -18.7140   27.3769 O   0  0  0  0  0  0  0  0  0  0  0  0
  2  3  2  0
  2  1  1  0
  4  2  1  0
  5  4  1  0
  6  5  1  0
  7  6  1  0
  7  8  1  0
  8  9  1  6
 10  8  1  0
 10 17  1  0
 11 10  2  0
 12 13  1  0
 14 13  1  0
 14 15  1  0
 16 15  1  6
 16 17  1  0
 18 16  1  0
 19 18  2  0
 20 21  1  0
 22 21  1  6
 22 24  1  0
 22 23  1  0
 23 18  1  0
 24 25  1  0
 26 24  2  0
M  END
$$$$
