RMS.pdb
     RDKit          3D

 26 25  0  0  1  0  0  0  0  0999 V2000
    7.9709  -13.9698   16.3170 N   0  0  0  0  0  0  0  0  0  0  0  0
    8.2129  -13.4787   17.6322 C   0  0  0  0  0  0  0  0  0  0  0  0
    7.3605  -12.7479   18.2660 N   0  0  0  0  0  0  0  0  0  0  0  0
    9.4351  -13.7793   18.3229 N   0  0  0  0  0  0  0  0  0  0  0  0
   10.0161  -15.0893   18.1709 C   0  0  0  0  0  0  0  0  0  0  0  0
    9.4709  -16.0398   19.2020 C   0  0  0  0  0  0  0  0  0  0  0  0
    9.8817  -15.6282   20.5929 C   0  0  0  0  0  0  0  0  0  0  0  0
    9.3459  -16.5553   21.6466 C   0  0  2  0  0  0  0  0  0  0  0  0
    8.0047  -16.9849   21.4018 N   0  0  0  0  0  0  0  0  0  0  0  0
    9.5305  -15.9449   22.9970 C   0  0  0  0  0  0  0  0  0  0  0  0
   10.7232  -15.8178   23.3603 O   0  0  0  0  0  0  0  0  0  0  0  0
    7.5106  -12.4115   19.2224 C   0  0  0  0  0  0  0  0  0  0  0  0
    6.6953  -10.7160   25.9688 S   0  0  0  0  0  0  0  0  0  0  0  0
    5.9386  -12.1965   26.6691 C   0  0  0  0  0  0  0  0  0  0  0  0
    7.2117  -13.5215   26.7307 C   0  0  0  0  0  0  0  0  0  0  0  0
    7.1871  -14.1892   25.4067 C   0  0  2  0  0  0  0  0  0  0  0  0
    8.4155  -15.0069   25.0714 N   0  0  0  0  0  0  0  0  0  0  0  0
    8.4174  -15.5640   23.7525 C   0  0  0  0  0  0  0  0  0  0  0  0
    8.6635  -15.9658   26.1390 O   0  0  0  0  0  0  0  0  0  0  0  0
    8.6529  -15.5894   27.3392 O   0  0  0  0  0  0  0  0  0  0  0  0
   10.0046  -19.7638   25.3405 C   0  0  0  0  0  0  0  0  0  0  0  0
    9.3728  -19.6849   26.5586 C   0  0  1  0  0  0  0  0  0  0  0  0
    9.2797  -18.2464   27.0110 N   0  0  0  0  0  0  0  0  0  0  0  0
    8.9286  -17.3548   25.9295 C   0  0  0  0  0  0  0  0  0  0  0  0
   10.6033  -17.8705   27.5508 O   0  0  0  0  0  0  0  0  0  0  0  0
   11.0808  -18.5218   28.6678 O   0  0  0  0  0  0  0  0  0  0  0  0
  2  3  2  0
  2  1  1  0
  4  2  1  0
  5  4  1  0
  6  5  1  0
  7  6  1  0
  7  8  1  0
  8  9  1  6
 10  8  1  0
 10 17  1  0
 11 10  2  0
 12 13  1  0
 14 13  1  0
 14 15  1  0
 16 15  1  6
 16 17  1  0
 18 16  1  0
 19 18  2  0
 20 21  1  0
 22 21  1  1
 22 24  1  0
 22 23  1  0
 23 18  1  0
 24 25  1  0
 26 24  2  0
M  END
$$$$
