RMS.pdb
     RDKit          3D

 26 25  0  0  1  0  0  0  0  0999 V2000
    7.4415  -14.0234   15.4553 N   0  0  0  0  0  0  0  0  0  0  0  0
    8.2969  -15.1614   15.4021 C   0  0  0  0  0  0  0  0  0  0  0  0
    8.4410  -15.8699   14.3346 N   0  0  0  0  0  0  0  0  0  0  0  0
    9.0493  -15.5781   16.5518 N   0  0  0  0  0  0  0  0  0  0  0  0
    8.9569  -14.8018   17.7625 C   0  0  0  0  0  0  0  0  0  0  0  0
    7.5237  -14.6551   18.1963 C   0  0  0  0  0  0  0  0  0  0  0  0
    7.3817  -14.8582   19.6834 C   0  0  0  0  0  0  0  0  0  0  0  0
    7.6137  -13.5931   20.4595 C   0  0  2  0  0  0  0  0  0  0  0  0
    8.2820  -12.5765   19.7090 N   0  0  0  0  0  0  0  0  0  0  0  0
    8.2912  -13.9109   21.7519 C   0  0  0  0  0  0  0  0  0  0  0  0
    9.5433  -13.8698   21.7157 O   0  0  0  0  0  0  0  0  0  0  0  0
    9.0527  -16.6906   14.2835 C   0  0  0  0  0  0  0  0  0  0  0  0
    7.0654  -10.6042   26.9662 S   0  0  0  0  0  0  0  0  0  0  0  0
    7.6224  -12.3015   26.7134 C   0  0  0  0  0  0  0  0  0  0  0  0
    6.4931  -13.1059   25.5061 C   0  0  0  0  0  0  0  0  0  0  0  0
    7.0145  -14.4779   25.2933 C   0  0  2  0  0  0  0  0  0  0  0  0
    8.0180  -14.6217   24.1698 N   0  0  0  0  0  0  0  0  0  0  0  0
    7.5317  -14.2236   22.8833 C   0  0  0  0  0  0  0  0  0  0  0  0
    8.6055  -15.9535   24.2145 O   0  0  0  0  0  0  0  0  0  0  0  0
    7.9007  -16.9623   23.9536 O   0  0  0  0  0  0  0  0  0  0  0  0
   12.5829  -16.6073   23.8227 C   0  0  0  0  0  0  0  0  0  0  0  0
   11.7248  -17.6585   23.6039 C   0  0  1  0  0  0  0  0  0  0  0  0
   10.5243  -17.5562   24.5155 N   0  0  0  0  0  0  0  0  0  0  0  0
    9.9706  -16.2218   24.5429 C   0  0  0  0  0  0  0  0  0  0  0  0
   10.9717  -17.9331   25.8729 O   0  0  0  0  0  0  0  0  0  0  0  0
   10.7468  -17.0632   26.9181 O   0  0  0  0  0  0  0  0  0  0  0  0
  2  3  2  0
  2  1  1  0
  4  2  1  0
  5  4  1  0
  6  5  1  0
  7  6  1  0
  7  8  1  0
  8  9  1  6
 10  8  1  0
 10 17  1  0
 11 10  2  0
 12 13  1  0
 14 13  1  0
 14 15  1  0
 16 15  1  1
 16 17  1  0
 18 16  1  0
 19 18  2  0
 20 21  1  0
 22 21  1  6
 22 24  1  0
 22 23  1  0
 23 18  1  0
 24 25  1  0
 26 24  2  0
M  END
$$$$
