RMS.pdb
     RDKit          3D

 26 25  0  0  1  0  0  0  0  0999 V2000
    7.3782  -12.5540   18.0896 N   0  0  0  0  0  0  0  0  0  0  0  0
    8.2430  -13.3324   17.2676 C   0  0  0  0  0  0  0  0  0  0  0  0
    8.8431  -12.8438   16.2363 N   0  0  0  0  0  0  0  0  0  0  0  0
    8.4901  -14.7175   17.5538 N   0  0  0  0  0  0  0  0  0  0  0  0
    7.4738  -15.4793   18.2346 C   0  0  0  0  0  0  0  0  0  0  0  0
    7.6423  -15.3836   19.7266 C   0  0  0  0  0  0  0  0  0  0  0  0
    8.9836  -15.9197   20.1584 C   0  0  0  0  0  0  0  0  0  0  0  0
    8.8695  -16.9164   21.2766 C   0  0  2  0  0  0  0  0  0  0  0  0
    7.5969  -17.5647   21.3369 N   0  0  0  0  0  0  0  0  0  0  0  0
    9.2644  -16.2753   22.5663 C   0  0  0  0  0  0  0  0  0  0  0  0
   10.4856  -16.0153   22.6744 O   0  0  0  0  0  0  0  0  0  0  0  0
    9.3749  -13.4157   15.5727 C   0  0  0  0  0  0  0  0  0  0  0  0
    7.1161  -11.2431   25.8458 S   0  0  0  0  0  0  0  0  0  0  0  0
    6.4348  -12.5912   26.8325 C   0  0  0  0  0  0  0  0  0  0  0  0
    7.5756  -14.0279   26.7129 C   0  0  0  0  0  0  0  0  0  0  0  0
    7.3669  -14.6188   25.3686 C   0  0  2  0  0  0  0  0  0  0  0  0
    8.5135  -15.4559   24.8447 N   0  0  0  0  0  0  0  0  0  0  0  0
    8.2988  -16.0099   23.5420 C   0  0  0  0  0  0  0  0  0  0  0  0
    8.9102  -16.4212   25.8604 O   0  0  0  0  0  0  0  0  0  0  0  0
    8.0505  -17.1775   26.3810 O   0  0  0  0  0  0  0  0  0  0  0  0
   12.1685  -18.5036   25.7843 C   0  0  0  0  0  0  0  0  0  0  0  0
   11.9962  -18.1336   27.0968 C   0  0  2  0  0  0  0  0  0  0  0  0
   10.6022  -17.5920   27.3121 N   0  0  0  0  0  0  0  0  0  0  0  0
   10.2484  -16.5885   26.3345 C   0  0  0  0  0  0  0  0  0  0  0  0
   10.5674  -16.9975   28.6649 O   0  0  0  0  0  0  0  0  0  0  0  0
   10.8823  -17.7853   29.7511 O   0  0  0  0  0  0  0  0  0  0  0  0
  2  3  2  0
  2  1  1  0
  4  2  1  0
  5  4  1  0
  6  5  1  0
  7  6  1  0
  7  8  1  0
  8  9  1  1
 10  8  1  0
 10 17  1  0
 11 10  2  0
 12 13  1  0
 14 13  1  0
 14 15  1  0
 16 15  1  6
 16 17  1  0
 18 16  1  0
 19 18  2  0
 20 21  1  0
 22 21  1  6
 22 24  1  0
 22 23  1  0
 23 18  1  0
 24 25  1  0
 26 24  2  0
M  END
$$$$
