RMS.pdb
     RDKit          3D

 26 25  0  0  1  0  0  0  0  0999 V2000
    9.0930  -12.3622   19.9089 N   0  0  0  0  0  0  0  0  0  0  0  0
    8.5645  -12.7617   18.6477 C   0  0  0  0  0  0  0  0  0  0  0  0
    7.7185  -12.0424   17.9924 N   0  0  0  0  0  0  0  0  0  0  0  0
    8.9552  -14.0019   18.0390 N   0  0  0  0  0  0  0  0  0  0  0  0
    9.7454  -14.9336   18.8034 C   0  0  0  0  0  0  0  0  0  0  0  0
    8.8988  -15.6398   19.8272 C   0  0  0  0  0  0  0  0  0  0  0  0
    9.6858  -16.7102   20.5397 C   0  0  0  0  0  0  0  0  0  0  0  0
    8.8827  -17.3974   21.6071 C   0  0  2  0  0  0  0  0  0  0  0  0
    7.4828  -17.4527   21.3229 N   0  0  0  0  0  0  0  0  0  0  0  0
    9.1890  -16.7921   22.9375 C   0  0  0  0  0  0  0  0  0  0  0  0
   10.3952  -16.8403   23.2743 O   0  0  0  0  0  0  0  0  0  0  0  0
    7.2884  -12.3435   17.1123 C   0  0  0  0  0  0  0  0  0  0  0  0
    7.1360  -11.3046   25.8684 S   0  0  0  0  0  0  0  0  0  0  0  0
    6.2737  -12.5973   26.7851 C   0  0  0  0  0  0  0  0  0  0  0  0
    7.3100  -14.1156   26.7552 C   0  0  0  0  0  0  0  0  0  0  0  0
    7.2461  -14.6402   25.3694 C   0  0  1  0  0  0  0  0  0  0  0  0
    8.2643  -15.7084   25.0343 N   0  0  0  0  0  0  0  0  0  0  0  0
    8.1644  -16.2290   23.7043 C   0  0  0  0  0  0  0  0  0  0  0  0
    8.2702  -16.7166   26.0853 O   0  0  0  0  0  0  0  0  0  0  0  0
    7.1847  -17.1822   26.5181 O   0  0  0  0  0  0  0  0  0  0  0  0
   11.0020  -19.5478   26.3638 C   0  0  0  0  0  0  0  0  0  0  0  0
    9.7930  -19.6525   27.0094 C   0  0  1  0  0  0  0  0  0  0  0  0
    9.4170  -18.3319   27.6398 N   0  0  0  0  0  0  0  0  0  0  0  0
    9.4533  -17.2430   26.6907 C   0  0  0  0  0  0  0  0  0  0  0  0
   10.3860  -18.0733   28.7255 O   0  0  0  0  0  0  0  0  0  0  0  0
   11.1416  -16.9211   28.6886 O   0  0  0  0  0  0  0  0  0  0  0  0
  2  3  2  0
  2  1  1  0
  4  2  1  0
  5  4  1  0
  6  5  1  0
  7  6  1  0
  7  8  1  0
  8  9  1  6
 10  8  1  0
 10 17  1  0
 11 10  2  0
 12 13  1  0
 14 13  1  0
 14 15  1  0
 16 15  1  6
 16 17  1  0
 18 16  1  0
 19 18  2  0
 20 21  1  0
 22 21  1  6
 22 24  1  0
 22 23  1  0
 23 18  1  0
 24 25  1  0
 26 24  2  0
M  END
$$$$
