RMS.pdb
     RDKit          3D

 26 25  0  0  1  0  0  0  0  0999 V2000
    9.0554  -13.3169   15.9671 N   0  0  0  0  0  0  0  0  0  0  0  0
    7.7579  -13.8737   16.1564 C   0  0  0  0  0  0  0  0  0  0  0  0
    7.1228  -14.4848   15.2155 N   0  0  0  0  0  0  0  0  0  0  0  0
    7.0877  -13.7790   17.4226 N   0  0  0  0  0  0  0  0  0  0  0  0
    7.8682  -13.8647   18.6311 C   0  0  0  0  0  0  0  0  0  0  0  0
    8.8587  -14.9944   18.5497 C   0  0  0  0  0  0  0  0  0  0  0  0
    9.7117  -15.0609   19.7910 C   0  0  0  0  0  0  0  0  0  0  0  0
    9.1727  -16.0288   20.8056 C   0  0  2  0  0  0  0  0  0  0  0  0
    7.7863  -16.3289   20.6293 N   0  0  0  0  0  0  0  0  0  0  0  0
    9.5005  -15.5515   22.1822 C   0  0  0  0  0  0  0  0  0  0  0  0
   10.7145  -15.3141   22.3835 O   0  0  0  0  0  0  0  0  0  0  0  0
    6.1819  -14.8736   15.3336 C   0  0  0  0  0  0  0  0  0  0  0  0
    5.8642  -11.6439   26.1784 S   0  0  0  0  0  0  0  0  0  0  0  0
    7.5142  -12.1511   26.7030 C   0  0  0  0  0  0  0  0  0  0  0  0
    7.6283  -13.9805   26.5605 C   0  0  0  0  0  0  0  0  0  0  0  0
    7.4950  -14.2983   25.1180 C   0  0  1  0  0  0  0  0  0  0  0  0
    8.6394  -15.0883   24.5210 N   0  0  0  0  0  0  0  0  0  0  0  0
    8.4858  -15.4006   23.1322 C   0  0  0  0  0  0  0  0  0  0  0  0
    8.9342  -16.2311   25.3743 O   0  0  0  0  0  0  0  0  0  0  0  0
    8.0757  -17.1365   25.5340 O   0  0  0  0  0  0  0  0  0  0  0  0
   12.0958  -19.3287   27.1347 C   0  0  0  0  0  0  0  0  0  0  0  0
   11.7954  -18.2309   26.3640 C   0  0  1  0  0  0  0  0  0  0  0  0
   10.4729  -17.6362   26.7882 N   0  0  0  0  0  0  0  0  0  0  0  0
   10.1668  -16.4181   26.0738 C   0  0  0  0  0  0  0  0  0  0  0  0
   10.5654  -17.3499   28.2353 O   0  0  0  0  0  0  0  0  0  0  0  0
   10.7939  -18.3898   29.1107 O   0  0  0  0  0  0  0  0  0  0  0  0
  2  3  2  0
  2  1  1  0
  4  2  1  0
  5  4  1  0
  6  5  1  0
  7  6  1  0
  7  8  1  0
  8  9  1  1
 10  8  1  0
 10 17  1  0
 11 10  2  0
 12 13  1  0
 14 13  1  0
 14 15  1  0
 16 15  1  6
 16 17  1  0
 18 16  1  0
 19 18  2  0
 20 21  1  0
 22 21  1  6
 22 24  1  0
 22 23  1  0
 23 18  1  0
 24 25  1  0
 26 24  2  0
M  END
$$$$
