RMS.pdb
     RDKit          3D

 26 25  0  0  1  0  0  0  0  0999 V2000
    8.4526  -12.1995   14.7459 N   0  0  0  0  0  0  0  0  0  0  0  0
    8.7043  -13.4070   15.4587 C   0  0  0  0  0  0  0  0  0  0  0  0
    8.9009  -14.5339   14.8640 N   0  0  0  0  0  0  0  0  0  0  0  0
    8.7515  -13.4252   16.8936 N   0  0  0  0  0  0  0  0  0  0  0  0
    8.9576  -14.6825   17.5671 C   0  0  0  0  0  0  0  0  0  0  0  0
    7.7565  -15.0491   18.3958 C   0  0  0  0  0  0  0  0  0  0  0  0
    7.9675  -14.6961   19.8462 C   0  0  0  0  0  0  0  0  0  0  0  0
    8.1963  -15.9081   20.7037 C   0  0  2  0  0  0  0  0  0  0  0  0
    7.0522  -16.7587   20.8082 N   0  0  0  0  0  0  0  0  0  0  0  0
    8.7428  -15.4923   22.0298 C   0  0  0  0  0  0  0  0  0  0  0  0
    9.9696  -15.2365   22.0385 O   0  0  0  0  0  0  0  0  0  0  0  0
    9.0145  -15.4209   15.3647 C   0  0  0  0  0  0  0  0  0  0  0  0
    6.8295  -11.0019   26.2459 S   0  0  0  0  0  0  0  0  0  0  0  0
    6.4253  -12.5294   27.1168 C   0  0  0  0  0  0  0  0  0  0  0  0
    7.6191  -13.8257   26.5928 C   0  0  0  0  0  0  0  0  0  0  0  0
    7.2649  -14.1834   25.1978 C   0  0  1  0  0  0  0  0  0  0  0  0
    8.2643  -15.0662   24.4825 N   0  0  0  0  0  0  0  0  0  0  0  0
    7.8994  -15.4129   23.1421 C   0  0  0  0  0  0  0  0  0  0  0  0
    8.6054  -16.1976   25.3338 O   0  0  0  0  0  0  0  0  0  0  0  0
    7.7068  -16.9874   25.7224 O   0  0  0  0  0  0  0  0  0  0  0  0
   12.5195  -17.4692   25.8230 C   0  0  0  0  0  0  0  0  0  0  0  0
   11.4959  -18.3829   25.9055 C   0  0  1  0  0  0  0  0  0  0  0  0
   10.2524  -17.7310   26.4637 N   0  0  0  0  0  0  0  0  0  0  0  0
    9.9287  -16.4982   25.7830 C   0  0  0  0  0  0  0  0  0  0  0  0
   10.5074  -17.4536   27.8930 O   0  0  0  0  0  0  0  0  0  0  0  0
   10.7742  -18.5058   28.7424 O   0  0  0  0  0  0  0  0  0  0  0  0
  2  3  2  0
  2  1  1  0
  4  2  1  0
  5  4  1  0
  6  5  1  0
  7  6  1  0
  7  8  1  0
  8  9  1  1
 10  8  1  0
 10 17  1  0
 11 10  2  0
 12 13  1  0
 14 13  1  0
 14 15  1  0
 16 15  1  6
 16 17  1  0
 18 16  1  0
 19 18  2  0
 20 21  1  0
 22 21  1  6
 22 24  1  0
 22 23  1  0
 23 18  1  0
 24 25  1  0
 26 24  2  0
M  END
$$$$
