RMS.pdb
     RDKit          3D

 26 25  0  0  1  0  0  0  0  0999 V2000
    9.5593  -14.2827   15.7781 N   0  0  0  0  0  0  0  0  0  0  0  0
    8.5288  -13.6555   16.5358 C   0  0  0  0  0  0  0  0  0  0  0  0
    7.2862  -13.7152   16.1969 N   0  0  0  0  0  0  0  0  0  0  0  0
    8.8306  -12.9170   17.7295 N   0  0  0  0  0  0  0  0  0  0  0  0
    7.9810  -13.0803   18.8821 C   0  0  0  0  0  0  0  0  0  0  0  0
    8.5007  -14.1696   19.7804 C   0  0  0  0  0  0  0  0  0  0  0  0
    7.3953  -15.1072   20.1947 C   0  0  0  0  0  0  0  0  0  0  0  0
    7.8831  -16.2057   21.0959 C   0  0  2  0  0  0  0  0  0  0  0  0
    6.8698  -17.1520   21.4439 N   0  0  0  0  0  0  0  0  0  0  0  0
    8.5701  -15.6164   22.2837 C   0  0  0  0  0  0  0  0  0  0  0  0
    9.6472  -15.0272   22.0321 O   0  0  0  0  0  0  0  0  0  0  0  0
    6.5217  -13.4173   16.8110 C   0  0  0  0  0  0  0  0  0  0  0  0
    7.3543  -11.6026   27.3146 S   0  0  0  0  0  0  0  0  0  0  0  0
    6.1641  -12.2842   26.1425 C   0  0  0  0  0  0  0  0  0  0  0  0
    7.0836  -13.2750   24.8964 C   0  0  0  0  0  0  0  0  0  0  0  0
    7.6738  -14.4235   25.6258 C   0  0  2  0  0  0  0  0  0  0  0  0
    8.5702  -15.3219   24.8015 N   0  0  0  0  0  0  0  0  0  0  0  0
    8.0049  -15.7451   23.5560 C   0  0  0  0  0  0  0  0  0  0  0  0
    9.0755  -16.4003   25.6398 O   0  0  0  0  0  0  0  0  0  0  0  0
    8.2758  -17.1169   26.2950 O   0  0  0  0  0  0  0  0  0  0  0  0
   13.1409  -17.1525   26.1761 C   0  0  0  0  0  0  0  0  0  0  0  0
   12.3231  -18.2548   26.2490 C   0  0  1  0  0  0  0  0  0  0  0  0
   10.9104  -17.8404   26.5886 N   0  0  0  0  0  0  0  0  0  0  0  0
   10.4596  -16.7263   25.7866 C   0  0  0  0  0  0  0  0  0  0  0  0
   10.8974  -17.4582   28.0164 O   0  0  0  0  0  0  0  0  0  0  0  0
   11.2921  -18.3814   28.9606 O   0  0  0  0  0  0  0  0  0  0  0  0
  2  3  2  0
  2  1  1  0
  4  2  1  0
  5  4  1  0
  6  5  1  0
  7  6  1  0
  7  8  1  0
  8  9  1  1
 10  8  1  0
 10 17  1  0
 11 10  2  0
 12 13  1  0
 14 13  1  0
 14 15  1  0
 16 15  1  6
 16 17  1  0
 18 16  1  0
 19 18  2  0
 20 21  1  0
 22 21  1  6
 22 24  1  0
 22 23  1  0
 23 18  1  0
 24 25  1  0
 26 24  2  0
M  END
$$$$
