RMS.pdb
     RDKit          3D

 26 25  0  0  1  0  0  0  0  0999 V2000
    9.1851  -12.5177   20.5227 N   0  0  0  0  0  0  0  0  0  0  0  0
    8.6807  -12.7716   19.2148 C   0  0  0  0  0  0  0  0  0  0  0  0
    7.8253  -11.9967   18.6402 N   0  0  0  0  0  0  0  0  0  0  0  0
    9.1079  -13.9190   18.4649 N   0  0  0  0  0  0  0  0  0  0  0  0
    9.6245  -15.0615   19.1753 C   0  0  0  0  0  0  0  0  0  0  0  0
    8.5166  -15.8064   19.8692 C   0  0  0  0  0  0  0  0  0  0  0  0
    9.0326  -17.0616   20.5258 C   0  0  0  0  0  0  0  0  0  0  0  0
    8.3545  -17.3430   21.8365 C   0  0  2  0  0  0  0  0  0  0  0  0
    6.9349  -17.1824   21.7918 N   0  0  0  0  0  0  0  0  0  0  0  0
    9.0024  -16.5466   22.9210 C   0  0  0  0  0  0  0  0  0  0  0  0
    9.6474  -15.5464   22.5282 O   0  0  0  0  0  0  0  0  0  0  0  0
    7.4859  -12.1456   17.6847 C   0  0  0  0  0  0  0  0  0  0  0  0
    7.1349  -12.0622   24.3708 S   0  0  0  0  0  0  0  0  0  0  0  0
    6.7296  -12.6245   26.0365 C   0  0  0  0  0  0  0  0  0  0  0  0
    7.8622  -14.0058   26.4711 C   0  0  0  0  0  0  0  0  0  0  0  0
    7.8813  -14.9170   25.3011 C   0  0  2  0  0  0  0  0  0  0  0  0
    8.8335  -16.0882   25.4085 N   0  0  0  0  0  0  0  0  0  0  0  0
    8.8640  -16.9376   24.2563 C   0  0  0  0  0  0  0  0  0  0  0  0
    8.6082  -16.7797   26.6703 O   0  0  0  0  0  0  0  0  0  0  0  0
    7.4358  -16.9673   27.0855 O   0  0  0  0  0  0  0  0  0  0  0  0
   10.0962  -20.8426   26.8314 C   0  0  0  0  0  0  0  0  0  0  0  0
    9.9272  -19.5135   26.5243 C   0  0  1  0  0  0  0  0  0  0  0  0
    9.8050  -18.6931   27.7871 N   0  0  0  0  0  0  0  0  0  0  0  0
    9.6492  -17.2835   27.5105 C   0  0  0  0  0  0  0  0  0  0  0  0
   11.0396  -18.9090   28.5707 O   0  0  0  0  0  0  0  0  0  0  0  0
   11.0365  -19.8469   29.5807 O   0  0  0  0  0  0  0  0  0  0  0  0
  2  3  2  0
  2  1  1  0
  4  2  1  0
  5  4  1  0
  6  5  1  0
  7  6  1  0
  7  8  1  0
  8  9  1  6
 10  8  1  0
 10 17  1  0
 11 10  2  0
 12 13  1  0
 14 13  1  0
 14 15  1  0
 16 15  1  6
 16 17  1  0
 18 16  1  0
 19 18  2  0
 20 21  1  0
 22 21  1  6
 22 24  1  0
 22 23  1  0
 23 18  1  0
 24 25  1  0
 26 24  2  0
M  END
$$$$
