IDH.pdb
     RDKit          3D

 27 27  0  0  1  0  0  0  0  0999 V2000
    7.5022  -12.1832   21.5045 C   0  0  0  0  0  0  0  0  0  0  0  0
    7.3816  -13.6567   21.2691 C   0  0  0  0  0  0  0  0  0  0  0  0
    8.2408  -14.0302   20.0857 C   0  0  2  0  0  0  0  0  0  0  0  0
    7.7920  -13.2293   18.8837 C   0  0  0  0  0  0  0  0  0  0  0  0
    8.2441  -15.5105   19.8111 C   0  0  2  0  0  0  0  0  0  0  0  0
    6.9280  -15.9282   19.3726 N   0  0  0  0  0  0  0  0  0  0  0  0
    8.7398  -16.3287   20.9324 C   0  0  0  0  0  0  0  0  0  0  0  0
    8.0399  -17.0388   21.6659 O   0  0  0  0  0  0  0  0  0  0  0  0
   10.1449  -16.2985   21.1929 N   0  0  0  0  0  0  0  0  0  0  0  0
   10.6916  -17.1634   22.2167 C   0  0  1  0  0  0  0  0  0  0  0  0
   12.1876  -17.3284   22.0134 C   0  0  0  0  0  0  0  0  0  0  0  0
   12.7697  -18.3879   22.8642 C   0  0  0  0  0  0  0  0  0  0  0  0
   12.1500  -19.0904   23.6879 O   0  0  0  0  0  0  0  0  0  0  0  0
   10.3945  -16.6553   23.5824 C   0  0  0  0  0  0  0  0  0  0  0  0
   10.8910  -15.5479   23.9099 O   0  0  0  0  0  0  0  0  0  0  0  0
   14.1317  -18.6173   22.7294 O   0  0  0  0  0  0  0  0  0  0  0  0
    9.5958  -17.3374   24.5226 N   0  0  0  0  0  0  0  0  0  0  0  0
    9.3450  -16.8087   25.8730 C   0  0  1  0  0  0  0  0  0  0  0  0
    7.8892  -16.6123   26.1159 C   0  0  0  0  0  0  0  0  0  0  0  0
    7.5015  -15.2255   25.7789 C   0  0  0  0  0  0  0  0  0  0  0  0
    8.3975  -14.2117   25.4240 C   0  0  0  0  0  0  0  0  0  0  0  0
    7.7147  -13.0810   25.1835 N   0  0  0  0  0  0  0  0  0  0  0  0
    6.4143  -13.3393   25.3728 C   0  0  0  0  0  0  0  0  0  0  0  0
    6.2935  -14.6294   25.7303 N   0  0  0  0  0  0  0  0  0  0  0  0
    9.9094  -17.7554   26.8716 C   0  0  0  0  0  0  0  0  0  0  0  0
    9.9360  -17.5570   28.0946 O   0  0  0  0  0  0  0  0  0  0  0  0
   10.4629  -18.9761   26.4350 O   0  0  0  0  0  0  0  0  0  0  0  0
  2  1  1  0
  3  2  1  0
  3  4  1  6
  5  7  1  0
  5  3  1  0
  5  6  1  1
  7  8  2  0
  9 10  1  0
  9  7  1  0
 10 11  1  6
 12 11  1  0
 13 12  2  0
 14 10  1  0
 14 15  2  0
 16 12  1  0
 17 14  1  0
 18 17  1  0
 18 25  1  0
 18 19  1  1
 20 19  1  0
 21 20  2  0
 22 23  1  0
 22 21  1  0
 23 24  2  0
 24 20  1  0
 25 27  1  0
 26 25  2  0
M  END
$$$$
