IDH.pdb
     RDKit          3D

 27 27  0  0  1  0  0  0  0  0999 V2000
    7.0601  -12.1836   20.0051 C   0  0  0  0  0  0  0  0  0  0  0  0
    7.6767  -13.5182   19.7225 C   0  0  0  0  0  0  0  0  0  0  0  0
    7.8618  -14.2524   21.0282 C   0  0  2  0  0  0  0  0  0  0  0  0
    8.7555  -13.4297   21.9293 C   0  0  0  0  0  0  0  0  0  0  0  0
    8.3810  -15.6533   20.8412 C   0  0  2  0  0  0  0  0  0  0  0  0
    7.6388  -16.3117   19.7855 N   0  0  0  0  0  0  0  0  0  0  0  0
    8.4113  -16.4532   22.0788 C   0  0  0  0  0  0  0  0  0  0  0  0
    7.8193  -17.5262   22.2534 O   0  0  0  0  0  0  0  0  0  0  0  0
    9.1887  -15.9468   23.1661 N   0  0  0  0  0  0  0  0  0  0  0  0
    9.9600  -16.8690   23.9720 C   0  0  1  0  0  0  0  0  0  0  0  0
   10.8324  -17.7348   23.0799 C   0  0  0  0  0  0  0  0  0  0  0  0
   11.6112  -18.7379   23.8367 C   0  0  0  0  0  0  0  0  0  0  0  0
   12.7341  -18.5600   24.3498 O   0  0  0  0  0  0  0  0  0  0  0  0
   10.7808  -16.1583   24.9881 C   0  0  0  0  0  0  0  0  0  0  0  0
   11.9909  -16.4843   25.0875 O   0  0  0  0  0  0  0  0  0  0  0  0
   11.0342  -19.9911   23.9865 O   0  0  0  0  0  0  0  0  0  0  0  0
   10.2853  -15.1492   25.8387 N   0  0  0  0  0  0  0  0  0  0  0  0
   10.1724  -15.3326   27.2946 C   0  0  1  0  0  0  0  0  0  0  0  0
    8.7480  -15.3757   27.7261 C   0  0  0  0  0  0  0  0  0  0  0  0
    8.0258  -14.1929   27.2099 C   0  0  0  0  0  0  0  0  0  0  0  0
    8.6046  -13.1807   26.4372 C   0  0  0  0  0  0  0  0  0  0  0  0
    7.6718  -12.2621   26.1397 N   0  0  0  0  0  0  0  0  0  0  0  0
    6.5183  -12.6540   26.6963 C   0  0  0  0  0  0  0  0  0  0  0  0
    6.7384  -13.8146   27.3376 N   0  0  0  0  0  0  0  0  0  0  0  0
   10.8629  -16.5939   27.6745 C   0  0  0  0  0  0  0  0  0  0  0  0
   11.8899  -16.6549   28.3654 O   0  0  0  0  0  0  0  0  0  0  0  0
   10.3427  -17.8288   27.2366 O   0  0  0  0  0  0  0  0  0  0  0  0
  2  1  1  0
  3  2  1  0
  3  4  1  1
  5  7  1  0
  5  3  1  0
  5  6  1  6
  7  8  2  0
  9 10  1  0
  9  7  1  0
 10 11  1  6
 12 11  1  0
 13 12  2  0
 14 10  1  0
 14 15  2  0
 16 12  1  0
 17 14  1  0
 18 17  1  0
 18 25  1  0
 18 19  1  6
 20 19  1  0
 21 20  2  0
 22 23  1  0
 22 21  1  0
 23 24  2  0
 24 20  1  0
 25 27  1  0
 26 25  2  0
M  END
$$$$
