IDH.pdb
     RDKit          3D

 27 27  0  0  1  0  0  0  0  0999 V2000
    7.1848  -11.6994   20.1044 C   0  0  0  0  0  0  0  0  0  0  0  0
    7.4945  -13.0612   19.5648 C   0  0  0  0  0  0  0  0  0  0  0  0
    7.9663  -13.9364   20.7005 C   0  0  2  0  0  0  0  0  0  0  0  0
    9.1786  -13.2966   21.3397 C   0  0  0  0  0  0  0  0  0  0  0  0
    8.2338  -15.3547   20.2718 C   0  0  2  0  0  0  0  0  0  0  0  0
    7.0579  -15.8982   19.6232 N   0  0  0  0  0  0  0  0  0  0  0  0
    8.7227  -16.2276   21.3541 C   0  0  0  0  0  0  0  0  0  0  0  0
    8.0311  -17.0277   21.9973 O   0  0  0  0  0  0  0  0  0  0  0  0
   10.1101  -16.1420   21.6872 N   0  0  0  0  0  0  0  0  0  0  0  0
   10.6592  -17.0581   22.6639 C   0  0  1  0  0  0  0  0  0  0  0  0
   11.9663  -17.6396   22.1540 C   0  0  0  0  0  0  0  0  0  0  0  0
   12.6025  -18.5587   23.1214 C   0  0  0  0  0  0  0  0  0  0  0  0
   13.6286  -18.3237   23.7907 O   0  0  0  0  0  0  0  0  0  0  0  0
   10.8495  -16.4040   23.9858 C   0  0  0  0  0  0  0  0  0  0  0  0
   11.9446  -16.5921   24.5737 O   0  0  0  0  0  0  0  0  0  0  0  0
   11.9977  -19.7953   23.2966 O   0  0  0  0  0  0  0  0  0  0  0  0
    9.8818  -15.5927   24.6123 N   0  0  0  0  0  0  0  0  0  0  0  0
    9.4094  -15.8471   25.9828 C   0  0  1  0  0  0  0  0  0  0  0  0
    7.9241  -15.9376   26.0356 C   0  0  0  0  0  0  0  0  0  0  0  0
    7.3279  -14.5957   25.8602 C   0  0  0  0  0  0  0  0  0  0  0  0
    8.0585  -13.4170   25.6772 C   0  0  0  0  0  0  0  0  0  0  0  0
    7.2096  -12.3844   25.5517 N   0  0  0  0  0  0  0  0  0  0  0  0
    5.9630  -12.8645   25.6485 C   0  0  0  0  0  0  0  0  0  0  0  0
    6.0416  -14.1935   25.8337 N   0  0  0  0  0  0  0  0  0  0  0  0
   10.0190  -17.1119   26.4736 C   0  0  0  0  0  0  0  0  0  0  0  0
   10.6314  -17.2301   27.5445 O   0  0  0  0  0  0  0  0  0  0  0  0
    9.9141  -18.2812   25.6934 O   0  0  0  0  0  0  0  0  0  0  0  0
  2  1  1  0
  3  2  1  0
  3  4  1  6
  5  7  1  0
  5  3  1  0
  5  6  1  1
  7  8  2  0
  9 10  1  0
  9  7  1  0
 10 11  1  6
 12 11  1  0
 13 12  2  0
 14 10  1  0
 14 15  2  0
 16 12  1  0
 17 14  1  0
 18 17  1  0
 18 25  1  0
 18 19  1  6
 20 19  1  0
 21 20  2  0
 22 23  1  0
 22 21  1  0
 23 24  2  0
 24 20  1  0
 25 27  1  0
 26 25  2  0
M  END
$$$$
