IDH.pdb
     RDKit          3D

 27 27  0  0  1  0  0  0  0  0999 V2000
    6.9654  -13.6272   16.5804 C   0  0  0  0  0  0  0  0  0  0  0  0
    8.0773  -13.0591   17.4064 C   0  0  0  0  0  0  0  0  0  0  0  0
    8.3308  -13.9792   18.5758 C   0  0  2  0  0  0  0  0  0  0  0  0
    7.0649  -14.0872   19.3962 C   0  0  0  0  0  0  0  0  0  0  0  0
    9.5109  -13.5531   19.4082 C   0  0  2  0  0  0  0  0  0  0  0  0
   10.0585  -12.3192   18.8824 N   0  0  0  0  0  0  0  0  0  0  0  0
   10.5424  -14.5940   19.5657 C   0  0  0  0  0  0  0  0  0  0  0  0
   10.3277  -15.7773   19.8590 O   0  0  0  0  0  0  0  0  0  0  0  0
   11.9023  -14.2033   19.3628 N   0  0  0  0  0  0  0  0  0  0  0  0
   12.9596  -15.1439   19.6661 C   0  0  1  0  0  0  0  0  0  0  0  0
   14.2780  -14.6437   19.1019 C   0  0  0  0  0  0  0  0  0  0  0  0
   14.4508  -14.9693   17.6703 C   0  0  0  0  0  0  0  0  0  0  0  0
   14.1360  -16.0430   17.1190 O   0  0  0  0  0  0  0  0  0  0  0  0
   13.0695  -15.3958   21.1276 C   0  0  0  0  0  0  0  0  0  0  0  0
   12.7196  -14.4707   21.9035 O   0  0  0  0  0  0  0  0  0  0  0  0
   15.0161  -13.9854   16.8714 O   0  0  0  0  0  0  0  0  0  0  0  0
   13.5389  -16.6010   21.6884 N   0  0  0  0  0  0  0  0  0  0  0  0
   12.7922  -17.3290   22.7270 C   0  0  1  0  0  0  0  0  0  0  0  0
   11.3675  -17.5178   22.3378 C   0  0  0  0  0  0  0  0  0  0  0  0
   10.5039  -16.6037   23.1161 C   0  0  0  0  0  0  0  0  0  0  0  0
   10.9629  -15.7093   24.0887 C   0  0  0  0  0  0  0  0  0  0  0  0
    9.9197  -15.0349   24.5980 N   0  0  0  0  0  0  0  0  0  0  0  0
    8.8116  -15.4686   23.9834 C   0  0  0  0  0  0  0  0  0  0  0  0
    9.1700  -16.4110   23.0945 N   0  0  0  0  0  0  0  0  0  0  0  0
   13.4430  -18.6476   22.9506 C   0  0  0  0  0  0  0  0  0  0  0  0
   13.8450  -19.0581   24.0487 O   0  0  0  0  0  0  0  0  0  0  0  0
   13.6339  -19.5209   21.8607 O   0  0  0  0  0  0  0  0  0  0  0  0
  2  1  1  0
  3  2  1  0
  3  4  1  1
  5  7  1  0
  5  3  1  0
  5  6  1  6
  7  8  2  0
  9 10  1  0
  9  7  1  0
 10 11  1  1
 12 11  1  0
 13 12  2  0
 14 10  1  0
 14 15  2  0
 16 12  1  0
 17 14  1  0
 18 17  1  0
 18 25  1  0
 18 19  1  6
 20 19  1  0
 21 20  2  0
 22 23  1  0
 22 21  1  0
 23 24  2  0
 24 20  1  0
 25 27  1  0
 26 25  2  0
M  END
$$$$
