IDH.pdb
     RDKit          3D

 27 27  0  0  1  0  0  0  0  0999 V2000
    6.5031  -11.8955   25.4291 C   0  0  0  0  0  0  0  0  0  0  0  0
    6.6187  -12.6783   24.1581 C   0  0  0  0  0  0  0  0  0  0  0  0
    7.7048  -13.7133   24.3239 C   0  0  2  0  0  0  0  0  0  0  0  0
    8.9924  -13.0147   24.6999 C   0  0  0  0  0  0  0  0  0  0  0  0
    7.8682  -14.5872   23.1087 C   0  0  2  0  0  0  0  0  0  0  0  0
    6.5673  -15.0209   22.6413 N   0  0  0  0  0  0  0  0  0  0  0  0
    8.7927  -15.7188   23.3022 C   0  0  0  0  0  0  0  0  0  0  0  0
    8.4577  -16.8816   23.5622 O   0  0  0  0  0  0  0  0  0  0  0  0
   10.1910  -15.4493   23.1791 N   0  0  0  0  0  0  0  0  0  0  0  0
   11.1350  -16.5363   23.3279 C   0  0  1  0  0  0  0  0  0  0  0  0
   12.5210  -16.0830   22.9034 C   0  0  0  0  0  0  0  0  0  0  0  0
   13.5049  -17.1862   22.8820 C   0  0  0  0  0  0  0  0  0  0  0  0
   14.5809  -17.2217   23.5120 O   0  0  0  0  0  0  0  0  0  0  0  0
   11.1520  -17.0639   24.7182 C   0  0  0  0  0  0  0  0  0  0  0  0
   10.5108  -18.1210   24.9453 O   0  0  0  0  0  0  0  0  0  0  0  0
   13.1972  -18.2803   22.0857 O   0  0  0  0  0  0  0  0  0  0  0  0
   11.8393  -16.4528   25.7866 N   0  0  0  0  0  0  0  0  0  0  0  0
   11.8507  -17.0227   27.1435 C   0  0  1  0  0  0  0  0  0  0  0  0
   10.4704  -17.1607   27.6845 C   0  0  0  0  0  0  0  0  0  0  0  0
    9.8923  -15.8247   27.9455 C   0  0  0  0  0  0  0  0  0  0  0  0
   10.5818  -14.6163   27.8014 C   0  0  0  0  0  0  0  0  0  0  0  0
    9.7648  -13.5993   28.1188 N   0  0  0  0  0  0  0  0  0  0  0  0
    8.5781  -14.1180   28.4603 C   0  0  0  0  0  0  0  0  0  0  0  0
    8.6620  -15.4553   28.3539 N   0  0  0  0  0  0  0  0  0  0  0  0
   12.5210  -18.3497   27.1011 C   0  0  0  0  0  0  0  0  0  0  0  0
   12.9526  -18.8889   26.0720 O   0  0  0  0  0  0  0  0  0  0  0  0
   12.6965  -19.0771   28.2958 O   0  0  0  0  0  0  0  0  0  0  0  0
  2  1  1  0
  3  2  1  0
  3  4  1  6
  5  7  1  0
  5  3  1  0
  5  6  1  1
  7  8  2  0
  9 10  1  0
  9  7  1  0
 10 11  1  1
 12 11  1  0
 13 12  2  0
 14 10  1  0
 14 15  2  0
 16 12  1  0
 17 14  1  0
 18 17  1  0
 18 25  1  0
 18 19  1  6
 20 19  1  0
 21 20  2  0
 22 23  1  0
 22 21  1  0
 23 24  2  0
 24 20  1  0
 25 27  1  0
 26 25  2  0
M  END
$$$$
