IDH.pdb
     RDKit          3D

 27 27  0  0  1  0  0  0  0  0999 V2000
    8.1485  -12.0795   19.9032 C   0  0  0  0  0  0  0  0  0  0  0  0
    7.8234  -12.6943   21.2290 C   0  0  0  0  0  0  0  0  0  0  0  0
    8.1898  -14.1579   21.1871 C   0  0  2  0  0  0  0  0  0  0  0  0
    7.4051  -14.8268   20.0806 C   0  0  0  0  0  0  0  0  0  0  0  0
    7.9985  -14.8454   22.5128 C   0  0  2  0  0  0  0  0  0  0  0  0
    8.2527  -13.9093   23.5889 N   0  0  0  0  0  0  0  0  0  0  0  0
    8.7775  -16.0875   22.6637 C   0  0  0  0  0  0  0  0  0  0  0  0
    8.6956  -17.0789   21.9271 O   0  0  0  0  0  0  0  0  0  0  0  0
    9.7035  -16.1508   23.7508 N   0  0  0  0  0  0  0  0  0  0  0  0
   10.5959  -17.2858   23.8525 C   0  0  1  0  0  0  0  0  0  0  0  0
   11.4074  -17.4250   22.5763 C   0  0  0  0  0  0  0  0  0  0  0  0
   12.3193  -18.5883   22.5993 C   0  0  0  0  0  0  0  0  0  0  0  0
   12.0910  -19.6888   23.1403 O   0  0  0  0  0  0  0  0  0  0  0  0
   11.4865  -17.1809   25.0388 C   0  0  0  0  0  0  0  0  0  0  0  0
   12.2205  -16.1639   25.1248 O   0  0  0  0  0  0  0  0  0  0  0  0
   13.5406  -18.4355   21.9582 O   0  0  0  0  0  0  0  0  0  0  0  0
   11.5548  -18.1468   26.0632 N   0  0  0  0  0  0  0  0  0  0  0  0
   11.1147  -17.8668   27.4395 C   0  0  1  0  0  0  0  0  0  0  0  0
    9.7133  -17.3647   27.4684 C   0  0  0  0  0  0  0  0  0  0  0  0
    9.7054  -15.8885   27.5570 C   0  0  0  0  0  0  0  0  0  0  0  0
   10.8509  -15.0870   27.6034 C   0  0  0  0  0  0  0  0  0  0  0  0
   10.4864  -13.7973   27.6819 N   0  0  0  0  0  0  0  0  0  0  0  0
    9.1479  -13.7491   27.6871 C   0  0  0  0  0  0  0  0  0  0  0  0
    8.6855  -15.0089   27.6118 N   0  0  0  0  0  0  0  0  0  0  0  0
   11.2308  -19.1128   28.2433 C   0  0  0  0  0  0  0  0  0  0  0  0
   11.0997  -20.2588   27.7902 O   0  0  0  0  0  0  0  0  0  0  0  0
   11.5091  -19.0254   29.6225 O   0  0  0  0  0  0  0  0  0  0  0  0
  2  1  1  0
  3  2  1  0
  3  4  1  6
  5  7  1  0
  5  3  1  0
  5  6  1  1
  7  8  2  0
  9 10  1  0
  9  7  1  0
 10 11  1  6
 12 11  1  0
 13 12  2  0
 14 10  1  0
 14 15  2  0
 16 12  1  0
 17 14  1  0
 18 17  1  0
 18 25  1  0
 18 19  1  6
 20 19  1  0
 21 20  2  0
 22 23  1  0
 22 21  1  0
 23 24  2  0
 24 20  1  0
 25 27  1  0
 26 25  2  0
M  END
$$$$
