IDH.pdb
     RDKit          3D

 27 27  0  0  1  0  0  0  0  0999 V2000
    7.8843  -11.6716   19.5953 C   0  0  0  0  0  0  0  0  0  0  0  0
    7.3861  -13.0469   19.2763 C   0  0  0  0  0  0  0  0  0  0  0  0
    8.3357  -14.0567   19.8736 C   0  0  2  0  0  0  0  0  0  0  0  0
    9.7122  -13.8412   19.2849 C   0  0  0  0  0  0  0  0  0  0  0  0
    7.8620  -15.4756   19.7023 C   0  0  2  0  0  0  0  0  0  0  0  0
    6.4989  -15.5954   20.1782 N   0  0  0  0  0  0  0  0  0  0  0  0
    8.7508  -16.4832   20.3084 C   0  0  0  0  0  0  0  0  0  0  0  0
    8.7414  -16.8243   21.4982 O   0  0  0  0  0  0  0  0  0  0  0  0
    9.7012  -17.1178   19.4499 N   0  0  0  0  0  0  0  0  0  0  0  0
   10.5396  -18.1710   19.9817 C   0  0  1  0  0  0  0  0  0  0  0  0
   10.5780  -19.3425   19.0160 C   0  0  0  0  0  0  0  0  0  0  0  0
   11.3759  -20.4792   19.5229 C   0  0  0  0  0  0  0  0  0  0  0  0
   12.1110  -21.2213   18.8411 O   0  0  0  0  0  0  0  0  0  0  0  0
   11.9127  -17.6837   20.2796 C   0  0  0  0  0  0  0  0  0  0  0  0
   12.5890  -17.2332   19.3205 O   0  0  0  0  0  0  0  0  0  0  0  0
   11.2952  -20.7394   20.8836 O   0  0  0  0  0  0  0  0  0  0  0  0
   12.4947  -17.6976   21.5634 N   0  0  0  0  0  0  0  0  0  0  0  0
   13.5945  -16.7944   21.9388 C   0  0  1  0  0  0  0  0  0  0  0  0
   13.2235  -15.3692   21.7196 C   0  0  0  0  0  0  0  0  0  0  0  0
   13.7534  -14.9014   20.4206 C   0  0  0  0  0  0  0  0  0  0  0  0
   14.4722  -15.6954   19.5208 C   0  0  0  0  0  0  0  0  0  0  0  0
   14.8015  -14.9605   18.4466 N   0  0  0  0  0  0  0  0  0  0  0  0
   14.3174  -13.7254   18.6307 C   0  0  0  0  0  0  0  0  0  0  0  0
   13.6890  -13.6971   19.8185 N   0  0  0  0  0  0  0  0  0  0  0  0
   13.9363  -17.0225   23.3682 C   0  0  0  0  0  0  0  0  0  0  0  0
   14.9969  -16.6708   23.9042 O   0  0  0  0  0  0  0  0  0  0  0  0
   13.0139  -17.6823   24.2054 O   0  0  0  0  0  0  0  0  0  0  0  0
  2  1  1  0
  3  2  1  0
  3  4  1  6
  5  7  1  0
  5  3  1  0
  5  6  1  1
  7  8  2  0
  9 10  1  0
  9  7  1  0
 10 11  1  6
 12 11  1  0
 13 12  2  0
 14 10  1  0
 14 15  2  0
 16 12  1  0
 17 14  1  0
 18 17  1  0
 18 25  1  0
 18 19  1  1
 20 19  1  0
 21 20  2  0
 22 23  1  0
 22 21  1  0
 23 24  2  0
 24 20  1  0
 25 27  1  0
 26 25  2  0
M  END
$$$$
