IDH.pdb
     RDKit          3D

 27 27  0  0  1  0  0  0  0  0999 V2000
    6.4767  -11.1828   26.4962 C   0  0  0  0  0  0  0  0  0  0  0  0
    5.9342  -12.4792   25.9801 C   0  0  0  0  0  0  0  0  0  0  0  0
    7.0906  -13.3930   25.6548 C   0  0  2  0  0  0  0  0  0  0  0  0
    8.0111  -12.6896   24.6825 C   0  0  0  0  0  0  0  0  0  0  0  0
    6.6459  -14.7372   25.1426 C   0  0  2  0  0  0  0  0  0  0  0  0
    5.6338  -15.2841   26.0231 N   0  0  0  0  0  0  0  0  0  0  0  0
    7.7490  -15.6866   24.9097 C   0  0  0  0  0  0  0  0  0  0  0  0
    8.1170  -16.5656   25.6996 O   0  0  0  0  0  0  0  0  0  0  0  0
    8.4506  -15.5823   23.6687 N   0  0  0  0  0  0  0  0  0  0  0  0
    9.4959  -16.5368   23.3665 C   0  0  1  0  0  0  0  0  0  0  0  0
   10.0318  -16.2948   21.9663 C   0  0  0  0  0  0  0  0  0  0  0  0
   11.0202  -17.3106   21.5458 C   0  0  0  0  0  0  0  0  0  0  0  0
   10.7836  -18.5139   21.3177 O   0  0  0  0  0  0  0  0  0  0  0  0
   10.5923  -16.4882   24.3701 C   0  0  0  0  0  0  0  0  0  0  0  0
   11.4049  -15.5319   24.2954 O   0  0  0  0  0  0  0  0  0  0  0  0
   12.3303  -16.8793   21.3926 O   0  0  0  0  0  0  0  0  0  0  0  0
   10.7717  -17.4436   25.3909 N   0  0  0  0  0  0  0  0  0  0  0  0
   11.8799  -17.3651   26.3563 C   0  0  1  0  0  0  0  0  0  0  0  0
   11.3826  -17.4311   27.7581 C   0  0  0  0  0  0  0  0  0  0  0  0
   10.6626  -16.1853   28.0998 C   0  0  0  0  0  0  0  0  0  0  0  0
   10.8438  -14.9577   27.4542 C   0  0  0  0  0  0  0  0  0  0  0  0
   10.0372  -14.0406   28.0116 N   0  0  0  0  0  0  0  0  0  0  0  0
    9.3480  -14.6414   28.9903 C   0  0  0  0  0  0  0  0  0  0  0  0
    9.7288  -15.9296   29.0377 N   0  0  0  0  0  0  0  0  0  0  0  0
   12.8255  -18.4826   26.0933 C   0  0  0  0  0  0  0  0  0  0  0  0
   13.8584  -18.6996   26.7428 O   0  0  0  0  0  0  0  0  0  0  0  0
   12.5628  -19.3803   25.0387 O   0  0  0  0  0  0  0  0  0  0  0  0
  2  1  1  0
  3  2  1  0
  3  4  1  6
  5  7  1  0
  5  3  1  0
  5  6  1  1
  7  8  2  0
  9 10  1  0
  9  7  1  0
 10 11  1  6
 12 11  1  0
 13 12  2  0
 14 10  1  0
 14 15  2  0
 16 12  1  0
 17 14  1  0
 18 17  1  0
 18 25  1  0
 18 19  1  1
 20 19  1  0
 21 20  2  0
 22 23  1  0
 22 21  1  0
 23 24  2  0
 24 20  1  0
 25 27  1  0
 26 25  2  0
M  END
$$$$
