IDH.pdb
     RDKit          3D

 27 27  0  0  1  0  0  0  0  0999 V2000
    7.4771  -11.7196   19.3636 C   0  0  0  0  0  0  0  0  0  0  0  0
    8.3255  -12.7951   18.7595 C   0  0  0  0  0  0  0  0  0  0  0  0
    8.5076  -13.8964   19.7756 C   0  0  2  0  0  0  0  0  0  0  0  0
    9.1635  -13.3189   21.0100 C   0  0  0  0  0  0  0  0  0  0  0  0
    9.2683  -15.0749   19.2285 C   0  0  2  0  0  0  0  0  0  0  0  0
    8.6239  -15.5543   18.0228 N   0  0  0  0  0  0  0  0  0  0  0  0
    9.4870  -16.1556   20.2067 C   0  0  0  0  0  0  0  0  0  0  0  0
    8.7298  -17.1166   20.3944 O   0  0  0  0  0  0  0  0  0  0  0  0
   10.6717  -16.0866   21.0035 N   0  0  0  0  0  0  0  0  0  0  0  0
   10.8742  -17.0626   22.0529 C   0  0  1  0  0  0  0  0  0  0  0  0
   12.1369  -17.8621   21.7827 C   0  0  0  0  0  0  0  0  0  0  0  0
   13.3188  -17.0066   21.5452 C   0  0  0  0  0  0  0  0  0  0  0  0
   14.4134  -17.3808   21.0784 O   0  0  0  0  0  0  0  0  0  0  0  0
   10.9273  -16.4244   23.3951 C   0  0  0  0  0  0  0  0  0  0  0  0
   11.0815  -15.1776   23.4387 O   0  0  0  0  0  0  0  0  0  0  0  0
   13.1926  -15.6642   21.8738 O   0  0  0  0  0  0  0  0  0  0  0  0
   10.8157  -17.1301   24.6103 N   0  0  0  0  0  0  0  0  0  0  0  0
    9.7939  -16.8047   25.6183 C   0  0  1  0  0  0  0  0  0  0  0  0
    8.4386  -16.7197   25.0076 C   0  0  0  0  0  0  0  0  0  0  0  0
    7.8603  -15.3788   25.2414 C   0  0  0  0  0  0  0  0  0  0  0  0
    8.4919  -14.3513   25.9499 C   0  0  0  0  0  0  0  0  0  0  0  0
    7.6924  -13.2730   25.9738 N   0  0  0  0  0  0  0  0  0  0  0  0
    6.5729  -13.5779   25.3048 C   0  0  0  0  0  0  0  0  0  0  0  0
    6.6807  -14.8444   24.8677 N   0  0  0  0  0  0  0  0  0  0  0  0
    9.8156  -17.8481   26.6779 C   0  0  0  0  0  0  0  0  0  0  0  0
    9.7059  -17.6227   27.8916 O   0  0  0  0  0  0  0  0  0  0  0  0
    9.9702  -19.2017   26.3158 O   0  0  0  0  0  0  0  0  0  0  0  0
  2  1  1  0
  3  2  1  0
  3  4  1  1
  5  7  1  0
  5  3  1  0
  5  6  1  6
  7  8  2  0
  9 10  1  0
  9  7  1  0
 10 11  1  6
 12 11  1  0
 13 12  2  0
 14 10  1  0
 14 15  2  0
 16 12  1  0
 17 14  1  0
 18 17  1  0
 18 25  1  0
 18 19  1  6
 20 19  1  0
 21 20  2  0
 22 23  1  0
 22 21  1  0
 23 24  2  0
 24 20  1  0
 25 27  1  0
 26 25  2  0
M  END
$$$$
