IDH.pdb
     RDKit          3D

 27 27  0  0  1  0  0  0  0  0999 V2000
    8.1075  -12.0280   20.4451 C   0  0  0  0  0  0  0  0  0  0  0  0
    8.4864  -13.3522   19.8582 C   0  0  0  0  0  0  0  0  0  0  0  0
    9.1963  -13.1156   18.5473 C   0  0  2  0  0  0  0  0  0  0  0  0
    8.2696  -12.3634   17.6183 C   0  0  0  0  0  0  0  0  0  0  0  0
    9.7127  -14.3861   17.9259 C   0  0  2  0  0  0  0  0  0  0  0  0
    8.5987  -15.2267   17.5372 N   0  0  0  0  0  0  0  0  0  0  0  0
   10.6881  -15.1101   18.7607 C   0  0  0  0  0  0  0  0  0  0  0  0
   10.4931  -16.2048   19.3045 O   0  0  0  0  0  0  0  0  0  0  0  0
   11.9638  -14.4961   18.9575 N   0  0  0  0  0  0  0  0  0  0  0  0
   12.9889  -15.2157   19.6829 C   0  0  1  0  0  0  0  0  0  0  0  0
   14.3309  -14.5267   19.5070 C   0  0  0  0  0  0  0  0  0  0  0  0
   14.8990  -14.7118   18.1548 C   0  0  0  0  0  0  0  0  0  0  0  0
   15.2107  -15.8010   17.6329 O   0  0  0  0  0  0  0  0  0  0  0  0
   12.6486  -15.3545   21.1239 C   0  0  0  0  0  0  0  0  0  0  0  0
   11.7771  -14.5785   21.5914 O   0  0  0  0  0  0  0  0  0  0  0  0
   15.1018  -13.5640   17.4016 O   0  0  0  0  0  0  0  0  0  0  0  0
   13.2413  -16.2973   21.9882 N   0  0  0  0  0  0  0  0  0  0  0  0
   12.4516  -17.1071   22.9299 C   0  0  1  0  0  0  0  0  0  0  0  0
   11.3997  -17.8881   22.2225 C   0  0  0  0  0  0  0  0  0  0  0  0
   10.0772  -17.2584   22.4267 C   0  0  0  0  0  0  0  0  0  0  0  0
    9.8558  -16.0925   23.1670 C   0  0  0  0  0  0  0  0  0  0  0  0
    8.5458  -15.7989   23.1501 N   0  0  0  0  0  0  0  0  0  0  0  0
    7.9246  -16.7377   22.4244 C   0  0  0  0  0  0  0  0  0  0  0  0
    8.8507  -17.6112   21.9930 N   0  0  0  0  0  0  0  0  0  0  0  0
   13.3676  -18.0231   23.6606 C   0  0  0  0  0  0  0  0  0  0  0  0
   14.0942  -18.8705   23.1222 O   0  0  0  0  0  0  0  0  0  0  0  0
   13.4430  -17.9530   25.0664 O   0  0  0  0  0  0  0  0  0  0  0  0
  2  1  1  0
  3  2  1  0
  3  4  1  6
  5  7  1  0
  5  3  1  0
  5  6  1  1
  7  8  2  0
  9 10  1  0
  9  7  1  0
 10 11  1  1
 12 11  1  0
 13 12  2  0
 14 10  1  0
 14 15  2  0
 16 12  1  0
 17 14  1  0
 18 17  1  0
 18 25  1  0
 18 19  1  6
 20 19  1  0
 21 20  2  0
 22 23  1  0
 22 21  1  0
 23 24  2  0
 24 20  1  0
 25 27  1  0
 26 25  2  0
M  END
$$$$
