IDH.pdb
     RDKit          3D

 27 27  0  0  1  0  0  0  0  0999 V2000
    7.5145  -11.8260   19.6862 C   0  0  0  0  0  0  0  0  0  0  0  0
    7.9631  -12.7436   18.5916 C   0  0  0  0  0  0  0  0  0  0  0  0
    8.9897  -13.6986   19.1504 C   0  0  2  0  0  0  0  0  0  0  0  0
   10.0916  -12.9004   19.8108 C   0  0  0  0  0  0  0  0  0  0  0  0
    9.5235  -14.6526   18.1151 C   0  0  2  0  0  0  0  0  0  0  0  0
    8.4234  -15.2259   17.3668 N   0  0  0  0  0  0  0  0  0  0  0  0
   10.4228  -15.6868   18.6576 C   0  0  0  0  0  0  0  0  0  0  0  0
   10.0613  -16.7553   19.1672 O   0  0  0  0  0  0  0  0  0  0  0  0
   11.8278  -15.4332   18.5889 N   0  0  0  0  0  0  0  0  0  0  0  0
   12.7461  -16.3833   19.1797 C   0  0  1  0  0  0  0  0  0  0  0  0
   14.1255  -16.2246   18.5643 C   0  0  0  0  0  0  0  0  0  0  0  0
   14.1960  -16.7255   17.1752 C   0  0  0  0  0  0  0  0  0  0  0  0
   13.7570  -17.8192   16.7666 O   0  0  0  0  0  0  0  0  0  0  0  0
   12.8059  -16.2438   20.6590 C   0  0  0  0  0  0  0  0  0  0  0  0
   13.3730  -15.2223   21.1229 O   0  0  0  0  0  0  0  0  0  0  0  0
   14.8083  -15.8978   16.2447 O   0  0  0  0  0  0  0  0  0  0  0  0
   12.2684  -17.1822   21.5633 N   0  0  0  0  0  0  0  0  0  0  0  0
   12.2934  -16.9749   23.0202 C   0  0  1  0  0  0  0  0  0  0  0  0
   11.0475  -17.4794   23.6605 C   0  0  0  0  0  0  0  0  0  0  0  0
    9.8810  -16.7104   23.1756 C   0  0  0  0  0  0  0  0  0  0  0  0
    9.9069  -15.3540   22.8346 C   0  0  0  0  0  0  0  0  0  0  0  0
    8.6826  -14.9740   22.4356 N   0  0  0  0  0  0  0  0  0  0  0  0
    7.8773  -16.0415   22.5106 C   0  0  0  0  0  0  0  0  0  0  0  0
    8.6038  -17.0810   22.9558 N   0  0  0  0  0  0  0  0  0  0  0  0
   13.4798  -17.6726   23.5839 C   0  0  0  0  0  0  0  0  0  0  0  0
   13.7902  -17.6780   24.7837 O   0  0  0  0  0  0  0  0  0  0  0  0
   14.3364  -18.3897   22.7243 O   0  0  0  0  0  0  0  0  0  0  0  0
  2  1  1  0
  3  2  1  0
  3  4  1  6
  5  7  1  0
  5  3  1  0
  5  6  1  1
  7  8  2  0
  9 10  1  0
  9  7  1  0
 10 11  1  6
 12 11  1  0
 13 12  2  0
 14 10  1  0
 14 15  2  0
 16 12  1  0
 17 14  1  0
 18 17  1  0
 18 25  1  0
 18 19  1  1
 20 19  1  0
 21 20  2  0
 22 23  1  0
 22 21  1  0
 23 24  2  0
 24 20  1  0
 25 27  1  0
 26 25  2  0
M  END
$$$$
