IDH.pdb
     RDKit          3D

 27 27  0  0  1  0  0  0  0  0999 V2000
    6.5498  -11.4586   27.0998 C   0  0  0  0  0  0  0  0  0  0  0  0
    6.0080  -12.5498   26.2298 C   0  0  0  0  0  0  0  0  0  0  0  0
    7.1213  -13.5212   25.9213 C   0  0  2  0  0  0  0  0  0  0  0  0
    8.2470  -12.7746   25.2410 C   0  0  0  0  0  0  0  0  0  0  0  0
    6.6565  -14.7040   25.1139 C   0  0  2  0  0  0  0  0  0  0  0  0
    5.4950  -15.2984   25.7436 N   0  0  0  0  0  0  0  0  0  0  0  0
    7.7100  -15.6989   24.8440 C   0  0  0  0  0  0  0  0  0  0  0  0
    7.9837  -16.6667   25.5655 O   0  0  0  0  0  0  0  0  0  0  0  0
    8.4781  -15.5306   23.6504 N   0  0  0  0  0  0  0  0  0  0  0  0
    9.5211  -16.4856   23.3418 C   0  0  1  0  0  0  0  0  0  0  0  0
   10.0179  -16.2723   21.9226 C   0  0  0  0  0  0  0  0  0  0  0  0
   10.9871  -17.3023   21.4922 C   0  0  0  0  0  0  0  0  0  0  0  0
   10.9901  -18.4991   21.8435 O   0  0  0  0  0  0  0  0  0  0  0  0
   10.6436  -16.4079   24.3142 C   0  0  0  0  0  0  0  0  0  0  0  0
   11.4343  -15.4361   24.2107 O   0  0  0  0  0  0  0  0  0  0  0  0
   11.9830  -16.8935   20.6165 O   0  0  0  0  0  0  0  0  0  0  0  0
   10.8703  -17.3521   25.3360 N   0  0  0  0  0  0  0  0  0  0  0  0
   12.0374  -17.2794   26.2298 C   0  0  1  0  0  0  0  0  0  0  0  0
   11.6246  -17.2776   27.6603 C   0  0  0  0  0  0  0  0  0  0  0  0
   10.9507  -16.0037   27.9920 C   0  0  0  0  0  0  0  0  0  0  0  0
   10.9796  -14.8557   27.1934 C   0  0  0  0  0  0  0  0  0  0  0  0
   10.2685  -13.8844   27.7877 N   0  0  0  0  0  0  0  0  0  0  0  0
    9.7872  -14.3739   28.9378 C   0  0  0  0  0  0  0  0  0  0  0  0
   10.2010  -15.6474   29.0540 N   0  0  0  0  0  0  0  0  0  0  0  0
   12.9268  -18.4389   25.9530 C   0  0  0  0  0  0  0  0  0  0  0  0
   12.7244  -19.2885   25.0737 O   0  0  0  0  0  0  0  0  0  0  0  0
   14.0929  -18.6188   26.7244 O   0  0  0  0  0  0  0  0  0  0  0  0
  2  1  1  0
  3  2  1  0
  3  4  1  6
  5  7  1  0
  5  3  1  0
  5  6  1  1
  7  8  2  0
  9 10  1  0
  9  7  1  0
 10 11  1  6
 12 11  1  0
 13 12  2  0
 14 10  1  0
 14 15  2  0
 16 12  1  0
 17 14  1  0
 18 17  1  0
 18 25  1  0
 18 19  1  1
 20 19  1  0
 21 20  2  0
 22 23  1  0
 22 21  1  0
 23 24  2  0
 24 20  1  0
 25 27  1  0
 26 25  2  0
M  END
$$$$
