IDH.pdb
     RDKit          3D

 27 27  0  0  1  0  0  0  0  0999 V2000
    8.7848  -12.0530   19.8021 C   0  0  0  0  0  0  0  0  0  0  0  0
    8.6814  -13.2589   20.6833 C   0  0  0  0  0  0  0  0  0  0  0  0
    8.2204  -14.4298   19.8497 C   0  0  2  0  0  0  0  0  0  0  0  0
    6.8770  -14.0968   19.2397 C   0  0  0  0  0  0  0  0  0  0  0  0
    8.1865  -15.7202   20.6247 C   0  0  2  0  0  0  0  0  0  0  0  0
    7.0924  -15.6905   21.5740 N   0  0  0  0  0  0  0  0  0  0  0  0
    9.4667  -16.0701   21.2658 C   0  0  0  0  0  0  0  0  0  0  0  0
   10.4371  -16.5845   20.6951 O   0  0  0  0  0  0  0  0  0  0  0  0
    9.5966  -15.7917   22.6618 N   0  0  0  0  0  0  0  0  0  0  0  0
   10.5805  -16.5165   23.4374 C   0  0  1  0  0  0  0  0  0  0  0  0
   11.8209  -15.6621   23.6324 C   0  0  0  0  0  0  0  0  0  0  0  0
   12.9420  -16.0689   22.7589 C   0  0  0  0  0  0  0  0  0  0  0  0
   13.9505  -16.7127   23.1116 O   0  0  0  0  0  0  0  0  0  0  0  0
   10.0311  -16.9607   24.7460 C   0  0  0  0  0  0  0  0  0  0  0  0
    9.1784  -16.2204   25.2984 O   0  0  0  0  0  0  0  0  0  0  0  0
   12.8587  -15.6973   21.4244 O   0  0  0  0  0  0  0  0  0  0  0  0
   10.4076  -18.1530   25.3971 N   0  0  0  0  0  0  0  0  0  0  0  0
    9.8252  -18.5643   26.6846 C   0  0  1  0  0  0  0  0  0  0  0  0
    8.9337  -19.7458   26.5228 C   0  0  0  0  0  0  0  0  0  0  0  0
    7.7123  -19.3619   25.7827 C   0  0  0  0  0  0  0  0  0  0  0  0
    7.4375  -18.0734   25.3128 C   0  0  0  0  0  0  0  0  0  0  0  0
    6.2493  -18.0737   24.6877 N   0  0  0  0  0  0  0  0  0  0  0  0
    5.7573  -19.3181   24.7431 C   0  0  0  0  0  0  0  0  0  0  0  0
    6.6414  -20.0866   25.4023 N   0  0  0  0  0  0  0  0  0  0  0  0
   10.9280  -18.8784   27.6318 C   0  0  0  0  0  0  0  0  0  0  0  0
   10.9325  -18.5762   28.8337 O   0  0  0  0  0  0  0  0  0  0  0  0
   12.0663  -19.5679   27.1673 O   0  0  0  0  0  0  0  0  0  0  0  0
  2  1  1  0
  3  2  1  0
  3  4  1  1
  5  7  1  0
  5  3  1  0
  5  6  1  1
  7  8  2  0
  9 10  1  0
  9  7  1  0
 10 11  1  1
 12 11  1  0
 13 12  2  0
 14 10  1  0
 14 15  2  0
 16 12  1  0
 17 14  1  0
 18 17  1  0
 18 25  1  0
 18 19  1  6
 20 19  1  0
 21 20  2  0
 22 23  1  0
 22 21  1  0
 23 24  2  0
 24 20  1  0
 25 27  1  0
 26 25  2  0
M  END
$$$$
