HYQ.pdb
     RDKit          3D

 32 33  0  0  1  0  0  0  0  0999 V2000
   27.0307  -24.6371  -20.9146 N   0  0  0  0  0  0  0  0  0  0  0  0
   26.1607  -23.6110  -20.4002 C   0  0  1  0  0  0  0  0  0  0  0  0
   25.2507  -23.1579  -21.5186 C   0  0  0  0  0  0  0  0  0  0  0  0
   26.0582  -22.4808  -22.5654 C   0  0  0  0  0  0  0  0  0  0  0  0
   26.0335  -22.7975  -23.9114 C   0  0  0  0  0  0  0  0  0  0  0  0
   26.8755  -22.0039  -24.5956 N   0  0  0  0  0  0  0  0  0  0  0  0
   27.4246  -21.1918  -23.6702 C   0  0  0  0  0  0  0  0  0  0  0  0
   26.9385  -21.4726  -22.4493 N   0  0  0  0  0  0  0  0  0  0  0  0
   25.3522  -24.1228  -19.2364 C   0  0  0  0  0  0  0  0  0  0  0  0
   24.5851  -25.0996  -19.3591 O   0  0  0  0  0  0  0  0  0  0  0  0
   29.1322  -28.5531  -17.0853 O   0  0  0  0  0  0  0  0  0  0  0  0
   28.2805  -27.4986  -16.7295 C   0  0  0  0  0  0  0  0  0  0  0  0
   27.0579  -27.7436  -16.1470 C   0  0  0  0  0  0  0  0  0  0  0  0
   26.1750  -26.7217  -15.7753 C   0  0  0  0  0  0  0  0  0  0  0  0
   26.5300  -25.4212  -15.9941 C   0  0  0  0  0  0  0  0  0  0  0  0
   25.7049  -24.2532  -15.6417 C   0  0  0  0  0  0  0  0  0  0  0  0
   24.7622  -23.8267  -16.7802 C   0  0  2  0  0  0  0  0  0  0  0  0
   25.4486  -23.4996  -17.9709 N   0  0  0  0  0  0  0  0  0  0  0  0
   23.8207  -22.8301  -16.2734 C   0  0  0  0  0  0  0  0  0  0  0  0
   23.9319  -21.6062  -16.6192 O   0  0  0  0  0  0  0  0  0  0  0  0
   27.7613  -25.1726  -16.5810 C   0  0  0  0  0  0  0  0  0  0  0  0
   28.6292  -26.1737  -16.9468 C   0  0  0  0  0  0  0  0  0  0  0  0
   19.8853  -20.1495  -18.4636 N   0  0  0  0  0  0  0  0  0  0  0  0
   19.5365  -19.8099  -17.1239 C   0  0  0  0  0  0  0  0  0  0  0  0
   18.6243  -18.9462  -16.9622 O   0  0  0  0  0  0  0  0  0  0  0  0
   20.1635  -20.4045  -15.9416 C   0  0  0  0  0  0  0  0  0  0  0  0
   21.2138  -21.4176  -16.1915 C   0  0  0  0  0  0  0  0  0  0  0  0
   21.7602  -22.0704  -14.9943 C   0  0  2  0  0  0  0  0  0  0  0  0
   22.7457  -23.1091  -15.3929 N   0  0  0  0  0  0  0  0  0  0  0  0
   20.8411  -22.6470  -14.0642 C   0  0  0  0  0  0  0  0  0  0  0  0
   20.7144  -23.8660  -13.7981 O   0  0  0  0  0  0  0  0  0  0  0  0
   19.9609  -21.8105  -13.3413 O   0  0  0  0  0  0  0  0  0  0  0  0
  2  1  1  6
  3  2  1  0
  3  4  1  0
  4  8  1  0
  4  5  2  0
  5  6  1  0
  7  6  1  0
  8  7  2  0
  9  2  1  0
 10  9  2  0
 12 11  1  0
 12 22  2  0
 13 12  1  0
 14 13  2  0
 14 15  1  0
 15 21  2  0
 16 15  1  0
 17 16  1  1
 17 18  1  0
 18  9  1  0
 19 17  1  0
 20 19  2  0
 21 22  1  0
 24 23  1  0
 25 24  2  0
 26 24  1  0
 28 27  1  6
 27 26  1  0
 28 29  1  0
 29 19  1  0
 30 32  1  0
 30 28  1  0
 31 30  2  0
M  END
$$$$
