HYQ.pdb
     RDKit          3D

 32 33  0  0  1  0  0  0  0  0999 V2000
   21.0620  -15.9706   11.6151 N   0  0  0  0  0  0  0  0  0  0  0  0
   21.3972  -16.0376   10.2160 C   0  0  1  0  0  0  0  0  0  0  0  0
   22.1796  -17.3084    9.9772 C   0  0  0  0  0  0  0  0  0  0  0  0
   23.5365  -17.1679   10.5649 C   0  0  0  0  0  0  0  0  0  0  0  0
   24.3729  -16.0834   10.3731 C   0  0  0  0  0  0  0  0  0  0  0  0
   25.5283  -16.2587   11.0373 N   0  0  0  0  0  0  0  0  0  0  0  0
   25.4079  -17.4568   11.6436 C   0  0  0  0  0  0  0  0  0  0  0  0
   24.2147  -18.0081   11.3643 N   0  0  0  0  0  0  0  0  0  0  0  0
   20.1560  -16.0136    9.3622 C   0  0  0  0  0  0  0  0  0  0  0  0
   19.1629  -16.7160    9.6415 O   0  0  0  0  0  0  0  0  0  0  0  0
   14.6214  -13.4483    2.9548 O   0  0  0  0  0  0  0  0  0  0  0  0
   15.7465  -13.5609    3.7828 C   0  0  0  0  0  0  0  0  0  0  0  0
   17.0087  -13.6797    3.2474 C   0  0  0  0  0  0  0  0  0  0  0  0
   18.1608  -13.7947    4.0358 C   0  0  0  0  0  0  0  0  0  0  0  0
   18.0410  -13.7898    5.3962 C   0  0  0  0  0  0  0  0  0  0  0  0
   19.1671  -13.8907    6.3402 C   0  0  0  0  0  0  0  0  0  0  0  0
   19.0970  -15.1539    7.2155 C   0  0  2  0  0  0  0  0  0  0  0  0
   20.0928  -15.1864    8.2171 N   0  0  0  0  0  0  0  0  0  0  0  0
   18.9998  -16.3292    6.3519 C   0  0  0  0  0  0  0  0  0  0  0  0
   20.0441  -16.8027    5.7904 O   0  0  0  0  0  0  0  0  0  0  0  0
   16.7701  -13.6705    5.9373 C   0  0  0  0  0  0  0  0  0  0  0  0
   15.6382  -13.5577    5.1657 C   0  0  0  0  0  0  0  0  0  0  0  0
   17.2858  -21.4912    8.1889 N   0  0  0  0  0  0  0  0  0  0  0  0
   18.1695  -21.6058    7.0763 C   0  0  0  0  0  0  0  0  0  0  0  0
   18.9209  -22.6244    7.0337 O   0  0  0  0  0  0  0  0  0  0  0  0
   18.2473  -20.6249    5.9916 C   0  0  0  0  0  0  0  0  0  0  0  0
   17.4137  -19.4105    6.1398 C   0  0  0  0  0  0  0  0  0  0  0  0
   17.7812  -18.2819    5.2742 C   0  0  2  0  0  0  0  0  0  0  0  0
   17.7982  -17.0246    6.0668 N   0  0  0  0  0  0  0  0  0  0  0  0
   17.0113  -18.0640    4.0902 C   0  0  0  0  0  0  0  0  0  0  0  0
   16.0861  -17.2301    3.9442 O   0  0  0  0  0  0  0  0  0  0  0  0
   17.2722  -18.8349    2.9350 O   0  0  0  0  0  0  0  0  0  0  0  0
  2  1  1  1
  3  2  1  0
  3  4  1  0
  4  8  1  0
  4  5  2  0
  5  6  1  0
  7  6  1  0
  8  7  2  0
  9  2  1  0
 10  9  2  0
 12 11  1  0
 12 22  2  0
 13 12  1  0
 14 13  2  0
 14 15  1  0
 15 21  2  0
 16 15  1  0
 17 16  1  6
 17 18  1  0
 18  9  1  0
 19 17  1  0
 20 19  2  0
 21 22  1  0
 24 23  1  0
 25 24  2  0
 26 24  1  0
 28 27  1  1
 27 26  1  0
 28 29  1  0
 29 19  1  0
 30 32  1  0
 30 28  1  0
 31 30  2  0
M  END
$$$$
