HYQ.pdb
     RDKit          3D

 32 33  0  0  1  0  0  0  0  0999 V2000
   22.2286  -10.8145  -18.3334 N   0  0  0  0  0  0  0  0  0  0  0  0
   22.4505   -9.4436  -18.7150 C   0  0  1  0  0  0  0  0  0  0  0  0
   22.2107   -9.3216  -20.2021 C   0  0  0  0  0  0  0  0  0  0  0  0
   23.2311  -10.1173  -20.9314 C   0  0  0  0  0  0  0  0  0  0  0  0
   22.9547  -11.1950  -21.7529 C   0  0  0  0  0  0  0  0  0  0  0  0
   24.0913  -11.6990  -22.2638 N   0  0  0  0  0  0  0  0  0  0  0  0
   25.0765  -10.9308  -21.7571 C   0  0  0  0  0  0  0  0  0  0  0  0
   24.5672   -9.9794  -20.9564 N   0  0  0  0  0  0  0  0  0  0  0  0
   21.5365   -8.5176  -17.9552 C   0  0  0  0  0  0  0  0  0  0  0  0
   20.3000   -8.6872  -17.9496 O   0  0  0  0  0  0  0  0  0  0  0  0
   17.8453  -10.7254  -13.2127 O   0  0  0  0  0  0  0  0  0  0  0  0
   18.7373   -9.7343  -13.6445 C   0  0  0  0  0  0  0  0  0  0  0  0
   19.9766  -10.0671  -14.1417 C   0  0  0  0  0  0  0  0  0  0  0  0
   20.8995   -9.1109  -14.5843 C   0  0  0  0  0  0  0  0  0  0  0  0
   20.5682   -7.7872  -14.5260 C   0  0  0  0  0  0  0  0  0  0  0  0
   21.4361   -6.6825  -14.9681 C   0  0  0  0  0  0  0  0  0  0  0  0
   21.3709   -6.4474  -16.4870 C   0  0  2  0  0  0  0  0  0  0  0  0
   22.0681   -7.4283  -17.2271 N   0  0  0  0  0  0  0  0  0  0  0  0
   21.7072   -5.0534  -16.7700 C   0  0  0  0  0  0  0  0  0  0  0  0
   22.9082   -4.6416  -16.6356 O   0  0  0  0  0  0  0  0  0  0  0  0
   19.3200   -7.4502  -14.0251 C   0  0  0  0  0  0  0  0  0  0  0  0
   18.4128   -8.3867  -13.5901 C   0  0  0  0  0  0  0  0  0  0  0  0
   19.1118   -1.7174  -21.2873 N   0  0  0  0  0  0  0  0  0  0  0  0
   20.2054   -2.6305  -21.2409 C   0  0  0  0  0  0  0  0  0  0  0  0
   20.5244   -3.2103  -22.3209 O   0  0  0  0  0  0  0  0  0  0  0  0
   20.9732   -2.9235  -20.0288 C   0  0  0  0  0  0  0  0  0  0  0  0
   20.5179   -2.2633  -18.7843 C   0  0  0  0  0  0  0  0  0  0  0  0
   21.2011   -2.6899  -17.5559 C   0  0  2  0  0  0  0  0  0  0  0  0
   20.7809   -4.0704  -17.1998 N   0  0  0  0  0  0  0  0  0  0  0  0
   21.0791   -1.8630  -16.3967 C   0  0  0  0  0  0  0  0  0  0  0  0
   20.5164   -2.1678  -15.3182 O   0  0  0  0  0  0  0  0  0  0  0  0
   21.6278   -0.5608  -16.4062 O   0  0  0  0  0  0  0  0  0  0  0  0
  2  1  1  1
  3  2  1  0
  3  4  1  0
  4  8  1  0
  4  5  2  0
  5  6  1  0
  7  6  1  0
  8  7  2  0
  9  2  1  0
 10  9  2  0
 12 11  1  0
 12 22  2  0
 13 12  1  0
 14 13  2  0
 14 15  1  0
 15 21  2  0
 16 15  1  0
 17 16  1  1
 17 18  1  0
 18  9  1  0
 19 17  1  0
 20 19  2  0
 21 22  1  0
 24 23  1  0
 25 24  2  0
 26 24  1  0
 28 27  1  6
 27 26  1  0
 28 29  1  0
 29 19  1  0
 30 32  1  0
 30 28  1  0
 31 30  2  0
M  END
$$$$
