HYQ.pdb
     RDKit          3D

 32 33  0  0  1  0  0  0  0  0999 V2000
   25.6694  -12.0623  -17.5840 N   0  0  0  0  0  0  0  0  0  0  0  0
   24.2733  -11.7451  -17.7409 C   0  0  1  0  0  0  0  0  0  0  0  0
   23.4747  -13.0123  -17.5393 C   0  0  0  0  0  0  0  0  0  0  0  0
   23.7067  -13.9271  -18.6862 C   0  0  0  0  0  0  0  0  0  0  0  0
   24.9463  -14.3841  -19.0951 C   0  0  0  0  0  0  0  0  0  0  0  0
   24.8197  -15.1947  -20.1598 N   0  0  0  0  0  0  0  0  0  0  0  0
   23.4962  -15.2407  -20.4123 C   0  0  0  0  0  0  0  0  0  0  0  0
   22.8222  -14.4821  -19.5315 N   0  0  0  0  0  0  0  0  0  0  0  0
   23.8459  -10.6893  -16.7548 C   0  0  0  0  0  0  0  0  0  0  0  0
   23.8468  -10.9104  -15.5265 O   0  0  0  0  0  0  0  0  0  0  0  0
   21.6104   -2.7080  -13.6559 O   0  0  0  0  0  0  0  0  0  0  0  0
   22.1551   -3.7849  -14.3684 C   0  0  0  0  0  0  0  0  0  0  0  0
   22.2577   -3.7451  -15.7401 C   0  0  0  0  0  0  0  0  0  0  0  0
   22.7948   -4.7972  -16.4928 C   0  0  0  0  0  0  0  0  0  0  0  0
   23.2403   -5.9171  -15.8505 C   0  0  0  0  0  0  0  0  0  0  0  0
   23.8365   -7.0877  -16.5163 C   0  0  0  0  0  0  0  0  0  0  0  0
   22.9374   -8.3340  -16.4439 C   0  0  2  0  0  0  0  0  0  0  0  0
   23.4316   -9.4153  -17.2072 N   0  0  0  0  0  0  0  0  0  0  0  0
   21.5519   -7.9391  -16.6904 C   0  0  0  0  0  0  0  0  0  0  0  0
   21.1697   -7.6361  -17.8702 O   0  0  0  0  0  0  0  0  0  0  0  0
   23.1375   -5.9590  -14.4685 C   0  0  0  0  0  0  0  0  0  0  0  0
   22.6107   -4.9279  -13.7278 C   0  0  0  0  0  0  0  0  0  0  0  0
   16.6683  -10.9934  -14.4546 N   0  0  0  0  0  0  0  0  0  0  0  0
   16.1134   -9.9437  -15.2434 C   0  0  0  0  0  0  0  0  0  0  0  0
   14.8679   -9.9835  -15.4700 O   0  0  0  0  0  0  0  0  0  0  0  0
   16.8957   -8.8335  -15.7912 C   0  0  0  0  0  0  0  0  0  0  0  0
   18.3505   -8.8539  -15.5176 C   0  0  0  0  0  0  0  0  0  0  0  0
   19.1073   -7.7062  -16.0352 C   0  0  2  0  0  0  0  0  0  0  0  0
   20.5462   -7.8575  -15.6950 N   0  0  0  0  0  0  0  0  0  0  0  0
   18.6844   -6.3952  -15.6550 C   0  0  0  0  0  0  0  0  0  0  0  0
   18.8125   -5.8680  -14.5242 O   0  0  0  0  0  0  0  0  0  0  0  0
   18.0523   -5.5616  -16.6049 O   0  0  0  0  0  0  0  0  0  0  0  0
  2  1  1  1
  3  2  1  0
  3  4  1  0
  4  8  1  0
  4  5  2  0
  5  6  1  0
  7  6  1  0
  8  7  2  0
  9  2  1  0
 10  9  2  0
 12 11  1  0
 12 22  2  0
 13 12  1  0
 14 13  2  0
 14 15  1  0
 15 21  2  0
 16 15  1  0
 17 16  1  6
 17 18  1  0
 18  9  1  0
 19 17  1  0
 20 19  2  0
 21 22  1  0
 24 23  1  0
 25 24  2  0
 26 24  1  0
 28 27  1  1
 27 26  1  0
 28 29  1  0
 29 19  1  0
 30 32  1  0
 30 28  1  0
 31 30  2  0
M  END
$$$$
