HYQ.pdb
     RDKit          3D

 32 33  0  0  1  0  0  0  0  0999 V2000
   27.9349  -22.2678  -17.7354 N   0  0  0  0  0  0  0  0  0  0  0  0
   27.8726  -21.0853  -16.9157 C   0  0  1  0  0  0  0  0  0  0  0  0
   27.3799  -19.9415  -17.7719 C   0  0  0  0  0  0  0  0  0  0  0  0
   28.4219  -19.5910  -18.7707 C   0  0  0  0  0  0  0  0  0  0  0  0
   28.3495  -19.8755  -20.1221 C   0  0  0  0  0  0  0  0  0  0  0  0
   29.4481  -19.4291  -20.7551 N   0  0  0  0  0  0  0  0  0  0  0  0
   30.2049  -18.8655  -19.7923 C   0  0  0  0  0  0  0  0  0  0  0  0
   29.5950  -18.9591  -18.5986 N   0  0  0  0  0  0  0  0  0  0  0  0
   26.9581  -21.2939  -15.7366 C   0  0  0  0  0  0  0  0  0  0  0  0
   25.8624  -21.8786  -15.8608 O   0  0  0  0  0  0  0  0  0  0  0  0
   24.3444  -20.8616   -7.2382 O   0  0  0  0  0  0  0  0  0  0  0  0
   25.0965  -20.7653   -8.4168 C   0  0  0  0  0  0  0  0  0  0  0  0
   25.4927  -19.5408   -8.9042 C   0  0  0  0  0  0  0  0  0  0  0  0
   26.2447  -19.3970  -10.0772 C   0  0  0  0  0  0  0  0  0  0  0  0
   26.6079  -20.5118  -10.7774 C   0  0  0  0  0  0  0  0  0  0  0  0
   27.4059  -20.5050  -12.0152 C   0  0  0  0  0  0  0  0  0  0  0  0
   26.5745  -20.8609  -13.2598 C   0  0  2  0  0  0  0  0  0  0  0  0
   27.3280  -20.8265  -14.4544 N   0  0  0  0  0  0  0  0  0  0  0  0
   25.3359  -20.0849  -13.2456 C   0  0  0  0  0  0  0  0  0  0  0  0
   25.3443  -18.8542  -13.5848 O   0  0  0  0  0  0  0  0  0  0  0  0
   26.2095  -21.7463  -10.2879 C   0  0  0  0  0  0  0  0  0  0  0  0
   25.4714  -21.8899   -9.1372 C   0  0  0  0  0  0  0  0  0  0  0  0
   22.2553  -18.4058  -17.0915 N   0  0  0  0  0  0  0  0  0  0  0  0
   21.9682  -19.7414  -16.6846 C   0  0  0  0  0  0  0  0  0  0  0  0
   21.5658  -20.5464  -17.5758 O   0  0  0  0  0  0  0  0  0  0  0  0
   22.1193  -20.2264  -15.3111 C   0  0  0  0  0  0  0  0  0  0  0  0
   22.6695  -19.2648  -14.3290 C   0  0  0  0  0  0  0  0  0  0  0  0
   22.8289  -19.7786  -12.9621 C   0  0  2  0  0  0  0  0  0  0  0  0
   24.0674  -20.5955  -12.8728 N   0  0  0  0  0  0  0  0  0  0  0  0
   21.7498  -20.5231  -12.3935 C   0  0  0  0  0  0  0  0  0  0  0  0
   21.7231  -21.7598  -12.1870 O   0  0  0  0  0  0  0  0  0  0  0  0
   20.5674  -19.8540  -12.0047 O   0  0  0  0  0  0  0  0  0  0  0  0
  2  1  1  6
  3  2  1  0
  3  4  1  0
  4  8  1  0
  4  5  2  0
  5  6  1  0
  7  6  1  0
  8  7  2  0
  9  2  1  0
 10  9  2  0
 12 11  1  0
 12 22  2  0
 13 12  1  0
 14 13  2  0
 14 15  1  0
 15 21  2  0
 16 15  1  0
 17 16  1  1
 17 18  1  0
 18  9  1  0
 19 17  1  0
 20 19  2  0
 21 22  1  0
 24 23  1  0
 25 24  2  0
 26 24  1  0
 28 27  1  6
 27 26  1  0
 28 29  1  0
 29 19  1  0
 30 32  1  0
 30 28  1  0
 31 30  2  0
M  END
$$$$
