HYQ.pdb
     RDKit          3D

 32 33  0  0  1  0  0  0  0  0999 V2000
   22.2830  -11.1625  -20.1096 N   0  0  0  0  0  0  0  0  0  0  0  0
   22.2797  -11.4218  -18.6929 C   0  0  1  0  0  0  0  0  0  0  0  0
   23.1139  -12.6554  -18.4356 C   0  0  0  0  0  0  0  0  0  0  0  0
   22.4978  -13.8179  -19.1249 C   0  0  0  0  0  0  0  0  0  0  0  0
   21.2986  -13.7847  -19.8130 C   0  0  0  0  0  0  0  0  0  0  0  0
   21.0161  -14.9962  -20.3221 N   0  0  0  0  0  0  0  0  0  0  0  0
   22.0443  -15.7840  -19.9484 C   0  0  0  0  0  0  0  0  0  0  0  0
   22.9373  -15.0831  -19.2294 N   0  0  0  0  0  0  0  0  0  0  0  0
   22.8276  -10.2451  -17.9279 C   0  0  0  0  0  0  0  0  0  0  0  0
   22.8874  -10.2527  -16.6813 O   0  0  0  0  0  0  0  0  0  0  0  0
   26.2417   -2.0924  -16.7662 O   0  0  0  0  0  0  0  0  0  0  0  0
   25.8438   -3.3180  -17.3173 C   0  0  0  0  0  0  0  0  0  0  0  0
   26.4945   -4.4851  -16.9883 C   0  0  0  0  0  0  0  0  0  0  0  0
   26.1316   -5.7316  -17.5142 C   0  0  0  0  0  0  0  0  0  0  0  0
   25.0883   -5.8068  -18.3924 C   0  0  0  0  0  0  0  0  0  0  0  0
   24.5956   -7.0502  -19.0090 C   0  0  0  0  0  0  0  0  0  0  0  0
   23.6702   -7.8498  -18.0757 C   0  0  2  0  0  0  0  0  0  0  0  0
   23.2888   -9.0986  -18.6151 N   0  0  0  0  0  0  0  0  0  0  0  0
   22.5903   -6.9802  -17.6131 C   0  0  0  0  0  0  0  0  0  0  0  0
   21.5643   -6.7833  -18.3469 O   0  0  0  0  0  0  0  0  0  0  0  0
   24.4318   -4.6318  -18.7251 C   0  0  0  0  0  0  0  0  0  0  0  0
   24.7862   -3.4075  -18.2105 C   0  0  0  0  0  0  0  0  0  0  0  0
   17.7724   -7.9857  -15.7407 N   0  0  0  0  0  0  0  0  0  0  0  0
   17.8133   -6.6546  -15.2327 C   0  0  0  0  0  0  0  0  0  0  0  0
   16.7671   -6.2149  -14.6703 O   0  0  0  0  0  0  0  0  0  0  0  0
   18.9876   -5.7838  -15.3190 C   0  0  0  0  0  0  0  0  0  0  0  0
   20.1956   -6.3663  -15.9463 C   0  0  0  0  0  0  0  0  0  0  0  0
   21.3980   -5.5234  -15.9057 C   0  0  2  0  0  0  0  0  0  0  0  0
   22.5755   -6.3038  -16.3677 N   0  0  0  0  0  0  0  0  0  0  0  0
   21.7301   -4.8849  -14.6711 C   0  0  0  0  0  0  0  0  0  0  0  0
   22.3844   -5.3841  -13.7248 O   0  0  0  0  0  0  0  0  0  0  0  0
   21.3069   -3.5576  -14.4346 O   0  0  0  0  0  0  0  0  0  0  0  0
  2  1  1  6
  3  2  1  0
  3  4  1  0
  4  8  1  0
  4  5  2  0
  5  6  1  0
  7  6  1  0
  8  7  2  0
  9  2  1  0
 10  9  2  0
 12 11  1  0
 12 22  2  0
 13 12  1  0
 14 13  2  0
 14 15  1  0
 15 21  2  0
 16 15  1  0
 17 16  1  6
 17 18  1  0
 18  9  1  0
 19 17  1  0
 20 19  2  0
 21 22  1  0
 24 23  1  0
 25 24  2  0
 26 24  1  0
 28 27  1  1
 27 26  1  0
 28 29  1  0
 29 19  1  0
 30 32  1  0
 30 28  1  0
 31 30  2  0
M  END
$$$$
