HYQ.pdb
     RDKit          3D

 32 33  0  0  1  0  0  0  0  0999 V2000
   27.3602  -21.3973  -17.9689 N   0  0  0  0  0  0  0  0  0  0  0  0
   27.2997  -20.5003  -16.8438 C   0  0  1  0  0  0  0  0  0  0  0  0
   26.7151  -19.1888  -17.3152 C   0  0  0  0  0  0  0  0  0  0  0  0
   27.7296  -18.4585  -18.1174 C   0  0  0  0  0  0  0  0  0  0  0  0
   28.9987  -18.1295  -17.6772 C   0  0  0  0  0  0  0  0  0  0  0  0
   29.6723  -17.4719  -18.6366 N   0  0  0  0  0  0  0  0  0  0  0  0
   28.8176  -17.3927  -19.6761 C   0  0  0  0  0  0  0  0  0  0  0  0
   27.6495  -17.9829  -19.3713 N   0  0  0  0  0  0  0  0  0  0  0  0
   26.4633  -21.0826  -15.7341 C   0  0  0  0  0  0  0  0  0  0  0  0
   25.3873  -21.6686  -15.9719 O   0  0  0  0  0  0  0  0  0  0  0  0
   23.4783  -21.0982   -7.4147 O   0  0  0  0  0  0  0  0  0  0  0  0
   24.3280  -21.0087   -8.5255 C   0  0  0  0  0  0  0  0  0  0  0  0
   25.5850  -20.4600   -8.4113 C   0  0  0  0  0  0  0  0  0  0  0  0
   26.4673  -20.3502   -9.4936 C   0  0  0  0  0  0  0  0  0  0  0  0
   26.0766  -20.8035  -10.7212 C   0  0  0  0  0  0  0  0  0  0  0  0
   26.9067  -20.7608  -11.9371 C   0  0  0  0  0  0  0  0  0  0  0  0
   26.0996  -21.0375  -13.2172 C   0  0  2  0  0  0  0  0  0  0  0  0
   26.8861  -20.9747  -14.3891 N   0  0  0  0  0  0  0  0  0  0  0  0
   24.8843  -20.2256  -13.2012 C   0  0  0  0  0  0  0  0  0  0  0  0
   24.9579  -18.9558  -13.3114 O   0  0  0  0  0  0  0  0  0  0  0  0
   24.8105  -21.3564  -10.8381 C   0  0  0  0  0  0  0  0  0  0  0  0
   23.9429  -21.4650   -9.7776 C   0  0  0  0  0  0  0  0  0  0  0  0
   23.3319  -18.6314  -17.0816 N   0  0  0  0  0  0  0  0  0  0  0  0
   22.2213  -19.4920  -16.8412 C   0  0  0  0  0  0  0  0  0  0  0  0
   21.6810  -20.0383  -17.8480 O   0  0  0  0  0  0  0  0  0  0  0  0
   21.6848  -19.7793  -15.5091 C   0  0  0  0  0  0  0  0  0  0  0  0
   22.3521  -19.1081  -14.3707 C   0  0  0  0  0  0  0  0  0  0  0  0
   22.3699  -19.8657  -13.1123 C   0  0  2  0  0  0  0  0  0  0  0  0
   23.5706  -20.7407  -13.0686 N   0  0  0  0  0  0  0  0  0  0  0  0
   21.2218  -20.6505  -12.7835 C   0  0  0  0  0  0  0  0  0  0  0  0
   20.0753  -20.2195  -12.5137 O   0  0  0  0  0  0  0  0  0  0  0  0
   21.3262  -22.0591  -12.7425 O   0  0  0  0  0  0  0  0  0  0  0  0
  2  1  1  6
  3  2  1  0
  3  4  1  0
  4  8  1  0
  4  5  2  0
  5  6  1  0
  7  6  1  0
  8  7  2  0
  9  2  1  0
 10  9  2  0
 12 11  1  0
 12 22  2  0
 13 12  1  0
 14 13  2  0
 14 15  1  0
 15 21  2  0
 16 15  1  0
 17 16  1  1
 17 18  1  0
 18  9  1  0
 19 17  1  0
 20 19  2  0
 21 22  1  0
 24 23  1  0
 25 24  2  0
 26 24  1  0
 28 27  1  6
 27 26  1  0
 28 29  1  0
 29 19  1  0
 30 32  1  0
 30 28  1  0
 31 30  2  0
M  END
$$$$
