HYQ.pdb
     RDKit          3D

 32 33  0  0  1  0  0  0  0  0999 V2000
   43.4024  -12.5149   -8.2914 N   0  0  0  0  0  0  0  0  0  0  0  0
   43.1810  -11.4741   -7.3208 C   0  0  1  0  0  0  0  0  0  0  0  0
   44.4998  -10.7847   -7.0571 C   0  0  0  0  0  0  0  0  0  0  0  0
   45.5214  -11.8003   -6.6948 C   0  0  0  0  0  0  0  0  0  0  0  0
   46.7319  -11.9698   -7.3415 C   0  0  0  0  0  0  0  0  0  0  0  0
   47.4301  -12.9695   -6.7759 N   0  0  0  0  0  0  0  0  0  0  0  0
   46.6493  -13.4218   -5.7742 C   0  0  0  0  0  0  0  0  0  0  0  0
   45.5020  -12.7244   -5.7198 N   0  0  0  0  0  0  0  0  0  0  0  0
   42.1577  -10.4848   -7.8148 C   0  0  0  0  0  0  0  0  0  0  0  0
   42.1847  -10.0535   -8.9857 O   0  0  0  0  0  0  0  0  0  0  0  0
   36.6286  -12.3222  -11.4945 O   0  0  0  0  0  0  0  0  0  0  0  0
   37.1379  -11.6630  -10.3675 C   0  0  0  0  0  0  0  0  0  0  0  0
   37.3251  -12.3344   -9.1808 C   0  0  0  0  0  0  0  0  0  0  0  0
   37.8311  -11.7167   -8.0300 C   0  0  0  0  0  0  0  0  0  0  0  0
   38.1572  -10.3912   -8.0731 C   0  0  0  0  0  0  0  0  0  0  0  0
   38.7084   -9.6232   -6.9437 C   0  0  0  0  0  0  0  0  0  0  0  0
   40.1199   -9.0808   -7.2269 C   0  0  2  0  0  0  0  0  0  0  0  0
   41.1373  -10.0218   -6.9523 N   0  0  0  0  0  0  0  0  0  0  0  0
   40.2606   -7.7656   -6.6050 C   0  0  0  0  0  0  0  0  0  0  0  0
   40.2923   -7.6558   -5.3334 O   0  0  0  0  0  0  0  0  0  0  0  0
   37.9690   -9.7132   -9.2678 C   0  0  0  0  0  0  0  0  0  0  0  0
   37.4725  -10.3172  -10.3983 C   0  0  0  0  0  0  0  0  0  0  0  0
   43.7683   -1.3378   -6.9581 N   0  0  0  0  0  0  0  0  0  0  0  0
   43.4574   -2.7213   -7.1041 C   0  0  0  0  0  0  0  0  0  0  0  0
   44.2948   -3.4429   -7.7223 O   0  0  0  0  0  0  0  0  0  0  0  0
   42.2412   -3.3443   -6.5775 C   0  0  0  0  0  0  0  0  0  0  0  0
   41.8912   -4.6743   -7.1258 C   0  0  0  0  0  0  0  0  0  0  0  0
   40.6349   -5.2519   -6.6300 C   0  0  2  0  0  0  0  0  0  0  0  0
   40.3701   -6.5440   -7.3152 N   0  0  0  0  0  0  0  0  0  0  0  0
   39.4538   -4.4502   -6.6966 C   0  0  0  0  0  0  0  0  0  0  0  0
   38.6104   -4.4390   -7.6247 O   0  0  0  0  0  0  0  0  0  0  0  0
   39.1518   -3.5614   -5.6403 O   0  0  0  0  0  0  0  0  0  0  0  0
  2  1  1  6
  3  2  1  0
  3  4  1  0
  4  8  1  0
  4  5  2  0
  5  6  1  0
  7  6  1  0
  8  7  2  0
  9  2  1  0
 10  9  2  0
 12 11  1  0
 12 22  2  0
 13 12  1  0
 14 13  2  0
 14 15  1  0
 15 21  2  0
 16 15  1  0
 17 16  1  1
 17 18  1  0
 18  9  1  0
 19 17  1  0
 20 19  2  0
 21 22  1  0
 24 23  1  0
 25 24  2  0
 26 24  1  0
 28 27  1  6
 27 26  1  0
 28 29  1  0
 29 19  1  0
 30 32  1  0
 30 28  1  0
 31 30  2  0
M  END
$$$$
