HYQ.pdb
     RDKit          3D

 32 33  0  0  1  0  0  0  0  0999 V2000
   20.6144  -11.5300  -18.1407 N   0  0  0  0  0  0  0  0  0  0  0  0
   21.6038  -10.6816  -17.5279 C   0  0  1  0  0  0  0  0  0  0  0  0
   22.4383  -10.0598  -18.6239 C   0  0  0  0  0  0  0  0  0  0  0  0
   23.1819  -11.1271  -19.3409 C   0  0  0  0  0  0  0  0  0  0  0  0
   24.0202  -12.0478  -18.7391 C   0  0  0  0  0  0  0  0  0  0  0  0
   24.5411  -12.8789  -19.6581 N   0  0  0  0  0  0  0  0  0  0  0  0
   24.0239  -12.4720  -20.8347 C   0  0  0  0  0  0  0  0  0  0  0  0
   23.2071  -11.4208  -20.6516 N   0  0  0  0  0  0  0  0  0  0  0  0
   20.9528   -9.6125  -16.6892 C   0  0  0  0  0  0  0  0  0  0  0  0
   19.9298   -9.0142  -17.0806 O   0  0  0  0  0  0  0  0  0  0  0  0
   18.4385   -5.2795   -9.4659 O   0  0  0  0  0  0  0  0  0  0  0  0
   19.1526   -6.0948  -10.3544 C   0  0  0  0  0  0  0  0  0  0  0  0
   20.4545   -5.8021  -10.6912 C   0  0  0  0  0  0  0  0  0  0  0  0
   21.2060   -6.5880  -11.5742 C   0  0  0  0  0  0  0  0  0  0  0  0
   20.6347   -7.6959  -12.1322 C   0  0  0  0  0  0  0  0  0  0  0  0
   21.3129   -8.6137  -13.0633 C   0  0  0  0  0  0  0  0  0  0  0  0
   21.0576   -8.2591  -14.5383 C   0  0  2  0  0  0  0  0  0  0  0  0
   21.4943   -9.2638  -15.4304 N   0  0  0  0  0  0  0  0  0  0  0  0
   21.5392   -6.9030  -14.7945 C   0  0  0  0  0  0  0  0  0  0  0  0
   22.7918   -6.6709  -14.8796 O   0  0  0  0  0  0  0  0  0  0  0  0
   19.3231   -7.9922  -11.7942 C   0  0  0  0  0  0  0  0  0  0  0  0
   18.5837   -7.2224  -10.9281 C   0  0  0  0  0  0  0  0  0  0  0  0
   20.0047   -2.9963  -19.2353 N   0  0  0  0  0  0  0  0  0  0  0  0
   20.8093   -2.2098  -18.3603 C   0  0  0  0  0  0  0  0  0  0  0  0
   21.1662   -1.0658  -18.7702 O   0  0  0  0  0  0  0  0  0  0  0  0
   21.2326   -2.6462  -17.0279 C   0  0  0  0  0  0  0  0  0  0  0  0
   20.8088   -4.0026  -16.6128 C   0  0  0  0  0  0  0  0  0  0  0  0
   21.2561   -4.4241  -15.2786 C   0  0  2  0  0  0  0  0  0  0  0  0
   20.7064   -5.7690  -14.9651 N   0  0  0  0  0  0  0  0  0  0  0  0
   20.9921   -3.5552  -14.1753 C   0  0  0  0  0  0  0  0  0  0  0  0
   19.9464   -3.5233  -13.4836 O   0  0  0  0  0  0  0  0  0  0  0  0
   21.9693   -2.6158  -13.7758 O   0  0  0  0  0  0  0  0  0  0  0  0
  2  1  1  6
  3  2  1  0
  3  4  1  0
  4  8  1  0
  4  5  2  0
  5  6  1  0
  7  6  1  0
  8  7  2  0
  9  2  1  0
 10  9  2  0
 12 11  1  0
 12 22  2  0
 13 12  1  0
 14 13  2  0
 14 15  1  0
 15 21  2  0
 16 15  1  0
 17 16  1  1
 17 18  1  0
 18  9  1  0
 19 17  1  0
 20 19  2  0
 21 22  1  0
 24 23  1  0
 25 24  2  0
 26 24  1  0
 28 27  1  6
 27 26  1  0
 28 29  1  0
 29 19  1  0
 30 32  1  0
 30 28  1  0
 31 30  2  0
M  END
$$$$
