HYQ.pdb
     RDKit          3D

 32 33  0  0  1  0  0  0  0  0999 V2000
   27.5668  -20.3092  -16.5215 N   0  0  0  0  0  0  0  0  0  0  0  0
   27.2769  -19.9002  -15.1714 C   0  0  1  0  0  0  0  0  0  0  0  0
   26.8451  -18.4521  -15.1981 C   0  0  0  0  0  0  0  0  0  0  0  0
   27.9140  -17.6320  -15.8235 C   0  0  0  0  0  0  0  0  0  0  0  0
   29.0873  -18.1347  -16.3555 C   0  0  0  0  0  0  0  0  0  0  0  0
   29.8454  -17.1383  -16.8447 N   0  0  0  0  0  0  0  0  0  0  0  0
   29.1394  -16.0130  -16.6151 C   0  0  0  0  0  0  0  0  0  0  0  0
   27.9789  -16.3021  -16.0023 N   0  0  0  0  0  0  0  0  0  0  0  0
   26.1988  -20.7614  -14.5665 C   0  0  0  0  0  0  0  0  0  0  0  0
   25.2490  -21.1899  -15.2535 O   0  0  0  0  0  0  0  0  0  0  0  0
   27.1032  -18.5180   -7.1633 O   0  0  0  0  0  0  0  0  0  0  0  0
   26.7907  -19.4665   -8.1466 C   0  0  0  0  0  0  0  0  0  0  0  0
   27.7569  -19.9387   -9.0053 C   0  0  0  0  0  0  0  0  0  0  0  0
   27.4903  -20.8859  -10.0022 C   0  0  0  0  0  0  0  0  0  0  0  0
   26.2209  -21.3707  -10.1390 C   0  0  0  0  0  0  0  0  0  0  0  0
   25.8066  -22.3751  -11.1334 C   0  0  0  0  0  0  0  0  0  0  0  0
   25.2497  -21.7422  -12.4202 C   0  0  2  0  0  0  0  0  0  0  0  0
   26.2435  -21.1037  -13.1953 N   0  0  0  0  0  0  0  0  0  0  0  0
   24.0677  -20.9482  -12.0900 C   0  0  0  0  0  0  0  0  0  0  0  0
   24.1870  -19.7148  -11.7825 O   0  0  0  0  0  0  0  0  0  0  0  0
   25.2462  -20.8960   -9.2748 C   0  0  0  0  0  0  0  0  0  0  0  0
   25.5054  -19.9664   -8.2960 C   0  0  0  0  0  0  0  0  0  0  0  0
   22.5650  -19.2124  -16.7057 N   0  0  0  0  0  0  0  0  0  0  0  0
   21.3132  -18.9529  -16.0753 C   0  0  0  0  0  0  0  0  0  0  0  0
   20.4653  -18.2726  -16.7253 O   0  0  0  0  0  0  0  0  0  0  0  0
   20.9585  -19.4312  -14.7373 C   0  0  0  0  0  0  0  0  0  0  0  0
   21.9910  -20.2152  -14.0223 C   0  0  0  0  0  0  0  0  0  0  0  0
   21.6104  -20.6911  -12.6856 C   0  0  2  0  0  0  0  0  0  0  0  0
   22.7397  -21.4431  -12.0788 N   0  0  0  0  0  0  0  0  0  0  0  0
   20.4225  -21.4761  -12.5643 C   0  0  0  0  0  0  0  0  0  0  0  0
   20.3388  -22.7236  -12.6624 O   0  0  0  0  0  0  0  0  0  0  0  0
   19.1871  -20.8396  -12.3080 O   0  0  0  0  0  0  0  0  0  0  0  0
  2  1  1  6
  3  2  1  0
  3  4  1  0
  4  8  1  0
  4  5  2  0
  5  6  1  0
  7  6  1  0
  8  7  2  0
  9  2  1  0
 10  9  2  0
 12 11  1  0
 12 22  2  0
 13 12  1  0
 14 13  2  0
 14 15  1  0
 15 21  2  0
 16 15  1  0
 17 16  1  1
 17 18  1  0
 18  9  1  0
 19 17  1  0
 20 19  2  0
 21 22  1  0
 24 23  1  0
 25 24  2  0
 26 24  1  0
 28 27  1  6
 27 26  1  0
 28 29  1  0
 29 19  1  0
 30 32  1  0
 30 28  1  0
 31 30  2  0
M  END
$$$$
