HYQ.pdb
     RDKit          3D

 32 33  0  0  1  0  0  0  0  0999 V2000
   27.8216  -19.9932  -19.7312 N   0  0  0  0  0  0  0  0  0  0  0  0
   27.4643  -19.1037  -18.6563 C   0  0  1  0  0  0  0  0  0  0  0  0
   26.4198  -18.1387  -19.1681 C   0  0  0  0  0  0  0  0  0  0  0  0
   27.0934  -16.9724  -19.7945 C   0  0  0  0  0  0  0  0  0  0  0  0
   28.4265  -16.9315  -20.1600 C   0  0  0  0  0  0  0  0  0  0  0  0
   28.7286  -15.7379  -20.6995 N   0  0  0  0  0  0  0  0  0  0  0  0
   27.5782  -15.0358  -20.6684 C   0  0  0  0  0  0  0  0  0  0  0  0
   26.5925  -15.7708  -20.1264 N   0  0  0  0  0  0  0  0  0  0  0  0
   26.9375  -19.8726  -17.4725 C   0  0  0  0  0  0  0  0  0  0  0  0
   26.1206  -20.8052  -17.6161 O   0  0  0  0  0  0  0  0  0  0  0  0
   25.2593  -20.9441   -8.7556 O   0  0  0  0  0  0  0  0  0  0  0  0
   25.8604  -20.6211   -9.9797 C   0  0  0  0  0  0  0  0  0  0  0  0
   26.4721  -21.5886  -10.7437 C   0  0  0  0  0  0  0  0  0  0  0  0
   27.0851  -21.3117  -11.9724 C   0  0  0  0  0  0  0  0  0  0  0  0
   27.0827  -20.0304  -12.4450 C   0  0  0  0  0  0  0  0  0  0  0  0
   27.6779  -19.6041  -13.7230 C   0  0  0  0  0  0  0  0  0  0  0  0
   26.7951  -19.9509  -14.9343 C   0  0  2  0  0  0  0  0  0  0  0  0
   27.3632  -19.5486  -16.1636 N   0  0  0  0  0  0  0  0  0  0  0  0
   25.4268  -19.5095  -14.6709 C   0  0  0  0  0  0  0  0  0  0  0  0
   25.0848  -18.3017  -14.9036 O   0  0  0  0  0  0  0  0  0  0  0  0
   26.4671  -19.0543  -11.6766 C   0  0  0  0  0  0  0  0  0  0  0  0
   25.8652  -19.3236  -10.4705 C   0  0  0  0  0  0  0  0  0  0  0  0
   21.5699  -17.2528  -16.9633 N   0  0  0  0  0  0  0  0  0  0  0  0
   20.6467  -17.9966  -16.1720 C   0  0  0  0  0  0  0  0  0  0  0  0
   19.4379  -17.6186  -16.1804 O   0  0  0  0  0  0  0  0  0  0  0  0
   21.0162  -19.1629  -15.3671 C   0  0  0  0  0  0  0  0  0  0  0  0
   22.4535  -19.5168  -15.3401 C   0  0  0  0  0  0  0  0  0  0  0  0
   22.9955  -19.8594  -14.0184 C   0  0  2  0  0  0  0  0  0  0  0  0
   24.3964  -20.3361  -14.1571 N   0  0  0  0  0  0  0  0  0  0  0  0
   22.2724  -20.7962  -13.2173 C   0  0  0  0  0  0  0  0  0  0  0  0
   22.4692  -22.0332  -13.1545 O   0  0  0  0  0  0  0  0  0  0  0  0
   21.2186  -20.3433  -12.3919 O   0  0  0  0  0  0  0  0  0  0  0  0
  2  1  1  6
  3  2  1  0
  3  4  1  0
  4  8  1  0
  4  5  2  0
  5  6  1  0
  7  6  1  0
  8  7  2  0
  9  2  1  0
 10  9  2  0
 12 11  1  0
 12 22  2  0
 13 12  1  0
 14 13  2  0
 14 15  1  0
 15 21  2  0
 16 15  1  0
 17 16  1  1
 17 18  1  0
 18  9  1  0
 19 17  1  0
 20 19  2  0
 21 22  1  0
 24 23  1  0
 25 24  2  0
 26 24  1  0
 28 27  1  6
 27 26  1  0
 28 29  1  0
 29 19  1  0
 30 32  1  0
 30 28  1  0
 31 30  2  0
M  END
$$$$
