HYQ.pdb
     RDKit          3D

 32 33  0  0  1  0  0  0  0  0999 V2000
   16.5654  -19.5684    2.5349 N   0  0  0  0  0  0  0  0  0  0  0  0
   16.0753  -18.7438    3.6091 C   0  0  1  0  0  0  0  0  0  0  0  0
   15.4869  -19.6471    4.6684 C   0  0  0  0  0  0  0  0  0  0  0  0
   14.3393  -20.3951    4.0942 C   0  0  0  0  0  0  0  0  0  0  0  0
   14.3553  -21.7387    3.7670 C   0  0  0  0  0  0  0  0  0  0  0  0
   13.1643  -22.1148    3.2702 N   0  0  0  0  0  0  0  0  0  0  0  0
   12.4065  -21.0000    3.2894 C   0  0  0  0  0  0  0  0  0  0  0  0
   13.1056  -19.9639    3.7829 N   0  0  0  0  0  0  0  0  0  0  0  0
   17.1808  -17.9004    4.1893 C   0  0  0  0  0  0  0  0  0  0  0  0
   18.3096  -18.3801    4.4202 O   0  0  0  0  0  0  0  0  0  0  0  0
   21.0018  -10.4565    7.3027 O   0  0  0  0  0  0  0  0  0  0  0  0
   20.1079  -11.3676    6.7239 C   0  0  0  0  0  0  0  0  0  0  0  0
   20.3279  -11.8681    5.4610 C   0  0  0  0  0  0  0  0  0  0  0  0
   19.4621  -12.7798    4.8435 C   0  0  0  0  0  0  0  0  0  0  0  0
   18.3476  -13.1990    5.5124 C   0  0  0  0  0  0  0  0  0  0  0  0
   17.3633  -14.1606    4.9873 C   0  0  0  0  0  0  0  0  0  0  0  0
   17.8386  -15.6193    5.1018 C   0  0  2  0  0  0  0  0  0  0  0  0
   16.9576  -16.5360    4.4859 N   0  0  0  0  0  0  0  0  0  0  0  0
   18.2041  -15.8956    6.4898 C   0  0  0  0  0  0  0  0  0  0  0  0
   17.3019  -16.1748    7.3489 O   0  0  0  0  0  0  0  0  0  0  0  0
   18.1243  -12.6955    6.7848 C   0  0  0  0  0  0  0  0  0  0  0  0
   18.9723  -11.8007    7.3926 C   0  0  0  0  0  0  0  0  0  0  0  0
   22.5071  -19.7761    8.5351 N   0  0  0  0  0  0  0  0  0  0  0  0
   21.9845  -19.1658    9.7125 C   0  0  0  0  0  0  0  0  0  0  0  0
   22.3155  -19.6721   10.8252 O   0  0  0  0  0  0  0  0  0  0  0  0
   21.1034  -17.9961    9.7031 C   0  0  0  0  0  0  0  0  0  0  0  0
   20.6981  -17.4866    8.3734 C   0  0  0  0  0  0  0  0  0  0  0  0
   19.8484  -16.2884    8.3875 C   0  0  2  0  0  0  0  0  0  0  0  0
   19.5286  -15.8818    6.9942 N   0  0  0  0  0  0  0  0  0  0  0  0
   20.3148  -15.1417    9.1014 C   0  0  0  0  0  0  0  0  0  0  0  0
   20.8015  -14.0989    8.6028 O   0  0  0  0  0  0  0  0  0  0  0  0
   20.2465  -15.1214   10.5127 O   0  0  0  0  0  0  0  0  0  0  0  0
  2  1  1  6
  3  2  1  0
  3  4  1  0
  4  8  1  0
  4  5  2  0
  5  6  1  0
  7  6  1  0
  8  7  2  0
  9  2  1  0
 10  9  2  0
 12 11  1  0
 12 22  2  0
 13 12  1  0
 14 13  2  0
 14 15  1  0
 15 21  2  0
 16 15  1  0
 17 16  1  1
 17 18  1  0
 18  9  1  0
 19 17  1  0
 20 19  2  0
 21 22  1  0
 24 23  1  0
 25 24  2  0
 26 24  1  0
 28 27  1  6
 27 26  1  0
 28 29  1  0
 29 19  1  0
 30 32  1  0
 30 28  1  0
 31 30  2  0
M  END
$$$$
