TKL.pdb
     RDKit          3D

 25 24  0  0  1  0  0  0  0  0999 V2000
    9.9053  -13.6556   18.3842 C   0  0  0  0  0  0  0  0  0  0  0  0
    9.3962  -14.0169   19.7600 C   0  0  1  0  0  0  0  0  0  0  0  0
    9.4818  -12.9691   20.6499 O   0  0  0  0  0  0  0  0  0  0  0  0
    7.9743  -14.4824   19.6351 C   0  0  2  0  0  0  0  0  0  0  0  0
    7.1043  -13.4304   19.1369 N   0  0  0  0  0  0  0  0  0  0  0  0
    7.4435  -14.9134   20.9596 C   0  0  0  0  0  0  0  0  0  0  0  0
    6.7175  -14.1497   21.6526 O   0  0  0  0  0  0  0  0  0  0  0  0
    7.7242  -16.1960   21.5074 N   0  0  0  0  0  0  0  0  0  0  0  0
    7.2332  -16.5548   22.8161 C   0  0  1  0  0  0  0  0  0  0  0  0
    7.4261  -18.0300   23.1029 C   0  0  0  0  0  0  0  0  0  0  0  0
    6.8676  -18.3313   24.4898 C   0  0  0  0  0  0  0  0  0  0  0  0
    7.1824  -19.7927   24.7628 C   0  0  0  0  0  0  0  0  0  0  0  0
    6.5629  -20.2457   26.0743 C   0  0  0  0  0  0  0  0  0  0  0  0
    6.9187  -21.6543   26.2277 N   0  0  0  0  0  0  0  0  0  0  0  0
    8.0672  -15.8200   23.8322 C   0  0  0  0  0  0  0  0  0  0  0  0
    9.3034  -15.7777   23.6261 O   0  0  0  0  0  0  0  0  0  0  0  0
    5.8816  -11.5483   26.5539 C   0  0  0  0  0  0  0  0  0  0  0  0
    6.8026  -12.4705   25.8281 C   0  0  1  0  0  0  0  0  0  0  0  0
    7.6697  -11.5982   24.9254 C   0  0  0  0  0  0  0  0  0  0  0  0
    7.5444  -13.4811   26.5634 C   0  0  0  0  0  0  0  0  0  0  0  0
    8.3922  -14.4996   25.9087 C   0  0  2  0  0  0  0  0  0  0  0  0
    7.4782  -15.2091   24.9624 N   0  0  0  0  0  0  0  0  0  0  0  0
    8.9813  -15.5193   26.7811 C   0  0  0  0  0  0  0  0  0  0  0  0
   10.0602  -15.2820   27.5885 O   0  0  0  0  0  0  0  0  0  0  0  0
    8.4908  -16.6740   26.7978 O   0  0  0  0  0  0  0  0  0  0  0  0
  2  1  1  6
  3  2  1  0
  4  2  1  0
  4  6  1  0
  4  5  1  1
  6  7  2  0
  8  9  1  0
  8  6  1  0
 10 11  1  0
  9 10  1  1
 11 12  1  0
 12 13  1  0
 13 14  1  0
 15 16  2  0
 15  9  1  0
 18 20  1  0
 18 17  1  1
 19 18  1  0
 21 20  1  1
 21 22  1  0
 21 23  1  0
 22 15  1  0
 23 25  2  0
 23 24  1  0
M  END
$$$$
