TKL.pdb
     RDKit          3D

 25 24  0  0  1  0  0  0  0  0999 V2000
    9.7023  -12.9357   20.1257 C   0  0  0  0  0  0  0  0  0  0  0  0
    8.6385  -13.2086   19.0883 C   0  0  1  0  0  0  0  0  0  0  0  0
    8.9944  -12.7659   17.8335 O   0  0  0  0  0  0  0  0  0  0  0  0
    8.3639  -14.6845   19.0639 C   0  0  2  0  0  0  0  0  0  0  0  0
    7.3291  -15.0246   18.1020 N   0  0  0  0  0  0  0  0  0  0  0  0
    7.9054  -15.1566   20.4013 C   0  0  0  0  0  0  0  0  0  0  0  0
    6.8336  -14.7315   20.9122 O   0  0  0  0  0  0  0  0  0  0  0  0
    8.6444  -16.1021   21.1653 N   0  0  0  0  0  0  0  0  0  0  0  0
    8.1295  -16.5874   22.4231 C   0  0  1  0  0  0  0  0  0  0  0  0
    8.5232  -18.0292   22.6718 C   0  0  0  0  0  0  0  0  0  0  0  0
    8.0061  -18.4428   24.0458 C   0  0  0  0  0  0  0  0  0  0  0  0
    8.4582  -19.8789   24.2518 C   0  0  0  0  0  0  0  0  0  0  0  0
    7.8350  -20.4697   25.5054 C   0  0  0  0  0  0  0  0  0  0  0  0
    8.4032  -21.8077   25.6508 N   0  0  0  0  0  0  0  0  0  0  0  0
    8.7762  -15.7835   23.5200 C   0  0  0  0  0  0  0  0  0  0  0  0
    9.9474  -15.3850   23.3149 O   0  0  0  0  0  0  0  0  0  0  0  0
    6.6033  -12.7721   27.6886 C   0  0  0  0  0  0  0  0  0  0  0  0
    6.7643  -13.1610   26.2575 C   0  0  1  0  0  0  0  0  0  0  0  0
    5.8854  -12.2131   25.4472 C   0  0  0  0  0  0  0  0  0  0  0  0
    8.0942  -13.3530   25.7037 C   0  0  0  0  0  0  0  0  0  0  0  0
    8.8020  -14.6504   25.7283 C   0  0  2  0  0  0  0  0  0  0  0  0
    8.0901  -15.4953   24.7216 N   0  0  0  0  0  0  0  0  0  0  0  0
    8.7789  -15.3842   26.9967 C   0  0  0  0  0  0  0  0  0  0  0  0
    9.5160  -15.0155   28.0891 O   0  0  0  0  0  0  0  0  0  0  0  0
    8.0597  -16.4065   27.1041 O   0  0  0  0  0  0  0  0  0  0  0  0
  2  1  1  1
  3  2  1  0
  4  2  1  0
  4  6  1  0
  4  5  1  6
  6  7  2  0
  8  9  1  0
  8  6  1  0
 10 11  1  0
  9 10  1  1
 11 12  1  0
 12 13  1  0
 13 14  1  0
 15 16  2  0
 15  9  1  0
 18 20  1  0
 18 17  1  1
 19 18  1  0
 21 20  1  1
 21 22  1  0
 21 23  1  0
 22 15  1  0
 23 25  2  0
 23 24  1  0
M  END
$$$$
