TKL.pdb
     RDKit          3D

 25 24  0  0  1  0  0  0  0  0999 V2000
   11.1464  -13.6765   18.1950 C   0  0  0  0  0  0  0  0  0  0  0  0
   10.4449  -14.1184   19.4580 C   0  0  1  0  0  0  0  0  0  0  0  0
   10.7903  -13.3560   20.5518 O   0  0  0  0  0  0  0  0  0  0  0  0
    8.9627  -14.0589   19.2258 C   0  0  2  0  0  0  0  0  0  0  0  0
    8.5201  -12.7113   18.9099 N   0  0  0  0  0  0  0  0  0  0  0  0
    8.2216  -14.5009   20.4411 C   0  0  0  0  0  0  0  0  0  0  0  0
    7.5223  -13.6923   21.1102 O   0  0  0  0  0  0  0  0  0  0  0  0
    8.2626  -15.8445   20.9068 N   0  0  0  0  0  0  0  0  0  0  0  0
    7.4636  -16.2505   22.0378 C   0  0  1  0  0  0  0  0  0  0  0  0
    7.3049  -17.7559   22.1014 C   0  0  0  0  0  0  0  0  0  0  0  0
    6.0770  -18.1488   21.2866 C   0  0  0  0  0  0  0  0  0  0  0  0
    6.0061  -19.6660   21.3355 C   0  0  0  0  0  0  0  0  0  0  0  0
    4.7793  -20.1763   20.5983 C   0  0  0  0  0  0  0  0  0  0  0  0
    4.8455  -21.6345   20.6582 N   0  0  0  0  0  0  0  0  0  0  0  0
    8.2085  -15.8567   23.2860 C   0  0  0  0  0  0  0  0  0  0  0  0
    9.4591  -15.9406   23.2492 O   0  0  0  0  0  0  0  0  0  0  0  0
    5.7514  -12.2153   26.6940 C   0  0  0  0  0  0  0  0  0  0  0  0
    6.7856  -12.9104   25.8738 C   0  0  1  0  0  0  0  0  0  0  0  0
    7.7451  -11.8326   25.3784 C   0  0  0  0  0  0  0  0  0  0  0  0
    7.4458  -14.0965   26.3930 C   0  0  0  0  0  0  0  0  0  0  0  0
    8.3571  -14.9348   25.5858 C   0  0  2  0  0  0  0  0  0  0  0  0
    7.5243  -15.4143   24.4408 N   0  0  0  0  0  0  0  0  0  0  0  0
    8.9069  -16.1237   26.2432 C   0  0  0  0  0  0  0  0  0  0  0  0
    9.9905  -16.0845   27.0778 O   0  0  0  0  0  0  0  0  0  0  0  0
    8.3762  -17.2419   26.0384 O   0  0  0  0  0  0  0  0  0  0  0  0
  2  1  1  6
  3  2  1  0
  4  2  1  0
  4  6  1  0
  4  5  1  1
  6  7  2  0
  8  9  1  0
  8  6  1  0
 10 11  1  0
  9 10  1  1
 11 12  1  0
 12 13  1  0
 13 14  1  0
 15 16  2  0
 15  9  1  0
 18 20  1  0
 18 17  1  1
 19 18  1  0
 21 20  1  1
 21 22  1  0
 21 23  1  0
 22 15  1  0
 23 25  2  0
 23 24  1  0
M  END
$$$$
