TKL.pdb
     RDKit          3D

 25 24  0  0  1  0  0  0  0  0999 V2000
   10.1961  -12.5143   18.3857 C   0  0  0  0  0  0  0  0  0  0  0  0
    9.5337  -13.0074   19.6509 C   0  0  1  0  0  0  0  0  0  0  0  0
    8.7803  -12.0345   20.2696 O   0  0  0  0  0  0  0  0  0  0  0  0
    8.6786  -14.1935   19.3102 C   0  0  2  0  0  0  0  0  0  0  0  0
    7.5611  -13.8255   18.4573 N   0  0  0  0  0  0  0  0  0  0  0  0
    8.1159  -14.8087   20.5457 C   0  0  0  0  0  0  0  0  0  0  0  0
    6.9095  -14.6364   20.8705 O   0  0  0  0  0  0  0  0  0  0  0  0
    8.9011  -15.6150   21.4160 N   0  0  0  0  0  0  0  0  0  0  0  0
    8.3029  -16.2401   22.5709 C   0  0  1  0  0  0  0  0  0  0  0  0
    8.7092  -17.6944   22.6955 C   0  0  0  0  0  0  0  0  0  0  0  0
   10.2269  -17.7640   22.8287 C   0  0  0  0  0  0  0  0  0  0  0  0
   10.5716  -19.2382   22.9598 C   0  0  0  0  0  0  0  0  0  0  0  0
   12.0726  -19.4352   23.0915 C   0  0  0  0  0  0  0  0  0  0  0  0
   12.2858  -20.8761   23.2045 N   0  0  0  0  0  0  0  0  0  0  0  0
    8.8453  -15.5494   23.7942 C   0  0  0  0  0  0  0  0  0  0  0  0
   10.0169  -15.1081   23.7225 O   0  0  0  0  0  0  0  0  0  0  0  0
    5.5350  -12.5263   26.9229 C   0  0  0  0  0  0  0  0  0  0  0  0
    6.7031  -13.0821   26.1799 C   0  0  1  0  0  0  0  0  0  0  0  0
    7.4327  -11.8927   25.5631 C   0  0  0  0  0  0  0  0  0  0  0  0
    7.5807  -14.0448   26.8243 C   0  0  0  0  0  0  0  0  0  0  0  0
    8.6988  -14.7145   26.1272 C   0  0  2  0  0  0  0  0  0  0  0  0
    8.0656  -15.4086   24.9646 N   0  0  0  0  0  0  0  0  0  0  0  0
    9.4287  -15.7323   26.8883 C   0  0  0  0  0  0  0  0  0  0  0  0
    9.3606  -17.0698   26.6075 O   0  0  0  0  0  0  0  0  0  0  0  0
   10.1511  -15.3808   27.8519 O   0  0  0  0  0  0  0  0  0  0  0  0
  2  1  1  6
  3  2  1  0
  4  2  1  0
  4  6  1  0
  4  5  1  6
  6  7  2  0
  8  9  1  0
  8  6  1  0
 10 11  1  0
  9 10  1  1
 11 12  1  0
 12 13  1  0
 13 14  1  0
 15 16  2  0
 15  9  1  0
 18 20  1  0
 18 17  1  1
 19 18  1  0
 21 20  1  1
 21 22  1  0
 21 23  1  0
 22 15  1  0
 23 25  2  0
 23 24  1  0
M  END
$$$$
