TKL.pdb
     RDKit          3D

 25 24  0  0  1  0  0  0  0  0999 V2000
    5.0232  -19.5660   24.0553 C   0  0  0  0  0  0  0  0  0  0  0  0
    6.1655  -18.5942   23.8729 C   0  0  1  0  0  0  0  0  0  0  0  0
    7.1937  -18.8102   24.7635 O   0  0  0  0  0  0  0  0  0  0  0  0
    6.6645  -18.7046   22.4611 C   0  0  2  0  0  0  0  0  0  0  0  0
    7.2026  -20.0251   22.1811 N   0  0  0  0  0  0  0  0  0  0  0  0
    7.7501  -17.7151   22.2079 C   0  0  0  0  0  0  0  0  0  0  0  0
    8.9651  -18.0464   22.2756 O   0  0  0  0  0  0  0  0  0  0  0  0
    7.4770  -16.3581   21.8797 N   0  0  0  0  0  0  0  0  0  0  0  0
    8.5574  -15.4391   21.6138 C   0  0  1  0  0  0  0  0  0  0  0  0
    8.1338  -14.3334   20.6685 C   0  0  0  0  0  0  0  0  0  0  0  0
    8.5638  -14.7126   19.2552 C   0  0  0  0  0  0  0  0  0  0  0  0
    8.0435  -13.6116   18.3463 C   0  0  0  0  0  0  0  0  0  0  0  0
    8.3603  -13.9137   16.8912 C   0  0  0  0  0  0  0  0  0  0  0  0
    7.7613  -12.8334   16.1112 N   0  0  0  0  0  0  0  0  0  0  0  0
    8.9108  -14.7643   22.9128 C   0  0  0  0  0  0  0  0  0  0  0  0
    9.1755  -13.5396   22.8611 O   0  0  0  0  0  0  0  0  0  0  0  0
    7.7988  -11.7606   26.7513 C   0  0  0  0  0  0  0  0  0  0  0  0
    7.3159  -13.1638   26.5986 C   0  0  1  0  0  0  0  0  0  0  0  0
    5.8062  -13.1307   26.8166 C   0  0  0  0  0  0  0  0  0  0  0  0
    7.7304  -13.9521   25.4501 C   0  0  0  0  0  0  0  0  0  0  0  0
    9.0123  -14.6856   25.3917 C   0  0  2  0  0  0  0  0  0  0  0  0
    8.9411  -15.4830   24.1294 N   0  0  0  0  0  0  0  0  0  0  0  0
    9.2758  -15.6301   26.4809 C   0  0  0  0  0  0  0  0  0  0  0  0
    8.9075  -16.9472   26.4359 O   0  0  0  0  0  0  0  0  0  0  0  0
    9.8607  -15.2294   27.5159 O   0  0  0  0  0  0  0  0  0  0  0  0
  2  1  1  1
  3  2  1  0
  4  2  1  0
  4  6  1  0
  4  5  1  1
  6  7  2  0
  8  9  1  0
  8  6  1  0
 10 11  1  0
  9 10  1  6
 11 12  1  0
 12 13  1  0
 13 14  1  0
 15 16  2  0
 15  9  1  0
 18 20  1  0
 18 17  1  6
 19 18  1  0
 21 20  1  1
 21 22  1  0
 21 23  1  0
 22 15  1  0
 23 25  2  0
 23 24  1  0
M  END
$$$$
