TKL.pdb
     RDKit          3D

 25 24  0  0  1  0  0  0  0  0999 V2000
   12.0634  -16.8666   21.7643 C   0  0  0  0  0  0  0  0  0  0  0  0
   11.4887  -16.2138   20.5289 C   0  0  1  0  0  0  0  0  0  0  0  0
   12.3474  -16.2648   19.4533 O   0  0  0  0  0  0  0  0  0  0  0  0
   10.1898  -16.8882   20.1938 C   0  0  2  0  0  0  0  0  0  0  0  0
    9.5920  -16.3384   18.9888 N   0  0  0  0  0  0  0  0  0  0  0  0
    9.2066  -16.7159   21.3007 C   0  0  0  0  0  0  0  0  0  0  0  0
    8.5585  -15.6428   21.4381 O   0  0  0  0  0  0  0  0  0  0  0  0
    8.9490  -17.7420   22.2519 N   0  0  0  0  0  0  0  0  0  0  0  0
    7.9181  -17.5733   23.2475 C   0  0  1  0  0  0  0  0  0  0  0  0
    7.4093  -18.9052   23.7599 C   0  0  0  0  0  0  0  0  0  0  0  0
    6.2290  -19.3381   22.8964 C   0  0  0  0  0  0  0  0  0  0  0  0
    5.7911  -20.6923   23.4289 C   0  0  0  0  0  0  0  0  0  0  0  0
    4.6045  -21.2264   22.6443 C   0  0  0  0  0  0  0  0  0  0  0  0
    4.2857  -22.5288   23.2243 N   0  0  0  0  0  0  0  0  0  0  0  0
    8.5384  -16.8803   24.4319 C   0  0  0  0  0  0  0  0  0  0  0  0
    9.7699  -17.0442   24.6027 O   0  0  0  0  0  0  0  0  0  0  0  0
    6.0391  -12.2777   26.1669 C   0  0  0  0  0  0  0  0  0  0  0  0
    7.1876  -13.1669   25.8270 C   0  0  1  0  0  0  0  0  0  0  0  0
    8.3345  -12.2540   25.4041 C   0  0  0  0  0  0  0  0  0  0  0  0
    7.5808  -14.2251   26.7423 C   0  0  0  0  0  0  0  0  0  0  0  0
    8.4946  -15.3239   26.3650 C   0  0  2  0  0  0  0  0  0  0  0  0
    7.7637  -16.0844   25.3058 N   0  0  0  0  0  0  0  0  0  0  0  0
    8.8375  -16.2812   27.4204 C   0  0  0  0  0  0  0  0  0  0  0  0
    8.2778  -17.5263   27.5132 O   0  0  0  0  0  0  0  0  0  0  0  0
    9.6781  -15.9596   28.2945 O   0  0  0  0  0  0  0  0  0  0  0  0
  2  1  1  1
  3  2  1  0
  4  2  1  0
  4  6  1  0
  4  5  1  6
  6  7  2  0
  8  9  1  0
  8  6  1  0
 10 11  1  0
  9 10  1  1
 11 12  1  0
 12 13  1  0
 13 14  1  0
 15 16  2  0
 15  9  1  0
 18 20  1  0
 18 17  1  1
 19 18  1  0
 21 20  1  1
 21 22  1  0
 21 23  1  0
 22 15  1  0
 23 25  2  0
 23 24  1  0
M  END
$$$$
