TKL.pdb
     RDKit          3D

 25 24  0  0  1  0  0  0  0  0999 V2000
    9.6674  -13.9339   17.7165 C   0  0  0  0  0  0  0  0  0  0  0  0
    9.2026  -14.3437   19.0944 C   0  0  1  0  0  0  0  0  0  0  0  0
    9.8043  -13.6148   20.0963 O   0  0  0  0  0  0  0  0  0  0  0  0
    7.7105  -14.1900   19.1596 C   0  0  2  0  0  0  0  0  0  0  0  0
    7.3072  -12.7972   19.0637 N   0  0  0  0  0  0  0  0  0  0  0  0
    7.1825  -14.7219   20.4480 C   0  0  0  0  0  0  0  0  0  0  0  0
    6.8478  -13.9485   21.3862 O   0  0  0  0  0  0  0  0  0  0  0  0
    7.0294  -16.1161   20.6862 N   0  0  0  0  0  0  0  0  0  0  0  0
    6.6373  -16.5958   21.9895 C   0  0  1  0  0  0  0  0  0  0  0  0
    6.5770  -18.1090   22.0358 C   0  0  0  0  0  0  0  0  0  0  0  0
    6.3530  -18.5413   23.4812 C   0  0  0  0  0  0  0  0  0  0  0  0
    6.3391  -20.0608   23.4696 C   0  0  0  0  0  0  0  0  0  0  0  0
    6.0780  -20.6120   24.8614 C   0  0  0  0  0  0  0  0  0  0  0  0
    7.3213  -20.4376   25.6083 N   0  0  0  0  0  0  0  0  0  0  0  0
    7.7109  -16.1913   22.9651 C   0  0  0  0  0  0  0  0  0  0  0  0
    8.8963  -16.2558   22.5613 O   0  0  0  0  0  0  0  0  0  0  0  0
    7.9798  -12.8603   27.7895 C   0  0  0  0  0  0  0  0  0  0  0  0
    7.2365  -13.4933   26.6615 C   0  0  1  0  0  0  0  0  0  0  0  0
    5.9335  -12.7148   26.5076 C   0  0  0  0  0  0  0  0  0  0  0  0
    7.9166  -13.7620   25.4055 C   0  0  0  0  0  0  0  0  0  0  0  0
    8.4723  -15.0855   25.0527 C   0  0  2  0  0  0  0  0  0  0  0  0
    7.3907  -15.7604   24.2725 N   0  0  0  0  0  0  0  0  0  0  0  0
    8.8115  -15.9715   26.1698 C   0  0  0  0  0  0  0  0  0  0  0  0
    8.0940  -17.0946   26.4798 O   0  0  0  0  0  0  0  0  0  0  0  0
    9.8005  -15.7006   26.8927 O   0  0  0  0  0  0  0  0  0  0  0  0
  2  1  1  6
  3  2  1  0
  4  2  1  0
  4  6  1  0
  4  5  1  1
  6  7  2  0
  8  9  1  0
  8  6  1  0
 10 11  1  0
  9 10  1  6
 11 12  1  0
 12 13  1  0
 13 14  1  0
 15 16  2  0
 15  9  1  0
 18 20  1  0
 18 17  1  1
 19 18  1  0
 21 20  1  1
 21 22  1  0
 21 23  1  0
 22 15  1  0
 23 25  2  0
 23 24  1  0
M  END
$$$$
