TKL.pdb
     RDKit          3D

 25 24  0  0  1  0  0  0  0  0999 V2000
    9.1115  -12.1710   20.2505 C   0  0  0  0  0  0  0  0  0  0  0  0
    8.4970  -12.7109   18.9803 C   0  0  1  0  0  0  0  0  0  0  0  0
    8.9035  -12.0218   17.8592 O   0  0  0  0  0  0  0  0  0  0  0  0
    8.8532  -14.1644   18.8588 C   0  0  2  0  0  0  0  0  0  0  0  0
    8.3153  -14.7516   17.6432 N   0  0  0  0  0  0  0  0  0  0  0  0
    8.3073  -14.9380   20.0099 C   0  0  0  0  0  0  0  0  0  0  0  0
    7.0857  -15.2457   20.0700 O   0  0  0  0  0  0  0  0  0  0  0  0
    9.1261  -15.3663   21.0915 N   0  0  0  0  0  0  0  0  0  0  0  0
    8.5787  -16.1944   22.1390 C   0  0  1  0  0  0  0  0  0  0  0  0
    9.1883  -17.5815   22.1342 C   0  0  0  0  0  0  0  0  0  0  0  0
    8.6206  -18.3565   20.9497 C   0  0  0  0  0  0  0  0  0  0  0  0
    9.2711  -19.7291   20.9929 C   0  0  0  0  0  0  0  0  0  0  0  0
    8.7107  -20.6301   19.9053 C   0  0  0  0  0  0  0  0  0  0  0  0
    9.3054  -21.9470   20.1208 N   0  0  0  0  0  0  0  0  0  0  0  0
    8.9630  -15.5747   23.4566 C   0  0  0  0  0  0  0  0  0  0  0  0
   10.1286  -15.1217   23.5507 O   0  0  0  0  0  0  0  0  0  0  0  0
    5.4605  -12.7043   26.6875 C   0  0  0  0  0  0  0  0  0  0  0  0
    6.7174  -13.1677   26.0312 C   0  0  1  0  0  0  0  0  0  0  0  0
    7.6439  -11.9576   25.9618 C   0  0  0  0  0  0  0  0  0  0  0  0
    7.3674  -14.3847   26.4878 C   0  0  0  0  0  0  0  0  0  0  0  0
    8.5564  -14.9642   25.8279 C   0  0  2  0  0  0  0  0  0  0  0  0
    8.0486  -15.5098   24.5322 N   0  0  0  0  0  0  0  0  0  0  0  0
    9.2198  -16.0682   26.5271 C   0  0  0  0  0  0  0  0  0  0  0  0
   10.0998  -15.8809   27.5580 O   0  0  0  0  0  0  0  0  0  0  0  0
    8.9875  -17.2494   26.1739 O   0  0  0  0  0  0  0  0  0  0  0  0
  2  1  1  1
  3  2  1  0
  4  2  1  0
  4  6  1  0
  4  5  1  6
  6  7  2  0
  8  9  1  0
  8  6  1  0
 10 11  1  0
  9 10  1  1
 11 12  1  0
 12 13  1  0
 13 14  1  0
 15 16  2  0
 15  9  1  0
 18 20  1  0
 18 17  1  1
 19 18  1  0
 21 20  1  1
 21 22  1  0
 21 23  1  0
 22 15  1  0
 23 25  2  0
 23 24  1  0
M  END
$$$$
