TKL.pdb
     RDKit          3D

 25 24  0  0  1  0  0  0  0  0999 V2000
   10.7375  -13.5188   17.9236 C   0  0  0  0  0  0  0  0  0  0  0  0
   10.2335  -14.0149   19.2587 C   0  0  1  0  0  0  0  0  0  0  0  0
   10.7242  -13.2825   20.3169 O   0  0  0  0  0  0  0  0  0  0  0  0
    8.7327  -13.9753   19.2463 C   0  0  2  0  0  0  0  0  0  0  0  0
    8.2306  -12.6279   19.0362 N   0  0  0  0  0  0  0  0  0  0  0  0
    8.1827  -14.4615   20.5435 C   0  0  0  0  0  0  0  0  0  0  0  0
    7.5919  -13.6794   21.3370 O   0  0  0  0  0  0  0  0  0  0  0  0
    8.2936  -15.8197   20.9520 N   0  0  0  0  0  0  0  0  0  0  0  0
    7.5647  -16.2986   22.1017 C   0  0  1  0  0  0  0  0  0  0  0  0
    7.5014  -17.8120   22.1357 C   0  0  0  0  0  0  0  0  0  0  0  0
    6.5821  -18.2841   21.0140 C   0  0  0  0  0  0  0  0  0  0  0  0
    6.5837  -19.8023   21.0783 C   0  0  0  0  0  0  0  0  0  0  0  0
    5.8077  -20.3959   19.9144 C   0  0  0  0  0  0  0  0  0  0  0  0
    5.8658  -21.8458   20.0833 N   0  0  0  0  0  0  0  0  0  0  0  0
    8.3309  -15.8857   23.3306 C   0  0  0  0  0  0  0  0  0  0  0  0
    9.5792  -15.9965   23.2834 O   0  0  0  0  0  0  0  0  0  0  0  0
    6.0445  -12.0681   26.5420 C   0  0  0  0  0  0  0  0  0  0  0  0
    7.0477  -12.8588   25.7713 C   0  0  1  0  0  0  0  0  0  0  0  0
    8.0228  -11.8533   25.1664 C   0  0  0  0  0  0  0  0  0  0  0  0
    7.6894  -14.0097   26.3843 C   0  0  0  0  0  0  0  0  0  0  0  0
    8.5223  -14.9697   25.6297 C   0  0  2  0  0  0  0  0  0  0  0  0
    7.6685  -15.3973   24.4796 N   0  0  0  0  0  0  0  0  0  0  0  0
    8.9246  -16.1866   26.3404 C   0  0  0  0  0  0  0  0  0  0  0  0
    8.4940  -17.4368   25.9883 O   0  0  0  0  0  0  0  0  0  0  0  0
    9.6955  -16.0981   27.3261 O   0  0  0  0  0  0  0  0  0  0  0  0
  2  1  1  6
  3  2  1  0
  4  2  1  0
  4  6  1  0
  4  5  1  1
  6  7  2  0
  8  9  1  0
  8  6  1  0
 10 11  1  0
  9 10  1  6
 11 12  1  0
 12 13  1  0
 13 14  1  0
 15 16  2  0
 15  9  1  0
 18 20  1  0
 18 17  1  1
 19 18  1  0
 21 20  1  1
 21 22  1  0
 21 23  1  0
 22 15  1  0
 23 25  2  0
 23 24  1  0
M  END
$$$$
