TKL.pdb
     RDKit          3D

 25 24  0  0  1  0  0  0  0  0999 V2000
    9.7977  -12.9572   20.6438 C   0  0  0  0  0  0  0  0  0  0  0  0
    8.7846  -13.0002   19.5238 C   0  0  1  0  0  0  0  0  0  0  0  0
    9.2877  -12.5221   18.3342 O   0  0  0  0  0  0  0  0  0  0  0  0
    8.3137  -14.4165   19.3611 C   0  0  2  0  0  0  0  0  0  0  0  0
    7.3020  -14.5326   18.3244 N   0  0  0  0  0  0  0  0  0  0  0  0
    7.7155  -14.9211   20.6297 C   0  0  0  0  0  0  0  0  0  0  0  0
    6.5412  -14.6093   20.9679 O   0  0  0  0  0  0  0  0  0  0  0  0
    8.4295  -15.7727   21.5179 N   0  0  0  0  0  0  0  0  0  0  0  0
    7.7758  -16.3338   22.6757 C   0  0  1  0  0  0  0  0  0  0  0  0
    7.9732  -17.8336   22.7598 C   0  0  0  0  0  0  0  0  0  0  0  0
    7.2675  -18.3461   24.0110 C   0  0  0  0  0  0  0  0  0  0  0  0
    7.4571  -19.8538   24.0145 C   0  0  0  0  0  0  0  0  0  0  0  0
    6.8009  -20.4807   25.2333 C   0  0  0  0  0  0  0  0  0  0  0  0
    7.0238  -21.9201   25.1206 N   0  0  0  0  0  0  0  0  0  0  0  0
    8.4402  -15.7567   23.8977 C   0  0  0  0  0  0  0  0  0  0  0  0
    9.6938  -15.7778   23.9238 O   0  0  0  0  0  0  0  0  0  0  0  0
    5.7432  -11.9008   26.7555 C   0  0  0  0  0  0  0  0  0  0  0  0
    6.8375  -12.6631   26.0872 C   0  0  1  0  0  0  0  0  0  0  0  0
    7.7913  -11.6286   25.4973 C   0  0  0  0  0  0  0  0  0  0  0  0
    7.5024  -13.7459   26.7927 C   0  0  0  0  0  0  0  0  0  0  0  0
    8.4351  -14.6869   26.1375 C   0  0  2  0  0  0  0  0  0  0  0  0
    7.6811  -15.2182   24.9612 N   0  0  0  0  0  0  0  0  0  0  0  0
    8.8624  -15.8430   26.9304 C   0  0  0  0  0  0  0  0  0  0  0  0
    8.4804  -17.1265   26.6494 O   0  0  0  0  0  0  0  0  0  0  0  0
    9.6097  -15.6673   27.9227 O   0  0  0  0  0  0  0  0  0  0  0  0
  2  1  1  1
  3  2  1  0
  4  2  1  0
  4  6  1  0
  4  5  1  6
  6  7  2  0
  8  9  1  0
  8  6  1  0
 10 11  1  0
  9 10  1  1
 11 12  1  0
 12 13  1  0
 13 14  1  0
 15 16  2  0
 15  9  1  0
 18 20  1  0
 18 17  1  1
 19 18  1  0
 21 20  1  1
 21 22  1  0
 21 23  1  0
 22 15  1  0
 23 25  2  0
 23 24  1  0
M  END
$$$$
