TKL.pdb
     RDKit          3D

 25 24  0  0  1  0  0  0  0  0999 V2000
    5.9072  -17.7123   24.1524 C   0  0  0  0  0  0  0  0  0  0  0  0
    6.3965  -18.7621   23.1825 C   0  0  1  0  0  0  0  0  0  0  0  0
    5.5881  -19.8769   23.1543 O   0  0  0  0  0  0  0  0  0  0  0  0
    6.4845  -18.1451   21.8165 C   0  0  2  0  0  0  0  0  0  0  0  0
    6.7576  -19.1392   20.7924 N   0  0  0  0  0  0  0  0  0  0  0  0
    7.5799  -17.1356   21.7648 C   0  0  0  0  0  0  0  0  0  0  0  0
    8.7906  -17.4865   21.7238 O   0  0  0  0  0  0  0  0  0  0  0  0
    7.3214  -15.7366   21.7588 N   0  0  0  0  0  0  0  0  0  0  0  0
    8.4125  -14.7921   21.7596 C   0  0  1  0  0  0  0  0  0  0  0  0
    7.9662  -13.4188   21.3008 C   0  0  0  0  0  0  0  0  0  0  0  0
    7.4005  -13.5392   19.8895 C   0  0  0  0  0  0  0  0  0  0  0  0
    8.5955  -13.5037   18.9516 C   0  0  0  0  0  0  0  0  0  0  0  0
    8.1468  -13.5100   17.4999 C   0  0  0  0  0  0  0  0  0  0  0  0
    9.3625  -13.3994   16.6974 N   0  0  0  0  0  0  0  0  0  0  0  0
    8.8704  -14.6271   23.1847 C   0  0  0  0  0  0  0  0  0  0  0  0
    9.9979  -14.1070   23.3605 O   0  0  0  0  0  0  0  0  0  0  0  0
    8.0554  -11.7244   25.8834 C   0  0  0  0  0  0  0  0  0  0  0  0
    7.4115  -12.7529   26.7512 C   0  0  1  0  0  0  0  0  0  0  0  0
    6.0175  -12.2302   27.0847 C   0  0  0  0  0  0  0  0  0  0  0  0
    7.4405  -14.1523   26.3603 C   0  0  0  0  0  0  0  0  0  0  0  0
    8.5772  -14.7700   25.6453 C   0  0  2  0  0  0  0  0  0  0  0  0
    8.0629  -15.0410   24.2682 N   0  0  0  0  0  0  0  0  0  0  0  0
    9.0703  -16.0436   26.1770 C   0  0  0  0  0  0  0  0  0  0  0  0
    9.8877  -16.1326   27.2707 O   0  0  0  0  0  0  0  0  0  0  0  0
    8.7435  -17.1150   25.6119 O   0  0  0  0  0  0  0  0  0  0  0  0
  2  1  1  1
  3  2  1  0
  4  2  1  0
  4  6  1  0
  4  5  1  6
  6  7  2  0
  8  9  1  0
  8  6  1  0
 10 11  1  0
  9 10  1  1
 11 12  1  0
 12 13  1  0
 13 14  1  0
 15 16  2  0
 15  9  1  0
 18 20  1  0
 18 17  1  6
 19 18  1  0
 21 20  1  1
 21 22  1  0
 21 23  1  0
 22 15  1  0
 23 25  2  0
 23 24  1  0
M  END
$$$$
