TKL.pdb
     RDKit          3D

 25 24  0  0  1  0  0  0  0  0999 V2000
    9.1120  -12.6296   19.8125 C   0  0  0  0  0  0  0  0  0  0  0  0
    8.4210  -13.2499   18.6209 C   0  0  1  0  0  0  0  0  0  0  0  0
    8.7405  -12.6238   17.4365 O   0  0  0  0  0  0  0  0  0  0  0  0
    8.7894  -14.7042   18.5598 C   0  0  2  0  0  0  0  0  0  0  0  0
    8.1292  -15.3819   17.4569 N   0  0  0  0  0  0  0  0  0  0  0  0
    8.3923  -15.4008   19.8163 C   0  0  0  0  0  0  0  0  0  0  0  0
    7.1842  -15.6663   20.0624 O   0  0  0  0  0  0  0  0  0  0  0  0
    9.3445  -15.7994   20.7952 N   0  0  0  0  0  0  0  0  0  0  0  0
    8.9227  -16.5118   21.9772 C   0  0  1  0  0  0  0  0  0  0  0  0
    9.8432  -17.6736   22.2906 C   0  0  0  0  0  0  0  0  0  0  0  0
    9.3739  -18.3283   23.5857 C   0  0  0  0  0  0  0  0  0  0  0  0
   10.2684  -19.5388   23.7947 C   0  0  0  0  0  0  0  0  0  0  0  0
    9.8154  -20.3473   24.9988 C   0  0  0  0  0  0  0  0  0  0  0  0
   10.7809  -21.4337   25.1465 N   0  0  0  0  0  0  0  0  0  0  0  0
    9.0344  -15.5651   23.1430 C   0  0  0  0  0  0  0  0  0  0  0  0
   10.1336  -14.9810   23.2948 O   0  0  0  0  0  0  0  0  0  0  0  0
    7.4180  -11.4744   26.4659 C   0  0  0  0  0  0  0  0  0  0  0  0
    6.6441  -12.7480   26.4009 C   0  0  1  0  0  0  0  0  0  0  0  0
    5.1745  -12.3733   26.5673 C   0  0  0  0  0  0  0  0  0  0  0  0
    6.8950  -13.6948   25.3272 C   0  0  0  0  0  0  0  0  0  0  0  0
    8.1729  -14.4209   25.1703 C   0  0  2  0  0  0  0  0  0  0  0  0
    7.9479  -15.3497   24.0208 N   0  0  0  0  0  0  0  0  0  0  0  0
    8.6031  -15.2411   26.3061 C   0  0  0  0  0  0  0  0  0  0  0  0
    8.0630  -16.4651   26.5934 O   0  0  0  0  0  0  0  0  0  0  0  0
    9.5046  -14.8149   27.0674 O   0  0  0  0  0  0  0  0  0  0  0  0
  2  1  1  1
  3  2  1  0
  4  2  1  0
  4  6  1  0
  4  5  1  6
  6  7  2  0
  8  9  1  0
  8  6  1  0
 10 11  1  0
  9 10  1  1
 11 12  1  0
 12 13  1  0
 13 14  1  0
 15 16  2  0
 15  9  1  0
 18 20  1  0
 18 17  1  6
 19 18  1  0
 21 20  1  1
 21 22  1  0
 21 23  1  0
 22 15  1  0
 23 25  2  0
 23 24  1  0
M  END
$$$$
