MFA.pdb
     RDKit          3D

 25 25  0  0  1  0  0  0  0  0999 V2000
   43.2741  -23.3415    3.4374 C   0  0  0  0  0  0  0  0  0  0  0  0
   43.2339  -24.6588    4.6306 S   0  0  0  0  0  0  0  0  0  0  0  0
   41.6535  -25.3269    5.0490 C   0  0  0  0  0  0  0  0  0  0  0  0
   40.5507  -24.4035    5.4290 C   0  0  0  0  0  0  0  0  0  0  0  0
   39.2385  -25.0246    5.7257 C   0  0  2  0  0  0  0  0  0  0  0  0
   38.6669  -25.6899    4.5930 N   0  0  0  0  0  0  0  0  0  0  0  0
   38.2433  -23.9828    6.1662 C   0  0  0  0  0  0  0  0  0  0  0  0
   38.5567  -23.1571    7.0277 O   0  0  0  0  0  0  0  0  0  0  0  0
   36.9592  -23.9259    5.6184 N   0  0  0  0  0  0  0  0  0  0  0  0
   35.9503  -22.9622    5.8859 C   0  0  1  0  0  0  0  0  0  0  0  0
   34.7789  -22.9570    4.9804 C   0  0  0  0  0  0  0  0  0  0  0  0
   33.8144  -21.8608    5.2231 C   0  0  0  0  0  0  0  0  0  0  0  0
   34.0078  -20.6113    4.6864 C   0  0  0  0  0  0  0  0  0  0  0  0
   33.1281  -19.5670    4.8879 C   0  0  0  0  0  0  0  0  0  0  0  0
   32.0087  -19.7796    5.6573 C   0  0  0  0  0  0  0  0  0  0  0  0
   31.7768  -21.0174    6.2137 C   0  0  0  0  0  0  0  0  0  0  0  0
   32.6880  -22.0508    5.9891 C   0  0  0  0  0  0  0  0  0  0  0  0
   35.4713  -23.1799    7.2898 C   0  0  0  0  0  0  0  0  0  0  0  0
   35.1316  -24.3265    7.6846 O   0  0  0  0  0  0  0  0  0  0  0  0
   35.6863  -21.5311   10.6020 C   0  0  0  0  0  0  0  0  0  0  0  0
   34.9382  -22.3413    9.5965 C   0  0  2  0  0  0  0  0  0  0  0  0
   35.3774  -22.1156    8.2358 N   0  0  0  0  0  0  0  0  0  0  0  0
   33.4742  -22.1186    9.7433 C   0  0  0  0  0  0  0  0  0  0  0  0
   32.8566  -21.5522    8.8068 O   0  0  0  0  0  0  0  0  0  0  0  0
   32.7465  -22.5003   10.8579 O   0  0  0  0  0  0  0  0  0  0  0  0
  1  2  1  0
  2  3  1  0
  4  5  1  0
  4  3  1  0
  5  6  1  6
  7  5  1  0
  7  8  2  0
  9  7  1  0
 10  9  1  0
 11 12  1  0
 10 11  1  6
 12 17  2  0
 13 12  1  0
 13 14  2  0
 14 15  1  0
 15 16  2  0
 17 16  1  0
 18 10  1  0
 19 18  2  0
 21 22  1  0
 21 20  1  1
 22 18  1  0
 23 21  1  0
 24 23  2  0
 25 23  1  0
M  END
$$$$
