MFA.pdb
     RDKit          3D

 25 25  0  0  1  0  0  0  0  0999 V2000
   14.1553  -10.9771   -9.3796 C   0  0  0  0  0  0  0  0  0  0  0  0
   13.4607   -9.4984   -8.6788 S   0  0  0  0  0  0  0  0  0  0  0  0
   14.5204   -8.0928   -8.5355 C   0  0  0  0  0  0  0  0  0  0  0  0
   15.3281   -7.6679   -9.7105 C   0  0  0  0  0  0  0  0  0  0  0  0
   16.3593   -6.6321   -9.4664 C   0  0  2  0  0  0  0  0  0  0  0  0
   15.8044   -5.3799   -9.0463 N   0  0  0  0  0  0  0  0  0  0  0  0
   17.1480   -6.3594  -10.7208 C   0  0  0  0  0  0  0  0  0  0  0  0
   16.8296   -5.4218  -11.4568 O   0  0  0  0  0  0  0  0  0  0  0  0
   18.2439   -7.1495  -11.0772 N   0  0  0  0  0  0  0  0  0  0  0  0
   19.1090   -6.9712  -12.1899 C   0  0  1  0  0  0  0  0  0  0  0  0
   20.5473   -6.7863  -11.8909 C   0  0  0  0  0  0  0  0  0  0  0  0
   21.2351   -5.7961  -12.7495 C   0  0  0  0  0  0  0  0  0  0  0  0
   20.9012   -4.4645  -12.7075 C   0  0  0  0  0  0  0  0  0  0  0  0
   21.5235   -3.5128  -13.4901 C   0  0  0  0  0  0  0  0  0  0  0  0
   22.5207   -3.9079  -14.3501 C   0  0  0  0  0  0  0  0  0  0  0  0
   22.8865   -5.2332  -14.4230 C   0  0  0  0  0  0  0  0  0  0  0  0
   22.2354   -6.1685  -13.6168 C   0  0  0  0  0  0  0  0  0  0  0  0
   18.9539   -8.1641  -13.0848 C   0  0  0  0  0  0  0  0  0  0  0  0
   19.0531   -9.3323  -12.6251 O   0  0  0  0  0  0  0  0  0  0  0  0
   17.3804   -8.9617  -16.3440 C   0  0  0  0  0  0  0  0  0  0  0  0
   18.4378   -9.1937  -15.3169 C   0  0  2  0  0  0  0  0  0  0  0  0
   18.6898   -8.0386  -14.4816 N   0  0  0  0  0  0  0  0  0  0  0  0
   19.6849   -9.6837  -15.9643 C   0  0  0  0  0  0  0  0  0  0  0  0
   20.6168   -8.8655  -16.1676 O   0  0  0  0  0  0  0  0  0  0  0  0
   19.8811  -10.9963  -16.3594 O   0  0  0  0  0  0  0  0  0  0  0  0
  1  2  1  0
  2  3  1  0
  4  5  1  0
  4  3  1  0
  5  6  1  6
  7  5  1  0
  7  8  2  0
  9  7  1  0
 10  9  1  0
 11 12  1  0
 10 11  1  1
 12 17  2  0
 13 12  1  0
 13 14  2  0
 14 15  1  0
 15 16  2  0
 17 16  1  0
 18 10  1  0
 19 18  2  0
 21 22  1  0
 21 20  1  6
 22 18  1  0
 23 21  1  0
 24 23  2  0
 25 23  1  0
M  END
$$$$
