MFA.pdb
     RDKit          3D

 25 25  0  0  1  0  0  0  0  0999 V2000
   25.1556  -20.7503   -3.3194 C   0  0  0  0  0  0  0  0  0  0  0  0
   26.9247  -20.5757   -3.3067 S   0  0  0  0  0  0  0  0  0  0  0  0
   27.7123  -20.1799   -4.8372 C   0  0  0  0  0  0  0  0  0  0  0  0
   26.8919  -20.0870   -6.0748 C   0  0  0  0  0  0  0  0  0  0  0  0
   27.6113  -19.7379   -7.3223 C   0  0  2  0  0  0  0  0  0  0  0  0
   28.3545  -18.5178   -7.2155 N   0  0  0  0  0  0  0  0  0  0  0  0
   26.6437  -19.5593   -8.4633 C   0  0  0  0  0  0  0  0  0  0  0  0
   26.2540  -18.4293   -8.7692 O   0  0  0  0  0  0  0  0  0  0  0  0
   26.1701  -20.6525   -9.1933 N   0  0  0  0  0  0  0  0  0  0  0  0
   25.9280  -20.7149  -10.5918 C   0  0  1  0  0  0  0  0  0  0  0  0
   26.5856  -21.8159  -11.3318 C   0  0  0  0  0  0  0  0  0  0  0  0
   28.0296  -21.6139  -11.5866 C   0  0  0  0  0  0  0  0  0  0  0  0
   28.9812  -22.2838  -10.8571 C   0  0  0  0  0  0  0  0  0  0  0  0
   30.3356  -22.1238  -11.0696 C   0  0  0  0  0  0  0  0  0  0  0  0
   30.7568  -21.2586  -12.0515 C   0  0  0  0  0  0  0  0  0  0  0  0
   29.8358  -20.5674  -12.8061 C   0  0  0  0  0  0  0  0  0  0  0  0
   28.4737  -20.7539  -12.5637 C   0  0  0  0  0  0  0  0  0  0  0  0
   24.4461  -20.8175  -10.7947 C   0  0  0  0  0  0  0  0  0  0  0  0
   23.7631  -21.6544  -10.1475 O   0  0  0  0  0  0  0  0  0  0  0  0
   21.7558  -19.0931  -12.8508 C   0  0  0  0  0  0  0  0  0  0  0  0
   22.3323  -20.1603  -11.9815 C   0  0  2  0  0  0  0  0  0  0  0  0
   23.7447  -19.9848  -11.7173 N   0  0  0  0  0  0  0  0  0  0  0  0
   22.0455  -21.5025  -12.5565 C   0  0  0  0  0  0  0  0  0  0  0  0
   20.8806  -21.9627  -12.4543 O   0  0  0  0  0  0  0  0  0  0  0  0
   22.9921  -22.2806  -13.2016 O   0  0  0  0  0  0  0  0  0  0  0  0
  1  2  1  0
  2  3  1  0
  4  5  1  0
  4  3  1  0
  5  6  1  1
  7  5  1  0
  7  8  2  0
  9  7  1  0
 10  9  1  0
 11 12  1  0
 10 11  1  1
 12 17  2  0
 13 12  1  0
 13 14  2  0
 14 15  1  0
 15 16  2  0
 17 16  1  0
 18 10  1  0
 19 18  2  0
 21 22  1  0
 21 20  1  6
 22 18  1  0
 23 21  1  0
 24 23  2  0
 25 23  1  0
M  END
$$$$
