MFA.pdb
     RDKit          3D

 25 25  0  0  1  0  0  0  0  0999 V2000
   26.3396  -16.6955  -21.1283 C   0  0  0  0  0  0  0  0  0  0  0  0
   25.3509  -18.1717  -21.0683 S   0  0  0  0  0  0  0  0  0  0  0  0
   25.2106  -18.9920  -19.5106 C   0  0  0  0  0  0  0  0  0  0  0  0
   25.9854  -18.4819  -18.3474 C   0  0  0  0  0  0  0  0  0  0  0  0
   27.0303  -19.3799  -17.8019 C   0  0  2  0  0  0  0  0  0  0  0  0
   27.4511  -20.3799  -18.7374 N   0  0  0  0  0  0  0  0  0  0  0  0
   26.5238  -20.1089  -16.5844 C   0  0  0  0  0  0  0  0  0  0  0  0
   25.9611  -21.1997  -16.7096 O   0  0  0  0  0  0  0  0  0  0  0  0
   26.6764  -19.5762  -15.3018 N   0  0  0  0  0  0  0  0  0  0  0  0
   26.2258  -20.1370  -14.0768 C   0  0  1  0  0  0  0  0  0  0  0  0
   26.8378  -19.6060  -12.8375 C   0  0  0  0  0  0  0  0  0  0  0  0
   26.3601  -20.2429  -11.5898 C   0  0  0  0  0  0  0  0  0  0  0  0
   25.4808  -19.5989  -10.7539 C   0  0  0  0  0  0  0  0  0  0  0  0
   25.0110  -20.1632   -9.5852 C   0  0  0  0  0  0  0  0  0  0  0  0
   25.4371  -21.4231   -9.2370 C   0  0  0  0  0  0  0  0  0  0  0  0
   26.3181  -22.1037  -10.0470 C   0  0  0  0  0  0  0  0  0  0  0  0
   26.7727  -21.5022  -11.2219 C   0  0  0  0  0  0  0  0  0  0  0  0
   24.7415  -19.9394  -14.0025 C   0  0  0  0  0  0  0  0  0  0  0  0
   24.2413  -18.7849  -14.0568 O   0  0  0  0  0  0  0  0  0  0  0  0
   21.6219  -21.9518  -14.4140 C   0  0  0  0  0  0  0  0  0  0  0  0
   22.4014  -20.8313  -13.8108 C   0  0  2  0  0  0  0  0  0  0  0  0
   23.8338  -21.0323  -13.8685 N   0  0  0  0  0  0  0  0  0  0  0  0
   21.9402  -20.5747  -12.4194 C   0  0  0  0  0  0  0  0  0  0  0  0
   22.6721  -20.9439  -11.4670 O   0  0  0  0  0  0  0  0  0  0  0  0
   20.7442  -19.9495  -12.1091 O   0  0  0  0  0  0  0  0  0  0  0  0
  1  2  1  0
  2  3  1  0
  4  5  1  0
  4  3  1  0
  5  6  1  6
  7  5  1  0
  7  8  2  0
  9  7  1  0
 10  9  1  0
 11 12  1  0
 10 11  1  1
 12 17  2  0
 13 12  1  0
 13 14  2  0
 14 15  1  0
 15 16  2  0
 17 16  1  0
 18 10  1  0
 19 18  2  0
 21 22  1  0
 21 20  1  1
 22 18  1  0
 23 21  1  0
 24 23  2  0
 25 23  1  0
M  END
$$$$
