MFA.pdb
     RDKit          3D

 25 25  0  0  1  0  0  0  0  0999 V2000
   27.2572  -17.1784  -15.7289 C   0  0  0  0  0  0  0  0  0  0  0  0
   28.7429  -17.7813  -16.4966 S   0  0  0  0  0  0  0  0  0  0  0  0
   29.0975  -19.5041  -16.3370 C   0  0  0  0  0  0  0  0  0  0  0  0
   28.2360  -20.3463  -15.4642 C   0  0  0  0  0  0  0  0  0  0  0  0
   28.0031  -19.8518  -14.0869 C   0  0  2  0  0  0  0  0  0  0  0  0
   29.1732  -19.9217  -13.2633 N   0  0  0  0  0  0  0  0  0  0  0  0
   26.9387  -20.6678  -13.4006 C   0  0  0  0  0  0  0  0  0  0  0  0
   26.5564  -21.7281  -13.9023 O   0  0  0  0  0  0  0  0  0  0  0  0
   26.3659  -20.2508  -12.1963 N   0  0  0  0  0  0  0  0  0  0  0  0
   25.3792  -20.9286  -11.4313 C   0  0  1  0  0  0  0  0  0  0  0  0
   25.2359  -20.5167  -10.0164 C   0  0  0  0  0  0  0  0  0  0  0  0
   26.4863  -20.5729   -9.2264 C   0  0  0  0  0  0  0  0  0  0  0  0
   26.6576  -19.7925   -8.1091 C   0  0  0  0  0  0  0  0  0  0  0  0
   27.8074  -19.8216   -7.3462 C   0  0  0  0  0  0  0  0  0  0  0  0
   28.8285  -20.6653   -7.7145 C   0  0  0  0  0  0  0  0  0  0  0  0
   28.6977  -21.4649   -8.8276 C   0  0  0  0  0  0  0  0  0  0  0  0
   27.5205  -21.4094   -9.5760 C   0  0  0  0  0  0  0  0  0  0  0  0
   24.0607  -20.7449  -12.1210 C   0  0  0  0  0  0  0  0  0  0  0  0
   23.5688  -19.5961  -12.2763 O   0  0  0  0  0  0  0  0  0  0  0  0
   21.6807  -22.8207  -14.1904 C   0  0  0  0  0  0  0  0  0  0  0  0
   22.0634  -21.6529  -13.3437 C   0  0  2  0  0  0  0  0  0  0  0  0
   23.3074  -21.8454  -12.6290 N   0  0  0  0  0  0  0  0  0  0  0  0
   20.9507  -21.3004  -12.4207 C   0  0  0  0  0  0  0  0  0  0  0  0
   21.1169  -21.4726  -11.1871 O   0  0  0  0  0  0  0  0  0  0  0  0
   19.7342  -20.7907  -12.8427 O   0  0  0  0  0  0  0  0  0  0  0  0
  1  2  1  0
  2  3  1  0
  4  5  1  0
  4  3  1  0
  5  6  1  1
  7  5  1  0
  7  8  2  0
  9  7  1  0
 10  9  1  0
 11 12  1  0
 10 11  1  1
 12 17  2  0
 13 12  1  0
 13 14  2  0
 14 15  1  0
 15 16  2  0
 17 16  1  0
 18 10  1  0
 19 18  2  0
 21 22  1  0
 21 20  1  1
 22 18  1  0
 23 21  1  0
 24 23  2  0
 25 23  1  0
M  END
$$$$
