MFA.pdb
     RDKit          3D

 25 25  0  0  1  0  0  0  0  0999 V2000
   27.3771  -20.4131  -14.7810 C   0  0  0  0  0  0  0  0  0  0  0  0
   28.9393  -19.7090  -14.3077 S   0  0  0  0  0  0  0  0  0  0  0  0
   29.6829  -20.3082  -12.8220 C   0  0  0  0  0  0  0  0  0  0  0  0
   28.8138  -20.6942  -11.6779 C   0  0  0  0  0  0  0  0  0  0  0  0
   29.5002  -21.0370  -10.4102 C   0  0  2  0  0  0  0  0  0  0  0  0
   30.5748  -21.9671  -10.5910 N   0  0  0  0  0  0  0  0  0  0  0  0
   28.5382  -21.6676   -9.4370 C   0  0  0  0  0  0  0  0  0  0  0  0
   28.9671  -22.3365   -8.4932 O   0  0  0  0  0  0  0  0  0  0  0  0
   27.1566  -21.5131   -9.5764 N   0  0  0  0  0  0  0  0  0  0  0  0
   26.3030  -20.6693   -8.8164 C   0  0  1  0  0  0  0  0  0  0  0  0
   26.9181  -19.4583   -8.2272 C   0  0  0  0  0  0  0  0  0  0  0  0
   27.5047  -19.6544   -6.8825 C   0  0  0  0  0  0  0  0  0  0  0  0
   26.9965  -20.5895   -6.0142 C   0  0  0  0  0  0  0  0  0  0  0  0
   27.5201  -20.8027   -4.7550 C   0  0  0  0  0  0  0  0  0  0  0  0
   28.5961  -20.0508   -4.3464 C   0  0  0  0  0  0  0  0  0  0  0  0
   29.1364  -19.1028   -5.1860 C   0  0  0  0  0  0  0  0  0  0  0  0
   28.5811  -18.9140   -6.4528 C   0  0  0  0  0  0  0  0  0  0  0  0
   25.1688  -20.2495   -9.7026 C   0  0  0  0  0  0  0  0  0  0  0  0
   24.4168  -19.2931   -9.3778 O   0  0  0  0  0  0  0  0  0  0  0  0
   24.0777  -20.8434  -13.2588 C   0  0  0  0  0  0  0  0  0  0  0  0
   23.8678  -20.4155  -11.8446 C   0  0  2  0  0  0  0  0  0  0  0  0
   24.8879  -20.9021  -10.9402 N   0  0  0  0  0  0  0  0  0  0  0  0
   22.5040  -20.7984  -11.3886 C   0  0  0  0  0  0  0  0  0  0  0  0
   21.5170  -20.4316  -12.0745 O   0  0  0  0  0  0  0  0  0  0  0  0
   22.2556  -21.5395  -10.2455 O   0  0  0  0  0  0  0  0  0  0  0  0
  1  2  1  0
  2  3  1  0
  4  5  1  0
  4  3  1  0
  5  6  1  6
  7  5  1  0
  7  8  2  0
  9  7  1  0
 10  9  1  0
 11 12  1  0
 10 11  1  6
 12 17  2  0
 13 12  1  0
 13 14  2  0
 14 15  1  0
 15 16  2  0
 17 16  1  0
 18 10  1  0
 19 18  2  0
 21 22  1  0
 21 20  1  6
 22 18  1  0
 23 21  1  0
 24 23  2  0
 25 23  1  0
M  END
$$$$
