MFA.pdb
     RDKit          3D

 25 25  0  0  1  0  0  0  0  0999 V2000
   26.8262  -17.5537  -15.1826 C   0  0  0  0  0  0  0  0  0  0  0  0
   28.5961  -17.6702  -15.0639 S   0  0  0  0  0  0  0  0  0  0  0  0
   29.2587  -18.6657  -13.7642 C   0  0  0  0  0  0  0  0  0  0  0  0
   28.3293  -19.3372  -12.8163 C   0  0  0  0  0  0  0  0  0  0  0  0
   28.9469  -20.1979  -11.7801 C   0  0  2  0  0  0  0  0  0  0  0  0
   29.7408  -21.2547  -12.3327 N   0  0  0  0  0  0  0  0  0  0  0  0
   27.8886  -20.8489  -10.9280 C   0  0  0  0  0  0  0  0  0  0  0  0
   27.6546  -22.0541  -11.0505 O   0  0  0  0  0  0  0  0  0  0  0  0
   27.1562  -20.1154   -9.9911 N   0  0  0  0  0  0  0  0  0  0  0  0
   26.0123  -20.5432   -9.2655 C   0  0  1  0  0  0  0  0  0  0  0  0
   25.7392  -19.8505   -7.9857 C   0  0  0  0  0  0  0  0  0  0  0  0
   26.8114  -19.9767   -6.9732 C   0  0  0  0  0  0  0  0  0  0  0  0
   27.0106  -21.1520   -6.2908 C   0  0  0  0  0  0  0  0  0  0  0  0
   28.0024  -21.3074   -5.3435 C   0  0  0  0  0  0  0  0  0  0  0  0
   28.8295  -20.2448   -5.0664 C   0  0  0  0  0  0  0  0  0  0  0  0
   28.6643  -19.0487   -5.7280 C   0  0  0  0  0  0  0  0  0  0  0  0
   27.6506  -18.9272   -6.6801 C   0  0  0  0  0  0  0  0  0  0  0  0
   24.8193  -20.3876  -10.1601 C   0  0  0  0  0  0  0  0  0  0  0  0
   24.2999  -19.2564  -10.3512 O   0  0  0  0  0  0  0  0  0  0  0  0
   23.1318  -22.3962  -12.8404 C   0  0  0  0  0  0  0  0  0  0  0  0
   23.1690  -21.3181  -11.8091 C   0  0  2  0  0  0  0  0  0  0  0  0
   24.2207  -21.4961  -10.8305 N   0  0  0  0  0  0  0  0  0  0  0  0
   21.8363  -21.1797  -11.1616 C   0  0  0  0  0  0  0  0  0  0  0  0
   20.8322  -20.9832  -11.8913 O   0  0  0  0  0  0  0  0  0  0  0  0
   21.6350  -21.2545   -9.7936 O   0  0  0  0  0  0  0  0  0  0  0  0
  1  2  1  0
  2  3  1  0
  4  5  1  0
  4  3  1  0
  5  6  1  6
  7  5  1  0
  7  8  2  0
  9  7  1  0
 10  9  1  0
 11 12  1  0
 10 11  1  1
 12 17  2  0
 13 12  1  0
 13 14  2  0
 14 15  1  0
 15 16  2  0
 17 16  1  0
 18 10  1  0
 19 18  2  0
 21 22  1  0
 21 20  1  6
 22 18  1  0
 23 21  1  0
 24 23  2  0
 25 23  1  0
M  END
$$$$
