MFA.pdb
     RDKit          3D

 25 25  0  0  1  0  0  0  0  0999 V2000
   23.5826  -21.3340  -18.2411 C   0  0  0  0  0  0  0  0  0  0  0  0
   24.7218  -22.1403  -19.3421 S   0  0  0  0  0  0  0  0  0  0  0  0
   26.4047  -21.6059  -19.3027 C   0  0  0  0  0  0  0  0  0  0  0  0
   26.8376  -20.6421  -18.2553 C   0  0  0  0  0  0  0  0  0  0  0  0
   27.7502  -21.1639  -17.2109 C   0  0  2  0  0  0  0  0  0  0  0  0
   28.4716  -22.3282  -17.6307 N   0  0  0  0  0  0  0  0  0  0  0  0
   26.9799  -21.5513  -15.9754 C   0  0  0  0  0  0  0  0  0  0  0  0
   26.6430  -22.7256  -15.8028 O   0  0  0  0  0  0  0  0  0  0  0  0
   26.6327  -20.6049  -15.0080 N   0  0  0  0  0  0  0  0  0  0  0  0
   25.9627  -20.8371  -13.7770 C   0  0  1  0  0  0  0  0  0  0  0  0
   26.3676  -19.9929  -12.6300 C   0  0  0  0  0  0  0  0  0  0  0  0
   25.7186  -20.3412  -11.3462 C   0  0  0  0  0  0  0  0  0  0  0  0
   24.5544  -19.7302  -10.9488 C   0  0  0  0  0  0  0  0  0  0  0  0
   23.9194  -20.0324   -9.7612 C   0  0  0  0  0  0  0  0  0  0  0  0
   24.4701  -20.9845   -8.9363 C   0  0  0  0  0  0  0  0  0  0  0  0
   25.6362  -21.6213   -9.2970 C   0  0  0  0  0  0  0  0  0  0  0  0
   26.2515  -21.2904  -10.5056 C   0  0  0  0  0  0  0  0  0  0  0  0
   24.4939  -20.6525  -14.0145 C   0  0  0  0  0  0  0  0  0  0  0  0
   24.0499  -19.5819  -14.5070 O   0  0  0  0  0  0  0  0  0  0  0  0
   21.4501  -22.6886  -14.4903 C   0  0  0  0  0  0  0  0  0  0  0  0
   22.1228  -21.4775  -13.9356 C   0  0  2  0  0  0  0  0  0  0  0  0
   23.5386  -21.6649  -13.6994 N   0  0  0  0  0  0  0  0  0  0  0  0
   21.4195  -21.0153  -12.7084 C   0  0  0  0  0  0  0  0  0  0  0  0
   21.9899  -21.1627  -11.5984 O   0  0  0  0  0  0  0  0  0  0  0  0
   20.1650  -20.4288  -12.7162 O   0  0  0  0  0  0  0  0  0  0  0  0
  1  2  1  0
  2  3  1  0
  4  5  1  0
  4  3  1  0
  5  6  1  6
  7  5  1  0
  7  8  2  0
  9  7  1  0
 10  9  1  0
 11 12  1  0
 10 11  1  1
 12 17  2  0
 13 12  1  0
 13 14  2  0
 14 15  1  0
 15 16  2  0
 17 16  1  0
 18 10  1  0
 19 18  2  0
 21 22  1  0
 21 20  1  1
 22 18  1  0
 23 21  1  0
 24 23  2  0
 25 23  1  0
M  END
$$$$
