MFA.pdb
     RDKit          3D

 25 25  0  0  1  0  0  0  0  0999 V2000
   21.7804  -11.7698  -25.1959 C   0  0  0  0  0  0  0  0  0  0  0  0
   21.4687  -11.4295  -23.4791 S   0  0  0  0  0  0  0  0  0  0  0  0
   22.8652  -11.3506  -22.4007 C   0  0  0  0  0  0  0  0  0  0  0  0
   22.6510  -11.0965  -20.9506 C   0  0  0  0  0  0  0  0  0  0  0  0
   23.8505  -10.7437  -20.1552 C   0  0  2  0  0  0  0  0  0  0  0  0
   24.8279  -11.7906  -20.1247 N   0  0  0  0  0  0  0  0  0  0  0  0
   23.4755  -10.4568  -18.7244 C   0  0  0  0  0  0  0  0  0  0  0  0
   23.3106  -11.3884  -17.9324 O   0  0  0  0  0  0  0  0  0  0  0  0
   23.3077   -9.1481  -18.2648 N   0  0  0  0  0  0  0  0  0  0  0  0
   23.0746   -8.7277  -16.9280 C   0  0  1  0  0  0  0  0  0  0  0  0
   24.1924   -8.0398  -16.2428 C   0  0  0  0  0  0  0  0  0  0  0  0
   25.4011   -8.8706  -16.0442 C   0  0  0  0  0  0  0  0  0  0  0  0
   25.4501   -9.8325  -15.0650 C   0  0  0  0  0  0  0  0  0  0  0  0
   26.5579  -10.6283  -14.8537 C   0  0  0  0  0  0  0  0  0  0  0  0
   27.6626  -10.4560  -15.6538 C   0  0  0  0  0  0  0  0  0  0  0  0
   27.6552   -9.5031  -16.6475 C   0  0  0  0  0  0  0  0  0  0  0  0
   26.5173   -8.7159  -16.8328 C   0  0  0  0  0  0  0  0  0  0  0  0
   21.8833   -7.8174  -16.9366 C   0  0  0  0  0  0  0  0  0  0  0  0
   21.8183   -6.8482  -17.7379 O   0  0  0  0  0  0  0  0  0  0  0  0
   18.3718   -7.8171  -15.5969 C   0  0  0  0  0  0  0  0  0  0  0  0
   19.6063   -7.1537  -16.1098 C   0  0  2  0  0  0  0  0  0  0  0  0
   20.7793   -8.0000  -16.0508 N   0  0  0  0  0  0  0  0  0  0  0  0
   19.8270   -5.8622  -15.4042 C   0  0  0  0  0  0  0  0  0  0  0  0
   20.7452   -5.7950  -14.5489 O   0  0  0  0  0  0  0  0  0  0  0  0
   19.0756   -4.7222  -15.6350 O   0  0  0  0  0  0  0  0  0  0  0  0
  1  2  1  0
  2  3  1  0
  4  5  1  0
  4  3  1  0
  5  6  1  1
  7  5  1  0
  7  8  2  0
  9  7  1  0
 10  9  1  0
 11 12  1  0
 10 11  1  6
 12 17  2  0
 13 12  1  0
 13 14  2  0
 14 15  1  0
 15 16  2  0
 17 16  1  0
 18 10  1  0
 19 18  2  0
 21 22  1  0
 21 20  1  1
 22 18  1  0
 23 21  1  0
 24 23  2  0
 25 23  1  0
M  END
$$$$
