MFA.pdb
     RDKit          3D

 25 25  0  0  1  0  0  0  0  0999 V2000
   15.1100   -9.0670  -20.8622 C   0  0  0  0  0  0  0  0  0  0  0  0
   15.7393   -8.0672  -19.5338 S   0  0  0  0  0  0  0  0  0  0  0  0
   16.9967   -8.7717  -18.5130 C   0  0  0  0  0  0  0  0  0  0  0  0
   17.4856   -8.0109  -17.3317 C   0  0  0  0  0  0  0  0  0  0  0  0
   18.7331   -8.4996  -16.6985 C   0  0  2  0  0  0  0  0  0  0  0  0
   18.6523   -9.8706  -16.2909 N   0  0  0  0  0  0  0  0  0  0  0  0
   19.0540   -7.6971  -15.4645 C   0  0  0  0  0  0  0  0  0  0  0  0
   18.5032   -7.9669  -14.3939 O   0  0  0  0  0  0  0  0  0  0  0  0
   19.9700   -6.6426  -15.5003 N   0  0  0  0  0  0  0  0  0  0  0  0
   20.4233   -5.8576  -14.4065 C   0  0  1  0  0  0  0  0  0  0  0  0
   21.8145   -6.0872  -13.9547 C   0  0  0  0  0  0  0  0  0  0  0  0
   22.0879   -7.4575  -13.4664 C   0  0  0  0  0  0  0  0  0  0  0  0
   22.8305   -8.3424  -14.2094 C   0  0  0  0  0  0  0  0  0  0  0  0
   23.1089   -9.6258  -13.7844 C   0  0  0  0  0  0  0  0  0  0  0  0
   22.6255  -10.0423  -12.5666 C   0  0  0  0  0  0  0  0  0  0  0  0
   21.8770   -9.1866  -11.7900 C   0  0  0  0  0  0  0  0  0  0  0  0
   21.6148   -7.8955  -12.2515 C   0  0  0  0  0  0  0  0  0  0  0  0
   20.2735   -4.4150  -14.7865 C   0  0  0  0  0  0  0  0  0  0  0  0
   20.7720   -3.9749  -15.8559 O   0  0  0  0  0  0  0  0  0  0  0  0
   18.1776   -1.4761  -13.6906 C   0  0  0  0  0  0  0  0  0  0  0  0
   19.3166   -2.1245  -14.4043 C   0  0  2  0  0  0  0  0  0  0  0  0
   19.5692   -3.4815  -13.9685 N   0  0  0  0  0  0  0  0  0  0  0  0
   20.5371   -1.2796  -14.2993 C   0  0  0  0  0  0  0  0  0  0  0  0
   20.4892   -0.1001  -14.7303 O   0  0  0  0  0  0  0  0  0  0  0  0
   21.7309   -1.7184  -13.7517 O   0  0  0  0  0  0  0  0  0  0  0  0
  1  2  1  0
  2  3  1  0
  4  5  1  0
  4  3  1  0
  5  6  1  1
  7  5  1  0
  7  8  2  0
  9  7  1  0
 10  9  1  0
 11 12  1  0
 10 11  1  6
 12 17  2  0
 13 12  1  0
 13 14  2  0
 14 15  1  0
 15 16  2  0
 17 16  1  0
 18 10  1  0
 19 18  2  0
 21 22  1  0
 21 20  1  1
 22 18  1  0
 23 21  1  0
 24 23  2  0
 25 23  1  0
M  END
$$$$
