SIS.pdb
     RDKit          3D

 21 20  0  0  1  0  0  0  0  0999 V2000
   20.0256  -11.9073  -20.1816 O   0  0  0  0  0  0  0  0  0  0  0  0
   20.5118  -11.3330  -19.0317 C   0  0  0  0  0  0  0  0  0  0  0  0
   21.6903  -12.0585  -18.4376 C   0  0  2  0  0  0  0  0  0  0  0  0
   21.2407  -13.3277  -17.9310 N   0  0  0  0  0  0  0  0  0  0  0  0
   22.1809  -11.2517  -17.2893 C   0  0  0  0  0  0  0  0  0  0  0  0
   21.5895  -11.2228  -16.1697 O   0  0  0  0  0  0  0  0  0  0  0  0
   27.2267  -11.2451  -15.5893 C   0  0  0  0  0  0  0  0  0  0  0  0
   25.7160  -11.2143  -15.7188 C   0  0  0  0  0  0  0  0  0  0  0  0
   25.3132   -9.8076  -16.0208 C   0  0  2  0  0  0  0  0  0  0  0  0
   25.7842   -8.8602  -14.9593 C   0  0  0  0  0  0  0  0  0  0  0  0
   23.8419   -9.6485  -16.3011 C   0  0  2  0  0  0  0  0  0  0  0  0
   23.3725  -10.4466  -17.3871 N   0  0  0  0  0  0  0  0  0  0  0  0
   23.5081   -8.2016  -16.4734 C   0  0  0  0  0  0  0  0  0  0  0  0
   24.0178   -7.5789  -17.4399 O   0  0  0  0  0  0  0  0  0  0  0  0
   20.3972   -6.2511  -14.4408 O   0  0  0  0  0  0  0  0  0  0  0  0
   20.8830   -5.8002  -15.6531 C   0  0  0  0  0  0  0  0  0  0  0  0
   22.3431   -6.1236  -15.8644 C   0  0  2  0  0  0  0  0  0  0  0  0
   22.6518   -7.5044  -15.6066 N   0  0  0  0  0  0  0  0  0  0  0  0
   23.1226   -5.2093  -14.9763 C   0  0  0  0  0  0  0  0  0  0  0  0
   23.8320   -5.6638  -14.0387 O   0  0  0  0  0  0  0  0  0  0  0  0
   23.0349   -3.8467  -15.2237 O   0  0  0  0  0  0  0  0  0  0  0  0
  2  1  1  0
  3  4  1  1
  3  2  1  0
  5  3  1  0
  6  5  2  0
  8  9  1  0
  8  7  1  0
  9 11  1  0
  9 10  1  1
 11 13  1  0
 11 12  1  6
 12  5  1  0
 13 18  1  0
 14 13  2  0
 17 16  1  1
 16 15  1  0
 17 19  1  0
 18 17  1  0
 19 20  2  0
 19 21  1  0
M  END
$$$$
