SIS.pdb
     RDKit          3D

 21 20  0  0  1  0  0  0  0  0999 V2000
   22.1698  -10.0527  -22.3803 O   0  0  0  0  0  0  0  0  0  0  0  0
   21.6290   -9.6686  -21.1767 C   0  0  0  0  0  0  0  0  0  0  0  0
   21.7817  -10.6932  -20.0836 C   0  0  2  0  0  0  0  0  0  0  0  0
   20.8277  -11.7470  -20.3052 N   0  0  0  0  0  0  0  0  0  0  0  0
   21.4443  -10.0293  -18.7968 C   0  0  0  0  0  0  0  0  0  0  0  0
   20.2648   -9.9842  -18.3375 O   0  0  0  0  0  0  0  0  0  0  0  0
   24.5095  -10.6452  -14.4703 C   0  0  0  0  0  0  0  0  0  0  0  0
   23.3969  -10.5010  -15.4907 C   0  0  0  0  0  0  0  0  0  0  0  0
   23.1065   -9.0437  -15.6454 C   0  0  2  0  0  0  0  0  0  0  0  0
   22.6745   -8.4279  -14.3491 C   0  0  0  0  0  0  0  0  0  0  0  0
   22.1421   -8.7358  -16.7607 C   0  0  2  0  0  0  0  0  0  0  0  0
   22.4537   -9.3915  -17.9894 N   0  0  0  0  0  0  0  0  0  0  0  0
   22.0060   -7.2562  -16.9248 C   0  0  0  0  0  0  0  0  0  0  0  0
   23.0404   -6.5807  -17.1596 O   0  0  0  0  0  0  0  0  0  0  0  0
   19.3739   -5.4384  -19.0289 O   0  0  0  0  0  0  0  0  0  0  0  0
   19.5123   -4.7397  -17.8449 C   0  0  0  0  0  0  0  0  0  0  0  0
   20.7203   -5.1637  -17.0436 C   0  0  2  0  0  0  0  0  0  0  0  0
   20.7770   -6.5847  -16.8291 N   0  0  0  0  0  0  0  0  0  0  0  0
   20.6696   -4.4130  -15.7527 C   0  0  0  0  0  0  0  0  0  0  0  0
   20.5379   -5.0177  -14.6547 O   0  0  0  0  0  0  0  0  0  0  0  0
   20.7726   -3.0304  -15.8109 O   0  0  0  0  0  0  0  0  0  0  0  0
  2  1  1  0
  3  4  1  6
  3  2  1  0
  5  3  1  0
  6  5  2  0
  8  9  1  0
  8  7  1  0
  9 11  1  0
  9 10  1  1
 11 13  1  0
 11 12  1  6
 12  5  1  0
 13 18  1  0
 14 13  2  0
 17 16  1  6
 16 15  1  0
 17 19  1  0
 18 17  1  0
 19 20  2  0
 19 21  1  0
M  END
$$$$
