SIS.pdb
     RDKit          3D

 21 20  0  0  1  0  0  0  0  0999 V2000
   18.2646  -10.6166  -18.9053 O   0  0  0  0  0  0  0  0  0  0  0  0
   19.1297  -10.3198  -17.8796 C   0  0  0  0  0  0  0  0  0  0  0  0
   20.1361  -11.4038  -17.5963 C   0  0  2  0  0  0  0  0  0  0  0  0
   19.4352  -12.5719  -17.1336 N   0  0  0  0  0  0  0  0  0  0  0  0
   21.0119  -10.9253  -16.4943 C   0  0  0  0  0  0  0  0  0  0  0  0
   20.7437  -11.1201  -15.2719 O   0  0  0  0  0  0  0  0  0  0  0  0
   26.8268  -10.4022  -15.1054 C   0  0  0  0  0  0  0  0  0  0  0  0
   25.4235   -9.9551  -14.7438 C   0  0  0  0  0  0  0  0  0  0  0  0
   24.5393  -10.2380  -15.9144 C   0  0  2  0  0  0  0  0  0  0  0  0
   25.1191   -9.6963  -17.1858 C   0  0  0  0  0  0  0  0  0  0  0  0
   23.1138   -9.7940  -15.7148 C   0  0  2  0  0  0  0  0  0  0  0  0
   22.2312  -10.2035  -16.7587 N   0  0  0  0  0  0  0  0  0  0  0  0
   23.0667   -8.3190  -15.4766 C   0  0  0  0  0  0  0  0  0  0  0  0
   23.5733   -7.8652  -14.4188 O   0  0  0  0  0  0  0  0  0  0  0  0
   20.7278   -4.2049  -15.9779 O   0  0  0  0  0  0  0  0  0  0  0  0
   20.8934   -5.5460  -16.2663 C   0  0  0  0  0  0  0  0  0  0  0  0
   22.2934   -6.0429  -15.9939 C   0  0  2  0  0  0  0  0  0  0  0  0
   22.4830   -7.4156  -16.3788 N   0  0  0  0  0  0  0  0  0  0  0  0
   22.5500   -5.8387  -14.5362 C   0  0  0  0  0  0  0  0  0  0  0  0
   21.9788   -6.5543  -13.6699 O   0  0  0  0  0  0  0  0  0  0  0  0
   23.4378   -4.8349  -14.1761 O   0  0  0  0  0  0  0  0  0  0  0  0
  2  1  1  0
  3  4  1  1
  3  2  1  0
  5  3  1  0
  6  5  2  0
  8  9  1  0
  8  7  1  0
  9 11  1  0
  9 10  1  6
 11 13  1  0
 11 12  1  6
 12  5  1  0
 13 18  1  0
 14 13  2  0
 17 16  1  1
 16 15  1  0
 17 19  1  0
 18 17  1  0
 19 20  2  0
 19 21  1  0
M  END
$$$$
