SIS.pdb
     RDKit          3D

 21 20  0  0  1  0  0  0  0  0999 V2000
   20.3356  -24.7542   -7.4234 O   0  0  0  0  0  0  0  0  0  0  0  0
   20.5856  -23.4943   -7.9118 C   0  0  0  0  0  0  0  0  0  0  0  0
   21.3156  -22.5985   -6.9459 C   0  0  2  0  0  0  0  0  0  0  0  0
   20.3471  -21.9203   -6.1264 N   0  0  0  0  0  0  0  0  0  0  0  0
   22.0409  -21.5754   -7.7443 C   0  0  0  0  0  0  0  0  0  0  0  0
   21.4653  -20.5683   -8.2528 O   0  0  0  0  0  0  0  0  0  0  0  0
   27.0766  -19.8133   -6.4719 C   0  0  0  0  0  0  0  0  0  0  0  0
   25.6182  -20.0079   -6.8394 C   0  0  0  0  0  0  0  0  0  0  0  0
   25.5618  -20.4337   -8.2703 C   0  0  2  0  0  0  0  0  0  0  0  0
   26.2892  -19.4716   -9.1599 C   0  0  0  0  0  0  0  0  0  0  0  0
   24.1650  -20.7067   -8.7638 C   0  0  2  0  0  0  0  0  0  0  0  0
   23.4583  -21.6734   -7.9875 N   0  0  0  0  0  0  0  0  0  0  0  0
   24.1958  -21.0570  -10.2167 C   0  0  0  0  0  0  0  0  0  0  0  0
   24.8186  -22.0901  -10.5721 O   0  0  0  0  0  0  0  0  0  0  0  0
   21.9322  -19.0417  -13.1084 O   0  0  0  0  0  0  0  0  0  0  0  0
   22.3223  -20.3495  -13.3242 C   0  0  0  0  0  0  0  0  0  0  0  0
   23.5777  -20.7258  -12.5734 C   0  0  2  0  0  0  0  0  0  0  0  0
   23.5617  -20.2865  -11.2041 N   0  0  0  0  0  0  0  0  0  0  0  0
   24.7262  -20.1385  -13.3273 C   0  0  0  0  0  0  0  0  0  0  0  0
   25.4584  -19.2532  -12.8090 O   0  0  0  0  0  0  0  0  0  0  0  0
   24.9534  -20.6046  -14.6145 O   0  0  0  0  0  0  0  0  0  0  0  0
  2  1  1  0
  3  4  1  1
  3  2  1  0
  5  3  1  0
  6  5  2  0
  8  9  1  0
  8  7  1  0
  9 11  1  0
  9 10  1  6
 11 13  1  0
 11 12  1  1
 12  5  1  0
 13 18  1  0
 14 13  2  0
 17 16  1  6
 16 15  1  0
 17 19  1  0
 18 17  1  0
 19 20  2  0
 19 21  1  0
M  END
$$$$
