SIS.pdb
     RDKit          3D

 21 20  0  0  1  0  0  0  0  0999 V2000
   22.0213  -14.8597  -20.5459 O   0  0  0  0  0  0  0  0  0  0  0  0
   22.4317  -13.8852  -19.6682 C   0  0  0  0  0  0  0  0  0  0  0  0
   23.4503  -14.3571  -18.6642 C   0  0  2  0  0  0  0  0  0  0  0  0
   22.9235  -15.5088  -17.9818 N   0  0  0  0  0  0  0  0  0  0  0  0
   23.6303  -13.2715  -17.6645 C   0  0  0  0  0  0  0  0  0  0  0  0
   22.7832  -13.0308  -16.7542 O   0  0  0  0  0  0  0  0  0  0  0  0
   28.5665  -12.1661  -15.6384 C   0  0  0  0  0  0  0  0  0  0  0  0
   27.0868  -12.4526  -15.8067 C   0  0  0  0  0  0  0  0  0  0  0  0
   26.4352  -11.2051  -16.3079 C   0  0  2  0  0  0  0  0  0  0  0  0
   26.6034  -10.0705  -15.3433 C   0  0  0  0  0  0  0  0  0  0  0  0
   24.9945  -11.3946  -16.7044 C   0  0  2  0  0  0  0  0  0  0  0  0
   24.7941  -12.4212  -17.6752 N   0  0  0  0  0  0  0  0  0  0  0  0
   24.4054  -10.0880  -17.1292 C   0  0  0  0  0  0  0  0  0  0  0  0
   24.8328   -9.5511  -18.1830 O   0  0  0  0  0  0  0  0  0  0  0  0
   20.7167   -9.1623  -17.3109 O   0  0  0  0  0  0  0  0  0  0  0  0
   21.3761   -8.0798  -16.7611 C   0  0  0  0  0  0  0  0  0  0  0  0
   22.8786   -8.1766  -16.8814 C   0  0  2  0  0  0  0  0  0  0  0  0
   23.3967   -9.4314  -16.4066 N   0  0  0  0  0  0  0  0  0  0  0  0
   23.4495   -7.0224  -16.1236 C   0  0  0  0  0  0  0  0  0  0  0  0
   24.1668   -7.2063  -15.1037 O   0  0  0  0  0  0  0  0  0  0  0  0
   23.1598   -5.7463  -16.5854 O   0  0  0  0  0  0  0  0  0  0  0  0
  2  1  1  0
  3  4  1  1
  3  2  1  0
  5  3  1  0
  6  5  2  0
  8  9  1  0
  8  7  1  0
  9 11  1  0
  9 10  1  1
 11 13  1  0
 11 12  1  6
 12  5  1  0
 13 18  1  0
 14 13  2  0
 17 16  1  1
 16 15  1  0
 17 19  1  0
 18 17  1  0
 19 20  2  0
 19 21  1  0
M  END
$$$$
