SIS.pdb
     RDKit          3D

 21 20  0  0  1  0  0  0  0  0999 V2000
   19.1225   -9.5303  -21.1672 O   0  0  0  0  0  0  0  0  0  0  0  0
   19.2906   -9.3791  -19.8117 C   0  0  0  0  0  0  0  0  0  0  0  0
   19.8593  -10.5942  -19.1274 C   0  0  2  0  0  0  0  0  0  0  0  0
   18.8401  -11.6077  -19.0687 N   0  0  0  0  0  0  0  0  0  0  0  0
   20.2023  -10.2045  -17.7343 C   0  0  0  0  0  0  0  0  0  0  0  0
   19.3730  -10.2733  -16.7794 O   0  0  0  0  0  0  0  0  0  0  0  0
   24.3619  -12.2434  -15.3478 C   0  0  0  0  0  0  0  0  0  0  0  0
   23.0353  -11.6466  -15.7766 C   0  0  0  0  0  0  0  0  0  0  0  0
   23.1146  -10.1682  -15.5760 C   0  0  2  0  0  0  0  0  0  0  0  0
   23.4709   -9.8230  -14.1618 C   0  0  0  0  0  0  0  0  0  0  0  0
   21.8868   -9.4297  -16.0408 C   0  0  2  0  0  0  0  0  0  0  0  0
   21.5149   -9.7202  -17.3876 N   0  0  0  0  0  0  0  0  0  0  0  0
   22.0507   -7.9635  -15.8001 C   0  0  0  0  0  0  0  0  0  0  0  0
   22.9838   -7.3593  -16.3882 O   0  0  0  0  0  0  0  0  0  0  0  0
   19.2114   -5.4303  -15.7985 O   0  0  0  0  0  0  0  0  0  0  0  0
   20.0785   -5.0545  -14.7904 C   0  0  0  0  0  0  0  0  0  0  0  0
   21.3878   -5.8066  -14.8231 C   0  0  2  0  0  0  0  0  0  0  0  0
   21.2116   -7.2285  -14.9477 N   0  0  0  0  0  0  0  0  0  0  0  0
   22.1240   -5.4500  -13.5728 C   0  0  0  0  0  0  0  0  0  0  0  0
   22.5821   -4.2888  -13.3978 O   0  0  0  0  0  0  0  0  0  0  0  0
   22.2824   -6.4432  -12.6168 O   0  0  0  0  0  0  0  0  0  0  0  0
  2  1  1  0
  3  4  1  1
  3  2  1  0
  5  3  1  0
  6  5  2  0
  8  9  1  0
  8  7  1  0
  9 11  1  0
  9 10  1  1
 11 13  1  0
 11 12  1  6
 12  5  1  0
 13 18  1  0
 14 13  2  0
 17 16  1  1
 16 15  1  0
 17 19  1  0
 18 17  1  0
 19 20  2  0
 19 21  1  0
M  END
$$$$
