SIS.pdb
     RDKit          3D

 21 20  0  0  1  0  0  0  0  0999 V2000
   16.5483  -10.3233  -18.7991 O   0  0  0  0  0  0  0  0  0  0  0  0
   17.3135   -9.8549  -17.7582 C   0  0  0  0  0  0  0  0  0  0  0  0
   18.1932  -10.9020  -17.1273 C   0  0  2  0  0  0  0  0  0  0  0  0
   17.3570  -11.8603  -16.4550 N   0  0  0  0  0  0  0  0  0  0  0  0
   19.0325  -10.2247  -16.1040 C   0  0  0  0  0  0  0  0  0  0  0  0
   18.5941   -9.9070  -14.9590 O   0  0  0  0  0  0  0  0  0  0  0  0
   24.0442  -11.7211  -14.9119 C   0  0  0  0  0  0  0  0  0  0  0  0
   22.6087  -11.2345  -14.8621 C   0  0  0  0  0  0  0  0  0  0  0  0
   22.6025   -9.7927  -15.2535 C   0  0  2  0  0  0  0  0  0  0  0  0
   23.4588   -8.9703  -14.3389 C   0  0  0  0  0  0  0  0  0  0  0  0
   21.2198   -9.2129  -15.3984 C   0  0  2  0  0  0  0  0  0  0  0  0
   20.4101   -9.8873  -16.3608 N   0  0  0  0  0  0  0  0  0  0  0  0
   21.3066   -7.7434  -15.6584 C   0  0  0  0  0  0  0  0  0  0  0  0
   21.8238   -7.3540  -16.7365 O   0  0  0  0  0  0  0  0  0  0  0  0
   19.8265   -3.2383  -14.8556 O   0  0  0  0  0  0  0  0  0  0  0  0
   19.7273   -4.5912  -14.5930 C   0  0  0  0  0  0  0  0  0  0  0  0
   20.9104   -5.3821  -15.0989 C   0  0  2  0  0  0  0  0  0  0  0  0
   20.8375   -6.7766  -14.7550 N   0  0  0  0  0  0  0  0  0  0  0  0
   22.1352   -4.7386  -14.5349 C   0  0  0  0  0  0  0  0  0  0  0  0
   22.5484   -5.0295  -13.3802 O   0  0  0  0  0  0  0  0  0  0  0  0
   22.7962   -3.8124  -15.3291 O   0  0  0  0  0  0  0  0  0  0  0  0
  2  1  1  0
  3  4  1  1
  3  2  1  0
  5  3  1  0
  6  5  2  0
  8  9  1  0
  8  7  1  0
  9 11  1  0
  9 10  1  1
 11 13  1  0
 11 12  1  6
 12  5  1  0
 13 18  1  0
 14 13  2  0
 17 16  1  1
 16 15  1  0
 17 19  1  0
 18 17  1  0
 19 20  2  0
 19 21  1  0
M  END
$$$$
