SIS.pdb
     RDKit          3D

 21 20  0  0  1  0  0  0  0  0999 V2000
   18.8883  -22.7469  -12.9254 O   0  0  0  0  0  0  0  0  0  0  0  0
   19.7903  -21.7998  -13.3470 C   0  0  0  0  0  0  0  0  0  0  0  0
   20.9636  -21.6184  -12.4204 C   0  0  2  0  0  0  0  0  0  0  0  0
   20.4880  -21.0688  -11.1790 N   0  0  0  0  0  0  0  0  0  0  0  0
   21.8776  -20.6253  -13.0438 C   0  0  0  0  0  0  0  0  0  0  0  0
   21.7093  -19.3749  -12.9331 O   0  0  0  0  0  0  0  0  0  0  0  0
   27.8027  -20.1199  -14.2686 C   0  0  0  0  0  0  0  0  0  0  0  0
   26.4262  -19.5224  -14.4886 C   0  0  0  0  0  0  0  0  0  0  0  0
   25.4154  -20.5474  -14.0890 C   0  0  2  0  0  0  0  0  0  0  0  0
   25.6857  -21.8700  -14.7399 C   0  0  0  0  0  0  0  0  0  0  0  0
   23.9912  -20.1023  -14.2949 C   0  0  2  0  0  0  0  0  0  0  0  0
   23.0215  -21.0350  -13.8193 N   0  0  0  0  0  0  0  0  0  0  0  0
   23.7724  -19.7358  -15.7275 C   0  0  0  0  0  0  0  0  0  0  0  0
   23.5185  -20.6528  -16.5497 O   0  0  0  0  0  0  0  0  0  0  0  0
   21.9127  -16.4160  -17.2082 O   0  0  0  0  0  0  0  0  0  0  0  0
   23.1170  -16.7128  -17.8172 C   0  0  0  0  0  0  0  0  0  0  0  0
   23.5652  -18.1360  -17.5833 C   0  0  2  0  0  0  0  0  0  0  0  0
   23.8370  -18.4150  -16.1988 N   0  0  0  0  0  0  0  0  0  0  0  0
   24.7713  -18.3566  -18.4371 C   0  0  0  0  0  0  0  0  0  0  0  0
   25.9316  -18.1629  -17.9843 O   0  0  0  0  0  0  0  0  0  0  0  0
   24.5641  -18.7810  -19.7418 O   0  0  0  0  0  0  0  0  0  0  0  0
  2  1  1  0
  3  4  1  1
  3  2  1  0
  5  3  1  0
  6  5  2  0
  8  9  1  0
  8  7  1  0
  9 11  1  0
  9 10  1  6
 11 13  1  0
 11 12  1  6
 12  5  1  0
 13 18  1  0
 14 13  2  0
 17 16  1  1
 16 15  1  0
 17 19  1  0
 18 17  1  0
 19 20  2  0
 19 21  1  0
M  END
$$$$
