SIS.pdb
     RDKit          3D

 21 20  0  0  1  0  0  0  0  0999 V2000
   20.6270  -12.5949  -21.1624 O   0  0  0  0  0  0  0  0  0  0  0  0
   20.8597  -12.0356  -19.9290 C   0  0  0  0  0  0  0  0  0  0  0  0
   22.0034  -12.6656  -19.1785 C   0  0  2  0  0  0  0  0  0  0  0  0
   21.6326  -14.0081  -18.8184 N   0  0  0  0  0  0  0  0  0  0  0  0
   22.1987  -11.8896  -17.9255 C   0  0  0  0  0  0  0  0  0  0  0  0
   21.4795  -12.0572  -16.8965 O   0  0  0  0  0  0  0  0  0  0  0  0
   26.9506  -11.2061  -15.5732 C   0  0  0  0  0  0  0  0  0  0  0  0
   25.5038  -11.4246  -15.9721 C   0  0  0  0  0  0  0  0  0  0  0  0
   24.8796  -10.0826  -16.1755 C   0  0  2  0  0  0  0  0  0  0  0  0
   25.0616   -9.2033  -14.9756 C   0  0  0  0  0  0  0  0  0  0  0  0
   23.4385  -10.1471  -16.6093 C   0  0  2  0  0  0  0  0  0  0  0  0
   23.2309  -10.8902  -17.8099 N   0  0  0  0  0  0  0  0  0  0  0  0
   22.8664   -8.7683  -16.6883 C   0  0  0  0  0  0  0  0  0  0  0  0
   23.3307   -7.9740  -17.5456 O   0  0  0  0  0  0  0  0  0  0  0  0
   19.2907   -5.6637  -15.9541 O   0  0  0  0  0  0  0  0  0  0  0  0
   19.7982   -6.9487  -15.9665 C   0  0  0  0  0  0  0  0  0  0  0  0
   21.3071   -6.9902  -16.0153 C   0  0  2  0  0  0  0  0  0  0  0  0
   21.8345   -8.3180  -15.8498 N   0  0  0  0  0  0  0  0  0  0  0  0
   21.8010   -6.0645  -14.9516 C   0  0  0  0  0  0  0  0  0  0  0  0
   21.7606   -4.8145  -15.1087 O   0  0  0  0  0  0  0  0  0  0  0  0
   22.3033   -6.6330  -13.7897 O   0  0  0  0  0  0  0  0  0  0  0  0
  2  1  1  0
  3  4  1  1
  3  2  1  0
  5  3  1  0
  6  5  2  0
  8  9  1  0
  8  7  1  0
  9 11  1  0
  9 10  1  1
 11 13  1  0
 11 12  1  6
 12  5  1  0
 13 18  1  0
 14 13  2  0
 17 16  1  1
 16 15  1  0
 17 19  1  0
 18 17  1  0
 19 20  2  0
 19 21  1  0
M  END
$$$$
