SIS.pdb
     RDKit          3D

 21 20  0  0  1  0  0  0  0  0999 V2000
   19.7707   -9.7429  -14.6597 O   0  0  0  0  0  0  0  0  0  0  0  0
   18.5180   -9.3147  -14.2908 C   0  0  0  0  0  0  0  0  0  0  0  0
   17.5620  -10.4318  -13.9651 C   0  0  2  0  0  0  0  0  0  0  0  0
   17.0885  -11.0051  -15.1967 N   0  0  0  0  0  0  0  0  0  0  0  0
   16.3988   -9.8342  -13.2579 C   0  0  0  0  0  0  0  0  0  0  0  0
   15.3991   -9.3526  -13.8684 O   0  0  0  0  0  0  0  0  0  0  0  0
   12.3521  -10.9623   -9.2619 C   0  0  0  0  0  0  0  0  0  0  0  0
   13.1686   -9.7828   -9.7541 C   0  0  0  0  0  0  0  0  0  0  0  0
   14.3568  -10.3228  -10.4811 C   0  0  2  0  0  0  0  0  0  0  0  0
   15.1695  -11.2314   -9.6092 C   0  0  0  0  0  0  0  0  0  0  0  0
   15.2053   -9.2578  -11.1251 C   0  0  2  0  0  0  0  0  0  0  0  0
   16.3428   -9.7686  -11.8191 N   0  0  0  0  0  0  0  0  0  0  0  0
   15.5746   -8.2190  -10.1156 C   0  0  0  0  0  0  0  0  0  0  0  0
   16.4118   -8.5175   -9.2259 O   0  0  0  0  0  0  0  0  0  0  0  0
   16.5438   -4.6471  -10.8336 O   0  0  0  0  0  0  0  0  0  0  0  0
   15.7339   -4.6051   -9.7149 C   0  0  0  0  0  0  0  0  0  0  0  0
   15.4611   -5.9699   -9.1284 C   0  0  2  0  0  0  0  0  0  0  0  0
   15.0307   -6.9248  -10.1139 N   0  0  0  0  0  0  0  0  0  0  0  0
   14.4369   -5.7843   -8.0565 C   0  0  0  0  0  0  0  0  0  0  0  0
   14.6955   -5.1149   -7.0203 O   0  0  0  0  0  0  0  0  0  0  0  0
   13.1959   -6.3754   -8.2465 O   0  0  0  0  0  0  0  0  0  0  0  0
  2  1  1  0
  3  4  1  6
  3  2  1  0
  5  3  1  0
  6  5  2  0
  8  9  1  0
  8  7  1  0
  9 11  1  0
  9 10  1  1
 11 13  1  0
 11 12  1  1
 12  5  1  0
 13 18  1  0
 14 13  2  0
 17 16  1  6
 16 15  1  0
 17 19  1  0
 18 17  1  0
 19 20  2  0
 19 21  1  0
M  END
$$$$
