SIS.pdb
     RDKit          3D

 21 20  0  0  1  0  0  0  0  0999 V2000
   18.7662  -11.8249    6.8635 O   0  0  0  0  0  0  0  0  0  0  0  0
   18.1044  -12.9305    6.3858 C   0  0  0  0  0  0  0  0  0  0  0  0
   17.9902  -12.9728    4.8847 C   0  0  2  0  0  0  0  0  0  0  0  0
   16.8758  -12.1551    4.4855 N   0  0  0  0  0  0  0  0  0  0  0  0
   17.6934  -14.3771    4.4973 C   0  0  0  0  0  0  0  0  0  0  0  0
   16.5177  -14.8474    4.4728 O   0  0  0  0  0  0  0  0  0  0  0  0
   21.2836  -17.1042    1.2574 C   0  0  0  0  0  0  0  0  0  0  0  0
   20.0116  -16.4822    1.8004 C   0  0  0  0  0  0  0  0  0  0  0  0
   19.5668  -17.3006    2.9685 C   0  0  2  0  0  0  0  0  0  0  0  0
   19.2038  -18.6953    2.5571 C   0  0  0  0  0  0  0  0  0  0  0  0
   18.4739  -16.6528    3.7777 C   0  0  2  0  0  0  0  0  0  0  0  0
   18.7406  -15.2940    4.1229 N   0  0  0  0  0  0  0  0  0  0  0  0
   18.1583  -17.4916    4.9741 C   0  0  0  0  0  0  0  0  0  0  0  0
   19.0020  -17.5515    5.9047 O   0  0  0  0  0  0  0  0  0  0  0  0
   15.0597  -19.9670    7.7247 O   0  0  0  0  0  0  0  0  0  0  0  0
   15.2853  -19.3098    6.5304 C   0  0  0  0  0  0  0  0  0  0  0  0
   16.7471  -19.0287    6.2749 C   0  0  2  0  0  0  0  0  0  0  0  0
   16.9634  -18.2164    5.1080 N   0  0  0  0  0  0  0  0  0  0  0  0
   17.4294  -20.3528    6.1589 C   0  0  0  0  0  0  0  0  0  0  0  0
   17.5190  -20.9420    5.0483 O   0  0  0  0  0  0  0  0  0  0  0  0
   17.9578  -20.9052    7.3170 O   0  0  0  0  0  0  0  0  0  0  0  0
  2  1  1  0
  3  4  1  1
  3  2  1  0
  5  3  1  0
  6  5  2  0
  8  9  1  0
  8  7  1  0
  9 11  1  0
  9 10  1  6
 11 13  1  0
 11 12  1  1
 12  5  1  0
 13 18  1  0
 14 13  2  0
 17 16  1  6
 16 15  1  0
 17 19  1  0
 18 17  1  0
 19 20  2  0
 19 21  1  0
M  END
$$$$
