SIS.pdb
     RDKit          3D

 21 20  0  0  1  0  0  0  0  0999 V2000
   19.4875   -9.4941  -13.4026 O   0  0  0  0  0  0  0  0  0  0  0  0
   18.3025   -8.9033  -13.0348 C   0  0  0  0  0  0  0  0  0  0  0  0
   17.3202   -9.8500  -12.3969 C   0  0  2  0  0  0  0  0  0  0  0  0
   16.8227  -10.7454  -13.4071 N   0  0  0  0  0  0  0  0  0  0  0  0
   16.1783   -9.0404  -11.8959 C   0  0  0  0  0  0  0  0  0  0  0  0
   15.2323   -8.6534  -12.6438 O   0  0  0  0  0  0  0  0  0  0  0  0
   12.6098  -10.4591   -8.5704 C   0  0  0  0  0  0  0  0  0  0  0  0
   13.4172   -9.7833   -9.6618 C   0  0  0  0  0  0  0  0  0  0  0  0
   14.1033   -8.6024   -9.0562 C   0  0  2  0  0  0  0  0  0  0  0  0
   13.1281   -7.6844   -8.3836 C   0  0  0  0  0  0  0  0  0  0  0  0
   14.9955   -7.8637  -10.0191 C   0  0  2  0  0  0  0  0  0  0  0  0
   16.0826   -8.6454  -10.5130 N   0  0  0  0  0  0  0  0  0  0  0  0
   15.4515   -6.5774   -9.4092 C   0  0  0  0  0  0  0  0  0  0  0  0
   16.2107   -6.6238   -8.4077 O   0  0  0  0  0  0  0  0  0  0  0  0
   16.4060   -3.4844  -11.5427 O   0  0  0  0  0  0  0  0  0  0  0  0
   15.8440   -3.0329  -10.3640 C   0  0  0  0  0  0  0  0  0  0  0  0
   15.6506   -4.1275   -9.3415 C   0  0  2  0  0  0  0  0  0  0  0  0
   15.0720   -5.3189   -9.9020 N   0  0  0  0  0  0  0  0  0  0  0  0
   14.7976   -3.5594   -8.2542 C   0  0  0  0  0  0  0  0  0  0  0  0
   13.6393   -4.0066   -8.0370 O   0  0  0  0  0  0  0  0  0  0  0  0
   15.3290   -2.5251   -7.4970 O   0  0  0  0  0  0  0  0  0  0  0  0
  2  1  1  0
  3  4  1  6
  3  2  1  0
  5  3  1  0
  6  5  2  0
  8  9  1  0
  8  7  1  0
  9 11  1  0
  9 10  1  6
 11 13  1  0
 11 12  1  1
 12  5  1  0
 13 18  1  0
 14 13  2  0
 17 16  1  6
 16 15  1  0
 17 19  1  0
 18 17  1  0
 19 20  2  0
 19 21  1  0
M  END
$$$$
