SIS.pdb
     RDKit          3D

 21 20  0  0  1  0  0  0  0  0999 V2000
   18.7226  -30.3340  -10.0851 O   0  0  0  0  0  0  0  0  0  0  0  0
   18.8046  -29.7499  -11.3263 C   0  0  0  0  0  0  0  0  0  0  0  0
   19.9846  -28.8287  -11.4912 C   0  0  2  0  0  0  0  0  0  0  0  0
   21.1801  -29.5451  -11.1344 N   0  0  0  0  0  0  0  0  0  0  0  0
   19.8153  -27.7072  -10.5300 C   0  0  0  0  0  0  0  0  0  0  0  0
   20.4004  -27.6726   -9.4072 O   0  0  0  0  0  0  0  0  0  0  0  0
   18.5543  -23.4696  -12.9187 C   0  0  0  0  0  0  0  0  0  0  0  0
   19.3590  -23.7451  -11.6631 C   0  0  0  0  0  0  0  0  0  0  0  0
   18.4086  -24.1979  -10.6030 C   0  0  2  0  0  0  0  0  0  0  0  0
   18.1333  -23.1102   -9.6094 C   0  0  0  0  0  0  0  0  0  0  0  0
   18.8224  -25.4802   -9.9297 C   0  0  2  0  0  0  0  0  0  0  0  0
   18.9647  -26.5817  -10.8258 N   0  0  0  0  0  0  0  0  0  0  0  0
   17.8954  -25.7850   -8.7973 C   0  0  0  0  0  0  0  0  0  0  0  0
   16.7188  -26.1402   -9.0636 O   0  0  0  0  0  0  0  0  0  0  0  0
   18.8979  -25.2425   -4.7295 O   0  0  0  0  0  0  0  0  0  0  0  0
   17.9249  -26.1647   -5.0641 C   0  0  0  0  0  0  0  0  0  0  0  0
   17.3004  -25.9047   -6.4145 C   0  0  2  0  0  0  0  0  0  0  0  0
   18.2765  -25.6932   -7.4493 N   0  0  0  0  0  0  0  0  0  0  0  0
   16.4005  -24.7227   -6.2557 C   0  0  0  0  0  0  0  0  0  0  0  0
   16.6443  -23.6368   -6.8474 O   0  0  0  0  0  0  0  0  0  0  0  0
   15.2910  -24.8675   -5.4348 O   0  0  0  0  0  0  0  0  0  0  0  0
  2  1  1  0
  3  4  1  1
  3  2  1  0
  5  3  1  0
  6  5  2  0
  8  9  1  0
  8  7  1  0
  9 11  1  0
  9 10  1  1
 11 13  1  0
 11 12  1  6
 12  5  1  0
 13 18  1  0
 14 13  2  0
 17 16  1  1
 16 15  1  0
 17 19  1  0
 18 17  1  0
 19 20  2  0
 19 21  1  0
M  END
$$$$
