SIS.pdb
     RDKit          3D

 21 20  0  0  1  0  0  0  0  0999 V2000
   15.6047   -9.6327  -18.2337 O   0  0  0  0  0  0  0  0  0  0  0  0
   16.4114   -9.2003  -17.2085 C   0  0  0  0  0  0  0  0  0  0  0  0
   17.3444  -10.2569  -16.6783 C   0  0  2  0  0  0  0  0  0  0  0  0
   16.5765  -11.2117  -15.9244 N   0  0  0  0  0  0  0  0  0  0  0  0
   18.2931   -9.5907  -15.7474 C   0  0  0  0  0  0  0  0  0  0  0  0
   17.9880   -9.2935  -14.5546 O   0  0  0  0  0  0  0  0  0  0  0  0
   23.2209  -11.4405  -14.9434 C   0  0  0  0  0  0  0  0  0  0  0  0
   21.8302  -10.8449  -14.8379 C   0  0  0  0  0  0  0  0  0  0  0  0
   21.9137   -9.4147  -15.2619 C   0  0  2  0  0  0  0  0  0  0  0  0
   22.9572   -8.6704  -14.4853 C   0  0  0  0  0  0  0  0  0  0  0  0
   20.5870   -8.7018  -15.2438 C   0  0  2  0  0  0  0  0  0  0  0  0
   19.6305   -9.2409  -16.1554 N   0  0  0  0  0  0  0  0  0  0  0  0
   20.7929   -7.2340  -15.4383 C   0  0  0  0  0  0  0  0  0  0  0  0
   21.1611   -6.8241  -16.5688 O   0  0  0  0  0  0  0  0  0  0  0  0
   19.8246   -2.6911  -14.4755 O   0  0  0  0  0  0  0  0  0  0  0  0
   19.6717   -4.0283  -14.1632 C   0  0  0  0  0  0  0  0  0  0  0  0
   20.7936   -4.8923  -14.6884 C   0  0  2  0  0  0  0  0  0  0  0  0
   20.5947   -6.2907  -14.4178 N   0  0  0  0  0  0  0  0  0  0  0  0
   22.0564   -4.3856  -14.0711 C   0  0  0  0  0  0  0  0  0  0  0  0
   22.4427   -4.8037  -12.9465 O   0  0  0  0  0  0  0  0  0  0  0  0
   22.7833   -3.4412  -14.7819 O   0  0  0  0  0  0  0  0  0  0  0  0
  2  1  1  0
  3  4  1  1
  3  2  1  0
  5  3  1  0
  6  5  2  0
  8  9  1  0
  8  7  1  0
  9 11  1  0
  9 10  1  1
 11 13  1  0
 11 12  1  6
 12  5  1  0
 13 18  1  0
 14 13  2  0
 17 16  1  1
 16 15  1  0
 17 19  1  0
 18 17  1  0
 19 20  2  0
 19 21  1  0
M  END
$$$$
