SIS.pdb
     RDKit          3D

 21 20  0  0  1  0  0  0  0  0999 V2000
   26.5746   -9.0382  -20.4009 O   0  0  0  0  0  0  0  0  0  0  0  0
   25.3457   -8.9344  -19.7945 C   0  0  0  0  0  0  0  0  0  0  0  0
   25.0157  -10.0861  -18.8820 C   0  0  2  0  0  0  0  0  0  0  0  0
   24.6323  -11.2150  -19.6870 N   0  0  0  0  0  0  0  0  0  0  0  0
   23.8424   -9.6856  -18.0614 C   0  0  0  0  0  0  0  0  0  0  0  0
   22.6538   -9.7316  -18.4967 O   0  0  0  0  0  0  0  0  0  0  0  0
   22.8796  -11.5574  -13.2699 C   0  0  0  0  0  0  0  0  0  0  0  0
   22.8092  -10.9997  -14.6784 C   0  0  0  0  0  0  0  0  0  0  0  0
   22.7996   -9.5091  -14.5784 C   0  0  2  0  0  0  0  0  0  0  0  0
   21.6417   -9.0197  -13.7624 C   0  0  0  0  0  0  0  0  0  0  0  0
   22.8781   -8.8145  -15.9127 C   0  0  2  0  0  0  0  0  0  0  0  0
   23.9935   -9.2165  -16.7069 N   0  0  0  0  0  0  0  0  0  0  0  0
   22.8210   -7.3330  -15.7216 C   0  0  0  0  0  0  0  0  0  0  0  0
   23.7984   -6.7600  -15.1759 O   0  0  0  0  0  0  0  0  0  0  0  0
   20.7368   -3.0331  -16.5730 O   0  0  0  0  0  0  0  0  0  0  0  0
   20.6733   -4.4075  -16.7001 C   0  0  0  0  0  0  0  0  0  0  0  0
   21.7606   -5.1249  -15.9357 C   0  0  2  0  0  0  0  0  0  0  0  0
   21.7268   -6.5504  -16.1230 N   0  0  0  0  0  0  0  0  0  0  0  0
   21.5968   -4.7538  -14.4978 C   0  0  0  0  0  0  0  0  0  0  0  0
   20.6672   -5.2446  -13.8023 O   0  0  0  0  0  0  0  0  0  0  0  0
   22.5045   -3.8516  -13.9612 O   0  0  0  0  0  0  0  0  0  0  0  0
  2  1  1  0
  3  4  1  6
  3  2  1  0
  5  3  1  0
  6  5  2  0
  8  9  1  0
  8  7  1  0
  9 11  1  0
  9 10  1  6
 11 13  1  0
 11 12  1  1
 12  5  1  0
 13 18  1  0
 14 13  2  0
 17 16  1  6
 16 15  1  0
 17 19  1  0
 18 17  1  0
 19 20  2  0
 19 21  1  0
M  END
$$$$
