KSN.pdb
     RDKit          3D

 24 23  0  0  1  0  0  0  0  0999 V2000
   10.3857  -18.3708   17.3818 N   0  0  0  0  0  0  0  0  0  0  0  0
    9.7692  -18.3283   18.6816 C   0  0  1  0  0  0  0  0  0  0  0  0
    9.5174  -19.6721   19.2988 C   0  0  0  0  0  0  0  0  0  0  0  0
    8.8370  -20.6818   18.4610 C   0  0  0  0  0  0  0  0  0  0  0  0
    8.5760  -21.9959   19.1283 C   0  0  0  0  0  0  0  0  0  0  0  0
    8.0091  -23.0108   18.1336 C   0  0  0  0  0  0  0  0  0  0  0  0
    7.8904  -24.2859   18.8027 N   0  0  0  0  0  0  0  0  0  0  0  0
   10.7148  -17.5529   19.5667 C   0  0  0  0  0  0  0  0  0  0  0  0
   11.9156  -17.5962   19.2615 O   0  0  0  0  0  0  0  0  0  0  0  0
    9.4723  -15.9400   23.1234 O   0  0  0  0  0  0  0  0  0  0  0  0
   10.4473  -15.1673   22.4958 C   0  0  0  0  0  0  0  0  0  0  0  0
   11.1698  -16.0370   21.5259 C   0  0  2  0  0  0  0  0  0  0  0  0
   10.2883  -16.8131   20.6822 N   0  0  0  0  0  0  0  0  0  0  0  0
   11.9798  -17.0218   22.3331 C   0  0  0  0  0  0  0  0  0  0  0  0
   11.5032  -18.1224   22.7129 O   0  0  0  0  0  0  0  0  0  0  0  0
   14.2342  -19.4512   20.3652 N   0  0  0  0  0  0  0  0  0  0  0  0
   14.2354  -19.4277   21.7866 C   0  0  0  0  0  0  0  0  0  0  0  0
   13.5906  -20.2661   22.4673 O   0  0  0  0  0  0  0  0  0  0  0  0
   15.0146  -18.3907   22.4827 C   0  0  0  0  0  0  0  0  0  0  0  0
   14.1365  -17.6587   23.4731 C   0  0  2  0  0  0  0  0  0  0  0  0
   13.3277  -16.7253   22.6918 N   0  0  0  0  0  0  0  0  0  0  0  0
   14.9484  -16.8365   24.4078 C   0  0  0  0  0  0  0  0  0  0  0  0
   14.9653  -15.4484   24.2452 O   0  0  0  0  0  0  0  0  0  0  0  0
   15.6320  -17.3121   25.3495 O   0  0  0  0  0  0  0  0  0  0  0  0
  2  1  1  6
  3  2  1  0
  4  5  1  0
  4  3  1  0
  5  6  1  0
  6  7  1  0
  8 13  1  0
  8  2  1  0
  9  8  2  0
 10 11  1  0
 12 11  1  1
 12 13  1  0
 12 14  1  0
 14 15  2  0
 17 16  1  0
 17 19  1  0
 18 17  2  0
 20 19  1  6
 21 14  1  0
 21 20  1  0
 22 20  1  0
 22 23  1  0
 24 22  2  0
M  END
$$$$
