KSN.pdb
     RDKit          3D

 24 23  0  0  1  0  0  0  0  0999 V2000
    5.2649  -16.3405   21.0715 N   0  0  0  0  0  0  0  0  0  0  0  0
    6.6821  -16.1536   21.2387 C   0  0  1  0  0  0  0  0  0  0  0  0
    7.2107  -14.8589   20.6963 C   0  0  0  0  0  0  0  0  0  0  0  0
    7.1548  -14.6687   19.2317 C   0  0  0  0  0  0  0  0  0  0  0  0
    7.6762  -13.3559   18.7367 C   0  0  0  0  0  0  0  0  0  0  0  0
    7.5551  -13.2587   17.2146 C   0  0  0  0  0  0  0  0  0  0  0  0
    7.9642  -11.9335   16.8095 N   0  0  0  0  0  0  0  0  0  0  0  0
    6.9366  -16.2012   22.7259 C   0  0  0  0  0  0  0  0  0  0  0  0
    6.2350  -15.4595   23.4291 O   0  0  0  0  0  0  0  0  0  0  0  0
    6.6943  -18.9808   25.0532 O   0  0  0  0  0  0  0  0  0  0  0  0
    6.9190  -17.6688   25.4650 C   0  0  0  0  0  0  0  0  0  0  0  0
    8.1136  -17.1563   24.7374 C   0  0  2  0  0  0  0  0  0  0  0  0
    7.9080  -17.0301   23.3116 N   0  0  0  0  0  0  0  0  0  0  0  0
    9.2169  -18.1677   24.9311 C   0  0  0  0  0  0  0  0  0  0  0  0
    9.2602  -19.2394   24.2735 O   0  0  0  0  0  0  0  0  0  0  0  0
   12.2013  -16.3113   23.8437 N   0  0  0  0  0  0  0  0  0  0  0  0
   12.8268  -17.3712   24.5553 C   0  0  0  0  0  0  0  0  0  0  0  0
   13.9446  -17.2298   25.1143 O   0  0  0  0  0  0  0  0  0  0  0  0
   12.1458  -18.6735   24.6401 C   0  0  0  0  0  0  0  0  0  0  0  0
   11.4278  -18.7985   25.9655 C   0  0  2  0  0  0  0  0  0  0  0  0
   10.2550  -17.9308   25.8796 N   0  0  0  0  0  0  0  0  0  0  0  0
   12.2605  -18.2763   27.0803 C   0  0  0  0  0  0  0  0  0  0  0  0
   13.3630  -19.0224   27.5062 O   0  0  0  0  0  0  0  0  0  0  0  0
   12.0372  -17.1920   27.6759 O   0  0  0  0  0  0  0  0  0  0  0  0
  2  1  1  1
  3  2  1  0
  4  5  1  0
  4  3  1  0
  5  6  1  0
  6  7  1  0
  8 13  1  0
  8  2  1  0
  9  8  2  0
 10 11  1  0
 12 11  1  1
 12 13  1  0
 12 14  1  0
 14 15  2  0
 17 16  1  0
 17 19  1  0
 18 17  2  0
 20 19  1  6
 21 14  1  0
 21 20  1  0
 22 20  1  0
 22 23  1  0
 24 22  2  0
M  END
$$$$
