KSN.pdb
     RDKit          3D

 24 23  0  0  1  0  0  0  0  0999 V2000
   10.4372  -15.9557   15.9348 N   0  0  0  0  0  0  0  0  0  0  0  0
   11.0349  -15.0076   16.8378 C   0  0  1  0  0  0  0  0  0  0  0  0
   10.1753  -14.6304   18.0078 C   0  0  0  0  0  0  0  0  0  0  0  0
    8.8564  -14.0335   17.7105 C   0  0  0  0  0  0  0  0  0  0  0  0
    8.0650  -13.6029   18.9058 C   0  0  0  0  0  0  0  0  0  0  0  0
    6.7012  -13.0495   18.4878 C   0  0  0  0  0  0  0  0  0  0  0  0
    5.9492  -12.7427   19.6828 N   0  0  0  0  0  0  0  0  0  0  0  0
   12.2984  -15.6571   17.3483 C   0  0  0  0  0  0  0  0  0  0  0  0
   12.3414  -16.8949   17.2964 O   0  0  0  0  0  0  0  0  0  0  0  0
   15.4160  -13.3249   18.2528 O   0  0  0  0  0  0  0  0  0  0  0  0
   15.8131  -14.6475   18.0677 C   0  0  0  0  0  0  0  0  0  0  0  0
   14.6276  -15.5201   18.2967 C   0  0  2  0  0  0  0  0  0  0  0  0
   13.3835  -14.9262   17.8601 N   0  0  0  0  0  0  0  0  0  0  0  0
   14.5124  -15.7274   19.7872 C   0  0  0  0  0  0  0  0  0  0  0  0
   13.9242  -14.9003   20.5307 O   0  0  0  0  0  0  0  0  0  0  0  0
   12.6661  -18.3417   21.4975 N   0  0  0  0  0  0  0  0  0  0  0  0
   13.7677  -19.1906   21.7921 C   0  0  0  0  0  0  0  0  0  0  0  0
   13.6534  -20.4426   21.8269 O   0  0  0  0  0  0  0  0  0  0  0  0
   15.0819  -18.5858   22.0647 C   0  0  0  0  0  0  0  0  0  0  0  0
   15.0204  -17.0903   21.8466 C   0  0  2  0  0  0  0  0  0  0  0  0
   15.0764  -16.8845   20.4008 N   0  0  0  0  0  0  0  0  0  0  0  0
   16.2138  -16.4132   22.4176 C   0  0  0  0  0  0  0  0  0  0  0  0
   16.2746  -16.2032   23.7981 O   0  0  0  0  0  0  0  0  0  0  0  0
   17.1877  -16.0100   21.7327 O   0  0  0  0  0  0  0  0  0  0  0  0
  2  1  1  6
  3  2  1  0
  4  5  1  0
  4  3  1  0
  5  6  1  0
  6  7  1  0
  8 13  1  0
  8  2  1  0
  9  8  2  0
 10 11  1  0
 12 11  1  1
 12 13  1  0
 12 14  1  0
 14 15  2  0
 17 16  1  0
 17 19  1  0
 18 17  2  0
 20 19  1  6
 21 14  1  0
 21 20  1  0
 22 20  1  0
 22 23  1  0
 24 22  2  0
M  END
$$$$
