KSN.pdb
     RDKit          3D

 24 23  0  0  1  0  0  0  0  0999 V2000
    8.5316  -17.1266   15.8394 N   0  0  0  0  0  0  0  0  0  0  0  0
    7.9876  -17.6393   17.0693 C   0  0  1  0  0  0  0  0  0  0  0  0
    8.6732  -18.8663   17.5931 C   0  0  0  0  0  0  0  0  0  0  0  0
   10.1495  -18.8387   17.6557 C   0  0  0  0  0  0  0  0  0  0  0  0
   10.8014  -20.1503   17.9640 C   0  0  0  0  0  0  0  0  0  0  0  0
   12.3255  -20.0159   17.9660 C   0  0  0  0  0  0  0  0  0  0  0  0
   12.8928  -21.2779   18.3823 N   0  0  0  0  0  0  0  0  0  0  0  0
    8.1291  -16.5295   18.0827 C   0  0  0  0  0  0  0  0  0  0  0  0
    9.0961  -15.7680   17.9347 O   0  0  0  0  0  0  0  0  0  0  0  0
    5.6645  -16.3178   21.3561 O   0  0  0  0  0  0  0  0  0  0  0  0
    6.0571  -15.0672   20.8837 C   0  0  0  0  0  0  0  0  0  0  0  0
    7.3027  -15.2469   20.0866 C   0  0  2  0  0  0  0  0  0  0  0  0
    7.2307  -16.3433   19.1466 N   0  0  0  0  0  0  0  0  0  0  0  0
    8.4069  -15.5790   21.0603 C   0  0  0  0  0  0  0  0  0  0  0  0
    8.6904  -14.8257   22.0273 O   0  0  0  0  0  0  0  0  0  0  0  0
   10.8246  -20.0407   23.8856 N   0  0  0  0  0  0  0  0  0  0  0  0
   10.6720  -18.6371   23.7195 C   0  0  0  0  0  0  0  0  0  0  0  0
   11.3959  -17.8112   24.3325 O   0  0  0  0  0  0  0  0  0  0  0  0
    9.6355  -18.1354   22.8024 C   0  0  0  0  0  0  0  0  0  0  0  0
   10.2335  -17.1305   21.8431 C   0  0  2  0  0  0  0  0  0  0  0  0
    9.1693  -16.7742   20.9069 N   0  0  0  0  0  0  0  0  0  0  0  0
   11.3225  -17.7391   21.0352 C   0  0  0  0  0  0  0  0  0  0  0  0
   11.0086  -18.7748   20.1508 O   0  0  0  0  0  0  0  0  0  0  0  0
   12.5258  -17.3801   21.0942 O   0  0  0  0  0  0  0  0  0  0  0  0
  2  1  1  6
  3  2  1  0
  4  5  1  0
  4  3  1  0
  5  6  1  0
  6  7  1  0
  8 13  1  0
  8  2  1  0
  9  8  2  0
 10 11  1  0
 12 11  1  1
 12 13  1  0
 12 14  1  0
 14 15  2  0
 17 16  1  0
 17 19  1  0
 18 17  2  0
 20 19  1  1
 21 14  1  0
 21 20  1  0
 22 20  1  0
 22 23  1  0
 24 22  2  0
M  END
$$$$
