KSN.pdb
     RDKit          3D

 24 23  0  0  1  0  0  0  0  0999 V2000
    8.0165  -12.2920   17.7956 N   0  0  0  0  0  0  0  0  0  0  0  0
    7.6851  -13.5411   18.4292 C   0  0  1  0  0  0  0  0  0  0  0  0
    7.8357  -14.7475   17.5507 C   0  0  0  0  0  0  0  0  0  0  0  0
    9.1640  -14.9792   16.9456 C   0  0  0  0  0  0  0  0  0  0  0  0
    9.2521  -16.1583   16.0279 C   0  0  0  0  0  0  0  0  0  0  0  0
   10.6831  -16.3513   15.5219 C   0  0  0  0  0  0  0  0  0  0  0  0
   10.7189  -17.5401   14.7014 N   0  0  0  0  0  0  0  0  0  0  0  0
    8.6210  -13.6730   19.6062 C   0  0  0  0  0  0  0  0  0  0  0  0
    9.7692  -13.2328   19.4493 O   0  0  0  0  0  0  0  0  0  0  0  0
    7.7322  -16.0766   22.8330 O   0  0  0  0  0  0  0  0  0  0  0  0
    8.4423  -14.9286   23.1782 C   0  0  0  0  0  0  0  0  0  0  0  0
    9.1290  -14.4272   21.9550 C   0  0  2  0  0  0  0  0  0  0  0  0
    8.2415  -14.2575   20.8260 N   0  0  0  0  0  0  0  0  0  0  0  0
   10.1444  -15.4710   21.5586 C   0  0  0  0  0  0  0  0  0  0  0  0
   10.0147  -16.1636   20.5163 O   0  0  0  0  0  0  0  0  0  0  0  0
   14.3122  -15.0181   18.8871 N   0  0  0  0  0  0  0  0  0  0  0  0
   14.2529  -14.9044   20.3029 C   0  0  0  0  0  0  0  0  0  0  0  0
   15.2865  -14.9463   21.0185 O   0  0  0  0  0  0  0  0  0  0  0  0
   12.9423  -14.7327   20.9509 C   0  0  0  0  0  0  0  0  0  0  0  0
   12.6091  -15.9534   21.7796 C   0  0  2  0  0  0  0  0  0  0  0  0
   11.2951  -15.7028   22.3682 N   0  0  0  0  0  0  0  0  0  0  0  0
   13.5580  -16.1106   22.9126 C   0  0  0  0  0  0  0  0  0  0  0  0
   14.5675  -17.0727   22.8190 O   0  0  0  0  0  0  0  0  0  0  0  0
   13.5138  -15.4264   23.9662 O   0  0  0  0  0  0  0  0  0  0  0  0
  2  1  1  6
  3  2  1  0
  4  5  1  0
  4  3  1  0
  5  6  1  0
  6  7  1  0
  8 13  1  0
  8  2  1  0
  9  8  2  0
 10 11  1  0
 12 11  1  1
 12 13  1  0
 12 14  1  0
 14 15  2  0
 17 16  1  0
 17 19  1  0
 18 17  2  0
 20 19  1  6
 21 14  1  0
 21 20  1  0
 22 20  1  0
 22 23  1  0
 24 22  2  0
M  END
$$$$
