KSN.pdb
     RDKit          3D

 24 23  0  0  1  0  0  0  0  0999 V2000
    5.7687  -15.7697   21.2809 N   0  0  0  0  0  0  0  0  0  0  0  0
    7.1681  -15.5732   21.5542 C   0  0  1  0  0  0  0  0  0  0  0  0
    7.5810  -14.1389   21.7032 C   0  0  0  0  0  0  0  0  0  0  0  0
    7.5169  -13.2900   20.4951 C   0  0  0  0  0  0  0  0  0  0  0  0
    8.5122  -13.6209   19.4272 C   0  0  0  0  0  0  0  0  0  0  0  0
    8.2503  -12.8001   18.1628 C   0  0  0  0  0  0  0  0  0  0  0  0
    9.1913  -13.2152   17.1480 N   0  0  0  0  0  0  0  0  0  0  0  0
    7.4464  -16.2993   22.8481 C   0  0  0  0  0  0  0  0  0  0  0  0
    6.8099  -15.9187   23.8415 O   0  0  0  0  0  0  0  0  0  0  0  0
   10.6694  -18.8745   23.3003 O   0  0  0  0  0  0  0  0  0  0  0  0
    9.5219  -19.2534   23.9940 C   0  0  0  0  0  0  0  0  0  0  0  0
    8.6794  -18.0401   24.1870 C   0  0  2  0  0  0  0  0  0  0  0  0
    8.3701  -17.3525   22.9531 N   0  0  0  0  0  0  0  0  0  0  0  0
    9.4765  -17.0784   25.0342 C   0  0  0  0  0  0  0  0  0  0  0  0
    9.8526  -15.9604   24.5968 O   0  0  0  0  0  0  0  0  0  0  0  0
    9.3992  -13.7530   29.3636 N   0  0  0  0  0  0  0  0  0  0  0  0
   10.2289  -14.3348   28.3666 C   0  0  0  0  0  0  0  0  0  0  0  0
   11.4534  -14.0623   28.2766 O   0  0  0  0  0  0  0  0  0  0  0  0
    9.6367  -15.2848   27.4106 C   0  0  0  0  0  0  0  0  0  0  0  0
   10.5448  -16.4822   27.2387 C   0  0  2  0  0  0  0  0  0  0  0  0
    9.8295  -17.4179   26.3734 N   0  0  0  0  0  0  0  0  0  0  0  0
   10.7632  -17.1824   28.5313 C   0  0  0  0  0  0  0  0  0  0  0  0
   11.8300  -16.7853   29.3421 O   0  0  0  0  0  0  0  0  0  0  0  0
   10.0423  -18.1226   28.9516 O   0  0  0  0  0  0  0  0  0  0  0  0
  2  1  1  1
  3  2  1  0
  4  5  1  0
  4  3  1  0
  5  6  1  0
  6  7  1  0
  8 13  1  0
  8  2  1  0
  9  8  2  0
 10 11  1  0
 12 11  1  6
 12 13  1  0
 12 14  1  0
 14 15  2  0
 17 16  1  0
 17 19  1  0
 18 17  2  0
 20 19  1  1
 21 14  1  0
 21 20  1  0
 22 20  1  0
 22 23  1  0
 24 22  2  0
M  END
$$$$
