KSN.pdb
     RDKit          3D

 24 23  0  0  1  0  0  0  0  0999 V2000
    8.6889  -16.9045   17.2800 N   0  0  0  0  0  0  0  0  0  0  0  0
    9.6525  -15.8508   17.0990 C   0  0  1  0  0  0  0  0  0  0  0  0
    9.4976  -15.0734   15.8256 C   0  0  0  0  0  0  0  0  0  0  0  0
    8.3047  -15.3601   15.0017 C   0  0  0  0  0  0  0  0  0  0  0  0
    8.1292  -14.4817   13.8025 C   0  0  0  0  0  0  0  0  0  0  0  0
    6.9778  -14.9777   12.9255 C   0  0  0  0  0  0  0  0  0  0  0  0
    6.8269  -14.0661   11.8146 N   0  0  0  0  0  0  0  0  0  0  0  0
    9.4712  -14.9143   18.2690 C   0  0  0  0  0  0  0  0  0  0  0  0
   10.3142  -14.0133   18.3895 O   0  0  0  0  0  0  0  0  0  0  0  0
    6.4105  -15.3914   21.1005 O   0  0  0  0  0  0  0  0  0  0  0  0
    6.8027  -14.0927   20.7828 C   0  0  0  0  0  0  0  0  0  0  0  0
    8.2147  -14.1411   20.3103 C   0  0  2  0  0  0  0  0  0  0  0  0
    8.4154  -15.0311   19.1884 N   0  0  0  0  0  0  0  0  0  0  0  0
    9.0439  -14.6816   21.4496 C   0  0  0  0  0  0  0  0  0  0  0  0
    9.0513  -14.1375   22.5839 O   0  0  0  0  0  0  0  0  0  0  0  0
   10.5884  -17.6862   24.7399 N   0  0  0  0  0  0  0  0  0  0  0  0
   10.4323  -18.5280   23.6050 C   0  0  0  0  0  0  0  0  0  0  0  0
   10.2943  -19.7735   23.7132 O   0  0  0  0  0  0  0  0  0  0  0  0
   10.4325  -17.9236   22.2627 C   0  0  0  0  0  0  0  0  0  0  0  0
   10.6159  -16.4258   22.3679 C   0  0  2  0  0  0  0  0  0  0  0  0
    9.8532  -15.8414   21.2667 N   0  0  0  0  0  0  0  0  0  0  0  0
   12.0350  -16.0406   22.1519 C   0  0  0  0  0  0  0  0  0  0  0  0
   12.8747  -15.9080   23.2613 O   0  0  0  0  0  0  0  0  0  0  0  0
   12.5395  -15.8223   21.0214 O   0  0  0  0  0  0  0  0  0  0  0  0
  2  1  1  1
  3  2  1  0
  4  5  1  0
  4  3  1  0
  5  6  1  0
  6  7  1  0
  8 13  1  0
  8  2  1  0
  9  8  2  0
 10 11  1  0
 12 11  1  1
 12 13  1  0
 12 14  1  0
 14 15  2  0
 17 16  1  0
 17 19  1  0
 18 17  2  0
 20 19  1  6
 21 14  1  0
 21 20  1  0
 22 20  1  0
 22 23  1  0
 24 22  2  0
M  END
$$$$
