KSN.pdb
     RDKit          3D

 24 23  0  0  1  0  0  0  0  0999 V2000
    6.3500  -19.0466   19.9032 N   0  0  0  0  0  0  0  0  0  0  0  0
    5.8694  -19.2317   21.2472 C   0  0  1  0  0  0  0  0  0  0  0  0
    5.4631  -20.6372   21.5782 C   0  0  0  0  0  0  0  0  0  0  0  0
    6.1703  -21.7270   20.8736 C   0  0  0  0  0  0  0  0  0  0  0  0
    5.6178  -23.0995   21.1001 C   0  0  0  0  0  0  0  0  0  0  0  0
    6.4434  -24.1507   20.3556 C   0  0  0  0  0  0  0  0  0  0  0  0
    5.8127  -25.4377   20.5385 N   0  0  0  0  0  0  0  0  0  0  0  0
    7.0036  -18.8234   22.1558 C   0  0  0  0  0  0  0  0  0  0  0  0
    8.1504  -19.0202   21.7282 O   0  0  0  0  0  0  0  0  0  0  0  0
    6.1748  -16.9121   25.6307 O   0  0  0  0  0  0  0  0  0  0  0  0
    7.4543  -16.6359   25.1532 C   0  0  0  0  0  0  0  0  0  0  0  0
    7.8685  -17.7615   24.2695 C   0  0  2  0  0  0  0  0  0  0  0  0
    6.8030  -18.2493   23.4222 N   0  0  0  0  0  0  0  0  0  0  0  0
    8.2691  -18.9054   25.1688 C   0  0  0  0  0  0  0  0  0  0  0  0
    7.4319  -19.7434   25.5926 O   0  0  0  0  0  0  0  0  0  0  0  0
   11.1100  -22.8022   24.7001 N   0  0  0  0  0  0  0  0  0  0  0  0
   11.1509  -21.3814   24.6812 C   0  0  0  0  0  0  0  0  0  0  0  0
   11.0142  -20.7251   23.6170 O   0  0  0  0  0  0  0  0  0  0  0  0
   11.3598  -20.6565   25.9453 C   0  0  0  0  0  0  0  0  0  0  0  0
   10.0393  -20.1402   26.4720 C   0  0  2  0  0  0  0  0  0  0  0  0
    9.6285  -19.0681   25.5676 N   0  0  0  0  0  0  0  0  0  0  0  0
   10.1990  -19.5238   27.8149 C   0  0  0  0  0  0  0  0  0  0  0  0
   10.4374  -20.3534   28.9142 O   0  0  0  0  0  0  0  0  0  0  0  0
   10.1331  -18.2875   28.0329 O   0  0  0  0  0  0  0  0  0  0  0  0
  2  1  1  6
  3  2  1  0
  4  5  1  0
  4  3  1  0
  5  6  1  0
  6  7  1  0
  8 13  1  0
  8  2  1  0
  9  8  2  0
 10 11  1  0
 12 11  1  1
 12 13  1  0
 12 14  1  0
 14 15  2  0
 17 16  1  0
 17 19  1  0
 18 17  2  0
 20 19  1  6
 21 14  1  0
 21 20  1  0
 22 20  1  0
 22 23  1  0
 24 22  2  0
M  END
$$$$
