KSN.pdb
     RDKit          3D

 24 23  0  0  1  0  0  0  0  0999 V2000
    8.8788  -17.2025   20.9311 N   0  0  0  0  0  0  0  0  0  0  0  0
   10.0495  -16.3652   20.9322 C   0  0  1  0  0  0  0  0  0  0  0  0
   10.1320  -15.4036   19.7840 C   0  0  0  0  0  0  0  0  0  0  0  0
    8.8565  -14.9582   19.1848 C   0  0  0  0  0  0  0  0  0  0  0  0
    8.9843  -14.1856   17.9092 C   0  0  0  0  0  0  0  0  0  0  0  0
    7.6145  -13.9656   17.2640 C   0  0  0  0  0  0  0  0  0  0  0  0
    7.8128  -13.3319   15.9807 N   0  0  0  0  0  0  0  0  0  0  0  0
   10.0018  -15.5834   22.2227 C   0  0  0  0  0  0  0  0  0  0  0  0
   11.0135  -14.9253   22.5060 O   0  0  0  0  0  0  0  0  0  0  0  0
    6.7080  -15.7385   24.7323 O   0  0  0  0  0  0  0  0  0  0  0  0
    7.3839  -14.5205   24.7020 C   0  0  0  0  0  0  0  0  0  0  0  0
    8.7880  -14.7839   24.2796 C   0  0  2  0  0  0  0  0  0  0  0  0
    8.8868  -15.5812   23.0773 N   0  0  0  0  0  0  0  0  0  0  0  0
    9.4405  -15.5783   25.3846 C   0  0  0  0  0  0  0  0  0  0  0  0
    9.3303  -15.2506   26.5942 O   0  0  0  0  0  0  0  0  0  0  0  0
   10.2346  -19.6210   28.6419 N   0  0  0  0  0  0  0  0  0  0  0  0
   10.4631  -19.7179   27.2421 C   0  0  0  0  0  0  0  0  0  0  0  0
   11.1723  -20.6295   26.7444 O   0  0  0  0  0  0  0  0  0  0  0  0
    9.8511  -18.7209   26.3485 C   0  0  0  0  0  0  0  0  0  0  0  0
   10.8016  -17.5643   26.1327 C   0  0  2  0  0  0  0  0  0  0  0  0
   10.2109  -16.7392   25.0810 N   0  0  0  0  0  0  0  0  0  0  0  0
   12.1134  -18.0345   25.6160 C   0  0  0  0  0  0  0  0  0  0  0  0
   13.1123  -18.3844   26.5289 O   0  0  0  0  0  0  0  0  0  0  0  0
   12.3902  -18.1406   24.3944 O   0  0  0  0  0  0  0  0  0  0  0  0
  2  1  1  6
  3  2  1  0
  4  5  1  0
  4  3  1  0
  5  6  1  0
  6  7  1  0
  8 13  1  0
  8  2  1  0
  9  8  2  0
 10 11  1  0
 12 11  1  1
 12 13  1  0
 12 14  1  0
 14 15  2  0
 17 16  1  0
 17 19  1  0
 18 17  2  0
 20 19  1  6
 21 14  1  0
 21 20  1  0
 22 20  1  0
 22 23  1  0
 24 22  2  0
M  END
$$$$
