KSN.pdb
     RDKit          3D

 24 23  0  0  1  0  0  0  0  0999 V2000
    8.3706  -15.3684   15.9061 N   0  0  0  0  0  0  0  0  0  0  0  0
    9.7597  -15.7377   15.9802 C   0  0  1  0  0  0  0  0  0  0  0  0
   10.5909  -15.2825   14.8175 C   0  0  0  0  0  0  0  0  0  0  0  0
   11.9041  -15.9345   14.6314 C   0  0  0  0  0  0  0  0  0  0  0  0
   12.7211  -15.4135   13.4906 C   0  0  0  0  0  0  0  0  0  0  0  0
   14.0638  -16.1418   13.4026 C   0  0  0  0  0  0  0  0  0  0  0  0
   14.8402  -15.5379   12.3442 N   0  0  0  0  0  0  0  0  0  0  0  0
   10.2934  -15.1027   17.2414 C   0  0  0  0  0  0  0  0  0  0  0  0
    9.8126  -14.0027   17.5507 O   0  0  0  0  0  0  0  0  0  0  0  0
   11.3334  -15.3127   21.6620 O   0  0  0  0  0  0  0  0  0  0  0  0
   10.8328  -15.7934   20.4537 C   0  0  0  0  0  0  0  0  0  0  0  0
   11.6599  -15.2232   19.3537 C   0  0  2  0  0  0  0  0  0  0  0  0
   11.2806  -15.7005   18.0425 N   0  0  0  0  0  0  0  0  0  0  0  0
   13.0804  -15.6755   19.5885 C   0  0  0  0  0  0  0  0  0  0  0  0
   13.4689  -16.8332   19.2858 O   0  0  0  0  0  0  0  0  0  0  0  0
   16.2361  -12.9082   17.7234 N   0  0  0  0  0  0  0  0  0  0  0  0
   16.4090  -14.1084   18.4654 C   0  0  0  0  0  0  0  0  0  0  0  0
   16.6616  -15.2066   17.9067 O   0  0  0  0  0  0  0  0  0  0  0  0
   16.2886  -14.0644   19.9319 C   0  0  0  0  0  0  0  0  0  0  0  0
   15.4143  -15.2002   20.4153 C   0  0  2  0  0  0  0  0  0  0  0  0
   14.0340  -14.7881   20.1689 N   0  0  0  0  0  0  0  0  0  0  0  0
   15.5437  -15.3922   21.8833 C   0  0  0  0  0  0  0  0  0  0  0  0
   14.4090  -15.2448   22.6859 O   0  0  0  0  0  0  0  0  0  0  0  0
   16.6214  -15.6826   22.4616 O   0  0  0  0  0  0  0  0  0  0  0  0
  2  1  1  6
  3  2  1  0
  4  5  1  0
  4  3  1  0
  5  6  1  0
  6  7  1  0
  8 13  1  0
  8  2  1  0
  9  8  2  0
 10 11  1  0
 12 11  1  1
 12 13  1  0
 12 14  1  0
 14 15  2  0
 17 16  1  0
 17 19  1  0
 18 17  2  0
 20 19  1  1
 21 14  1  0
 21 20  1  0
 22 20  1  0
 22 23  1  0
 24 22  2  0
M  END
$$$$
