KSN.pdb
     RDKit          3D

 24 23  0  0  1  0  0  0  0  0999 V2000
    9.9681  -17.3648   15.7610 N   0  0  0  0  0  0  0  0  0  0  0  0
    9.6661  -18.2717   16.8370 C   0  0  1  0  0  0  0  0  0  0  0  0
   10.3763  -19.5907   16.7615 C   0  0  0  0  0  0  0  0  0  0  0  0
    9.9448  -20.5292   15.7045 C   0  0  0  0  0  0  0  0  0  0  0  0
   10.6304  -21.8597   15.7114 C   0  0  0  0  0  0  0  0  0  0  0  0
   10.0693  -22.7692   14.6165 C   0  0  0  0  0  0  0  0  0  0  0  0
   10.6535  -24.0816   14.7717 N   0  0  0  0  0  0  0  0  0  0  0  0
   10.0788  -17.5657   18.1058 C   0  0  0  0  0  0  0  0  0  0  0  0
   11.1858  -17.0079   18.0910 O   0  0  0  0  0  0  0  0  0  0  0  0
    7.7868  -17.8878   21.4952 O   0  0  0  0  0  0  0  0  0  0  0  0
    8.5758  -16.7395   21.4747 C   0  0  0  0  0  0  0  0  0  0  0  0
    9.6987  -16.9698   20.5232 C   0  0  2  0  0  0  0  0  0  0  0  0
    9.2748  -17.5251   19.2571 N   0  0  0  0  0  0  0  0  0  0  0  0
   10.6163  -17.9851   21.1595 C   0  0  0  0  0  0  0  0  0  0  0  0
   10.5955  -19.1992   20.8306 O   0  0  0  0  0  0  0  0  0  0  0  0
   14.3047  -20.0704   24.0047 N   0  0  0  0  0  0  0  0  0  0  0  0
   14.7889  -19.0983   23.0873 C   0  0  0  0  0  0  0  0  0  0  0  0
   16.0084  -19.0093   22.7929 O   0  0  0  0  0  0  0  0  0  0  0  0
   13.8339  -18.1678   22.4634 C   0  0  0  0  0  0  0  0  0  0  0  0
   12.4180  -18.5549   22.8285 C   0  0  2  0  0  0  0  0  0  0  0  0
   11.5452  -17.5879   22.1659 N   0  0  0  0  0  0  0  0  0  0  0  0
   12.1797  -18.4102   24.2883 C   0  0  0  0  0  0  0  0  0  0  0  0
   11.3695  -17.3646   24.7396 O   0  0  0  0  0  0  0  0  0  0  0  0
   12.6649  -19.1765   25.1588 O   0  0  0  0  0  0  0  0  0  0  0  0
  2  1  1  6
  3  2  1  0
  4  5  1  0
  4  3  1  0
  5  6  1  0
  6  7  1  0
  8 13  1  0
  8  2  1  0
  9  8  2  0
 10 11  1  0
 12 11  1  1
 12 13  1  0
 12 14  1  0
 14 15  2  0
 17 16  1  0
 17 19  1  0
 18 17  2  0
 20 19  1  1
 21 14  1  0
 21 20  1  0
 22 20  1  0
 22 23  1  0
 24 22  2  0
M  END
$$$$
