KSN.pdb
     RDKit          3D

 24 23  0  0  1  0  0  0  0  0999 V2000
    8.8495  -17.7594   11.3240 N   0  0  0  0  0  0  0  0  0  0  0  0
    7.8914  -18.1304   12.3319 C   0  0  1  0  0  0  0  0  0  0  0  0
    7.2059  -19.4426   12.0907 C   0  0  0  0  0  0  0  0  0  0  0  0
    7.4320  -20.0907   10.7819 C   0  0  0  0  0  0  0  0  0  0  0  0
    6.7228  -21.3935   10.5821 C   0  0  0  0  0  0  0  0  0  0  0  0
    7.0529  -21.9911    9.2128 C   0  0  0  0  0  0  0  0  0  0  0  0
    6.3954  -23.2732    9.1057 N   0  0  0  0  0  0  0  0  0  0  0  0
    8.6602  -18.2111   13.6286 C   0  0  0  0  0  0  0  0  0  0  0  0
    9.8950  -18.2678   13.5345 O   0  0  0  0  0  0  0  0  0  0  0  0
    6.7859  -18.7292   17.3566 O   0  0  0  0  0  0  0  0  0  0  0  0
    7.9515  -17.9663   17.3279 C   0  0  0  0  0  0  0  0  0  0  0  0
    8.7464  -18.3853   16.1397 C   0  0  2  0  0  0  0  0  0  0  0  0
    8.0393  -18.2232   14.8887 N   0  0  0  0  0  0  0  0  0  0  0  0
    9.0280  -19.8600   16.2936 C   0  0  0  0  0  0  0  0  0  0  0  0
    8.5341  -20.7166   15.5158 O   0  0  0  0  0  0  0  0  0  0  0  0
   13.7277  -22.3990   15.3858 N   0  0  0  0  0  0  0  0  0  0  0  0
   12.3228  -22.4601   15.5942 C   0  0  0  0  0  0  0  0  0  0  0  0
   11.6747  -23.5291   15.4562 O   0  0  0  0  0  0  0  0  0  0  0  0
   11.6050  -21.2350   15.9831 C   0  0  0  0  0  0  0  0  0  0  0  0
   10.7173  -21.5102   17.1765 C   0  0  2  0  0  0  0  0  0  0  0  0
    9.8746  -20.3276   17.3415 N   0  0  0  0  0  0  0  0  0  0  0  0
   11.5159  -21.6389   18.4233 C   0  0  0  0  0  0  0  0  0  0  0  0
   11.5527  -22.8738   19.0767 O   0  0  0  0  0  0  0  0  0  0  0  0
   12.1708  -20.6976   18.9385 O   0  0  0  0  0  0  0  0  0  0  0  0
  2  1  1  6
  3  2  1  0
  4  5  1  0
  4  3  1  0
  5  6  1  0
  6  7  1  0
  8 13  1  0
  8  2  1  0
  9  8  2  0
 10 11  1  0
 12 11  1  1
 12 13  1  0
 12 14  1  0
 14 15  2  0
 17 16  1  0
 17 19  1  0
 18 17  2  0
 20 19  1  6
 21 14  1  0
 21 20  1  0
 22 20  1  0
 22 23  1  0
 24 22  2  0
M  END
$$$$
