KSN.pdb
     RDKit          3D

 24 23  0  0  1  0  0  0  0  0999 V2000
    8.6380  -15.9973   17.1856 N   0  0  0  0  0  0  0  0  0  0  0  0
    9.1308  -14.6591   16.9904 C   0  0  1  0  0  0  0  0  0  0  0  0
    8.1066  -13.6811   16.4960 C   0  0  0  0  0  0  0  0  0  0  0  0
    7.8086  -13.6911   15.0486 C   0  0  0  0  0  0  0  0  0  0  0  0
    6.8362  -14.7381   14.6028 C   0  0  0  0  0  0  0  0  0  0  0  0
    6.6005  -14.6577   13.0932 C   0  0  0  0  0  0  0  0  0  0  0  0
    5.6191  -15.6548   12.7324 N   0  0  0  0  0  0  0  0  0  0  0  0
    9.6358  -14.2001   18.3369 C   0  0  0  0  0  0  0  0  0  0  0  0
   10.0233  -13.0247   18.4087 O   0  0  0  0  0  0  0  0  0  0  0  0
    9.2593  -16.4608   21.7502 O   0  0  0  0  0  0  0  0  0  0  0  0
    9.6577  -15.1363   21.9181 C   0  0  0  0  0  0  0  0  0  0  0  0
   10.3823  -14.7142   20.6868 C   0  0  2  0  0  0  0  0  0  0  0  0
    9.6769  -15.0351   19.4659 N   0  0  0  0  0  0  0  0  0  0  0  0
   11.6820  -15.4808   20.6539 C   0  0  0  0  0  0  0  0  0  0  0  0
   11.7566  -16.6443   20.1810 O   0  0  0  0  0  0  0  0  0  0  0  0
   14.7209  -13.6814   18.4631 N   0  0  0  0  0  0  0  0  0  0  0  0
   15.0728  -14.8651   19.1674 C   0  0  0  0  0  0  0  0  0  0  0  0
   15.2822  -15.9550   18.5756 O   0  0  0  0  0  0  0  0  0  0  0  0
   15.1955  -14.8135   20.6334 C   0  0  0  0  0  0  0  0  0  0  0  0
   14.1189  -15.6606   21.2746 C   0  0  2  0  0  0  0  0  0  0  0  0
   12.8777  -14.8967   21.1662 N   0  0  0  0  0  0  0  0  0  0  0  0
   14.3752  -15.8489   22.7264 C   0  0  0  0  0  0  0  0  0  0  0  0
   15.4681  -16.6240   23.1239 O   0  0  0  0  0  0  0  0  0  0  0  0
   13.6644  -15.3507   23.6357 O   0  0  0  0  0  0  0  0  0  0  0  0
  2  1  1  1
  3  2  1  0
  4  5  1  0
  4  3  1  0
  5  6  1  0
  6  7  1  0
  8 13  1  0
  8  2  1  0
  9  8  2  0
 10 11  1  0
 12 11  1  1
 12 13  1  0
 12 14  1  0
 14 15  2  0
 17 16  1  0
 17 19  1  0
 18 17  2  0
 20 19  1  1
 21 14  1  0
 21 20  1  0
 22 20  1  0
 22 23  1  0
 24 22  2  0
M  END
$$$$
