QWM.pdb
     RDKit          3D

 32 33  0  0  1  0  0  0  0  0999 V2000
   27.3851  -23.0597  -17.2113 N   0  0  0  0  0  0  0  0  0  0  0  0
   28.4508  -22.1417  -17.5266 C   0  0  0  0  0  0  0  0  0  0  0  0
   28.7220  -21.8612  -18.7129 O   0  0  0  0  0  0  0  0  0  0  0  0
   29.1819  -21.5639  -16.3978 C   0  0  0  0  0  0  0  0  0  0  0  0
   28.5948  -21.8813  -15.0721 C   0  0  0  0  0  0  0  0  0  0  0  0
   27.6717  -20.8754  -14.4784 C   0  0  2  0  0  0  0  0  0  0  0  0
   28.1271  -19.5390  -14.3803 N   0  0  0  0  0  0  0  0  0  0  0  0
   27.0904  -21.3174  -13.1870 C   0  0  0  0  0  0  0  0  0  0  0  0
   26.5329  -22.4490  -13.0697 O   0  0  0  0  0  0  0  0  0  0  0  0
   27.1330  -20.5073  -12.0597 N   0  0  0  0  0  0  0  0  0  0  0  0
   26.5295  -20.9265  -10.7652 C   0  0  1  0  0  0  0  0  0  0  0  0
   27.4314  -20.3657   -9.7344 C   0  0  0  0  0  0  0  0  0  0  0  0
   27.0172  -20.5277   -8.3334 C   0  0  0  0  0  0  0  0  0  0  0  0
   25.8487  -21.0944   -7.8862 C   0  0  0  0  0  0  0  0  0  0  0  0
   25.7917  -21.0584   -6.5431 N   0  0  0  0  0  0  0  0  0  0  0  0
   26.9138  -20.4720   -6.0919 C   0  0  0  0  0  0  0  0  0  0  0  0
   27.3166  -20.2075   -4.8025 C   0  0  0  0  0  0  0  0  0  0  0  0
   28.5279  -19.5882   -4.6010 C   0  0  0  0  0  0  0  0  0  0  0  0
   29.3121  -19.2451   -5.6798 C   0  0  0  0  0  0  0  0  0  0  0  0
   28.8811  -19.5233   -6.9582 C   0  0  0  0  0  0  0  0  0  0  0  0
   27.6825  -20.1378   -7.1927 C   0  0  0  0  0  0  0  0  0  0  0  0
   25.2033  -20.2886  -10.7216 C   0  0  0  0  0  0  0  0  0  0  0  0
   25.1765  -19.0081  -10.7930 O   0  0  0  0  0  0  0  0  0  0  0  0
   22.5415  -19.9639  -15.3239 C   0  0  0  0  0  0  0  0  0  0  0  0
   20.8865  -19.7881  -14.5690 S   0  0  0  0  0  0  0  0  0  0  0  0
   21.1559  -19.8006  -12.7572 C   0  0  0  0  0  0  0  0  0  0  0  0
   22.4268  -20.4975  -12.4052 C   0  0  0  0  0  0  0  0  0  0  0  0
   22.7611  -20.2760  -10.9535 C   0  0  2  0  0  0  0  0  0  0  0  0
   23.9801  -20.9983  -10.6125 N   0  0  0  0  0  0  0  0  0  0  0  0
   21.6799  -20.7743  -10.0986 C   0  0  0  0  0  0  0  0  0  0  0  0
   21.6289  -22.0100   -9.8139 O   0  0  0  0  0  0  0  0  0  0  0  0
   20.7083  -19.9104   -9.5878 O   0  0  0  0  0  0  0  0  0  0  0  0
  2  1  1  0
  3  2  2  0
  4  2  1  0
  5  4  1  0
  6  8  1  0
  6  5  1  0
  6  7  1  1
  8  9  2  0
 10  8  1  0
 11 12  1  1
 11 10  1  0
 13 12  1  0
 13 14  2  0
 15 14  1  0
 16 15  1  0
 17 16  2  0
 18 17  1  0
 19 18  2  0
 19 20  1  0
 20 21  2  0
 21 16  1  0
 21 13  1  0
 22 11  1  0
 23 22  2  0
 25 26  1  0
 25 24  1  0
 26 27  1  0
 28 27  1  6
 28 30  1  0
 28 29  1  0
 29 22  1  0
 30 32  1  0
 31 30  2  0
M  END
$$$$
