QWM.pdb
     RDKit          3D

 32 33  0  0  1  0  0  0  0  0999 V2000
   28.2705  -23.1917  -17.0772 N   0  0  0  0  0  0  0  0  0  0  0  0
   29.1596  -22.0839  -17.3227 C   0  0  0  0  0  0  0  0  0  0  0  0
   29.6842  -21.9226  -18.4444 O   0  0  0  0  0  0  0  0  0  0  0  0
   29.4054  -21.1725  -16.2041 C   0  0  0  0  0  0  0  0  0  0  0  0
   28.6164  -21.4844  -14.9864 C   0  0  0  0  0  0  0  0  0  0  0  0
   27.2725  -20.8551  -14.8668 C   0  0  2  0  0  0  0  0  0  0  0  0
   27.2008  -19.4419  -14.8964 N   0  0  0  0  0  0  0  0  0  0  0  0
   26.4860  -21.3868  -13.7268 C   0  0  0  0  0  0  0  0  0  0  0  0
   26.3300  -22.6330  -13.5598 O   0  0  0  0  0  0  0  0  0  0  0  0
   25.8893  -20.5396  -12.8020 N   0  0  0  0  0  0  0  0  0  0  0  0
   25.1174  -21.0598  -11.6404 C   0  0  1  0  0  0  0  0  0  0  0  0
   25.5925  -20.2604  -10.4890 C   0  0  0  0  0  0  0  0  0  0  0  0
   26.8703  -20.6641   -9.8850 C   0  0  0  0  0  0  0  0  0  0  0  0
   27.8500  -21.4244  -10.4754 C   0  0  0  0  0  0  0  0  0  0  0  0
   28.8743  -21.6154   -9.6252 N   0  0  0  0  0  0  0  0  0  0  0  0
   28.5844  -20.9878   -8.4725 C   0  0  0  0  0  0  0  0  0  0  0  0
   29.3138  -20.8936   -7.3089 C   0  0  0  0  0  0  0  0  0  0  0  0
   28.7897  -20.1829   -6.2546 C   0  0  0  0  0  0  0  0  0  0  0  0
   27.5566  -19.5821   -6.3763 C   0  0  0  0  0  0  0  0  0  0  0  0
   26.8511  -19.6946   -7.5539 C   0  0  0  0  0  0  0  0  0  0  0  0
   27.3436  -20.3937   -8.6206 C   0  0  0  0  0  0  0  0  0  0  0  0
   23.7052  -20.7755  -11.9443 C   0  0  0  0  0  0  0  0  0  0  0  0
   23.3964  -19.5486  -12.1560 O   0  0  0  0  0  0  0  0  0  0  0  0
   19.9836  -24.6171  -15.0997 C   0  0  0  0  0  0  0  0  0  0  0  0
   18.6882  -23.3464  -14.8827 S   0  0  0  0  0  0  0  0  0  0  0  0
   19.4446  -22.0257  -13.8635 C   0  0  0  0  0  0  0  0  0  0  0  0
   20.7541  -22.4628  -13.2986 C   0  0  0  0  0  0  0  0  0  0  0  0
   21.3882  -21.3419  -12.5178 C   0  0  2  0  0  0  0  0  0  0  0  0
   22.6908  -21.7641  -12.0187 N   0  0  0  0  0  0  0  0  0  0  0  0
   20.5523  -20.9835  -11.3684 C   0  0  0  0  0  0  0  0  0  0  0  0
   19.5611  -20.2087  -11.5354 O   0  0  0  0  0  0  0  0  0  0  0  0
   20.8258  -21.4851  -10.0937 O   0  0  0  0  0  0  0  0  0  0  0  0
  2  1  1  0
  3  2  2  0
  4  2  1  0
  5  4  1  0
  6  8  1  0
  6  5  1  0
  6  7  1  1
  8  9  2  0
 10  8  1  0
 11 12  1  1
 11 10  1  0
 13 12  1  0
 13 14  2  0
 15 14  1  0
 16 15  1  0
 17 16  2  0
 18 17  1  0
 19 18  2  0
 19 20  1  0
 20 21  2  0
 21 16  1  0
 21 13  1  0
 22 11  1  0
 23 22  2  0
 25 26  1  0
 25 24  1  0
 26 27  1  0
 28 27  1  1
 28 30  1  0
 28 29  1  0
 29 22  1  0
 30 32  1  0
 31 30  2  0
M  END
$$$$
