QWM.pdb
     RDKit          3D

 32 33  0  0  1  0  0  0  0  0999 V2000
   21.9314  -25.5354  -13.6738 N   0  0  0  0  0  0  0  0  0  0  0  0
   22.2727  -25.3385  -15.0604 C   0  0  0  0  0  0  0  0  0  0  0  0
   22.3154  -26.3042  -15.8509 O   0  0  0  0  0  0  0  0  0  0  0  0
   22.5577  -23.9664  -15.4830 C   0  0  0  0  0  0  0  0  0  0  0  0
   22.4553  -22.9649  -14.3925 C   0  0  0  0  0  0  0  0  0  0  0  0
   21.4923  -21.8460  -14.5846 C   0  0  2  0  0  0  0  0  0  0  0  0
   21.9835  -20.6413  -15.1421 N   0  0  0  0  0  0  0  0  0  0  0  0
   20.6889  -21.5614  -13.3703 C   0  0  0  0  0  0  0  0  0  0  0  0
   21.0713  -20.7102  -12.5134 O   0  0  0  0  0  0  0  0  0  0  0  0
   19.4900  -22.2185  -13.1258 N   0  0  0  0  0  0  0  0  0  0  0  0
   18.6878  -21.9630  -11.8982 C   0  0  1  0  0  0  0  0  0  0  0  0
   17.6871  -20.9534  -12.3101 C   0  0  0  0  0  0  0  0  0  0  0  0
   17.1642  -21.0600  -13.6798 C   0  0  0  0  0  0  0  0  0  0  0  0
   16.3457  -22.0490  -14.1681 C   0  0  0  0  0  0  0  0  0  0  0  0
   16.0798  -21.8402  -15.4697 N   0  0  0  0  0  0  0  0  0  0  0  0
   16.7150  -20.7192  -15.8524 C   0  0  0  0  0  0  0  0  0  0  0  0
   16.7497  -20.0973  -17.0799 C   0  0  0  0  0  0  0  0  0  0  0  0
   17.4844  -18.9428  -17.2167 C   0  0  0  0  0  0  0  0  0  0  0  0
   18.1671  -18.4306  -16.1360 C   0  0  0  0  0  0  0  0  0  0  0  0
   18.1124  -19.0762  -14.9205 C   0  0  0  0  0  0  0  0  0  0  0  0
   17.3916  -20.2255  -14.7510 C   0  0  0  0  0  0  0  0  0  0  0  0
   18.0488  -23.2478  -11.5684 C   0  0  0  0  0  0  0  0  0  0  0  0
   17.7794  -24.0270  -12.5511 O   0  0  0  0  0  0  0  0  0  0  0  0
   18.1477  -27.3751   -6.6662 C   0  0  0  0  0  0  0  0  0  0  0  0
   16.3324  -27.2883   -6.8583 S   0  0  0  0  0  0  0  0  0  0  0  0
   16.0355  -26.4874   -8.4786 C   0  0  0  0  0  0  0  0  0  0  0  0
   16.8884  -25.2751   -8.6460 C   0  0  0  0  0  0  0  0  0  0  0  0
   17.0510  -24.9465  -10.1067 C   0  0  2  0  0  0  0  0  0  0  0  0
   17.7268  -23.6634  -10.2511 N   0  0  0  0  0  0  0  0  0  0  0  0
   15.7412  -24.8493  -10.7573 C   0  0  0  0  0  0  0  0  0  0  0  0
   15.2256  -25.8848  -11.2794 O   0  0  0  0  0  0  0  0  0  0  0  0
   15.0490  -23.6370  -10.8069 O   0  0  0  0  0  0  0  0  0  0  0  0
  2  1  1  0
  3  2  2  0
  4  2  1  0
  5  4  1  0
  6  8  1  0
  6  5  1  0
  6  7  1  1
  8  9  2  0
 10  8  1  0
 11 12  1  6
 11 10  1  0
 13 12  1  0
 13 14  2  0
 15 14  1  0
 16 15  1  0
 17 16  2  0
 18 17  1  0
 19 18  2  0
 19 20  1  0
 20 21  2  0
 21 16  1  0
 21 13  1  0
 22 11  1  0
 23 22  2  0
 25 26  1  0
 25 24  1  0
 26 27  1  0
 28 27  1  1
 28 30  1  0
 28 29  1  0
 29 22  1  0
 30 32  1  0
 31 30  2  0
M  END
$$$$
