QWM.pdb
     RDKit          3D

 32 33  0  0  1  0  0  0  0  0999 V2000
   26.7877  -22.4054  -18.2938 N   0  0  0  0  0  0  0  0  0  0  0  0
   27.8632  -21.4498  -18.3835 C   0  0  0  0  0  0  0  0  0  0  0  0
   28.5389  -21.3451  -19.4284 O   0  0  0  0  0  0  0  0  0  0  0  0
   28.1119  -20.6209  -17.2030 C   0  0  0  0  0  0  0  0  0  0  0  0
   27.2557  -20.9567  -16.0381 C   0  0  0  0  0  0  0  0  0  0  0  0
   27.9261  -21.0828  -14.7149 C   0  0  2  0  0  0  0  0  0  0  0  0
   29.1268  -21.8294  -14.6522 N   0  0  0  0  0  0  0  0  0  0  0  0
   26.9993  -21.5068  -13.6368 C   0  0  0  0  0  0  0  0  0  0  0  0
   26.5480  -22.6895  -13.5849 O   0  0  0  0  0  0  0  0  0  0  0  0
   26.5897  -20.6237  -12.6462 N   0  0  0  0  0  0  0  0  0  0  0  0
   25.6615  -21.0359  -11.5580 C   0  0  1  0  0  0  0  0  0  0  0  0
   26.0626  -20.2139  -10.3945 C   0  0  0  0  0  0  0  0  0  0  0  0
   27.2711  -20.6351   -9.6715 C   0  0  0  0  0  0  0  0  0  0  0  0
   28.2939  -21.4061  -10.1674 C   0  0  0  0  0  0  0  0  0  0  0  0
   29.2289  -21.6121   -9.2231 N   0  0  0  0  0  0  0  0  0  0  0  0
   28.8368  -20.9838   -8.1014 C   0  0  0  0  0  0  0  0  0  0  0  0
   29.4516  -20.9017   -6.8725 C   0  0  0  0  0  0  0  0  0  0  0  0
   28.8369  -20.1871   -5.8711 C   0  0  0  0  0  0  0  0  0  0  0  0
   27.6287  -19.5706   -6.1090 C   0  0  0  0  0  0  0  0  0  0  0  0
   27.0389  -19.6712   -7.3496 C   0  0  0  0  0  0  0  0  0  0  0  0
   27.6234  -20.3738   -8.3663 C   0  0  0  0  0  0  0  0  0  0  0  0
   24.3140  -20.6762  -12.0296 C   0  0  0  0  0  0  0  0  0  0  0  0
   24.1950  -19.5492  -12.6307 O   0  0  0  0  0  0  0  0  0  0  0  0
   20.5387  -24.0948  -15.2392 C   0  0  0  0  0  0  0  0  0  0  0  0
   19.5148  -22.5854  -15.3542 S   0  0  0  0  0  0  0  0  0  0  0  0
   20.1234  -21.4632  -14.0407 C   0  0  0  0  0  0  0  0  0  0  0  0
   21.4565  -21.8992  -13.5330 C   0  0  0  0  0  0  0  0  0  0  0  0
   21.9129  -20.9967  -12.4171 C   0  0  2  0  0  0  0  0  0  0  0  0
   23.1664  -21.4928  -11.8632 N   0  0  0  0  0  0  0  0  0  0  0  0
   20.9169  -20.9697  -11.3422 C   0  0  0  0  0  0  0  0  0  0  0  0
   21.1676  -21.5552  -10.2445 O   0  0  0  0  0  0  0  0  0  0  0  0
   19.6988  -20.3054  -11.5045 O   0  0  0  0  0  0  0  0  0  0  0  0
  2  1  1  0
  3  2  2  0
  4  2  1  0
  5  4  1  0
  6  8  1  0
  6  5  1  0
  6  7  1  6
  8  9  2  0
 10  8  1  0
 11 12  1  1
 11 10  1  0
 13 12  1  0
 13 14  2  0
 15 14  1  0
 16 15  1  0
 17 16  2  0
 18 17  1  0
 19 18  2  0
 19 20  1  0
 20 21  2  0
 21 16  1  0
 21 13  1  0
 22 11  1  0
 23 22  2  0
 25 26  1  0
 25 24  1  0
 26 27  1  0
 28 27  1  6
 28 30  1  0
 28 29  1  0
 29 22  1  0
 30 32  1  0
 31 30  2  0
M  END
$$$$
