QWM.pdb
     RDKit          3D

 32 33  0  0  1  0  0  0  0  0999 V2000
   30.5199  -24.3483  -15.7378 N   0  0  0  0  0  0  0  0  0  0  0  0
   30.5240  -23.3154  -16.7433 C   0  0  0  0  0  0  0  0  0  0  0  0
   31.3883  -23.3050  -17.6446 O   0  0  0  0  0  0  0  0  0  0  0  0
   29.4741  -22.2996  -16.6525 C   0  0  0  0  0  0  0  0  0  0  0  0
   28.5694  -22.4686  -15.4881 C   0  0  0  0  0  0  0  0  0  0  0  0
   27.4396  -21.5077  -15.3592 C   0  0  2  0  0  0  0  0  0  0  0  0
   27.7265  -20.1292  -15.5028 N   0  0  0  0  0  0  0  0  0  0  0  0
   26.6211  -21.7395  -14.1438 C   0  0  0  0  0  0  0  0  0  0  0  0
   26.1431  -22.8829  -13.8811 O   0  0  0  0  0  0  0  0  0  0  0  0
   26.3459  -20.7123  -13.2505 N   0  0  0  0  0  0  0  0  0  0  0  0
   25.5133  -20.9270  -12.0353 C   0  0  1  0  0  0  0  0  0  0  0  0
   26.1496  -20.0890  -10.9945 C   0  0  0  0  0  0  0  0  0  0  0  0
   27.3031  -20.6686  -10.2916 C   0  0  0  0  0  0  0  0  0  0  0  0
   28.3326  -21.3801  -10.8576 C   0  0  0  0  0  0  0  0  0  0  0  0
   29.2060  -21.7756   -9.9145 N   0  0  0  0  0  0  0  0  0  0  0  0
   28.7660  -21.3327   -8.7241 C   0  0  0  0  0  0  0  0  0  0  0  0
   29.3106  -21.4813   -7.4688 C   0  0  0  0  0  0  0  0  0  0  0  0
   28.6577  -20.9253   -6.3936 C   0  0  0  0  0  0  0  0  0  0  0  0
   27.4815  -20.2354   -6.5858 C   0  0  0  0  0  0  0  0  0  0  0  0
   26.9619  -20.1039   -7.8547 C   0  0  0  0  0  0  0  0  0  0  0  0
   27.5860  -20.6445   -8.9444 C   0  0  0  0  0  0  0  0  0  0  0  0
   24.1724  -20.4269  -12.3807 C   0  0  0  0  0  0  0  0  0  0  0  0
   24.0973  -19.2139  -12.7914 O   0  0  0  0  0  0  0  0  0  0  0  0
   22.3077  -21.9184  -17.8389 C   0  0  0  0  0  0  0  0  0  0  0  0
   21.1413  -22.0719  -16.4404 S   0  0  0  0  0  0  0  0  0  0  0  0
   21.9016  -21.1561  -15.0481 C   0  0  0  0  0  0  0  0  0  0  0  0
   21.0934  -21.2989  -13.8026 C   0  0  0  0  0  0  0  0  0  0  0  0
   21.7392  -20.5455  -12.6697 C   0  0  2  0  0  0  0  0  0  0  0  0
   22.9857  -21.1985  -12.2906 N   0  0  0  0  0  0  0  0  0  0  0  0
   20.8573  -20.5288  -11.4991 C   0  0  0  0  0  0  0  0  0  0  0  0
   21.1248  -21.2721  -10.5059 O   0  0  0  0  0  0  0  0  0  0  0  0
   19.7307  -19.7040  -11.4570 O   0  0  0  0  0  0  0  0  0  0  0  0
  2  1  1  0
  3  2  2  0
  4  2  1  0
  5  4  1  0
  6  8  1  0
  6  5  1  0
  6  7  1  1
  8  9  2  0
 10  8  1  0
 11 12  1  1
 11 10  1  0
 13 12  1  0
 13 14  2  0
 15 14  1  0
 16 15  1  0
 17 16  2  0
 18 17  1  0
 19 18  2  0
 19 20  1  0
 20 21  2  0
 21 16  1  0
 21 13  1  0
 22 11  1  0
 23 22  2  0
 25 26  1  0
 25 24  1  0
 26 27  1  0
 28 27  1  6
 28 30  1  0
 28 29  1  0
 29 22  1  0
 30 32  1  0
 31 30  2  0
M  END
$$$$
