QWM.pdb
     RDKit          3D

 32 33  0  0  1  0  0  0  0  0999 V2000
   25.0119  -24.5591  -19.4933 N   0  0  0  0  0  0  0  0  0  0  0  0
   26.2684  -24.0198  -19.9498 C   0  0  0  0  0  0  0  0  0  0  0  0
   26.6449  -24.1878  -21.1285 O   0  0  0  0  0  0  0  0  0  0  0  0
   27.0623  -23.2740  -18.9722 C   0  0  0  0  0  0  0  0  0  0  0  0
   26.4010  -23.1136  -17.6531 C   0  0  0  0  0  0  0  0  0  0  0  0
   27.2628  -23.2138  -16.4434 C   0  0  2  0  0  0  0  0  0  0  0  0
   28.1560  -24.3084  -16.3585 N   0  0  0  0  0  0  0  0  0  0  0  0
   26.5002  -23.0723  -15.1787 C   0  0  0  0  0  0  0  0  0  0  0  0
   26.0010  -24.0801  -14.5954 O   0  0  0  0  0  0  0  0  0  0  0  0
   26.3027  -21.8308  -14.5882 N   0  0  0  0  0  0  0  0  0  0  0  0
   25.5749  -21.6787  -13.2987 C   0  0  1  0  0  0  0  0  0  0  0  0
   26.1955  -20.4981  -12.6573 C   0  0  0  0  0  0  0  0  0  0  0  0
   27.3124  -20.7554  -11.7369 C   0  0  0  0  0  0  0  0  0  0  0  0
   28.6128  -21.0280  -12.0849 C   0  0  0  0  0  0  0  0  0  0  0  0
   29.3618  -21.2301  -10.9864 N   0  0  0  0  0  0  0  0  0  0  0  0
   28.5700  -21.0940   -9.9088 C   0  0  0  0  0  0  0  0  0  0  0  0
   28.8709  -21.2059   -8.5703 C   0  0  0  0  0  0  0  0  0  0  0  0
   27.8679  -21.0182   -7.6482 C   0  0  0  0  0  0  0  0  0  0  0  0
   26.5911  -20.7242   -8.0720 C   0  0  0  0  0  0  0  0  0  0  0  0
   26.3217  -20.6188   -9.4187 C   0  0  0  0  0  0  0  0  0  0  0  0
   27.2958  -20.7995  -10.3609 C   0  0  0  0  0  0  0  0  0  0  0  0
   24.1731  -21.4154  -13.6639 C   0  0  0  0  0  0  0  0  0  0  0  0
   23.9740  -20.6378  -14.6645 O   0  0  0  0  0  0  0  0  0  0  0  0
   19.0985  -25.1409  -14.7024 C   0  0  0  0  0  0  0  0  0  0  0  0
   18.2845  -23.8115  -13.7485 S   0  0  0  0  0  0  0  0  0  0  0  0
   19.4265  -22.3805  -13.8042 C   0  0  0  0  0  0  0  0  0  0  0  0
   20.7997  -22.7683  -13.3699 C   0  0  0  0  0  0  0  0  0  0  0  0
   21.7338  -21.5915  -13.4727 C   0  0  2  0  0  0  0  0  0  0  0  0
   23.0555  -21.9671  -12.9870 N   0  0  0  0  0  0  0  0  0  0  0  0
   21.2450  -20.4783  -12.6540 C   0  0  0  0  0  0  0  0  0  0  0  0
   20.6584  -19.5024  -13.2144 O   0  0  0  0  0  0  0  0  0  0  0  0
   21.4095  -20.4771  -11.2669 O   0  0  0  0  0  0  0  0  0  0  0  0
  2  1  1  0
  3  2  2  0
  4  2  1  0
  5  4  1  0
  6  8  1  0
  6  5  1  0
  6  7  1  1
  8  9  2  0
 10  8  1  0
 11 12  1  6
 11 10  1  0
 13 12  1  0
 13 14  2  0
 15 14  1  0
 16 15  1  0
 17 16  2  0
 18 17  1  0
 19 18  2  0
 19 20  1  0
 20 21  2  0
 21 16  1  0
 21 13  1  0
 22 11  1  0
 23 22  2  0
 25 26  1  0
 25 24  1  0
 26 27  1  0
 28 27  1  1
 28 30  1  0
 28 29  1  0
 29 22  1  0
 30 32  1  0
 31 30  2  0
M  END
$$$$
