QWM.pdb
     RDKit          3D

 32 33  0  0  1  0  0  0  0  0999 V2000
   25.8147  -19.1408  -18.7514 N   0  0  0  0  0  0  0  0  0  0  0  0
   27.1192  -19.6121  -19.1442 C   0  0  0  0  0  0  0  0  0  0  0  0
   27.3301  -20.0115  -20.3084 O   0  0  0  0  0  0  0  0  0  0  0  0
   28.1653  -19.5928  -18.1206 C   0  0  0  0  0  0  0  0  0  0  0  0
   27.6842  -19.1997  -16.7727 C   0  0  0  0  0  0  0  0  0  0  0  0
   27.6129  -20.2673  -15.7377 C   0  0  2  0  0  0  0  0  0  0  0  0
   27.2400  -21.5672  -16.1553 N   0  0  0  0  0  0  0  0  0  0  0  0
   26.8263  -19.8639  -14.5462 C   0  0  0  0  0  0  0  0  0  0  0  0
   27.0803  -18.7905  -13.9231 O   0  0  0  0  0  0  0  0  0  0  0  0
   25.7848  -20.6482  -14.0676 N   0  0  0  0  0  0  0  0  0  0  0  0
   24.7891  -20.1257  -13.0922 C   0  0  1  0  0  0  0  0  0  0  0  0
   23.4905  -20.6553  -13.5651 C   0  0  0  0  0  0  0  0  0  0  0  0
   22.3513  -20.5342  -12.6442 C   0  0  0  0  0  0  0  0  0  0  0  0
   22.0762  -19.4714  -11.8187 C   0  0  0  0  0  0  0  0  0  0  0  0
   20.9646  -19.7086  -11.1001 N   0  0  0  0  0  0  0  0  0  0  0  0
   20.4967  -20.9218  -11.4407 C   0  0  0  0  0  0  0  0  0  0  0  0
   19.3915  -21.6036  -10.9843 C   0  0  0  0  0  0  0  0  0  0  0  0
   19.1239  -22.8508  -11.4985 C   0  0  0  0  0  0  0  0  0  0  0  0
   19.9558  -23.3938  -12.4521 C   0  0  0  0  0  0  0  0  0  0  0  0
   21.0541  -22.6863  -12.8885 C   0  0  0  0  0  0  0  0  0  0  0  0
   21.3482  -21.4446  -12.3978 C   0  0  0  0  0  0  0  0  0  0  0  0
   25.1645  -20.7078  -11.7930 C   0  0  0  0  0  0  0  0  0  0  0  0
   25.4961  -21.9470  -11.7904 O   0  0  0  0  0  0  0  0  0  0  0  0
   28.6086  -18.8985   -6.7703 C   0  0  0  0  0  0  0  0  0  0  0  0
   27.2448  -19.6861   -5.8431 S   0  0  0  0  0  0  0  0  0  0  0  0
   26.3053  -20.6704   -7.0693 C   0  0  0  0  0  0  0  0  0  0  0  0
   26.2100  -19.9568   -8.3757 C   0  0  0  0  0  0  0  0  0  0  0  0
   25.3857  -20.7559   -9.3504 C   0  0  2  0  0  0  0  0  0  0  0  0
   25.1836  -19.9869  -10.5717 N   0  0  0  0  0  0  0  0  0  0  0  0
   24.0709  -21.0599   -8.7784 C   0  0  0  0  0  0  0  0  0  0  0  0
   23.0613  -20.3813   -9.1402 O   0  0  0  0  0  0  0  0  0  0  0  0
   23.9103  -22.0877   -7.8462 O   0  0  0  0  0  0  0  0  0  0  0  0
  2  1  1  0
  3  2  2  0
  4  2  1  0
  5  4  1  0
  6  8  1  0
  6  5  1  0
  6  7  1  6
  8  9  2  0
 10  8  1  0
 11 12  1  6
 11 10  1  0
 13 12  1  0
 13 14  2  0
 15 14  1  0
 16 15  1  0
 17 16  2  0
 18 17  1  0
 19 18  2  0
 19 20  1  0
 20 21  2  0
 21 16  1  0
 21 13  1  0
 22 11  1  0
 23 22  2  0
 25 26  1  0
 25 24  1  0
 26 27  1  0
 28 27  1  1
 28 30  1  0
 28 29  1  0
 29 22  1  0
 30 32  1  0
 31 30  2  0
M  END
$$$$
