QWM.pdb
     RDKit          3D

 32 33  0  0  1  0  0  0  0  0999 V2000
   26.0521  -17.4868  -17.0285 N   0  0  0  0  0  0  0  0  0  0  0  0
   26.4995  -18.6467  -17.7582 C   0  0  0  0  0  0  0  0  0  0  0  0
   26.3861  -18.7025  -19.0006 O   0  0  0  0  0  0  0  0  0  0  0  0
   27.0873  -19.7347  -16.9752 C   0  0  0  0  0  0  0  0  0  0  0  0
   27.0561  -19.5086  -15.5086 C   0  0  0  0  0  0  0  0  0  0  0  0
   27.6939  -20.5417  -14.6472 C   0  0  2  0  0  0  0  0  0  0  0  0
   28.4325  -21.5674  -15.2842 N   0  0  0  0  0  0  0  0  0  0  0  0
   26.7577  -21.1225  -13.6537 C   0  0  0  0  0  0  0  0  0  0  0  0
   26.2031  -22.2445  -13.8501 O   0  0  0  0  0  0  0  0  0  0  0  0
   26.4520  -20.4577  -12.4731 N   0  0  0  0  0  0  0  0  0  0  0  0
   25.5432  -21.0451  -11.4509 C   0  0  1  0  0  0  0  0  0  0  0  0
   25.8405  -20.2929  -10.2115 C   0  0  0  0  0  0  0  0  0  0  0  0
   27.1166  -20.5914   -9.5459 C   0  0  0  0  0  0  0  0  0  0  0  0
   28.1741  -21.2872  -10.0790 C   0  0  0  0  0  0  0  0  0  0  0  0
   29.1713  -21.3883   -9.1825 N   0  0  0  0  0  0  0  0  0  0  0  0
   28.7862  -20.7648   -8.0557 C   0  0  0  0  0  0  0  0  0  0  0  0
   29.4551  -20.5981   -6.8642 C   0  0  0  0  0  0  0  0  0  0  0  0
   28.8349  -19.9107   -5.8473 C   0  0  0  0  0  0  0  0  0  0  0  0
   27.5678  -19.4044   -6.0331 C   0  0  0  0  0  0  0  0  0  0  0  0
   26.9247  -19.5878   -7.2372 C   0  0  0  0  0  0  0  0  0  0  0  0
   27.5131  -20.2662   -8.2680 C   0  0  0  0  0  0  0  0  0  0  0  0
   24.1784  -20.7709  -11.9302 C   0  0  0  0  0  0  0  0  0  0  0  0
   23.9440  -19.5833  -12.3548 O   0  0  0  0  0  0  0  0  0  0  0  0
   21.0489  -23.8520  -16.3045 C   0  0  0  0  0  0  0  0  0  0  0  0
   19.5791  -23.3831  -15.3249 S   0  0  0  0  0  0  0  0  0  0  0  0
   20.1393  -22.0748  -14.1718 C   0  0  0  0  0  0  0  0  0  0  0  0
   21.4378  -22.4374  -13.5337 C   0  0  0  0  0  0  0  0  0  0  0  0
   21.8900  -21.3407  -12.6059 C   0  0  2  0  0  0  0  0  0  0  0  0
   23.1332  -21.7293  -11.9520 N   0  0  0  0  0  0  0  0  0  0  0  0
   20.8828  -21.1017  -11.5682 C   0  0  0  0  0  0  0  0  0  0  0  0
   19.7765  -20.5661  -11.8843 O   0  0  0  0  0  0  0  0  0  0  0  0
   21.1187  -21.4591  -10.2386 O   0  0  0  0  0  0  0  0  0  0  0  0
  2  1  1  0
  3  2  2  0
  4  2  1  0
  5  4  1  0
  6  8  1  0
  6  5  1  0
  6  7  1  6
  8  9  2  0
 10  8  1  0
 11 12  1  1
 11 10  1  0
 13 12  1  0
 13 14  2  0
 15 14  1  0
 16 15  1  0
 17 16  2  0
 18 17  1  0
 19 18  2  0
 19 20  1  0
 20 21  2  0
 21 16  1  0
 21 13  1  0
 22 11  1  0
 23 22  2  0
 25 26  1  0
 25 24  1  0
 26 27  1  0
 28 27  1  6
 28 30  1  0
 28 29  1  0
 29 22  1  0
 30 32  1  0
 31 30  2  0
M  END
$$$$
