QWM.pdb
     RDKit          3D

 32 33  0  0  1  0  0  0  0  0999 V2000
   27.9343  -16.0844  -16.9598 N   0  0  0  0  0  0  0  0  0  0  0  0
   27.6400  -16.3275  -18.3499 C   0  0  0  0  0  0  0  0  0  0  0  0
   28.0285  -15.5346  -19.2330 O   0  0  0  0  0  0  0  0  0  0  0  0
   26.8770  -17.5367  -18.6629 C   0  0  0  0  0  0  0  0  0  0  0  0
   26.5561  -18.3718  -17.4786 C   0  0  0  0  0  0  0  0  0  0  0  0
   27.5222  -19.4470  -17.1225 C   0  0  2  0  0  0  0  0  0  0  0  0
   27.9249  -20.3376  -18.1461 N   0  0  0  0  0  0  0  0  0  0  0  0
   27.1227  -20.2030  -15.9101 C   0  0  0  0  0  0  0  0  0  0  0  0
   26.5743  -21.3418  -15.9961 O   0  0  0  0  0  0  0  0  0  0  0  0
   27.3320  -19.6903  -14.6364 N   0  0  0  0  0  0  0  0  0  0  0  0
   27.0486  -20.4859  -13.4106 C   0  0  1  0  0  0  0  0  0  0  0  0
   27.9460  -19.9164  -12.3807 C   0  0  0  0  0  0  0  0  0  0  0  0
   27.9185  -20.5504  -11.0549 C   0  0  0  0  0  0  0  0  0  0  0  0
   28.5033  -21.7434  -10.7065 C   0  0  0  0  0  0  0  0  0  0  0  0
   28.2603  -22.0275   -9.4147 N   0  0  0  0  0  0  0  0  0  0  0  0
   27.5180  -21.0325   -8.8996 C   0  0  0  0  0  0  0  0  0  0  0  0
   27.0202  -20.8680   -7.6268 C   0  0  0  0  0  0  0  0  0  0  0  0
   26.2774  -19.7450   -7.3463 C   0  0  0  0  0  0  0  0  0  0  0  0
   26.0448  -18.8114   -8.3314 C   0  0  0  0  0  0  0  0  0  0  0  0
   26.5567  -19.0046   -9.5955 C   0  0  0  0  0  0  0  0  0  0  0  0
   27.2988  -20.1097   -9.9070 C   0  0  0  0  0  0  0  0  0  0  0  0
   25.6345  -20.2298  -13.0906 C   0  0  0  0  0  0  0  0  0  0  0  0
   25.2198  -19.0245  -13.2342 O   0  0  0  0  0  0  0  0  0  0  0  0
   19.2679  -23.6294  -11.6099 C   0  0  0  0  0  0  0  0  0  0  0  0
   19.8665  -22.9102  -13.1797 S   0  0  0  0  0  0  0  0  0  0  0  0
   20.9962  -21.5469  -12.7101 C   0  0  0  0  0  0  0  0  0  0  0  0
   22.4222  -21.9309  -12.9196 C   0  0  0  0  0  0  0  0  0  0  0  0
   23.3352  -20.8200  -12.4720 C   0  0  2  0  0  0  0  0  0  0  0  0
   24.7247  -21.2232  -12.6466 N   0  0  0  0  0  0  0  0  0  0  0  0
   23.1202  -20.5226  -11.0530 C   0  0  0  0  0  0  0  0  0  0  0  0
   22.1953  -19.7212  -10.7167 O   0  0  0  0  0  0  0  0  0  0  0  0
   23.9128  -21.1112  -10.0649 O   0  0  0  0  0  0  0  0  0  0  0  0
  2  1  1  0
  3  2  2  0
  4  2  1  0
  5  4  1  0
  6  8  1  0
  6  5  1  0
  6  7  1  6
  8  9  2  0
 10  8  1  0
 11 12  1  1
 11 10  1  0
 13 12  1  0
 13 14  2  0
 15 14  1  0
 16 15  1  0
 17 16  2  0
 18 17  1  0
 19 18  2  0
 19 20  1  0
 20 21  2  0
 21 16  1  0
 21 13  1  0
 22 11  1  0
 23 22  2  0
 25 26  1  0
 25 24  1  0
 26 27  1  0
 28 27  1  1
 28 30  1  0
 28 29  1  0
 29 22  1  0
 30 32  1  0
 31 30  2  0
M  END
$$$$
