QWM.pdb
     RDKit          3D

 32 33  0  0  1  0  0  0  0  0999 V2000
   29.4004  -24.3858  -16.2712 N   0  0  0  0  0  0  0  0  0  0  0  0
   29.9118  -23.2214  -16.9497 C   0  0  0  0  0  0  0  0  0  0  0  0
   30.5025  -23.3283  -18.0448 O   0  0  0  0  0  0  0  0  0  0  0  0
   29.7001  -21.9288  -16.2964 C   0  0  0  0  0  0  0  0  0  0  0  0
   28.8797  -22.0033  -15.0618 C   0  0  0  0  0  0  0  0  0  0  0  0
   27.5751  -21.2862  -15.0676 C   0  0  2  0  0  0  0  0  0  0  0  0
   27.5944  -19.8830  -15.2520 N   0  0  0  0  0  0  0  0  0  0  0  0
   26.7163  -21.6417  -13.9112 C   0  0  0  0  0  0  0  0  0  0  0  0
   26.5153  -22.8502  -13.5884 O   0  0  0  0  0  0  0  0  0  0  0  0
   26.0988  -20.6645  -13.1414 N   0  0  0  0  0  0  0  0  0  0  0  0
   25.2782  -21.0045  -11.9469 C   0  0  1  0  0  0  0  0  0  0  0  0
   25.7637  -20.0908  -10.8886 C   0  0  0  0  0  0  0  0  0  0  0  0
   26.9963  -20.4826  -10.1901 C   0  0  0  0  0  0  0  0  0  0  0  0
   28.0552  -21.1744  -10.7254 C   0  0  0  0  0  0  0  0  0  0  0  0
   29.0046  -21.3764   -9.7946 N   0  0  0  0  0  0  0  0  0  0  0  0
   28.5861  -20.8242   -8.6428 C   0  0  0  0  0  0  0  0  0  0  0  0
   29.2021  -20.7693   -7.4131 C   0  0  0  0  0  0  0  0  0  0  0  0
   28.5562  -20.1368   -6.3766 C   0  0  0  0  0  0  0  0  0  0  0  0
   27.3163  -19.5736   -6.5812 C   0  0  0  0  0  0  0  0  0  0  0  0
   26.7262  -19.6451   -7.8237 C   0  0  0  0  0  0  0  0  0  0  0  0
   27.3412  -20.2664   -8.8747 C   0  0  0  0  0  0  0  0  0  0  0  0
   23.8876  -20.6994  -12.3221 C   0  0  0  0  0  0  0  0  0  0  0  0
   23.6221  -19.4774  -12.6079 O   0  0  0  0  0  0  0  0  0  0  0  0
   22.5066  -21.0044  -16.7051 C   0  0  0  0  0  0  0  0  0  0  0  0
   20.9882  -21.9754  -16.4026 S   0  0  0  0  0  0  0  0  0  0  0  0
   20.2970  -21.3504  -14.8257 C   0  0  0  0  0  0  0  0  0  0  0  0
   20.8355  -22.1111  -13.6611 C   0  0  0  0  0  0  0  0  0  0  0  0
   21.5098  -21.1767  -12.6914 C   0  0  2  0  0  0  0  0  0  0  0  0
   22.8495  -21.6636  -12.3880 N   0  0  0  0  0  0  0  0  0  0  0  0
   20.7533  -21.1083  -11.4379 C   0  0  0  0  0  0  0  0  0  0  0  0
   21.0661  -21.8771  -10.4778 O   0  0  0  0  0  0  0  0  0  0  0  0
   19.6977  -20.2070  -11.2812 O   0  0  0  0  0  0  0  0  0  0  0  0
  2  1  1  0
  3  2  2  0
  4  2  1  0
  5  4  1  0
  6  8  1  0
  6  5  1  0
  6  7  1  1
  8  9  2  0
 10  8  1  0
 11 12  1  1
 11 10  1  0
 13 12  1  0
 13 14  2  0
 15 14  1  0
 16 15  1  0
 17 16  2  0
 18 17  1  0
 19 18  2  0
 19 20  1  0
 20 21  2  0
 21 16  1  0
 21 13  1  0
 22 11  1  0
 23 22  2  0
 25 26  1  0
 25 24  1  0
 26 27  1  0
 28 27  1  6
 28 30  1  0
 28 29  1  0
 29 22  1  0
 30 32  1  0
 31 30  2  0
M  END
$$$$
