QWM.pdb
     RDKit          3D

 32 33  0  0  1  0  0  0  0  0999 V2000
   25.8164  -21.1837  -18.4626 N   0  0  0  0  0  0  0  0  0  0  0  0
   26.9752  -20.3321  -18.5608 C   0  0  0  0  0  0  0  0  0  0  0  0
   27.4911  -20.0811  -19.6700 O   0  0  0  0  0  0  0  0  0  0  0  0
   27.5018  -19.7846  -17.3096 C   0  0  0  0  0  0  0  0  0  0  0  0
   26.7576  -20.2172  -16.1006 C   0  0  0  0  0  0  0  0  0  0  0  0
   27.4832  -21.0784  -15.1270 C   0  0  2  0  0  0  0  0  0  0  0  0
   28.2290  -22.1677  -15.6375 N   0  0  0  0  0  0  0  0  0  0  0  0
   26.6266  -21.5239  -14.0005 C   0  0  0  0  0  0  0  0  0  0  0  0
   26.1864  -22.7102  -13.9383 O   0  0  0  0  0  0  0  0  0  0  0  0
   26.2731  -20.6575  -12.9742 N   0  0  0  0  0  0  0  0  0  0  0  0
   25.4398  -21.0991  -11.8225 C   0  0  1  0  0  0  0  0  0  0  0  0
   25.8799  -20.2469  -10.6954 C   0  0  0  0  0  0  0  0  0  0  0  0
   27.1406  -20.6186  -10.0373 C   0  0  0  0  0  0  0  0  0  0  0  0
   28.1492  -21.3813  -10.5734 C   0  0  0  0  0  0  0  0  0  0  0  0
   29.1454  -21.5374   -9.6836 N   0  0  0  0  0  0  0  0  0  0  0  0
   28.8081  -20.8840   -8.5584 C   0  0  0  0  0  0  0  0  0  0  0  0
   29.4954  -20.7506   -7.3733 C   0  0  0  0  0  0  0  0  0  0  0  0
   28.9265  -20.0197   -6.3566 C   0  0  0  0  0  0  0  0  0  0  0  0
   27.6914  -19.4380   -6.5365 C   0  0  0  0  0  0  0  0  0  0  0  0
   27.0287  -19.5897   -7.7344 C   0  0  0  0  0  0  0  0  0  0  0  0
   27.5663  -20.3098   -8.7648 C   0  0  0  0  0  0  0  0  0  0  0  0
   24.0486  -20.8059  -12.2050 C   0  0  0  0  0  0  0  0  0  0  0  0
   23.8088  -19.6265  -12.6486 O   0  0  0  0  0  0  0  0  0  0  0  0
   19.4158  -24.9662  -13.4482 C   0  0  0  0  0  0  0  0  0  0  0  0
   18.3897  -23.4805  -13.7301 S   0  0  0  0  0  0  0  0  0  0  0  0
   19.4361  -22.0506  -13.2657 C   0  0  0  0  0  0  0  0  0  0  0  0
   20.8105  -22.4882  -12.8859 C   0  0  0  0  0  0  0  0  0  0  0  0
   21.6727  -21.2940  -12.5720 C   0  0  2  0  0  0  0  0  0  0  0  0
   22.9837  -21.7384  -12.1161 N   0  0  0  0  0  0  0  0  0  0  0  0
   21.0656  -20.4918  -11.5060 C   0  0  0  0  0  0  0  0  0  0  0  0
   20.3381  -19.4976  -11.8108 O   0  0  0  0  0  0  0  0  0  0  0  0
   21.2703  -20.8073  -10.1607 O   0  0  0  0  0  0  0  0  0  0  0  0
  2  1  1  0
  3  2  2  0
  4  2  1  0
  5  4  1  0
  6  8  1  0
  6  5  1  0
  6  7  1  6
  8  9  2  0
 10  8  1  0
 11 12  1  1
 11 10  1  0
 13 12  1  0
 13 14  2  0
 15 14  1  0
 16 15  1  0
 17 16  2  0
 18 17  1  0
 19 18  2  0
 19 20  1  0
 20 21  2  0
 21 16  1  0
 21 13  1  0
 22 11  1  0
 23 22  2  0
 25 26  1  0
 25 24  1  0
 26 27  1  0
 28 27  1  1
 28 30  1  0
 28 29  1  0
 29 22  1  0
 30 32  1  0
 31 30  2  0
M  END
$$$$
