QWM.pdb
     RDKit          3D

 32 33  0  0  1  0  0  0  0  0999 V2000
   30.4467  -22.5396  -16.3395 N   0  0  0  0  0  0  0  0  0  0  0  0
   29.8933  -22.4999  -17.6700 C   0  0  0  0  0  0  0  0  0  0  0  0
   30.3784  -23.1982  -18.5845 O   0  0  0  0  0  0  0  0  0  0  0  0
   28.7484  -21.6135  -17.8840 C   0  0  0  0  0  0  0  0  0  0  0  0
   28.3242  -20.8712  -16.6708 C   0  0  0  0  0  0  0  0  0  0  0  0
   27.7789  -21.6710  -15.5398 C   0  0  2  0  0  0  0  0  0  0  0  0
   26.9910  -22.8044  -15.8528 N   0  0  0  0  0  0  0  0  0  0  0  0
   27.0984  -20.8371  -14.5188 C   0  0  0  0  0  0  0  0  0  0  0  0
   27.4547  -19.6406  -14.3031 O   0  0  0  0  0  0  0  0  0  0  0  0
   26.0481  -21.3366  -13.7598 N   0  0  0  0  0  0  0  0  0  0  0  0
   25.2504  -20.4686  -12.8508 C   0  0  1  0  0  0  0  0  0  0  0  0
   23.8455  -20.8654  -13.0941 C   0  0  0  0  0  0  0  0  0  0  0  0
   23.0978  -20.0793  -14.0858 C   0  0  0  0  0  0  0  0  0  0  0  0
   23.6268  -19.3823  -15.1445 C   0  0  0  0  0  0  0  0  0  0  0  0
   22.6528  -18.7623  -15.8340 N   0  0  0  0  0  0  0  0  0  0  0  0
   21.4785  -19.0412  -15.2426 C   0  0  0  0  0  0  0  0  0  0  0  0
   20.2039  -18.6415  -15.5749 C   0  0  0  0  0  0  0  0  0  0  0  0
   19.1523  -19.0692  -14.7985 C   0  0  0  0  0  0  0  0  0  0  0  0
   19.3865  -19.8821  -13.7119 C   0  0  0  0  0  0  0  0  0  0  0  0
   20.6736  -20.2649  -13.4054 C   0  0  0  0  0  0  0  0  0  0  0  0
   21.7408  -19.8573  -14.1565 C   0  0  0  0  0  0  0  0  0  0  0  0
   25.6793  -20.8230  -11.4877 C   0  0  0  0  0  0  0  0  0  0  0  0
   25.6948  -22.0716  -11.1942 O   0  0  0  0  0  0  0  0  0  0  0  0
   28.9179  -19.5427   -4.5171 C   0  0  0  0  0  0  0  0  0  0  0  0
   28.5816  -18.7460   -6.1271 S   0  0  0  0  0  0  0  0  0  0  0  0
   27.4889  -19.8980   -7.0402 C   0  0  0  0  0  0  0  0  0  0  0  0
   27.2339  -19.4146   -8.4281 C   0  0  0  0  0  0  0  0  0  0  0  0
   26.3609  -20.3913   -9.1710 C   0  0  2  0  0  0  0  0  0  0  0  0
   26.0725  -19.8792  -10.5047 N   0  0  0  0  0  0  0  0  0  0  0  0
   25.0886  -20.5769   -8.4674 C   0  0  0  0  0  0  0  0  0  0  0  0
   24.0534  -19.9694   -8.8795 O   0  0  0  0  0  0  0  0  0  0  0  0
   24.9961  -21.4158   -7.3543 O   0  0  0  0  0  0  0  0  0  0  0  0
  2  1  1  0
  3  2  2  0
  4  2  1  0
  5  4  1  0
  6  8  1  0
  6  5  1  0
  6  7  1  6
  8  9  2  0
 10  8  1  0
 11 12  1  1
 11 10  1  0
 13 12  1  0
 13 14  2  0
 15 14  1  0
 16 15  1  0
 17 16  2  0
 18 17  1  0
 19 18  2  0
 19 20  1  0
 20 21  2  0
 21 16  1  0
 21 13  1  0
 22 11  1  0
 23 22  2  0
 25 26  1  0
 25 24  1  0
 26 27  1  0
 28 27  1  1
 28 30  1  0
 28 29  1  0
 29 22  1  0
 30 32  1  0
 31 30  2  0
M  END
$$$$
