RMN.pdb
     RDKit          3D

 28 27  0  0  1  0  0  0  0  0999 V2000
   29.3686  -25.8405  -18.1963 N   0  0  0  0  0  0  0  0  0  0  0  0
   28.4898  -26.4009  -17.2273 C   0  0  0  0  0  0  0  0  0  0  0  0
   28.7151  -27.5919  -16.7860 N   0  0  0  0  0  0  0  0  0  0  0  0
   27.3789  -25.6397  -16.7615 N   0  0  0  0  0  0  0  0  0  0  0  0
   27.1061  -24.3241  -17.2424 C   0  0  0  0  0  0  0  0  0  0  0  0
   28.0397  -23.2819  -16.6723 C   0  0  0  0  0  0  0  0  0  0  0  0
   27.7025  -23.1329  -15.1919 C   0  0  0  0  0  0  0  0  0  0  0  0
   26.5540  -22.1401  -15.1117 C   0  0  2  0  0  0  0  0  0  0  0  0
   27.1811  -20.8229  -15.2858 N   0  0  0  0  0  0  0  0  0  0  0  0
   25.8806  -22.1736  -13.7885 C   0  0  0  0  0  0  0  0  0  0  0  0
   25.5321  -23.2949  -13.2918 O   0  0  0  0  0  0  0  0  0  0  0  0
   28.0573  -28.0358  -16.1353 C   0  0  0  0  0  0  0  0  0  0  0  0
   27.9344  -20.3801   -8.1046 S   0  0  0  0  0  0  0  0  0  0  0  0
   26.3766  -19.4431   -8.2247 C   0  0  0  0  0  0  0  0  0  0  0  0
   25.2345  -20.3336   -9.3777 C   0  0  0  0  0  0  0  0  0  0  0  0
   25.8360  -20.3188  -10.7453 C   0  0  2  0  0  0  0  0  0  0  0  0
   24.9519  -21.0422  -11.7348 N   0  0  0  0  0  0  0  0  0  0  0  0
   25.6118  -20.9956  -13.0553 C   0  0  0  0  0  0  0  0  0  0  0  0
   23.6591  -20.3423  -11.8311 O   0  0  0  0  0  0  0  0  0  0  0  0
   22.9483  -20.3065  -10.7699 N   0  0  0  0  0  0  0  0  0  0  0  0
   22.4809  -19.9976  -16.1652 C   0  0  0  0  0  0  0  0  0  0  0  0
   22.2372  -21.3004  -15.6128 O   0  0  0  0  0  0  0  0  0  0  0  0
   22.3498  -22.2642  -16.3747 C   0  0  0  0  0  0  0  0  0  0  0  0
   21.8744  -21.3871  -14.1898 C   0  0  2  0  0  0  0  0  0  0  0  0
   21.8671  -20.0574  -13.5275 N   0  0  0  0  0  0  0  0  0  0  0  0
   23.2095  -19.7322  -13.0171 C   0  0  0  0  0  0  0  0  0  0  0  0
   20.9391  -20.0192  -12.3502 O   0  0  0  0  0  0  0  0  0  0  0  0
   19.7081  -20.1416  -12.4520 O   0  0  0  0  0  0  0  0  0  0  0  0
  2  1  1  0
  3  2  2  0
  4  2  1  0
  5  4  1  0
  6  5  1  0
  7  8  1  0
  7  6  1  0
  8 10  1  0
  8  9  1  1
 10 11  2  0
 12 13  1  0
 13 14  1  0
 15 14  1  0
 16 15  1  1
 17 16  1  0
 17 10  1  0
 18 19  2  0
 18 16  1  0
 20 21  1  0
 21 23  1  0
 21 22  2  0
 24 23  1  6
 24 25  1  0
 24 26  1  0
 25 18  1  0
 26 27  2  0
 26 28  1  0
M  END
$$$$
