RMN.pdb
     RDKit          3D

 28 27  0  0  1  0  0  0  0  0999 V2000
   28.8502  -18.1372  -19.2739 N   0  0  0  0  0  0  0  0  0  0  0  0
   30.0457  -17.9803  -18.5179 C   0  0  0  0  0  0  0  0  0  0  0  0
   31.0906  -17.4820  -19.0872 N   0  0  0  0  0  0  0  0  0  0  0  0
   30.0691  -18.3747  -17.1488 N   0  0  0  0  0  0  0  0  0  0  0  0
   28.8766  -18.6819  -16.4277 C   0  0  0  0  0  0  0  0  0  0  0  0
   28.3463  -20.0649  -16.7259 C   0  0  0  0  0  0  0  0  0  0  0  0
   27.8676  -20.6609  -15.4056 C   0  0  0  0  0  0  0  0  0  0  0  0
   26.3538  -20.5208  -15.3958 C   0  0  2  0  0  0  0  0  0  0  0  0
   26.1091  -19.0724  -15.3692 N   0  0  0  0  0  0  0  0  0  0  0  0
   25.7465  -21.1267  -14.1836 C   0  0  0  0  0  0  0  0  0  0  0  0
   25.8390  -22.3849  -13.9995 O   0  0  0  0  0  0  0  0  0  0  0  0
   31.9600  -17.3585  -18.5560 C   0  0  0  0  0  0  0  0  0  0  0  0
   25.6685  -20.6366   -7.4977 S   0  0  0  0  0  0  0  0  0  0  0  0
   26.5479  -19.8256   -8.8716 C   0  0  0  0  0  0  0  0  0  0  0  0
   26.1120  -20.6902  -10.4495 C   0  0  0  0  0  0  0  0  0  0  0  0
   24.7172  -20.3108  -10.8276 C   0  0  2  0  0  0  0  0  0  0  0  0
   24.3050  -20.9775  -12.1198 N   0  0  0  0  0  0  0  0  0  0  0  0
   25.0649  -20.3498  -13.2197 C   0  0  0  0  0  0  0  0  0  0  0  0
   22.8684  -20.7437  -12.3485 O   0  0  0  0  0  0  0  0  0  0  0  0
   22.5610  -20.0112  -13.3492 N   0  0  0  0  0  0  0  0  0  0  0  0
   17.7768  -19.8274  -11.5355 C   0  0  0  0  0  0  0  0  0  0  0  0
   18.8387  -19.2190  -12.2865 O   0  0  0  0  0  0  0  0  0  0  0  0
   18.5154  -18.4582  -13.2023 C   0  0  0  0  0  0  0  0  0  0  0  0
   20.2225  -19.5465  -11.9100 C   0  0  1  0  0  0  0  0  0  0  0  0
   20.4538  -21.0118  -11.8308 N   0  0  0  0  0  0  0  0  0  0  0  0
   21.8669  -21.2913  -11.5251 C   0  0  0  0  0  0  0  0  0  0  0  0
   20.1504  -21.7013  -13.1274 O   0  0  0  0  0  0  0  0  0  0  0  0
   20.8268  -21.5412  -14.1557 O   0  0  0  0  0  0  0  0  0  0  0  0
  2  1  1  0
  3  2  2  0
  4  2  1  0
  5  4  1  0
  6  5  1  0
  7  8  1  0
  7  6  1  0
  8 10  1  0
  8  9  1  1
 10 11  2  0
 12 13  1  0
 13 14  1  0
 15 14  1  0
 16 15  1  1
 17 16  1  0
 17 10  1  0
 18 19  2  0
 18 16  1  0
 20 21  1  0
 21 23  1  0
 21 22  2  0
 24 23  1  1
 24 25  1  0
 24 26  1  0
 25 18  1  0
 26 27  2  0
 26 28  1  0
M  END
$$$$
