RMN.pdb
     RDKit          3D

 28 27  0  0  1  0  0  0  0  0999 V2000
   20.5246  -28.8480  -11.4522 N   0  0  0  0  0  0  0  0  0  0  0  0
   20.0925  -27.9539  -12.4717 C   0  0  0  0  0  0  0  0  0  0  0  0
   20.7407  -27.9078  -13.5860 N   0  0  0  0  0  0  0  0  0  0  0  0
   18.9544  -27.1267  -12.2458 N   0  0  0  0  0  0  0  0  0  0  0  0
   18.3587  -26.9922  -10.9560 C   0  0  0  0  0  0  0  0  0  0  0  0
   19.3122  -26.4449   -9.9196 C   0  0  0  0  0  0  0  0  0  0  0  0
   18.5307  -26.2986   -8.6176 C   0  0  0  0  0  0  0  0  0  0  0  0
   17.9192  -24.9069   -8.6388 C   0  0  2  0  0  0  0  0  0  0  0  0
   19.0174  -24.0183   -9.0420 N   0  0  0  0  0  0  0  0  0  0  0  0
   17.4395  -24.4892   -7.2969 C   0  0  0  0  0  0  0  0  0  0  0  0
   18.2862  -24.2764   -6.3677 O   0  0  0  0  0  0  0  0  0  0  0  0
   20.4697  -27.2384  -14.3151 C   0  0  0  0  0  0  0  0  0  0  0  0
   11.4968  -22.0639   -4.8765 S   0  0  0  0  0  0  0  0  0  0  0  0
   12.3258  -21.6315   -6.4400 C   0  0  0  0  0  0  0  0  0  0  0  0
   14.1017  -22.1430   -6.3327 C   0  0  0  0  0  0  0  0  0  0  0  0
   14.1642  -23.5182   -5.7520 C   0  0  2  0  0  0  0  0  0  0  0  0
   15.5930  -23.9999   -5.6503 N   0  0  0  0  0  0  0  0  0  0  0  0
   16.0656  -24.3174   -7.0130 C   0  0  0  0  0  0  0  0  0  0  0  0
   15.6328  -25.2304   -4.8410 O   0  0  0  0  0  0  0  0  0  0  0  0
   15.9570  -26.3052   -5.4510 N   0  0  0  0  0  0  0  0  0  0  0  0
   17.2560  -27.8421   -0.8222 C   0  0  0  0  0  0  0  0  0  0  0  0
   18.0916  -26.9865   -1.6168 O   0  0  0  0  0  0  0  0  0  0  0  0
   19.3091  -27.0594   -1.4310 C   0  0  0  0  0  0  0  0  0  0  0  0
   17.4376  -26.0936   -2.5859 C   0  0  1  0  0  0  0  0  0  0  0  0
   15.9627  -26.2698   -2.6091 N   0  0  0  0  0  0  0  0  0  0  0  0
   15.3383  -25.2469   -3.4647 C   0  0  0  0  0  0  0  0  0  0  0  0
   15.3555  -26.1188   -1.2463 O   0  0  0  0  0  0  0  0  0  0  0  0
   15.1248  -25.0164   -0.7245 O   0  0  0  0  0  0  0  0  0  0  0  0
  2  1  1  0
  3  2  2  0
  4  2  1  0
  5  4  1  0
  6  5  1  0
  7  8  1  0
  7  6  1  0
  8 10  1  0
  8  9  1  1
 10 11  2  0
 12 13  1  0
 13 14  1  0
 15 14  1  0
 16 15  1  6
 17 16  1  0
 17 10  1  0
 18 19  2  0
 18 16  1  0
 20 21  1  0
 21 23  1  0
 21 22  2  0
 24 23  1  6
 24 25  1  0
 24 26  1  0
 25 18  1  0
 26 27  2  0
 26 28  1  0
M  END
$$$$
