RMN.pdb
     RDKit          3D

 28 27  0  0  1  0  0  0  0  0999 V2000
   30.2444  -21.9599  -18.7621 N   0  0  0  0  0  0  0  0  0  0  0  0
   29.4464  -21.7102  -19.9137 C   0  0  0  0  0  0  0  0  0  0  0  0
   30.0241  -21.5074  -21.0491 N   0  0  0  0  0  0  0  0  0  0  0  0
   28.0265  -21.6883  -19.7943 N   0  0  0  0  0  0  0  0  0  0  0  0
   27.3715  -21.7246  -18.5270 C   0  0  0  0  0  0  0  0  0  0  0  0
   28.3047  -22.0693  -17.3899 C   0  0  0  0  0  0  0  0  0  0  0  0
   27.4469  -22.5979  -16.2444 C   0  0  0  0  0  0  0  0  0  0  0  0
   26.7372  -21.3925  -15.6488 C   0  0  2  0  0  0  0  0  0  0  0  0
   27.8097  -20.5692  -15.0741 N   0  0  0  0  0  0  0  0  0  0  0  0
   25.8015  -21.7783  -14.5621 C   0  0  0  0  0  0  0  0  0  0  0  0
   25.0430  -22.7910  -14.7194 O   0  0  0  0  0  0  0  0  0  0  0  0
   29.4651  -21.3024  -21.8849 C   0  0  0  0  0  0  0  0  0  0  0  0
   26.6349  -20.4893   -8.3538 S   0  0  0  0  0  0  0  0  0  0  0  0
   24.8194  -20.3389   -8.3506 C   0  0  0  0  0  0  0  0  0  0  0  0
   24.1622  -21.0373   -9.9341 C   0  0  0  0  0  0  0  0  0  0  0  0
   25.1491  -20.7580  -11.0205 C   0  0  2  0  0  0  0  0  0  0  0  0
   24.7038  -21.3701  -12.3286 N   0  0  0  0  0  0  0  0  0  0  0  0
   25.7233  -21.0558  -13.3499 C   0  0  0  0  0  0  0  0  0  0  0  0
   23.4260  -20.7615  -12.7379 O   0  0  0  0  0  0  0  0  0  0  0  0
   23.4760  -19.5557  -13.1577 N   0  0  0  0  0  0  0  0  0  0  0  0
   17.8591  -22.2180  -12.6254 C   0  0  0  0  0  0  0  0  0  0  0  0
   19.2703  -22.4776  -12.6782 O   0  0  0  0  0  0  0  0  0  0  0  0
   19.7358  -23.2318  -11.8198 C   0  0  0  0  0  0  0  0  0  0  0  0
   20.0494  -21.8294  -13.7444 C   0  0  1  0  0  0  0  0  0  0  0  0
   20.9887  -20.8074  -13.2150 N   0  0  0  0  0  0  0  0  0  0  0  0
   22.2011  -21.4525  -12.6837 C   0  0  0  0  0  0  0  0  0  0  0  0
   20.3900  -20.0227  -12.0860 O   0  0  0  0  0  0  0  0  0  0  0  0
   20.7126  -20.1876  -10.8988 O   0  0  0  0  0  0  0  0  0  0  0  0
  2  1  1  0
  3  2  2  0
  4  2  1  0
  5  4  1  0
  6  5  1  0
  7  8  1  0
  7  6  1  0
  8 10  1  0
  8  9  1  1
 10 11  2  0
 12 13  1  0
 13 14  1  0
 15 14  1  0
 16 15  1  1
 17 16  1  0
 17 10  1  0
 18 19  2  0
 18 16  1  0
 20 21  1  0
 21 23  1  0
 21 22  2  0
 24 23  1  6
 24 25  1  0
 24 26  1  0
 25 18  1  0
 26 27  2  0
 26 28  1  0
M  END
$$$$
