RMN.pdb
     RDKit          3D

 28 27  0  0  1  0  0  0  0  0999 V2000
   17.8936  -24.9360   -6.9612 N   0  0  0  0  0  0  0  0  0  0  0  0
   18.3679  -25.8732   -7.9215 C   0  0  0  0  0  0  0  0  0  0  0  0
   18.8868  -26.9827   -7.5167 N   0  0  0  0  0  0  0  0  0  0  0  0
   18.2623  -25.5719   -9.3103 N   0  0  0  0  0  0  0  0  0  0  0  0
   18.7570  -24.3520   -9.8613 C   0  0  0  0  0  0  0  0  0  0  0  0
   17.8965  -23.1580   -9.5192 C   0  0  0  0  0  0  0  0  0  0  0  0
   17.9100  -22.2285  -10.7289 C   0  0  0  0  0  0  0  0  0  0  0  0
   19.3426  -21.7424  -10.8799 C   0  0  2  0  0  0  0  0  0  0  0  0
   19.6699  -21.1254   -9.5874 N   0  0  0  0  0  0  0  0  0  0  0  0
   19.4721  -20.7136  -11.9430 C   0  0  0  0  0  0  0  0  0  0  0  0
   18.9872  -19.5503  -11.7505 O   0  0  0  0  0  0  0  0  0  0  0  0
   19.2588  -27.6577   -8.1943 C   0  0  0  0  0  0  0  0  0  0  0  0
   24.5065  -19.3916  -15.5035 S   0  0  0  0  0  0  0  0  0  0  0  0
   23.2837  -19.3189  -16.8520 C   0  0  0  0  0  0  0  0  0  0  0  0
   21.5923  -19.1746  -16.1136 C   0  0  0  0  0  0  0  0  0  0  0  0
   21.4984  -20.1160  -14.9572 C   0  0  1  0  0  0  0  0  0  0  0  0
   20.1681  -19.9797  -14.2531 N   0  0  0  0  0  0  0  0  0  0  0  0
   20.1204  -20.9823  -13.1698 C   0  0  0  0  0  0  0  0  0  0  0  0
   19.0834  -20.2678  -15.2075 O   0  0  0  0  0  0  0  0  0  0  0  0
   18.5512  -21.4271  -15.1347 N   0  0  0  0  0  0  0  0  0  0  0  0
   14.9672  -19.8831  -18.0752 C   0  0  0  0  0  0  0  0  0  0  0  0
   14.9644  -19.9010  -16.6394 O   0  0  0  0  0  0  0  0  0  0  0  0
   13.8712  -20.0232  -16.0808 C   0  0  0  0  0  0  0  0  0  0  0  0
   16.2563  -19.7733  -15.9475 C   0  0  1  0  0  0  0  0  0  0  0  0
   17.3877  -19.5953  -16.8936 N   0  0  0  0  0  0  0  0  0  0  0  0
   18.6346  -19.3302  -16.1566 C   0  0  0  0  0  0  0  0  0  0  0  0
   17.1759  -18.4293  -17.8126 O   0  0  0  0  0  0  0  0  0  0  0  0
   16.7258  -18.5454  -18.9635 O   0  0  0  0  0  0  0  0  0  0  0  0
  2  1  1  0
  3  2  2  0
  4  2  1  0
  5  4  1  0
  6  5  1  0
  7  8  1  0
  7  6  1  0
  8 10  1  0
  8  9  1  1
 10 11  2  0
 12 13  1  0
 13 14  1  0
 15 14  1  0
 16 15  1  1
 17 16  1  0
 17 10  1  0
 18 19  2  0
 18 16  1  0
 20 21  1  0
 21 23  1  0
 21 22  2  0
 24 23  1  1
 24 25  1  0
 24 26  1  0
 25 18  1  0
 26 27  2  0
 26 28  1  0
M  END
$$$$
