RMN.pdb
     RDKit          3D

 28 27  0  0  1  0  0  0  0  0999 V2000
   27.6582  -23.8931  -22.1148 N   0  0  0  0  0  0  0  0  0  0  0  0
   26.3768  -23.2791  -22.1954 C   0  0  0  0  0  0  0  0  0  0  0  0
   25.6084  -23.5529  -23.1947 N   0  0  0  0  0  0  0  0  0  0  0  0
   25.9647  -22.3747  -21.1742 N   0  0  0  0  0  0  0  0  0  0  0  0
   26.3418  -22.5495  -19.8091 C   0  0  0  0  0  0  0  0  0  0  0  0
   26.4136  -24.0016  -19.3978 C   0  0  0  0  0  0  0  0  0  0  0  0
   25.7122  -24.1254  -18.0487 C   0  0  0  0  0  0  0  0  0  0  0  0
   26.5270  -23.3011  -17.0648 C   0  0  2  0  0  0  0  0  0  0  0  0
   27.8393  -23.9597  -17.0167 N   0  0  0  0  0  0  0  0  0  0  0  0
   25.9374  -23.3184  -15.7019 C   0  0  0  0  0  0  0  0  0  0  0  0
   25.7458  -24.4350  -15.1170 O   0  0  0  0  0  0  0  0  0  0  0  0
   24.6956  -23.0931  -23.2868 C   0  0  0  0  0  0  0  0  0  0  0  0
   25.6293  -19.9478   -8.7147 S   0  0  0  0  0  0  0  0  0  0  0  0
   26.1714  -19.8795  -10.4526 C   0  0  0  0  0  0  0  0  0  0  0  0
   25.2161  -21.1335  -11.4232 C   0  0  0  0  0  0  0  0  0  0  0  0
   25.7409  -21.1497  -12.8220 C   0  0  2  0  0  0  0  0  0  0  0  0
   24.9997  -22.1592  -13.6679 N   0  0  0  0  0  0  0  0  0  0  0  0
   25.5794  -22.1299  -15.0260 C   0  0  0  0  0  0  0  0  0  0  0  0
   23.5813  -21.7704  -13.7544 O   0  0  0  0  0  0  0  0  0  0  0  0
   23.2974  -20.8205  -14.5605 N   0  0  0  0  0  0  0  0  0  0  0  0
   19.8980  -23.3003  -15.1323 C   0  0  0  0  0  0  0  0  0  0  0  0
   19.6055  -23.7314  -13.7942 O   0  0  0  0  0  0  0  0  0  0  0  0
   18.8351  -24.6866  -13.6671 C   0  0  0  0  0  0  0  0  0  0  0  0
   20.2420  -23.0067  -12.6836 C   0  0  2  0  0  0  0  0  0  0  0  0
   21.1768  -21.9544  -13.1588 N   0  0  0  0  0  0  0  0  0  0  0  0
   22.5715  -22.4000  -13.0027 C   0  0  0  0  0  0  0  0  0  0  0  0
   21.0414  -20.6839  -12.3738 O   0  0  0  0  0  0  0  0  0  0  0  0
   21.8686  -20.3207  -11.5226 O   0  0  0  0  0  0  0  0  0  0  0  0
  2  1  1  0
  3  2  2  0
  4  2  1  0
  5  4  1  0
  6  5  1  0
  7  8  1  0
  7  6  1  0
  8 10  1  0
  8  9  1  1
 10 11  2  0
 12 13  1  0
 13 14  1  0
 15 14  1  0
 16 15  1  1
 17 16  1  0
 17 10  1  0
 18 19  2  0
 18 16  1  0
 20 21  1  0
 21 23  1  0
 21 22  2  0
 24 23  1  6
 24 25  1  0
 24 26  1  0
 25 18  1  0
 26 27  2  0
 26 28  1  0
M  END
$$$$
