RMN.pdb
     RDKit          3D

 28 27  0  0  1  0  0  0  0  0999 V2000
   30.6154  -24.1329  -16.4499 N   0  0  0  0  0  0  0  0  0  0  0  0
   30.6124  -23.5547  -17.7503 C   0  0  0  0  0  0  0  0  0  0  0  0
   31.3946  -24.0362  -18.6561 N   0  0  0  0  0  0  0  0  0  0  0  0
   29.7482  -22.4566  -18.0299 N   0  0  0  0  0  0  0  0  0  0  0  0
   28.8875  -21.8975  -17.0384 C   0  0  0  0  0  0  0  0  0  0  0  0
   29.6103  -20.9830  -16.0771 C   0  0  0  0  0  0  0  0  0  0  0  0
   28.9850  -21.1875  -14.7006 C   0  0  0  0  0  0  0  0  0  0  0  0
   27.5788  -20.6152  -14.7794 C   0  0  2  0  0  0  0  0  0  0  0  0
   27.7405  -19.1790  -14.5157 N   0  0  0  0  0  0  0  0  0  0  0  0
   26.6849  -21.1900  -13.7421 C   0  0  0  0  0  0  0  0  0  0  0  0
   26.2782  -22.3923  -13.8628 O   0  0  0  0  0  0  0  0  0  0  0  0
   31.4071  -23.6297  -19.5983 C   0  0  0  0  0  0  0  0  0  0  0  0
   26.1485  -19.8293   -7.4530 S   0  0  0  0  0  0  0  0  0  0  0  0
   27.2134  -21.1919   -8.0257 C   0  0  0  0  0  0  0  0  0  0  0  0
   26.6839  -21.6845   -9.7298 C   0  0  0  0  0  0  0  0  0  0  0  0
   25.7612  -20.6360  -10.2606 C   0  0  2  0  0  0  0  0  0  0  0  0
   25.2876  -20.9844  -11.6528 N   0  0  0  0  0  0  0  0  0  0  0  0
   26.2673  -20.4439  -12.6167 C   0  0  0  0  0  0  0  0  0  0  0  0
   23.9850  -20.3406  -11.8965 O   0  0  0  0  0  0  0  0  0  0  0  0
   24.0132  -19.1277  -12.2973 N   0  0  0  0  0  0  0  0  0  0  0  0
   20.6627  -20.3718  -16.1089 C   0  0  0  0  0  0  0  0  0  0  0  0
   20.6287  -20.1934  -14.6845 O   0  0  0  0  0  0  0  0  0  0  0  0
   19.6130  -19.6820  -14.2061 C   0  0  0  0  0  0  0  0  0  0  0  0
   21.7992  -20.6309  -13.9084 C   0  0  2  0  0  0  0  0  0  0  0  0
   21.5702  -20.5411  -12.4433 N   0  0  0  0  0  0  0  0  0  0  0  0
   22.7592  -21.0065  -11.7098 C   0  0  0  0  0  0  0  0  0  0  0  0
   20.4263  -21.4024  -11.9978 O   0  0  0  0  0  0  0  0  0  0  0  0
   20.4335  -22.6403  -12.0880 O   0  0  0  0  0  0  0  0  0  0  0  0
  2  1  1  0
  3  2  2  0
  4  2  1  0
  5  4  1  0
  6  5  1  0
  7  8  1  0
  7  6  1  0
  8 10  1  0
  8  9  1  1
 10 11  2  0
 12 13  1  0
 13 14  1  0
 15 14  1  0
 16 15  1  1
 17 16  1  0
 17 10  1  0
 18 19  2  0
 18 16  1  0
 20 21  1  0
 21 23  1  0
 21 22  2  0
 24 23  1  6
 24 25  1  0
 24 26  1  0
 25 18  1  0
 26 27  2  0
 26 28  1  0
M  END
$$$$
