RMN.pdb
     RDKit          3D

 28 27  0  0  1  0  0  0  0  0999 V2000
   29.9809  -22.0821  -17.1192 N   0  0  0  0  0  0  0  0  0  0  0  0
   30.1409  -20.8519  -17.8167 C   0  0  0  0  0  0  0  0  0  0  0  0
   30.5894  -20.8667  -19.0261 N   0  0  0  0  0  0  0  0  0  0  0  0
   29.8041  -19.6277  -17.1698 N   0  0  0  0  0  0  0  0  0  0  0  0
   28.8267  -19.5622  -16.1321 C   0  0  0  0  0  0  0  0  0  0  0  0
   27.4164  -19.7617  -16.6361 C   0  0  0  0  0  0  0  0  0  0  0  0
   26.5109  -19.8787  -15.4139 C   0  0  0  0  0  0  0  0  0  0  0  0
   26.9831  -21.1031  -14.6463 C   0  0  2  0  0  0  0  0  0  0  0  0
   26.9619  -22.1955  -15.6284 N   0  0  0  0  0  0  0  0  0  0  0  0
   26.0649  -21.4496  -13.5317 C   0  0  0  0  0  0  0  0  0  0  0  0
   25.1466  -22.3131  -13.7227 O   0  0  0  0  0  0  0  0  0  0  0  0
   30.8419  -19.9895  -19.4951 C   0  0  0  0  0  0  0  0  0  0  0  0
   28.7533  -20.4497   -7.2153 S   0  0  0  0  0  0  0  0  0  0  0  0
   27.1851  -19.8179   -7.8939 C   0  0  0  0  0  0  0  0  0  0  0  0
   26.7423  -20.8116   -9.3918 C   0  0  0  0  0  0  0  0  0  0  0  0
   25.5271  -20.2085  -10.0179 C   0  0  2  0  0  0  0  0  0  0  0  0
   25.1077  -20.9839  -11.2455 N   0  0  0  0  0  0  0  0  0  0  0  0
   26.1759  -20.8503  -12.2566 C   0  0  0  0  0  0  0  0  0  0  0  0
   23.8705  -20.3973  -11.7894 O   0  0  0  0  0  0  0  0  0  0  0  0
   23.9902  -19.6901  -12.8468 N   0  0  0  0  0  0  0  0  0  0  0  0
   20.3779  -21.2590  -15.3851 C   0  0  0  0  0  0  0  0  0  0  0  0
   20.2064  -21.3792  -13.9645 O   0  0  0  0  0  0  0  0  0  0  0  0
   19.0490  -21.4129  -13.5388 C   0  0  0  0  0  0  0  0  0  0  0  0
   21.4153  -21.4525  -13.1296 C   0  0  1  0  0  0  0  0  0  0  0  0
   21.3984  -20.4604  -12.0240 N   0  0  0  0  0  0  0  0  0  0  0  0
   22.6091  -20.5948  -11.1968 C   0  0  0  0  0  0  0  0  0  0  0  0
   20.2280  -20.6579  -11.1075 O   0  0  0  0  0  0  0  0  0  0  0  0
   20.1543  -21.5909  -10.2922 O   0  0  0  0  0  0  0  0  0  0  0  0
  2  1  1  0
  3  2  2  0
  4  2  1  0
  5  4  1  0
  6  5  1  0
  7  8  1  0
  7  6  1  0
  8 10  1  0
  8  9  1  6
 10 11  2  0
 12 13  1  0
 13 14  1  0
 15 14  1  0
 16 15  1  1
 17 16  1  0
 17 10  1  0
 18 19  2  0
 18 16  1  0
 20 21  1  0
 21 23  1  0
 21 22  2  0
 24 23  1  6
 24 25  1  0
 24 26  1  0
 25 18  1  0
 26 27  2  0
 26 28  1  0
M  END
$$$$
