RMN.pdb
     RDKit          3D

 28 27  0  0  1  0  0  0  0  0999 V2000
   24.9529  -24.9839  -15.5945 N   0  0  0  0  0  0  0  0  0  0  0  0
   24.5192  -24.2876  -14.4316 C   0  0  0  0  0  0  0  0  0  0  0  0
   25.2366  -23.3187  -13.9728 N   0  0  0  0  0  0  0  0  0  0  0  0
   23.3033  -24.6708  -13.7948 N   0  0  0  0  0  0  0  0  0  0  0  0
   22.4502  -25.6797  -14.3339 C   0  0  0  0  0  0  0  0  0  0  0  0
   20.9927  -25.2812  -14.3356 C   0  0  0  0  0  0  0  0  0  0  0  0
   20.6060  -24.9718  -12.8927 C   0  0  0  0  0  0  0  0  0  0  0  0
   20.1811  -26.2921  -12.2703 C   0  0  2  0  0  0  0  0  0  0  0  0
   19.9459  -27.1883  -13.4104 N   0  0  0  0  0  0  0  0  0  0  0  0
   18.9181  -26.1634  -11.4998 C   0  0  0  0  0  0  0  0  0  0  0  0
   17.8056  -26.3930  -12.0787 O   0  0  0  0  0  0  0  0  0  0  0  0
   24.9807  -22.8569  -13.0928 C   0  0  0  0  0  0  0  0  0  0  0  0
   19.0159  -25.6760   -5.1588 S   0  0  0  0  0  0  0  0  0  0  0  0
   17.2263  -25.9895   -5.2915 C   0  0  0  0  0  0  0  0  0  0  0  0
   16.7378  -25.9010   -7.0750 C   0  0  0  0  0  0  0  0  0  0  0  0
   17.9797  -25.8585   -7.9046 C   0  0  2  0  0  0  0  0  0  0  0  0
   17.6478  -25.7017   -9.3706 N   0  0  0  0  0  0  0  0  0  0  0  0
   18.9077  -25.7928  -10.1359 C   0  0  0  0  0  0  0  0  0  0  0  0
   17.0581  -24.3702   -9.5939 O   0  0  0  0  0  0  0  0  0  0  0  0
   17.8766  -23.4041   -9.7647 N   0  0  0  0  0  0  0  0  0  0  0  0
   14.0844  -21.0040  -12.8856 C   0  0  0  0  0  0  0  0  0  0  0  0
   13.7958  -21.5706  -11.5982 O   0  0  0  0  0  0  0  0  0  0  0  0
   13.0435  -20.9312  -10.8584 C   0  0  0  0  0  0  0  0  0  0  0  0
   14.4144  -22.8619  -11.2607 C   0  0  1  0  0  0  0  0  0  0  0  0
   15.1634  -22.8106   -9.9788 N   0  0  0  0  0  0  0  0  0  0  0  0
   15.6686  -24.1482   -9.6270 C   0  0  0  0  0  0  0  0  0  0  0  0
   14.2982  -22.3646   -8.8380 O   0  0  0  0  0  0  0  0  0  0  0  0
   14.0276  -21.1736   -8.6167 O   0  0  0  0  0  0  0  0  0  0  0  0
  2  1  1  0
  3  2  2  0
  4  2  1  0
  5  4  1  0
  6  5  1  0
  7  8  1  0
  7  6  1  0
  8 10  1  0
  8  9  1  6
 10 11  2  0
 12 13  1  0
 13 14  1  0
 15 14  1  0
 16 15  1  6
 17 16  1  0
 17 10  1  0
 18 19  2  0
 18 16  1  0
 20 21  1  0
 21 23  1  0
 21 22  2  0
 24 23  1  6
 24 25  1  0
 24 26  1  0
 25 18  1  0
 26 27  2  0
 26 28  1  0
M  END
$$$$
