RMN.pdb
     RDKit          3D

 28 27  0  0  1  0  0  0  0  0999 V2000
   18.9915  -21.5871  -12.0426 N   0  0  0  0  0  0  0  0  0  0  0  0
   19.6375  -22.6462  -12.7399 C   0  0  0  0  0  0  0  0  0  0  0  0
   18.9285  -23.4620  -13.4442 N   0  0  0  0  0  0  0  0  0  0  0  0
   21.0525  -22.7880  -12.6493 N   0  0  0  0  0  0  0  0  0  0  0  0
   21.8736  -21.8086  -12.0146 C   0  0  0  0  0  0  0  0  0  0  0  0
   22.6774  -20.9869  -12.9952 C   0  0  0  0  0  0  0  0  0  0  0  0
   23.5128  -20.0020  -12.1831 C   0  0  0  0  0  0  0  0  0  0  0  0
   24.5998  -20.8198  -11.5042 C   0  0  2  0  0  0  0  0  0  0  0  0
   24.3591  -20.6467  -10.0653 N   0  0  0  0  0  0  0  0  0  0  0  0
   25.9588  -20.3123  -11.8222 C   0  0  0  0  0  0  0  0  0  0  0  0
   26.3265  -19.1799  -11.3663 O   0  0  0  0  0  0  0  0  0  0  0  0
   17.9037  -23.4238  -13.4047 C   0  0  0  0  0  0  0  0  0  0  0  0
   31.3532  -22.9704  -11.3725 S   0  0  0  0  0  0  0  0  0  0  0  0
   30.8625  -21.6120  -10.2622 C   0  0  0  0  0  0  0  0  0  0  0  0
   29.4152  -20.7294  -11.0061 C   0  0  0  0  0  0  0  0  0  0  0  0
   29.2722  -21.1683  -12.4271 C   0  0  2  0  0  0  0  0  0  0  0  0
   28.1263  -20.4518  -13.1036 N   0  0  0  0  0  0  0  0  0  0  0  0
   26.8653  -21.0482  -12.6185 C   0  0  0  0  0  0  0  0  0  0  0  0
   28.2156  -20.6619  -14.5592 O   0  0  0  0  0  0  0  0  0  0  0  0
   27.6970  -21.7375  -15.0141 N   0  0  0  0  0  0  0  0  0  0  0  0
   30.0834  -19.9622  -19.2817 C   0  0  0  0  0  0  0  0  0  0  0  0
   30.3561  -21.1110  -18.4644 O   0  0  0  0  0  0  0  0  0  0  0  0
   31.1506  -21.9426  -18.9106 C   0  0  0  0  0  0  0  0  0  0  0  0
   29.6724  -21.2089  -17.1656 C   0  0  2  0  0  0  0  0  0  0  0  0
   28.8433  -20.0114  -16.8729 N   0  0  0  0  0  0  0  0  0  0  0  0
   28.8304  -19.7389  -15.4258 C   0  0  0  0  0  0  0  0  0  0  0  0
   27.4145  -20.2001  -17.2871 O   0  0  0  0  0  0  0  0  0  0  0  0
   27.0414  -21.1126  -18.0413 O   0  0  0  0  0  0  0  0  0  0  0  0
  2  1  1  0
  3  2  2  0
  4  2  1  0
  5  4  1  0
  6  5  1  0
  7  8  1  0
  7  6  1  0
  8 10  1  0
  8  9  1  1
 10 11  2  0
 12 13  1  0
 13 14  1  0
 15 14  1  0
 16 15  1  1
 17 16  1  0
 17 10  1  0
 18 19  2  0
 18 16  1  0
 20 21  1  0
 21 23  1  0
 21 22  2  0
 24 23  1  6
 24 25  1  0
 24 26  1  0
 25 18  1  0
 26 27  2  0
 26 28  1  0
M  END
$$$$
