RMN.pdb
     RDKit          3D

 28 27  0  0  1  0  0  0  0  0999 V2000
   14.3337  -13.7308  -16.0074 N   0  0  0  0  0  0  0  0  0  0  0  0
   14.5204  -13.7014  -17.4180 C   0  0  0  0  0  0  0  0  0  0  0  0
   13.5992  -14.1765  -18.1859 N   0  0  0  0  0  0  0  0  0  0  0  0
   15.7182  -13.1492  -17.9576 N   0  0  0  0  0  0  0  0  0  0  0  0
   16.6018  -12.3458  -17.1765 C   0  0  0  0  0  0  0  0  0  0  0  0
   17.8259  -11.8998  -17.9417 C   0  0  0  0  0  0  0  0  0  0  0  0
   18.6619  -11.0408  -16.9980 C   0  0  0  0  0  0  0  0  0  0  0  0
   20.0101  -11.7316  -16.8705 C   0  0  2  0  0  0  0  0  0  0  0  0
   19.7239  -12.9917  -16.1716 N   0  0  0  0  0  0  0  0  0  0  0  0
   20.9652  -10.9419  -16.0523 C   0  0  0  0  0  0  0  0  0  0  0  0
   20.7442  -10.7889  -14.8060 O   0  0  0  0  0  0  0  0  0  0  0  0
   13.6992  -14.1268  -19.2060 C   0  0  0  0  0  0  0  0  0  0  0  0
   27.0629  -11.7467  -15.3888 S   0  0  0  0  0  0  0  0  0  0  0  0
   27.1446   -9.9468  -15.6579 C   0  0  0  0  0  0  0  0  0  0  0  0
   25.4701   -9.2221  -15.3448 C   0  0  0  0  0  0  0  0  0  0  0  0
   24.4608  -10.0132  -16.1115 C   0  0  1  0  0  0  0  0  0  0  0  0
   23.0563   -9.5565  -15.7913 N   0  0  0  0  0  0  0  0  0  0  0  0
   22.1200  -10.3502  -16.6126 C   0  0  0  0  0  0  0  0  0  0  0  0
   22.9137   -8.1364  -16.1568 O   0  0  0  0  0  0  0  0  0  0  0  0
   23.1629   -7.8315  -17.3723 N   0  0  0  0  0  0  0  0  0  0  0  0
   21.4508   -5.2231  -18.1774 C   0  0  0  0  0  0  0  0  0  0  0  0
   20.5105   -5.0436  -17.1071 O   0  0  0  0  0  0  0  0  0  0  0  0
   19.3875   -4.6312  -17.4086 C   0  0  0  0  0  0  0  0  0  0  0  0
   20.9540   -5.3628  -15.7413 C   0  0  2  0  0  0  0  0  0  0  0  0
   22.3861   -5.7543  -15.6902 N   0  0  0  0  0  0  0  0  0  0  0  0
   22.5200   -7.1483  -15.2350 C   0  0  0  0  0  0  0  0  0  0  0  0
   23.1670   -4.9111  -14.7269 O   0  0  0  0  0  0  0  0  0  0  0  0
   23.2352   -5.1554  -13.5118 O   0  0  0  0  0  0  0  0  0  0  0  0
  2  1  1  0
  3  2  2  0
  4  2  1  0
  5  4  1  0
  6  5  1  0
  7  8  1  0
  7  6  1  0
  8 10  1  0
  8  9  1  1
 10 11  2  0
 12 13  1  0
 13 14  1  0
 15 14  1  0
 16 15  1  1
 17 16  1  0
 17 10  1  0
 18 19  2  0
 18 16  1  0
 20 21  1  0
 21 23  1  0
 21 22  2  0
 24 23  1  6
 24 25  1  0
 24 26  1  0
 25 18  1  0
 26 27  2  0
 26 28  1  0
M  END
$$$$
