RMN.pdb
     RDKit          3D

 28 27  0  0  1  0  0  0  0  0999 V2000
   29.1939  -19.4152  -19.1055 N   0  0  0  0  0  0  0  0  0  0  0  0
   29.9318  -20.6031  -19.3694 C   0  0  0  0  0  0  0  0  0  0  0  0
   30.8237  -20.5973  -20.3013 N   0  0  0  0  0  0  0  0  0  0  0  0
   29.6743  -21.7761  -18.6022 N   0  0  0  0  0  0  0  0  0  0  0  0
   28.5387  -21.8876  -17.7453 C   0  0  0  0  0  0  0  0  0  0  0  0
   28.8358  -21.4936  -16.3172 C   0  0  0  0  0  0  0  0  0  0  0  0
   27.9292  -22.3293  -15.4188 C   0  0  0  0  0  0  0  0  0  0  0  0
   26.5266  -21.7661  -15.5824 C   0  0  2  0  0  0  0  0  0  0  0  0
   26.7182  -20.3191  -15.7490 N   0  0  0  0  0  0  0  0  0  0  0  0
   25.6896  -21.9981  -14.3778 C   0  0  0  0  0  0  0  0  0  0  0  0
   25.4413  -23.1929  -14.0089 O   0  0  0  0  0  0  0  0  0  0  0  0
   31.3305  -21.4577  -20.5380 C   0  0  0  0  0  0  0  0  0  0  0  0
   25.2502  -19.8683   -8.2698 S   0  0  0  0  0  0  0  0  0  0  0  0
   26.6544  -20.5147   -9.2338 C   0  0  0  0  0  0  0  0  0  0  0  0
   26.0016  -21.3276  -10.7635 C   0  0  0  0  0  0  0  0  0  0  0  0
   24.8325  -20.5388  -11.2569 C   0  0  2  0  0  0  0  0  0  0  0  0
   24.2336  -21.1712  -12.4920 N   0  0  0  0  0  0  0  0  0  0  0  0
   25.1557  -20.9309  -13.6204 C   0  0  0  0  0  0  0  0  0  0  0  0
   22.9454  -20.5223  -12.7921 O   0  0  0  0  0  0  0  0  0  0  0  0
   22.9973  -19.4188  -13.4341 N   0  0  0  0  0  0  0  0  0  0  0  0
   21.4473  -20.7715  -16.9580 C   0  0  0  0  0  0  0  0  0  0  0  0
   20.7388  -20.5381  -15.7311 O   0  0  0  0  0  0  0  0  0  0  0  0
   20.0444  -19.5203  -15.6678 C   0  0  0  0  0  0  0  0  0  0  0  0
   20.8932  -21.5231  -14.6496 C   0  0  2  0  0  0  0  0  0  0  0  0
   20.5568  -20.9564  -13.3182 N   0  0  0  0  0  0  0  0  0  0  0  0
   21.7079  -21.0714  -12.4071 C   0  0  0  0  0  0  0  0  0  0  0  0
   19.4191  -21.6844  -12.6668 O   0  0  0  0  0  0  0  0  0  0  0  0
   19.5584  -22.7602  -12.0635 O   0  0  0  0  0  0  0  0  0  0  0  0
  2  1  1  0
  3  2  2  0
  4  2  1  0
  5  4  1  0
  6  5  1  0
  7  8  1  0
  7  6  1  0
  8 10  1  0
  8  9  1  1
 10 11  2  0
 12 13  1  0
 13 14  1  0
 15 14  1  0
 16 15  1  1
 17 16  1  0
 17 10  1  0
 18 19  2  0
 18 16  1  0
 20 21  1  0
 21 23  1  0
 21 22  2  0
 24 23  1  6
 24 25  1  0
 24 26  1  0
 25 18  1  0
 26 27  2  0
 26 28  1  0
M  END
$$$$
