RMN.pdb
     RDKit          3D

 28 27  0  0  1  0  0  0  0  0999 V2000
   28.5949  -21.3812  -17.6883 N   0  0  0  0  0  0  0  0  0  0  0  0
   28.4524  -19.9913  -17.9587 C   0  0  0  0  0  0  0  0  0  0  0  0
   27.9596  -19.6166  -19.0904 N   0  0  0  0  0  0  0  0  0  0  0  0
   28.8549  -19.0390  -16.9780 N   0  0  0  0  0  0  0  0  0  0  0  0
   28.6580  -19.2589  -15.5818 C   0  0  0  0  0  0  0  0  0  0  0  0
   27.4669  -18.5118  -15.0288 C   0  0  0  0  0  0  0  0  0  0  0  0
   26.5945  -19.5277  -14.2979 C   0  0  0  0  0  0  0  0  0  0  0  0
   27.5349  -20.3681  -13.4490 C   0  0  2  0  0  0  0  0  0  0  0  0
   27.8326  -21.5483  -14.2716 N   0  0  0  0  0  0  0  0  0  0  0  0
   26.8934  -20.8188  -12.1877 C   0  0  0  0  0  0  0  0  0  0  0  0
   26.0463  -21.7710  -12.2218 O   0  0  0  0  0  0  0  0  0  0  0  0
   27.9029  -18.6192  -19.3254 C   0  0  0  0  0  0  0  0  0  0  0  0
   27.1739  -20.6365   -4.2778 S   0  0  0  0  0  0  0  0  0  0  0  0
   27.8475  -20.0268   -5.8569 C   0  0  0  0  0  0  0  0  0  0  0  0
   26.7378  -20.5822   -7.2306 C   0  0  0  0  0  0  0  0  0  0  0  0
   27.3449  -20.1615   -8.5293 C   0  0  2  0  0  0  0  0  0  0  0  0
   26.5260  -20.6596   -9.6978 N   0  0  0  0  0  0  0  0  0  0  0  0
   27.1931  -20.2237  -10.9413 C   0  0  0  0  0  0  0  0  0  0  0  0
   25.1861  -20.0494   -9.6452 O   0  0  0  0  0  0  0  0  0  0  0  0
   25.0843  -18.8551  -10.0878 N   0  0  0  0  0  0  0  0  0  0  0  0
   20.4087  -20.1958  -11.1048 C   0  0  0  0  0  0  0  0  0  0  0  0
   21.4815  -20.7755  -11.8632 O   0  0  0  0  0  0  0  0  0  0  0  0
   21.2400  -21.0848  -13.0329 C   0  0  0  0  0  0  0  0  0  0  0  0
   22.7785  -20.9555  -11.1931 C   0  0  1  0  0  0  0  0  0  0  0  0
   22.7484  -20.5088   -9.7765 N   0  0  0  0  0  0  0  0  0  0  0  0
   24.0595  -20.7272   -9.1428 C   0  0  0  0  0  0  0  0  0  0  0  0
   21.7463  -21.2744   -8.9652 O   0  0  0  0  0  0  0  0  0  0  0  0
   20.5196  -21.1518   -9.1103 O   0  0  0  0  0  0  0  0  0  0  0  0
  2  1  1  0
  3  2  2  0
  4  2  1  0
  5  4  1  0
  6  5  1  0
  7  8  1  0
  7  6  1  0
  8 10  1  0
  8  9  1  6
 10 11  2  0
 12 13  1  0
 13 14  1  0
 15 14  1  0
 16 15  1  6
 17 16  1  0
 17 10  1  0
 18 19  2  0
 18 16  1  0
 20 21  1  0
 21 23  1  0
 21 22  2  0
 24 23  1  6
 24 25  1  0
 24 26  1  0
 25 18  1  0
 26 27  2  0
 26 28  1  0
M  END
$$$$
