RMN.pdb
     RDKit          3D

 28 27  0  0  1  0  0  0  0  0999 V2000
   14.1299  -15.9079  -13.5260 N   0  0  0  0  0  0  0  0  0  0  0  0
   15.5300  -16.0283  -13.7506 C   0  0  0  0  0  0  0  0  0  0  0  0
   16.0587  -17.2030  -13.8192 N   0  0  0  0  0  0  0  0  0  0  0  0
   16.3228  -14.8531  -13.8957 N   0  0  0  0  0  0  0  0  0  0  0  0
   15.8513  -13.5664  -13.4975 C   0  0  0  0  0  0  0  0  0  0  0  0
   15.0646  -12.8650  -14.5801 C   0  0  0  0  0  0  0  0  0  0  0  0
   14.6962  -11.4831  -14.0492 C   0  0  0  0  0  0  0  0  0  0  0  0
   15.9939  -10.6953  -13.9679 C   0  0  2  0  0  0  0  0  0  0  0  0
   16.8917  -11.5296  -13.1578 N   0  0  0  0  0  0  0  0  0  0  0  0
   15.8112   -9.3908  -13.2819 C   0  0  0  0  0  0  0  0  0  0  0  0
   14.9996   -8.5362  -13.7682 O   0  0  0  0  0  0  0  0  0  0  0  0
   17.0742  -17.3082  -13.9235 C   0  0  0  0  0  0  0  0  0  0  0  0
   14.7594   -5.2179   -6.9308 S   0  0  0  0  0  0  0  0  0  0  0  0
   15.0217   -6.8363   -7.7250 C   0  0  0  0  0  0  0  0  0  0  0  0
   15.7846   -6.5650   -9.3898 C   0  0  0  0  0  0  0  0  0  0  0  0
   15.9197   -7.8883  -10.0702 C   0  0  2  0  0  0  0  0  0  0  0  0
   16.4107   -7.7210  -11.4896 N   0  0  0  0  0  0  0  0  0  0  0  0
   16.5112   -9.0627  -12.0988 C   0  0  0  0  0  0  0  0  0  0  0  0
   17.7525   -7.1129  -11.4694 O   0  0  0  0  0  0  0  0  0  0  0  0
   18.6834   -7.8005  -10.9280 N   0  0  0  0  0  0  0  0  0  0  0  0
   22.5704   -7.0009  -13.4827 C   0  0  0  0  0  0  0  0  0  0  0  0
   21.6588   -6.0585  -12.8973 O   0  0  0  0  0  0  0  0  0  0  0  0
   22.1273   -4.9791  -12.5264 C   0  0  0  0  0  0  0  0  0  0  0  0
   20.2449   -6.4482  -12.7846 C   0  0  2  0  0  0  0  0  0  0  0  0
   19.4199   -5.3966  -12.1362 N   0  0  0  0  0  0  0  0  0  0  0  0
   18.0222   -5.8441  -12.0157 C   0  0  0  0  0  0  0  0  0  0  0  0
   19.3970   -4.1267  -12.9334 O   0  0  0  0  0  0  0  0  0  0  0  0
   18.5140   -3.8632  -13.7650 O   0  0  0  0  0  0  0  0  0  0  0  0
  2  1  1  0
  3  2  2  0
  4  2  1  0
  5  4  1  0
  6  5  1  0
  7  8  1  0
  7  6  1  0
  8 10  1  0
  8  9  1  1
 10 11  2  0
 12 13  1  0
 13 14  1  0
 15 14  1  0
 16 15  1  6
 17 16  1  0
 17 10  1  0
 18 19  2  0
 18 16  1  0
 20 21  1  0
 21 23  1  0
 21 22  2  0
 24 23  1  1
 24 25  1  0
 24 26  1  0
 25 18  1  0
 26 27  2  0
 26 28  1  0
M  END
$$$$
