RGW.pdb
     RDKit          3D

 30 31  0  0  1  0  0  0  0  0999 V2000
   23.7028  -13.8770  -20.2190 N   0  0  0  0  0  0  0  0  0  0  0  0
   23.1773  -14.7049  -19.1853 C   0  0  0  0  0  0  0  0  0  0  0  0
   21.9331  -15.0393  -19.2202 N   0  0  0  0  0  0  0  0  0  0  0  0
   24.0040  -15.1669  -18.1181 N   0  0  0  0  0  0  0  0  0  0  0  0
   25.4022  -14.7274  -18.0025 C   0  0  0  0  0  0  0  0  0  0  0  0
   26.0989  -15.4381  -16.8858 C   0  0  0  0  0  0  0  0  0  0  0  0
   27.2362  -16.3175  -17.2879 C   0  0  0  0  0  0  0  0  0  0  0  0
   27.0426  -17.7815  -17.0948 C   0  0  2  0  0  0  0  0  0  0  0  0
   25.8061  -18.2834  -17.6479 N   0  0  0  0  0  0  0  0  0  0  0  0
   27.1291  -18.2058  -15.6828 C   0  0  0  0  0  0  0  0  0  0  0  0
   26.1419  -18.0074  -14.9373 O   0  0  0  0  0  0  0  0  0  0  0  0
   21.5385  -15.6643  -18.5009 N   0  0  0  0  0  0  0  0  0  0  0  0
   28.2687  -18.8270  -15.1201 C   0  0  0  0  0  0  0  0  0  0  0  0
   28.4164  -19.2381  -13.7622 C   0  0  0  0  0  0  0  0  0  0  0  0
   27.5473  -20.3865  -13.3874 O   0  0  0  0  0  0  0  0  0  0  0  0
   27.5504  -21.4885  -13.9519 N   0  0  0  0  0  0  0  0  0  0  0  0
   26.6544  -20.1788  -12.2967 C   0  0  1  0  0  0  0  0  0  0  0  0
   25.8097  -21.2092  -11.7418 C   0  0  0  0  0  0  0  0  0  0  0  0
   26.4445  -21.8855  -10.5606 C   0  0  0  0  0  0  0  0  0  0  0  0
   26.6625  -20.9434   -9.4572 C   0  0  0  0  0  0  0  0  0  0  0  0
   25.7267  -19.9909   -9.0729 N   0  0  0  0  0  0  0  0  0  0  0  0
   26.2072  -19.2824   -8.0465 C   0  0  0  0  0  0  0  0  0  0  0  0
   27.4315  -19.7334   -7.7364 C   0  0  0  0  0  0  0  0  0  0  0  0
   28.3190  -19.3255   -6.7617 C   0  0  0  0  0  0  0  0  0  0  0  0
   29.5401  -19.9836   -6.6663 C   0  0  0  0  0  0  0  0  0  0  0  0
   29.8186  -21.0090   -7.5388 C   0  0  0  0  0  0  0  0  0  0  0  0
   28.9235  -21.4200   -8.5214 C   0  0  0  0  0  0  0  0  0  0  0  0
   27.7269  -20.7677   -8.6073 C   0  0  0  0  0  0  0  0  0  0  0  0
   24.4436  -20.7110  -11.4770 O   0  0  0  0  0  0  0  0  0  0  0  0
   24.1954  -19.4862  -11.3455 O   0  0  0  0  0  0  0  0  0  0  0  0
  2  3  2  0
  2  1  1  0
  4  2  1  0
  5  4  1  0
  6  5  1  0
  7  6  1  0
  7  8  1  0
  8  9  1  1
 10  8  1  0
 10 12  1  0
 11 10  2  0
 13 12  1  0
 14 13  1  0
 15 14  2  0
 16 14  1  0
 17 28  1  0
 17 16  1  0
 17 18  1  1
 19 18  1  0
 20 19  2  0
 21 22  1  0
 21 20  1  0
 22 27  2  0
 23 22  1  0
 23 24  2  0
 24 25  1  0
 25 26  2  0
 27 19  1  0
 27 26  1  0
 28 30  1  0
 29 28  2  0
M  END
$$$$
