RGW.pdb
     RDKit          3D

 30 31  0  0  1  0  0  0  0  0999 V2000
   20.9153  -19.6648  -14.0128 N   0  0  0  0  0  0  0  0  0  0  0  0
   22.0814  -20.1671  -13.3664 C   0  0  0  0  0  0  0  0  0  0  0  0
   21.9783  -20.6616  -12.1807 N   0  0  0  0  0  0  0  0  0  0  0  0
   23.3547  -20.1310  -14.0093 N   0  0  0  0  0  0  0  0  0  0  0  0
   23.4654  -20.2472  -15.4707 C   0  0  0  0  0  0  0  0  0  0  0  0
   23.3853  -21.6767  -15.9041 C   0  0  0  0  0  0  0  0  0  0  0  0
   24.6483  -22.2611  -16.4441 C   0  0  0  0  0  0  0  0  0  0  0  0
   25.5725  -22.8750  -15.4504 C   0  0  2  0  0  0  0  0  0  0  0  0
   24.9988  -23.0184  -14.1324 N   0  0  0  0  0  0  0  0  0  0  0  0
   26.8599  -22.1623  -15.3247 C   0  0  0  0  0  0  0  0  0  0  0  0
   27.8084  -22.5057  -16.0680 O   0  0  0  0  0  0  0  0  0  0  0  0
   22.8008  -21.0680  -11.7095 N   0  0  0  0  0  0  0  0  0  0  0  0
   27.0855  -21.1083  -14.4086 C   0  0  0  0  0  0  0  0  0  0  0  0
   26.2193  -20.7218  -13.3432 C   0  0  0  0  0  0  0  0  0  0  0  0
   26.6267  -21.2595  -12.0167 O   0  0  0  0  0  0  0  0  0  0  0  0
   26.6944  -22.4627  -11.7326 N   0  0  0  0  0  0  0  0  0  0  0  0
   26.9580  -20.3005  -11.0164 C   0  0  1  0  0  0  0  0  0  0  0  0
   26.5712  -20.4177   -9.6308 C   0  0  0  0  0  0  0  0  0  0  0  0
   27.1541  -19.3211   -8.7863 C   0  0  0  0  0  0  0  0  0  0  0  0
   26.9621  -19.5868   -7.3562 C   0  0  0  0  0  0  0  0  0  0  0  0
   25.7109  -19.7332   -6.7700 N   0  0  0  0  0  0  0  0  0  0  0  0
   25.8557  -19.9637   -5.4615 C   0  0  0  0  0  0  0  0  0  0  0  0
   27.1623  -19.9752   -5.1595 C   0  0  0  0  0  0  0  0  0  0  0  0
   27.8039  -20.1705   -3.9535 C   0  0  0  0  0  0  0  0  0  0  0  0
   29.1936  -20.1280   -3.9329 C   0  0  0  0  0  0  0  0  0  0  0  0
   29.8743  -19.8950   -5.1045 C   0  0  0  0  0  0  0  0  0  0  0  0
   29.2269  -19.6982   -6.3202 C   0  0  0  0  0  0  0  0  0  0  0  0
   27.8622  -19.7418   -6.3305 C   0  0  0  0  0  0  0  0  0  0  0  0
   25.1081  -20.5663   -9.4834 O   0  0  0  0  0  0  0  0  0  0  0  0
   24.2984  -19.9359  -10.2086 O   0  0  0  0  0  0  0  0  0  0  0  0
  2  3  2  0
  2  1  1  0
  4  2  1  0
  5  4  1  0
  6  5  1  0
  7  6  1  0
  7  8  1  0
  8  9  1  1
 10  8  1  0
 10 12  1  0
 11 10  2  0
 13 12  1  0
 14 13  1  0
 15 14  2  0
 16 14  1  0
 17 28  1  0
 17 16  1  0
 17 18  1  1
 19 18  1  0
 20 19  2  0
 21 22  1  0
 21 20  1  0
 22 27  2  0
 23 22  1  0
 23 24  2  0
 24 25  1  0
 25 26  2  0
 27 19  1  0
 27 26  1  0
 28 30  1  0
 29 28  2  0
M  END
$$$$
