RGW.pdb
     RDKit          3D

 30 31  0  0  1  0  0  0  0  0999 V2000
   32.8111  -24.8325  -14.9176 N   0  0  0  0  0  0  0  0  0  0  0  0
   32.9675  -25.3064  -16.2521 C   0  0  0  0  0  0  0  0  0  0  0  0
   34.0958  -25.8169  -16.6090 N   0  0  0  0  0  0  0  0  0  0  0  0
   31.8988  -25.2248  -17.1940 N   0  0  0  0  0  0  0  0  0  0  0  0
   30.5591  -24.7842  -16.7784 C   0  0  0  0  0  0  0  0  0  0  0  0
   29.6453  -24.6577  -17.9558 C   0  0  0  0  0  0  0  0  0  0  0  0
   28.2853  -24.1153  -17.6645 C   0  0  0  0  0  0  0  0  0  0  0  0
   27.6930  -24.4833  -16.3485 C   0  0  2  0  0  0  0  0  0  0  0  0
   27.3774  -25.8874  -16.2240 N   0  0  0  0  0  0  0  0  0  0  0  0
   26.4879  -23.7012  -16.0058 C   0  0  0  0  0  0  0  0  0  0  0  0
   26.4964  -22.4663  -16.2174 O   0  0  0  0  0  0  0  0  0  0  0  0
   34.2468  -26.1253  -17.5815 N   0  0  0  0  0  0  0  0  0  0  0  0
   25.3178  -24.2689  -15.4492 C   0  0  0  0  0  0  0  0  0  0  0  0
   24.0515  -23.6252  -15.3206 C   0  0  0  0  0  0  0  0  0  0  0  0
   23.9046  -22.8403  -14.0648 O   0  0  0  0  0  0  0  0  0  0  0  0
   22.8557  -22.3020  -13.6868 N   0  0  0  0  0  0  0  0  0  0  0  0
   25.0699  -22.7124  -13.2550 C   0  0  1  0  0  0  0  0  0  0  0  0
   25.1328  -21.9086  -12.0579 C   0  0  0  0  0  0  0  0  0  0  0  0
   26.4255  -22.0975  -11.3172 C   0  0  0  0  0  0  0  0  0  0  0  0
   26.4907  -21.2424  -10.1268 C   0  0  0  0  0  0  0  0  0  0  0  0
   25.4144  -20.4933   -9.6672 N   0  0  0  0  0  0  0  0  0  0  0  0
   25.7761  -19.8183   -8.5719 C   0  0  0  0  0  0  0  0  0  0  0  0
   27.0576  -20.0947   -8.2888 C   0  0  0  0  0  0  0  0  0  0  0  0
   27.8693  -19.6448   -7.2676 C   0  0  0  0  0  0  0  0  0  0  0  0
   29.1806  -20.1046   -7.2179 C   0  0  0  0  0  0  0  0  0  0  0  0
   29.6191  -20.9841   -8.1794 C   0  0  0  0  0  0  0  0  0  0  0  0
   28.8003  -21.4375   -9.2088 C   0  0  0  0  0  0  0  0  0  0  0  0
   27.5143  -20.9803   -9.2494 C   0  0  0  0  0  0  0  0  0  0  0  0
   24.8080  -20.4932  -12.3333 O   0  0  0  0  0  0  0  0  0  0  0  0
   25.3710  -19.8477  -13.2528 O   0  0  0  0  0  0  0  0  0  0  0  0
  2  3  2  0
  2  1  1  0
  4  2  1  0
  5  4  1  0
  6  5  1  0
  7  6  1  0
  7  8  1  0
  8  9  1  6
 10  8  1  0
 10 12  1  0
 11 10  2  0
 13 12  1  0
 14 13  1  0
 15 14  2  0
 16 14  1  0
 17 28  1  0
 17 16  1  0
 17 18  1  6
 19 18  1  0
 20 19  2  0
 21 22  1  0
 21 20  1  0
 22 27  2  0
 23 22  1  0
 23 24  2  0
 24 25  1  0
 25 26  2  0
 27 19  1  0
 27 26  1  0
 28 30  1  0
 29 28  2  0
M  END
$$$$
