RGW.pdb
     RDKit          3D

 30 31  0  0  1  0  0  0  0  0999 V2000
   29.5384  -24.1151  -17.8856 N   0  0  0  0  0  0  0  0  0  0  0  0
   28.7443  -24.3486  -19.0452 C   0  0  0  0  0  0  0  0  0  0  0  0
   28.8252  -25.4877  -19.6428 N   0  0  0  0  0  0  0  0  0  0  0  0
   27.8654  -23.3453  -19.5519 N   0  0  0  0  0  0  0  0  0  0  0  0
   27.6182  -22.1081  -18.7971 C   0  0  0  0  0  0  0  0  0  0  0  0
   26.4147  -22.2449  -17.9194 C   0  0  0  0  0  0  0  0  0  0  0  0
   26.1318  -21.0851  -17.0231 C   0  0  0  0  0  0  0  0  0  0  0  0
   27.3157  -20.3599  -16.4840 C   0  0  2  0  0  0  0  0  0  0  0  0
   28.5584  -21.0810  -16.6338 N   0  0  0  0  0  0  0  0  0  0  0  0
   27.1711  -19.9672  -15.0676 C   0  0  0  0  0  0  0  0  0  0  0  0
   26.1878  -19.2631  -14.7398 O   0  0  0  0  0  0  0  0  0  0  0  0
   28.2081  -25.7059  -20.4397 N   0  0  0  0  0  0  0  0  0  0  0  0
   28.0835  -20.3422  -14.0537 C   0  0  0  0  0  0  0  0  0  0  0  0
   28.0150  -19.9632  -12.6803 C   0  0  0  0  0  0  0  0  0  0  0  0
   27.0507  -20.7707  -11.8847 O   0  0  0  0  0  0  0  0  0  0  0  0
   26.2822  -21.6193  -12.3562 N   0  0  0  0  0  0  0  0  0  0  0  0
   27.0282  -20.5321  -10.4803 C   0  0  1  0  0  0  0  0  0  0  0  0
   26.2106  -21.2751   -9.5515 C   0  0  0  0  0  0  0  0  0  0  0  0
   26.9395  -21.5787   -8.2740 C   0  0  0  0  0  0  0  0  0  0  0  0
   27.2864  -20.3504   -7.5503 C   0  0  0  0  0  0  0  0  0  0  0  0
   26.8775  -19.0860   -7.9562 N   0  0  0  0  0  0  0  0  0  0  0  0
   27.3473  -18.1703   -7.1035 C   0  0  0  0  0  0  0  0  0  0  0  0
   28.0549  -18.7853   -6.1445 C   0  0  0  0  0  0  0  0  0  0  0  0
   28.7274  -18.2712   -5.0547 C   0  0  0  0  0  0  0  0  0  0  0  0
   29.3882  -19.1573   -4.2111 C   0  0  0  0  0  0  0  0  0  0  0  0
   29.3489  -20.5031   -4.4895 C   0  0  0  0  0  0  0  0  0  0  0  0
   28.6706  -21.0209   -5.5884 C   0  0  0  0  0  0  0  0  0  0  0  0
   28.0248  -20.1431   -6.4110 C   0  0  0  0  0  0  0  0  0  0  0  0
   24.8959  -20.6318   -9.3462 O   0  0  0  0  0  0  0  0  0  0  0  0
   24.6811  -19.4372   -9.6716 O   0  0  0  0  0  0  0  0  0  0  0  0
  2  3  2  0
  2  1  1  0
  4  2  1  0
  5  4  1  0
  6  5  1  0
  7  6  1  0
  7  8  1  0
  8  9  1  1
 10  8  1  0
 10 12  1  0
 11 10  2  0
 13 12  1  0
 14 13  1  0
 15 14  2  0
 16 14  1  0
 17 28  1  0
 17 16  1  0
 17 18  1  1
 19 18  1  0
 20 19  2  0
 21 22  1  0
 21 20  1  0
 22 27  2  0
 23 22  1  0
 23 24  2  0
 24 25  1  0
 25 26  2  0
 27 19  1  0
 27 26  1  0
 28 30  1  0
 29 28  2  0
M  END
$$$$
