RGW.pdb
     RDKit          3D

 30 31  0  0  1  0  0  0  0  0999 V2000
   32.1268  -25.9737  -16.1364 N   0  0  0  0  0  0  0  0  0  0  0  0
   31.1095  -26.2726  -17.0880 C   0  0  0  0  0  0  0  0  0  0  0  0
   30.4516  -27.3754  -16.9784 N   0  0  0  0  0  0  0  0  0  0  0  0
   30.8098  -25.3735  -18.1547 N   0  0  0  0  0  0  0  0  0  0  0  0
   31.2556  -23.9733  -18.1086 C   0  0  0  0  0  0  0  0  0  0  0  0
   30.9384  -23.3511  -16.7859 C   0  0  0  0  0  0  0  0  0  0  0  0
   30.0832  -22.1285  -16.8340 C   0  0  0  0  0  0  0  0  0  0  0  0
   28.7648  -22.2144  -16.1465 C   0  0  2  0  0  0  0  0  0  0  0  0
   27.7905  -23.0132  -16.8530 N   0  0  0  0  0  0  0  0  0  0  0  0
   28.1657  -20.8963  -15.8550 C   0  0  0  0  0  0  0  0  0  0  0  0
   28.6289  -19.8874  -16.4358 O   0  0  0  0  0  0  0  0  0  0  0  0
   29.7597  -27.6457  -17.6939 N   0  0  0  0  0  0  0  0  0  0  0  0
   27.0928  -20.7058  -14.9529 C   0  0  0  0  0  0  0  0  0  0  0  0
   25.7835  -20.2508  -15.2893 C   0  0  0  0  0  0  0  0  0  0  0  0
   24.8882  -20.0831  -14.1124 O   0  0  0  0  0  0  0  0  0  0  0  0
   23.7639  -19.5659  -14.1482 N   0  0  0  0  0  0  0  0  0  0  0  0
   25.3828  -20.5598  -12.8642 C   0  0  2  0  0  0  0  0  0  0  0  0
   24.6031  -21.3447  -11.9373 C   0  0  0  0  0  0  0  0  0  0  0  0
   25.4667  -22.0817  -10.9543 C   0  0  0  0  0  0  0  0  0  0  0  0
   25.9730  -21.1855   -9.9088 C   0  0  0  0  0  0  0  0  0  0  0  0
   25.1625  -20.3065   -9.2010 N   0  0  0  0  0  0  0  0  0  0  0  0
   25.9042  -19.6250   -8.3225 C   0  0  0  0  0  0  0  0  0  0  0  0
   27.1810  -20.0228   -8.4237 C   0  0  0  0  0  0  0  0  0  0  0  0
   28.3059  -19.6160   -7.7358 C   0  0  0  0  0  0  0  0  0  0  0  0
   29.5224  -20.2097   -8.0537 C   0  0  0  0  0  0  0  0  0  0  0  0
   29.5619  -21.1732   -9.0338 C   0  0  0  0  0  0  0  0  0  0  0  0
   28.4274  -21.5831   -9.7270 C   0  0  0  0  0  0  0  0  0  0  0  0
   27.2374  -20.9943   -9.4079 C   0  0  0  0  0  0  0  0  0  0  0  0
   23.5365  -20.5408  -11.3042 O   0  0  0  0  0  0  0  0  0  0  0  0
   23.6489  -19.3008  -11.1350 O   0  0  0  0  0  0  0  0  0  0  0  0
  2  3  2  0
  2  1  1  0
  4  2  1  0
  5  4  1  0
  6  5  1  0
  7  6  1  0
  7  8  1  0
  8  9  1  6
 10  8  1  0
 10 12  1  0
 11 10  2  0
 13 12  1  0
 14 13  1  0
 15 14  2  0
 16 14  1  0
 17 28  1  0
 17 16  1  0
 17 18  1  6
 19 18  1  0
 20 19  2  0
 21 22  1  0
 21 20  1  0
 22 27  2  0
 23 22  1  0
 23 24  2  0
 24 25  1  0
 25 26  2  0
 27 19  1  0
 27 26  1  0
 28 30  1  0
 29 28  2  0
M  END
$$$$
