RGW.pdb
     RDKit          3D

 30 31  0  0  1  0  0  0  0  0999 V2000
   26.3691  -19.8945  -21.9941 N   0  0  0  0  0  0  0  0  0  0  0  0
   26.4335  -21.2419  -21.5357 C   0  0  0  0  0  0  0  0  0  0  0  0
   26.7196  -22.1776  -22.3746 N   0  0  0  0  0  0  0  0  0  0  0  0
   26.1874  -21.5688  -20.1688 N   0  0  0  0  0  0  0  0  0  0  0  0
   25.7117  -20.5485  -19.2232 C   0  0  0  0  0  0  0  0  0  0  0  0
   26.8180  -19.6215  -18.8305 C   0  0  0  0  0  0  0  0  0  0  0  0
   27.3782  -19.8252  -17.4619 C   0  0  0  0  0  0  0  0  0  0  0  0
   26.5153  -20.5590  -16.4949 C   0  0  2  0  0  0  0  0  0  0  0  0
   25.2001  -19.9834  -16.3348 N   0  0  0  0  0  0  0  0  0  0  0  0
   27.1251  -20.7103  -15.1584 C   0  0  0  0  0  0  0  0  0  0  0  0
   28.2583  -21.2382  -15.0746 O   0  0  0  0  0  0  0  0  0  0  0  0
   26.7007  -23.1665  -22.0825 N   0  0  0  0  0  0  0  0  0  0  0  0
   26.5004  -20.2912  -13.9604 C   0  0  0  0  0  0  0  0  0  0  0  0
   27.0595  -20.3680  -12.6504 C   0  0  0  0  0  0  0  0  0  0  0  0
   26.1069  -20.8683  -11.6223 O   0  0  0  0  0  0  0  0  0  0  0  0
   24.8962  -21.0484  -11.8091 N   0  0  0  0  0  0  0  0  0  0  0  0
   26.6507  -21.1534  -10.3366 C   0  0  2  0  0  0  0  0  0  0  0  0
   25.8722  -21.6458   -9.2255 C   0  0  0  0  0  0  0  0  0  0  0  0
   26.7249  -21.9445   -8.0259 C   0  0  0  0  0  0  0  0  0  0  0  0
   27.1437  -20.7135   -7.3464 C   0  0  0  0  0  0  0  0  0  0  0  0
   26.7510  -19.4455   -7.7571 N   0  0  0  0  0  0  0  0  0  0  0  0
   27.2901  -18.5280   -6.9485 C   0  0  0  0  0  0  0  0  0  0  0  0
   28.0281  -19.1452   -6.0142 C   0  0  0  0  0  0  0  0  0  0  0  0
   28.7702  -18.6305   -4.9709 C   0  0  0  0  0  0  0  0  0  0  0  0
   29.4477  -19.5194   -4.1437 C   0  0  0  0  0  0  0  0  0  0  0  0
   29.3555  -20.8686   -4.3918 C   0  0  0  0  0  0  0  0  0  0  0  0
   28.6070  -21.3870   -5.4438 C   0  0  0  0  0  0  0  0  0  0  0  0
   27.9453  -20.5063   -6.2506 C   0  0  0  0  0  0  0  0  0  0  0  0
   24.7225  -20.7646   -8.9318 O   0  0  0  0  0  0  0  0  0  0  0  0
   24.6925  -19.5639   -9.3010 O   0  0  0  0  0  0  0  0  0  0  0  0
  2  3  2  0
  2  1  1  0
  4  2  1  0
  5  4  1  0
  6  5  1  0
  7  6  1  0
  7  8  1  0
  8  9  1  1
 10  8  1  0
 10 12  1  0
 11 10  2  0
 13 12  1  0
 14 13  1  0
 15 14  2  0
 16 14  1  0
 17 28  1  0
 17 16  1  0
 17 18  1  6
 19 18  1  0
 20 19  2  0
 21 22  1  0
 21 20  1  0
 22 27  2  0
 23 22  1  0
 23 24  2  0
 24 25  1  0
 25 26  2  0
 27 19  1  0
 27 26  1  0
 28 30  1  0
 29 28  2  0
M  END
$$$$
