RGW.pdb
     RDKit          3D

 30 31  0  0  1  0  0  0  0  0999 V2000
   22.7353  -22.8344  -18.1237 N   0  0  0  0  0  0  0  0  0  0  0  0
   22.5636  -22.0260  -19.2842 C   0  0  0  0  0  0  0  0  0  0  0  0
   21.7259  -22.3981  -20.1903 N   0  0  0  0  0  0  0  0  0  0  0  0
   23.3013  -20.8170  -19.4571 N   0  0  0  0  0  0  0  0  0  0  0  0
   24.1969  -20.3224  -18.4013 C   0  0  0  0  0  0  0  0  0  0  0  0
   23.4745  -20.1995  -17.0972 C   0  0  0  0  0  0  0  0  0  0  0  0
   24.2979  -19.7338  -15.9424 C   0  0  0  0  0  0  0  0  0  0  0  0
   25.0108  -20.7881  -15.1688 C   0  0  2  0  0  0  0  0  0  0  0  0
   24.1315  -21.7602  -14.5618 N   0  0  0  0  0  0  0  0  0  0  0  0
   25.9041  -20.2490  -14.1235 C   0  0  0  0  0  0  0  0  0  0  0  0
   26.6173  -19.2566  -14.4000 O   0  0  0  0  0  0  0  0  0  0  0  0
   21.6207  -21.8553  -21.0609 N   0  0  0  0  0  0  0  0  0  0  0  0
   26.0015  -20.7911  -12.8205 C   0  0  0  0  0  0  0  0  0  0  0  0
   26.8142  -20.2895  -11.7609 C   0  0  0  0  0  0  0  0  0  0  0  0
   26.6562  -21.0347  -10.4824 O   0  0  0  0  0  0  0  0  0  0  0  0
   26.8539  -22.2490  -10.3435 N   0  0  0  0  0  0  0  0  0  0  0  0
   26.2465  -20.2740   -9.3495 C   0  0  1  0  0  0  0  0  0  0  0  0
   25.6301  -20.8467   -8.1768 C   0  0  0  0  0  0  0  0  0  0  0  0
   25.7739  -19.9608   -6.9727 C   0  0  0  0  0  0  0  0  0  0  0  0
   27.1819  -19.6505   -6.7011 C   0  0  0  0  0  0  0  0  0  0  0  0
   27.9271  -18.7613   -7.4657 N   0  0  0  0  0  0  0  0  0  0  0  0
   29.1697  -18.6874   -6.9792 C   0  0  0  0  0  0  0  0  0  0  0  0
   29.2743  -19.4985   -5.9164 C   0  0  0  0  0  0  0  0  0  0  0  0
   30.3468  -19.7613   -5.0889 C   0  0  0  0  0  0  0  0  0  0  0  0
   30.1678  -20.6631   -4.0457 C   0  0  0  0  0  0  0  0  0  0  0  0
   28.9392  -21.2564   -3.8763 C   0  0  0  0  0  0  0  0  0  0  0  0
   27.8581  -20.9910   -4.7109 C   0  0  0  0  0  0  0  0  0  0  0  0
   28.0435  -20.1041   -5.7324 C   0  0  0  0  0  0  0  0  0  0  0  0
   24.2379  -21.2664   -8.4419 O   0  0  0  0  0  0  0  0  0  0  0  0
   23.5902  -20.8385   -9.4300 O   0  0  0  0  0  0  0  0  0  0  0  0
  2  3  2  0
  2  1  1  0
  4  2  1  0
  5  4  1  0
  6  5  1  0
  7  6  1  0
  7  8  1  0
  8  9  1  1
 10  8  1  0
 10 12  1  0
 11 10  2  0
 13 12  1  0
 14 13  1  0
 15 14  2  0
 16 14  1  0
 17 28  1  0
 17 16  1  0
 17 18  1  1
 19 18  1  0
 20 19  2  0
 21 22  1  0
 21 20  1  0
 22 27  2  0
 23 22  1  0
 23 24  2  0
 24 25  1  0
 25 26  2  0
 27 19  1  0
 27 26  1  0
 28 30  1  0
 29 28  2  0
M  END
$$$$
