RGW.pdb
     RDKit          3D

 30 31  0  0  1  0  0  0  0  0999 V2000
 6299.5674-2716.8901-5866.4209 N   0  0  0  0  0  0  0  0  0  0  0  0
 6299.1260-2715.5930-5866.0249 C   0  0  0  0  0  0  0  0  0  0  0  0
 6298.4062-2714.8982-5866.8374 N   0  0  0  0  0  0  0  0  0  0  0  0
 6299.4717-2715.0503-5864.7495 N   0  0  0  0  0  0  0  0  0  0  0  0
 6298.4370-2714.7788-5863.7422 C   0  0  0  0  0  0  0  0  0  0  0  0
 6297.6846-2716.0220-5863.3926 C   0  0  0  0  0  0  0  0  0  0  0  0
 6297.1313-2716.0740-5862.0015 C   0  0  0  0  0  0  0  0  0  0  0  0
 6295.6519-2716.0410-5861.8755 C   0  0  2  0  0  0  0  0  0  0  0  0
 6295.0361-2714.8938-5862.5103 N   0  0  0  0  0  0  0  0  0  0  0  0
 6295.1758-2716.1074-5860.4790 C   0  0  0  0  0  0  0  0  0  0  0  0
 6295.9844-2716.4568-5859.5869 O   0  0  0  0  0  0  0  0  0  0  0  0
 6298.6030-2714.9097-5867.8506 N   0  0  0  0  0  0  0  0  0  0  0  0
 6293.8521-2715.7998-5860.0864 C   0  0  0  0  0  0  0  0  0  0  0  0
 6292.6846-2715.9131-5860.8999 C   0  0  0  0  0  0  0  0  0  0  0  0
 6292.6597-2717.1406-5861.7378 O   0  0  0  0  0  0  0  0  0  0  0  0
 6292.4995-2717.1567-5862.9648 N   0  0  0  0  0  0  0  0  0  0  0  0
 6292.8276-2718.3796-5861.0562 C   0  0  2  0  0  0  0  0  0  0  0  0
 6292.2109-2718.6895-5859.7881 C   0  0  0  0  0  0  0  0  0  0  0  0
 6292.9497-2718.0789-5858.6318 C   0  0  0  0  0  0  0  0  0  0  0  0
 6292.0278-2717.5708-5857.6133 C   0  0  0  0  0  0  0  0  0  0  0  0
 6291.4346-2718.3762-5856.6562 N   0  0  0  0  0  0  0  0  0  0  0  0
 6290.6406-2717.6375-5855.8701 C   0  0  0  0  0  0  0  0  0  0  0  0
 6290.6943-2716.3604-5856.2778 C   0  0  0  0  0  0  0  0  0  0  0  0
 6290.0576-2715.2366-5855.7944 C   0  0  0  0  0  0  0  0  0  0  0  0
 6290.2988-2714.0198-5856.4253 C   0  0  0  0  0  0  0  0  0  0  0  0
 6291.1543-2713.9807-5857.4995 C   0  0  0  0  0  0  0  0  0  0  0  0
 6291.7949-2715.1165-5857.9927 C   0  0  0  0  0  0  0  0  0  0  0  0
 6291.5493-2716.3052-5857.3623 C   0  0  0  0  0  0  0  0  0  0  0  0
 6290.7651-2718.3853-5859.7974 O   0  0  0  0  0  0  0  0  0  0  0  0
 6290.2524-2717.6201-5860.6489 O   0  0  0  0  0  0  0  0  0  0  0  0
  2  3  2  0
  2  1  1  0
  4  2  1  0
  5  4  1  0
  6  5  1  0
  7  6  1  0
  7  8  1  0
  8  9  1  1
 10  8  1  0
 10 12  1  0
 11 10  2  0
 13 12  1  0
 14 13  1  0
 15 14  2  0
 16 14  1  0
 17 28  1  0
 17 16  1  0
 17 18  1  1
 19 18  1  0
 20 19  2  0
 21 22  1  0
 21 20  1  0
 22 27  2  0
 23 22  1  0
 23 24  2  0
 24 25  1  0
 25 26  2  0
 27 19  1  0
 27 26  1  0
 28 30  1  0
 29 28  2  0
M  END
$$$$
