RGW.pdb
     RDKit          3D

 30 31  0  0  1  0  0  0  0  0999 V2000
   21.5035  -17.0393  -17.3507 N   0  0  0  0  0  0  0  0  0  0  0  0
   22.3816  -17.2982  -18.4424 C   0  0  0  0  0  0  0  0  0  0  0  0
   22.7717  -16.3166  -19.1809 N   0  0  0  0  0  0  0  0  0  0  0  0
   22.8332  -18.6211  -18.7282 N   0  0  0  0  0  0  0  0  0  0  0  0
   22.4963  -19.7419  -17.8384 C   0  0  0  0  0  0  0  0  0  0  0  0
   22.7957  -19.4050  -16.4121 C   0  0  0  0  0  0  0  0  0  0  0  0
   23.6491  -20.3871  -15.6803 C   0  0  0  0  0  0  0  0  0  0  0  0
   22.9429  -21.3261  -14.7649 C   0  0  2  0  0  0  0  0  0  0  0  0
   21.5963  -20.9183  -14.4378 N   0  0  0  0  0  0  0  0  0  0  0  0
   23.6724  -21.5822  -13.5066 C   0  0  0  0  0  0  0  0  0  0  0  0
   24.8387  -22.0352  -13.5732 O   0  0  0  0  0  0  0  0  0  0  0  0
   23.3932  -16.4825  -19.9870 N   0  0  0  0  0  0  0  0  0  0  0  0
   23.1276  -21.3442  -12.2230 C   0  0  0  0  0  0  0  0  0  0  0  0
   23.8199  -21.4636  -10.9816 C   0  0  0  0  0  0  0  0  0  0  0  0
   25.1247  -20.7482  -10.9536 O   0  0  0  0  0  0  0  0  0  0  0  0
   25.3526  -19.6722  -11.5221 N   0  0  0  0  0  0  0  0  0  0  0  0
   26.1729  -21.3663  -10.2126 C   0  0  1  0  0  0  0  0  0  0  0  0
   27.5422  -20.9104  -10.2236 C   0  0  0  0  0  0  0  0  0  0  0  0
   28.2667  -21.2656   -8.9569 C   0  0  0  0  0  0  0  0  0  0  0  0
   27.7054  -20.5561   -7.8018 C   0  0  0  0  0  0  0  0  0  0  0  0
   26.3807  -20.1424   -7.7322 N   0  0  0  0  0  0  0  0  0  0  0  0
   26.1670  -19.5251   -6.5662 C   0  0  0  0  0  0  0  0  0  0  0  0
   27.3065  -19.5154   -5.8591 C   0  0  0  0  0  0  0  0  0  0  0  0
   27.5842  -18.9991   -4.6099 C   0  0  0  0  0  0  0  0  0  0  0  0
   28.8764  -19.1335   -4.1145 C   0  0  0  0  0  0  0  0  0  0  0  0
   29.8244  -19.7707   -4.8797 C   0  0  0  0  0  0  0  0  0  0  0  0
   29.5439  -20.2912   -6.1391 C   0  0  0  0  0  0  0  0  0  0  0  0
   28.2722  -20.1543   -6.6171 C   0  0  0  0  0  0  0  0  0  0  0  0
   28.2489  -21.3349  -11.4504 O   0  0  0  0  0  0  0  0  0  0  0  0
   27.9452  -22.3893  -12.0626 O   0  0  0  0  0  0  0  0  0  0  0  0
  2  3  2  0
  2  1  1  0
  4  2  1  0
  5  4  1  0
  6  5  1  0
  7  6  1  0
  7  8  1  0
  8  9  1  1
 10  8  1  0
 10 12  1  0
 11 10  2  0
 13 12  1  0
 14 13  1  0
 15 14  2  0
 16 14  1  0
 17 28  1  0
 17 16  1  0
 17 18  1  6
 19 18  1  0
 20 19  2  0
 21 22  1  0
 21 20  1  0
 22 27  2  0
 23 22  1  0
 23 24  2  0
 24 25  1  0
 25 26  2  0
 27 19  1  0
 27 26  1  0
 28 30  1  0
 29 28  2  0
M  END
$$$$
