RGW.pdb
     RDKit          3D

 30 31  0  0  1  0  0  0  0  0999 V2000
   27.4854  -15.8889  -15.7892 N   0  0  0  0  0  0  0  0  0  0  0  0
   27.2511  -15.8279  -17.1932 C   0  0  0  0  0  0  0  0  0  0  0  0
   27.7720  -14.8666  -17.8756 N   0  0  0  0  0  0  0  0  0  0  0  0
   26.4526  -16.8103  -17.8513 N   0  0  0  0  0  0  0  0  0  0  0  0
   26.0160  -18.0238  -17.1454 C   0  0  0  0  0  0  0  0  0  0  0  0
   27.0680  -19.0857  -17.2001 C   0  0  0  0  0  0  0  0  0  0  0  0
   26.8592  -20.1518  -18.2240 C   0  0  0  0  0  0  0  0  0  0  0  0
   26.1141  -21.3619  -17.7784 C   0  0  2  0  0  0  0  0  0  0  0  0
   24.6856  -21.1663  -17.6890 N   0  0  0  0  0  0  0  0  0  0  0  0
   26.5924  -21.9076  -16.4920 C   0  0  0  0  0  0  0  0  0  0  0  0
   27.8271  -21.9509  -16.2831 O   0  0  0  0  0  0  0  0  0  0  0  0
   27.5954  -14.7879  -18.8886 N   0  0  0  0  0  0  0  0  0  0  0  0
   25.7325  -22.3869  -15.4762 C   0  0  0  0  0  0  0  0  0  0  0  0
   26.1371  -22.9397  -14.2251 C   0  0  0  0  0  0  0  0  0  0  0  0
   25.5981  -22.2085  -13.0463 O   0  0  0  0  0  0  0  0  0  0  0  0
   24.4506  -21.7512  -12.9628 N   0  0  0  0  0  0  0  0  0  0  0  0
   26.4861  -22.0338  -11.9458 C   0  0  2  0  0  0  0  0  0  0  0  0
   26.1164  -21.3883  -10.7090 C   0  0  0  0  0  0  0  0  0  0  0  0
   27.2769  -21.2724   -9.7628 C   0  0  0  0  0  0  0  0  0  0  0  0
   26.8542  -20.7514   -8.4580 C   0  0  0  0  0  0  0  0  0  0  0  0
   25.5220  -20.6218   -8.0849 N   0  0  0  0  0  0  0  0  0  0  0  0
   25.4520  -20.1201   -6.8481 C   0  0  0  0  0  0  0  0  0  0  0  0
   26.6943  -19.9124   -6.3875 C   0  0  0  0  0  0  0  0  0  0  0  0
   27.1321  -19.4130   -5.1779 C   0  0  0  0  0  0  0  0  0  0  0  0
   28.5023  -19.3043   -4.9679 C   0  0  0  0  0  0  0  0  0  0  0  0
   29.3659  -19.6948   -5.9639 C   0  0  0  0  0  0  0  0  0  0  0  0
   28.9240  -20.1984   -7.1832 C   0  0  0  0  0  0  0  0  0  0  0  0
   27.5767  -20.3014   -7.3802 C   0  0  0  0  0  0  0  0  0  0  0  0
   25.4165  -20.1088  -10.9493 O   0  0  0  0  0  0  0  0  0  0  0  0
   25.9051  -19.2092  -11.6780 O   0  0  0  0  0  0  0  0  0  0  0  0
  2  3  2  0
  2  1  1  0
  4  2  1  0
  5  4  1  0
  6  5  1  0
  7  6  1  0
  7  8  1  0
  8  9  1  1
 10  8  1  0
 10 12  1  0
 11 10  2  0
 13 12  1  0
 14 13  1  0
 15 14  2  0
 16 14  1  0
 17 28  1  0
 17 16  1  0
 17 18  1  6
 19 18  1  0
 20 19  2  0
 21 22  1  0
 21 20  1  0
 22 27  2  0
 23 22  1  0
 23 24  2  0
 24 25  1  0
 25 26  2  0
 27 19  1  0
 27 26  1  0
 28 30  1  0
 29 28  2  0
M  END
$$$$
