RGW.pdb
     RDKit          3D

 30 31  0  0  1  0  0  0  0  0999 V2000
   25.9040  -25.6028  -16.6091 N   0  0  0  0  0  0  0  0  0  0  0  0
   26.1163  -26.0688  -17.9386 C   0  0  0  0  0  0  0  0  0  0  0  0
   25.3908  -27.0341  -18.3890 N   0  0  0  0  0  0  0  0  0  0  0  0
   27.1149  -25.4854  -18.7744 N   0  0  0  0  0  0  0  0  0  0  0  0
   28.0476  -24.4796  -18.2454 C   0  0  0  0  0  0  0  0  0  0  0  0
   27.4513  -23.1091  -18.3051 C   0  0  0  0  0  0  0  0  0  0  0  0
   28.0310  -22.1091  -17.3604 C   0  0  0  0  0  0  0  0  0  0  0  0
   28.1225  -22.5220  -15.9323 C   0  0  2  0  0  0  0  0  0  0  0  0
   27.3982  -23.7345  -15.6290 N   0  0  0  0  0  0  0  0  0  0  0  0
   27.6926  -21.4719  -14.9869 C   0  0  0  0  0  0  0  0  0  0  0  0
   27.7772  -20.2741  -15.3449 O   0  0  0  0  0  0  0  0  0  0  0  0
   25.5578  -27.4193  -19.3310 N   0  0  0  0  0  0  0  0  0  0  0  0
   27.1877  -21.7416  -13.6933 C   0  0  0  0  0  0  0  0  0  0  0  0
   26.8168  -20.7698  -12.7172 C   0  0  0  0  0  0  0  0  0  0  0  0
   26.3954  -21.3590  -11.4172 O   0  0  0  0  0  0  0  0  0  0  0  0
   26.0572  -22.5387  -11.2529 N   0  0  0  0  0  0  0  0  0  0  0  0
   26.3880  -20.4822  -10.2943 C   0  0  1  0  0  0  0  0  0  0  0  0
   25.6058  -20.7085   -9.1026 C   0  0  0  0  0  0  0  0  0  0  0  0
   26.0328  -19.8210   -7.9689 C   0  0  0  0  0  0  0  0  0  0  0  0
   27.4332  -20.0580   -7.6011 C   0  0  0  0  0  0  0  0  0  0  0  0
   28.3403  -20.7032   -8.4327 N   0  0  0  0  0  0  0  0  0  0  0  0
   29.5296  -20.7723   -7.8269 C   0  0  0  0  0  0  0  0  0  0  0  0
   29.4421  -20.1940   -6.6200 C   0  0  0  0  0  0  0  0  0  0  0  0
   30.3934  -20.0209   -5.6356 C   0  0  0  0  0  0  0  0  0  0  0  0
   30.0173  -19.3751   -4.4630 C   0  0  0  0  0  0  0  0  0  0  0  0
   28.7219  -18.9351   -4.3263 C   0  0  0  0  0  0  0  0  0  0  0  0
   27.7631  -19.1098   -5.3192 C   0  0  0  0  0  0  0  0  0  0  0  0
   28.1418  -19.7451   -6.4670 C   0  0  0  0  0  0  0  0  0  0  0  0
   24.1557  -20.6561   -9.3836 O   0  0  0  0  0  0  0  0  0  0  0  0
   23.3017  -21.0565   -8.5533 O   0  0  0  0  0  0  0  0  0  0  0  0
  2  3  2  0
  2  1  1  0
  4  2  1  0
  5  4  1  0
  6  5  1  0
  7  6  1  0
  7  8  1  0
  8  9  1  6
 10  8  1  0
 10 12  1  0
 11 10  2  0
 13 12  1  0
 14 13  1  0
 15 14  2  0
 16 14  1  0
 17 28  1  0
 17 16  1  0
 17 18  1  1
 19 18  1  0
 20 19  2  0
 21 22  1  0
 21 20  1  0
 22 27  2  0
 23 22  1  0
 23 24  2  0
 24 25  1  0
 25 26  2  0
 27 19  1  0
 27 26  1  0
 28 30  1  0
 29 28  2  0
M  END
$$$$
