HRT.pdb
     RDKit          3D

 29 29  0  0  1  0  0  0  0  0999 V2000
   26.3552  -23.4894  -15.8901 N   0  0  0  0  0  0  0  0  0  0  0  0
   24.9606  -23.8490  -15.8196 C   0  0  1  0  0  0  0  0  0  0  0  0
   24.7433  -25.2483  -15.3230 C   0  0  0  0  0  0  0  0  0  0  0  0
   25.3343  -26.1768  -16.3299 C   0  0  0  0  0  0  0  0  0  0  0  0
   24.8715  -26.4146  -17.6067 C   0  0  0  0  0  0  0  0  0  0  0  0
   25.6755  -27.3144  -18.1988 N   0  0  0  0  0  0  0  0  0  0  0  0
   26.6491  -27.6594  -17.3218 C   0  0  0  0  0  0  0  0  0  0  0  0
   26.4282  -26.9606  -16.1927 N   0  0  0  0  0  0  0  0  0  0  0  0
   24.2140  -22.8250  -15.0975 C   0  0  0  0  0  0  0  0  0  0  0  0
   24.5169  -22.5967  -13.8983 O   0  0  0  0  0  0  0  0  0  0  0  0
   19.4120  -16.2133  -16.6082 N   0  0  0  0  0  0  0  0  0  0  0  0
   19.6942  -15.8311  -15.2836 C   0  0  0  0  0  0  0  0  0  0  0  0
   18.9644  -14.9919  -14.6342 N   0  0  0  0  0  0  0  0  0  0  0  0
   20.8267  -16.3916  -14.6368 N   0  0  0  0  0  0  0  0  0  0  0  0
   21.6774  -17.3206  -15.3361 C   0  0  0  0  0  0  0  0  0  0  0  0
   21.5836  -18.7073  -14.7261 C   0  0  0  0  0  0  0  0  0  0  0  0
   22.4495  -19.7038  -15.4558 C   0  0  0  0  0  0  0  0  0  0  0  0
   22.3722  -21.0858  -14.8909 C   0  0  2  0  0  0  0  0  0  0  0  0
   23.1559  -22.0482  -15.6377 N   0  0  0  0  0  0  0  0  0  0  0  0
   20.9485  -21.5566  -14.7788 C   0  0  0  0  0  0  0  0  0  0  0  0
   20.2656  -21.6360  -15.8304 O   0  0  0  0  0  0  0  0  0  0  0  0
   19.1445  -14.7433  -13.6522 C   0  0  0  0  0  0  0  0  0  0  0  0
   19.5014  -22.2384  -10.9941 C   0  0  2  0  0  0  0  0  0  0  0  0
   18.9333  -23.1146  -12.0783 O   0  0  0  0  0  0  0  0  0  0  0  0
   17.6194  -23.4565  -11.7777 C   0  0  1  0  0  0  0  0  0  0  0  0
   18.9891  -22.3996  -13.4356 N   0  0  0  0  0  0  0  0  0  0  0  0
   20.3509  -21.9090  -13.5635 C   0  0  0  0  0  0  0  0  0  0  0  0
   18.1089  -21.2002  -13.3278 O   0  0  0  0  0  0  0  0  0  0  0  0
   16.7452  -21.2417  -13.5887 O   0  0  0  0  0  0  0  0  0  0  0  0
  2  1  1  1
  3  2  1  0
  3  4  1  0
  4  5  2  0
  4  8  1  0
  5  6  1  0
  6  7  1  0
  8  7  2  0
  9  2  1  0
 10  9  2  0
 11 12  1  0
 12 14  1  0
 12 13  2  0
 14 15  1  0
 16 17  1  0
 16 15  1  0
 18 17  1  6
 18 19  1  0
 19  9  1  0
 20 18  1  0
 21 20  2  0
 23 25  1  0
 23 22  1  1
 24 23  1  0
 25 26  1  1
 26 20  1  0
 27 25  1  0
 27 28  1  0
 29 27  2  0
M  END
$$$$
