HRT.pdb
     RDKit          3D

 29 29  0  0  1  0  0  0  0  0999 V2000
   19.7155  -26.1196  -14.4906 N   0  0  0  0  0  0  0  0  0  0  0  0
   19.4335  -25.0071  -15.3635 C   0  0  1  0  0  0  0  0  0  0  0  0
   17.9653  -24.7252  -15.4936 C   0  0  0  0  0  0  0  0  0  0  0  0
   17.3523  -25.8739  -16.2215 C   0  0  0  0  0  0  0  0  0  0  0  0
   16.4322  -26.7719  -15.7234 C   0  0  0  0  0  0  0  0  0  0  0  0
   16.1255  -27.6577  -16.6866 N   0  0  0  0  0  0  0  0  0  0  0  0
   16.8347  -27.3432  -17.7976 C   0  0  0  0  0  0  0  0  0  0  0  0
   17.5741  -26.2587  -17.4993 N   0  0  0  0  0  0  0  0  0  0  0  0
   20.2425  -23.8542  -14.9847 C   0  0  0  0  0  0  0  0  0  0  0  0
   20.0683  -23.3483  -13.8464 O   0  0  0  0  0  0  0  0  0  0  0  0
   28.1011  -23.3924  -17.6136 N   0  0  0  0  0  0  0  0  0  0  0  0
   27.5406  -24.4868  -16.9294 C   0  0  0  0  0  0  0  0  0  0  0  0
   28.1671  -25.6012  -16.7738 N   0  0  0  0  0  0  0  0  0  0  0  0
   26.2341  -24.3591  -16.3891 N   0  0  0  0  0  0  0  0  0  0  0  0
   25.5210  -23.1120  -16.4988 C   0  0  0  0  0  0  0  0  0  0  0  0
   24.1747  -23.1936  -15.8024 C   0  0  0  0  0  0  0  0  0  0  0  0
   23.3185  -21.9851  -16.0877 C   0  0  0  0  0  0  0  0  0  0  0  0
   21.9689  -22.0472  -15.4476 C   0  0  2  0  0  0  0  0  0  0  0  0
   21.2278  -23.2403  -15.8015 N   0  0  0  0  0  0  0  0  0  0  0  0
   21.1538  -20.8228  -15.7600 C   0  0  0  0  0  0  0  0  0  0  0  0
   20.6887  -20.7003  -16.9208 O   0  0  0  0  0  0  0  0  0  0  0  0
   27.7211  -26.4376  -16.3737 C   0  0  0  0  0  0  0  0  0  0  0  0
   20.3374  -18.1500  -12.6623 C   0  0  2  0  0  0  0  0  0  0  0  0
   19.3769  -18.2808  -13.8140 O   0  0  0  0  0  0  0  0  0  0  0  0
   18.6581  -17.1013  -13.9738 C   0  0  1  0  0  0  0  0  0  0  0  0
   20.1295  -18.6132  -15.1100 N   0  0  0  0  0  0  0  0  0  0  0  0
   20.8900  -19.8176  -14.8229 C   0  0  0  0  0  0  0  0  0  0  0  0
   21.1214  -17.5201  -15.3253 O   0  0  0  0  0  0  0  0  0  0  0  0
   22.4762  -17.6701  -15.0582 O   0  0  0  0  0  0  0  0  0  0  0  0
  2  1  1  1
  3  2  1  0
  3  4  1  0
  4  5  2  0
  4  8  1  0
  5  6  1  0
  6  7  1  0
  8  7  2  0
  9  2  1  0
 10  9  2  0
 11 12  1  0
 12 14  1  0
 12 13  2  0
 14 15  1  0
 16 17  1  0
 16 15  1  0
 18 17  1  6
 18 19  1  0
 19  9  1  0
 20 18  1  0
 21 20  2  0
 23 25  1  0
 23 22  1  1
 24 23  1  0
 25 26  1  1
 26 20  1  0
 27 25  1  0
 27 28  1  0
 29 27  2  0
M  END
$$$$
