HRT.pdb
     RDKit          3D

 29 29  0  0  1  0  0  0  0  0999 V2000
   21.8721  -28.9543  -11.9624 N   0  0  0  0  0  0  0  0  0  0  0  0
   20.4608  -28.7943  -11.7140 C   0  0  1  0  0  0  0  0  0  0  0  0
   19.8165  -30.0417  -11.1841 C   0  0  0  0  0  0  0  0  0  0  0  0
   19.8120  -31.0458  -12.2873 C   0  0  0  0  0  0  0  0  0  0  0  0
   20.5434  -32.2132  -12.3453 C   0  0  0  0  0  0  0  0  0  0  0  0
   20.2632  -32.8435  -13.4989 N   0  0  0  0  0  0  0  0  0  0  0  0
   19.3621  -32.0990  -14.1844 C   0  0  0  0  0  0  0  0  0  0  0  0
   19.0985  -31.0116  -13.4361 N   0  0  0  0  0  0  0  0  0  0  0  0
   20.2247  -27.6000  -10.9107 C   0  0  0  0  0  0  0  0  0  0  0  0
   20.9561  -27.3987   -9.9074 O   0  0  0  0  0  0  0  0  0  0  0  0
   21.1267  -20.5631  -13.6935 N   0  0  0  0  0  0  0  0  0  0  0  0
   21.3850  -21.6979  -14.4845 C   0  0  0  0  0  0  0  0  0  0  0  0
   22.3573  -21.7480  -15.3276 N   0  0  0  0  0  0  0  0  0  0  0  0
   20.5422  -22.8320  -14.3491 N   0  0  0  0  0  0  0  0  0  0  0  0
   19.5823  -22.9003  -13.2768 C   0  0  0  0  0  0  0  0  0  0  0  0
   19.8710  -24.0782  -12.3641 C   0  0  0  0  0  0  0  0  0  0  0  0
   18.8481  -24.2015  -11.2624 C   0  0  0  0  0  0  0  0  0  0  0  0
   19.0427  -25.4082  -10.4017 C   0  0  2  0  0  0  0  0  0  0  0  0
   19.2241  -26.6259  -11.1650 N   0  0  0  0  0  0  0  0  0  0  0  0
   17.9123  -25.5763   -9.4244 C   0  0  0  0  0  0  0  0  0  0  0  0
   16.8460  -26.0988   -9.8352 O   0  0  0  0  0  0  0  0  0  0  0  0
   22.5158  -22.5558  -15.9449 C   0  0  0  0  0  0  0  0  0  0  0  0
   18.4177  -26.3962   -5.3830 C   0  0  2  0  0  0  0  0  0  0  0  0
   17.5894  -25.1905   -5.7380 O   0  0  0  0  0  0  0  0  0  0  0  0
   18.3836  -24.0491   -5.7432 C   0  0  2  0  0  0  0  0  0  0  0  0
   16.9297  -25.3736   -7.1120 N   0  0  0  0  0  0  0  0  0  0  0  0
   17.9916  -25.1799   -8.0847 C   0  0  0  0  0  0  0  0  0  0  0  0
   15.9753  -24.2405   -7.2867 O   0  0  0  0  0  0  0  0  0  0  0  0
   14.7455  -24.1865   -6.6431 O   0  0  0  0  0  0  0  0  0  0  0  0
  2  1  1  1
  3  2  1  0
  3  4  1  0
  4  5  2  0
  4  8  1  0
  5  6  1  0
  6  7  1  0
  8  7  2  0
  9  2  1  0
 10  9  2  0
 11 12  1  0
 12 14  1  0
 12 13  2  0
 14 15  1  0
 16 17  1  0
 16 15  1  0
 18 17  1  6
 18 19  1  0
 19  9  1  0
 20 18  1  0
 21 20  2  0
 23 25  1  0
 23 22  1  1
 24 23  1  0
 25 26  1  1
 26 20  1  0
 27 25  1  0
 27 28  1  0
 29 27  2  0
M  END
$$$$
