HRT.pdb
     RDKit          3D

 29 29  0  0  1  0  0  0  0  0999 V2000
   28.2111  -21.5469  -17.6699 N   0  0  0  0  0  0  0  0  0  0  0  0
   27.7771  -22.1072  -16.4142 C   0  0  1  0  0  0  0  0  0  0  0  0
   28.8846  -22.7894  -15.6658 C   0  0  0  0  0  0  0  0  0  0  0  0
   29.3030  -23.9747  -16.4690 C   0  0  0  0  0  0  0  0  0  0  0  0
   30.5334  -24.1832  -17.0552 C   0  0  0  0  0  0  0  0  0  0  0  0
   30.5159  -25.3677  -17.6903 N   0  0  0  0  0  0  0  0  0  0  0  0
   29.2922  -25.9247  -17.5216 C   0  0  0  0  0  0  0  0  0  0  0  0
   28.5680  -25.0673  -16.7785 N   0  0  0  0  0  0  0  0  0  0  0  0
   27.0489  -21.1062  -15.6428 C   0  0  0  0  0  0  0  0  0  0  0  0
   27.6031  -19.9984  -15.4246 O   0  0  0  0  0  0  0  0  0  0  0  0
   20.4250  -20.9099  -18.3756 N   0  0  0  0  0  0  0  0  0  0  0  0
   19.9989  -20.5762  -17.0767 C   0  0  0  0  0  0  0  0  0  0  0  0
   18.8625  -20.9529  -16.6022 N   0  0  0  0  0  0  0  0  0  0  0  0
   20.8537  -19.7942  -16.2565 N   0  0  0  0  0  0  0  0  0  0  0  0
   22.1976  -19.4970  -16.6825 C   0  0  0  0  0  0  0  0  0  0  0  0
   23.2059  -20.3457  -15.9295 C   0  0  0  0  0  0  0  0  0  0  0  0
   24.0287  -19.5239  -14.9690 C   0  0  0  0  0  0  0  0  0  0  0  0
   25.0739  -20.3162  -14.2515 C   0  0  2  0  0  0  0  0  0  0  0  0
   25.7456  -21.2738  -15.1060 N   0  0  0  0  0  0  0  0  0  0  0  0
   24.5071  -21.0114  -13.0447 C   0  0  0  0  0  0  0  0  0  0  0  0
   23.7653  -22.0087  -13.2287 O   0  0  0  0  0  0  0  0  0  0  0  0
   18.5477  -20.7067  -15.6541 C   0  0  0  0  0  0  0  0  0  0  0  0
   26.4255  -21.3706   -9.4446 C   0  0  2  0  0  0  0  0  0  0  0  0
   25.0524  -20.7578   -9.3734 O   0  0  0  0  0  0  0  0  0  0  0  0
   25.1469  -19.3705   -9.3786 C   0  0  2  0  0  0  0  0  0  0  0  0
   24.1896  -21.2267  -10.5533 N   0  0  0  0  0  0  0  0  0  0  0  0
   24.7657  -20.6017  -11.7319 C   0  0  0  0  0  0  0  0  0  0  0  0
   22.8379  -20.6246  -10.3653 O   0  0  0  0  0  0  0  0  0  0  0  0
   21.9411  -21.0739   -9.4044 O   0  0  0  0  0  0  0  0  0  0  0  0
  2  1  1  6
  3  2  1  0
  3  4  1  0
  4  5  2  0
  4  8  1  0
  5  6  1  0
  6  7  1  0
  8  7  2  0
  9  2  1  0
 10  9  2  0
 11 12  1  0
 12 14  1  0
 12 13  2  0
 14 15  1  0
 16 17  1  0
 16 15  1  0
 18 17  1  6
 18 19  1  0
 19  9  1  0
 20 18  1  0
 21 20  2  0
 23 25  1  0
 23 22  1  1
 24 23  1  0
 25 26  1  1
 26 20  1  0
 27 25  1  0
 27 28  1  0
 29 27  2  0
M  END
$$$$
