HRT.pdb
     RDKit          3D

 29 29  0  0  1  0  0  0  0  0999 V2000
   23.2270  -13.8205  -16.0678 N   0  0  0  0  0  0  0  0  0  0  0  0
   23.9626  -12.5819  -16.1285 C   0  0  1  0  0  0  0  0  0  0  0  0
   25.1830  -12.6700  -16.9973 C   0  0  0  0  0  0  0  0  0  0  0  0
   25.9788  -13.8431  -16.5327 C   0  0  0  0  0  0  0  0  0  0  0  0
   26.5288  -14.0254  -15.2815 C   0  0  0  0  0  0  0  0  0  0  0  0
   27.1695  -15.2066  -15.2576 N   0  0  0  0  0  0  0  0  0  0  0  0
   27.0401  -15.7875  -16.4749 C   0  0  0  0  0  0  0  0  0  0  0  0
   26.3151  -14.9478  -17.2372 N   0  0  0  0  0  0  0  0  0  0  0  0
   23.0640  -11.4798  -16.4528 C   0  0  0  0  0  0  0  0  0  0  0  0
   22.2176  -11.6466  -17.3680 O   0  0  0  0  0  0  0  0  0  0  0  0
   15.4901   -9.8737  -14.0600 N   0  0  0  0  0  0  0  0  0  0  0  0
   15.7839   -8.9386  -15.0696 C   0  0  0  0  0  0  0  0  0  0  0  0
   14.8806   -8.4537  -15.8491 N   0  0  0  0  0  0  0  0  0  0  0  0
   17.1276   -8.5122  -15.2366 N   0  0  0  0  0  0  0  0  0  0  0  0
   18.2119   -9.4475  -15.0778 C   0  0  0  0  0  0  0  0  0  0  0  0
   19.5308   -8.8263  -15.5006 C   0  0  0  0  0  0  0  0  0  0  0  0
   20.6711   -9.8095  -15.4113 C   0  0  0  0  0  0  0  0  0  0  0  0
   21.9748   -9.2540  -15.8876 C   0  0  2  0  0  0  0  0  0  0  0  0
   23.0593  -10.2114  -15.8156 N   0  0  0  0  0  0  0  0  0  0  0  0
   22.3442   -8.0001  -15.1444 C   0  0  0  0  0  0  0  0  0  0  0  0
   22.9346   -8.1166  -14.0414 O   0  0  0  0  0  0  0  0  0  0  0  0
   15.0773   -7.7085  -16.5307 C   0  0  0  0  0  0  0  0  0  0  0  0
   22.4541   -3.0155  -15.3379 C   0  0  1  0  0  0  0  0  0  0  0  0
   22.0328   -4.3498  -15.8931 O   0  0  0  0  0  0  0  0  0  0  0  0
   22.5151   -4.5027  -17.1883 C   0  0  1  0  0  0  0  0  0  0  0  0
   22.5484   -5.4915  -15.0059 N   0  0  0  0  0  0  0  0  0  0  0  0
   22.0627   -6.7149  -15.6213 C   0  0  0  0  0  0  0  0  0  0  0  0
   21.8521   -5.3654  -13.6928 O   0  0  0  0  0  0  0  0  0  0  0  0
   22.4045   -4.6939  -12.6096 O   0  0  0  0  0  0  0  0  0  0  0  0
  2  1  1  6
  3  2  1  0
  3  4  1  0
  4  5  2  0
  4  8  1  0
  5  6  1  0
  6  7  1  0
  8  7  2  0
  9  2  1  0
 10  9  2  0
 11 12  1  0
 12 14  1  0
 12 13  2  0
 14 15  1  0
 16 17  1  0
 16 15  1  0
 18 17  1  1
 18 19  1  0
 19  9  1  0
 20 18  1  0
 21 20  2  0
 23 25  1  0
 23 22  1  6
 24 23  1  0
 25 26  1  6
 26 20  1  0
 27 25  1  0
 27 28  1  0
 29 27  2  0
M  END
$$$$
