HRT.pdb
     RDKit          3D

 29 29  0  0  1  0  0  0  0  0999 V2000
   27.6536  -19.8418  -16.1083 N   0  0  0  0  0  0  0  0  0  0  0  0
   26.4389  -20.6140  -16.1935 C   0  0  1  0  0  0  0  0  0  0  0  0
   26.5563  -21.9602  -15.5409 C   0  0  0  0  0  0  0  0  0  0  0  0
   27.7240  -22.6551  -16.1562 C   0  0  0  0  0  0  0  0  0  0  0  0
   27.9809  -22.8054  -17.5025 C   0  0  0  0  0  0  0  0  0  0  0  0
   29.1284  -23.4892  -17.6512 N   0  0  0  0  0  0  0  0  0  0  0  0
   29.6141  -23.7813  -16.4204 C   0  0  0  0  0  0  0  0  0  0  0  0
   28.7507  -23.2684  -15.5241 N   0  0  0  0  0  0  0  0  0  0  0  0
   25.3042  -19.8165  -15.7421 C   0  0  0  0  0  0  0  0  0  0  0  0
   25.3721  -19.2629  -14.6147 O   0  0  0  0  0  0  0  0  0  0  0  0
   18.6124  -14.6914  -16.4992 N   0  0  0  0  0  0  0  0  0  0  0  0
   19.7715  -14.2197  -17.1425 C   0  0  0  0  0  0  0  0  0  0  0  0
   20.0157  -12.9647  -17.2980 N   0  0  0  0  0  0  0  0  0  0  0  0
   20.7091  -15.1623  -17.6398 N   0  0  0  0  0  0  0  0  0  0  0  0
   20.3808  -16.5648  -17.6750 C   0  0  0  0  0  0  0  0  0  0  0  0
   21.0742  -17.3129  -16.5510 C   0  0  0  0  0  0  0  0  0  0  0  0
   22.3290  -18.0036  -17.0237 C   0  0  0  0  0  0  0  0  0  0  0  0
   22.9548  -18.8778  -15.9849 C   0  0  2  0  0  0  0  0  0  0  0  0
   24.1073  -19.6053  -16.4753 N   0  0  0  0  0  0  0  0  0  0  0  0
   21.9555  -19.8335  -15.3939 C   0  0  0  0  0  0  0  0  0  0  0  0
   21.5354  -20.7730  -16.1147 O   0  0  0  0  0  0  0  0  0  0  0  0
   20.8737  -12.6176  -17.7473 C   0  0  0  0  0  0  0  0  0  0  0  0
   21.1173  -19.4411  -11.3755 C   0  0  2  0  0  0  0  0  0  0  0  0
   20.9803  -20.7966  -12.0158 O   0  0  0  0  0  0  0  0  0  0  0  0
   20.0592  -21.5663  -11.3140 C   0  0  1  0  0  0  0  0  0  0  0  0
   20.5391  -20.6605  -13.4798 N   0  0  0  0  0  0  0  0  0  0  0  0
   21.4734  -19.7263  -14.0846 C   0  0  0  0  0  0  0  0  0  0  0  0
   19.2072  -19.9890  -13.4682 O   0  0  0  0  0  0  0  0  0  0  0  0
   18.0426  -20.6344  -13.0723 O   0  0  0  0  0  0  0  0  0  0  0  0
  2  1  1  1
  3  2  1  0
  3  4  1  0
  4  5  2  0
  4  8  1  0
  5  6  1  0
  6  7  1  0
  8  7  2  0
  9  2  1  0
 10  9  2  0
 11 12  1  0
 12 14  1  0
 12 13  2  0
 14 15  1  0
 16 17  1  0
 16 15  1  0
 18 17  1  6
 18 19  1  0
 19  9  1  0
 20 18  1  0
 21 20  2  0
 23 25  1  0
 23 22  1  1
 24 23  1  0
 25 26  1  1
 26 20  1  0
 27 25  1  0
 27 28  1  0
 29 27  2  0
M  END
$$$$
