HRT.pdb
     RDKit          3D

 29 29  0  0  1  0  0  0  0  0999 V2000
   24.6524  -11.9230  -18.0446 N   0  0  0  0  0  0  0  0  0  0  0  0
   24.7267  -11.2806  -16.7558 C   0  0  1  0  0  0  0  0  0  0  0  0
   26.1248  -10.8845  -16.3811 C   0  0  0  0  0  0  0  0  0  0  0  0
   26.9405  -12.1316  -16.3160 C   0  0  0  0  0  0  0  0  0  0  0  0
   27.0236  -13.0105  -15.2569 C   0  0  0  0  0  0  0  0  0  0  0  0
   27.8615  -14.0084  -15.5863 N   0  0  0  0  0  0  0  0  0  0  0  0
   28.3192  -13.7849  -16.8420 C   0  0  0  0  0  0  0  0  0  0  0  0
   27.7512  -12.6424  -17.2709 N   0  0  0  0  0  0  0  0  0  0  0  0
   23.7473  -10.2029  -16.6749 C   0  0  0  0  0  0  0  0  0  0  0  0
   23.7685   -9.3068  -17.5573 O   0  0  0  0  0  0  0  0  0  0  0  0
   16.2281  -12.7131  -14.5865 N   0  0  0  0  0  0  0  0  0  0  0  0
   16.8545  -13.0549  -15.7993 C   0  0  0  0  0  0  0  0  0  0  0  0
   16.3455  -13.8991  -16.6281 N   0  0  0  0  0  0  0  0  0  0  0  0
   18.0954  -12.4465  -16.1232 N   0  0  0  0  0  0  0  0  0  0  0  0
   18.5526  -11.2932  -15.3906 C   0  0  0  0  0  0  0  0  0  0  0  0
   19.8865  -10.8044  -15.9250 C   0  0  0  0  0  0  0  0  0  0  0  0
   20.3967   -9.6093  -15.1593 C   0  0  0  0  0  0  0  0  0  0  0  0
   21.6966   -9.0817  -15.6760 C   0  0  2  0  0  0  0  0  0  0  0  0
   22.7532  -10.0725  -15.6701 N   0  0  0  0  0  0  0  0  0  0  0  0
   22.1341   -7.8574  -14.9205 C   0  0  0  0  0  0  0  0  0  0  0  0
   22.6494   -8.0138  -13.7853 O   0  0  0  0  0  0  0  0  0  0  0  0
   16.8300  -14.1960  -17.4859 C   0  0  0  0  0  0  0  0  0  0  0  0
   24.4550   -5.0442  -16.1038 C   0  0  2  0  0  0  0  0  0  0  0  0
   23.1060   -4.4779  -15.7494 O   0  0  0  0  0  0  0  0  0  0  0  0
   22.3158   -4.3757  -16.8890 C   0  0  2  0  0  0  0  0  0  0  0  0
   22.4065   -5.3606  -14.7065 N   0  0  0  0  0  0  0  0  0  0  0  0
   21.9949   -6.5577  -15.4200 C   0  0  0  0  0  0  0  0  0  0  0  0
   21.1583   -4.6486  -14.3063 O   0  0  0  0  0  0  0  0  0  0  0  0
   21.1591   -3.5444  -13.4636 O   0  0  0  0  0  0  0  0  0  0  0  0
  2  1  1  6
  3  2  1  0
  3  4  1  0
  4  5  2  0
  4  8  1  0
  5  6  1  0
  6  7  1  0
  8  7  2  0
  9  2  1  0
 10  9  2  0
 11 12  1  0
 12 14  1  0
 12 13  2  0
 14 15  1  0
 16 17  1  0
 16 15  1  0
 18 17  1  1
 18 19  1  0
 19  9  1  0
 20 18  1  0
 21 20  2  0
 23 25  1  0
 23 22  1  6
 24 23  1  0
 25 26  1  1
 26 20  1  0
 27 25  1  0
 27 28  1  0
 29 27  2  0
M  END
$$$$
