HRT.pdb
     RDKit          3D

 29 29  0  0  1  0  0  0  0  0999 V2000
   19.4591  -12.6235  -16.7700 N   0  0  0  0  0  0  0  0  0  0  0  0
   19.9019  -11.3792  -17.3487 C   0  0  1  0  0  0  0  0  0  0  0  0
   19.6511  -11.3009  -18.8261 C   0  0  0  0  0  0  0  0  0  0  0  0
   20.4821  -12.3549  -19.4771 C   0  0  0  0  0  0  0  0  0  0  0  0
   20.6407  -13.6587  -19.0575 C   0  0  0  0  0  0  0  0  0  0  0  0
   21.4664  -14.2908  -19.9091 N   0  0  0  0  0  0  0  0  0  0  0  0
   21.8417  -13.4130  -20.8708 C   0  0  0  0  0  0  0  0  0  0  0  0
   21.2361  -12.2430  -20.5946 N   0  0  0  0  0  0  0  0  0  0  0  0
   19.3770  -10.2544  -16.5827 C   0  0  0  0  0  0  0  0  0  0  0  0
   18.1296  -10.1272  -16.4838 O   0  0  0  0  0  0  0  0  0  0  0  0
   16.3696   -8.7753   -9.3343 N   0  0  0  0  0  0  0  0  0  0  0  0
   16.4464   -7.4341   -9.7531 C   0  0  0  0  0  0  0  0  0  0  0  0
   15.9303   -6.4667   -9.0777 N   0  0  0  0  0  0  0  0  0  0  0  0
   17.1185   -7.1343  -10.9670 N   0  0  0  0  0  0  0  0  0  0  0  0
   17.6807   -8.1925  -11.7670 C   0  0  0  0  0  0  0  0  0  0  0  0
   18.3699   -7.6341  -12.9987 C   0  0  0  0  0  0  0  0  0  0  0  0
   18.9014   -8.7275  -13.8915 C   0  0  0  0  0  0  0  0  0  0  0  0
   19.6352   -8.2144  -15.0888 C   0  0  2  0  0  0  0  0  0  0  0  0
   20.1632   -9.2717  -15.9262 N   0  0  0  0  0  0  0  0  0  0  0  0
   20.7367   -7.2688  -14.6968 C   0  0  0  0  0  0  0  0  0  0  0  0
   21.8135   -7.7567  -14.2711 O   0  0  0  0  0  0  0  0  0  0  0  0
   15.9676   -5.4879   -9.3926 C   0  0  0  0  0  0  0  0  0  0  0  0
   22.1170   -2.4852  -14.3752 C   0  0  1  0  0  0  0  0  0  0  0  0
   21.1323   -3.5521  -14.7730 O   0  0  0  0  0  0  0  0  0  0  0  0
   20.8662   -3.4734  -16.1355 C   0  0  1  0  0  0  0  0  0  0  0  0
   21.6760   -4.9453  -14.4269 N   0  0  0  0  0  0  0  0  0  0  0  0
   20.6195   -5.8771  -14.7835 C   0  0  0  0  0  0  0  0  0  0  0  0
   21.8126   -4.9985  -12.9425 O   0  0  0  0  0  0  0  0  0  0  0  0
   23.0153   -4.7631  -12.2886 O   0  0  0  0  0  0  0  0  0  0  0  0
  2  1  1  1
  3  2  1  0
  3  4  1  0
  4  5  2  0
  4  8  1  0
  5  6  1  0
  6  7  1  0
  8  7  2  0
  9  2  1  0
 10  9  2  0
 11 12  1  0
 12 14  1  0
 12 13  2  0
 14 15  1  0
 16 17  1  0
 16 15  1  0
 18 17  1  1
 18 19  1  0
 19  9  1  0
 20 18  1  0
 21 20  2  0
 23 25  1  0
 23 22  1  1
 24 23  1  0
 25 26  1  1
 26 20  1  0
 27 25  1  0
 27 28  1  0
 29 27  2  0
M  END
$$$$
