HRT.pdb
     RDKit          3D

 29 29  0  0  1  0  0  0  0  0999 V2000
   23.7118  -28.7770  -15.7303 N   0  0  0  0  0  0  0  0  0  0  0  0
   24.0127  -28.0339  -16.9288 C   0  0  1  0  0  0  0  0  0  0  0  0
   22.8227  -27.8709  -17.8284 C   0  0  0  0  0  0  0  0  0  0  0  0
   22.4113  -29.2328  -18.2768 C   0  0  0  0  0  0  0  0  0  0  0  0
   21.2880  -29.9284  -17.8828 C   0  0  0  0  0  0  0  0  0  0  0  0
   21.2726  -31.1176  -18.5090 N   0  0  0  0  0  0  0  0  0  0  0  0
   22.3696  -31.1978  -19.3004 C   0  0  0  0  0  0  0  0  0  0  0  0
   23.0502  -30.0464  -19.1484 N   0  0  0  0  0  0  0  0  0  0  0  0
   24.6937  -26.7894  -16.5902 C   0  0  0  0  0  0  0  0  0  0  0  0
   24.2712  -26.1227  -15.6109 O   0  0  0  0  0  0  0  0  0  0  0  0
   32.9280  -24.5805  -16.8706 N   0  0  0  0  0  0  0  0  0  0  0  0
   32.0141  -25.5874  -16.5088 C   0  0  0  0  0  0  0  0  0  0  0  0
   32.3849  -26.7818  -16.2015 N   0  0  0  0  0  0  0  0  0  0  0  0
   30.6294  -25.2762  -16.4812 N   0  0  0  0  0  0  0  0  0  0  0  0
   30.1773  -23.9445  -16.7943 C   0  0  0  0  0  0  0  0  0  0  0  0
   28.6723  -23.8303  -16.6336 C   0  0  0  0  0  0  0  0  0  0  0  0
   27.9690  -25.1181  -16.9824 C   0  0  0  0  0  0  0  0  0  0  0  0
   26.4783  -25.0133  -16.9379 C   0  0  2  0  0  0  0  0  0  0  0  0
   25.8122  -26.2532  -17.2803 N   0  0  0  0  0  0  0  0  0  0  0  0
   25.9775  -23.8999  -17.8158 C   0  0  0  0  0  0  0  0  0  0  0  0
   26.0676  -24.0404  -19.0611 O   0  0  0  0  0  0  0  0  0  0  0  0
   31.7152  -27.5391  -16.0102 C   0  0  0  0  0  0  0  0  0  0  0  0
   24.7021  -20.4006  -16.0071 C   0  0  2  0  0  0  0  0  0  0  0  0
   23.8816  -20.9073  -17.1629 O   0  0  0  0  0  0  0  0  0  0  0  0
   23.2939  -19.8418  -17.8359 C   0  0  1  0  0  0  0  0  0  0  0  0
   24.7544  -21.7184  -18.1307 N   0  0  0  0  0  0  0  0  0  0  0  0
   25.4183  -22.7197  -17.3133 C   0  0  0  0  0  0  0  0  0  0  0  0
   25.8168  -20.7973  -18.6287 O   0  0  0  0  0  0  0  0  0  0  0  0
   25.6391  -19.9689  -19.7294 O   0  0  0  0  0  0  0  0  0  0  0  0
  2  1  1  1
  3  2  1  0
  3  4  1  0
  4  5  2  0
  4  8  1  0
  5  6  1  0
  6  7  1  0
  8  7  2  0
  9  2  1  0
 10  9  2  0
 11 12  1  0
 12 14  1  0
 12 13  2  0
 14 15  1  0
 16 17  1  0
 16 15  1  0
 18 17  1  6
 18 19  1  0
 19  9  1  0
 20 18  1  0
 21 20  2  0
 23 25  1  0
 23 22  1  1
 24 23  1  0
 25 26  1  1
 26 20  1  0
 27 25  1  0
 27 28  1  0
 29 27  2  0
M  END
$$$$
