HRT.pdb
     RDKit          3D

 29 29  0  0  1  0  0  0  0  0999 V2000
   16.2502  -14.8252    6.1496 N   0  0  0  0  0  0  0  0  0  0  0  0
   17.2341  -15.5862    5.4202 C   0  0  1  0  0  0  0  0  0  0  0  0
   18.6251  -15.4039    5.9529 C   0  0  0  0  0  0  0  0  0  0  0  0
   18.9937  -13.9715    5.7599 C   0  0  0  0  0  0  0  0  0  0  0  0
   19.3032  -13.0577    6.7449 C   0  0  0  0  0  0  0  0  0  0  0  0
   19.5794  -11.8754    6.1683 N   0  0  0  0  0  0  0  0  0  0  0  0
   19.4523  -12.0147    4.8264 C   0  0  0  0  0  0  0  0  0  0  0  0
   19.0965  -13.2920    4.5947 N   0  0  0  0  0  0  0  0  0  0  0  0
   16.8063  -16.9753    5.3001 C   0  0  0  0  0  0  0  0  0  0  0  0
   16.1886  -17.4972    6.2635 O   0  0  0  0  0  0  0  0  0  0  0  0
   14.3496  -22.4420   -1.2424 N   0  0  0  0  0  0  0  0  0  0  0  0
   14.4636  -23.2985   -0.1318 C   0  0  0  0  0  0  0  0  0  0  0  0
   14.1289  -24.5413   -0.1780 N   0  0  0  0  0  0  0  0  0  0  0  0
   14.9670  -22.7739    1.0874 N   0  0  0  0  0  0  0  0  0  0  0  0
   15.4192  -21.4078    1.1591 C   0  0  0  0  0  0  0  0  0  0  0  0
   15.7957  -21.0347    2.5814 C   0  0  0  0  0  0  0  0  0  0  0  0
   16.2386  -19.5969    2.6884 C   0  0  0  0  0  0  0  0  0  0  0  0
   16.6266  -19.1950    4.0752 C   0  0  2  0  0  0  0  0  0  0  0  0
   17.0291  -17.8070    4.1716 N   0  0  0  0  0  0  0  0  0  0  0  0
   17.7074  -20.0844    4.6248 C   0  0  0  0  0  0  0  0  0  0  0  0
   18.6379  -20.4317    3.8552 O   0  0  0  0  0  0  0  0  0  0  0  0
   14.2242  -25.1722    0.6291 C   0  0  0  0  0  0  0  0  0  0  0  0
   19.5118  -22.3270    8.6930 C   0  0  2  0  0  0  0  0  0  0  0  0
   18.5321  -21.4085    8.0128 O   0  0  0  0  0  0  0  0  0  0  0  0
   18.6739  -20.1134    8.4988 C   0  0  1  0  0  0  0  0  0  0  0  0
   18.7450  -21.4217    6.4926 N   0  0  0  0  0  0  0  0  0  0  0  0
   17.7256  -20.5414    5.9473 C   0  0  0  0  0  0  0  0  0  0  0  0
   18.4184  -22.7995    6.0234 O   0  0  0  0  0  0  0  0  0  0  0  0
   19.3841  -23.7812    5.8418 O   0  0  0  0  0  0  0  0  0  0  0  0
  2  1  1  1
  3  2  1  0
  3  4  1  0
  4  5  2  0
  4  8  1  0
  5  6  1  0
  6  7  1  0
  8  7  2  0
  9  2  1  0
 10  9  2  0
 11 12  1  0
 12 14  1  0
 12 13  2  0
 14 15  1  0
 16 17  1  0
 16 15  1  0
 18 17  1  6
 18 19  1  0
 19  9  1  0
 20 18  1  0
 21 20  2  0
 23 25  1  0
 23 22  1  1
 24 23  1  0
 25 26  1  1
 26 20  1  0
 27 25  1  0
 27 28  1  0
 29 27  2  0
M  END
$$$$
