SIK.pdb
     RDKit          3D

 24 23  0  0  1  0  0  0  0  0999 V2000
    7.1259  -17.7470   22.2774 O   0  0  0  0  0  0  0  0  0  0  0  0
    7.7650  -17.0596   21.2573 C   0  0  0  0  0  0  0  0  0  0  0  0
    7.7222  -15.5586   21.5084 C   0  0  2  0  0  0  0  0  0  0  0  0
    8.4288  -14.8590   20.4224 N   0  0  0  0  0  0  0  0  0  0  0  0
    8.4223  -15.2425   22.7692 C   0  0  0  0  0  0  0  0  0  0  0  0
    9.6850  -15.2150   22.8350 O   0  0  0  0  0  0  0  0  0  0  0  0
    6.1474  -11.6639   25.9793 C   0  0  0  0  0  0  0  0  0  0  0  0
    7.1833  -12.4175   25.1208 C   0  0  0  0  0  0  0  0  0  0  0  0
    7.5499  -13.6343   25.8887 C   0  0  2  0  0  0  0  0  0  0  0  0
    8.1772  -13.3002   27.2367 C   0  0  0  0  0  0  0  0  0  0  0  0
    8.4150  -14.6399   25.2060 C   0  0  2  0  0  0  0  0  0  0  0  0
    7.7109  -14.9591   23.9462 N   0  0  0  0  0  0  0  0  0  0  0  0
    8.7377  -15.8480   25.9404 C   0  0  0  0  0  0  0  0  0  0  0  0
    7.8244  -16.6391   26.3502 O   0  0  0  0  0  0  0  0  0  0  0  0
   10.0665  -16.2188   26.2368 N   0  0  0  0  0  0  0  0  0  0  0  0
   10.3412  -17.5074   26.9139 C   0  0  1  0  0  0  0  0  0  0  0  0
   11.7160  -17.8919   26.4122 C   0  0  0  0  0  0  0  0  0  0  0  0
   12.2869  -19.1193   27.0255 C   0  0  0  0  0  0  0  0  0  0  0  0
   13.6808  -19.3009   26.4011 C   0  0  0  0  0  0  0  0  0  0  0  0
   14.2231  -20.6086   26.9401 C   0  0  0  0  0  0  0  0  0  0  0  0
   15.5138  -20.8743   26.2988 N   0  0  0  0  0  0  0  0  0  0  0  0
   10.3833  -17.2583   28.3677 C   0  0  0  0  0  0  0  0  0  0  0  0
   10.3203  -18.2249   29.1894 O   0  0  0  0  0  0  0  0  0  0  0  0
   10.4902  -16.0077   28.9184 O   0  0  0  0  0  0  0  0  0  0  0  0
  1  2  1  0
  2  3  1  0
  3  5  1  0
  3  4  1  6
  5 12  1  0
  6  5  2  0
  7  8  1  0
  9 11  1  0
  9 10  1  1
  9  8  1  0
 11 12  1  6
 13 11  1  0
 13 14  2  0
 15 13  1  0
 16 15  1  0
 16 22  1  0
 16 17  1  6
 18 17  1  0
 18 19  1  0
 20 19  1  0
 21 20  1  0
 22 23  2  0
 22 24  1  0
M  END
$$$$
