SIK.pdb
     RDKit          3D

 24 23  0  0  1  0  0  0  0  0999 V2000
    7.5836  -17.5544   21.1129 O   0  0  0  0  0  0  0  0  0  0  0  0
    6.6685  -16.6530   21.6340 C   0  0  0  0  0  0  0  0  0  0  0  0
    7.2209  -15.2351   21.5872 C   0  0  2  0  0  0  0  0  0  0  0  0
    8.1408  -15.1043   20.4449 N   0  0  0  0  0  0  0  0  0  0  0  0
    7.9948  -14.9593   22.8139 C   0  0  0  0  0  0  0  0  0  0  0  0
    9.2564  -15.0451   22.8326 O   0  0  0  0  0  0  0  0  0  0  0  0
    6.1151  -11.2469   26.2050 C   0  0  0  0  0  0  0  0  0  0  0  0
    7.0276  -12.0586   25.2634 C   0  0  0  0  0  0  0  0  0  0  0  0
    7.3610  -13.3105   25.9888 C   0  0  2  0  0  0  0  0  0  0  0  0
    8.0716  -13.0417   27.3097 C   0  0  0  0  0  0  0  0  0  0  0  0
    8.1327  -14.3480   25.2447 C   0  0  2  0  0  0  0  0  0  0  0  0
    7.3577  -14.5899   24.0095 N   0  0  0  0  0  0  0  0  0  0  0  0
    8.4107  -15.5929   25.9347 C   0  0  0  0  0  0  0  0  0  0  0  0
    7.4695  -16.3716   26.3031 O   0  0  0  0  0  0  0  0  0  0  0  0
    9.7243  -16.0145   26.2309 N   0  0  0  0  0  0  0  0  0  0  0  0
    9.9509  -17.3250   26.8833 C   0  0  1  0  0  0  0  0  0  0  0  0
   11.0729  -17.9402   26.0755 C   0  0  0  0  0  0  0  0  0  0  0  0
   10.6436  -18.6379   24.8356 C   0  0  0  0  0  0  0  0  0  0  0  0
   11.9345  -19.0538   24.1100 C   0  0  0  0  0  0  0  0  0  0  0  0
   11.5058  -19.6593   22.7894 C   0  0  0  0  0  0  0  0  0  0  0  0
   12.7071  -20.0621   22.0527 N   0  0  0  0  0  0  0  0  0  0  0  0
   10.4004  -17.0738   28.2662 C   0  0  0  0  0  0  0  0  0  0  0  0
   10.5486  -18.0371   29.0807 O   0  0  0  0  0  0  0  0  0  0  0  0
   10.6814  -15.8247   28.7555 O   0  0  0  0  0  0  0  0  0  0  0  0
  1  2  1  0
  2  3  1  0
  3  5  1  0
  3  4  1  6
  5 12  1  0
  6  5  2  0
  7  8  1  0
  9 11  1  0
  9 10  1  1
  9  8  1  0
 11 12  1  6
 13 11  1  0
 13 14  2  0
 15 13  1  0
 16 15  1  0
 16 22  1  0
 16 17  1  6
 18 17  1  0
 18 19  1  0
 20 19  1  0
 21 20  1  0
 22 23  2  0
 22 24  1  0
M  END
$$$$
