SIK.pdb
     RDKit          3D

 24 23  0  0  1  0  0  0  0  0999 V2000
    7.4818  -17.4948   21.3459 O   0  0  0  0  0  0  0  0  0  0  0  0
    6.5635  -16.4889   21.0881 C   0  0  0  0  0  0  0  0  0  0  0  0
    7.2496  -15.1307   21.0409 C   0  0  2  0  0  0  0  0  0  0  0  0
    8.2130  -15.1059   19.9277 N   0  0  0  0  0  0  0  0  0  0  0  0
    8.0074  -14.9098   22.2886 C   0  0  0  0  0  0  0  0  0  0  0  0
    9.2542  -15.1134   22.3493 O   0  0  0  0  0  0  0  0  0  0  0  0
    7.1001  -11.4308   27.1014 C   0  0  0  0  0  0  0  0  0  0  0  0
    8.0608  -12.5233   26.5901 C   0  0  0  0  0  0  0  0  0  0  0  0
    7.4219  -13.1033   25.3819 C   0  0  2  0  0  0  0  0  0  0  0  0
    5.9859  -13.5423   25.6415 C   0  0  0  0  0  0  0  0  0  0  0  0
    8.1368  -14.2204   24.6988 C   0  0  2  0  0  0  0  0  0  0  0  0
    7.3711  -14.4639   23.4582 N   0  0  0  0  0  0  0  0  0  0  0  0
    8.3181  -15.4499   25.4461 C   0  0  0  0  0  0  0  0  0  0  0  0
    7.3563  -16.2710   25.6159 O   0  0  0  0  0  0  0  0  0  0  0  0
    9.5567  -15.8097   26.0182 N   0  0  0  0  0  0  0  0  0  0  0  0
    9.7040  -17.1152   26.7025 C   0  0  1  0  0  0  0  0  0  0  0  0
   10.9093  -17.7388   26.0330 C   0  0  0  0  0  0  0  0  0  0  0  0
   10.7398  -18.0360   24.5868 C   0  0  0  0  0  0  0  0  0  0  0  0
   12.0497  -18.7003   24.1301 C   0  0  0  0  0  0  0  0  0  0  0  0
   11.8990  -18.9662   22.6465 C   0  0  0  0  0  0  0  0  0  0  0  0
   13.1953  -19.4024   22.1200 N   0  0  0  0  0  0  0  0  0  0  0  0
    9.9932  -16.8537   28.1257 C   0  0  0  0  0  0  0  0  0  0  0  0
   10.2395  -15.6741   28.5272 O   0  0  0  0  0  0  0  0  0  0  0  0
   10.0157  -17.8320   29.0854 O   0  0  0  0  0  0  0  0  0  0  0  0
  1  2  1  0
  2  3  1  0
  3  5  1  0
  3  4  1  6
  5 12  1  0
  6  5  2  0
  7  8  1  0
  9 11  1  0
  9 10  1  1
  9  8  1  0
 11 12  1  6
 13 11  1  0
 13 14  2  0
 15 13  1  0
 16 15  1  0
 16 22  1  0
 16 17  1  6
 18 17  1  0
 18 19  1  0
 20 19  1  0
 21 20  1  0
 22 23  2  0
 22 24  1  0
M  END
$$$$
