SIK.pdb
     RDKit          3D

 24 23  0  0  1  0  0  0  0  0999 V2000
    7.4997  -17.2258   21.8248 O   0  0  0  0  0  0  0  0  0  0  0  0
    6.4721  -16.4269   21.3480 C   0  0  0  0  0  0  0  0  0  0  0  0
    6.8562  -14.9553   21.4166 C   0  0  2  0  0  0  0  0  0  0  0  0
    7.6334  -14.5946   20.2191 N   0  0  0  0  0  0  0  0  0  0  0  0
    7.7168  -14.7176   22.5924 C   0  0  0  0  0  0  0  0  0  0  0  0
    8.9778  -14.7015   22.4959 O   0  0  0  0  0  0  0  0  0  0  0  0
    5.9539  -11.3658   26.3812 C   0  0  0  0  0  0  0  0  0  0  0  0
    6.8443  -12.0517   25.3254 C   0  0  0  0  0  0  0  0  0  0  0  0
    7.2667  -13.3457   25.9184 C   0  0  2  0  0  0  0  0  0  0  0  0
    8.0433  -13.1608   27.2164 C   0  0  0  0  0  0  0  0  0  0  0  0
    8.0316  -14.2820   25.0444 C   0  0  2  0  0  0  0  0  0  0  0  0
    7.1666  -14.4994   23.8658 N   0  0  0  0  0  0  0  0  0  0  0  0
    8.4455  -15.5452   25.6241 C   0  0  0  0  0  0  0  0  0  0  0  0
    7.5915  -16.3830   26.0677 O   0  0  0  0  0  0  0  0  0  0  0  0
    9.8018  -15.9207   25.7255 N   0  0  0  0  0  0  0  0  0  0  0  0
   10.1610  -17.2659   26.2314 C   0  0  1  0  0  0  0  0  0  0  0  0
   11.4746  -17.5700   25.5448 C   0  0  0  0  0  0  0  0  0  0  0  0
   11.3570  -17.9952   24.1256 C   0  0  0  0  0  0  0  0  0  0  0  0
   12.7864  -18.3118   23.6540 C   0  0  0  0  0  0  0  0  0  0  0  0
   12.6857  -18.6444   22.1797 C   0  0  0  0  0  0  0  0  0  0  0  0
   14.0328  -18.9245   21.6749 N   0  0  0  0  0  0  0  0  0  0  0  0
   10.3624  -17.1654   27.6898 C   0  0  0  0  0  0  0  0  0  0  0  0
   10.4999  -16.0312   28.2448 O   0  0  0  0  0  0  0  0  0  0  0  0
   10.4135  -18.2523   28.5233 O   0  0  0  0  0  0  0  0  0  0  0  0
  1  2  1  0
  2  3  1  0
  3  5  1  0
  3  4  1  6
  5 12  1  0
  6  5  2  0
  7  8  1  0
  9 11  1  0
  9 10  1  1
  9  8  1  0
 11 12  1  6
 13 11  1  0
 13 14  2  0
 15 13  1  0
 16 15  1  0
 16 22  1  0
 16 17  1  6
 18 17  1  0
 18 19  1  0
 20 19  1  0
 21 20  1  0
 22 23  2  0
 22 24  1  0
M  END
$$$$
