SIK.pdb
     RDKit          3D

 24 23  0  0  1  0  0  0  0  0999 V2000
    7.0756  -16.8319   21.0045 O   0  0  0  0  0  0  0  0  0  0  0  0
    6.2054  -15.7597   21.1260 C   0  0  0  0  0  0  0  0  0  0  0  0
    6.9745  -14.4512   21.2446 C   0  0  2  0  0  0  0  0  0  0  0  0
    7.9323  -14.3423   20.1315 N   0  0  0  0  0  0  0  0  0  0  0  0
    7.7504  -14.4393   22.5005 C   0  0  0  0  0  0  0  0  0  0  0  0
    8.9888  -14.6958   22.5146 O   0  0  0  0  0  0  0  0  0  0  0  0
    6.0597  -11.1370   26.4458 C   0  0  0  0  0  0  0  0  0  0  0  0
    6.9554  -11.8237   25.3950 C   0  0  0  0  0  0  0  0  0  0  0  0
    7.1921  -13.2029   25.8914 C   0  0  2  0  0  0  0  0  0  0  0  0
    7.8814  -13.2179   27.2503 C   0  0  0  0  0  0  0  0  0  0  0  0
    7.9193  -14.1405   24.9872 C   0  0  2  0  0  0  0  0  0  0  0  0
    7.1415  -14.1417   23.7303 N   0  0  0  0  0  0  0  0  0  0  0  0
    8.1349  -15.4927   25.4649 C   0  0  0  0  0  0  0  0  0  0  0  0
    7.1595  -16.2937   25.6515 O   0  0  0  0  0  0  0  0  0  0  0  0
    9.4225  -15.9985   25.7430 N   0  0  0  0  0  0  0  0  0  0  0  0
    9.5792  -17.3766   26.2631 C   0  0  1  0  0  0  0  0  0  0  0  0
   10.5334  -18.0249   25.2838 C   0  0  0  0  0  0  0  0  0  0  0  0
   11.0496  -19.3554   25.6983 C   0  0  0  0  0  0  0  0  0  0  0  0
   11.9530  -19.8399   24.5516 C   0  0  0  0  0  0  0  0  0  0  0  0
   12.4991  -21.1868   24.9783 C   0  0  0  0  0  0  0  0  0  0  0  0
   13.2206  -21.7741   23.8457 N   0  0  0  0  0  0  0  0  0  0  0  0
   10.2026  -17.2917   27.5979 C   0  0  0  0  0  0  0  0  0  0  0  0
   10.1981  -18.2953   28.3765 O   0  0  0  0  0  0  0  0  0  0  0  0
   10.8117  -16.1616   28.0781 O   0  0  0  0  0  0  0  0  0  0  0  0
  1  2  1  0
  2  3  1  0
  3  5  1  0
  3  4  1  6
  5 12  1  0
  6  5  2  0
  7  8  1  0
  9 11  1  0
  9 10  1  1
  9  8  1  0
 11 12  1  6
 13 11  1  0
 13 14  2  0
 15 13  1  0
 16 15  1  0
 16 22  1  0
 16 17  1  6
 18 17  1  0
 18 19  1  0
 20 19  1  0
 21 20  1  0
 22 23  2  0
 22 24  1  0
M  END
$$$$
