SIK.pdb
     RDKit          3D

 24 23  0  0  1  0  0  0  0  0999 V2000
    5.8918  -17.0203   20.2095 O   0  0  0  0  0  0  0  0  0  0  0  0
    6.7468  -16.6656   21.2413 C   0  0  0  0  0  0  0  0  0  0  0  0
    6.9322  -15.1554   21.2937 C   0  0  2  0  0  0  0  0  0  0  0  0
    7.6794  -14.7112   20.1051 N   0  0  0  0  0  0  0  0  0  0  0  0
    7.7299  -14.7905   22.4812 C   0  0  0  0  0  0  0  0  0  0  0  0
    8.9941  -14.8222   22.4633 O   0  0  0  0  0  0  0  0  0  0  0  0
    5.9092  -11.2662   26.1999 C   0  0  0  0  0  0  0  0  0  0  0  0
    6.8164  -11.9911   25.1852 C   0  0  0  0  0  0  0  0  0  0  0  0
    7.1196  -13.3188   25.7764 C   0  0  2  0  0  0  0  0  0  0  0  0
    7.8161  -13.2050   27.1270 C   0  0  0  0  0  0  0  0  0  0  0  0
    7.8847  -14.2843   24.9350 C   0  0  2  0  0  0  0  0  0  0  0  0
    7.1136  -14.3929   23.6786 N   0  0  0  0  0  0  0  0  0  0  0  0
    8.1469  -15.5950   25.4976 C   0  0  0  0  0  0  0  0  0  0  0  0
    7.1987  -16.4115   25.7471 O   0  0  0  0  0  0  0  0  0  0  0  0
    9.4521  -16.0419   25.7935 N   0  0  0  0  0  0  0  0  0  0  0  0
    9.6560  -17.3736   26.4096 C   0  0  1  0  0  0  0  0  0  0  0  0
   10.6285  -18.0582   25.4740 C   0  0  0  0  0  0  0  0  0  0  0  0
   11.1888  -19.3387   25.9789 C   0  0  0  0  0  0  0  0  0  0  0  0
   12.0894  -19.8834   24.8573 C   0  0  0  0  0  0  0  0  0  0  0  0
   12.6515  -21.1967   25.3609 C   0  0  0  0  0  0  0  0  0  0  0  0
   13.4543  -21.7973   24.2919 N   0  0  0  0  0  0  0  0  0  0  0  0
   10.2798  -17.1733   27.7317 C   0  0  0  0  0  0  0  0  0  0  0  0
   10.8388  -16.0698   28.0201 O   0  0  0  0  0  0  0  0  0  0  0  0
   10.3003  -18.1313   28.7117 O   0  0  0  0  0  0  0  0  0  0  0  0
  1  2  1  0
  2  3  1  0
  3  5  1  0
  3  4  1  6
  5 12  1  0
  6  5  2  0
  7  8  1  0
  9 11  1  0
  9 10  1  1
  9  8  1  0
 11 12  1  6
 13 11  1  0
 13 14  2  0
 15 13  1  0
 16 15  1  0
 16 22  1  0
 16 17  1  6
 18 17  1  0
 18 19  1  0
 20 19  1  0
 21 20  1  0
 22 23  2  0
 22 24  1  0
M  END
$$$$
