SIK.pdb
     RDKit          3D

 24 23  0  0  1  0  0  0  0  0999 V2000
    7.0600  -17.0169   21.0743 O   0  0  0  0  0  0  0  0  0  0  0  0
    5.9800  -16.1620   21.2312 C   0  0  0  0  0  0  0  0  0  0  0  0
    6.4348  -14.7092   21.2142 C   0  0  2  0  0  0  0  0  0  0  0  0
    7.1344  -14.4288   19.9492 N   0  0  0  0  0  0  0  0  0  0  0  0
    7.3921  -14.4721   22.3127 C   0  0  0  0  0  0  0  0  0  0  0  0
    8.6391  -14.4311   22.1053 O   0  0  0  0  0  0  0  0  0  0  0  0
    5.9939  -11.3930   26.5339 C   0  0  0  0  0  0  0  0  0  0  0  0
    6.8059  -11.9675   25.3554 C   0  0  0  0  0  0  0  0  0  0  0  0
    7.2302  -13.3285   25.7704 C   0  0  2  0  0  0  0  0  0  0  0  0
    8.0890  -13.3079   27.0290 C   0  0  0  0  0  0  0  0  0  0  0  0
    7.9161  -14.1728   24.7494 C   0  0  2  0  0  0  0  0  0  0  0  0
    6.9534  -14.2823   23.6331 N   0  0  0  0  0  0  0  0  0  0  0  0
    8.3751  -15.4829   25.1688 C   0  0  0  0  0  0  0  0  0  0  0  0
    7.5523  -16.3952   25.5131 O   0  0  0  0  0  0  0  0  0  0  0  0
    9.7435  -15.8240   25.2150 N   0  0  0  0  0  0  0  0  0  0  0  0
   10.1495  -17.2101   25.5441 C   0  0  1  0  0  0  0  0  0  0  0  0
   11.3075  -17.4781   24.6076 C   0  0  0  0  0  0  0  0  0  0  0  0
   11.8991  -18.8372   24.7146 C   0  0  0  0  0  0  0  0  0  0  0  0
   13.0729  -18.8722   23.7213 C   0  0  0  0  0  0  0  0  0  0  0  0
   13.7148  -20.2365   23.8667 C   0  0  0  0  0  0  0  0  0  0  0  0
   14.7073  -20.3976   22.8004 N   0  0  0  0  0  0  0  0  0  0  0  0
   10.6149  -17.2284   26.9443 C   0  0  0  0  0  0  0  0  0  0  0  0
   10.9233  -16.1471   27.5351 O   0  0  0  0  0  0  0  0  0  0  0  0
   10.7434  -18.3750   27.6840 O   0  0  0  0  0  0  0  0  0  0  0  0
  1  2  1  0
  2  3  1  0
  3  5  1  0
  3  4  1  6
  5 12  1  0
  6  5  2  0
  7  8  1  0
  9 11  1  0
  9 10  1  1
  9  8  1  0
 11 12  1  6
 13 11  1  0
 13 14  2  0
 15 13  1  0
 16 15  1  0
 16 22  1  0
 16 17  1  6
 18 17  1  0
 18 19  1  0
 20 19  1  0
 21 20  1  0
 22 23  2  0
 22 24  1  0
M  END
$$$$
