SIK.pdb
     RDKit          3D

 24 23  0  0  1  0  0  0  0  0999 V2000
    5.9041  -16.9791   20.2526 O   0  0  0  0  0  0  0  0  0  0  0  0
    6.8062  -16.6695   21.2585 C   0  0  0  0  0  0  0  0  0  0  0  0
    6.9302  -15.1615   21.4271 C   0  0  2  0  0  0  0  0  0  0  0  0
    7.5521  -14.5828   20.2244 N   0  0  0  0  0  0  0  0  0  0  0  0
    7.8109  -14.8572   22.5722 C   0  0  0  0  0  0  0  0  0  0  0  0
    9.0699  -14.8460   22.4529 O   0  0  0  0  0  0  0  0  0  0  0  0
    6.0924  -11.5079   26.4067 C   0  0  0  0  0  0  0  0  0  0  0  0
    6.9970  -12.1643   25.3443 C   0  0  0  0  0  0  0  0  0  0  0  0
    7.4324  -13.4630   25.9172 C   0  0  2  0  0  0  0  0  0  0  0  0
    8.2510  -13.2880   27.1905 C   0  0  0  0  0  0  0  0  0  0  0  0
    8.1645  -14.3984   25.0147 C   0  0  2  0  0  0  0  0  0  0  0  0
    7.2827  -14.5674   23.8406 N   0  0  0  0  0  0  0  0  0  0  0  0
    8.5519  -15.6843   25.5618 C   0  0  0  0  0  0  0  0  0  0  0  0
    7.6817  -16.5719   25.8499 O   0  0  0  0  0  0  0  0  0  0  0  0
    9.8995  -16.0283   25.7999 N   0  0  0  0  0  0  0  0  0  0  0  0
   10.2429  -17.3893   26.2730 C   0  0  1  0  0  0  0  0  0  0  0  0
   11.4685  -17.7534   25.4637 C   0  0  0  0  0  0  0  0  0  0  0  0
   12.1397  -19.0142   25.8743 C   0  0  0  0  0  0  0  0  0  0  0  0
   13.3473  -19.1810   24.9364 C   0  0  0  0  0  0  0  0  0  0  0  0
   14.0380  -20.4630   25.3536 C   0  0  0  0  0  0  0  0  0  0  0  0
   15.1290  -20.7290   24.4119 N   0  0  0  0  0  0  0  0  0  0  0  0
   10.5887  -17.3004   27.7048 C   0  0  0  0  0  0  0  0  0  0  0  0
   10.8146  -16.1729   28.2444 O   0  0  0  0  0  0  0  0  0  0  0  0
   10.6874  -18.3913   28.5286 O   0  0  0  0  0  0  0  0  0  0  0  0
  1  2  1  0
  2  3  1  0
  3  5  1  0
  3  4  1  6
  5 12  1  0
  6  5  2  0
  7  8  1  0
  9 11  1  0
  9 10  1  1
  9  8  1  0
 11 12  1  6
 13 11  1  0
 13 14  2  0
 15 13  1  0
 16 15  1  0
 16 22  1  0
 16 17  1  6
 18 17  1  0
 18 19  1  0
 20 19  1  0
 21 20  1  0
 22 23  2  0
 22 24  1  0
M  END
$$$$
