SIK.pdb
     RDKit          3D

 24 23  0  0  1  0  0  0  0  0999 V2000
    7.1562  -15.8845   20.3452 O   0  0  0  0  0  0  0  0  0  0  0  0
    6.2389  -14.8657   20.5505 C   0  0  0  0  0  0  0  0  0  0  0  0
    6.9469  -13.5651   20.9042 C   0  0  2  0  0  0  0  0  0  0  0  0
    7.8573  -13.1886   19.8099 N   0  0  0  0  0  0  0  0  0  0  0  0
    7.7664  -13.7560   22.1174 C   0  0  0  0  0  0  0  0  0  0  0  0
    9.0097  -13.9764   22.0470 O   0  0  0  0  0  0  0  0  0  0  0  0
    6.2048  -11.2623   26.6713 C   0  0  0  0  0  0  0  0  0  0  0  0
    7.0751  -11.7313   25.4877 C   0  0  0  0  0  0  0  0  0  0  0  0
    7.3080  -13.1829   25.6955 C   0  0  2  0  0  0  0  0  0  0  0  0
    8.0195  -13.4719   27.0116 C   0  0  0  0  0  0  0  0  0  0  0  0
    8.0117  -13.9256   24.6098 C   0  0  2  0  0  0  0  0  0  0  0  0
    7.1950  -13.6995   23.3988 N   0  0  0  0  0  0  0  0  0  0  0  0
    8.2498  -15.3409   24.8180 C   0  0  0  0  0  0  0  0  0  0  0  0
    7.2838  -16.1681   24.9202 O   0  0  0  0  0  0  0  0  0  0  0  0
    9.5497  -15.8815   24.9130 N   0  0  0  0  0  0  0  0  0  0  0  0
    9.7354  -17.3479   25.0112 C   0  0  1  0  0  0  0  0  0  0  0  0
   10.8217  -17.6418   23.9995 C   0  0  0  0  0  0  0  0  0  0  0  0
   11.3240  -19.0405   24.0070 C   0  0  0  0  0  0  0  0  0  0  0  0
   12.3963  -19.1158   22.9069 C   0  0  0  0  0  0  0  0  0  0  0  0
   12.8548  -20.5585   22.8556 C   0  0  0  0  0  0  0  0  0  0  0  0
   13.8504  -20.6906   21.7881 N   0  0  0  0  0  0  0  0  0  0  0  0
   10.2134  -17.6566   26.3727 C   0  0  0  0  0  0  0  0  0  0  0  0
   10.2973  -18.8605   26.7688 O   0  0  0  0  0  0  0  0  0  0  0  0
   10.5894  -16.6986   27.2780 O   0  0  0  0  0  0  0  0  0  0  0  0
  1  2  1  0
  2  3  1  0
  3  5  1  0
  3  4  1  6
  5 12  1  0
  6  5  2  0
  7  8  1  0
  9 11  1  0
  9 10  1  1
  9  8  1  0
 11 12  1  6
 13 11  1  0
 13 14  2  0
 15 13  1  0
 16 15  1  0
 16 22  1  0
 16 17  1  6
 18 17  1  0
 18 19  1  0
 20 19  1  0
 21 20  1  0
 22 23  2  0
 22 24  1  0
M  END
$$$$
