SIK.pdb
     RDKit          3D

 24 23  0  0  1  0  0  0  0  0999 V2000
    7.6512  -17.4155   21.7846 O   0  0  0  0  0  0  0  0  0  0  0  0
    6.6096  -16.5824   21.4070 C   0  0  0  0  0  0  0  0  0  0  0  0
    7.0387  -15.1228   21.4617 C   0  0  2  0  0  0  0  0  0  0  0  0
    7.9198  -14.8272   20.3195 N   0  0  0  0  0  0  0  0  0  0  0  0
    7.8123  -14.8750   22.6945 C   0  0  0  0  0  0  0  0  0  0  0  0
    9.0759  -14.9255   22.7032 O   0  0  0  0  0  0  0  0  0  0  0  0
    5.9067  -11.3366   26.2345 C   0  0  0  0  0  0  0  0  0  0  0  0
    6.8519  -12.0897   25.2768 C   0  0  0  0  0  0  0  0  0  0  0  0
    7.1708  -13.3793   25.9399 C   0  0  2  0  0  0  0  0  0  0  0  0
    7.8664  -13.1832   27.2814 C   0  0  0  0  0  0  0  0  0  0  0  0
    7.9466  -14.3807   25.1520 C   0  0  2  0  0  0  0  0  0  0  0  0
    7.1726  -14.5725   23.9075 N   0  0  0  0  0  0  0  0  0  0  0  0
    8.2298  -15.6529   25.7879 C   0  0  0  0  0  0  0  0  0  0  0  0
    7.2909  -16.4393   26.1455 O   0  0  0  0  0  0  0  0  0  0  0  0
    9.5461  -16.0938   26.0407 N   0  0  0  0  0  0  0  0  0  0  0  0
    9.7756  -17.4170   26.6659 C   0  0  1  0  0  0  0  0  0  0  0  0
   10.9039  -18.0099   25.8503 C   0  0  0  0  0  0  0  0  0  0  0  0
   10.5312  -18.4254   24.4730 C   0  0  0  0  0  0  0  0  0  0  0  0
   11.8391  -18.8555   23.7873 C   0  0  0  0  0  0  0  0  0  0  0  0
   11.4901  -19.1370   22.3404 C   0  0  0  0  0  0  0  0  0  0  0  0
   12.7171  -19.5126   21.6324 N   0  0  0  0  0  0  0  0  0  0  0  0
   10.2177  -17.1936   28.0560 C   0  0  0  0  0  0  0  0  0  0  0  0
   10.6211  -16.0481   28.4279 O   0  0  0  0  0  0  0  0  0  0  0  0
   10.2244  -18.1733   29.0145 O   0  0  0  0  0  0  0  0  0  0  0  0
  1  2  1  0
  2  3  1  0
  3  5  1  0
  3  4  1  6
  5 12  1  0
  6  5  2  0
  7  8  1  0
  9 11  1  0
  9 10  1  1
  9  8  1  0
 11 12  1  6
 13 11  1  0
 13 14  2  0
 15 13  1  0
 16 15  1  0
 16 22  1  0
 16 17  1  6
 18 17  1  0
 18 19  1  0
 20 19  1  0
 21 20  1  0
 22 23  2  0
 22 24  1  0
M  END
$$$$
