SIK.pdb
     RDKit          3D

 24 23  0  0  1  0  0  0  0  0999 V2000
    6.8843  -17.3941   20.3969 O   0  0  0  0  0  0  0  0  0  0  0  0
    7.3991  -16.9754   21.6140 C   0  0  0  0  0  0  0  0  0  0  0  0
    7.4584  -15.4556   21.6808 C   0  0  2  0  0  0  0  0  0  0  0  0
    8.1867  -14.9409   20.5091 N   0  0  0  0  0  0  0  0  0  0  0  0
    8.2028  -15.0367   22.8850 C   0  0  0  0  0  0  0  0  0  0  0  0
    9.4655  -14.9650   22.8897 O   0  0  0  0  0  0  0  0  0  0  0  0
    5.9654  -11.5631   26.3080 C   0  0  0  0  0  0  0  0  0  0  0  0
    6.9945  -12.2425   25.3820 C   0  0  0  0  0  0  0  0  0  0  0  0
    7.4321  -13.4753   26.0843 C   0  0  2  0  0  0  0  0  0  0  0  0
    8.1231  -13.1722   27.4082 C   0  0  0  0  0  0  0  0  0  0  0  0
    8.2834  -14.4329   25.3202 C   0  0  2  0  0  0  0  0  0  0  0  0
    7.5353  -14.7009   24.0739 N   0  0  0  0  0  0  0  0  0  0  0  0
    8.6506  -15.6704   25.9811 C   0  0  0  0  0  0  0  0  0  0  0  0
    7.7655  -16.5056   26.3645 O   0  0  0  0  0  0  0  0  0  0  0  0
    9.9938  -16.0227   26.2311 N   0  0  0  0  0  0  0  0  0  0  0  0
   10.3123  -17.3291   26.8526 C   0  0  1  0  0  0  0  0  0  0  0  0
   11.6142  -17.7327   26.1954 C   0  0  0  0  0  0  0  0  0  0  0  0
   11.6780  -19.1481   25.7465 C   0  0  0  0  0  0  0  0  0  0  0  0
   11.7864  -19.1059   24.2128 C   0  0  0  0  0  0  0  0  0  0  0  0
   11.9215  -20.5434   23.7547 C   0  0  0  0  0  0  0  0  0  0  0  0
   11.8357  -20.5735   22.2919 N   0  0  0  0  0  0  0  0  0  0  0  0
   10.5204  -17.1082   28.2967 C   0  0  0  0  0  0  0  0  0  0  0  0
   10.7277  -18.0898   29.0757 O   0  0  0  0  0  0  0  0  0  0  0  0
   10.5059  -15.8690   28.8824 O   0  0  0  0  0  0  0  0  0  0  0  0
  1  2  1  0
  2  3  1  0
  3  5  1  0
  3  4  1  6
  5 12  1  0
  6  5  2  0
  7  8  1  0
  9 11  1  0
  9 10  1  1
  9  8  1  0
 11 12  1  6
 13 11  1  0
 13 14  2  0
 15 13  1  0
 16 15  1  0
 16 22  1  0
 16 17  1  6
 18 17  1  0
 18 19  1  0
 20 19  1  0
 21 20  1  0
 22 23  2  0
 22 24  1  0
M  END
$$$$
