SIK.pdb
     RDKit          3D

 24 23  0  0  1  0  0  0  0  0999 V2000
    7.0636  -16.8605   21.1843 O   0  0  0  0  0  0  0  0  0  0  0  0
    6.2238  -15.7716   21.0093 C   0  0  0  0  0  0  0  0  0  0  0  0
    6.9994  -14.4670   21.1287 C   0  0  2  0  0  0  0  0  0  0  0  0
    7.9487  -14.3562   20.0085 N   0  0  0  0  0  0  0  0  0  0  0  0
    7.7855  -14.4653   22.3784 C   0  0  0  0  0  0  0  0  0  0  0  0
    9.0033  -14.8064   22.3935 O   0  0  0  0  0  0  0  0  0  0  0  0
    6.0481  -11.1067   26.2939 C   0  0  0  0  0  0  0  0  0  0  0  0
    6.9388  -11.7751   25.2272 C   0  0  0  0  0  0  0  0  0  0  0  0
    7.2715  -13.1235   25.7522 C   0  0  2  0  0  0  0  0  0  0  0  0
    8.0187  -13.0594   27.0787 C   0  0  0  0  0  0  0  0  0  0  0  0
    8.0086  -14.0491   24.8438 C   0  0  2  0  0  0  0  0  0  0  0  0
    7.2095  -14.0837   23.6008 N   0  0  0  0  0  0  0  0  0  0  0  0
    8.2701  -15.3902   25.3297 C   0  0  0  0  0  0  0  0  0  0  0  0
    7.3236  -16.2267   25.5100 O   0  0  0  0  0  0  0  0  0  0  0  0
    9.5728  -15.8461   25.6231 N   0  0  0  0  0  0  0  0  0  0  0  0
    9.7971  -17.2672   25.9760 C   0  0  1  0  0  0  0  0  0  0  0  0
   10.9873  -17.6647   25.1303 C   0  0  0  0  0  0  0  0  0  0  0  0
   11.4917  -19.0427   25.3654 C   0  0  0  0  0  0  0  0  0  0  0  0
   12.6676  -19.2395   24.3936 C   0  0  0  0  0  0  0  0  0  0  0  0
   13.1790  -20.6469   24.6217 C   0  0  0  0  0  0  0  0  0  0  0  0
   14.3847  -20.8388   23.8109 N   0  0  0  0  0  0  0  0  0  0  0  0
   10.1484  -17.3312   27.4078 C   0  0  0  0  0  0  0  0  0  0  0  0
   10.1246  -18.4392   28.0283 O   0  0  0  0  0  0  0  0  0  0  0  0
   10.5138  -16.2364   28.1469 O   0  0  0  0  0  0  0  0  0  0  0  0
  1  2  1  0
  2  3  1  0
  3  5  1  0
  3  4  1  6
  5 12  1  0
  6  5  2  0
  7  8  1  0
  9 11  1  0
  9 10  1  1
  9  8  1  0
 11 12  1  6
 13 11  1  0
 13 14  2  0
 15 13  1  0
 16 15  1  0
 16 22  1  0
 16 17  1  6
 18 17  1  0
 18 19  1  0
 20 19  1  0
 21 20  1  0
 22 23  2  0
 22 24  1  0
M  END
$$$$
