SIK.pdb
     RDKit          3D

 24 23  0  0  1  0  0  0  0  0999 V2000
    6.1690  -16.4802   21.4175 O   0  0  0  0  0  0  0  0  0  0  0  0
    6.8095  -15.6862   20.4789 C   0  0  0  0  0  0  0  0  0  0  0  0
    6.9526  -14.2583   20.9872 C   0  0  2  0  0  0  0  0  0  0  0  0
    7.6686  -13.4504   19.9858 N   0  0  0  0  0  0  0  0  0  0  0  0
    7.7576  -14.2465   22.2247 C   0  0  0  0  0  0  0  0  0  0  0  0
    9.0155  -14.3747   22.1961 O   0  0  0  0  0  0  0  0  0  0  0  0
    6.0650  -11.2022   26.3481 C   0  0  0  0  0  0  0  0  0  0  0  0
    6.9398  -11.8271   25.2425 C   0  0  0  0  0  0  0  0  0  0  0  0
    7.2171  -13.2207   25.6729 C   0  0  2  0  0  0  0  0  0  0  0  0
    7.9159  -13.2799   27.0258 C   0  0  0  0  0  0  0  0  0  0  0  0
    7.9630  -14.0954   24.7220 C   0  0  2  0  0  0  0  0  0  0  0  0
    7.1556  -14.0917   23.4839 N   0  0  0  0  0  0  0  0  0  0  0  0
    8.2500  -15.4509   25.1500 C   0  0  0  0  0  0  0  0  0  0  0  0
    7.3184  -16.3086   25.3060 O   0  0  0  0  0  0  0  0  0  0  0  0
    9.5627  -15.8979   25.4108 N   0  0  0  0  0  0  0  0  0  0  0  0
    9.7985  -17.3028   25.8171 C   0  0  1  0  0  0  0  0  0  0  0  0
   10.9550  -17.7407   24.9450 C   0  0  0  0  0  0  0  0  0  0  0  0
   11.5804  -19.0315   25.3340 C   0  0  0  0  0  0  0  0  0  0  0  0
   12.7672  -19.2373   24.3775 C   0  0  0  0  0  0  0  0  0  0  0  0
   13.4090  -20.5520   24.7701 C   0  0  0  0  0  0  0  0  0  0  0  0
   14.3985  -20.9076   23.7491 N   0  0  0  0  0  0  0  0  0  0  0  0
   10.2040  -17.3049   27.2359 C   0  0  0  0  0  0  0  0  0  0  0  0
   10.5690  -16.2288   27.8035 O   0  0  0  0  0  0  0  0  0  0  0  0
   10.2155  -18.4304   28.0180 O   0  0  0  0  0  0  0  0  0  0  0  0
  1  2  1  0
  2  3  1  0
  3  5  1  0
  3  4  1  6
  5 12  1  0
  6  5  2  0
  7  8  1  0
  9 11  1  0
  9 10  1  1
  9  8  1  0
 11 12  1  6
 13 11  1  0
 13 14  2  0
 15 13  1  0
 16 15  1  0
 16 22  1  0
 16 17  1  6
 18 17  1  0
 18 19  1  0
 20 19  1  0
 21 20  1  0
 22 23  2  0
 22 24  1  0
M  END
$$$$
