PSF.pdb
     RDKit          3D

 25 26  0  0  1  0  0  0  0  0999 V2000
    8.6825  -14.8318   17.2131 N   0  0  0  0  0  0  0  0  0  0  0  0
    7.3821  -14.2336   17.1744 C   0  0  0  0  0  0  0  0  0  0  0  0
    7.7283  -12.7729   17.5001 C   0  0  0  0  0  0  0  0  0  0  0  0
    8.6687  -13.0125   18.6897 C   0  0  0  0  0  0  0  0  0  0  0  0
    9.2291  -14.3994   18.4573 C   0  0  1  0  0  0  0  0  0  0  0  0
    8.8744  -15.2719   19.5938 C   0  0  0  0  0  0  0  0  0  0  0  0
    7.6651  -15.3319   19.9543 O   0  0  0  0  0  0  0  0  0  0  0  0
   11.6524  -17.4216   21.9195 O   0  0  0  0  0  0  0  0  0  0  0  0
   10.3964  -17.9800   21.7216 C   0  0  0  0  0  0  0  0  0  0  0  0
    9.3715  -16.8977   21.4405 C   0  0  2  0  0  0  0  0  0  0  0  0
    9.7950  -16.0636   20.3291 N   0  0  0  0  0  0  0  0  0  0  0  0
    9.2290  -16.0170   22.6305 C   0  0  0  0  0  0  0  0  0  0  0  0
    9.8997  -14.9333   22.6793 O   0  0  0  0  0  0  0  0  0  0  0  0
    8.3873  -16.3139   23.7167 N   0  0  0  0  0  0  0  0  0  0  0  0
    8.2683  -15.3743   24.8197 C   0  0  1  0  0  0  0  0  0  0  0  0
    7.1687  -14.3906   24.5142 C   0  0  0  0  0  0  0  0  0  0  0  0
    7.0533  -13.4049   25.6094 C   0  0  0  0  0  0  0  0  0  0  0  0
    5.9720  -13.4693   26.4629 C   0  0  0  0  0  0  0  0  0  0  0  0
    5.8668  -12.5578   27.4965 C   0  0  0  0  0  0  0  0  0  0  0  0
    6.8123  -11.5815   27.7032 C   0  0  0  0  0  0  0  0  0  0  0  0
    7.8891  -11.5184   26.8523 C   0  0  0  0  0  0  0  0  0  0  0  0
    7.9953  -12.4353   25.8123 C   0  0  0  0  0  0  0  0  0  0  0  0
    8.0811  -16.1106   26.0906 C   0  0  0  0  0  0  0  0  0  0  0  0
    8.7722  -15.7163   27.2567 O   0  0  0  0  0  0  0  0  0  0  0  0
    7.3265  -17.1037   26.2358 O   0  0  0  0  0  0  0  0  0  0  0  0
  1  2  1  0
  3  2  1  0
  4  3  1  0
  5  4  1  0
  5  6  1  1
  5  1  1  0
  6  7  2  0
  9  8  1  0
 10  9  1  1
 10 12  1  0
 11 10  1  0
 11  6  1  0
 12 14  1  0
 13 12  2  0
 14 15  1  0
 15 16  1  6
 16 17  1  0
 17 22  1  0
 17 18  2  0
 18 19  1  0
 19 20  2  0
 21 20  1  0
 22 21  2  0
 23 24  1  0
 23 15  1  0
 25 23  2  0
M  END
$$$$
