PSF.pdb
     RDKit          3D

 25 26  0  0  1  0  0  0  0  0999 V2000
    8.9216  -14.5047   18.8896 N   0  0  0  0  0  0  0  0  0  0  0  0
    7.6038  -14.2807   18.3763 C   0  0  0  0  0  0  0  0  0  0  0  0
    7.4514  -12.7725   18.6249 C   0  0  0  0  0  0  0  0  0  0  0  0
    7.9700  -12.7175   20.0688 C   0  0  0  0  0  0  0  0  0  0  0  0
    8.8984  -13.9076   20.1845 C   0  0  1  0  0  0  0  0  0  0  0  0
    8.4113  -14.8125   21.2439 C   0  0  0  0  0  0  0  0  0  0  0  0
    7.2157  -14.6959   21.6348 O   0  0  0  0  0  0  0  0  0  0  0  0
   10.5105  -18.1309   22.6001 O   0  0  0  0  0  0  0  0  0  0  0  0
    9.1288  -18.1064   22.7367 C   0  0  0  0  0  0  0  0  0  0  0  0
    8.6362  -16.6815   22.9043 C   0  0  2  0  0  0  0  0  0  0  0  0
    9.1879  -15.8212   21.8719 N   0  0  0  0  0  0  0  0  0  0  0  0
    9.0822  -16.1451   24.2177 C   0  0  0  0  0  0  0  0  0  0  0  0
   10.1421  -15.4373   24.2668 O   0  0  0  0  0  0  0  0  0  0  0  0
    8.3942  -16.3756   25.4219 N   0  0  0  0  0  0  0  0  0  0  0  0
    8.9627  -15.9209   26.6803 C   0  0  1  0  0  0  0  0  0  0  0  0
    7.8857  -15.2544   27.4965 C   0  0  0  0  0  0  0  0  0  0  0  0
    7.4433  -14.0110   26.8309 C   0  0  0  0  0  0  0  0  0  0  0  0
    6.2373  -13.9971   26.1621 C   0  0  0  0  0  0  0  0  0  0  0  0
    5.8134  -12.8330   25.5496 C   0  0  0  0  0  0  0  0  0  0  0  0
    6.5605  -11.6795   25.5854 C   0  0  0  0  0  0  0  0  0  0  0  0
    7.7617  -11.6946   26.2521 C   0  0  0  0  0  0  0  0  0  0  0  0
    8.1884  -12.8657   26.8685 C   0  0  0  0  0  0  0  0  0  0  0  0
    9.6283  -17.0497   27.3695 C   0  0  0  0  0  0  0  0  0  0  0  0
    9.5515  -18.3573   26.8432 O   0  0  0  0  0  0  0  0  0  0  0  0
   10.2885  -16.9475   28.4327 O   0  0  0  0  0  0  0  0  0  0  0  0
  1  2  1  0
  3  2  1  0
  4  3  1  0
  5  4  1  0
  5  6  1  1
  5  1  1  0
  6  7  2  0
  9  8  1  0
 10  9  1  6
 10 12  1  0
 11 10  1  0
 11  6  1  0
 12 14  1  0
 13 12  2  0
 14 15  1  0
 15 16  1  1
 16 17  1  0
 17 22  1  0
 17 18  2  0
 18 19  1  0
 19 20  2  0
 21 20  1  0
 22 21  2  0
 23 24  1  0
 23 15  1  0
 25 23  2  0
M  END
$$$$
