PSF.pdb
     RDKit          3D

 25 26  0  0  1  0  0  0  0  0999 V2000
    8.7748  -14.2528   18.6765 N   0  0  0  0  0  0  0  0  0  0  0  0
    7.4440  -13.7938   18.4144 C   0  0  0  0  0  0  0  0  0  0  0  0
    7.5601  -12.3211   18.8354 C   0  0  0  0  0  0  0  0  0  0  0  0
    8.2917  -12.5141   20.1712 C   0  0  0  0  0  0  0  0  0  0  0  0
    9.0365  -13.8222   20.0106 C   0  0  1  0  0  0  0  0  0  0  0  0
    8.5829  -14.7781   21.0398 C   0  0  0  0  0  0  0  0  0  0  0  0
    7.3588  -14.7938   21.3514 O   0  0  0  0  0  0  0  0  0  0  0  0
   10.8175  -18.0034   22.2475 O   0  0  0  0  0  0  0  0  0  0  0  0
    9.4384  -18.0443   22.4051 C   0  0  0  0  0  0  0  0  0  0  0  0
    8.8929  -16.6553   22.6771 C   0  0  2  0  0  0  0  0  0  0  0  0
    9.4222  -15.6979   21.7212 N   0  0  0  0  0  0  0  0  0  0  0  0
    9.3072  -16.2075   24.0334 C   0  0  0  0  0  0  0  0  0  0  0  0
   10.3737  -15.5189   24.1563 O   0  0  0  0  0  0  0  0  0  0  0  0
    8.5820  -16.5027   25.2010 N   0  0  0  0  0  0  0  0  0  0  0  0
    9.0808  -16.0647   26.4945 C   0  0  1  0  0  0  0  0  0  0  0  0
    7.9406  -15.4904   27.2947 C   0  0  0  0  0  0  0  0  0  0  0  0
    7.4847  -14.2224   26.6872 C   0  0  0  0  0  0  0  0  0  0  0  0
    6.3240  -14.2111   25.9425 C   0  0  0  0  0  0  0  0  0  0  0  0
    5.8869  -13.0251   25.3835 C   0  0  0  0  0  0  0  0  0  0  0  0
    6.5766  -11.8472   25.5470 C   0  0  0  0  0  0  0  0  0  0  0  0
    7.7326  -11.8597   26.2892 C   0  0  0  0  0  0  0  0  0  0  0  0
    8.1727  -13.0528   26.8518 C   0  0  0  0  0  0  0  0  0  0  0  0
    9.7858  -17.1799   27.1665 C   0  0  0  0  0  0  0  0  0  0  0  0
   10.6188  -16.9352   28.2796 O   0  0  0  0  0  0  0  0  0  0  0  0
    9.7082  -18.3848   26.8212 O   0  0  0  0  0  0  0  0  0  0  0  0
  1  2  1  0
  3  2  1  0
  4  3  1  0
  5  4  1  0
  5  6  1  1
  5  1  1  0
  6  7  2  0
  9  8  1  0
 10  9  1  6
 10 12  1  0
 11 10  1  0
 11  6  1  0
 12 14  1  0
 13 12  2  0
 14 15  1  0
 15 16  1  1
 16 17  1  0
 17 22  1  0
 17 18  2  0
 18 19  1  0
 19 20  2  0
 21 20  1  0
 22 21  2  0
 23 24  1  0
 23 15  1  0
 25 23  2  0
M  END
$$$$
