PSF.pdb
     RDKit          3D

 25 26  0  0  1  0  0  0  0  0999 V2000
    8.9023  -14.6430   18.2388 N   0  0  0  0  0  0  0  0  0  0  0  0
    7.5825  -14.5076   17.7002 C   0  0  0  0  0  0  0  0  0  0  0  0
    7.4271  -12.9793   17.7019 C   0  0  0  0  0  0  0  0  0  0  0  0
    7.9497  -12.6903   19.1162 C   0  0  0  0  0  0  0  0  0  0  0  0
    8.8813  -13.8442   19.4200 C   0  0  1  0  0  0  0  0  0  0  0  0
    8.3995  -14.5667   20.6135 C   0  0  0  0  0  0  0  0  0  0  0  0
    7.8631  -13.9032   21.5451 O   0  0  0  0  0  0  0  0  0  0  0  0
    9.1444  -18.6222   21.4637 O   0  0  0  0  0  0  0  0  0  0  0  0
    7.8952  -18.1202   21.8043 C   0  0  0  0  0  0  0  0  0  0  0  0
    7.9600  -16.6166   21.9938 C   0  0  2  0  0  0  0  0  0  0  0  0
    8.4900  -15.9701   20.8058 N   0  0  0  0  0  0  0  0  0  0  0  0
    8.8702  -16.2896   23.1236 C   0  0  0  0  0  0  0  0  0  0  0  0
   10.0968  -16.0431   22.8757 O   0  0  0  0  0  0  0  0  0  0  0  0
    8.4510  -16.2354   24.4644 N   0  0  0  0  0  0  0  0  0  0  0  0
    9.4178  -15.9649   25.5160 C   0  0  1  0  0  0  0  0  0  0  0  0
    9.6921  -14.4842   25.5656 C   0  0  0  0  0  0  0  0  0  0  0  0
    8.4582  -13.7530   25.9228 C   0  0  0  0  0  0  0  0  0  0  0  0
    7.4298  -13.6789   25.0070 C   0  0  0  0  0  0  0  0  0  0  0  0
    6.2690  -13.0076   25.3416 C   0  0  0  0  0  0  0  0  0  0  0  0
    6.1048  -12.4066   26.5670 C   0  0  0  0  0  0  0  0  0  0  0  0
    7.1300  -12.4811   27.4786 C   0  0  0  0  0  0  0  0  0  0  0  0
    8.2980  -13.1566   27.1423 C   0  0  0  0  0  0  0  0  0  0  0  0
    8.9399  -16.5316   26.7977 C   0  0  0  0  0  0  0  0  0  0  0  0
    7.7059  -17.2139   26.8647 O   0  0  0  0  0  0  0  0  0  0  0  0
    9.5613  -16.4584   27.8864 O   0  0  0  0  0  0  0  0  0  0  0  0
  1  2  1  0
  3  2  1  0
  4  3  1  0
  5  4  1  0
  5  6  1  1
  5  1  1  0
  6  7  2  0
  9  8  1  0
 10  9  1  6
 10 12  1  0
 11 10  1  0
 11  6  1  0
 12 14  1  0
 13 12  2  0
 14 15  1  0
 15 16  1  1
 16 17  1  0
 17 22  1  0
 17 18  2  0
 18 19  1  0
 19 20  2  0
 21 20  1  0
 22 21  2  0
 23 24  1  0
 23 15  1  0
 25 23  2  0
M  END
$$$$
