PSF.pdb
     RDKit          3D

 25 26  0  0  1  0  0  0  0  0999 V2000
    8.6246  -14.3218   18.7244 N   0  0  0  0  0  0  0  0  0  0  0  0
    7.2637  -13.9154   18.5416 C   0  0  0  0  0  0  0  0  0  0  0  0
    7.3492  -12.4358   18.9453 C   0  0  0  0  0  0  0  0  0  0  0  0
    8.1679  -12.5896   20.2349 C   0  0  0  0  0  0  0  0  0  0  0  0
    8.9507  -13.8702   20.0372 C   0  0  1  0  0  0  0  0  0  0  0  0
    8.5975  -14.8335   21.0983 C   0  0  0  0  0  0  0  0  0  0  0  0
    7.3931  -14.9043   21.4727 O   0  0  0  0  0  0  0  0  0  0  0  0
   11.1612  -17.7851   22.3448 O   0  0  0  0  0  0  0  0  0  0  0  0
    9.8024  -17.9964   22.5385 C   0  0  0  0  0  0  0  0  0  0  0  0
    9.0814  -16.6761   22.7327 C   0  0  2  0  0  0  0  0  0  0  0  0
    9.5145  -15.7026   21.7452 N   0  0  0  0  0  0  0  0  0  0  0  0
    9.3986  -16.1211   24.0756 C   0  0  0  0  0  0  0  0  0  0  0  0
   10.3807  -15.3159   24.1935 O   0  0  0  0  0  0  0  0  0  0  0  0
    8.6693  -16.4363   25.2353 N   0  0  0  0  0  0  0  0  0  0  0  0
    9.1150  -15.9436   26.5285 C   0  0  1  0  0  0  0  0  0  0  0  0
    7.9190  -15.4816   27.3199 C   0  0  0  0  0  0  0  0  0  0  0  0
    7.4001  -14.2160   26.7597 C   0  0  0  0  0  0  0  0  0  0  0  0
    8.1515  -13.0663   26.8832 C   0  0  0  0  0  0  0  0  0  0  0  0
    7.6764  -11.8833   26.3493 C   0  0  0  0  0  0  0  0  0  0  0  0
    6.4699  -11.8149   25.6940 C   0  0  0  0  0  0  0  0  0  0  0  0
    5.7222  -12.9610   25.5714 C   0  0  0  0  0  0  0  0  0  0  0  0
    6.2000  -14.1514   26.1084 C   0  0  0  0  0  0  0  0  0  0  0  0
    9.9244  -16.9790   27.2104 C   0  0  0  0  0  0  0  0  0  0  0  0
   10.0747  -18.2621   26.6415 O   0  0  0  0  0  0  0  0  0  0  0  0
   10.5202  -16.8141   28.3035 O   0  0  0  0  0  0  0  0  0  0  0  0
  1  2  1  0
  3  2  1  0
  4  3  1  0
  5  4  1  0
  5  6  1  1
  5  1  1  0
  6  7  2  0
  9  8  1  0
 10  9  1  6
 10 12  1  0
 11 10  1  0
 11  6  1  0
 12 14  1  0
 13 12  2  0
 14 15  1  0
 15 16  1  1
 16 17  1  0
 17 22  1  0
 17 18  2  0
 18 19  1  0
 19 20  2  0
 21 20  1  0
 22 21  2  0
 23 24  1  0
 23 15  1  0
 25 23  2  0
M  END
$$$$
