PSF.pdb
     RDKit          3D

 25 26  0  0  1  0  0  0  0  0999 V2000
    9.2845  -14.2154   19.1217 N   0  0  0  0  0  0  0  0  0  0  0  0
    8.2912  -14.4442   18.1160 C   0  0  0  0  0  0  0  0  0  0  0  0
    7.7527  -13.0196   17.9151 C   0  0  0  0  0  0  0  0  0  0  0  0
    7.5907  -12.6183   19.3881 C   0  0  0  0  0  0  0  0  0  0  0  0
    8.5988  -13.4722   20.1273 C   0  0  1  0  0  0  0  0  0  0  0  0
    7.8998  -14.3183   21.1142 C   0  0  0  0  0  0  0  0  0  0  0  0
    7.0291  -13.7846   21.8577 O   0  0  0  0  0  0  0  0  0  0  0  0
    6.7748  -18.6396   23.0262 O   0  0  0  0  0  0  0  0  0  0  0  0
    7.4587  -17.9374   22.0425 C   0  0  0  0  0  0  0  0  0  0  0  0
    7.4752  -16.4546   22.3618 C   0  0  2  0  0  0  0  0  0  0  0  0
    8.1282  -15.7067   21.3014 N   0  0  0  0  0  0  0  0  0  0  0  0
    8.2424  -16.2169   23.6135 C   0  0  0  0  0  0  0  0  0  0  0  0
    9.4832  -15.9329   23.5315 O   0  0  0  0  0  0  0  0  0  0  0  0
    7.6718  -16.2874   24.8963 N   0  0  0  0  0  0  0  0  0  0  0  0
    8.5221  -16.2139   26.0732 C   0  0  1  0  0  0  0  0  0  0  0  0
    7.7449  -15.5955   27.2062 C   0  0  0  0  0  0  0  0  0  0  0  0
    7.4227  -14.1881   26.8895 C   0  0  0  0  0  0  0  0  0  0  0  0
    6.1119  -13.8352   26.6466 C   0  0  0  0  0  0  0  0  0  0  0  0
    5.8042  -12.5179   26.3631 C   0  0  0  0  0  0  0  0  0  0  0  0
    6.7697  -11.5404   26.3150 C   0  0  0  0  0  0  0  0  0  0  0  0
    8.0752  -11.8933   26.5574 C   0  0  0  0  0  0  0  0  0  0  0  0
    8.3851  -13.2185   26.8427 C   0  0  0  0  0  0  0  0  0  0  0  0
    9.0724  -17.5534   26.3816 C   0  0  0  0  0  0  0  0  0  0  0  0
   10.0980  -17.7045   27.3398 O   0  0  0  0  0  0  0  0  0  0  0  0
    8.6928  -18.6224   25.8430 O   0  0  0  0  0  0  0  0  0  0  0  0
  1  2  1  0
  3  2  1  0
  4  3  1  0
  5  4  1  0
  5  6  1  1
  5  1  1  0
  6  7  2  0
  9  8  1  0
 10  9  1  6
 10 12  1  0
 11 10  1  0
 11  6  1  0
 12 14  1  0
 13 12  2  0
 14 15  1  0
 15 16  1  1
 16 17  1  0
 17 22  1  0
 17 18  2  0
 18 19  1  0
 19 20  2  0
 21 20  1  0
 22 21  2  0
 23 24  1  0
 23 15  1  0
 25 23  2  0
M  END
$$$$
