PSF.pdb
     RDKit          3D

 25 26  0  0  1  0  0  0  0  0999 V2000
    9.0050  -14.7487   18.3383 N   0  0  0  0  0  0  0  0  0  0  0  0
    7.6884  -14.6464   17.7848 C   0  0  0  0  0  0  0  0  0  0  0  0
    7.5374  -13.1211   17.6831 C   0  0  0  0  0  0  0  0  0  0  0  0
    8.0535  -12.7391   19.0776 C   0  0  0  0  0  0  0  0  0  0  0  0
    8.9802  -13.8723   19.4631 C   0  0  1  0  0  0  0  0  0  0  0  0
    8.4901  -14.5118   20.6999 C   0  0  0  0  0  0  0  0  0  0  0  0
    8.0346  -13.7760   21.6201 O   0  0  0  0  0  0  0  0  0  0  0  0
    9.0245  -18.5530   21.6811 O   0  0  0  0  0  0  0  0  0  0  0  0
    7.8245  -17.9745   22.0732 C   0  0  0  0  0  0  0  0  0  0  0  0
    7.9710  -16.4688   22.1835 C   0  0  2  0  0  0  0  0  0  0  0  0
    8.4879  -15.9096   20.9464 N   0  0  0  0  0  0  0  0  0  0  0  0
    8.9379  -16.1340   23.2629 C   0  0  0  0  0  0  0  0  0  0  0  0
   10.1307  -15.8138   22.9445 O   0  0  0  0  0  0  0  0  0  0  0  0
    8.6083  -16.1499   24.6295 N   0  0  0  0  0  0  0  0  0  0  0  0
    9.6098  -15.7929   25.6210 C   0  0  1  0  0  0  0  0  0  0  0  0
    9.7161  -14.2918   25.6973 C   0  0  0  0  0  0  0  0  0  0  0  0
    8.4147  -13.7121   26.0909 C   0  0  0  0  0  0  0  0  0  0  0  0
    8.2299  -13.2919   27.3913 C   0  0  0  0  0  0  0  0  0  0  0  0
    7.0191  -12.7370   27.7606 C   0  0  0  0  0  0  0  0  0  0  0  0
    5.9850  -12.5892   26.8670 C   0  0  0  0  0  0  0  0  0  0  0  0
    6.1703  -13.0081   25.5717 C   0  0  0  0  0  0  0  0  0  0  0  0
    7.3884  -13.5664   25.1998 C   0  0  0  0  0  0  0  0  0  0  0  0
    9.2915  -16.4400   26.9141 C   0  0  0  0  0  0  0  0  0  0  0  0
    8.1968  -17.3246   27.0235 O   0  0  0  0  0  0  0  0  0  0  0  0
    9.9372  -16.2668   27.9771 O   0  0  0  0  0  0  0  0  0  0  0  0
  1  2  1  0
  3  2  1  0
  4  3  1  0
  5  4  1  0
  5  6  1  1
  5  1  1  0
  6  7  2  0
  9  8  1  0
 10  9  1  6
 10 12  1  0
 11 10  1  0
 11  6  1  0
 12 14  1  0
 13 12  2  0
 14 15  1  0
 15 16  1  1
 16 17  1  0
 17 22  1  0
 17 18  2  0
 18 19  1  0
 19 20  2  0
 21 20  1  0
 22 21  2  0
 23 24  1  0
 23 15  1  0
 25 23  2  0
M  END
$$$$
