PSF.pdb
     RDKit          3D

 25 26  0  0  1  0  0  0  0  0999 V2000
    8.4657  -14.4836   18.5002 N   0  0  0  0  0  0  0  0  0  0  0  0
    7.2137  -13.7981   18.3869 C   0  0  0  0  0  0  0  0  0  0  0  0
    7.6404  -12.3625   18.7284 C   0  0  0  0  0  0  0  0  0  0  0  0
    8.4939  -12.6586   19.9697 C   0  0  0  0  0  0  0  0  0  0  0  0
    8.9700  -14.0821   19.7723 C   0  0  1  0  0  0  0  0  0  0  0  0
    8.4929  -14.9214   20.8889 C   0  0  0  0  0  0  0  0  0  0  0  0
    7.2819  -14.8315   21.2371 O   0  0  0  0  0  0  0  0  0  0  0  0
   10.6562  -18.1102   22.3217 O   0  0  0  0  0  0  0  0  0  0  0  0
    9.2735  -18.1365   22.4473 C   0  0  0  0  0  0  0  0  0  0  0  0
    8.7277  -16.7309   22.6126 C   0  0  2  0  0  0  0  0  0  0  0  0
    9.2956  -15.8377   21.6176 N   0  0  0  0  0  0  0  0  0  0  0  0
    9.0979  -16.2005   23.9518 C   0  0  0  0  0  0  0  0  0  0  0  0
   10.1657  -15.5129   24.0689 O   0  0  0  0  0  0  0  0  0  0  0  0
    8.3291  -16.4155   25.1090 N   0  0  0  0  0  0  0  0  0  0  0  0
    8.8423  -16.0075   26.4066 C   0  0  1  0  0  0  0  0  0  0  0  0
    7.6993  -15.5199   27.2586 C   0  0  0  0  0  0  0  0  0  0  0  0
    7.3072  -14.1558   26.8462 C   0  0  0  0  0  0  0  0  0  0  0  0
    6.0189  -13.9278   26.4100 C   0  0  0  0  0  0  0  0  0  0  0  0
    5.6441  -12.6512   26.0360 C   0  0  0  0  0  0  0  0  0  0  0  0
    6.5203  -11.5930   26.0849 C   0  0  0  0  0  0  0  0  0  0  0  0
    7.8034  -11.8214   26.5198 C   0  0  0  0  0  0  0  0  0  0  0  0
    8.1808  -13.1057   26.8962 C   0  0  0  0  0  0  0  0  0  0  0  0
    9.6155  -17.1148   27.0134 C   0  0  0  0  0  0  0  0  0  0  0  0
    9.4878  -18.4323   26.5227 O   0  0  0  0  0  0  0  0  0  0  0  0
   10.4153  -16.9851   27.9728 O   0  0  0  0  0  0  0  0  0  0  0  0
  1  2  1  0
  3  2  1  0
  4  3  1  0
  5  4  1  0
  5  6  1  1
  5  1  1  0
  6  7  2  0
  9  8  1  0
 10  9  1  6
 10 12  1  0
 11 10  1  0
 11  6  1  0
 12 14  1  0
 13 12  2  0
 14 15  1  0
 15 16  1  1
 16 17  1  0
 17 22  1  0
 17 18  2  0
 18 19  1  0
 19 20  2  0
 21 20  1  0
 22 21  2  0
 23 24  1  0
 23 15  1  0
 25 23  2  0
M  END
$$$$
