PSF.pdb
     RDKit          3D

 25 26  0  0  1  0  0  0  0  0999 V2000
    8.8476  -14.8977   18.5114 N   0  0  0  0  0  0  0  0  0  0  0  0
    7.5903  -14.6374   17.8774 C   0  0  0  0  0  0  0  0  0  0  0  0
    7.7018  -13.1256   17.6289 C   0  0  0  0  0  0  0  0  0  0  0  0
    8.2177  -12.6965   19.0097 C   0  0  0  0  0  0  0  0  0  0  0  0
    8.9246  -13.9219   19.5485 C   0  0  1  0  0  0  0  0  0  0  0  0
    8.2844  -14.3470   20.8087 C   0  0  0  0  0  0  0  0  0  0  0  0
    8.1679  -13.5028   21.7412 O   0  0  0  0  0  0  0  0  0  0  0  0
    7.4729  -18.3242   21.8875 O   0  0  0  0  0  0  0  0  0  0  0  0
    6.5361  -17.3733   22.2705 C   0  0  0  0  0  0  0  0  0  0  0  0
    7.1715  -15.9976   22.3376 C   0  0  2  0  0  0  0  0  0  0  0  0
    7.7795  -15.6486   21.0653 N   0  0  0  0  0  0  0  0  0  0  0  0
    8.2478  -15.9889   23.3639 C   0  0  0  0  0  0  0  0  0  0  0  0
    9.4359  -16.2936   23.0140 O   0  0  0  0  0  0  0  0  0  0  0  0
    8.0283  -15.6598   24.7130 N   0  0  0  0  0  0  0  0  0  0  0  0
    9.1253  -15.7305   25.6644 C   0  0  1  0  0  0  0  0  0  0  0  0
    9.4339  -14.3438   26.1663 C   0  0  0  0  0  0  0  0  0  0  0  0
    8.2071  -13.5194   26.1608 C   0  0  0  0  0  0  0  0  0  0  0  0
    8.0051  -12.6187   25.1362 C   0  0  0  0  0  0  0  0  0  0  0  0
    6.8531  -11.8552   25.1199 C   0  0  0  0  0  0  0  0  0  0  0  0
    5.8946  -11.9652   26.0992 C   0  0  0  0  0  0  0  0  0  0  0  0
    6.0970  -12.8630   27.1194 C   0  0  0  0  0  0  0  0  0  0  0  0
    7.2558  -13.6313   27.1360 C   0  0  0  0  0  0  0  0  0  0  0  0
    8.8014  -16.7000   26.7356 C   0  0  0  0  0  0  0  0  0  0  0  0
    9.7765  -17.0707   27.6866 O   0  0  0  0  0  0  0  0  0  0  0  0
    7.6832  -17.2516   26.8849 O   0  0  0  0  0  0  0  0  0  0  0  0
  1  2  1  0
  3  2  1  0
  4  3  1  0
  5  4  1  0
  5  6  1  1
  5  1  1  0
  6  7  2  0
  9  8  1  0
 10  9  1  6
 10 12  1  0
 11 10  1  0
 11  6  1  0
 12 14  1  0
 13 12  2  0
 14 15  1  0
 15 16  1  1
 16 17  1  0
 17 22  1  0
 17 18  2  0
 18 19  1  0
 19 20  2  0
 21 20  1  0
 22 21  2  0
 23 24  1  0
 23 15  1  0
 25 23  2  0
M  END
$$$$
