PSF.pdb
     RDKit          3D

 25 26  0  0  1  0  0  0  0  0999 V2000
    8.9957  -14.8626   18.6062 N   0  0  0  0  0  0  0  0  0  0  0  0
    7.8018  -14.6168   17.8548 C   0  0  0  0  0  0  0  0  0  0  0  0
    7.9177  -13.1034   17.6187 C   0  0  0  0  0  0  0  0  0  0  0  0
    8.2936  -12.6701   19.0428 C   0  0  0  0  0  0  0  0  0  0  0  0
    8.9609  -13.8876   19.6463 C   0  0  1  0  0  0  0  0  0  0  0  0
    8.2083  -14.3225   20.8392 C   0  0  0  0  0  0  0  0  0  0  0  0
    8.0387  -13.4969   21.7801 O   0  0  0  0  0  0  0  0  0  0  0  0
    7.0883  -18.2992   21.6574 O   0  0  0  0  0  0  0  0  0  0  0  0
    6.2201  -17.2970   22.0701 C   0  0  0  0  0  0  0  0  0  0  0  0
    6.9651  -15.9876   22.2472 C   0  0  2  0  0  0  0  0  0  0  0  0
    7.6490  -15.6144   21.0211 N   0  0  0  0  0  0  0  0  0  0  0  0
    7.9977  -16.1345   23.3074 C   0  0  0  0  0  0  0  0  0  0  0  0
    9.2118  -16.3210   22.9639 O   0  0  0  0  0  0  0  0  0  0  0  0
    7.7089  -16.0782   24.6821 N   0  0  0  0  0  0  0  0  0  0  0  0
    8.7514  -16.3643   25.6542 C   0  0  1  0  0  0  0  0  0  0  0  0
    9.2358  -15.0699   26.2543 C   0  0  0  0  0  0  0  0  0  0  0  0
    8.0832  -14.2278   26.6379 C   0  0  0  0  0  0  0  0  0  0  0  0
    8.3110  -12.9872   27.1954 C   0  0  0  0  0  0  0  0  0  0  0  0
    7.2363  -12.1909   27.5434 C   0  0  0  0  0  0  0  0  0  0  0  0
    5.9376  -12.5983   27.3504 C   0  0  0  0  0  0  0  0  0  0  0  0
    5.7119  -13.8344   26.7948 C   0  0  0  0  0  0  0  0  0  0  0  0
    6.7930  -14.6358   26.4445 C   0  0  0  0  0  0  0  0  0  0  0  0
    8.2566  -17.3415   26.6505 C   0  0  0  0  0  0  0  0  0  0  0  0
    9.0916  -17.7807   27.7006 O   0  0  0  0  0  0  0  0  0  0  0  0
    7.1048  -17.8417   26.6488 O   0  0  0  0  0  0  0  0  0  0  0  0
  1  2  1  0
  3  2  1  0
  4  3  1  0
  5  4  1  0
  5  6  1  1
  5  1  1  0
  6  7  2  0
  9  8  1  0
 10  9  1  6
 10 12  1  0
 11 10  1  0
 11  6  1  0
 12 14  1  0
 13 12  2  0
 14 15  1  0
 15 16  1  1
 16 17  1  0
 17 22  1  0
 17 18  2  0
 18 19  1  0
 19 20  2  0
 21 20  1  0
 22 21  2  0
 23 24  1  0
 23 15  1  0
 25 23  2  0
M  END
$$$$
