PSF.pdb
     RDKit          3D

 25 26  0  0  1  0  0  0  0  0999 V2000
    8.6720  -14.7447   18.1571 N   0  0  0  0  0  0  0  0  0  0  0  0
    7.3437  -14.4393   17.7179 C   0  0  0  0  0  0  0  0  0  0  0  0
    7.4137  -12.9070   17.6358 C   0  0  0  0  0  0  0  0  0  0  0  0
    8.0955  -12.6291   18.9830 C   0  0  0  0  0  0  0  0  0  0  0  0
    8.8719  -13.8934   19.2836 C   0  0  1  0  0  0  0  0  0  0  0  0
    8.3969  -14.4739   20.5548 C   0  0  0  0  0  0  0  0  0  0  0  0
    8.3498  -13.7325   21.5766 O   0  0  0  0  0  0  0  0  0  0  0  0
    8.0483  -18.5393   21.4802 O   0  0  0  0  0  0  0  0  0  0  0  0
    6.9792  -17.7395   21.8620 C   0  0  0  0  0  0  0  0  0  0  0  0
    7.4142  -16.2912   21.9803 C   0  0  2  0  0  0  0  0  0  0  0  0
    7.9812  -15.8199   20.7286 N   0  0  0  0  0  0  0  0  0  0  0  0
    8.4672  -16.1647   23.0230 C   0  0  0  0  0  0  0  0  0  0  0  0
    9.6899  -16.2911   22.6829 O   0  0  0  0  0  0  0  0  0  0  0  0
    8.1888  -15.9102   24.3773 N   0  0  0  0  0  0  0  0  0  0  0  0
    9.2799  -15.7020   25.3151 C   0  0  1  0  0  0  0  0  0  0  0  0
    9.5840  -14.2286   25.3998 C   0  0  0  0  0  0  0  0  0  0  0  0
    8.3522  -13.4755   25.7160 C   0  0  0  0  0  0  0  0  0  0  0  0
    8.1855  -12.9578   26.9833 C   0  0  0  0  0  0  0  0  0  0  0  0
    7.0413  -12.2414   27.2797 C   0  0  0  0  0  0  0  0  0  0  0  0
    6.0562  -12.0265   26.3451 C   0  0  0  0  0  0  0  0  0  0  0  0
    6.2235  -12.5427   25.0829 C   0  0  0  0  0  0  0  0  0  0  0  0
    7.3746  -13.2634   24.7844 C   0  0  0  0  0  0  0  0  0  0  0  0
    8.9504  -16.3242   26.6176 C   0  0  0  0  0  0  0  0  0  0  0  0
    7.7068  -16.9629   26.8134 O   0  0  0  0  0  0  0  0  0  0  0  0
    9.7126  -16.3376   27.6155 O   0  0  0  0  0  0  0  0  0  0  0  0
  1  2  1  0
  3  2  1  0
  4  3  1  0
  5  4  1  0
  5  6  1  1
  5  1  1  0
  6  7  2  0
  9  8  1  0
 10  9  1  6
 10 12  1  0
 11 10  1  0
 11  6  1  0
 12 14  1  0
 13 12  2  0
 14 15  1  0
 15 16  1  1
 16 17  1  0
 17 22  1  0
 17 18  2  0
 18 19  1  0
 19 20  2  0
 21 20  1  0
 22 21  2  0
 23 24  1  0
 23 15  1  0
 25 23  2  0
M  END
$$$$
