PSF.pdb
     RDKit          3D

 25 26  0  0  1  0  0  0  0  0999 V2000
    8.7054  -14.8413   18.3144 N   0  0  0  0  0  0  0  0  0  0  0  0
    7.4290  -14.5106   17.7559 C   0  0  0  0  0  0  0  0  0  0  0  0
    7.5580  -12.9853   17.6281 C   0  0  0  0  0  0  0  0  0  0  0  0
    8.1359  -12.6798   19.0172 C   0  0  0  0  0  0  0  0  0  0  0  0
    8.8412  -13.9560   19.4241 C   0  0  1  0  0  0  0  0  0  0  0  0
    8.2437  -14.4744   20.6703 C   0  0  0  0  0  0  0  0  0  0  0  0
    8.1725  -13.7064   21.6707 O   0  0  0  0  0  0  0  0  0  0  0  0
    7.3816  -18.4998   21.5480 O   0  0  0  0  0  0  0  0  0  0  0  0
    6.4179  -17.5606   21.8910 C   0  0  0  0  0  0  0  0  0  0  0  0
    7.0463  -16.1901   22.0572 C   0  0  2  0  0  0  0  0  0  0  0  0
    7.7330  -15.7877   20.8419 N   0  0  0  0  0  0  0  0  0  0  0  0
    8.0557  -16.2273   23.1488 C   0  0  0  0  0  0  0  0  0  0  0  0
    9.2688  -16.4930   22.8580 O   0  0  0  0  0  0  0  0  0  0  0  0
    7.7459  -15.9829   24.4981 N   0  0  0  0  0  0  0  0  0  0  0  0
    8.7850  -16.0814   25.5100 C   0  0  1  0  0  0  0  0  0  0  0  0
    9.3221  -14.7042   25.8021 C   0  0  0  0  0  0  0  0  0  0  0  0
    8.2048  -13.7606   26.0161 C   0  0  0  0  0  0  0  0  0  0  0  0
    8.2194  -12.9390   27.1236 C   0  0  0  0  0  0  0  0  0  0  0  0
    7.1833  -12.0458   27.3208 C   0  0  0  0  0  0  0  0  0  0  0  0
    6.1305  -11.9488   26.4421 C   0  0  0  0  0  0  0  0  0  0  0  0
    6.1171  -12.7678   25.3391 C   0  0  0  0  0  0  0  0  0  0  0  0
    7.1595  -13.6665   25.1404 C   0  0  0  0  0  0  0  0  0  0  0  0
    8.2627  -16.7886   26.7013 C   0  0  0  0  0  0  0  0  0  0  0  0
    9.1125  -17.0873   27.7883 O   0  0  0  0  0  0  0  0  0  0  0  0
    7.0737  -17.1670   26.8426 O   0  0  0  0  0  0  0  0  0  0  0  0
  1  2  1  0
  3  2  1  0
  4  3  1  0
  5  4  1  0
  5  6  1  1
  5  1  1  0
  6  7  2  0
  9  8  1  0
 10  9  1  6
 10 12  1  0
 11 10  1  0
 11  6  1  0
 12 14  1  0
 13 12  2  0
 14 15  1  0
 15 16  1  1
 16 17  1  0
 17 22  1  0
 17 18  2  0
 18 19  1  0
 19 20  2  0
 21 20  1  0
 22 21  2  0
 23 24  1  0
 23 15  1  0
 25 23  2  0
M  END
$$$$
