PSF.pdb
     RDKit          3D

 25 26  0  0  1  0  0  0  0  0999 V2000
    8.7920  -14.2448   18.7951 N   0  0  0  0  0  0  0  0  0  0  0  0
    7.4366  -13.9596   18.4322 C   0  0  0  0  0  0  0  0  0  0  0  0
    7.3445  -12.4739   18.8114 C   0  0  0  0  0  0  0  0  0  0  0  0
    8.0008  -12.5426   20.1976 C   0  0  0  0  0  0  0  0  0  0  0  0
    8.9077  -13.7528   20.1286 C   0  0  1  0  0  0  0  0  0  0  0  0
    8.5036  -14.7317   21.1568 C   0  0  0  0  0  0  0  0  0  0  0  0
    7.2995  -14.7438   21.5386 O   0  0  0  0  0  0  0  0  0  0  0  0
   10.9120  -17.8638   22.4214 O   0  0  0  0  0  0  0  0  0  0  0  0
    9.5343  -17.9879   22.5445 C   0  0  0  0  0  0  0  0  0  0  0  0
    8.8945  -16.6286   22.7535 C   0  0  2  0  0  0  0  0  0  0  0  0
    9.3705  -15.6777   21.7638 N   0  0  0  0  0  0  0  0  0  0  0  0
    9.2619  -16.0992   24.0939 C   0  0  0  0  0  0  0  0  0  0  0  0
   10.2413  -15.2877   24.1891 O   0  0  0  0  0  0  0  0  0  0  0  0
    8.5834  -16.4456   25.2755 N   0  0  0  0  0  0  0  0  0  0  0  0
    9.0805  -15.9804   26.5600 C   0  0  1  0  0  0  0  0  0  0  0  0
    7.9266  -15.4587   27.3765 C   0  0  0  0  0  0  0  0  0  0  0  0
    7.4772  -14.1559   26.8422 C   0  0  0  0  0  0  0  0  0  0  0  0
    6.2737  -14.0810   26.1731 C   0  0  0  0  0  0  0  0  0  0  0  0
    5.8433  -12.8623   25.6833 C   0  0  0  0  0  0  0  0  0  0  0  0
    6.5814  -11.7136   25.8426 C   0  0  0  0  0  0  0  0  0  0  0  0
    7.7802  -11.7895   26.5095 C   0  0  0  0  0  0  0  0  0  0  0  0
    8.2135  -13.0155   27.0025 C   0  0  0  0  0  0  0  0  0  0  0  0
    9.8482  -17.0587   27.2235 C   0  0  0  0  0  0  0  0  0  0  0  0
    9.9394  -18.3397   26.6373 O   0  0  0  0  0  0  0  0  0  0  0  0
   10.4569  -16.9340   28.3148 O   0  0  0  0  0  0  0  0  0  0  0  0
  1  2  1  0
  3  2  1  0
  4  3  1  0
  5  4  1  0
  5  6  1  1
  5  1  1  0
  6  7  2  0
  9  8  1  0
 10  9  1  6
 10 12  1  0
 11 10  1  0
 11  6  1  0
 12 14  1  0
 13 12  2  0
 14 15  1  0
 15 16  1  1
 16 17  1  0
 17 22  1  0
 17 18  2  0
 18 19  1  0
 19 20  2  0
 21 20  1  0
 22 21  2  0
 23 24  1  0
 23 15  1  0
 25 23  2  0
M  END
$$$$
