PSF.pdb
     RDKit          3D

 25 26  0  0  1  0  0  0  0  0999 V2000
    8.7704  -14.5647   18.8390 N   0  0  0  0  0  0  0  0  0  0  0  0
    7.4484  -14.4775   18.2959 C   0  0  0  0  0  0  0  0  0  0  0  0
    7.2914  -12.9549   18.1656 C   0  0  0  0  0  0  0  0  0  0  0  0
    7.8191  -12.5438   19.5474 C   0  0  0  0  0  0  0  0  0  0  0  0
    8.7531  -13.6663   19.9465 C   0  0  1  0  0  0  0  0  0  0  0  0
    8.2766  -14.2828   21.2001 C   0  0  0  0  0  0  0  0  0  0  0  0
    8.0396  -13.5335   22.1891 O   0  0  0  0  0  0  0  0  0  0  0  0
    6.5216  -18.1302   23.6280 O   0  0  0  0  0  0  0  0  0  0  0  0
    7.1135  -17.6536   22.4657 C   0  0  0  0  0  0  0  0  0  0  0  0
    7.5116  -16.1991   22.6294 C   0  0  2  0  0  0  0  0  0  0  0  0
    8.0586  -15.6723   21.3910 N   0  0  0  0  0  0  0  0  0  0  0  0
    8.5673  -16.0794   23.6702 C   0  0  0  0  0  0  0  0  0  0  0  0
    9.7852  -16.2580   23.3363 O   0  0  0  0  0  0  0  0  0  0  0  0
    8.2965  -15.7766   25.0161 N   0  0  0  0  0  0  0  0  0  0  0  0
    9.3630  -15.8390   26.0021 C   0  0  1  0  0  0  0  0  0  0  0  0
    9.5020  -14.4932   26.6651 C   0  0  0  0  0  0  0  0  0  0  0  0
    8.2874  -13.6849   26.4282 C   0  0  0  0  0  0  0  0  0  0  0  0
    7.2297  -13.7845   27.3075 C   0  0  0  0  0  0  0  0  0  0  0  0
    6.0971  -13.0207   27.0973 C   0  0  0  0  0  0  0  0  0  0  0  0
    5.9897  -12.1583   26.0321 C   0  0  0  0  0  0  0  0  0  0  0  0
    7.0442  -12.0600   25.1569 C   0  0  0  0  0  0  0  0  0  0  0  0
    8.1838  -12.8282   25.3681 C   0  0  0  0  0  0  0  0  0  0  0  0
    9.1119  -16.9518   26.9460 C   0  0  0  0  0  0  0  0  0  0  0  0
   10.0685  -17.2895   27.9277 O   0  0  0  0  0  0  0  0  0  0  0  0
    8.0746  -17.6594   26.9556 O   0  0  0  0  0  0  0  0  0  0  0  0
  1  2  1  0
  3  2  1  0
  4  3  1  0
  5  4  1  0
  5  6  1  1
  5  1  1  0
  6  7  2  0
  9  8  1  0
 10  9  1  6
 10 12  1  0
 11 10  1  0
 11  6  1  0
 12 14  1  0
 13 12  2  0
 14 15  1  0
 15 16  1  1
 16 17  1  0
 17 22  1  0
 17 18  2  0
 18 19  1  0
 19 20  2  0
 21 20  1  0
 22 21  2  0
 23 24  1  0
 23 15  1  0
 25 23  2  0
M  END
$$$$
