PSF.pdb
     RDKit          3D

 25 26  0  0  1  0  0  0  0  0999 V2000
    8.8246  -14.3847   18.7725 N   0  0  0  0  0  0  0  0  0  0  0  0
    7.4568  -14.0443   18.5200 C   0  0  0  0  0  0  0  0  0  0  0  0
    7.4391  -12.5753   18.9685 C   0  0  0  0  0  0  0  0  0  0  0  0
    8.1885  -12.7256   20.2999 C   0  0  0  0  0  0  0  0  0  0  0  0
    9.0491  -13.9571   20.1142 C   0  0  1  0  0  0  0  0  0  0  0  0
    8.6871  -14.9693   21.1256 C   0  0  0  0  0  0  0  0  0  0  0  0
    7.4753  -15.0756   21.4665 O   0  0  0  0  0  0  0  0  0  0  0  0
   11.3606  -17.7893   22.6044 O   0  0  0  0  0  0  0  0  0  0  0  0
   10.0090  -18.1078   22.6006 C   0  0  0  0  0  0  0  0  0  0  0  0
    9.1663  -16.8518   22.7153 C   0  0  2  0  0  0  0  0  0  0  0  0
    9.6032  -15.8494   21.7590 N   0  0  0  0  0  0  0  0  0  0  0  0
    9.3155  -16.2670   24.0746 C   0  0  0  0  0  0  0  0  0  0  0  0
   10.1584  -15.3262   24.2518 O   0  0  0  0  0  0  0  0  0  0  0  0
    8.5720  -16.6962   25.1878 N   0  0  0  0  0  0  0  0  0  0  0  0
    8.7992  -16.0894   26.4892 C   0  0  1  0  0  0  0  0  0  0  0  0
    7.4840  -15.6104   27.0471 C   0  0  0  0  0  0  0  0  0  0  0  0
    7.1812  -14.2567   26.5367 C   0  0  0  0  0  0  0  0  0  0  0  0
    5.9994  -14.0407   25.8595 C   0  0  0  0  0  0  0  0  0  0  0  0
    5.7060  -12.7736   25.3920 C   0  0  0  0  0  0  0  0  0  0  0  0
    6.5603  -11.7134   25.5815 C   0  0  0  0  0  0  0  0  0  0  0  0
    7.7372  -11.9299   26.2564 C   0  0  0  0  0  0  0  0  0  0  0  0
    8.0327  -13.2045   26.7270 C   0  0  0  0  0  0  0  0  0  0  0  0
    9.5161  -17.0395   27.3698 C   0  0  0  0  0  0  0  0  0  0  0  0
    9.8136  -18.3457   26.9246 O   0  0  0  0  0  0  0  0  0  0  0  0
    9.9042  -16.7788   28.5353 O   0  0  0  0  0  0  0  0  0  0  0  0
  1  2  1  0
  3  2  1  0
  4  3  1  0
  5  4  1  0
  5  6  1  1
  5  1  1  0
  6  7  2  0
  9  8  1  0
 10  9  1  1
 10 12  1  0
 11 10  1  0
 11  6  1  0
 12 14  1  0
 13 12  2  0
 14 15  1  0
 15 16  1  1
 16 17  1  0
 17 22  1  0
 17 18  2  0
 18 19  1  0
 19 20  2  0
 21 20  1  0
 22 21  2  0
 23 24  1  0
 23 15  1  0
 25 23  2  0
M  END
$$$$
