SKV.pdb
     RDKit          3D

 23 22  0  0  1  0  0  0  0  0999 V2000
   25.4891   -9.0086  -19.0287 O   0  0  0  0  0  0  0  0  0  0  0  0
   25.2410  -10.3631  -19.1699 C   0  0  0  0  0  0  0  0  0  0  0  0
   24.0789  -10.5117  -20.1518 C   0  0  2  0  0  0  0  0  0  0  0  0
   24.4712   -9.8831  -21.3715 N   0  0  0  0  0  0  0  0  0  0  0  0
   22.9000   -9.9091  -19.5170 C   0  0  0  0  0  0  0  0  0  0  0  0
   22.5395   -8.7613  -19.8641 O   0  0  0  0  0  0  0  0  0  0  0  0
   22.1838  -10.5995  -18.5381 N   0  0  0  0  0  0  0  0  0  0  0  0
   21.0353  -10.0369  -17.8177 C   0  0  1  0  0  0  0  0  0  0  0  0
   20.1437  -11.1875  -17.5033 C   0  0  0  0  0  0  0  0  0  0  0  0
   18.8200  -10.7485  -16.9809 C   0  0  0  0  0  0  0  0  0  0  0  0
   18.5302  -11.3741  -15.6140 C   0  0  0  0  0  0  0  0  0  0  0  0
   17.1267  -10.9346  -15.2237 C   0  0  0  0  0  0  0  0  0  0  0  0
   16.7160  -11.4482  -13.9532 N   0  0  0  0  0  0  0  0  0  0  0  0
   21.4763   -9.2306  -16.6789 C   0  0  0  0  0  0  0  0  0  0  0  0
   22.3623   -9.5940  -15.8699 O   0  0  0  0  0  0  0  0  0  0  0  0
   22.3188   -4.9335  -14.6961 C   0  0  0  0  0  0  0  0  0  0  0  0
   21.7886   -5.7194  -15.8607 C   0  0  2  0  0  0  0  0  0  0  0  0
   20.6054   -4.9960  -16.4261 C   0  0  0  0  0  0  0  0  0  0  0  0
   21.4273   -7.1149  -15.3540 C   0  0  2  0  0  0  0  0  0  0  0  0
   20.9000   -7.9334  -16.4140 N   0  0  0  0  0  0  0  0  0  0  0  0
   20.4209   -6.9666  -14.2762 C   0  0  0  0  0  0  0  0  0  0  0  0
   19.2104   -7.1394  -14.5325 O   0  0  0  0  0  0  0  0  0  0  0  0
   20.7522   -6.6406  -12.9727 O   0  0  0  0  0  0  0  0  0  0  0  0
  2  1  1  0
  2  3  1  0
  3  4  1  6
  3  5  1  0
  5  6  2  0
  7  5  1  0
  7  8  1  0
  8  9  1  1
  9 10  1  0
 11 12  1  0
 11 10  1  0
 12 13  1  0
 14  8  1  0
 14 15  2  0
 17 16  1  1
 17 19  1  0
 18 17  1  0
 19 21  1  0
 19 20  1  6
 20 14  1  0
 21 23  1  0
 22 21  2  0
M  END
$$$$
