SKV.pdb
     RDKit          3D

 23 22  0  0  1  0  0  0  0  0999 V2000
   28.4960   -8.5540  -18.7474 O   0  0  0  0  0  0  0  0  0  0  0  0
   27.2450   -8.0660  -18.4107 C   0  0  0  0  0  0  0  0  0  0  0  0
   26.2455   -8.6539  -19.4066 C   0  0  2  0  0  0  0  0  0  0  0  0
   26.5326   -8.0830  -20.6827 N   0  0  0  0  0  0  0  0  0  0  0  0
   24.9021   -8.3472  -18.8993 C   0  0  0  0  0  0  0  0  0  0  0  0
   24.3878   -7.2370  -19.1655 O   0  0  0  0  0  0  0  0  0  0  0  0
   24.1997   -9.2753  -18.1293 N   0  0  0  0  0  0  0  0  0  0  0  0
   22.8370   -9.0568  -17.6295 C   0  0  1  0  0  0  0  0  0  0  0  0
   22.2368  -10.4100  -17.4673 C   0  0  0  0  0  0  0  0  0  0  0  0
   20.8332  -10.3485  -16.9734 C   0  0  0  0  0  0  0  0  0  0  0  0
   20.2195  -11.7477  -16.8772 C   0  0  0  0  0  0  0  0  0  0  0  0
   18.7644  -11.5573  -16.4748 C   0  0  0  0  0  0  0  0  0  0  0  0
   18.1242  -12.7824  -16.1063 N   0  0  0  0  0  0  0  0  0  0  0  0
   22.8469   -8.2069  -16.4383 C   0  0  0  0  0  0  0  0  0  0  0  0
   23.4999   -8.4697  -15.4009 O   0  0  0  0  0  0  0  0  0  0  0  0
   21.6884   -4.2074  -16.6372 C   0  0  0  0  0  0  0  0  0  0  0  0
   22.6008   -4.7336  -15.5669 C   0  0  2  0  0  0  0  0  0  0  0  0
   24.0069   -4.7056  -16.0817 C   0  0  0  0  0  0  0  0  0  0  0  0
   22.1397   -6.1475  -15.2164 C   0  0  2  0  0  0  0  0  0  0  0  0
   22.0836   -6.9822  -16.3876 N   0  0  0  0  0  0  0  0  0  0  0  0
   20.7983   -6.0527  -14.5937 C   0  0  0  0  0  0  0  0  0  0  0  0
   19.7829   -6.3282  -15.2675 O   0  0  0  0  0  0  0  0  0  0  0  0
   20.6009   -5.6680  -13.2791 O   0  0  0  0  0  0  0  0  0  0  0  0
  2  1  1  0
  2  3  1  0
  3  4  1  6
  3  5  1  0
  5  6  2  0
  7  5  1  0
  7  8  1  0
  8  9  1  1
  9 10  1  0
 11 12  1  0
 11 10  1  0
 12 13  1  0
 14  8  1  0
 14 15  2  0
 17 16  1  6
 17 19  1  0
 18 17  1  0
 19 21  1  0
 19 20  1  6
 20 14  1  0
 21 23  1  0
 22 21  2  0
M  END
$$$$
