SKV.pdb
     RDKit          3D

 23 22  0  0  1  0  0  0  0  0999 V2000
   16.4673  -15.2552  -15.3343 O   0  0  0  0  0  0  0  0  0  0  0  0
   17.0728  -14.0115  -15.3892 C   0  0  0  0  0  0  0  0  0  0  0  0
   16.9295  -13.4999  -16.8225 C   0  0  2  0  0  0  0  0  0  0  0  0
   17.2698  -14.5779  -17.6937 N   0  0  0  0  0  0  0  0  0  0  0  0
   17.8023  -12.3260  -16.9493 C   0  0  0  0  0  0  0  0  0  0  0  0
   19.0049  -12.4899  -17.2568 O   0  0  0  0  0  0  0  0  0  0  0  0
   17.3064  -11.0397  -16.7317 N   0  0  0  0  0  0  0  0  0  0  0  0
   18.1226   -9.8234  -16.8263 C   0  0  1  0  0  0  0  0  0  0  0  0
   17.1616   -8.6914  -16.9388 C   0  0  0  0  0  0  0  0  0  0  0  0
   17.8497   -7.3722  -17.0034 C   0  0  0  0  0  0  0  0  0  0  0  0
   16.8390   -6.2229  -17.0385 C   0  0  0  0  0  0  0  0  0  0  0  0
   17.6436   -4.9413  -17.1986 C   0  0  0  0  0  0  0  0  0  0  0  0
   16.8485   -3.7622  -17.0441 N   0  0  0  0  0  0  0  0  0  0  0  0
   19.0817   -9.7501  -15.7236 C   0  0  0  0  0  0  0  0  0  0  0  0
   18.7726   -9.9144  -14.5198 O   0  0  0  0  0  0  0  0  0  0  0  0
   22.5175  -11.4977  -15.6317 C   0  0  0  0  0  0  0  0  0  0  0  0
   22.7529  -10.0599  -15.2681 C   0  0  2  0  0  0  0  0  0  0  0  0
   23.7550  -10.0063  -14.1564 C   0  0  0  0  0  0  0  0  0  0  0  0
   21.4083   -9.4556  -14.8665 C   0  0  2  0  0  0  0  0  0  0  0  0
   20.4789   -9.4767  -15.9652 N   0  0  0  0  0  0  0  0  0  0  0  0
   21.6443   -8.0605  -14.4256 C   0  0  0  0  0  0  0  0  0  0  0  0
   21.7055   -7.1458  -15.2744 O   0  0  0  0  0  0  0  0  0  0  0  0
   21.8044   -7.7043  -13.0980 O   0  0  0  0  0  0  0  0  0  0  0  0
  2  1  1  0
  2  3  1  0
  3  4  1  6
  3  5  1  0
  5  6  2  0
  7  5  1  0
  7  8  1  0
  8  9  1  1
  9 10  1  0
 11 12  1  0
 11 10  1  0
 12 13  1  0
 14  8  1  0
 14 15  2  0
 17 16  1  1
 17 19  1  0
 18 17  1  0
 19 21  1  0
 19 20  1  6
 20 14  1  0
 21 23  1  0
 22 21  2  0
M  END
$$$$
