SKV.pdb
     RDKit          3D

 23 22  0  0  1  0  0  0  0  0999 V2000
   18.6943   -9.1813  -12.4556 O   0  0  0  0  0  0  0  0  0  0  0  0
   18.7154   -9.5638  -11.1254 C   0  0  0  0  0  0  0  0  0  0  0  0
   17.3210  -10.0872  -10.7815 C   0  0  2  0  0  0  0  0  0  0  0  0
   16.9749  -11.0546  -11.7719 N   0  0  0  0  0  0  0  0  0  0  0  0
   16.4246   -8.9251  -10.7369 C   0  0  0  0  0  0  0  0  0  0  0  0
   15.8883   -8.5269  -11.7960 O   0  0  0  0  0  0  0  0  0  0  0  0
   16.1674   -8.2663   -9.5337 N   0  0  0  0  0  0  0  0  0  0  0  0
   15.2188   -7.1545   -9.3985 C   0  0  1  0  0  0  0  0  0  0  0  0
   14.2989   -7.5318   -8.2898 C   0  0  0  0  0  0  0  0  0  0  0  0
   13.1246   -8.3104   -8.7720 C   0  0  0  0  0  0  0  0  0  0  0  0
   12.1106   -8.5348   -7.6472 C   0  0  0  0  0  0  0  0  0  0  0  0
   10.9355   -9.2796   -8.2636 C   0  0  0  0  0  0  0  0  0  0  0  0
    9.9145   -9.5930   -7.3118 N   0  0  0  0  0  0  0  0  0  0  0  0
   15.9237   -5.8809   -9.2485 C   0  0  0  0  0  0  0  0  0  0  0  0
   16.9181   -5.7190   -8.5025 O   0  0  0  0  0  0  0  0  0  0  0  0
   17.1065   -3.7774  -12.1790 C   0  0  0  0  0  0  0  0  0  0  0  0
   16.3970   -2.8239  -11.2611 C   0  0  2  0  0  0  0  0  0  0  0  0
   17.1776   -1.5472  -11.2026 C   0  0  0  0  0  0  0  0  0  0  0  0
   16.2799   -3.4952   -9.8935 C   0  0  2  0  0  0  0  0  0  0  0  0
   15.5026   -4.7040   -9.9716 N   0  0  0  0  0  0  0  0  0  0  0  0
   15.6382   -2.5361   -8.9637 C   0  0  0  0  0  0  0  0  0  0  0  0
   14.4002   -2.5690   -8.7987 O   0  0  0  0  0  0  0  0  0  0  0  0
   16.3470   -1.5845   -8.2516 O   0  0  0  0  0  0  0  0  0  0  0  0
  2  1  1  0
  2  3  1  0
  3  4  1  6
  3  5  1  0
  5  6  2  0
  7  5  1  0
  7  8  1  0
  8  9  1  1
  9 10  1  0
 11 12  1  0
 11 10  1  0
 12 13  1  0
 14  8  1  0
 14 15  2  0
 17 16  1  6
 17 19  1  0
 18 17  1  0
 19 21  1  0
 19 20  1  6
 20 14  1  0
 21 23  1  0
 22 21  2  0
M  END
$$$$
