SKV.pdb
     RDKit          3D

 23 22  0  0  1  0  0  0  0  0999 V2000
   16.0994  -15.2629  -14.4281 O   0  0  0  0  0  0  0  0  0  0  0  0
   17.0843  -14.3192  -14.6643 C   0  0  0  0  0  0  0  0  0  0  0  0
   17.2474  -14.2031  -16.1798 C   0  0  2  0  0  0  0  0  0  0  0  0
   17.7818  -15.4419  -16.6451 N   0  0  0  0  0  0  0  0  0  0  0  0
   18.1116  -13.0431  -16.4315 C   0  0  0  0  0  0  0  0  0  0  0  0
   19.3543  -13.1965  -16.4327 O   0  0  0  0  0  0  0  0  0  0  0  0
   17.5638  -11.7813  -16.6677 N   0  0  0  0  0  0  0  0  0  0  0  0
   18.3617  -10.5924  -16.9906 C   0  0  1  0  0  0  0  0  0  0  0  0
   17.4017   -9.5846  -17.5202 C   0  0  0  0  0  0  0  0  0  0  0  0
   17.0128   -9.8634  -18.9305 C   0  0  0  0  0  0  0  0  0  0  0  0
   15.9545   -8.8705  -19.4184 C   0  0  0  0  0  0  0  0  0  0  0  0
   15.6418   -9.2423  -20.8604 C   0  0  0  0  0  0  0  0  0  0  0  0
   14.6329   -8.4120  -21.4428 N   0  0  0  0  0  0  0  0  0  0  0  0
   19.1682  -10.1762  -15.8427 C   0  0  0  0  0  0  0  0  0  0  0  0
   18.7399  -10.1467  -14.6648 O   0  0  0  0  0  0  0  0  0  0  0  0
   22.4412  -11.5537  -14.8085 C   0  0  0  0  0  0  0  0  0  0  0  0
   22.6813  -10.0721  -14.8525 C   0  0  2  0  0  0  0  0  0  0  0  0
   23.5115   -9.6873  -13.6669 C   0  0  0  0  0  0  0  0  0  0  0  0
   21.3190   -9.3801  -14.8556 C   0  0  2  0  0  0  0  0  0  0  0  0
   20.5426   -9.7640  -16.0051 N   0  0  0  0  0  0  0  0  0  0  0  0
   21.5470   -7.9157  -14.8608 C   0  0  0  0  0  0  0  0  0  0  0  0
   21.4658   -7.2812  -15.9340 O   0  0  0  0  0  0  0  0  0  0  0  0
   21.8514   -7.1943  -13.7199 O   0  0  0  0  0  0  0  0  0  0  0  0
  2  1  1  0
  2  3  1  0
  3  4  1  1
  3  5  1  0
  5  6  2  0
  7  5  1  0
  7  8  1  0
  8  9  1  1
  9 10  1  0
 11 12  1  0
 11 10  1  0
 12 13  1  0
 14  8  1  0
 14 15  2  0
 17 16  1  1
 17 19  1  0
 18 17  1  0
 19 21  1  0
 19 20  1  6
 20 14  1  0
 21 23  1  0
 22 21  2  0
M  END
$$$$
