SKV.pdb
     RDKit          3D

 23 22  0  0  1  0  0  0  0  0999 V2000
   29.8407  -18.6911  -15.5166 O   0  0  0  0  0  0  0  0  0  0  0  0
   29.1005  -18.9248  -14.3705 C   0  0  0  0  0  0  0  0  0  0  0  0
   27.6558  -19.1700  -14.8054 C   0  0  2  0  0  0  0  0  0  0  0  0
   27.2721  -18.0765  -15.6383 N   0  0  0  0  0  0  0  0  0  0  0  0
   26.8551  -19.3036  -13.5819 C   0  0  0  0  0  0  0  0  0  0  0  0
   26.4562  -18.2705  -12.9976 O   0  0  0  0  0  0  0  0  0  0  0  0
   26.5378  -20.5623  -13.0691 N   0  0  0  0  0  0  0  0  0  0  0  0
   25.5689  -20.7830  -11.9888 C   0  0  1  0  0  0  0  0  0  0  0  0
   24.5731  -21.7535  -12.5218 C   0  0  0  0  0  0  0  0  0  0  0  0
   23.4827  -21.0821  -13.2820 C   0  0  0  0  0  0  0  0  0  0  0  0
   22.2704  -20.8118  -12.3870 C   0  0  0  0  0  0  0  0  0  0  0  0
   21.2296  -20.1264  -13.2602 C   0  0  0  0  0  0  0  0  0  0  0  0
   20.0012  -19.8778  -12.5705 N   0  0  0  0  0  0  0  0  0  0  0  0
   26.2459  -21.1663  -10.7494 C   0  0  0  0  0  0  0  0  0  0  0  0
   27.0280  -22.1417  -10.6562 O   0  0  0  0  0  0  0  0  0  0  0  0
   26.6783  -18.7318   -7.3695 C   0  0  0  0  0  0  0  0  0  0  0  0
   27.3658  -20.0608   -7.4966 C   0  0  2  0  0  0  0  0  0  0  0  0
   28.6723  -19.8573   -8.1998 C   0  0  0  0  0  0  0  0  0  0  0  0
   26.4329  -20.9952   -8.2655 C   0  0  2  0  0  0  0  0  0  0  0  0
   26.0466  -20.4223   -9.5280 N   0  0  0  0  0  0  0  0  0  0  0  0
   25.2343  -21.2392   -7.4287 C   0  0  0  0  0  0  0  0  0  0  0  0
   25.3431  -21.8889   -6.3672 O   0  0  0  0  0  0  0  0  0  0  0  0
   23.9729  -20.7785   -7.7629 O   0  0  0  0  0  0  0  0  0  0  0  0
  2  1  1  0
  2  3  1  0
  3  4  1  6
  3  5  1  0
  5  6  2  0
  7  5  1  0
  7  8  1  0
  8  9  1  6
  9 10  1  0
 11 12  1  0
 11 10  1  0
 12 13  1  0
 14  8  1  0
 14 15  2  0
 17 16  1  6
 17 19  1  0
 18 17  1  0
 19 21  1  0
 19 20  1  6
 20 14  1  0
 21 23  1  0
 22 21  2  0
M  END
$$$$
