SKV.pdb
     RDKit          3D

 23 22  0  0  1  0  0  0  0  0999 V2000
   20.5651   -7.0260  -13.7842 O   0  0  0  0  0  0  0  0  0  0  0  0
   19.3191   -7.0553  -13.1819 C   0  0  0  0  0  0  0  0  0  0  0  0
   18.4839   -8.1032  -13.9175 C   0  0  2  0  0  0  0  0  0  0  0  0
   18.3631   -7.6739  -15.2732 N   0  0  0  0  0  0  0  0  0  0  0  0
   17.2047   -8.2113  -13.2048 C   0  0  0  0  0  0  0  0  0  0  0  0
   16.3957   -7.2569  -13.2546 O   0  0  0  0  0  0  0  0  0  0  0  0
   16.8859   -9.3595  -12.4785 N   0  0  0  0  0  0  0  0  0  0  0  0
   15.6151   -9.5500  -11.7690 C   0  0  1  0  0  0  0  0  0  0  0  0
   15.3120  -11.0056  -11.8524 C   0  0  0  0  0  0  0  0  0  0  0  0
   14.7000  -11.3800  -13.1573 C   0  0  0  0  0  0  0  0  0  0  0  0
   14.5179  -12.8961  -13.2676 C   0  0  0  0  0  0  0  0  0  0  0  0
   13.8293  -13.1554  -14.5995 C   0  0  0  0  0  0  0  0  0  0  0  0
   13.6826  -14.5489  -14.8880 N   0  0  0  0  0  0  0  0  0  0  0  0
   15.6768   -8.9785  -10.4232 C   0  0  0  0  0  0  0  0  0  0  0  0
   16.6017   -9.2114   -9.6096 O   0  0  0  0  0  0  0  0  0  0  0  0
   14.1021   -5.3783   -9.4679 C   0  0  0  0  0  0  0  0  0  0  0  0
   15.0715   -6.0998   -8.5765 C   0  0  2  0  0  0  0  0  0  0  0  0
   16.4597   -5.8510   -9.0803 C   0  0  0  0  0  0  0  0  0  0  0  0
   14.7050   -7.5830   -8.5950 C   0  0  2  0  0  0  0  0  0  0  0  0
   14.6470   -8.0883   -9.9414 N   0  0  0  0  0  0  0  0  0  0  0  0
   13.3874   -7.7395   -7.9348 C   0  0  0  0  0  0  0  0  0  0  0  0
   12.3716   -7.9621   -8.6272 O   0  0  0  0  0  0  0  0  0  0  0  0
   13.2134   -7.6513   -6.5648 O   0  0  0  0  0  0  0  0  0  0  0  0
  2  1  1  0
  2  3  1  0
  3  4  1  6
  3  5  1  0
  5  6  2  0
  7  5  1  0
  7  8  1  0
  8  9  1  1
  9 10  1  0
 11 12  1  0
 11 10  1  0
 12 13  1  0
 14  8  1  0
 14 15  2  0
 17 16  1  6
 17 19  1  0
 18 17  1  0
 19 21  1  0
 19 20  1  6
 20 14  1  0
 21 23  1  0
 22 21  2  0
M  END
$$$$
