SKV.pdb
     RDKit          3D

 23 22  0  0  1  0  0  0  0  0999 V2000
   17.4357  -26.6175   -8.9994 O   0  0  0  0  0  0  0  0  0  0  0  0
   17.5899  -26.4202   -7.6379 C   0  0  0  0  0  0  0  0  0  0  0  0
   17.7384  -24.9158   -7.4113 C   0  0  2  0  0  0  0  0  0  0  0  0
   19.0837  -24.5685   -7.7376 N   0  0  0  0  0  0  0  0  0  0  0  0
   17.3718  -24.6532   -6.0140 C   0  0  0  0  0  0  0  0  0  0  0  0
   18.2767  -24.5460   -5.1553 O   0  0  0  0  0  0  0  0  0  0  0  0
   16.0339  -24.5231   -5.6383 N   0  0  0  0  0  0  0  0  0  0  0  0
   15.5973  -24.1789   -4.2799 C   0  0  1  0  0  0  0  0  0  0  0  0
   14.2063  -23.6643   -4.4133 C   0  0  0  0  0  0  0  0  0  0  0  0
   13.7836  -22.8686   -3.2276 C   0  0  0  0  0  0  0  0  0  0  0  0
   12.3375  -22.3872   -3.3721 C   0  0  0  0  0  0  0  0  0  0  0  0
   12.0360  -21.5416   -2.1435 C   0  0  0  0  0  0  0  0  0  0  0  0
   10.7074  -21.0113   -2.1454 N   0  0  0  0  0  0  0  0  0  0  0  0
   15.7841  -25.3087   -3.3686 C   0  0  0  0  0  0  0  0  0  0  0  0
   15.8170  -26.5054   -3.7408 O   0  0  0  0  0  0  0  0  0  0  0  0
   16.8566  -27.0141    1.1316 C   0  0  0  0  0  0  0  0  0  0  0  0
   16.6365  -25.7825    0.3012 C   0  0  2  0  0  0  0  0  0  0  0  0
   15.6337  -24.9122    0.9940 C   0  0  0  0  0  0  0  0  0  0  0  0
   16.1592  -26.2314   -1.0791 C   0  0  2  0  0  0  0  0  0  0  0  0
   15.9457  -25.1043   -1.9483 N   0  0  0  0  0  0  0  0  0  0  0  0
   14.8964  -26.9874   -0.9057 C   0  0  0  0  0  0  0  0  0  0  0  0
   13.8063  -26.3770   -0.8988 O   0  0  0  0  0  0  0  0  0  0  0  0
   14.8539  -28.3616   -0.7476 O   0  0  0  0  0  0  0  0  0  0  0  0
  2  1  1  0
  2  3  1  0
  3  4  1  1
  3  5  1  0
  5  6  2  0
  7  5  1  0
  7  8  1  0
  8  9  1  6
  9 10  1  0
 11 12  1  0
 11 10  1  0
 12 13  1  0
 14  8  1  0
 14 15  2  0
 17 16  1  1
 17 19  1  0
 18 17  1  0
 19 21  1  0
 19 20  1  6
 20 14  1  0
 21 23  1  0
 22 21  2  0
M  END
$$$$
