SKV.pdb
     RDKit          3D

 23 22  0  0  1  0  0  0  0  0999 V2000
   20.9454  -11.5299    4.7098 O   0  0  0  0  0  0  0  0  0  0  0  0
   20.3650  -12.0462    5.8556 C   0  0  0  0  0  0  0  0  0  0  0  0
   18.8586  -12.1214    5.6070 C   0  0  2  0  0  0  0  0  0  0  0  0
   18.2484  -11.0929    6.3858 N   0  0  0  0  0  0  0  0  0  0  0  0
   18.4311  -13.4799    5.9643 C   0  0  0  0  0  0  0  0  0  0  0  0
   18.1170  -13.7287    7.1506 O   0  0  0  0  0  0  0  0  0  0  0  0
   18.3725  -14.4876    5.0005 N   0  0  0  0  0  0  0  0  0  0  0  0
   18.0246  -15.8822    5.2979 C   0  0  1  0  0  0  0  0  0  0  0  0
   17.3233  -16.3975    4.0895 C   0  0  0  0  0  0  0  0  0  0  0  0
   16.8682  -17.8052    4.2592 C   0  0  0  0  0  0  0  0  0  0  0  0
   16.1306  -18.3017    3.0129 C   0  0  0  0  0  0  0  0  0  0  0  0
   15.7067  -19.7345    3.3006 C   0  0  0  0  0  0  0  0  0  0  0  0
   15.0362  -20.3487    2.1963 N   0  0  0  0  0  0  0  0  0  0  0  0
   19.2028  -16.6341    5.7315 C   0  0  0  0  0  0  0  0  0  0  0  0
   20.2315  -16.7817    5.0303 O   0  0  0  0  0  0  0  0  0  0  0  0
   20.1771  -17.3267    9.7201 C   0  0  0  0  0  0  0  0  0  0  0  0
   21.1403  -17.4479    8.5745 C   0  0  2  0  0  0  0  0  0  0  0  0
   21.6751  -16.0862    8.2540 C   0  0  0  0  0  0  0  0  0  0  0  0
   20.3878  -18.0671    7.3977 C   0  0  2  0  0  0  0  0  0  0  0  0
   19.2497  -17.2672    7.0285 N   0  0  0  0  0  0  0  0  0  0  0  0
   19.9482  -19.4252    7.7961 C   0  0  0  0  0  0  0  0  0  0  0  0
   18.7515  -19.6251    8.0941 O   0  0  0  0  0  0  0  0  0  0  0  0
   20.8061  -20.5092    7.8586 O   0  0  0  0  0  0  0  0  0  0  0  0
  2  1  1  0
  2  3  1  0
  3  4  1  1
  3  5  1  0
  5  6  2  0
  7  5  1  0
  7  8  1  0
  8  9  1  6
  9 10  1  0
 11 12  1  0
 11 10  1  0
 12 13  1  0
 14  8  1  0
 14 15  2  0
 17 16  1  1
 17 19  1  0
 18 17  1  0
 19 21  1  0
 19 20  1  1
 20 14  1  0
 21 23  1  0
 22 21  2  0
M  END
$$$$
