SKV.pdb
     RDKit          3D

 23 22  0  0  1  0  0  0  0  0999 V2000
   20.7571  -18.6887  -11.1349 O   0  0  0  0  0  0  0  0  0  0  0  0
   21.8380  -19.1874  -10.4284 C   0  0  0  0  0  0  0  0  0  0  0  0
   22.4764  -20.2793  -11.2868 C   0  0  2  0  0  0  0  0  0  0  0  0
   21.4762  -21.2683  -11.5279 N   0  0  0  0  0  0  0  0  0  0  0  0
   23.6469  -20.7748  -10.5517 C   0  0  0  0  0  0  0  0  0  0  0  0
   23.4952  -21.6825   -9.7026 O   0  0  0  0  0  0  0  0  0  0  0  0
   24.9167  -20.2467  -10.7897 N   0  0  0  0  0  0  0  0  0  0  0  0
   26.1392  -20.7368  -10.1419 C   0  0  1  0  0  0  0  0  0  0  0  0
   27.1970  -20.7143  -11.1898 C   0  0  0  0  0  0  0  0  0  0  0  0
   28.4511  -21.3788  -10.7391 C   0  0  0  0  0  0  0  0  0  0  0  0
   29.5411  -21.2866  -11.8102 C   0  0  0  0  0  0  0  0  0  0  0  0
   30.7794  -21.9528  -11.2287 C   0  0  0  0  0  0  0  0  0  0  0  0
   31.8838  -21.9646  -12.1379 N   0  0  0  0  0  0  0  0  0  0  0  0
   26.4227  -19.9818   -8.9208 C   0  0  0  0  0  0  0  0  0  0  0  0
   26.2737  -18.7412   -8.8188 O   0  0  0  0  0  0  0  0  0  0  0  0
   26.3293  -21.6077   -5.0712 C   0  0  0  0  0  0  0  0  0  0  0  0
   27.5427  -20.7748   -5.3691 C   0  0  2  0  0  0  0  0  0  0  0  0
   27.9005  -19.9958   -4.1411 C   0  0  0  0  0  0  0  0  0  0  0  0
   27.2060  -19.8691   -6.5527 C   0  0  2  0  0  0  0  0  0  0  0  0
   26.9039  -20.6408   -7.7294 N   0  0  0  0  0  0  0  0  0  0  0  0
   28.3719  -18.9899   -6.8055 C   0  0  0  0  0  0  0  0  0  0  0  0
   28.5144  -17.9444   -6.1366 O   0  0  0  0  0  0  0  0  0  0  0  0
   29.3337  -19.2664   -7.7613 O   0  0  0  0  0  0  0  0  0  0  0  0
  2  1  1  0
  2  3  1  0
  3  4  1  1
  3  5  1  0
  5  6  2  0
  7  5  1  0
  7  8  1  0
  8  9  1  6
  9 10  1  0
 11 12  1  0
 11 10  1  0
 12 13  1  0
 14  8  1  0
 14 15  2  0
 17 16  1  1
 17 19  1  0
 18 17  1  0
 19 21  1  0
 19 20  1  6
 20 14  1  0
 21 23  1  0
 22 21  2  0
M  END
$$$$
