SKV.pdb
     RDKit          3D

 23 22  0  0  1  0  0  0  0  0999 V2000
   23.3388  -20.4834   -9.5780 O   0  0  0  0  0  0  0  0  0  0  0  0
   24.3367  -21.4426   -9.5939 C   0  0  0  0  0  0  0  0  0  0  0  0
   25.5859  -20.7881  -10.1838 C   0  0  2  0  0  0  0  0  0  0  0  0
   25.9051  -19.6661   -9.3618 N   0  0  0  0  0  0  0  0  0  0  0  0
   25.2738  -20.4436  -11.5766 C   0  0  0  0  0  0  0  0  0  0  0  0
   24.7406  -19.3388  -11.8273 O   0  0  0  0  0  0  0  0  0  0  0  0
   25.5643  -21.3302  -12.6146 N   0  0  0  0  0  0  0  0  0  0  0  0
   25.3041  -21.0429  -14.0303 C   0  0  1  0  0  0  0  0  0  0  0  0
   26.2878  -21.8524  -14.8015 C   0  0  0  0  0  0  0  0  0  0  0  0
   26.2402  -21.5573  -16.2604 C   0  0  0  0  0  0  0  0  0  0  0  0
   27.2846  -22.3756  -17.0241 C   0  0  0  0  0  0  0  0  0  0  0  0
   27.2646  -21.8738  -18.4604 C   0  0  0  0  0  0  0  0  0  0  0  0
   28.1714  -22.5825  -19.3101 N   0  0  0  0  0  0  0  0  0  0  0  0
   23.8937  -21.2566  -14.3566 C   0  0  0  0  0  0  0  0  0  0  0  0
   23.1926  -22.1659  -13.8533 O   0  0  0  0  0  0  0  0  0  0  0  0
   19.6898  -19.2716  -15.8361 C   0  0  0  0  0  0  0  0  0  0  0  0
   21.1826  -19.1188  -15.7812 C   0  0  2  0  0  0  0  0  0  0  0  0
   21.6602  -18.6142  -17.1079 C   0  0  0  0  0  0  0  0  0  0  0  0
   21.7771  -20.4820  -15.4311 C   0  0  2  0  0  0  0  0  0  0  0  0
   23.2089  -20.4086  -15.3037 N   0  0  0  0  0  0  0  0  0  0  0  0
   21.4095  -21.4339  -16.5058 C   0  0  0  0  0  0  0  0  0  0  0  0
   22.1950  -21.6243  -17.4585 O   0  0  0  0  0  0  0  0  0  0  0  0
   20.2194  -22.1401  -16.5153 O   0  0  0  0  0  0  0  0  0  0  0  0
  2  1  1  0
  2  3  1  0
  3  4  1  1
  3  5  1  0
  5  6  2  0
  7  5  1  0
  7  8  1  0
  8  9  1  6
  9 10  1  0
 11 12  1  0
 11 10  1  0
 12 13  1  0
 14  8  1  0
 14 15  2  0
 17 16  1  6
 17 19  1  0
 18 17  1  0
 19 21  1  0
 19 20  1  6
 20 14  1  0
 21 23  1  0
 22 21  2  0
M  END
$$$$
