SKV.pdb
     RDKit          3D

 23 22  0  0  1  0  0  0  0  0999 V2000
   30.4215  -22.7283  -10.2450 O   0  0  0  0  0  0  0  0  0  0  0  0
   30.9462  -22.7597  -11.5257 C   0  0  0  0  0  0  0  0  0  0  0  0
   31.2186  -21.3137  -11.9400 C   0  0  2  0  0  0  0  0  0  0  0  0
   31.9331  -20.6937  -10.8715 N   0  0  0  0  0  0  0  0  0  0  0  0
   29.9180  -20.6975  -12.2308 C   0  0  0  0  0  0  0  0  0  0  0  0
   29.3644  -19.9971  -11.3529 O   0  0  0  0  0  0  0  0  0  0  0  0
   29.2988  -20.8846  -13.4676 N   0  0  0  0  0  0  0  0  0  0  0  0
   27.9999  -20.3028  -13.8264 C   0  0  1  0  0  0  0  0  0  0  0  0
   27.9503  -20.2947  -15.3148 C   0  0  0  0  0  0  0  0  0  0  0  0
   26.6807  -19.7143  -15.8333 C   0  0  0  0  0  0  0  0  0  0  0  0
   26.9545  -18.5386  -16.7748 C   0  0  0  0  0  0  0  0  0  0  0  0
   25.5997  -17.9499  -17.1403 C   0  0  0  0  0  0  0  0  0  0  0  0
   25.7046  -16.7366  -17.8910 N   0  0  0  0  0  0  0  0  0  0  0  0
   26.9083  -21.0015  -13.1470 C   0  0  0  0  0  0  0  0  0  0  0  0
   26.7253  -22.2399  -13.2149 O   0  0  0  0  0  0  0  0  0  0  0  0
   24.7790  -19.3043   -9.9245 C   0  0  0  0  0  0  0  0  0  0  0  0
   24.9078  -20.7789  -10.1770 C   0  0  2  0  0  0  0  0  0  0  0  0
   26.1828  -21.2603   -9.5562 C   0  0  0  0  0  0  0  0  0  0  0  0
   24.8812  -20.9958  -11.6893 C   0  0  2  0  0  0  0  0  0  0  0  0
   25.9522  -20.2847  -12.3363 N   0  0  0  0  0  0  0  0  0  0  0  0
   23.5732  -20.5208  -12.1991 C   0  0  0  0  0  0  0  0  0  0  0  0
   23.5205  -19.4853  -12.8961 O   0  0  0  0  0  0  0  0  0  0  0  0
   22.3800  -21.1727  -11.9420 O   0  0  0  0  0  0  0  0  0  0  0  0
  2  1  1  0
  2  3  1  0
  3  4  1  1
  3  5  1  0
  5  6  2  0
  7  5  1  0
  7  8  1  0
  8  9  1  6
  9 10  1  0
 11 12  1  0
 11 10  1  0
 12 13  1  0
 14  8  1  0
 14 15  2  0
 17 16  1  6
 17 19  1  0
 18 17  1  0
 19 21  1  0
 19 20  1  6
 20 14  1  0
 21 23  1  0
 22 21  2  0
M  END
$$$$
