SKV.pdb
     RDKit          3D

 23 22  0  0  1  0  0  0  0  0999 V2000
   19.9699  -15.4865  -15.6179 O   0  0  0  0  0  0  0  0  0  0  0  0
   18.7295  -15.1780  -16.1494 C   0  0  0  0  0  0  0  0  0  0  0  0
   18.9666  -14.5680  -17.5308 C   0  0  2  0  0  0  0  0  0  0  0  0
   19.8516  -15.4399  -18.2332 N   0  0  0  0  0  0  0  0  0  0  0  0
   19.4979  -13.2158  -17.3183 C   0  0  0  0  0  0  0  0  0  0  0  0
   20.7371  -13.0372  -17.3353 O   0  0  0  0  0  0  0  0  0  0  0  0
   18.6400  -12.1369  -17.0993 N   0  0  0  0  0  0  0  0  0  0  0  0
   19.0829  -10.7383  -17.0528 C   0  0  1  0  0  0  0  0  0  0  0  0
   17.9152   -9.9228  -17.4878 C   0  0  0  0  0  0  0  0  0  0  0  0
   16.8589   -9.8477  -16.4408 C   0  0  0  0  0  0  0  0  0  0  0  0
   15.6514   -9.0441  -16.9307 C   0  0  0  0  0  0  0  0  0  0  0  0
   14.6550   -9.0124  -15.7811 C   0  0  0  0  0  0  0  0  0  0  0  0
   13.4023   -8.4263  -16.1466 N   0  0  0  0  0  0  0  0  0  0  0  0
   19.6474  -10.4118  -15.7428 C   0  0  0  0  0  0  0  0  0  0  0  0
   19.2025  -10.8627  -14.6609 O   0  0  0  0  0  0  0  0  0  0  0  0
   23.5334   -8.8869  -15.2777 C   0  0  0  0  0  0  0  0  0  0  0  0
   22.7779   -9.6123  -14.2016 C   0  0  2  0  0  0  0  0  0  0  0  0
   22.9818  -11.0847  -14.3844 C   0  0  0  0  0  0  0  0  0  0  0  0
   21.3077   -9.2120  -14.3151 C   0  0  2  0  0  0  0  0  0  0  0  0
   20.7814   -9.5266  -15.6172 N   0  0  0  0  0  0  0  0  0  0  0  0
   21.2068   -7.7551  -14.0633 C   0  0  0  0  0  0  0  0  0  0  0  0
   20.9816   -6.9773  -15.0147 O   0  0  0  0  0  0  0  0  0  0  0  0
   21.3510   -7.1936  -12.8067 O   0  0  0  0  0  0  0  0  0  0  0  0
  2  1  1  0
  2  3  1  0
  3  4  1  6
  3  5  1  0
  5  6  2  0
  7  5  1  0
  7  8  1  0
  8  9  1  1
  9 10  1  0
 11 12  1  0
 11 10  1  0
 12 13  1  0
 14  8  1  0
 14 15  2  0
 17 16  1  6
 17 19  1  0
 18 17  1  0
 19 21  1  0
 19 20  1  6
 20 14  1  0
 21 23  1  0
 22 21  2  0
M  END
$$$$
