SKV.pdb
     RDKit          3D

 23 22  0  0  1  0  0  0  0  0999 V2000
   13.3641   -8.3256  -14.3004 O   0  0  0  0  0  0  0  0  0  0  0  0
   14.7241   -8.2101  -14.0697 C   0  0  0  0  0  0  0  0  0  0  0  0
   15.3530   -9.5700  -14.3726 C   0  0  2  0  0  0  0  0  0  0  0  0
   14.8268  -10.5006  -13.4272 N   0  0  0  0  0  0  0  0  0  0  0  0
   16.8091   -9.3964  -14.2987 C   0  0  0  0  0  0  0  0  0  0  0  0
   17.3446   -9.1995  -13.1841 O   0  0  0  0  0  0  0  0  0  0  0  0
   17.5946   -9.4485  -15.4512 N   0  0  0  0  0  0  0  0  0  0  0  0
   19.0584   -9.3393  -15.4469 C   0  0  1  0  0  0  0  0  0  0  0  0
   19.5290  -10.0776  -16.6516 C   0  0  0  0  0  0  0  0  0  0  0  0
   19.6355  -11.5430  -16.4087 C   0  0  0  0  0  0  0  0  0  0  0  0
   20.1146  -12.2778  -17.6634 C   0  0  0  0  0  0  0  0  0  0  0  0
   20.1315  -13.7599  -17.3192 C   0  0  0  0  0  0  0  0  0  0  0  0
   20.4934  -14.5850  -18.4305 N   0  0  0  0  0  0  0  0  0  0  0  0
   19.4781   -7.9415  -15.3404 C   0  0  0  0  0  0  0  0  0  0  0  0
   18.9302   -7.0006  -15.9618 O   0  0  0  0  0  0  0  0  0  0  0  0
   22.1939   -6.6835  -12.3643 C   0  0  0  0  0  0  0  0  0  0  0  0
   21.2306   -5.7230  -13.0001 C   0  0  2  0  0  0  0  0  0  0  0  0
   19.9659   -5.7137  -12.1982 C   0  0  0  0  0  0  0  0  0  0  0  0
   21.0009   -6.1795  -14.4401 C   0  0  2  0  0  0  0  0  0  0  0  0
   20.5786   -7.5546  -14.4893 N   0  0  0  0  0  0  0  0  0  0  0  0
   22.2710   -6.0097  -15.1846 C   0  0  0  0  0  0  0  0  0  0  0  0
   22.7167   -4.8614  -15.3931 O   0  0  0  0  0  0  0  0  0  0  0  0
   23.0085   -7.0738  -15.6734 O   0  0  0  0  0  0  0  0  0  0  0  0
  2  1  1  0
  2  3  1  0
  3  4  1  1
  3  5  1  0
  5  6  2  0
  7  5  1  0
  7  8  1  0
  8  9  1  6
  9 10  1  0
 11 12  1  0
 11 10  1  0
 12 13  1  0
 14  8  1  0
 14 15  2  0
 17 16  1  1
 17 19  1  0
 18 17  1  0
 19 21  1  0
 19 20  1  1
 20 14  1  0
 21 23  1  0
 22 21  2  0
M  END
$$$$
