SKV.pdb
     RDKit          3D

 23 22  0  0  1  0  0  0  0  0999 V2000
   20.9167  -13.4766  -19.2493 O   0  0  0  0  0  0  0  0  0  0  0  0
   21.7794  -13.1599  -18.2141 C   0  0  0  0  0  0  0  0  0  0  0  0
   20.9242  -12.8979  -16.9745 C   0  0  2  0  0  0  0  0  0  0  0  0
   19.7992  -13.7735  -17.0427 N   0  0  0  0  0  0  0  0  0  0  0  0
   20.5772  -11.4713  -16.9852 C   0  0  0  0  0  0  0  0  0  0  0  0
   21.2830  -10.6763  -17.6468 O   0  0  0  0  0  0  0  0  0  0  0  0
   19.4762  -10.9980  -16.2699 N   0  0  0  0  0  0  0  0  0  0  0  0
   18.9840   -9.6174  -16.3484 C   0  0  1  0  0  0  0  0  0  0  0  0
   17.5044   -9.6996  -16.2004 C   0  0  0  0  0  0  0  0  0  0  0  0
   16.8294  -10.0599  -17.4779 C   0  0  0  0  0  0  0  0  0  0  0  0
   15.3284  -10.2764  -17.2680 C   0  0  0  0  0  0  0  0  0  0  0  0
   14.7737  -10.7862  -18.5900 C   0  0  0  0  0  0  0  0  0  0  0  0
   13.4174  -11.2300  -18.4901 N   0  0  0  0  0  0  0  0  0  0  0  0
   19.6827   -8.7580  -15.3919 C   0  0  0  0  0  0  0  0  0  0  0  0
   19.8972   -9.0752  -14.1982 O   0  0  0  0  0  0  0  0  0  0  0  0
   22.7645   -5.0901  -14.4879 C   0  0  0  0  0  0  0  0  0  0  0  0
   22.0832   -5.9399  -15.5216 C   0  0  2  0  0  0  0  0  0  0  0  0
   21.6218   -5.0553  -16.6385 C   0  0  0  0  0  0  0  0  0  0  0  0
   20.9238   -6.6635  -14.8382 C   0  0  2  0  0  0  0  0  0  0  0  0
   20.1791   -7.4584  -15.7790 N   0  0  0  0  0  0  0  0  0  0  0  0
   20.0426   -5.6425  -14.2239 C   0  0  0  0  0  0  0  0  0  0  0  0
   19.0087   -5.2772  -14.8227 O   0  0  0  0  0  0  0  0  0  0  0  0
   20.3046   -5.0573  -12.9976 O   0  0  0  0  0  0  0  0  0  0  0  0
  2  1  1  0
  2  3  1  0
  3  4  1  6
  3  5  1  0
  5  6  2  0
  7  5  1  0
  7  8  1  0
  8  9  1  1
  9 10  1  0
 11 12  1  0
 11 10  1  0
 12 13  1  0
 14  8  1  0
 14 15  2  0
 17 16  1  1
 17 19  1  0
 18 17  1  0
 19 21  1  0
 19 20  1  6
 20 14  1  0
 21 23  1  0
 22 21  2  0
M  END
$$$$
