FPE.pdb
     RDKit          3D

 28 29  0  0  1  0  0  0  0  0999 V2000
   15.8526  -18.5542    3.1797 N   0  0  0  0  0  0  0  0  0  0  0  0
   16.2262  -19.5731    4.0822 C   0  0  1  0  0  0  0  0  0  0  0  0
   17.2425  -20.4787    3.4036 C   0  0  0  0  0  0  0  0  0  0  0  0
   16.6116  -21.3189    2.3826 C   0  0  0  0  0  0  0  0  0  0  0  0
   16.8593  -21.0052    1.0436 C   0  0  0  0  0  0  0  0  0  0  0  0
   16.2945  -21.7610    0.0434 C   0  0  0  0  0  0  0  0  0  0  0  0
   15.4791  -22.8325    0.3307 C   0  0  0  0  0  0  0  0  0  0  0  0
   15.2345  -23.1392    1.6739 C   0  0  0  0  0  0  0  0  0  0  0  0
   15.7974  -22.3879    2.6694 C   0  0  0  0  0  0  0  0  0  0  0  0
   16.7504  -19.1550    5.3875 C   0  0  0  0  0  0  0  0  0  0  0  0
   17.4278  -18.0699    5.3924 O   0  0  0  0  0  0  0  0  0  0  0  0
   16.5908  -19.8080    6.6160 N   0  0  0  0  0  0  0  0  0  0  0  0
   15.8648  -21.0388    6.8306 C   0  0  0  0  0  0  0  0  0  0  0  0
   16.0105  -21.3319    8.3382 C   0  0  0  0  0  0  0  0  0  0  0  0
   16.0680  -19.9059    8.8646 C   0  0  0  0  0  0  0  0  0  0  0  0
   17.1372  -19.3468    7.8904 C   0  0  1  0  0  0  0  0  0  0  0  0
   18.4209  -19.9881    8.2185 C   0  0  0  0  0  0  0  0  0  0  0  0
   18.7208  -21.1612    7.9057 O   0  0  0  0  0  0  0  0  0  0  0  0
   19.4037  -19.2375    8.9427 N   0  0  0  0  0  0  0  0  0  0  0  0
   20.6984  -19.8443    9.2739 C   0  0  1  0  0  0  0  0  0  0  0  0
   21.7699  -18.8132    8.9839 C   0  0  0  0  0  0  0  0  0  0  0  0
   21.2787  -17.4775    9.4906 C   0  0  0  0  0  0  0  0  0  0  0  0
   22.4073  -16.5086    9.3745 C   0  0  0  0  0  0  0  0  0  0  0  0
   23.1302  -16.6210    8.3308 O   0  0  0  0  0  0  0  0  0  0  0  0
   20.6842  -20.2596   10.6874 C   0  0  0  0  0  0  0  0  0  0  0  0
   21.6268  -20.9680   11.1283 O   0  0  0  0  0  0  0  0  0  0  0  0
   22.6821  -15.5431   10.3063 O   0  0  0  0  0  0  0  0  0  0  0  0
   19.6719  -19.9180   11.5917 O   0  0  0  0  0  0  0  0  0  0  0  0
  2 10  1  0
  2  1  1  6
  3  2  1  0
  4  3  1  0
  4  5  2  0
  6  5  1  0
  7  6  2  0
  8  9  2  0
  8  7  1  0
  9  4  1  0
 10 12  1  0
 11 10  2  0
 12 13  1  0
 12 16  1  0
 13 14  1  0
 14 15  1  0
 16 15  1  0
 17 19  1  0
 16 17  1  1
 18 17  2  0
 20 21  1  1
 20 25  1  0
 20 19  1  0
 21 22  1  0
 22 23  1  0
 23 24  2  0
 25 28  1  0
 26 25  2  0
 27 23  1  0
M  END
$$$$
