FPE.pdb
     RDKit          3D

 28 29  0  0  1  0  0  0  0  0999 V2000
   25.8595  -18.9450  -11.0627 N   0  0  0  0  0  0  0  0  0  0  0  0
   25.6901  -20.3358  -11.2339 C   0  0  1  0  0  0  0  0  0  0  0  0
   25.3542  -20.9568   -9.8868 C   0  0  0  0  0  0  0  0  0  0  0  0
   26.3264  -20.5683   -8.8620 C   0  0  0  0  0  0  0  0  0  0  0  0
   27.4645  -21.3656   -8.7152 C   0  0  0  0  0  0  0  0  0  0  0  0
   28.4112  -21.0471   -7.7702 C   0  0  0  0  0  0  0  0  0  0  0  0
   28.2642  -19.9490   -6.9528 C   0  0  0  0  0  0  0  0  0  0  0  0
   27.1209  -19.1566   -7.1047 C   0  0  0  0  0  0  0  0  0  0  0  0
   26.1794  -19.4727   -8.0459 C   0  0  0  0  0  0  0  0  0  0  0  0
   24.7019  -20.7747  -12.2259 C   0  0  0  0  0  0  0  0  0  0  0  0
   23.6045  -20.1176  -12.2452 O   0  0  0  0  0  0  0  0  0  0  0  0
   24.8286  -21.8239  -13.1448 N   0  0  0  0  0  0  0  0  0  0  0  0
   25.8980  -22.7950  -13.1761 C   0  0  0  0  0  0  0  0  0  0  0  0
   25.5553  -23.7301  -14.3543 C   0  0  0  0  0  0  0  0  0  0  0  0
   24.8589  -22.7337  -15.2686 C   0  0  0  0  0  0  0  0  0  0  0  0
   23.8919  -22.1090  -14.2295 C   0  0  1  0  0  0  0  0  0  0  0  0
   22.9025  -23.1359  -13.8646 C   0  0  0  0  0  0  0  0  0  0  0  0
   23.0567  -23.9634  -12.9397 O   0  0  0  0  0  0  0  0  0  0  0  0
   21.6773  -23.2096  -14.6046 N   0  0  0  0  0  0  0  0  0  0  0  0
   20.4093  -23.4588  -13.9086 C   0  0  1  0  0  0  0  0  0  0  0  0
   20.0973  -22.2290  -13.0806 C   0  0  0  0  0  0  0  0  0  0  0  0
   19.5038  -21.1879  -14.0003 C   0  0  0  0  0  0  0  0  0  0  0  0
   18.7067  -20.2466  -13.1609 C   0  0  0  0  0  0  0  0  0  0  0  0
   18.3575  -20.6838  -12.0157 O   0  0  0  0  0  0  0  0  0  0  0  0
   19.3645  -23.7457  -14.9068 C   0  0  0  0  0  0  0  0  0  0  0  0
   19.5604  -23.4275  -16.1090 O   0  0  0  0  0  0  0  0  0  0  0  0
   18.3536  -18.9840  -13.5570 O   0  0  0  0  0  0  0  0  0  0  0  0
   18.1417  -24.3561  -14.6044 O   0  0  0  0  0  0  0  0  0  0  0  0
  2 10  1  0
  2  1  1  1
  3  2  1  0
  4  3  1  0
  4  5  2  0
  6  5  1  0
  7  6  2  0
  8  9  2  0
  8  7  1  0
  9  4  1  0
 10 12  1  0
 11 10  2  0
 12 13  1  0
 12 16  1  0
 13 14  1  0
 14 15  1  0
 16 15  1  0
 17 19  1  0
 16 17  1  1
 18 17  2  0
 20 21  1  6
 20 25  1  0
 20 19  1  0
 21 22  1  0
 22 23  1  0
 23 24  2  0
 25 28  1  0
 26 25  2  0
 27 23  1  0
M  END
$$$$
