FPE.pdb
     RDKit          3D

 28 29  0  0  1  0  0  0  0  0999 V2000
   28.8382  -23.6079  -16.5790 N   0  0  0  0  0  0  0  0  0  0  0  0
   28.1952  -22.4237  -16.9992 C   0  0  1  0  0  0  0  0  0  0  0  0
   27.4156  -22.7159  -18.2720 C   0  0  0  0  0  0  0  0  0  0  0  0
   28.2821  -22.6669  -19.4524 C   0  0  0  0  0  0  0  0  0  0  0  0
   28.6402  -21.4073  -19.9397 C   0  0  0  0  0  0  0  0  0  0  0  0
   29.4528  -21.3016  -21.0438 C   0  0  0  0  0  0  0  0  0  0  0  0
   29.9281  -22.4198  -21.6914 C   0  0  0  0  0  0  0  0  0  0  0  0
   29.5635  -23.6776  -21.1984 C   0  0  0  0  0  0  0  0  0  0  0  0
   28.7559  -23.7830  -20.0989 C   0  0  0  0  0  0  0  0  0  0  0  0
   27.3101  -21.7616  -16.0341 C   0  0  0  0  0  0  0  0  0  0  0  0
   26.7951  -22.5196  -15.1415 O   0  0  0  0  0  0  0  0  0  0  0  0
   26.9715  -20.4035  -15.9843 N   0  0  0  0  0  0  0  0  0  0  0  0
   27.3688  -19.3981  -16.9430 C   0  0  0  0  0  0  0  0  0  0  0  0
   26.7233  -18.0897  -16.4416 C   0  0  0  0  0  0  0  0  0  0  0  0
   26.7617  -18.3512  -14.9437 C   0  0  0  0  0  0  0  0  0  0  0  0
   26.1548  -19.7782  -14.9464 C   0  0  1  0  0  0  0  0  0  0  0  0
   24.7400  -19.6624  -15.3358 C   0  0  0  0  0  0  0  0  0  0  0  0
   24.3461  -19.4870  -16.5097 O   0  0  0  0  0  0  0  0  0  0  0  0
   23.7334  -19.7533  -14.3197 N   0  0  0  0  0  0  0  0  0  0  0  0
   22.3219  -19.9065  -14.6916 C   0  0  1  0  0  0  0  0  0  0  0  0
   21.6106  -20.5476  -13.5176 C   0  0  0  0  0  0  0  0  0  0  0  0
   20.4333  -19.6736  -13.1540 C   0  0  0  0  0  0  0  0  0  0  0  0
   19.3555  -20.5634  -12.6318 C   0  0  0  0  0  0  0  0  0  0  0  0
   19.6525  -21.7994  -12.5390 O   0  0  0  0  0  0  0  0  0  0  0  0
   21.7703  -18.5829  -15.0298 C   0  0  0  0  0  0  0  0  0  0  0  0
   22.2583  -17.5576  -14.4862 O   0  0  0  0  0  0  0  0  0  0  0  0
   18.1134  -20.1203  -12.2621 O   0  0  0  0  0  0  0  0  0  0  0  0
   20.7164  -18.3823  -15.9289 O   0  0  0  0  0  0  0  0  0  0  0  0
  2 10  1  0
  2  1  1  1
  3  2  1  0
  4  3  1  0
  4  5  2  0
  6  5  1  0
  7  6  2  0
  8  9  2  0
  8  7  1  0
  9  4  1  0
 10 12  1  0
 11 10  2  0
 12 13  1  0
 12 16  1  0
 13 14  1  0
 14 15  1  0
 16 15  1  0
 17 19  1  0
 16 17  1  6
 18 17  2  0
 20 21  1  1
 20 25  1  0
 20 19  1  0
 21 22  1  0
 22 23  1  0
 23 24  2  0
 25 28  1  0
 26 25  2  0
 27 23  1  0
M  END
$$$$
