FPE.pdb
     RDKit          3D

 28 29  0  0  1  0  0  0  0  0999 V2000
   16.8654  -12.5079    5.0350 N   0  0  0  0  0  0  0  0  0  0  0  0
   17.3482  -13.5224    4.1805 C   0  0  1  0  0  0  0  0  0  0  0  0
   18.8166  -13.2564    3.8867 C   0  0  0  0  0  0  0  0  0  0  0  0
   19.5872  -13.0912    5.1218 C   0  0  0  0  0  0  0  0  0  0  0  0
   19.8322  -14.2334    5.8885 C   0  0  0  0  0  0  0  0  0  0  0  0
   20.5516  -14.1375    7.0564 C   0  0  0  0  0  0  0  0  0  0  0  0
   21.0422  -12.9287    7.4967 C   0  0  0  0  0  0  0  0  0  0  0  0
   20.7911  -11.7893    6.7242 C   0  0  0  0  0  0  0  0  0  0  0  0
   20.0763  -11.8848    5.5613 C   0  0  0  0  0  0  0  0  0  0  0  0
   17.1913  -14.9102    4.6305 C   0  0  0  0  0  0  0  0  0  0  0  0
   16.8699  -15.0629    5.8592 O   0  0  0  0  0  0  0  0  0  0  0  0
   17.3530  -16.0740    3.8684 N   0  0  0  0  0  0  0  0  0  0  0  0
   17.7110  -16.1249    2.4695 C   0  0  0  0  0  0  0  0  0  0  0  0
   17.7756  -17.6277    2.1271 C   0  0  0  0  0  0  0  0  0  0  0  0
   16.7048  -18.1453    3.0755 C   0  0  0  0  0  0  0  0  0  0  0  0
   17.1847  -17.4366    4.3687 C   0  0  1  0  0  0  0  0  0  0  0  0
   18.4606  -18.0517    4.7693 C   0  0  0  0  0  0  0  0  0  0  0  0
   19.5276  -17.9390    4.1268 O   0  0  0  0  0  0  0  0  0  0  0  0
   18.5044  -18.8343    5.9691 N   0  0  0  0  0  0  0  0  0  0  0  0
   19.7709  -19.4239    6.4191 C   0  0  1  0  0  0  0  0  0  0  0  0
   20.2326  -18.6375    7.6290 C   0  0  0  0  0  0  0  0  0  0  0  0
   19.0912  -18.5932    8.6176 C   0  0  0  0  0  0  0  0  0  0  0  0
   19.5073  -19.3696    9.8217 C   0  0  0  0  0  0  0  0  0  0  0  0
   20.6491  -19.0744   10.3052 O   0  0  0  0  0  0  0  0  0  0  0  0
   19.5535  -20.8490    6.7230 C   0  0  0  0  0  0  0  0  0  0  0  0
   18.3827  -21.3109    6.6942 O   0  0  0  0  0  0  0  0  0  0  0  0
   18.7402  -20.3439   10.4033 O   0  0  0  0  0  0  0  0  0  0  0  0
   20.5789  -21.7427    7.0530 O   0  0  0  0  0  0  0  0  0  0  0  0
  2 10  1  0
  2  1  1  1
  3  2  1  0
  4  3  1  0
  4  5  2  0
  6  5  1  0
  7  6  2  0
  8  9  2  0
  8  7  1  0
  9  4  1  0
 10 12  1  0
 11 10  2  0
 12 13  1  0
 12 16  1  0
 13 14  1  0
 14 15  1  0
 16 15  1  0
 17 19  1  0
 16 17  1  6
 18 17  2  0
 20 21  1  1
 20 25  1  0
 20 19  1  0
 21 22  1  0
 22 23  1  0
 23 24  2  0
 25 28  1  0
 26 25  2  0
 27 23  1  0
M  END
$$$$
