FPE.pdb
     RDKit          3D

 28 29  0  0  1  0  0  0  0  0999 V2000
   19.5529  -12.9818  -18.0950 N   0  0  0  0  0  0  0  0  0  0  0  0
   20.7027  -12.1957  -17.8668 C   0  0  1  0  0  0  0  0  0  0  0  0
   21.0084  -11.3994  -19.1262 C   0  0  0  0  0  0  0  0  0  0  0  0
   21.1930  -12.2792  -20.2829 C   0  0  0  0  0  0  0  0  0  0  0  0
   22.4194  -12.9375  -20.4054 C   0  0  0  0  0  0  0  0  0  0  0  0
   22.6471  -13.7769  -21.4704 C   0  0  0  0  0  0  0  0  0  0  0  0
   21.6857  -13.9873  -22.4332 C   0  0  0  0  0  0  0  0  0  0  0  0
   20.4608  -13.3231  -22.3044 C   0  0  0  0  0  0  0  0  0  0  0  0
   20.2336  -12.4888  -21.2440 C   0  0  0  0  0  0  0  0  0  0  0  0
   20.6760  -11.2850  -16.7165 C   0  0  0  0  0  0  0  0  0  0  0  0
   19.5194  -10.8641  -16.3678 O   0  0  0  0  0  0  0  0  0  0  0  0
   21.7682  -10.8316  -15.9661 N   0  0  0  0  0  0  0  0  0  0  0  0
   23.1518  -11.1817  -16.1915 C   0  0  0  0  0  0  0  0  0  0  0  0
   23.9409  -10.4084  -15.1149 C   0  0  0  0  0  0  0  0  0  0  0  0
   22.9059  -10.4073  -14.0002 C   0  0  0  0  0  0  0  0  0  0  0  0
   21.6847   -9.9233  -14.8244 C   0  0  1  0  0  0  0  0  0  0  0  0
   21.9259   -8.5209  -15.2010 C   0  0  0  0  0  0  0  0  0  0  0  0
   22.7081   -8.1612  -16.1080 O   0  0  0  0  0  0  0  0  0  0  0  0
   21.2302   -7.4859  -14.4949 N   0  0  0  0  0  0  0  0  0  0  0  0
   21.2104   -6.1171  -15.0242 C   0  0  1  0  0  0  0  0  0  0  0  0
   19.7742   -5.6361  -14.9839 C   0  0  0  0  0  0  0  0  0  0  0  0
   19.7522   -4.1993  -15.4501 C   0  0  0  0  0  0  0  0  0  0  0  0
   18.3388   -3.7259  -15.3849 C   0  0  0  0  0  0  0  0  0  0  0  0
   17.4825   -4.5866  -14.9971 O   0  0  0  0  0  0  0  0  0  0  0  0
   22.1086   -5.2775  -14.2125 C   0  0  0  0  0  0  0  0  0  0  0  0
   22.3411   -5.6035  -13.0190 O   0  0  0  0  0  0  0  0  0  0  0  0
   17.9447   -2.4551  -15.7099 O   0  0  0  0  0  0  0  0  0  0  0  0
   22.7308   -4.1160  -14.6846 O   0  0  0  0  0  0  0  0  0  0  0  0
  2 10  1  0
  2  1  1  6
  3  2  1  0
  4  3  1  0
  4  5  2  0
  6  5  1  0
  7  6  2  0
  8  9  2  0
  8  7  1  0
  9  4  1  0
 10 12  1  0
 11 10  2  0
 12 13  1  0
 12 16  1  0
 13 14  1  0
 14 15  1  0
 16 15  1  0
 17 19  1  0
 16 17  1  6
 18 17  2  0
 20 21  1  1
 20 25  1  0
 20 19  1  0
 21 22  1  0
 22 23  1  0
 23 24  2  0
 25 28  1  0
 26 25  2  0
 27 23  1  0
M  END
$$$$
