FPE.pdb
     RDKit          3D

 28 29  0  0  1  0  0  0  0  0999 V2000
   27.2252  -19.6747  -16.1572 N   0  0  0  0  0  0  0  0  0  0  0  0
   26.5406  -19.3002  -14.9811 C   0  0  1  0  0  0  0  0  0  0  0  0
   25.7346  -18.0418  -15.2643 C   0  0  0  0  0  0  0  0  0  0  0  0
   26.6082  -16.8895  -15.4997 C   0  0  0  0  0  0  0  0  0  0  0  0
   26.9627  -16.6062  -16.8213 C   0  0  0  0  0  0  0  0  0  0  0  0
   27.7790  -15.5356  -17.1009 C   0  0  0  0  0  0  0  0  0  0  0  0
   28.2639  -14.7254  -16.0989 C   0  0  0  0  0  0  0  0  0  0  0  0
   27.9059  -15.0167  -14.7779 C   0  0  0  0  0  0  0  0  0  0  0  0
   27.0926  -16.0813  -14.4996 C   0  0  0  0  0  0  0  0  0  0  0  0
   25.6649  -20.3039  -14.3654 C   0  0  0  0  0  0  0  0  0  0  0  0
   25.1453  -21.1546  -15.1672 O   0  0  0  0  0  0  0  0  0  0  0  0
   25.3399  -20.4307  -13.0091 N   0  0  0  0  0  0  0  0  0  0  0  0
   25.8340  -19.5935  -11.9401 C   0  0  0  0  0  0  0  0  0  0  0  0
   25.1622  -20.1375  -10.6624 C   0  0  0  0  0  0  0  0  0  0  0  0
   25.0625  -21.6077  -11.0401 C   0  0  0  0  0  0  0  0  0  0  0  0
   24.4409  -21.4383  -12.4507 C   0  0  1  0  0  0  0  0  0  0  0  0
   23.0683  -20.9354  -12.2778 C   0  0  0  0  0  0  0  0  0  0  0  0
   22.7862  -19.7987  -11.8392 O   0  0  0  0  0  0  0  0  0  0  0  0
   21.9704  -21.7874  -12.6281 N   0  0  0  0  0  0  0  0  0  0  0  0
   20.5944  -21.2808  -12.5642 C   0  0  1  0  0  0  0  0  0  0  0  0
   19.9045  -21.6786  -13.8531 C   0  0  0  0  0  0  0  0  0  0  0  0
   20.5826  -20.9474  -14.9879 C   0  0  0  0  0  0  0  0  0  0  0  0
   19.5329  -20.1840  -15.7235 C   0  0  0  0  0  0  0  0  0  0  0  0
   19.1291  -20.7055  -16.8142 O   0  0  0  0  0  0  0  0  0  0  0  0
   19.9327  -21.8435  -11.3742 C   0  0  0  0  0  0  0  0  0  0  0  0
   20.3299  -22.9463  -10.9151 O   0  0  0  0  0  0  0  0  0  0  0  0
   19.0078  -18.9964  -15.2880 O   0  0  0  0  0  0  0  0  0  0  0  0
   18.8677  -21.2266  -10.7076 O   0  0  0  0  0  0  0  0  0  0  0  0
  2 10  1  0
  2  1  1  6
  3  2  1  0
  4  3  1  0
  4  5  2  0
  6  5  1  0
  7  6  2  0
  8  9  2  0
  8  7  1  0
  9  4  1  0
 10 12  1  0
 11 10  2  0
 12 13  1  0
 12 16  1  0
 13 14  1  0
 14 15  1  0
 16 15  1  0
 17 19  1  0
 16 17  1  1
 18 17  2  0
 20 21  1  6
 20 25  1  0
 20 19  1  0
 21 22  1  0
 22 23  1  0
 23 24  2  0
 25 28  1  0
 26 25  2  0
 27 23  1  0
M  END
$$$$
