FPE.pdb
     RDKit          3D

 28 29  0  0  1  0  0  0  0  0999 V2000
   21.0994   -5.6909  -17.5184 N   0  0  0  0  0  0  0  0  0  0  0  0
   21.5384   -5.7619  -16.1788 C   0  0  1  0  0  0  0  0  0  0  0  0
   21.9386   -4.3678  -15.7209 C   0  0  0  0  0  0  0  0  0  0  0  0
   23.0841   -3.8636  -16.4823 C   0  0  0  0  0  0  0  0  0  0  0  0
   24.3488   -4.3559  -16.1496 C   0  0  0  0  0  0  0  0  0  0  0  0
   25.4594   -3.9189  -16.8325 C   0  0  0  0  0  0  0  0  0  0  0  0
   25.3566   -2.9952  -17.8483 C   0  0  0  0  0  0  0  0  0  0  0  0
   24.0869   -2.5057  -18.1743 C   0  0  0  0  0  0  0  0  0  0  0  0
   22.9814   -2.9414  -17.4958 C   0  0  0  0  0  0  0  0  0  0  0  0
   20.6135   -6.3431  -15.1990 C   0  0  0  0  0  0  0  0  0  0  0  0
   19.3695   -6.2327  -15.4758 O   0  0  0  0  0  0  0  0  0  0  0  0
   20.9415   -6.9994  -14.0061 N   0  0  0  0  0  0  0  0  0  0  0  0
   22.2775   -7.2114  -13.4982 C   0  0  0  0  0  0  0  0  0  0  0  0
   22.0840   -7.9558  -12.1609 C   0  0  0  0  0  0  0  0  0  0  0  0
   20.8255   -8.7426  -12.4938 C   0  0  0  0  0  0  0  0  0  0  0  0
   19.9779   -7.5808  -13.0740 C   0  0  1  0  0  0  0  0  0  0  0  0
   19.6466   -6.6710  -11.9653 C   0  0  0  0  0  0  0  0  0  0  0  0
   20.3080   -5.6511  -11.6713 O   0  0  0  0  0  0  0  0  0  0  0  0
   18.4966   -6.9543  -11.1583 N   0  0  0  0  0  0  0  0  0  0  0  0
   17.6307   -5.8618  -10.6991 C   0  0  1  0  0  0  0  0  0  0  0  0
   17.1182   -5.1416  -11.9296 C   0  0  0  0  0  0  0  0  0  0  0  0
   16.2612   -3.9862  -11.4684 C   0  0  0  0  0  0  0  0  0  0  0  0
   15.8816   -3.1964  -12.6759 C   0  0  0  0  0  0  0  0  0  0  0  0
   16.7416   -2.3445  -13.0750 O   0  0  0  0  0  0  0  0  0  0  0  0
   16.5420   -6.4259   -9.8823 C   0  0  0  0  0  0  0  0  0  0  0  0
   16.1432   -7.5969  -10.1157 O   0  0  0  0  0  0  0  0  0  0  0  0
   14.6957   -3.3478  -13.3441 O   0  0  0  0  0  0  0  0  0  0  0  0
   15.9038   -5.7342   -8.8462 O   0  0  0  0  0  0  0  0  0  0  0  0
  2 10  1  0
  2  1  1  6
  3  2  1  0
  4  3  1  0
  4  5  2  0
  6  5  1  0
  7  6  2  0
  8  9  2  0
  8  7  1  0
  9  4  1  0
 10 12  1  0
 11 10  2  0
 12 13  1  0
 12 16  1  0
 13 14  1  0
 14 15  1  0
 16 15  1  0
 17 19  1  0
 16 17  1  1
 18 17  2  0
 20 21  1  6
 20 25  1  0
 20 19  1  0
 21 22  1  0
 22 23  1  0
 23 24  2  0
 25 28  1  0
 26 25  2  0
 27 23  1  0
M  END
$$$$
