FPE.pdb
     RDKit          3D

 28 29  0  0  1  0  0  0  0  0999 V2000
   28.7653  -22.7595  -15.4756 N   0  0  0  0  0  0  0  0  0  0  0  0
   28.2233  -21.6182  -14.8464 C   0  0  1  0  0  0  0  0  0  0  0  0
   28.3448  -20.4339  -15.7931 C   0  0  0  0  0  0  0  0  0  0  0  0
   27.8834  -19.1953  -15.1612 C   0  0  0  0  0  0  0  0  0  0  0  0
   28.7964  -18.4947  -14.3687 C   0  0  0  0  0  0  0  0  0  0  0  0
   28.4181  -17.3250  -13.7529 C   0  0  0  0  0  0  0  0  0  0  0  0
   27.1454  -16.8199  -13.8975 C   0  0  0  0  0  0  0  0  0  0  0  0
   26.2365  -17.5282  -14.6913 C   0  0  0  0  0  0  0  0  0  0  0  0
   26.6131  -18.6916  -15.3053 C   0  0  0  0  0  0  0  0  0  0  0  0
   26.8399  -21.7098  -14.3657 C   0  0  0  0  0  0  0  0  0  0  0  0
   25.9843  -22.1394  -15.2141 O   0  0  0  0  0  0  0  0  0  0  0  0
   26.3595  -21.3817  -13.0918 N   0  0  0  0  0  0  0  0  0  0  0  0
   27.0600  -20.5974  -12.1008 C   0  0  0  0  0  0  0  0  0  0  0  0
   26.0954  -20.5162  -10.8996 C   0  0  0  0  0  0  0  0  0  0  0  0
   25.4042  -21.8635  -11.0437 C   0  0  0  0  0  0  0  0  0  0  0  0
   25.0613  -21.7826  -12.5540 C   0  0  1  0  0  0  0  0  0  0  0  0
   24.0345  -20.7418  -12.7249 C   0  0  0  0  0  0  0  0  0  0  0  0
   24.2396  -19.5188  -12.5631 O   0  0  0  0  0  0  0  0  0  0  0  0
   22.7081  -21.1340  -13.1002 N   0  0  0  0  0  0  0  0  0  0  0  0
   21.7272  -20.1211  -13.5078 C   0  0  1  0  0  0  0  0  0  0  0  0
   21.3598  -20.4004  -14.9509 C   0  0  0  0  0  0  0  0  0  0  0  0
   20.3238  -19.3847  -15.3715 C   0  0  0  0  0  0  0  0  0  0  0  0
   20.9724  -18.4540  -16.3407 C   0  0  0  0  0  0  0  0  0  0  0  0
   20.4240  -17.3101  -16.4638 O   0  0  0  0  0  0  0  0  0  0  0  0
   20.5640  -20.1922  -12.6065 C   0  0  0  0  0  0  0  0  0  0  0  0
   20.3318  -21.2636  -11.9877 O   0  0  0  0  0  0  0  0  0  0  0  0
   22.0884  -18.7687  -17.0697 O   0  0  0  0  0  0  0  0  0  0  0  0
   19.6780  -19.1306  -12.3893 O   0  0  0  0  0  0  0  0  0  0  0  0
  2 10  1  0
  2  1  1  6
  3  2  1  0
  4  3  1  0
  4  5  2  0
  6  5  1  0
  7  6  2  0
  8  9  2  0
  8  7  1  0
  9  4  1  0
 10 12  1  0
 11 10  2  0
 12 13  1  0
 12 16  1  0
 13 14  1  0
 14 15  1  0
 16 15  1  0
 17 19  1  0
 16 17  1  1
 18 17  2  0
 20 21  1  6
 20 25  1  0
 20 19  1  0
 21 22  1  0
 22 23  1  0
 23 24  2  0
 25 28  1  0
 26 25  2  0
 27 23  1  0
M  END
$$$$
