FPE.pdb
     RDKit          3D

 28 29  0  0  1  0  0  0  0  0999 V2000
   28.1416  -20.0073  -15.9990 N   0  0  0  0  0  0  0  0  0  0  0  0
   27.2352  -19.5740  -15.0077 C   0  0  1  0  0  0  0  0  0  0  0  0
   26.2892  -18.5539  -15.6224 C   0  0  0  0  0  0  0  0  0  0  0  0
   26.9439  -17.2548  -15.7962 C   0  0  0  0  0  0  0  0  0  0  0  0
   27.5065  -16.9762  -17.0445 C   0  0  0  0  0  0  0  0  0  0  0  0
   28.1321  -15.7717  -17.2645 C   0  0  0  0  0  0  0  0  0  0  0  0
   28.2212  -14.8207  -16.2729 C   0  0  0  0  0  0  0  0  0  0  0  0
   27.6569  -15.1080  -15.0250 C   0  0  0  0  0  0  0  0  0  0  0  0
   27.0332  -16.3060  -14.8063 C   0  0  0  0  0  0  0  0  0  0  0  0
   26.4497  -20.6047  -14.3192 C   0  0  0  0  0  0  0  0  0  0  0  0
   26.1781  -21.6483  -15.0075 O   0  0  0  0  0  0  0  0  0  0  0  0
   25.9705  -20.5707  -13.0038 N   0  0  0  0  0  0  0  0  0  0  0  0
   26.2979  -19.5733  -12.0109 C   0  0  0  0  0  0  0  0  0  0  0  0
   25.5014  -19.9824  -10.7546 C   0  0  0  0  0  0  0  0  0  0  0  0
   25.5091  -21.4927  -10.9359 C   0  0  0  0  0  0  0  0  0  0  0  0
   25.0541  -21.5462  -12.4174 C   0  0  1  0  0  0  0  0  0  0  0  0
   23.6509  -21.1047  -12.4711 C   0  0  0  0  0  0  0  0  0  0  0  0
   23.2727  -19.9351  -12.2409 O   0  0  0  0  0  0  0  0  0  0  0  0
   22.6374  -22.0610  -12.8064 N   0  0  0  0  0  0  0  0  0  0  0  0
   21.3032  -21.6080  -13.2173 C   0  0  1  0  0  0  0  0  0  0  0  0
   20.8425  -22.5145  -14.3405 C   0  0  0  0  0  0  0  0  0  0  0  0
   19.4070  -22.1677  -14.6583 C   0  0  0  0  0  0  0  0  0  0  0  0
   19.3811  -21.5591  -16.0203 C   0  0  0  0  0  0  0  0  0  0  0  0
   20.3615  -21.8551  -16.7792 O   0  0  0  0  0  0  0  0  0  0  0  0
   20.4031  -21.6532  -12.0519 C   0  0  0  0  0  0  0  0  0  0  0  0
   20.6845  -22.4129  -11.0883 O   0  0  0  0  0  0  0  0  0  0  0  0
   18.3852  -20.7319  -16.4669 O   0  0  0  0  0  0  0  0  0  0  0  0
   19.2299  -20.8979  -11.9411 O   0  0  0  0  0  0  0  0  0  0  0  0
  2 10  1  0
  2  1  1  6
  3  2  1  0
  4  3  1  0
  4  5  2  0
  6  5  1  0
  7  6  2  0
  8  9  2  0
  8  7  1  0
  9  4  1  0
 10 12  1  0
 11 10  2  0
 12 13  1  0
 12 16  1  0
 13 14  1  0
 14 15  1  0
 16 15  1  0
 17 19  1  0
 16 17  1  1
 18 17  2  0
 20 21  1  6
 20 25  1  0
 20 19  1  0
 21 22  1  0
 22 23  1  0
 23 24  2  0
 25 28  1  0
 26 25  2  0
 27 23  1  0
M  END
$$$$
