FPE.pdb
     RDKit          3D

 28 29  0  0  1  0  0  0  0  0999 V2000
   25.8111  -18.8239   -7.9916 N   0  0  0  0  0  0  0  0  0  0  0  0
   26.7047  -19.5580   -8.8009 C   0  0  1  0  0  0  0  0  0  0  0  0
   27.0979  -20.8301   -8.0656 C   0  0  0  0  0  0  0  0  0  0  0  0
   27.8145  -20.5295   -6.8237 C   0  0  0  0  0  0  0  0  0  0  0  0
   27.0781  -20.5296   -5.6361 C   0  0  0  0  0  0  0  0  0  0  0  0
   27.6995  -20.2558   -4.4405 C   0  0  0  0  0  0  0  0  0  0  0  0
   29.0464  -19.9763   -4.3823 C   0  0  0  0  0  0  0  0  0  0  0  0
   29.7766  -19.9764   -5.5761 C   0  0  0  0  0  0  0  0  0  0  0  0
   29.1586  -20.2500   -6.7658 C   0  0  0  0  0  0  0  0  0  0  0  0
   26.2553  -19.9040  -10.1543 C   0  0  0  0  0  0  0  0  0  0  0  0
   24.9884  -19.9276  -10.3300 O   0  0  0  0  0  0  0  0  0  0  0  0
   27.0546  -20.2077  -11.2634 N   0  0  0  0  0  0  0  0  0  0  0  0
   28.3286  -20.8883  -11.2257 C   0  0  0  0  0  0  0  0  0  0  0  0
   28.7737  -20.9868  -12.6995 C   0  0  0  0  0  0  0  0  0  0  0  0
   28.1528  -19.7049  -13.2333 C   0  0  0  0  0  0  0  0  0  0  0  0
   26.7270  -19.8828  -12.6500 C   0  0  1  0  0  0  0  0  0  0  0  0
   26.0909  -21.0064  -13.3570 C   0  0  0  0  0  0  0  0  0  0  0  0
   26.0411  -22.1760  -12.9170 O   0  0  0  0  0  0  0  0  0  0  0  0
   25.4844  -20.7660  -14.6330 N   0  0  0  0  0  0  0  0  0  0  0  0
   24.0813  -21.1303  -14.8629 C   0  0  1  0  0  0  0  0  0  0  0  0
   23.2528  -20.4366  -13.8008 C   0  0  0  0  0  0  0  0  0  0  0  0
   21.8132  -20.8541  -13.9883 C   0  0  0  0  0  0  0  0  0  0  0  0
   21.3358  -21.4209  -12.6934 C   0  0  0  0  0  0  0  0  0  0  0  0
   21.2390  -20.5945  -11.7279 O   0  0  0  0  0  0  0  0  0  0  0  0
   23.7000  -20.7266  -16.2275 C   0  0  0  0  0  0  0  0  0  0  0  0
   24.1474  -19.6470  -16.6956 O   0  0  0  0  0  0  0  0  0  0  0  0
   21.0096  -22.7387  -12.5120 O   0  0  0  0  0  0  0  0  0  0  0  0
   22.8535  -21.4732  -17.0552 O   0  0  0  0  0  0  0  0  0  0  0  0
  2 10  1  0
  2  1  1  1
  3  2  1  0
  4  3  1  0
  4  5  2  0
  6  5  1  0
  7  6  2  0
  8  9  2  0
  8  7  1  0
  9  4  1  0
 10 12  1  0
 11 10  2  0
 12 13  1  0
 12 16  1  0
 13 14  1  0
 14 15  1  0
 16 15  1  0
 17 19  1  0
 16 17  1  6
 18 17  2  0
 20 21  1  1
 20 25  1  0
 20 19  1  0
 21 22  1  0
 22 23  1  0
 23 24  2  0
 25 28  1  0
 26 25  2  0
 27 23  1  0
M  END
$$$$
