FPE.pdb
     RDKit          3D

 28 29  0  0  1  0  0  0  0  0999 V2000
   27.1171    3.1006   -6.9194 N   0  0  0  0  0  0  0  0  0  0  0  0
   25.9409    2.6664   -6.2710 C   0  0  1  0  0  0  0  0  0  0  0  0
   25.6329    1.2453   -6.7173 C   0  0  0  0  0  0  0  0  0  0  0  0
   25.1031    1.2171   -8.0828 C   0  0  0  0  0  0  0  0  0  0  0  0
   26.0166    1.0548   -9.1276 C   0  0  0  0  0  0  0  0  0  0  0  0
   25.5750    1.0194  -10.4293 C   0  0  0  0  0  0  0  0  0  0  0  0
   24.2381    1.1430  -10.7343 C   0  0  0  0  0  0  0  0  0  0  0  0
   23.3297    1.3070   -9.6826 C   0  0  0  0  0  0  0  0  0  0  0  0
   23.7688    1.3409   -8.3872 C   0  0  0  0  0  0  0  0  0  0  0  0
   25.9216    2.7251   -4.8049 C   0  0  0  0  0  0  0  0  0  0  0  0
   27.0241    2.4384   -4.2229 O   0  0  0  0  0  0  0  0  0  0  0  0
   24.8384    3.0581   -3.9821 N   0  0  0  0  0  0  0  0  0  0  0  0
   23.4853    3.3041   -4.4250 C   0  0  0  0  0  0  0  0  0  0  0  0
   22.6913    3.6067   -3.1374 C   0  0  0  0  0  0  0  0  0  0  0  0
   23.7882    4.2701   -2.3186 C   0  0  0  0  0  0  0  0  0  0  0  0
   24.9016    3.2117   -2.5303 C   0  0  1  0  0  0  0  0  0  0  0  0
   24.4990    1.9892   -1.8160 C   0  0  0  0  0  0  0  0  0  0  0  0
   23.6599    1.1677   -2.2463 O   0  0  0  0  0  0  0  0  0  0  0  0
   25.0944    1.7036   -0.5440 N   0  0  0  0  0  0  0  0  0  0  0  0
   24.7988    0.4399    0.1415 C   0  0  1  0  0  0  0  0  0  0  0  0
   25.9262    0.1801    1.1197 C   0  0  0  0  0  0  0  0  0  0  0  0
   25.6954   -1.1754    1.7453 C   0  0  0  0  0  0  0  0  0  0  0  0
   26.7926   -1.4107    2.7286 C   0  0  0  0  0  0  0  0  0  0  0  0
   27.6168   -0.4505    2.8809 O   0  0  0  0  0  0  0  0  0  0  0  0
   23.4896    0.5524    0.8078 C   0  0  0  0  0  0  0  0  0  0  0  0
   22.8129   -0.4896    1.0107 O   0  0  0  0  0  0  0  0  0  0  0  0
   26.9393   -2.5691    3.4445 O   0  0  0  0  0  0  0  0  0  0  0  0
   22.9323    1.7629    1.2357 O   0  0  0  0  0  0  0  0  0  0  0  0
  2 10  1  0
  2  1  1  1
  3  2  1  0
  4  3  1  0
  4  5  2  0
  6  5  1  0
  7  6  2  0
  8  9  2  0
  8  7  1  0
  9  4  1  0
 10 12  1  0
 11 10  2  0
 12 13  1  0
 12 16  1  0
 13 14  1  0
 14 15  1  0
 16 15  1  0
 17 19  1  0
 16 17  1  1
 18 17  2  0
 20 21  1  1
 20 25  1  0
 20 19  1  0
 21 22  1  0
 22 23  1  0
 23 24  2  0
 25 28  1  0
 26 25  2  0
 27 23  1  0
M  END
$$$$
