FPE.pdb
     RDKit          3D

 28 29  0  0  1  0  0  0  0  0999 V2000
   24.1630  -20.3899  -10.2754 N   0  0  0  0  0  0  0  0  0  0  0  0
   25.4437  -20.1992  -10.8372 C   0  0  1  0  0  0  0  0  0  0  0  0
   26.3531  -21.3274  -10.3752 C   0  0  0  0  0  0  0  0  0  0  0  0
   27.1855  -20.9132   -9.2430 C   0  0  0  0  0  0  0  0  0  0  0  0
   26.5500  -20.2833   -8.1697 C   0  0  0  0  0  0  0  0  0  0  0  0
   27.2818  -19.8749   -7.0796 C   0  0  0  0  0  0  0  0  0  0  0  0
   28.6431  -20.0717   -7.0179 C   0  0  0  0  0  0  0  0  0  0  0  0
   29.2724  -20.7015   -8.0974 C   0  0  0  0  0  0  0  0  0  0  0  0
   28.5441  -21.1092   -9.1817 C   0  0  0  0  0  0  0  0  0  0  0  0
   25.5257  -20.0824  -12.2976 C   0  0  0  0  0  0  0  0  0  0  0  0
   24.4130  -20.1573  -12.9242 O   0  0  0  0  0  0  0  0  0  0  0  0
   26.6781  -19.8994  -13.0721 N   0  0  0  0  0  0  0  0  0  0  0  0
   28.0374  -20.0974  -12.6239 C   0  0  0  0  0  0  0  0  0  0  0  0
   28.9141  -19.7842  -13.8541 C   0  0  0  0  0  0  0  0  0  0  0  0
   28.0476  -18.7221  -14.5135 C   0  0  0  0  0  0  0  0  0  0  0  0
   26.6926  -19.4752  -14.4704 C   0  0  1  0  0  0  0  0  0  0  0  0
   26.7815  -20.6106  -15.4030 C   0  0  0  0  0  0  0  0  0  0  0  0
   27.4821  -21.6279  -15.2072 O   0  0  0  0  0  0  0  0  0  0  0  0
   26.0249  -20.5672  -16.6194 N   0  0  0  0  0  0  0  0  0  0  0  0
   25.1869  -21.7079  -17.0076 C   0  0  1  0  0  0  0  0  0  0  0  0
   23.9049  -21.6229  -16.2046 C   0  0  0  0  0  0  0  0  0  0  0  0
   23.0239  -22.7805  -16.6119 C   0  0  0  0  0  0  0  0  0  0  0  0
   21.7231  -22.6303  -15.8969 C   0  0  0  0  0  0  0  0  0  0  0  0
   20.9613  -21.7002  -16.3200 O   0  0  0  0  0  0  0  0  0  0  0  0
   24.9465  -21.6520  -18.4601 C   0  0  0  0  0  0  0  0  0  0  0  0
   25.0122  -22.7132  -19.1342 O   0  0  0  0  0  0  0  0  0  0  0  0
   21.3329  -23.4221  -14.8497 O   0  0  0  0  0  0  0  0  0  0  0  0
   24.6485  -20.4759  -19.1579 O   0  0  0  0  0  0  0  0  0  0  0  0
  2 10  1  0
  2  1  1  6
  3  2  1  0
  4  3  1  0
  4  5  2  0
  6  5  1  0
  7  6  2  0
  8  9  2  0
  8  7  1  0
  9  4  1  0
 10 12  1  0
 11 10  2  0
 12 13  1  0
 12 16  1  0
 13 14  1  0
 14 15  1  0
 16 15  1  0
 17 19  1  0
 16 17  1  6
 18 17  2  0
 20 21  1  1
 20 25  1  0
 20 19  1  0
 21 22  1  0
 22 23  1  0
 23 24  2  0
 25 28  1  0
 26 25  2  0
 27 23  1  0
M  END
$$$$
