FPE.pdb
     RDKit          3D

 28 29  0  0  1  0  0  0  0  0999 V2000
   16.5406  -20.5558    1.6568 N   0  0  0  0  0  0  0  0  0  0  0  0
   17.2261  -19.5568    2.3810 C   0  0  1  0  0  0  0  0  0  0  0  0
   16.4809  -18.2403    2.2233 C   0  0  0  0  0  0  0  0  0  0  0  0
   17.3460  -17.0972    2.5251 C   0  0  0  0  0  0  0  0  0  0  0  0
   16.9258  -16.2141    3.5231 C   0  0  0  0  0  0  0  0  0  0  0  0
   17.6991  -15.1248    3.8490 C   0  0  0  0  0  0  0  0  0  0  0  0
   18.8921  -14.8775    3.2079 C   0  0  0  0  0  0  0  0  0  0  0  0
   19.3052  -15.7655    2.2084 C   0  0  0  0  0  0  0  0  0  0  0  0
   18.5364  -16.8502    1.8848 C   0  0  0  0  0  0  0  0  0  0  0  0
   17.4656  -19.8063    3.8071 C   0  0  0  0  0  0  0  0  0  0  0  0
   16.4910  -20.3277    4.4512 O   0  0  0  0  0  0  0  0  0  0  0  0
   18.6334  -19.5386    4.5321 N   0  0  0  0  0  0  0  0  0  0  0  0
   19.8520  -18.9786    3.9944 C   0  0  0  0  0  0  0  0  0  0  0  0
   20.8088  -18.8703    5.1997 C   0  0  0  0  0  0  0  0  0  0  0  0
   20.3337  -20.0712    6.0035 C   0  0  0  0  0  0  0  0  0  0  0  0
   18.8102  -19.7843    5.9617 C   0  0  1  0  0  0  0  0  0  0  0  0
   18.5582  -18.5838    6.7754 C   0  0  0  0  0  0  0  0  0  0  0  0
   18.7492  -17.4131    6.3790 O   0  0  0  0  0  0  0  0  0  0  0  0
   18.0623  -18.7448    8.1104 N   0  0  0  0  0  0  0  0  0  0  0  0
   17.7124  -17.5675    8.9140 C   0  0  1  0  0  0  0  0  0  0  0  0
   16.3997  -17.8667    9.6088 C   0  0  0  0  0  0  0  0  0  0  0  0
   16.0058  -16.6442   10.4041 C   0  0  0  0  0  0  0  0  0  0  0  0
   14.7600  -16.9768   11.1546 C   0  0  0  0  0  0  0  0  0  0  0  0
   14.3342  -18.1708   11.0221 O   0  0  0  0  0  0  0  0  0  0  0  0
   18.8042  -17.2964    9.8653 C   0  0  0  0  0  0  0  0  0  0  0  0
   19.5690  -18.2367   10.2058 O   0  0  0  0  0  0  0  0  0  0  0  0
   14.0873  -16.0861   11.9483 O   0  0  0  0  0  0  0  0  0  0  0  0
   19.0528  -16.0410   10.4321 O   0  0  0  0  0  0  0  0  0  0  0  0
  2 10  1  0
  2  1  1  1
  3  2  1  0
  4  3  1  0
  4  5  2  0
  6  5  1  0
  7  6  2  0
  8  9  2  0
  8  7  1  0
  9  4  1  0
 10 12  1  0
 11 10  2  0
 12 13  1  0
 12 16  1  0
 13 14  1  0
 14 15  1  0
 16 15  1  0
 17 19  1  0
 16 17  1  1
 18 17  2  0
 20 21  1  1
 20 25  1  0
 20 19  1  0
 21 22  1  0
 22 23  1  0
 23 24  2  0
 25 28  1  0
 26 25  2  0
 27 23  1  0
M  END
$$$$
