NSL.pdb
     RDKit          3D

 23 22  0  0  1  0  0  0  0  0999 V2000
   17.3266  -10.1870  -19.8536 N   0  0  0  0  0  0  0  0  0  0  0  0
   16.4880  -10.3160  -18.7175 C   0  0  0  0  0  0  0  0  0  0  0  0
   15.3234  -10.8004  -18.7967 O   0  0  0  0  0  0  0  0  0  0  0  0
   16.9428   -9.8918  -17.3939 C   0  0  0  0  0  0  0  0  0  0  0  0
   18.0788  -10.6850  -16.8072 C   0  0  2  0  0  0  0  0  0  0  0  0
   17.4571  -11.8581  -16.1831 N   0  0  0  0  0  0  0  0  0  0  0  0
   18.7332   -9.8566  -15.7589 C   0  0  0  0  0  0  0  0  0  0  0  0
   18.0589   -9.3002  -14.8714 O   0  0  0  0  0  0  0  0  0  0  0  0
   22.6147   -8.7624  -13.2308 O   0  0  0  0  0  0  0  0  0  0  0  0
   21.9684   -9.5195  -14.1806 C   0  0  0  0  0  0  0  0  0  0  0  0
   20.7213   -8.8205  -14.6950 C   0  0  2  0  0  0  0  0  0  0  0  0
   20.1362   -9.6526  -15.7062 N   0  0  0  0  0  0  0  0  0  0  0  0
   21.1019   -7.4806  -15.1998 C   0  0  0  0  0  0  0  0  0  0  0  0
   21.5048   -7.3999  -16.3850 O   0  0  0  0  0  0  0  0  0  0  0  0
   20.6365   -2.9506  -17.4080 C   0  0  0  0  0  0  0  0  0  0  0  0
   20.1893   -2.9593  -15.9763 C   0  0  1  0  0  0  0  0  0  0  0  0
   18.8050   -2.3063  -15.9640 C   0  0  0  0  0  0  0  0  0  0  0  0
   20.2217   -4.2348  -15.2625 C   0  0  0  0  0  0  0  0  0  0  0  0
   21.4673   -4.9782  -15.0131 C   0  0  2  0  0  0  0  0  0  0  0  0
   21.0387   -6.2998  -14.4304 N   0  0  0  0  0  0  0  0  0  0  0  0
   22.3806   -4.4169  -14.0200 C   0  0  0  0  0  0  0  0  0  0  0  0
   22.2638   -4.7112  -12.7806 O   0  0  0  0  0  0  0  0  0  0  0  0
   23.4183   -3.5585  -14.3134 O   0  0  0  0  0  0  0  0  0  0  0  0
  1  2  1  0
  2  3  2  0
  4  5  1  0
  4  2  1  0
  5  6  1  1
  7 12  1  0
  7  5  1  0
  8  7  2  0
 11 10  1  6
 10  9  1  0
 11 13  1  0
 11 12  1  0
 13 20  1  0
 14 13  2  0
 16 17  1  6
 16 15  1  0
 18 16  1  0
 19 21  1  0
 19 18  1  1
 20 19  1  0
 21 23  1  0
 22 21  2  0
M  END
$$$$
