NSL.pdb
     RDKit          3D

 23 22  0  0  1  0  0  0  0  0999 V2000
   14.6966  -12.7290  -17.1375 N   0  0  0  0  0  0  0  0  0  0  0  0
   14.0154  -12.3697  -15.9469 C   0  0  0  0  0  0  0  0  0  0  0  0
   12.7566  -12.4295  -15.8519 O   0  0  0  0  0  0  0  0  0  0  0  0
   14.7500  -11.9132  -14.7677 C   0  0  0  0  0  0  0  0  0  0  0  0
   16.2452  -11.8368  -14.9175 C   0  0  2  0  0  0  0  0  0  0  0  0
   16.7370  -13.1908  -14.6398 N   0  0  0  0  0  0  0  0  0  0  0  0
   16.7697  -10.9001  -13.8874 C   0  0  0  0  0  0  0  0  0  0  0  0
   16.7359  -11.1969  -12.6780 O   0  0  0  0  0  0  0  0  0  0  0  0
   19.2410   -6.8530  -12.9254 O   0  0  0  0  0  0  0  0  0  0  0  0
   18.7538   -7.7573  -13.8408 C   0  0  0  0  0  0  0  0  0  0  0  0
   17.8281   -8.7681  -13.1855 C   0  0  2  0  0  0  0  0  0  0  0  0
   17.3288   -9.6371  -14.2116 N   0  0  0  0  0  0  0  0  0  0  0  0
   16.7528   -8.0370  -12.4754 C   0  0  0  0  0  0  0  0  0  0  0  0
   15.7507   -7.6861  -13.1433 O   0  0  0  0  0  0  0  0  0  0  0  0
   13.3053   -6.9703   -8.1922 C   0  0  0  0  0  0  0  0  0  0  0  0
   14.7502   -6.5722   -8.1307 C   0  0  1  0  0  0  0  0  0  0  0  0
   15.1765   -6.7595   -6.6727 C   0  0  0  0  0  0  0  0  0  0  0  0
   15.6693   -7.2034   -9.0765 C   0  0  0  0  0  0  0  0  0  0  0  0
   15.7460   -6.8155  -10.4943 C   0  0  2  0  0  0  0  0  0  0  0  0
   16.7910   -7.7143  -11.1025 N   0  0  0  0  0  0  0  0  0  0  0  0
   16.2133   -5.4609  -10.7811 C   0  0  0  0  0  0  0  0  0  0  0  0
   17.4626   -5.2059  -10.8847 O   0  0  0  0  0  0  0  0  0  0  0  0
   15.3857   -4.3749  -10.9685 O   0  0  0  0  0  0  0  0  0  0  0  0
  1  2  1  0
  2  3  2  0
  4  5  1  0
  4  2  1  0
  5  6  1  1
  7 12  1  0
  7  5  1  0
  8  7  2  0
 11 10  1  6
 10  9  1  0
 11 13  1  0
 11 12  1  0
 13 20  1  0
 14 13  2  0
 16 17  1  1
 16 15  1  0
 18 16  1  0
 19 21  1  0
 19 18  1  1
 20 19  1  0
 21 23  1  0
 22 21  2  0
M  END
$$$$
