NSL.pdb
     RDKit          3D

 23 22  0  0  1  0  0  0  0  0999 V2000
   16.5072  -16.0882  -15.9538 N   0  0  0  0  0  0  0  0  0  0  0  0
   17.3340  -15.9008  -17.0905 C   0  0  0  0  0  0  0  0  0  0  0  0
   17.6291  -16.8525  -17.8679 O   0  0  0  0  0  0  0  0  0  0  0  0
   17.8822  -14.5841  -17.4138 C   0  0  0  0  0  0  0  0  0  0  0  0
   17.5159  -13.4728  -16.4680 C   0  0  2  0  0  0  0  0  0  0  0  0
   16.0846  -13.2317  -16.6814 N   0  0  0  0  0  0  0  0  0  0  0  0
   18.2842  -12.2589  -16.8551 C   0  0  0  0  0  0  0  0  0  0  0  0
   19.5230  -12.3002  -16.9797 O   0  0  0  0  0  0  0  0  0  0  0  0
   16.5484   -8.5173  -16.8276 O   0  0  0  0  0  0  0  0  0  0  0  0
   17.5007   -8.7277  -17.7982 C   0  0  0  0  0  0  0  0  0  0  0  0
   18.4529   -9.8461  -17.4100 C   0  0  2  0  0  0  0  0  0  0  0  0
   17.6669  -11.0054  -17.1008 N   0  0  0  0  0  0  0  0  0  0  0  0
   19.2813   -9.3902  -16.2695 C   0  0  0  0  0  0  0  0  0  0  0  0
   18.8373   -9.5895  -15.1133 O   0  0  0  0  0  0  0  0  0  0  0  0
   24.4612  -10.6825  -15.1277 C   0  0  0  0  0  0  0  0  0  0  0  0
   23.0413  -10.2445  -14.9231 C   0  0  1  0  0  0  0  0  0  0  0  0
   22.7460  -10.4555  -13.4362 C   0  0  0  0  0  0  0  0  0  0  0  0
   22.6675   -8.9113  -15.3926 C   0  0  0  0  0  0  0  0  0  0  0  0
   21.3247   -8.3426  -15.1935 C   0  0  2  0  0  0  0  0  0  0  0  0
   20.5304   -8.7489  -16.4075 N   0  0  0  0  0  0  0  0  0  0  0  0
   21.2261   -6.8850  -15.1601 C   0  0  0  0  0  0  0  0  0  0  0  0
   20.9294   -6.2230  -16.2137 O   0  0  0  0  0  0  0  0  0  0  0  0
   21.4267   -6.1164  -14.0338 O   0  0  0  0  0  0  0  0  0  0  0  0
  1  2  1  0
  2  3  2  0
  4  5  1  0
  4  2  1  0
  5  6  1  6
  7 12  1  0
  7  5  1  0
  8  7  2  0
 11 10  1  1
 10  9  1  0
 11 13  1  0
 11 12  1  0
 13 20  1  0
 14 13  2  0
 16 17  1  1
 16 15  1  0
 18 16  1  0
 19 21  1  0
 19 18  1  6
 20 19  1  0
 21 23  1  0
 22 21  2  0
M  END
$$$$
