NSL.pdb
     RDKit          3D

 23 22  0  0  1  0  0  0  0  0999 V2000
   18.4203  -12.1864  -18.5872 N   0  0  0  0  0  0  0  0  0  0  0  0
   17.9945  -11.4477  -17.4541 C   0  0  0  0  0  0  0  0  0  0  0  0
   16.7729  -11.3291  -17.1529 O   0  0  0  0  0  0  0  0  0  0  0  0
   18.9622  -10.7889  -16.5778 C   0  0  0  0  0  0  0  0  0  0  0  0
   20.4073  -10.9389  -16.9692 C   0  0  2  0  0  0  0  0  0  0  0  0
   20.7852  -12.2965  -16.5617 N   0  0  0  0  0  0  0  0  0  0  0  0
   21.2051   -9.9507  -16.1943 C   0  0  0  0  0  0  0  0  0  0  0  0
   20.8747   -9.6304  -15.0366 O   0  0  0  0  0  0  0  0  0  0  0  0
   25.1393   -7.1330  -15.9560 O   0  0  0  0  0  0  0  0  0  0  0  0
   24.4127   -8.0969  -16.6163 C   0  0  0  0  0  0  0  0  0  0  0  0
   23.0577   -8.3157  -15.9648 C   0  0  2  0  0  0  0  0  0  0  0  0
   22.3669   -9.3245  -16.7147 N   0  0  0  0  0  0  0  0  0  0  0  0
   22.3326   -7.0242  -15.9312 C   0  0  0  0  0  0  0  0  0  0  0  0
   21.8732   -6.5883  -17.0141 O   0  0  0  0  0  0  0  0  0  0  0  0
   17.6020   -5.7998  -14.6615 C   0  0  0  0  0  0  0  0  0  0  0  0
   18.9442   -5.5086  -15.2646 C   0  0  1  0  0  0  0  0  0  0  0  0
   18.7098   -4.4057  -16.2998 C   0  0  0  0  0  0  0  0  0  0  0  0
   20.0471   -5.2069  -14.3534 C   0  0  0  0  0  0  0  0  0  0  0  0
   21.4165   -4.9369  -14.8201 C   0  0  2  0  0  0  0  0  0  0  0  0
   22.1315   -6.2618  -14.7613 N   0  0  0  0  0  0  0  0  0  0  0  0
   22.2281   -4.0438  -13.9959 C   0  0  0  0  0  0  0  0  0  0  0  0
   22.0119   -2.7831  -13.9855 O   0  0  0  0  0  0  0  0  0  0  0  0
   23.2566   -4.4591  -13.1777 O   0  0  0  0  0  0  0  0  0  0  0  0
  1  2  1  0
  2  3  2  0
  4  5  1  0
  4  2  1  0
  5  6  1  1
  7 12  1  0
  7  5  1  0
  8  7  2  0
 11 10  1  6
 10  9  1  0
 11 13  1  0
 11 12  1  0
 13 20  1  0
 14 13  2  0
 16 17  1  6
 16 15  1  0
 18 16  1  0
 19 21  1  0
 19 18  1  1
 20 19  1  0
 21 23  1  0
 22 21  2  0
M  END
$$$$
