NSL.pdb
     RDKit          3D

 23 22  0  0  1  0  0  0  0  0999 V2000
   21.9699  -20.0577  -17.6157 N   0  0  0  0  0  0  0  0  0  0  0  0
   22.1055  -18.7708  -18.1958 C   0  0  0  0  0  0  0  0  0  0  0  0
   23.1879  -18.3843  -18.7214 O   0  0  0  0  0  0  0  0  0  0  0  0
   20.9858  -17.8304  -18.2118 C   0  0  0  0  0  0  0  0  0  0  0  0
   19.7128  -18.3180  -17.5748 C   0  0  2  0  0  0  0  0  0  0  0  0
   19.1093  -19.2301  -18.5525 N   0  0  0  0  0  0  0  0  0  0  0  0
   18.8158  -17.1486  -17.3712 C   0  0  0  0  0  0  0  0  0  0  0  0
   18.3098  -16.5552  -18.3426 O   0  0  0  0  0  0  0  0  0  0  0  0
   17.9209  -15.8717  -13.5878 O   0  0  0  0  0  0  0  0  0  0  0  0
   16.9842  -15.5958  -14.5571 C   0  0  0  0  0  0  0  0  0  0  0  0
   17.6173  -15.5171  -15.9360 C   0  0  2  0  0  0  0  0  0  0  0  0
   18.4882  -16.6469  -16.0852 N   0  0  0  0  0  0  0  0  0  0  0  0
   18.3263  -14.2222  -16.0600 C   0  0  0  0  0  0  0  0  0  0  0  0
   19.5314  -14.1848  -15.7136 O   0  0  0  0  0  0  0  0  0  0  0  0
   20.4468  -10.0856  -18.6849 C   0  0  0  0  0  0  0  0  0  0  0  0
   18.9550  -10.0653  -18.5301 C   0  0  1  0  0  0  0  0  0  0  0  0
   18.3972   -9.6307  -19.8876 C   0  0  0  0  0  0  0  0  0  0  0  0
   18.3097  -11.2699  -18.0105 C   0  0  0  0  0  0  0  0  0  0  0  0
   18.5232  -11.7613  -16.6396 C   0  0  2  0  0  0  0  0  0  0  0  0
   17.7290  -13.0377  -16.5402 N   0  0  0  0  0  0  0  0  0  0  0  0
   18.0137  -10.9254  -15.5546 C   0  0  0  0  0  0  0  0  0  0  0  0
   16.8148  -11.0607  -15.1294 O   0  0  0  0  0  0  0  0  0  0  0  0
   18.7494   -9.9568  -14.9063 O   0  0  0  0  0  0  0  0  0  0  0  0
  1  2  1  0
  2  3  2  0
  4  5  1  0
  4  2  1  0
  5  6  1  6
  7 12  1  0
  7  5  1  0
  8  7  2  0
 11 10  1  1
 10  9  1  0
 11 13  1  0
 11 12  1  0
 13 20  1  0
 14 13  2  0
 16 17  1  6
 16 15  1  0
 18 16  1  0
 19 21  1  0
 19 18  1  6
 20 19  1  0
 21 23  1  0
 22 21  2  0
M  END
$$$$
