NSL.pdb
     RDKit          3D

 23 22  0  0  1  0  0  0  0  0999 V2000
   37.9051  -31.9875    1.9880 N   0  0  0  0  0  0  0  0  0  0  0  0
   37.1463  -30.9171    1.4502 C   0  0  0  0  0  0  0  0  0  0  0  0
   36.9941  -30.7639    0.2050 O   0  0  0  0  0  0  0  0  0  0  0  0
   36.5003  -29.9386    2.3242 C   0  0  0  0  0  0  0  0  0  0  0  0
   36.6918  -30.1535    3.8010 C   0  0  2  0  0  0  0  0  0  0  0  0
   36.1208  -31.4752    4.0824 N   0  0  0  0  0  0  0  0  0  0  0  0
   35.9137  -29.1145    4.5280 C   0  0  0  0  0  0  0  0  0  0  0  0
   34.6685  -29.1463    4.5476 O   0  0  0  0  0  0  0  0  0  0  0  0
   37.7898  -27.2598    7.5272 O   0  0  0  0  0  0  0  0  0  0  0  0
   36.4394  -27.5218    7.5571 C   0  0  0  0  0  0  0  0  0  0  0  0
   35.7968  -27.2853    6.2009 C   0  0  2  0  0  0  0  0  0  0  0  0
   36.5285  -28.0451    5.2291 N   0  0  0  0  0  0  0  0  0  0  0  0
   35.8030  -25.8308    5.9195 C   0  0  0  0  0  0  0  0  0  0  0  0
   36.6568  -25.4004    5.1075 O   0  0  0  0  0  0  0  0  0  0  0  0
   31.4859  -22.3507    5.1986 C   0  0  0  0  0  0  0  0  0  0  0  0
   32.8503  -22.9660    5.1006 C   0  0  1  0  0  0  0  0  0  0  0  0
   33.4845  -22.3836    3.8352 C   0  0  0  0  0  0  0  0  0  0  0  0
   33.7238  -22.8703    6.2691 C   0  0  0  0  0  0  0  0  0  0  0  0
   35.0858  -23.4276    6.2950 C   0  0  2  0  0  0  0  0  0  0  0  0
   34.9118  -24.9089    6.5079 N   0  0  0  0  0  0  0  0  0  0  0  0
   35.9518  -22.9974    7.3907 C   0  0  0  0  0  0  0  0  0  0  0  0
   36.2269  -23.7874    8.3585 O   0  0  0  0  0  0  0  0  0  0  0  0
   36.5377  -21.7530    7.4778 O   0  0  0  0  0  0  0  0  0  0  0  0
  1  2  1  0
  2  3  2  0
  4  5  1  0
  4  2  1  0
  5  6  1  1
  7 12  1  0
  7  5  1  0
  8  7  2  0
 11 10  1  1
 10  9  1  0
 11 13  1  0
 11 12  1  0
 13 20  1  0
 14 13  2  0
 16 17  1  6
 16 15  1  0
 18 16  1  0
 19 21  1  0
 19 18  1  1
 20 19  1  0
 21 23  1  0
 22 21  2  0
M  END
$$$$
