NSL.pdb
     RDKit          3D

 23 22  0  0  1  0  0  0  0  0999 V2000
   16.4782  -14.3387  -15.8216 N   0  0  0  0  0  0  0  0  0  0  0  0
   17.6230  -13.9442  -15.0835 C   0  0  0  0  0  0  0  0  0  0  0  0
   18.0277  -14.5941  -14.0780 O   0  0  0  0  0  0  0  0  0  0  0  0
   18.3909  -12.7586  -15.4617 C   0  0  0  0  0  0  0  0  0  0  0  0
   17.8587  -11.9813  -16.6350 C   0  0  2  0  0  0  0  0  0  0  0  0
   18.1732  -12.7910  -17.8172 N   0  0  0  0  0  0  0  0  0  0  0  0
   18.5939  -10.6901  -16.7109 C   0  0  0  0  0  0  0  0  0  0  0  0
   19.7503  -10.6399  -17.1716 O   0  0  0  0  0  0  0  0  0  0  0  0
   17.0603   -7.1766  -15.0917 O   0  0  0  0  0  0  0  0  0  0  0  0
   17.7872   -7.0869  -16.2564 C   0  0  0  0  0  0  0  0  0  0  0  0
   18.7722   -8.2362  -16.3872 C   0  0  2  0  0  0  0  0  0  0  0  0
   18.0358   -9.4617  -16.2723 N   0  0  0  0  0  0  0  0  0  0  0  0
   19.8143   -8.0897  -15.3445 C   0  0  0  0  0  0  0  0  0  0  0  0
   19.6018   -8.6285  -14.2318 O   0  0  0  0  0  0  0  0  0  0  0  0
   24.7492   -9.7874  -15.9097 C   0  0  0  0  0  0  0  0  0  0  0  0
   23.4783   -9.3436  -15.2480 C   0  0  1  0  0  0  0  0  0  0  0  0
   23.3777  -10.1467  -13.9489 C   0  0  0  0  0  0  0  0  0  0  0  0
   23.2835   -7.9089  -15.0451 C   0  0  0  0  0  0  0  0  0  0  0  0
   22.0645   -7.3465  -14.4417 C   0  0  2  0  0  0  0  0  0  0  0  0
   21.0220   -7.3840  -15.5287 N   0  0  0  0  0  0  0  0  0  0  0  0
   22.1196   -5.9447  -14.0327 C   0  0  0  0  0  0  0  0  0  0  0  0
   21.6512   -5.0226  -14.7856 O   0  0  0  0  0  0  0  0  0  0  0  0
   22.6520   -5.5013  -12.8413 O   0  0  0  0  0  0  0  0  0  0  0  0
  1  2  1  0
  2  3  2  0
  4  5  1  0
  4  2  1  0
  5  6  1  6
  7 12  1  0
  7  5  1  0
  8  7  2  0
 11 10  1  1
 10  9  1  0
 11 13  1  0
 11 12  1  0
 13 20  1  0
 14 13  2  0
 16 17  1  1
 16 15  1  0
 18 16  1  0
 19 21  1  0
 19 18  1  6
 20 19  1  0
 21 23  1  0
 22 21  2  0
M  END
$$$$
