NSL.pdb
     RDKit          3D

 23 22  0  0  1  0  0  0  0  0999 V2000
   16.3579  -14.8324  -18.7422 N   0  0  0  0  0  0  0  0  0  0  0  0
   17.0938  -14.0028  -19.6260 C   0  0  0  0  0  0  0  0  0  0  0  0
   16.7047  -13.7703  -20.8057 O   0  0  0  0  0  0  0  0  0  0  0  0
   18.3443  -13.3740  -19.2025 C   0  0  0  0  0  0  0  0  0  0  0  0
   19.3727  -13.1709  -20.2818 C   0  0  2  0  0  0  0  0  0  0  0  0
   20.0312  -14.4715  -20.4461 N   0  0  0  0  0  0  0  0  0  0  0  0
   20.3646  -12.1727  -19.7987 C   0  0  0  0  0  0  0  0  0  0  0  0
   21.2170  -12.4816  -18.9443 O   0  0  0  0  0  0  0  0  0  0  0  0
   22.0595   -9.0731  -21.9343 O   0  0  0  0  0  0  0  0  0  0  0  0
   21.4329   -8.7377  -20.7561 C   0  0  0  0  0  0  0  0  0  0  0  0
   21.3904   -9.9132  -19.7945 C   0  0  2  0  0  0  0  0  0  0  0  0
   20.4004  -10.8353  -20.2707 N   0  0  0  0  0  0  0  0  0  0  0  0
   21.0974   -9.4039  -18.4345 C   0  0  0  0  0  0  0  0  0  0  0  0
   19.8925   -9.2715  -18.1114 O   0  0  0  0  0  0  0  0  0  0  0  0
   21.1140   -9.3856  -13.0193 C   0  0  0  0  0  0  0  0  0  0  0  0
   22.4213   -9.1800  -13.7255 C   0  0  1  0  0  0  0  0  0  0  0  0
   23.4448  -10.0332  -12.9725 C   0  0  0  0  0  0  0  0  0  0  0  0
   22.4539   -9.3978  -15.1708 C   0  0  0  0  0  0  0  0  0  0  0  0
   21.7038   -8.5607  -16.1210 C   0  0  2  0  0  0  0  0  0  0  0  0
   22.0872   -9.0611  -17.4894 N   0  0  0  0  0  0  0  0  0  0  0  0
   22.0320   -7.1369  -16.1444 C   0  0  0  0  0  0  0  0  0  0  0  0
   21.4880   -6.3245  -15.3196 O   0  0  0  0  0  0  0  0  0  0  0  0
   22.9291   -6.5586  -17.0165 O   0  0  0  0  0  0  0  0  0  0  0  0
  1  2  1  0
  2  3  2  0
  4  5  1  0
  4  2  1  0
  5  6  1  1
  7 12  1  0
  7  5  1  0
  8  7  2  0
 11 10  1  6
 10  9  1  0
 11 13  1  0
 11 12  1  0
 13 20  1  0
 14 13  2  0
 16 17  1  1
 16 15  1  0
 18 16  1  0
 19 21  1  0
 19 18  1  1
 20 19  1  0
 21 23  1  0
 22 21  2  0
M  END
$$$$
