NSL.pdb
     RDKit          3D

 23 22  0  0  1  0  0  0  0  0999 V2000
   13.5082  -13.8264  -13.9033 N   0  0  0  0  0  0  0  0  0  0  0  0
   13.0524  -13.1078  -12.7690 C   0  0  0  0  0  0  0  0  0  0  0  0
   11.8779  -13.2388  -12.3212 O   0  0  0  0  0  0  0  0  0  0  0  0
   13.9333  -12.1784  -12.0627 C   0  0  0  0  0  0  0  0  0  0  0  0
   15.3310  -12.0602  -12.6070 C   0  0  2  0  0  0  0  0  0  0  0  0
   16.0131  -13.2963  -12.2087 N   0  0  0  0  0  0  0  0  0  0  0  0
   15.9902  -10.8990  -11.9508 C   0  0  0  0  0  0  0  0  0  0  0  0
   16.2899  -10.9341  -10.7421 O   0  0  0  0  0  0  0  0  0  0  0  0
   18.4815   -6.8186  -12.4868 O   0  0  0  0  0  0  0  0  0  0  0  0
   17.8023   -7.8810  -13.0373 C   0  0  0  0  0  0  0  0  0  0  0  0
   17.0015   -8.6331  -11.9879 C   0  0  2  0  0  0  0  0  0  0  0  0
   16.3112   -9.7045  -12.6459 N   0  0  0  0  0  0  0  0  0  0  0  0
   16.0844   -7.6817  -11.3181 C   0  0  0  0  0  0  0  0  0  0  0  0
   14.9988   -7.4215  -11.8903 O   0  0  0  0  0  0  0  0  0  0  0  0
   14.3753   -6.4006   -5.7092 C   0  0  0  0  0  0  0  0  0  0  0  0
   14.2012   -6.2353   -7.1898 C   0  0  1  0  0  0  0  0  0  0  0  0
   13.4841   -4.8968   -7.3822 C   0  0  0  0  0  0  0  0  0  0  0  0
   15.3885   -6.3696   -8.0323 C   0  0  0  0  0  0  0  0  0  0  0  0
   15.3779   -6.0876   -9.4768 C   0  0  2  0  0  0  0  0  0  0  0  0
   16.3597   -7.0555  -10.0842 N   0  0  0  0  0  0  0  0  0  0  0  0
   15.8542   -4.7703   -9.8932 C   0  0  0  0  0  0  0  0  0  0  0  0
   17.0899   -4.5730  -10.1586 O   0  0  0  0  0  0  0  0  0  0  0  0
   15.0485   -3.6620  -10.0419 O   0  0  0  0  0  0  0  0  0  0  0  0
  1  2  1  0
  2  3  2  0
  4  5  1  0
  4  2  1  0
  5  6  1  1
  7 12  1  0
  7  5  1  0
  8  7  2  0
 11 10  1  6
 10  9  1  0
 11 13  1  0
 11 12  1  0
 13 20  1  0
 14 13  2  0
 16 17  1  1
 16 15  1  0
 18 16  1  0
 19 21  1  0
 19 18  1  1
 20 19  1  0
 21 23  1  0
 22 21  2  0
M  END
$$$$
