NSL.pdb
     RDKit          3D

 23 22  0  0  1  0  0  0  0  0999 V2000
   17.5649  -16.0154  -20.3511 N   0  0  0  0  0  0  0  0  0  0  0  0
   17.6581  -15.4606  -19.0494 C   0  0  0  0  0  0  0  0  0  0  0  0
   17.5973  -16.1774  -18.0103 O   0  0  0  0  0  0  0  0  0  0  0  0
   17.8328  -14.0217  -18.8550 C   0  0  0  0  0  0  0  0  0  0  0  0
   17.6981  -13.5317  -17.4388 C   0  0  2  0  0  0  0  0  0  0  0  0
   16.2749  -13.6686  -17.1100 N   0  0  0  0  0  0  0  0  0  0  0  0
   18.0765  -12.0933  -17.4052 C   0  0  0  0  0  0  0  0  0  0  0  0
   19.1923  -11.7169  -17.8118 O   0  0  0  0  0  0  0  0  0  0  0  0
   16.7520   -7.5329  -16.4092 O   0  0  0  0  0  0  0  0  0  0  0  0
   16.4262   -8.8673  -16.4893 C   0  0  0  0  0  0  0  0  0  0  0  0
   17.6316   -9.7127  -16.8641 C   0  0  2  0  0  0  0  0  0  0  0  0
   17.2087  -11.0821  -16.9180 N   0  0  0  0  0  0  0  0  0  0  0  0
   18.7037   -9.4789  -15.8687 C   0  0  0  0  0  0  0  0  0  0  0  0
   18.6339  -10.1035  -14.7830 O   0  0  0  0  0  0  0  0  0  0  0  0
   24.1019  -10.6342  -15.3401 C   0  0  0  0  0  0  0  0  0  0  0  0
   22.6843  -10.3216  -14.9622 C   0  0  1  0  0  0  0  0  0  0  0  0
   22.6689  -10.2194  -13.4351 C   0  0  0  0  0  0  0  0  0  0  0  0
   22.0436   -9.1806  -15.6141 C   0  0  0  0  0  0  0  0  0  0  0  0
   20.8828   -8.4817  -15.0394 C   0  0  2  0  0  0  0  0  0  0  0  0
   19.7896   -8.6008  -16.0692 N   0  0  0  0  0  0  0  0  0  0  0  0
   21.0243   -7.0442  -14.8174 C   0  0  0  0  0  0  0  0  0  0  0  0
   20.7280   -6.2059  -15.7371 O   0  0  0  0  0  0  0  0  0  0  0  0
   21.4644   -6.4774  -13.6407 O   0  0  0  0  0  0  0  0  0  0  0  0
  1  2  1  0
  2  3  2  0
  4  5  1  0
  4  2  1  0
  5  6  1  6
  7 12  1  0
  7  5  1  0
  8  7  2  0
 11 10  1  1
 10  9  1  0
 11 13  1  0
 11 12  1  0
 13 20  1  0
 14 13  2  0
 16 17  1  1
 16 15  1  0
 18 16  1  0
 19 21  1  0
 19 18  1  6
 20 19  1  0
 21 23  1  0
 22 21  2  0
M  END
$$$$
