NSL.pdb
     RDKit          3D

 23 22  0  0  1  0  0  0  0  0999 V2000
   14.6814  -12.7243  -16.4821 N   0  0  0  0  0  0  0  0  0  0  0  0
   15.8511  -12.6532  -15.6837 C   0  0  0  0  0  0  0  0  0  0  0  0
   16.1243  -13.5314  -14.8169 O   0  0  0  0  0  0  0  0  0  0  0  0
   16.7998  -11.5506  -15.8346 C   0  0  0  0  0  0  0  0  0  0  0  0
   16.4428  -10.5172  -16.8684 C   0  0  2  0  0  0  0  0  0  0  0  0
   16.6824  -11.1603  -18.1650 N   0  0  0  0  0  0  0  0  0  0  0  0
   17.3674   -9.3622  -16.7117 C   0  0  0  0  0  0  0  0  0  0  0  0
   18.5917   -9.4942  -16.9005 O   0  0  0  0  0  0  0  0  0  0  0  0
   16.2708   -5.7989  -14.9091 O   0  0  0  0  0  0  0  0  0  0  0  0
   17.0222   -5.6979  -16.0572 C   0  0  0  0  0  0  0  0  0  0  0  0
   17.8327   -6.9590  -16.3043 C   0  0  2  0  0  0  0  0  0  0  0  0
   16.9218   -8.0662  -16.3447 N   0  0  0  0  0  0  0  0  0  0  0  0
   18.8494   -7.0875  -15.2344 C   0  0  0  0  0  0  0  0  0  0  0  0
   18.6611   -7.9641  -14.3571 O   0  0  0  0  0  0  0  0  0  0  0  0
   22.5546   -9.0318  -12.4482 C   0  0  0  0  0  0  0  0  0  0  0  0
   22.8263   -8.4071  -13.7845 C   0  0  1  0  0  0  0  0  0  0  0  0
   23.5682   -9.4676  -14.6016 C   0  0  0  0  0  0  0  0  0  0  0  0
   21.6949   -7.8246  -14.5044 C   0  0  0  0  0  0  0  0  0  0  0  0
   21.0550   -6.5629  -14.0984 C   0  0  2  0  0  0  0  0  0  0  0  0
   20.0074   -6.2866  -15.1453 N   0  0  0  0  0  0  0  0  0  0  0  0
   21.8977   -5.3689  -14.0968 C   0  0  0  0  0  0  0  0  0  0  0  0
   22.1213   -4.7221  -15.1775 O   0  0  0  0  0  0  0  0  0  0  0  0
   22.5002   -4.8424  -12.9746 O   0  0  0  0  0  0  0  0  0  0  0  0
  1  2  1  0
  2  3  2  0
  4  5  1  0
  4  2  1  0
  5  6  1  6
  7 12  1  0
  7  5  1  0
  8  7  2  0
 11 10  1  1
 10  9  1  0
 11 13  1  0
 11 12  1  0
 13 20  1  0
 14 13  2  0
 16 17  1  6
 16 15  1  0
 18 16  1  0
 19 21  1  0
 19 18  1  6
 20 19  1  0
 21 23  1  0
 22 21  2  0
M  END
$$$$
