APH.pdb
     RDKit          3D

 23 24  0  0  1  0  0  0  0  0999 V2000
    7.5007  -17.1467   17.0644 C   0  0  0  0  0  0  0  0  0  0  0  0
    8.4575  -15.9919   16.8021 C   0  0  2  0  0  0  0  0  0  0  0  0
    9.3515  -16.3974   15.7712 N   0  0  0  0  0  0  0  0  0  0  0  0
    9.1207  -15.5355   18.0238 C   0  0  0  0  0  0  0  0  0  0  0  0
   10.2692  -16.0074   18.2603 O   0  0  0  0  0  0  0  0  0  0  0  0
    8.5447  -14.6301   18.9013 N   0  0  0  0  0  0  0  0  0  0  0  0
    7.2246  -14.0052   18.6912 C   0  0  0  0  0  0  0  0  0  0  0  0
    7.4906  -12.6088   19.2776 C   0  0  0  0  0  0  0  0  0  0  0  0
    8.0910  -13.0468   20.6208 C   0  0  0  0  0  0  0  0  0  0  0  0
    9.0709  -14.1302   20.1349 C   0  0  1  0  0  0  0  0  0  0  0  0
    9.0106  -15.1709   21.2245 C   0  0  0  0  0  0  0  0  0  0  0  0
    7.9844  -15.8731   21.4149 O   0  0  0  0  0  0  0  0  0  0  0  0
   10.1116  -15.4026   22.0830 N   0  0  0  0  0  0  0  0  0  0  0  0
   10.0964  -16.3329   23.1915 C   0  0  1  0  0  0  0  0  0  0  0  0
   11.3346  -17.1865   23.0373 C   0  0  0  0  0  0  0  0  0  0  0  0
   11.3314  -18.0603   21.8652 C   0  0  0  0  0  0  0  0  0  0  0  0
   10.3233  -18.3242   20.9650 C   0  0  0  0  0  0  0  0  0  0  0  0
   10.7823  -19.2090   20.0394 N   0  0  0  0  0  0  0  0  0  0  0  0
   12.0567  -19.4941   20.3553 C   0  0  0  0  0  0  0  0  0  0  0  0
   12.3837  -18.8046   21.4500 N   0  0  0  0  0  0  0  0  0  0  0  0
   10.1430  -15.6732   24.4962 C   0  0  0  0  0  0  0  0  0  0  0  0
   10.2748  -14.3141   24.6889 O   0  0  0  0  0  0  0  0  0  0  0  0
   10.0569  -16.3985   25.5295 O   0  0  0  0  0  0  0  0  0  0  0  0
  2  3  1  0
  2  1  1  1
  4  2  1  0
  5  4  2  0
  6  4  1  0
  7  6  1  0
  8  7  1  0
  9  8  1  0
  9 10  1  0
 10 11  1  1
 10  6  1  0
 11 13  1  0
 12 11  2  0
 13 14  1  0
 14 15  1  6
 14 21  1  0
 16 15  1  0
 17 16  2  0
 18 17  1  0
 19 18  1  0
 19 20  2  0
 20 16  1  0
 21 23  2  0
 21 22  1  0
M  END
$$$$
