APH.pdb
     RDKit          3D

 23 24  0  0  1  0  0  0  0  0999 V2000
    7.1426  -17.3980   17.5278 C   0  0  0  0  0  0  0  0  0  0  0  0
    8.0218  -16.2511   17.0489 C   0  0  2  0  0  0  0  0  0  0  0  0
    8.7152  -16.6945   15.8875 N   0  0  0  0  0  0  0  0  0  0  0  0
    8.8933  -15.7431   18.1087 C   0  0  0  0  0  0  0  0  0  0  0  0
   10.0668  -16.2104   18.1556 O   0  0  0  0  0  0  0  0  0  0  0  0
    8.4827  -14.7953   19.0331 N   0  0  0  0  0  0  0  0  0  0  0  0
    7.1660  -14.1300   19.0012 C   0  0  0  0  0  0  0  0  0  0  0  0
    7.5594  -12.7290   19.4980 C   0  0  0  0  0  0  0  0  0  0  0  0
    8.3393  -13.1526   20.7506 C   0  0  0  0  0  0  0  0  0  0  0  0
    9.2019  -14.2821   20.1590 C   0  0  1  0  0  0  0  0  0  0  0  0
    9.2723  -15.2912   21.2775 C   0  0  0  0  0  0  0  0  0  0  0  0
    8.2359  -15.7863   21.7904 O   0  0  0  0  0  0  0  0  0  0  0  0
   10.5138  -15.7258   21.7998 N   0  0  0  0  0  0  0  0  0  0  0  0
   10.6522  -16.6246   22.9257 C   0  0  1  0  0  0  0  0  0  0  0  0
   11.5356  -17.7557   22.4509 C   0  0  0  0  0  0  0  0  0  0  0  0
   10.9691  -18.5601   21.3696 C   0  0  0  0  0  0  0  0  0  0  0  0
    9.6830  -19.0195   21.1933 C   0  0  0  0  0  0  0  0  0  0  0  0
    9.6273  -19.7350   20.0377 N   0  0  0  0  0  0  0  0  0  0  0  0
   10.8584  -19.7235   19.4998 C   0  0  0  0  0  0  0  0  0  0  0  0
   11.6611  -19.0188   20.2998 N   0  0  0  0  0  0  0  0  0  0  0  0
   11.2803  -15.9971   24.0881 C   0  0  0  0  0  0  0  0  0  0  0  0
   11.8461  -14.7395   24.0965 O   0  0  0  0  0  0  0  0  0  0  0  0
   11.3107  -16.6525   25.1702 O   0  0  0  0  0  0  0  0  0  0  0  0
  2  3  1  0
  2  1  1  1
  4  2  1  0
  5  4  2  0
  6  4  1  0
  7  6  1  0
  8  7  1  0
  9  8  1  0
  9 10  1  0
 10 11  1  1
 10  6  1  0
 11 13  1  0
 12 11  2  0
 13 14  1  0
 14 15  1  6
 14 21  1  0
 16 15  1  0
 17 16  2  0
 18 17  1  0
 19 18  1  0
 19 20  2  0
 20 16  1  0
 21 23  2  0
 21 22  1  0
M  END
$$$$
