APH.pdb
     RDKit          3D

 23 24  0  0  1  0  0  0  0  0999 V2000
   -4.3641  -20.6358   23.2908 C   0  0  0  0  0  0  0  0  0  0  0  0
   -3.5891  -21.8323   23.8251 C   0  0  2  0  0  0  0  0  0  0  0  0
   -3.4706  -22.7773   22.7671 N   0  0  0  0  0  0  0  0  0  0  0  0
   -4.1830  -22.3741   25.0476 C   0  0  0  0  0  0  0  0  0  0  0  0
   -5.1145  -23.2165   24.9049 O   0  0  0  0  0  0  0  0  0  0  0  0
   -3.7676  -22.0024   26.3166 N   0  0  0  0  0  0  0  0  0  0  0  0
   -2.7246  -20.9921   26.5790 C   0  0  0  0  0  0  0  0  0  0  0  0
   -2.0604  -21.6063   27.8223 C   0  0  0  0  0  0  0  0  0  0  0  0
   -3.3296  -21.8463   28.6518 C   0  0  0  0  0  0  0  0  0  0  0  0
   -4.2315  -22.4866   27.5811 C   0  0  1  0  0  0  0  0  0  0  0  0
   -5.6015  -21.9495   27.9105 C   0  0  0  0  0  0  0  0  0  0  0  0
   -5.9818  -20.8165   27.5178 O   0  0  0  0  0  0  0  0  0  0  0  0
   -6.5217  -22.7012   28.6794 N   0  0  0  0  0  0  0  0  0  0  0  0
   -7.8242  -22.2200   29.0874 C   0  0  1  0  0  0  0  0  0  0  0  0
   -8.7912  -23.3493   28.8137 C   0  0  0  0  0  0  0  0  0  0  0  0
   -8.8338  -23.7924   27.4211 C   0  0  0  0  0  0  0  0  0  0  0  0
   -8.2310  -24.8759   26.8220 C   0  0  0  0  0  0  0  0  0  0  0  0
   -8.5528  -24.8815   25.5003 N   0  0  0  0  0  0  0  0  0  0  0  0
   -9.3438  -23.8189   25.2762 C   0  0  0  0  0  0  0  0  0  0  0  0
   -9.5109  -23.1675   26.4288 N   0  0  0  0  0  0  0  0  0  0  0  0
   -7.8922  -21.8805   30.5085 C   0  0  0  0  0  0  0  0  0  0  0  0
   -6.8946  -22.1288   31.4277 O   0  0  0  0  0  0  0  0  0  0  0  0
   -8.9427  -21.3170   30.9328 O   0  0  0  0  0  0  0  0  0  0  0  0
  2  3  1  0
  2  1  1  6
  4  2  1  0
  5  4  2  0
  6  4  1  0
  7  6  1  0
  8  7  1  0
  9  8  1  0
  9 10  1  0
 10 11  1  1
 10  6  1  0
 11 13  1  0
 12 11  2  0
 13 14  1  0
 14 15  1  1
 14 21  1  0
 16 15  1  0
 17 16  2  0
 18 17  1  0
 19 18  1  0
 19 20  2  0
 20 16  1  0
 21 23  2  0
 21 22  1  0
M  END
$$$$
