APH.pdb
     RDKit          3D

 23 24  0  0  1  0  0  0  0  0999 V2000
    6.3331  -14.2731   21.5081 C   0  0  0  0  0  0  0  0  0  0  0  0
    7.2934  -13.1545   21.8877 C   0  0  2  0  0  0  0  0  0  0  0  0
    8.1930  -12.9700   20.8000 N   0  0  0  0  0  0  0  0  0  0  0  0
    7.9499  -13.4018   23.1717 C   0  0  0  0  0  0  0  0  0  0  0  0
    9.1276  -13.8590   23.1321 O   0  0  0  0  0  0  0  0  0  0  0  0
    7.3375  -13.1575   24.3911 N   0  0  0  0  0  0  0  0  0  0  0  0
    6.0381  -12.4738   24.5379 C   0  0  0  0  0  0  0  0  0  0  0  0
    6.2880  -11.6963   25.8408 C   0  0  0  0  0  0  0  0  0  0  0  0
    6.8093  -12.8614   26.6938 C   0  0  0  0  0  0  0  0  0  0  0  0
    7.8015  -13.4955   25.7022 C   0  0  1  0  0  0  0  0  0  0  0  0
    7.6698  -14.9733   25.9720 C   0  0  0  0  0  0  0  0  0  0  0  0
    6.5964  -15.5934   25.7585 O   0  0  0  0  0  0  0  0  0  0  0  0
    8.7540  -15.7285   26.4792 N   0  0  0  0  0  0  0  0  0  0  0  0
    8.6861  -17.1402   26.7907 C   0  0  1  0  0  0  0  0  0  0  0  0
    8.7243  -17.8631   25.4636 C   0  0  0  0  0  0  0  0  0  0  0  0
    9.8704  -17.5293   24.6195 C   0  0  0  0  0  0  0  0  0  0  0  0
   10.8769  -16.6116   24.8220 C   0  0  0  0  0  0  0  0  0  0  0  0
   11.7240  -16.6477   23.7583 N   0  0  0  0  0  0  0  0  0  0  0  0
   11.2551  -17.5728   22.9042 C   0  0  0  0  0  0  0  0  0  0  0  0
   10.1441  -18.0999   23.4223 N   0  0  0  0  0  0  0  0  0  0  0  0
    9.8077  -17.6030   27.6076 C   0  0  0  0  0  0  0  0  0  0  0  0
    9.9578  -18.8874   28.0865 O   0  0  0  0  0  0  0  0  0  0  0  0
   10.7111  -16.7669   27.9006 O   0  0  0  0  0  0  0  0  0  0  0  0
  2  3  1  0
  2  1  1  6
  4  2  1  0
  5  4  2  0
  6  4  1  0
  7  6  1  0
  8  7  1  0
  9  8  1  0
  9 10  1  0
 10 11  1  6
 10  6  1  0
 11 13  1  0
 12 11  2  0
 13 14  1  0
 14 15  1  6
 14 21  1  0
 16 15  1  0
 17 16  2  0
 18 17  1  0
 19 18  1  0
 19 20  2  0
 20 16  1  0
 21 23  2  0
 21 22  1  0
M  END
$$$$
