APH.pdb
     RDKit          3D

 23 24  0  0  1  0  0  0  0  0999 V2000
    5.6186  -17.3904   20.0175 C   0  0  0  0  0  0  0  0  0  0  0  0
    6.4319  -16.9385   18.8124 C   0  0  2  0  0  0  0  0  0  0  0  0
    6.5266  -18.0412   17.9172 N   0  0  0  0  0  0  0  0  0  0  0  0
    7.7230  -16.3692   19.1992 C   0  0  0  0  0  0  0  0  0  0  0  0
    8.7108  -17.1575   19.2215 O   0  0  0  0  0  0  0  0  0  0  0  0
    7.8891  -15.0338   19.5316 N   0  0  0  0  0  0  0  0  0  0  0  0
    6.8306  -14.0142   19.3995 C   0  0  0  0  0  0  0  0  0  0  0  0
    7.6766  -12.7990   18.9848 C   0  0  0  0  0  0  0  0  0  0  0  0
    8.7340  -12.8801   20.0947 C   0  0  0  0  0  0  0  0  0  0  0  0
    9.0557  -14.3848   20.0478 C   0  0  1  0  0  0  0  0  0  0  0  0
    9.2907  -14.7378   21.4950 C   0  0  0  0  0  0  0  0  0  0  0  0
    8.6996  -14.1369   22.4287 O   0  0  0  0  0  0  0  0  0  0  0  0
   10.1907  -15.7653   21.8653 N   0  0  0  0  0  0  0  0  0  0  0  0
   10.5844  -16.0487   23.2288 C   0  0  1  0  0  0  0  0  0  0  0  0
    9.9789  -17.3917   23.5678 C   0  0  0  0  0  0  0  0  0  0  0  0
    8.5239  -17.4551   23.4400 C   0  0  0  0  0  0  0  0  0  0  0  0
    7.5549  -16.6416   23.9836 C   0  0  0  0  0  0  0  0  0  0  0  0
    6.3330  -17.0924   23.5913 N   0  0  0  0  0  0  0  0  0  0  0  0
    6.5341  -18.1705   22.8151 C   0  0  0  0  0  0  0  0  0  0  0  0
    7.8480  -18.3860   22.7257 N   0  0  0  0  0  0  0  0  0  0  0  0
   12.0343  -16.1323   23.4028 C   0  0  0  0  0  0  0  0  0  0  0  0
   12.9566  -16.0719   22.3793 O   0  0  0  0  0  0  0  0  0  0  0  0
   12.4824  -16.2711   24.5780 O   0  0  0  0  0  0  0  0  0  0  0  0
  2  3  1  0
  2  1  1  1
  4  2  1  0
  5  4  2  0
  6  4  1  0
  7  6  1  0
  8  7  1  0
  9  8  1  0
  9 10  1  0
 10 11  1  1
 10  6  1  0
 11 13  1  0
 12 11  2  0
 13 14  1  0
 14 15  1  6
 14 21  1  0
 16 15  1  0
 17 16  2  0
 18 17  1  0
 19 18  1  0
 19 20  2  0
 20 16  1  0
 21 23  2  0
 21 22  1  0
M  END
$$$$
