APH.pdb
     RDKit          3D

 23 24  0  0  1  0  0  0  0  0999 V2000
    6.3020  -15.4619   22.5816 C   0  0  0  0  0  0  0  0  0  0  0  0
    7.1014  -14.1674   22.5256 C   0  0  2  0  0  0  0  0  0  0  0  0
    7.7649  -14.1237   21.2670 N   0  0  0  0  0  0  0  0  0  0  0  0
    7.9918  -14.0176   23.6770 C   0  0  0  0  0  0  0  0  0  0  0  0
    9.1905  -14.3879   23.5235 O   0  0  0  0  0  0  0  0  0  0  0  0
    7.5726  -13.4984   24.8919 N   0  0  0  0  0  0  0  0  0  0  0  0
    6.2019  -13.0186   25.1537 C   0  0  0  0  0  0  0  0  0  0  0  0
    6.5038  -11.8379   26.0913 C   0  0  0  0  0  0  0  0  0  0  0  0
    7.4194  -12.5729   27.0803 C   0  0  0  0  0  0  0  0  0  0  0  0
    8.3311  -13.3237   26.0930 C   0  0  1  0  0  0  0  0  0  0  0  0
    8.5856  -14.6401   26.7832 C   0  0  0  0  0  0  0  0  0  0  0  0
    7.6560  -15.4518   27.0271 O   0  0  0  0  0  0  0  0  0  0  0  0
    9.8876  -15.0196   27.1877 N   0  0  0  0  0  0  0  0  0  0  0  0
   10.2031  -16.2714   27.8421 C   0  0  1  0  0  0  0  0  0  0  0  0
   11.4684  -16.7774   27.1876 C   0  0  0  0  0  0  0  0  0  0  0  0
   11.3755  -16.9615   25.7403 C   0  0  0  0  0  0  0  0  0  0  0  0
   10.4074  -17.5937   24.9924 C   0  0  0  0  0  0  0  0  0  0  0  0
   10.7498  -17.5186   23.6780 N   0  0  0  0  0  0  0  0  0  0  0  0
   11.9132  -16.8505   23.6048 C   0  0  0  0  0  0  0  0  0  0  0  0
   12.2864  -16.5175   24.8420 N   0  0  0  0  0  0  0  0  0  0  0  0
   10.4455  -16.1247   29.2770 C   0  0  0  0  0  0  0  0  0  0  0  0
   10.5875  -17.1707   30.1643 O   0  0  0  0  0  0  0  0  0  0  0  0
   10.5319  -14.9525   29.7459 O   0  0  0  0  0  0  0  0  0  0  0  0
  2  3  1  0
  2  1  1  1
  4  2  1  0
  5  4  2  0
  6  4  1  0
  7  6  1  0
  8  7  1  0
  9  8  1  0
  9 10  1  0
 10 11  1  1
 10  6  1  0
 11 13  1  0
 12 11  2  0
 13 14  1  0
 14 15  1  6
 14 21  1  0
 16 15  1  0
 17 16  2  0
 18 17  1  0
 19 18  1  0
 19 20  2  0
 20 16  1  0
 21 23  2  0
 21 22  1  0
M  END
$$$$
