APH.pdb
     RDKit          3D

 23 24  0  0  1  0  0  0  0  0999 V2000
    5.4280  -17.9645   22.7228 C   0  0  0  0  0  0  0  0  0  0  0  0
    6.0362  -17.9551   21.3272 C   0  0  2  0  0  0  0  0  0  0  0  0
    6.0887  -19.3022   20.8700 N   0  0  0  0  0  0  0  0  0  0  0  0
    7.3232  -17.2601   21.2900 C   0  0  0  0  0  0  0  0  0  0  0  0
    8.3581  -17.9656   21.4601 O   0  0  0  0  0  0  0  0  0  0  0  0
    7.4370  -15.8946   21.0806 N   0  0  0  0  0  0  0  0  0  0  0  0
    6.3039  -15.0184   20.7259 C   0  0  0  0  0  0  0  0  0  0  0  0
    7.0109  -14.0316   19.7822 C   0  0  0  0  0  0  0  0  0  0  0  0
    8.1953  -13.6716   20.6902 C   0  0  0  0  0  0  0  0  0  0  0  0
    8.6099  -15.0782   21.1587 C   0  0  1  0  0  0  0  0  0  0  0  0
    9.0376  -14.8591   22.5881 C   0  0  0  0  0  0  0  0  0  0  0  0
    8.6757  -13.8466   23.2410 O   0  0  0  0  0  0  0  0  0  0  0  0
    9.8684  -15.7881   23.2585 N   0  0  0  0  0  0  0  0  0  0  0  0
   10.1607  -15.7428   24.6753 C   0  0  1  0  0  0  0  0  0  0  0  0
    8.8721  -16.1022   25.3792 C   0  0  0  0  0  0  0  0  0  0  0  0
    7.9059  -15.0096   25.4795 C   0  0  0  0  0  0  0  0  0  0  0  0
    8.0319  -13.6858   25.1216 C   0  0  0  0  0  0  0  0  0  0  0  0
    6.8682  -13.0417   25.4068 N   0  0  0  0  0  0  0  0  0  0  0  0
    6.0279  -13.9476   25.9345 C   0  0  0  0  0  0  0  0  0  0  0  0
    6.6520  -15.1264   25.9771 N   0  0  0  0  0  0  0  0  0  0  0  0
   11.1953  -16.6945   25.0794 C   0  0  0  0  0  0  0  0  0  0  0  0
   12.0656  -16.5134   26.1336 O   0  0  0  0  0  0  0  0  0  0  0  0
   11.3055  -17.7661   24.4156 O   0  0  0  0  0  0  0  0  0  0  0  0
  2  3  1  0
  2  1  1  1
  4  2  1  0
  5  4  2  0
  6  4  1  0
  7  6  1  0
  8  7  1  0
  9  8  1  0
  9 10  1  0
 10 11  1  1
 10  6  1  0
 11 13  1  0
 12 11  2  0
 13 14  1  0
 14 15  1  1
 14 21  1  0
 16 15  1  0
 17 16  2  0
 18 17  1  0
 19 18  1  0
 19 20  2  0
 20 16  1  0
 21 23  2  0
 21 22  1  0
M  END
$$$$
