APH.pdb
     RDKit          3D

 23 24  0  0  1  0  0  0  0  0999 V2000
    6.5098  -14.3504   21.1604 C   0  0  0  0  0  0  0  0  0  0  0  0
    7.3308  -13.1437   21.5936 C   0  0  2  0  0  0  0  0  0  0  0  0
    8.1184  -12.7352   20.4804 N   0  0  0  0  0  0  0  0  0  0  0  0
    8.1030  -13.4079   22.8080 C   0  0  0  0  0  0  0  0  0  0  0  0
    9.3155  -13.7299   22.6547 O   0  0  0  0  0  0  0  0  0  0  0  0
    7.5609  -13.3185   24.0806 N   0  0  0  0  0  0  0  0  0  0  0  0
    6.1874  -12.8573   24.3603 C   0  0  0  0  0  0  0  0  0  0  0  0
    6.4182  -12.1087   25.6834 C   0  0  0  0  0  0  0  0  0  0  0  0
    7.1812  -13.2127   26.4288 C   0  0  0  0  0  0  0  0  0  0  0  0
    8.1762  -13.6363   25.3331 C   0  0  1  0  0  0  0  0  0  0  0  0
    8.2976  -15.1268   25.5277 C   0  0  0  0  0  0  0  0  0  0  0  0
    7.3174  -15.8986   25.3671 O   0  0  0  0  0  0  0  0  0  0  0  0
    9.5257  -15.7228   25.9011 N   0  0  0  0  0  0  0  0  0  0  0  0
    9.6875  -17.1281   26.2069 C   0  0  1  0  0  0  0  0  0  0  0  0
   10.8886  -17.5922   25.4149 C   0  0  0  0  0  0  0  0  0  0  0  0
   10.7484  -17.4688   23.9649 C   0  0  0  0  0  0  0  0  0  0  0  0
    9.6600  -17.7205   23.1598 C   0  0  0  0  0  0  0  0  0  0  0  0
   10.0025  -17.4686   21.8677 N   0  0  0  0  0  0  0  0  0  0  0  0
   11.2843  -17.0659   21.8643 C   0  0  0  0  0  0  0  0  0  0  0  0
   11.7294  -17.0668   23.1224 N   0  0  0  0  0  0  0  0  0  0  0  0
    9.9364  -17.3826   27.6256 C   0  0  0  0  0  0  0  0  0  0  0  0
   10.1153  -16.4062   28.5829 O   0  0  0  0  0  0  0  0  0  0  0  0
    9.9934  -18.5869   28.0098 O   0  0  0  0  0  0  0  0  0  0  0  0
  2  3  1  0
  2  1  1  6
  4  2  1  0
  5  4  2  0
  6  4  1  0
  7  6  1  0
  8  7  1  0
  9  8  1  0
  9 10  1  0
 10 11  1  6
 10  6  1  0
 11 13  1  0
 12 11  2  0
 13 14  1  0
 14 15  1  6
 14 21  1  0
 16 15  1  0
 17 16  2  0
 18 17  1  0
 19 18  1  0
 19 20  2  0
 20 16  1  0
 21 23  2  0
 21 22  1  0
M  END
$$$$
