APH.pdb
     RDKit          3D

 23 24  0  0  1  0  0  0  0  0999 V2000
    6.1162  -17.6651   18.7279 C   0  0  0  0  0  0  0  0  0  0  0  0
    7.0013  -16.7058   17.9442 C   0  0  2  0  0  0  0  0  0  0  0  0
    7.3634  -17.3490   16.7270 N   0  0  0  0  0  0  0  0  0  0  0  0
    8.1395  -16.2343   18.7334 C   0  0  0  0  0  0  0  0  0  0  0  0
    9.2301  -16.8570   18.5908 O   0  0  0  0  0  0  0  0  0  0  0  0
    8.0591  -15.1595   19.6050 N   0  0  0  0  0  0  0  0  0  0  0  0
    6.8308  -14.3745   19.8337 C   0  0  0  0  0  0  0  0  0  0  0  0
    7.4373  -12.9751   20.0290 C   0  0  0  0  0  0  0  0  0  0  0  0
    8.4968  -13.3406   21.0779 C   0  0  0  0  0  0  0  0  0  0  0  0
    9.0891  -14.6052   20.4299 C   0  0  1  0  0  0  0  0  0  0  0  0
    9.3917  -15.4943   21.6098 C   0  0  0  0  0  0  0  0  0  0  0  0
    8.4776  -16.0061   22.3062 O   0  0  0  0  0  0  0  0  0  0  0  0
   10.7234  -15.7917   21.9851 N   0  0  0  0  0  0  0  0  0  0  0  0
   11.0834  -16.6367   23.1035 C   0  0  1  0  0  0  0  0  0  0  0  0
   12.1372  -17.5888   22.5854 C   0  0  0  0  0  0  0  0  0  0  0  0
   11.6720  -18.5089   21.5489 C   0  0  0  0  0  0  0  0  0  0  0  0
   10.5777  -19.3448   21.5387 C   0  0  0  0  0  0  0  0  0  0  0  0
   10.5517  -20.0189   20.3575 N   0  0  0  0  0  0  0  0  0  0  0  0
   11.6124  -19.6116   19.6405 C   0  0  0  0  0  0  0  0  0  0  0  0
   12.2824  -18.7066   20.3565 N   0  0  0  0  0  0  0  0  0  0  0  0
   11.6413  -15.8907   24.2312 C   0  0  0  0  0  0  0  0  0  0  0  0
   11.6541  -16.3294   25.5385 O   0  0  0  0  0  0  0  0  0  0  0  0
   12.1516  -14.7568   23.9963 O   0  0  0  0  0  0  0  0  0  0  0  0
  2  3  1  0
  2  1  1  1
  4  2  1  0
  5  4  2  0
  6  4  1  0
  7  6  1  0
  8  7  1  0
  9  8  1  0
  9 10  1  0
 10 11  1  1
 10  6  1  0
 11 13  1  0
 12 11  2  0
 13 14  1  0
 14 15  1  6
 14 21  1  0
 16 15  1  0
 17 16  2  0
 18 17  1  0
 19 18  1  0
 19 20  2  0
 20 16  1  0
 21 23  2  0
 21 22  1  0
M  END
$$$$
