APH.pdb
     RDKit          3D

 23 24  0  0  1  0  0  0  0  0999 V2000
    7.6324  -16.7251   15.8906 C   0  0  0  0  0  0  0  0  0  0  0  0
    8.1281  -15.3239   15.5606 C   0  0  2  0  0  0  0  0  0  0  0  0
    8.6517  -15.3516   14.2372 N   0  0  0  0  0  0  0  0  0  0  0  0
    9.0650  -14.8186   16.5644 C   0  0  0  0  0  0  0  0  0  0  0  0
   10.2965  -14.9713   16.3237 O   0  0  0  0  0  0  0  0  0  0  0  0
    8.6549  -14.1978   17.7339 N   0  0  0  0  0  0  0  0  0  0  0  0
    7.2417  -13.9968   18.1079 C   0  0  0  0  0  0  0  0  0  0  0  0
    7.3391  -12.6306   18.8068 C   0  0  0  0  0  0  0  0  0  0  0  0
    8.4993  -12.9544   19.7585 C   0  0  0  0  0  0  0  0  0  0  0  0
    9.4636  -13.6469   18.7784 C   0  0  1  0  0  0  0  0  0  0  0  0
   10.0974  -14.7286   19.6165 C   0  0  0  0  0  0  0  0  0  0  0  0
    9.5370  -15.8398   19.7996 O   0  0  0  0  0  0  0  0  0  0  0  0
   11.3559  -14.5380   20.2353 N   0  0  0  0  0  0  0  0  0  0  0  0
   12.0990  -15.5836   20.9053 C   0  0  1  0  0  0  0  0  0  0  0  0
   13.5203  -15.0806   21.0160 C   0  0  0  0  0  0  0  0  0  0  0  0
   14.1910  -14.8593   19.7359 C   0  0  0  0  0  0  0  0  0  0  0  0
   14.0046  -15.4847   18.5233 C   0  0  0  0  0  0  0  0  0  0  0  0
   14.8634  -14.9469   17.6158 N   0  0  0  0  0  0  0  0  0  0  0  0
   15.5756  -14.0006   18.2503 C   0  0  0  0  0  0  0  0  0  0  0  0
   15.1709  -13.9498   19.5209 N   0  0  0  0  0  0  0  0  0  0  0  0
   11.5995  -15.8730   22.2492 C   0  0  0  0  0  0  0  0  0  0  0  0
   12.0106  -16.9304   23.0331 O   0  0  0  0  0  0  0  0  0  0  0  0
   10.7240  -15.0989   22.7346 O   0  0  0  0  0  0  0  0  0  0  0  0
  2  3  1  0
  2  1  1  1
  4  2  1  0
  5  4  2  0
  6  4  1  0
  7  6  1  0
  8  7  1  0
  9  8  1  0
  9 10  1  0
 10 11  1  1
 10  6  1  0
 11 13  1  0
 12 11  2  0
 13 14  1  0
 14 15  1  1
 14 21  1  0
 16 15  1  0
 17 16  2  0
 18 17  1  0
 19 18  1  0
 19 20  2  0
 20 16  1  0
 21 23  2  0
 21 22  1  0
M  END
$$$$
