APH.pdb
     RDKit          3D

 23 24  0  0  1  0  0  0  0  0999 V2000
    5.9234  -14.6772   22.0387 C   0  0  0  0  0  0  0  0  0  0  0  0
    6.9727  -13.5902   22.2263 C   0  0  2  0  0  0  0  0  0  0  0  0
    7.6659  -13.4416   20.9920 N   0  0  0  0  0  0  0  0  0  0  0  0
    7.8424  -13.8538   23.3730 C   0  0  0  0  0  0  0  0  0  0  0  0
    8.9348  -14.4443   23.1371 O   0  0  0  0  0  0  0  0  0  0  0  0
    7.5137  -13.4870   24.6687 N   0  0  0  0  0  0  0  0  0  0  0  0
    6.2121  -12.9100   25.0565 C   0  0  0  0  0  0  0  0  0  0  0  0
    6.6670  -11.9274   26.1482 C   0  0  0  0  0  0  0  0  0  0  0  0
    7.5187  -12.8999   26.9762 C   0  0  0  0  0  0  0  0  0  0  0  0
    8.3163  -13.5820   25.8499 C   0  0  1  0  0  0  0  0  0  0  0  0
    8.4390  -15.0088   26.3225 C   0  0  0  0  0  0  0  0  0  0  0  0
    7.4369  -15.7625   26.4237 O   0  0  0  0  0  0  0  0  0  0  0  0
    9.6931  -15.5627   26.6737 N   0  0  0  0  0  0  0  0  0  0  0  0
    9.8811  -16.9214   27.1353 C   0  0  1  0  0  0  0  0  0  0  0  0
   11.1354  -17.4232   26.4569 C   0  0  0  0  0  0  0  0  0  0  0  0
   11.0782  -17.4302   24.9961 C   0  0  0  0  0  0  0  0  0  0  0  0
    9.9892  -17.5078   24.1569 C   0  0  0  0  0  0  0  0  0  0  0  0
   10.4257  -17.4860   22.8687 N   0  0  0  0  0  0  0  0  0  0  0  0
   11.7659  -17.3964   22.9014 C   0  0  0  0  0  0  0  0  0  0  0  0
   12.1548  -17.3632   24.1775 N   0  0  0  0  0  0  0  0  0  0  0  0
   10.0630  -17.0164   28.5835 C   0  0  0  0  0  0  0  0  0  0  0  0
   10.1296  -18.1959   29.2948 O   0  0  0  0  0  0  0  0  0  0  0  0
   10.1673  -15.9389   29.2388 O   0  0  0  0  0  0  0  0  0  0  0  0
  2  3  1  0
  2  1  1  6
  4  2  1  0
  5  4  2  0
  6  4  1  0
  7  6  1  0
  8  7  1  0
  9  8  1  0
  9 10  1  0
 10 11  1  1
 10  6  1  0
 11 13  1  0
 12 11  2  0
 13 14  1  0
 14 15  1  6
 14 21  1  0
 16 15  1  0
 17 16  2  0
 18 17  1  0
 19 18  1  0
 19 20  2  0
 20 16  1  0
 21 23  2  0
 21 22  1  0
M  END
$$$$
