APH.pdb
     RDKit          3D

 23 24  0  0  1  0  0  0  0  0999 V2000
    6.7445  -17.5143   18.2042 C   0  0  0  0  0  0  0  0  0  0  0  0
    7.7836  -16.5388   17.6690 C   0  0  2  0  0  0  0  0  0  0  0  0
    8.4343  -17.1626   16.5673 N   0  0  0  0  0  0  0  0  0  0  0  0
    8.6936  -16.0718   18.7152 C   0  0  0  0  0  0  0  0  0  0  0  0
    9.7988  -16.6757   18.8217 O   0  0  0  0  0  0  0  0  0  0  0  0
    8.3888  -15.0205   19.5656 N   0  0  0  0  0  0  0  0  0  0  0  0
    7.1429  -14.2336   19.4888 C   0  0  0  0  0  0  0  0  0  0  0  0
    7.6771  -12.8442   19.8742 C   0  0  0  0  0  0  0  0  0  0  0  0
    8.4273  -13.2454   21.1520 C   0  0  0  0  0  0  0  0  0  0  0  0
    9.1683  -14.4960   20.6452 C   0  0  1  0  0  0  0  0  0  0  0  0
    9.1537  -15.4188   21.8378 C   0  0  0  0  0  0  0  0  0  0  0  0
    8.0797  -15.8581   22.3234 O   0  0  0  0  0  0  0  0  0  0  0  0
   10.3539  -15.8315   22.4641 N   0  0  0  0  0  0  0  0  0  0  0  0
   10.4094  -16.6709   23.6417 C   0  0  1  0  0  0  0  0  0  0  0  0
   11.4702  -17.7114   23.3633 C   0  0  0  0  0  0  0  0  0  0  0  0
   11.2075  -18.5543   22.1980 C   0  0  0  0  0  0  0  0  0  0  0  0
   10.1224  -18.5734   21.3504 C   0  0  0  0  0  0  0  0  0  0  0  0
   10.3184  -19.5349   20.4085 N   0  0  0  0  0  0  0  0  0  0  0  0
   11.5067  -20.1082   20.6626 C   0  0  0  0  0  0  0  0  0  0  0  0
   12.0378  -19.5189   21.7356 N   0  0  0  0  0  0  0  0  0  0  0  0
   10.7794  -15.9386   24.8526 C   0  0  0  0  0  0  0  0  0  0  0  0
   11.1774  -14.6186   24.8858 O   0  0  0  0  0  0  0  0  0  0  0  0
   10.7335  -16.5570   25.9556 O   0  0  0  0  0  0  0  0  0  0  0  0
  2  3  1  0
  2  1  1  1
  4  2  1  0
  5  4  2  0
  6  4  1  0
  7  6  1  0
  8  7  1  0
  9  8  1  0
  9 10  1  0
 10 11  1  1
 10  6  1  0
 11 13  1  0
 12 11  2  0
 13 14  1  0
 14 15  1  6
 14 21  1  0
 16 15  1  0
 17 16  2  0
 18 17  1  0
 19 18  1  0
 19 20  2  0
 20 16  1  0
 21 23  2  0
 21 22  1  0
M  END
$$$$
