APH.pdb
     RDKit          3D

 23 24  0  0  1  0  0  0  0  0999 V2000
    9.3954  -12.7447   18.7819 C   0  0  0  0  0  0  0  0  0  0  0  0
    8.7855  -14.0700   18.3465 C   0  0  2  0  0  0  0  0  0  0  0  0
    7.6730  -13.7784   17.5076 N   0  0  0  0  0  0  0  0  0  0  0  0
    8.4668  -14.9320   19.4849 C   0  0  0  0  0  0  0  0  0  0  0  0
    7.2950  -14.8511   19.9518 O   0  0  0  0  0  0  0  0  0  0  0  0
    9.3829  -15.8065   20.0484 N   0  0  0  0  0  0  0  0  0  0  0  0
   10.6985  -16.1156   19.4559 C   0  0  0  0  0  0  0  0  0  0  0  0
   10.8226  -17.6008   19.8342 C   0  0  0  0  0  0  0  0  0  0  0  0
   10.5011  -17.4728   21.3298 C   0  0  0  0  0  0  0  0  0  0  0  0
    9.2642  -16.5591   21.2599 C   0  0  1  0  0  0  0  0  0  0  0  0
    9.4105  -15.6783   22.4752 C   0  0  0  0  0  0  0  0  0  0  0  0
   10.2476  -14.7402   22.5175 O   0  0  0  0  0  0  0  0  0  0  0  0
    8.6081  -15.8710   23.6250 N   0  0  0  0  0  0  0  0  0  0  0  0
    8.5706  -14.9632   24.7516 C   0  0  1  0  0  0  0  0  0  0  0  0
    7.1356  -14.5026   24.8691 C   0  0  0  0  0  0  0  0  0  0  0  0
    6.8948  -13.5183   25.9229 C   0  0  0  0  0  0  0  0  0  0  0  0
    7.7762  -12.9462   26.8129 C   0  0  0  0  0  0  0  0  0  0  0  0
    7.0931  -12.0856   27.6149 N   0  0  0  0  0  0  0  0  0  0  0  0
    5.8054  -12.1188   27.2330 C   0  0  0  0  0  0  0  0  0  0  0  0
    5.6888  -12.9782   26.2188 N   0  0  0  0  0  0  0  0  0  0  0  0
    8.9637  -15.5941   26.0113 C   0  0  0  0  0  0  0  0  0  0  0  0
    9.0962  -16.9529   26.2056 O   0  0  0  0  0  0  0  0  0  0  0  0
    9.2009  -14.8422   27.0010 O   0  0  0  0  0  0  0  0  0  0  0  0
  2  3  1  0
  2  1  1  1
  4  2  1  0
  5  4  2  0
  6  4  1  0
  7  6  1  0
  8  7  1  0
  9  8  1  0
  9 10  1  0
 10 11  1  1
 10  6  1  0
 11 13  1  0
 12 11  2  0
 13 14  1  0
 14 15  1  1
 14 21  1  0
 16 15  1  0
 17 16  2  0
 18 17  1  0
 19 18  1  0
 19 20  2  0
 20 16  1  0
 21 23  2  0
 21 22  1  0
M  END
$$$$
