APH.pdb
     RDKit          3D

 23 24  0  0  1  0  0  0  0  0999 V2000
    9.0198  -15.6492   18.5114 C   0  0  0  0  0  0  0  0  0  0  0  0
    8.7738  -14.2723   19.1128 C   0  0  2  0  0  0  0  0  0  0  0  0
    9.4599  -13.3203   18.3070 N   0  0  0  0  0  0  0  0  0  0  0  0
    9.1250  -14.2187   20.5322 C   0  0  0  0  0  0  0  0  0  0  0  0
   10.2914  -13.8237   20.8171 O   0  0  0  0  0  0  0  0  0  0  0  0
    8.2444  -14.5770   21.5409 N   0  0  0  0  0  0  0  0  0  0  0  0
    6.9126  -15.1654   21.3011 C   0  0  0  0  0  0  0  0  0  0  0  0
    6.1215  -14.5204   22.4511 C   0  0  0  0  0  0  0  0  0  0  0  0
    7.0811  -14.8676   23.5980 C   0  0  0  0  0  0  0  0  0  0  0  0
    8.4211  -14.4638   22.9566 C   0  0  1  0  0  0  0  0  0  0  0  0
    9.3851  -15.4992   23.4786 C   0  0  0  0  0  0  0  0  0  0  0  0
    9.5214  -16.6190   22.9218 O   0  0  0  0  0  0  0  0  0  0  0  0
   10.1812  -15.2535   24.6226 N   0  0  0  0  0  0  0  0  0  0  0  0
   11.1075  -16.2103   25.1893 C   0  0  1  0  0  0  0  0  0  0  0  0
   11.7857  -15.5035   26.3407 C   0  0  0  0  0  0  0  0  0  0  0  0
   10.8986  -15.1502   27.4477 C   0  0  0  0  0  0  0  0  0  0  0  0
   10.1895  -13.9917   27.6739 C   0  0  0  0  0  0  0  0  0  0  0  0
    9.5037  -14.1181   28.8419 N   0  0  0  0  0  0  0  0  0  0  0  0
    9.7793  -15.3357   29.3384 C   0  0  0  0  0  0  0  0  0  0  0  0
   10.6156  -15.9526   28.5012 N   0  0  0  0  0  0  0  0  0  0  0  0
   10.4504  -17.4128   25.7008 C   0  0  0  0  0  0  0  0  0  0  0  0
   11.1038  -18.5586   26.1029 O   0  0  0  0  0  0  0  0  0  0  0  0
    9.1876  -17.4079   25.7824 O   0  0  0  0  0  0  0  0  0  0  0  0
  2  3  1  0
  2  1  1  6
  4  2  1  0
  5  4  2  0
  6  4  1  0
  7  6  1  0
  8  7  1  0
  9  8  1  0
  9 10  1  0
 10 11  1  1
 10  6  1  0
 11 13  1  0
 12 11  2  0
 13 14  1  0
 14 15  1  1
 14 21  1  0
 16 15  1  0
 17 16  2  0
 18 17  1  0
 19 18  1  0
 19 20  2  0
 20 16  1  0
 21 23  2  0
 21 22  1  0
M  END
$$$$
