DFA.pdb
     RDKit          3D

 25 25  0  0  1  0  0  0  0  0999 V2000
   15.2492   -7.1757  -14.1869 N   0  0  0  0  0  0  0  0  0  0  0  0
   16.2096   -8.1089  -14.8152 C   0  0  1  0  0  0  0  0  0  0  0  0
   15.6786   -8.4647  -16.1764 C   0  0  0  0  0  0  0  0  0  0  0  0
   14.5117   -9.3387  -16.1162 C   0  0  0  0  0  0  0  0  0  0  0  0
   14.6653  -10.5360  -15.7716 O   0  0  0  0  0  0  0  0  0  0  0  0
   17.5241   -7.4996  -14.9068 C   0  0  0  0  0  0  0  0  0  0  0  0
   17.6266   -6.2331  -14.9492 O   0  0  0  0  0  0  0  0  0  0  0  0
   13.2390   -8.8689  -16.4332 O   0  0  0  0  0  0  0  0  0  0  0  0
   18.7474   -8.1969  -14.9484 N   0  0  0  0  0  0  0  0  0  0  0  0
   20.0272   -7.4831  -15.0877 C   0  0  1  0  0  0  0  0  0  0  0  0
   21.0360   -8.2382  -14.2602 C   0  0  0  0  0  0  0  0  0  0  0  0
   22.4273   -7.8876  -14.5241 C   0  0  0  0  0  0  0  0  0  0  0  0
   22.7816   -6.5413  -14.4070 C   0  0  0  0  0  0  0  0  0  0  0  0
   24.0725   -6.1063  -14.6359 C   0  0  0  0  0  0  0  0  0  0  0  0
   25.0605   -6.9980  -14.9907 C   0  0  0  0  0  0  0  0  0  0  0  0
   24.7194   -8.3247  -15.1081 C   0  0  0  0  0  0  0  0  0  0  0  0
   23.4265   -8.7395  -14.8757 C   0  0  0  0  0  0  0  0  0  0  0  0
   20.4454   -7.6194  -16.4883 C   0  0  0  0  0  0  0  0  0  0  0  0
   20.5494   -8.6804  -17.1295 O   0  0  0  0  0  0  0  0  0  0  0  0
   20.5985   -5.1254  -19.1534 C   0  0  0  0  0  0  0  0  0  0  0  0
   21.1064   -6.4306  -18.5467 C   0  0  2  0  0  0  0  0  0  0  0  0
   20.7587   -6.3830  -17.1568 N   0  0  0  0  0  0  0  0  0  0  0  0
   22.5527   -6.4899  -18.7802 C   0  0  0  0  0  0  0  0  0  0  0  0
   23.4796   -6.3666  -17.7620 O   0  0  0  0  0  0  0  0  0  0  0  0
   22.9803   -6.6590  -19.9450 O   0  0  0  0  0  0  0  0  0  0  0  0
  2  3  1  0
  2  1  1  6
  3  4  1  0
  4  8  1  0
  4  5  2  0
  6  2  1  0
  7  6  2  0
  9  6  1  0
 10  9  1  0
 10 11  1  1
 11 12  1  0
 12 13  2  0
 13 14  1  0
 15 14  2  0
 16 15  1  0
 17 12  1  0
 17 16  2  0
 18 22  1  0
 18 10  1  0
 19 18  2  0
 21 20  1  6
 21 23  1  0
 21 22  1  0
 23 24  1  0
 25 23  2  0
M  END
$$$$
