DFA.pdb
     RDKit          3D

 25 25  0  0  1  0  0  0  0  0999 V2000
   32.3261  -38.5542   -6.0313 N   0  0  0  0  0  0  0  0  0  0  0  0
   33.6781  -38.1132   -5.6243 C   0  0  1  0  0  0  0  0  0  0  0  0
   34.3543  -37.5327   -6.8355 C   0  0  0  0  0  0  0  0  0  0  0  0
   34.8727  -38.5562   -7.7371 C   0  0  0  0  0  0  0  0  0  0  0  0
   34.7415  -39.7650   -7.4253 O   0  0  0  0  0  0  0  0  0  0  0  0
   33.5930  -37.1381   -4.5521 C   0  0  0  0  0  0  0  0  0  0  0  0
   34.6602  -36.6834   -4.0317 O   0  0  0  0  0  0  0  0  0  0  0  0
   35.5070  -38.2153   -8.9299 O   0  0  0  0  0  0  0  0  0  0  0  0
   32.4001  -36.6183   -4.0124 N   0  0  0  0  0  0  0  0  0  0  0  0
   32.4242  -35.6234   -2.9278 C   0  0  1  0  0  0  0  0  0  0  0  0
   31.5862  -34.4588   -3.3904 C   0  0  0  0  0  0  0  0  0  0  0  0
   32.0851  -33.7833   -4.5833 C   0  0  0  0  0  0  0  0  0  0  0  0
   31.2300  -33.7162   -5.6860 C   0  0  0  0  0  0  0  0  0  0  0  0
   31.6072  -33.0987   -6.8626 C   0  0  0  0  0  0  0  0  0  0  0  0
   32.8530  -32.5240   -6.9849 C   0  0  0  0  0  0  0  0  0  0  0  0
   33.7004  -32.5862   -5.9039 C   0  0  0  0  0  0  0  0  0  0  0  0
   33.3061  -33.2063   -4.7387 C   0  0  0  0  0  0  0  0  0  0  0  0
   31.7231  -36.2177   -1.7832 C   0  0  0  0  0  0  0  0  0  0  0  0
   30.9386  -37.1827   -1.8159 O   0  0  0  0  0  0  0  0  0  0  0  0
   31.9616  -35.4538    1.8491 C   0  0  0  0  0  0  0  0  0  0  0  0
   31.2551  -36.0469    0.6332 C   0  0  2  0  0  0  0  0  0  0  0  0
   31.9927  -35.5987   -0.5113 N   0  0  0  0  0  0  0  0  0  0  0  0
   29.8695  -35.5677    0.6533 C   0  0  0  0  0  0  0  0  0  0  0  0
   28.9554  -35.9649    1.6112 O   0  0  0  0  0  0  0  0  0  0  0  0
   29.4844  -34.7650   -0.2274 O   0  0  0  0  0  0  0  0  0  0  0  0
  2  3  1  0
  2  1  1  6
  3  4  1  0
  4  8  1  0
  4  5  2  0
  6  2  1  0
  7  6  2  0
  9  6  1  0
 10  9  1  0
 10 11  1  6
 11 12  1  0
 12 13  2  0
 13 14  1  0
 15 14  2  0
 16 15  1  0
 17 12  1  0
 17 16  2  0
 18 22  1  0
 18 10  1  0
 19 18  2  0
 21 20  1  1
 21 23  1  0
 21 22  1  0
 23 24  1  0
 25 23  2  0
M  END
$$$$
