DFA.pdb
     RDKit          3D

 25 25  0  0  1  0  0  0  0  0999 V2000
   21.6629  -12.0805  -16.9635 N   0  0  0  0  0  0  0  0  0  0  0  0
   21.2434  -10.8981  -17.7472 C   0  0  1  0  0  0  0  0  0  0  0  0
   19.8935  -11.1964  -18.3389 C   0  0  0  0  0  0  0  0  0  0  0  0
   19.9389  -12.2538  -19.3434 C   0  0  0  0  0  0  0  0  0  0  0  0
   20.9533  -12.3542  -20.0760 O   0  0  0  0  0  0  0  0  0  0  0  0
   21.1976   -9.7186  -16.9020 C   0  0  0  0  0  0  0  0  0  0  0  0
   20.6491   -9.7884  -15.7572 O   0  0  0  0  0  0  0  0  0  0  0  0
   18.8814  -13.1470  -19.5015 O   0  0  0  0  0  0  0  0  0  0  0  0
   21.7265   -8.4553  -17.2319 N   0  0  0  0  0  0  0  0  0  0  0  0
   21.7306   -7.3525  -16.2569 C   0  0  1  0  0  0  0  0  0  0  0  0
   23.1744   -6.9893  -16.0207 C   0  0  0  0  0  0  0  0  0  0  0  0
   24.0080   -8.0841  -15.5360 C   0  0  0  0  0  0  0  0  0  0  0  0
   23.5830   -8.7512  -14.3846 C   0  0  0  0  0  0  0  0  0  0  0  0
   24.3010   -9.8007  -13.8450 C   0  0  0  0  0  0  0  0  0  0  0  0
   25.4715  -10.2257  -14.4337 C   0  0  0  0  0  0  0  0  0  0  0  0
   25.8964   -9.5739  -15.5674 C   0  0  0  0  0  0  0  0  0  0  0  0
   25.1666   -8.5292  -16.0906 C   0  0  0  0  0  0  0  0  0  0  0  0
   21.1078   -6.1963  -16.9128 C   0  0  0  0  0  0  0  0  0  0  0  0
   21.3486   -5.7775  -18.0592 O   0  0  0  0  0  0  0  0  0  0  0  0
   18.1685   -4.1889  -15.9093 C   0  0  0  0  0  0  0  0  0  0  0  0
   19.4561   -4.3751  -16.7073 C   0  0  2  0  0  0  0  0  0  0  0  0
   20.1250   -5.5003  -16.1232 N   0  0  0  0  0  0  0  0  0  0  0  0
   20.2212   -3.1286  -16.6034 C   0  0  0  0  0  0  0  0  0  0  0  0
   19.8363   -1.9608  -17.2353 O   0  0  0  0  0  0  0  0  0  0  0  0
   21.2685   -3.1061  -15.9171 O   0  0  0  0  0  0  0  0  0  0  0  0
  2  3  1  0
  2  1  1  1
  3  4  1  0
  4  8  1  0
  4  5  2  0
  6  2  1  0
  7  6  2  0
  9  6  1  0
 10  9  1  0
 10 11  1  6
 11 12  1  0
 12 13  2  0
 13 14  1  0
 15 14  2  0
 16 15  1  0
 17 12  1  0
 17 16  2  0
 18 22  1  0
 18 10  1  0
 19 18  2  0
 21 20  1  1
 21 23  1  0
 21 22  1  0
 23 24  1  0
 25 23  2  0
M  END
$$$$
