DFA.pdb
     RDKit          3D

 25 25  0  0  1  0  0  0  0  0999 V2000
   24.2185  -11.5550  -19.7820 N   0  0  0  0  0  0  0  0  0  0  0  0
   23.4975  -10.2659  -19.7020 C   0  0  1  0  0  0  0  0  0  0  0  0
   22.1386  -10.4624  -20.3153 C   0  0  0  0  0  0  0  0  0  0  0  0
   22.1930  -10.6397  -21.7627 C   0  0  0  0  0  0  0  0  0  0  0  0
   23.0436   -9.9947  -22.4232 O   0  0  0  0  0  0  0  0  0  0  0  0
   23.3926   -9.8272  -18.3220 C   0  0  0  0  0  0  0  0  0  0  0  0
   22.9473  -10.6288  -17.4413 O   0  0  0  0  0  0  0  0  0  0  0  0
   21.3218  -11.5068  -22.4184 O   0  0  0  0  0  0  0  0  0  0  0  0
   23.7551   -8.5546  -17.8389 N   0  0  0  0  0  0  0  0  0  0  0  0
   23.6231   -8.2148  -16.4127 C   0  0  1  0  0  0  0  0  0  0  0  0
   25.0017   -7.8469  -15.9263 C   0  0  0  0  0  0  0  0  0  0  0  0
   25.9846   -8.9220  -16.0067 C   0  0  0  0  0  0  0  0  0  0  0  0
   25.9336   -9.9112  -15.0217 C   0  0  0  0  0  0  0  0  0  0  0  0
   26.8194  -10.9711  -15.0084 C   0  0  0  0  0  0  0  0  0  0  0  0
   27.7911  -11.0850  -15.9780 C   0  0  0  0  0  0  0  0  0  0  0  0
   27.8478  -10.1151  -16.9508 C   0  0  0  0  0  0  0  0  0  0  0  0
   26.9555   -9.0656  -16.9473 C   0  0  0  0  0  0  0  0  0  0  0  0
   22.8101   -6.9950  -16.3346 C   0  0  0  0  0  0  0  0  0  0  0  0
   22.9204   -5.9851  -17.0525 O   0  0  0  0  0  0  0  0  0  0  0  0
   19.7331   -6.2881  -14.3977 C   0  0  0  0  0  0  0  0  0  0  0  0
   20.9712   -5.8362  -15.1672 C   0  0  2  0  0  0  0  0  0  0  0  0
   21.7929   -7.0013  -15.3153 N   0  0  0  0  0  0  0  0  0  0  0  0
   21.6099   -4.7725  -14.3858 C   0  0  0  0  0  0  0  0  0  0  0  0
   21.2127   -3.4504  -14.4589 O   0  0  0  0  0  0  0  0  0  0  0  0
   22.5554   -5.0590  -13.6162 O   0  0  0  0  0  0  0  0  0  0  0  0
  2  3  1  0
  2  1  1  1
  3  4  1  0
  4  8  1  0
  4  5  2  0
  6  2  1  0
  7  6  2  0
  9  6  1  0
 10  9  1  0
 10 11  1  6
 11 12  1  0
 12 13  2  0
 13 14  1  0
 15 14  2  0
 16 15  1  0
 17 12  1  0
 17 16  2  0
 18 22  1  0
 18 10  1  0
 19 18  2  0
 21 20  1  1
 21 23  1  0
 21 22  1  0
 23 24  1  0
 25 23  2  0
M  END
$$$$
