DFA.pdb
     RDKit          3D

 25 25  0  0  1  0  0  0  0  0999 V2000
   27.2328  -20.0205  -17.1823 N   0  0  0  0  0  0  0  0  0  0  0  0
   25.9400  -19.5243  -16.6621 C   0  0  1  0  0  0  0  0  0  0  0  0
   24.9634  -19.5050  -17.8054 C   0  0  0  0  0  0  0  0  0  0  0  0
   25.2536  -18.4562  -18.7776 C   0  0  0  0  0  0  0  0  0  0  0  0
   25.6866  -18.7795  -19.9106 O   0  0  0  0  0  0  0  0  0  0  0  0
   25.4679  -20.3722  -15.5822 C   0  0  0  0  0  0  0  0  0  0  0  0
   25.5365  -21.6361  -15.7015 O   0  0  0  0  0  0  0  0  0  0  0  0
   25.0596  -17.1112  -18.4702 O   0  0  0  0  0  0  0  0  0  0  0  0
   24.9257  -19.9184  -14.3637 N   0  0  0  0  0  0  0  0  0  0  0  0
   24.5539  -20.8619  -13.2967 C   0  0  1  0  0  0  0  0  0  0  0  0
   25.1411  -20.3217  -12.0177 C   0  0  0  0  0  0  0  0  0  0  0  0
   26.5873  -20.4721  -11.8986 C   0  0  0  0  0  0  0  0  0  0  0  0
   27.0617  -21.3398  -10.9119 C   0  0  0  0  0  0  0  0  0  0  0  0
   28.4128  -21.5516  -10.7177 C   0  0  0  0  0  0  0  0  0  0  0  0
   29.3437  -20.9054  -11.5009 C   0  0  0  0  0  0  0  0  0  0  0  0
   28.8844  -20.0496  -12.4741 C   0  0  0  0  0  0  0  0  0  0  0  0
   27.5329  -19.8514  -12.6526 C   0  0  0  0  0  0  0  0  0  0  0  0
   23.0947  -20.7935  -13.1515 C   0  0  0  0  0  0  0  0  0  0  0  0
   22.4159  -19.7657  -12.9767 O   0  0  0  0  0  0  0  0  0  0  0  0
   20.5295  -23.4390  -13.6053 C   0  0  0  0  0  0  0  0  0  0  0  0
   20.9835  -22.0694  -13.1078 C   0  0  2  0  0  0  0  0  0  0  0  0
   22.4122  -22.0595  -13.2235 N   0  0  0  0  0  0  0  0  0  0  0  0
   20.5132  -21.9260  -11.7265 C   0  0  0  0  0  0  0  0  0  0  0  0
   19.1775  -21.7756  -11.4038 O   0  0  0  0  0  0  0  0  0  0  0  0
   21.3447  -21.9385  -10.7901 O   0  0  0  0  0  0  0  0  0  0  0  0
  2  3  1  0
  2  1  1  6
  3  4  1  0
  4  8  1  0
  4  5  2  0
  6  2  1  0
  7  6  2  0
  9  6  1  0
 10  9  1  0
 10 11  1  1
 11 12  1  0
 12 13  2  0
 13 14  1  0
 15 14  2  0
 16 15  1  0
 17 12  1  0
 17 16  2  0
 18 22  1  0
 18 10  1  0
 19 18  2  0
 21 20  1  1
 21 23  1  0
 21 22  1  0
 23 24  1  0
 25 23  2  0
M  END
$$$$
