DFA.pdb
     RDKit          3D

 25 25  0  0  1  0  0  0  0  0999 V2000
   17.3864   -6.8823  -15.6236 N   0  0  0  0  0  0  0  0  0  0  0  0
   17.7684   -8.0529  -16.4431 C   0  0  1  0  0  0  0  0  0  0  0  0
   16.6677   -8.2935  -17.4390 C   0  0  0  0  0  0  0  0  0  0  0  0
   15.4239   -8.7275  -16.8114 C   0  0  0  0  0  0  0  0  0  0  0  0
   14.3310   -8.3793  -17.3216 O   0  0  0  0  0  0  0  0  0  0  0  0
   19.0364   -7.8149  -17.1088 C   0  0  0  0  0  0  0  0  0  0  0  0
   19.2457   -6.6976  -17.6783 O   0  0  0  0  0  0  0  0  0  0  0  0
   15.4300   -9.5161  -15.6629 O   0  0  0  0  0  0  0  0  0  0  0  0
   20.1042   -8.7306  -17.1854 N   0  0  0  0  0  0  0  0  0  0  0  0
   21.3946   -8.3486  -17.7819 C   0  0  1  0  0  0  0  0  0  0  0  0
   22.4132   -8.3883  -16.6715 C   0  0  0  0  0  0  0  0  0  0  0  0
   22.3606   -7.2554  -15.7539 C   0  0  0  0  0  0  0  0  0  0  0  0
   22.9716   -6.0686  -16.1661 C   0  0  0  0  0  0  0  0  0  0  0  0
   22.9775   -4.9391  -15.3709 C   0  0  0  0  0  0  0  0  0  0  0  0
   22.3737   -4.9497  -14.1330 C   0  0  0  0  0  0  0  0  0  0  0  0
   21.7703   -6.1142  -13.7202 C   0  0  0  0  0  0  0  0  0  0  0  0
   21.7748   -7.2305  -14.5274 C   0  0  0  0  0  0  0  0  0  0  0  0
   21.7619   -9.4094  -18.7279 C   0  0  0  0  0  0  0  0  0  0  0  0
   21.7468  -10.6339  -18.5088 O   0  0  0  0  0  0  0  0  0  0  0  0
   22.7314   -9.1912  -22.3159 C   0  0  0  0  0  0  0  0  0  0  0  0
   22.6151   -9.9276  -20.9841 C   0  0  2  0  0  0  0  0  0  0  0  0
   22.1757   -8.9528  -20.0294 N   0  0  0  0  0  0  0  0  0  0  0  0
   23.9347  -10.4871  -20.6750 C   0  0  0  0  0  0  0  0  0  0  0  0
   24.4096  -11.6471  -21.2581 O   0  0  0  0  0  0  0  0  0  0  0  0
   24.6729   -9.9005  -19.8509 O   0  0  0  0  0  0  0  0  0  0  0  0
  2  3  1  0
  2  1  1  6
  3  4  1  0
  4  8  1  0
  4  5  2  0
  6  2  1  0
  7  6  2  0
  9  6  1  0
 10  9  1  0
 10 11  1  1
 11 12  1  0
 12 13  2  0
 13 14  1  0
 15 14  2  0
 16 15  1  0
 17 12  1  0
 17 16  2  0
 18 22  1  0
 18 10  1  0
 19 18  2  0
 21 20  1  6
 21 23  1  0
 21 22  1  0
 23 24  1  0
 25 23  2  0
M  END
$$$$
