DFA.pdb
     RDKit          3D

 25 25  0  0  1  0  0  0  0  0999 V2000
   23.3379  -11.6921  -18.4598 N   0  0  0  0  0  0  0  0  0  0  0  0
   22.6040  -10.4818  -18.8895 C   0  0  1  0  0  0  0  0  0  0  0  0
   21.2752  -10.9227  -19.4381 C   0  0  0  0  0  0  0  0  0  0  0  0
   21.3975  -11.6475  -20.6987 C   0  0  0  0  0  0  0  0  0  0  0  0
   22.2367  -11.2565  -21.5465 O   0  0  0  0  0  0  0  0  0  0  0  0
   22.4349   -9.5676  -17.7745 C   0  0  0  0  0  0  0  0  0  0  0  0
   21.8712   -9.9744  -16.7100 O   0  0  0  0  0  0  0  0  0  0  0  0
   20.6030  -12.7582  -20.9744 O   0  0  0  0  0  0  0  0  0  0  0  0
   22.8548   -8.2232  -17.7485 N   0  0  0  0  0  0  0  0  0  0  0  0
   22.6699   -7.3900  -16.5491 C   0  0  1  0  0  0  0  0  0  0  0  0
   24.0385   -6.9048  -16.1442 C   0  0  0  0  0  0  0  0  0  0  0  0
   25.0105   -7.9624  -15.8892 C   0  0  0  0  0  0  0  0  0  0  0  0
   24.7957   -8.7737  -14.7724 C   0  0  0  0  0  0  0  0  0  0  0  0
   25.6574   -9.8022  -14.4439 C   0  0  0  0  0  0  0  0  0  0  0  0
   26.7674  -10.0612  -15.2173 C   0  0  0  0  0  0  0  0  0  0  0  0
   26.9855   -9.2668  -16.3181 C   0  0  0  0  0  0  0  0  0  0  0  0
   26.1147   -8.2458  -16.6296 C   0  0  0  0  0  0  0  0  0  0  0  0
   21.9085   -6.2047  -16.9621 C   0  0  0  0  0  0  0  0  0  0  0  0
   22.2894   -5.3167  -17.7457 O   0  0  0  0  0  0  0  0  0  0  0  0
   18.3638   -5.3822  -16.7278 C   0  0  0  0  0  0  0  0  0  0  0  0
   19.8186   -4.9226  -16.6875 C   0  0  2  0  0  0  0  0  0  0  0  0
   20.5944   -6.0892  -16.3845 N   0  0  0  0  0  0  0  0  0  0  0  0
   19.9206   -3.8773  -15.6643 C   0  0  0  0  0  0  0  0  0  0  0  0
   19.4092   -2.6054  -15.8420 O   0  0  0  0  0  0  0  0  0  0  0  0
   20.4919   -4.1332  -14.5797 O   0  0  0  0  0  0  0  0  0  0  0  0
  2  3  1  0
  2  1  1  1
  3  4  1  0
  4  8  1  0
  4  5  2  0
  6  2  1  0
  7  6  2  0
  9  6  1  0
 10  9  1  0
 10 11  1  6
 11 12  1  0
 12 13  2  0
 13 14  1  0
 15 14  2  0
 16 15  1  0
 17 12  1  0
 17 16  2  0
 18 22  1  0
 18 10  1  0
 19 18  2  0
 21 20  1  1
 21 23  1  0
 21 22  1  0
 23 24  1  0
 25 23  2  0
M  END
$$$$
