DFA.pdb
     RDKit          3D

 25 25  0  0  1  0  0  0  0  0999 V2000
   20.9879  -19.8236  -11.7722 N   0  0  0  0  0  0  0  0  0  0  0  0
   21.8818  -20.9678  -12.0551 C   0  0  1  0  0  0  0  0  0  0  0  0
   21.5461  -21.4827  -13.4275 C   0  0  0  0  0  0  0  0  0  0  0  0
   20.2056  -22.0542  -13.5035 C   0  0  0  0  0  0  0  0  0  0  0  0
   19.6037  -22.3378  -12.4390 O   0  0  0  0  0  0  0  0  0  0  0  0
   23.2723  -20.5585  -11.9731 C   0  0  0  0  0  0  0  0  0  0  0  0
   23.5720  -19.3287  -12.0920 O   0  0  0  0  0  0  0  0  0  0  0  0
   19.5879  -22.2890  -14.7300 O   0  0  0  0  0  0  0  0  0  0  0  0
   24.3668  -21.4194  -11.7600 N   0  0  0  0  0  0  0  0  0  0  0  0
   25.7388  -20.8964  -11.6556 C   0  0  1  0  0  0  0  0  0  0  0  0
   26.4781  -21.8074  -10.7090 C   0  0  0  0  0  0  0  0  0  0  0  0
   26.9461  -21.1661   -9.4851 C   0  0  0  0  0  0  0  0  0  0  0  0
   26.0102  -20.4403   -8.7443 C   0  0  0  0  0  0  0  0  0  0  0  0
   26.3524  -19.7960   -7.5713 C   0  0  0  0  0  0  0  0  0  0  0  0
   27.6424  -19.8509   -7.0916 C   0  0  0  0  0  0  0  0  0  0  0  0
   28.5693  -20.5634   -7.8153 C   0  0  0  0  0  0  0  0  0  0  0  0
   28.2089  -21.1993   -8.9829 C   0  0  0  0  0  0  0  0  0  0  0  0
   26.3638  -21.0625  -12.9735 C   0  0  0  0  0  0  0  0  0  0  0  0
   26.2649  -22.0530  -13.7197 O   0  0  0  0  0  0  0  0  0  0  0  0
   28.5475  -18.7294  -14.8959 C   0  0  0  0  0  0  0  0  0  0  0  0
   27.6443  -19.9529  -14.7669 C   0  0  2  0  0  0  0  0  0  0  0  0
   27.1636  -19.9499  -13.4165 N   0  0  0  0  0  0  0  0  0  0  0  0
   28.4533  -21.1321  -15.0910 C   0  0  0  0  0  0  0  0  0  0  0  0
   28.6617  -21.5614  -16.3884 O   0  0  0  0  0  0  0  0  0  0  0  0
   28.9835  -21.7868  -14.1645 O   0  0  0  0  0  0  0  0  0  0  0  0
  2  3  1  0
  2  1  1  6
  3  4  1  0
  4  8  1  0
  4  5  2  0
  6  2  1  0
  7  6  2  0
  9  6  1  0
 10  9  1  0
 10 11  1  1
 11 12  1  0
 12 13  2  0
 13 14  1  0
 15 14  2  0
 16 15  1  0
 17 12  1  0
 17 16  2  0
 18 22  1  0
 18 10  1  0
 19 18  2  0
 21 20  1  1
 21 23  1  0
 21 22  1  0
 23 24  1  0
 25 23  2  0
M  END
$$$$
