DFA.pdb
     RDKit          3D

 25 25  0  0  1  0  0  0  0  0999 V2000
   28.2520  -21.2652  -17.6556 N   0  0  0  0  0  0  0  0  0  0  0  0
   27.5766  -22.4274  -18.2730 C   0  0  1  0  0  0  0  0  0  0  0  0
   28.4943  -23.6117  -18.1445 C   0  0  0  0  0  0  0  0  0  0  0  0
   29.7738  -23.4096  -18.8163 C   0  0  0  0  0  0  0  0  0  0  0  0
   29.8060  -22.7334  -19.8734 O   0  0  0  0  0  0  0  0  0  0  0  0
   26.3019  -22.6777  -17.6247 C   0  0  0  0  0  0  0  0  0  0  0  0
   25.6550  -23.7367  -17.9010 O   0  0  0  0  0  0  0  0  0  0  0  0
   30.9517  -23.9519  -18.3069 O   0  0  0  0  0  0  0  0  0  0  0  0
   25.6873  -21.8356  -16.6772 N   0  0  0  0  0  0  0  0  0  0  0  0
   24.3598  -22.1510  -16.1249 C   0  0  1  0  0  0  0  0  0  0  0  0
   24.4336  -21.8852  -14.6429 C   0  0  0  0  0  0  0  0  0  0  0  0
   23.1744  -22.0612  -13.9275 C   0  0  0  0  0  0  0  0  0  0  0  0
   22.5547  -20.9123  -13.4300 C   0  0  0  0  0  0  0  0  0  0  0  0
   21.3603  -20.9714  -12.7385 C   0  0  0  0  0  0  0  0  0  0  0  0
   20.7375  -22.1798  -12.5165 C   0  0  0  0  0  0  0  0  0  0  0  0
   21.3415  -23.3151  -13.0031 C   0  0  0  0  0  0  0  0  0  0  0  0
   22.5327  -23.2359  -13.6904 C   0  0  0  0  0  0  0  0  0  0  0  0
   23.4186  -21.1717  -16.6816 C   0  0  0  0  0  0  0  0  0  0  0  0
   23.5942  -19.9432  -16.7685 O   0  0  0  0  0  0  0  0  0  0  0  0
   20.5652  -21.4340  -18.8716 C   0  0  0  0  0  0  0  0  0  0  0  0
   21.1608  -20.8146  -17.6103 C   0  0  2  0  0  0  0  0  0  0  0  0
   22.1788  -21.7210  -17.1665 N   0  0  0  0  0  0  0  0  0  0  0  0
   20.0700  -20.6509  -16.6442 C   0  0  0  0  0  0  0  0  0  0  0  0
   19.2577  -19.5327  -16.6169 O   0  0  0  0  0  0  0  0  0  0  0  0
   19.8536  -21.5534  -15.8034 O   0  0  0  0  0  0  0  0  0  0  0  0
  2  3  1  0
  2  1  1  1
  3  4  1  0
  4  8  1  0
  4  5  2  0
  6  2  1  0
  7  6  2  0
  9  6  1  0
 10  9  1  0
 10 11  1  1
 11 12  1  0
 12 13  2  0
 13 14  1  0
 15 14  2  0
 16 15  1  0
 17 12  1  0
 17 16  2  0
 18 22  1  0
 18 10  1  0
 19 18  2  0
 21 20  1  6
 21 23  1  0
 21 22  1  0
 23 24  1  0
 25 23  2  0
M  END
$$$$
