DFA.pdb
     RDKit          3D

 25 25  0  0  1  0  0  0  0  0999 V2000
   28.3027  -22.6827  -15.7502 N   0  0  0  0  0  0  0  0  0  0  0  0
   27.6265  -21.3996  -15.4596 C   0  0  1  0  0  0  0  0  0  0  0  0
   26.9090  -20.9670  -16.7084 C   0  0  0  0  0  0  0  0  0  0  0  0
   27.8208  -20.5274  -17.7595 C   0  0  0  0  0  0  0  0  0  0  0  0
   28.1338  -21.3330  -18.6698 O   0  0  0  0  0  0  0  0  0  0  0  0
   26.7035  -21.5519  -14.3494 C   0  0  0  0  0  0  0  0  0  0  0  0
   26.0871  -22.6528  -14.1928 O   0  0  0  0  0  0  0  0  0  0  0  0
   28.3461  -19.2370  -17.7681 O   0  0  0  0  0  0  0  0  0  0  0  0
   26.4148  -20.5663  -13.3851 N   0  0  0  0  0  0  0  0  0  0  0  0
   25.5300  -20.8526  -12.2440 C   0  0  1  0  0  0  0  0  0  0  0  0
   25.8817  -19.8609  -11.1645 C   0  0  0  0  0  0  0  0  0  0  0  0
   26.7898  -20.3682  -10.1417 C   0  0  0  0  0  0  0  0  0  0  0  0
   26.4249  -20.1726   -8.8075 C   0  0  0  0  0  0  0  0  0  0  0  0
   27.2156  -20.6148   -7.7647 C   0  0  0  0  0  0  0  0  0  0  0  0
   28.4018  -21.2696   -8.0127 C   0  0  0  0  0  0  0  0  0  0  0  0
   28.7678  -21.4657   -9.3235 C   0  0  0  0  0  0  0  0  0  0  0  0
   27.9658  -21.0175  -10.3500 C   0  0  0  0  0  0  0  0  0  0  0  0
   24.1611  -20.5404  -12.6723 C   0  0  0  0  0  0  0  0  0  0  0  0
   23.6836  -19.4064  -12.8556 O   0  0  0  0  0  0  0  0  0  0  0  0
   21.4994  -22.7843  -13.9383 C   0  0  0  0  0  0  0  0  0  0  0  0
   21.9737  -21.4575  -13.3518 C   0  0  2  0  0  0  0  0  0  0  0  0
   23.3131  -21.6831  -12.8937 N   0  0  0  0  0  0  0  0  0  0  0  0
   21.0463  -21.0969  -12.2749 C   0  0  0  0  0  0  0  0  0  0  0  0
   21.4142  -21.0925  -10.9423 O   0  0  0  0  0  0  0  0  0  0  0  0
   19.8693  -20.7774  -12.5592 O   0  0  0  0  0  0  0  0  0  0  0  0
  2  3  1  0
  2  1  1  6
  3  4  1  0
  4  8  1  0
  4  5  2  0
  6  2  1  0
  7  6  2  0
  9  6  1  0
 10  9  1  0
 10 11  1  1
 11 12  1  0
 12 13  2  0
 13 14  1  0
 15 14  2  0
 16 15  1  0
 17 12  1  0
 17 16  2  0
 18 22  1  0
 18 10  1  0
 19 18  2  0
 21 20  1  1
 21 23  1  0
 21 22  1  0
 23 24  1  0
 25 23  2  0
M  END
$$$$
