DFA.pdb
     RDKit          3D

 25 25  0  0  1  0  0  0  0  0999 V2000
   22.2428  -11.1411  -18.2396 N   0  0  0  0  0  0  0  0  0  0  0  0
   21.6390   -9.8492  -18.6328 C   0  0  1  0  0  0  0  0  0  0  0  0
   20.2948  -10.1385  -19.2418 C   0  0  0  0  0  0  0  0  0  0  0  0
   20.3936  -10.7357  -20.5695 C   0  0  0  0  0  0  0  0  0  0  0  0
   21.5293  -10.9937  -21.0378 O   0  0  0  0  0  0  0  0  0  0  0  0
   21.5165   -8.9742  -17.4809 C   0  0  0  0  0  0  0  0  0  0  0  0
   20.8148   -9.3413  -16.4863 O   0  0  0  0  0  0  0  0  0  0  0  0
   19.2555  -11.0214  -21.3206 O   0  0  0  0  0  0  0  0  0  0  0  0
   22.1261   -7.7115  -17.3448 N   0  0  0  0  0  0  0  0  0  0  0  0
   21.9829   -6.9253  -16.1086 C   0  0  1  0  0  0  0  0  0  0  0  0
   23.3777   -6.5947  -15.6420 C   0  0  0  0  0  0  0  0  0  0  0  0
   24.2422   -7.7513  -15.4342 C   0  0  0  0  0  0  0  0  0  0  0  0
   23.8791   -8.6495  -14.4277 C   0  0  0  0  0  0  0  0  0  0  0  0
   24.6305   -9.7752  -14.1516 C   0  0  0  0  0  0  0  0  0  0  0  0
   25.7739  -10.0487  -14.8693 C   0  0  0  0  0  0  0  0  0  0  0  0
   26.1378   -9.1692  -15.8615 C   0  0  0  0  0  0  0  0  0  0  0  0
   25.3755   -8.0518  -16.1222 C   0  0  0  0  0  0  0  0  0  0  0  0
   21.3506   -5.6532  -16.4788 C   0  0  0  0  0  0  0  0  0  0  0  0
   21.6325   -4.9455  -17.4623 O   0  0  0  0  0  0  0  0  0  0  0  0
   18.3308   -4.0167  -15.0682 C   0  0  0  0  0  0  0  0  0  0  0  0
   19.5870   -4.0158  -15.9350 C   0  0  2  0  0  0  0  0  0  0  0  0
   20.3040   -5.2095  -15.5948 N   0  0  0  0  0  0  0  0  0  0  0  0
   20.3290   -2.7881  -15.6316 C   0  0  0  0  0  0  0  0  0  0  0  0
   20.1238   -1.6032  -16.3134 O   0  0  0  0  0  0  0  0  0  0  0  0
   21.1871   -2.7986  -14.7195 O   0  0  0  0  0  0  0  0  0  0  0  0
  2  3  1  0
  2  1  1  1
  3  4  1  0
  4  8  1  0
  4  5  2  0
  6  2  1  0
  7  6  2  0
  9  6  1  0
 10  9  1  0
 10 11  1  6
 11 12  1  0
 12 13  2  0
 13 14  1  0
 15 14  2  0
 16 15  1  0
 17 12  1  0
 17 16  2  0
 18 22  1  0
 18 10  1  0
 19 18  2  0
 21 20  1  1
 21 23  1  0
 21 22  1  0
 23 24  1  0
 25 23  2  0
M  END
$$$$
