IAP.pdb
     RDKit          3D

 21 21  0  0  1  0  0  0  0  0999 V2000
    6.2258  -10.1851   25.4077 C   0  0  0  0  0  0  0  0  0  0  0  0
    5.5683  -11.5356   25.1787 C   0  0  0  0  0  0  0  0  0  0  0  0
    6.6087  -12.6006   25.4399 C   0  0  2  0  0  0  0  0  0  0  0  0
    7.7401  -12.5026   24.4376 C   0  0  0  0  0  0  0  0  0  0  0  0
    6.0423  -13.9683   25.5433 C   0  0  2  0  0  0  0  0  0  0  0  0
    4.7701  -13.9290   26.2645 N   0  0  0  0  0  0  0  0  0  0  0  0
    6.9296  -15.0142   26.0591 C   0  0  0  0  0  0  0  0  0  0  0  0
    7.2568  -15.0221   27.2609 O   0  0  0  0  0  0  0  0  0  0  0  0
    8.4340  -18.1344   24.7628 C   0  0  0  0  0  0  0  0  0  0  0  0
    8.3709  -16.9933   25.7640 C   0  0  2  0  0  0  0  0  0  0  0  0
    7.4368  -16.0366   25.2172 N   0  0  0  0  0  0  0  0  0  0  0  0
    9.7045  -16.3875   25.9802 C   0  0  0  0  0  0  0  0  0  0  0  0
   10.2132  -15.6861   25.0783 O   0  0  0  0  0  0  0  0  0  0  0  0
   10.4239  -16.5813   27.1859 N   0  0  0  0  0  0  0  0  0  0  0  0
   10.0091  -17.3375   28.3465 C   0  0  0  0  0  0  0  0  0  0  0  0
   10.4083  -16.3975   29.4786 C   0  0  0  0  0  0  0  0  0  0  0  0
   11.5699  -15.5964   28.9350 C   0  0  0  0  0  0  0  0  0  0  0  0
   11.7302  -16.0596   27.5074 C   0  0  1  0  0  0  0  0  0  0  0  0
   12.7275  -17.1424   27.4590 C   0  0  0  0  0  0  0  0  0  0  0  0
   12.4709  -18.3659   27.4179 O   0  0  0  0  0  0  0  0  0  0  0  0
   14.1007  -16.8246   27.4569 O   0  0  0  0  0  0  0  0  0  0  0  0
  2  1  1  0
  3  4  1  6
  3  2  1  0
  5  7  1  0
  5  3  1  0
  5  6  1  1
  7 11  1  0
  8  7  2  0
 10  9  1  6
 10 12  1  0
 11 10  1  0
 12 13  2  0
 12 14  1  0
 14 18  1  0
 14 15  1  0
 15 16  1  0
 17 16  1  0
 18 17  1  0
 19 21  1  0
 18 19  1  1
 20 19  2  0
M  END
$$$$
