IAP.pdb
     RDKit          3D

 21 21  0  0  1  0  0  0  0  0999 V2000
    6.7676  -22.5859   22.2669 C   0  0  0  0  0  0  0  0  0  0  0  0
    5.9424  -21.5649   23.0323 C   0  0  0  0  0  0  0  0  0  0  0  0
    6.2712  -20.1997   22.4728 C   0  0  2  0  0  0  0  0  0  0  0  0
    7.7656  -19.9541   22.5008 C   0  0  0  0  0  0  0  0  0  0  0  0
    5.4912  -19.1017   23.0957 C   0  0  2  0  0  0  0  0  0  0  0  0
    4.0589  -19.3574   22.9433 N   0  0  0  0  0  0  0  0  0  0  0  0
    5.8458  -17.7346   22.7051 C   0  0  0  0  0  0  0  0  0  0  0  0
    5.5710  -17.3175   21.5641 O   0  0  0  0  0  0  0  0  0  0  0  0
    7.4220  -14.8041   24.3450 C   0  0  0  0  0  0  0  0  0  0  0  0
    6.9471  -15.5675   23.1203 C   0  0  2  0  0  0  0  0  0  0  0  0
    6.5042  -16.8553   23.6023 N   0  0  0  0  0  0  0  0  0  0  0  0
    8.0257  -15.7053   22.1155 C   0  0  0  0  0  0  0  0  0  0  0  0
    8.5459  -16.8264   21.9238 O   0  0  0  0  0  0  0  0  0  0  0  0
    8.4872  -14.5975   21.3615 N   0  0  0  0  0  0  0  0  0  0  0  0
    8.1411  -13.2051   21.5410 C   0  0  0  0  0  0  0  0  0  0  0  0
    7.9103  -12.7625   20.1004 C   0  0  0  0  0  0  0  0  0  0  0  0
    8.7817  -13.6722   19.2640 C   0  0  0  0  0  0  0  0  0  0  0  0
    9.4058  -14.6303   20.2493 C   0  0  1  0  0  0  0  0  0  0  0  0
   10.7176  -14.1075   20.6679 C   0  0  0  0  0  0  0  0  0  0  0  0
   10.9436  -13.4671   21.7183 O   0  0  0  0  0  0  0  0  0  0  0  0
   11.8454  -14.3208   19.8497 O   0  0  0  0  0  0  0  0  0  0  0  0
  2  1  1  0
  3  4  1  1
  3  2  1  0
  5  7  1  0
  5  3  1  0
  5  6  1  6
  7 11  1  0
  8  7  2  0
 10  9  1  1
 10 12  1  0
 11 10  1  0
 12 13  2  0
 12 14  1  0
 14 18  1  0
 14 15  1  0
 15 16  1  0
 17 16  1  0
 18 17  1  0
 19 21  1  0
 18 19  1  1
 20 19  2  0
M  END
$$$$
