IAP.pdb
     RDKit          3D

 21 21  0  0  1  0  0  0  0  0999 V2000
    8.2574  -12.6503   17.9096 C   0  0  0  0  0  0  0  0  0  0  0  0
    8.4701  -14.0555   18.4471 C   0  0  0  0  0  0  0  0  0  0  0  0
    7.7887  -14.1376   19.7939 C   0  0  2  0  0  0  0  0  0  0  0  0
    8.3020  -13.0560   20.7217 C   0  0  0  0  0  0  0  0  0  0  0  0
    7.8362  -15.4916   20.3993 C   0  0  2  0  0  0  0  0  0  0  0  0
    7.2801  -16.4746   19.4694 N   0  0  0  0  0  0  0  0  0  0  0  0
    7.2736  -15.6345   21.7448 C   0  0  0  0  0  0  0  0  0  0  0  0
    6.0405  -15.5940   21.9162 O   0  0  0  0  0  0  0  0  0  0  0  0
    7.1464  -17.0434   24.6646 C   0  0  0  0  0  0  0  0  0  0  0  0
    7.5371  -15.6518   24.1966 C   0  0  2  0  0  0  0  0  0  0  0  0
    8.1045  -15.8208   22.8790 N   0  0  0  0  0  0  0  0  0  0  0  0
    8.5004  -15.0180   25.1255 C   0  0  0  0  0  0  0  0  0  0  0  0
    9.7237  -15.0717   24.8713 O   0  0  0  0  0  0  0  0  0  0  0  0
    8.0729  -14.3495   26.2998 N   0  0  0  0  0  0  0  0  0  0  0  0
    6.7245  -14.2442   26.8114 C   0  0  0  0  0  0  0  0  0  0  0  0
    6.6634  -12.7720   27.2027 C   0  0  0  0  0  0  0  0  0  0  0  0
    8.0904  -12.3904   27.5262 C   0  0  0  0  0  0  0  0  0  0  0  0
    8.9019  -13.6295   27.2359 C   0  0  1  0  0  0  0  0  0  0  0  0
    9.0522  -14.4108   28.4754 C   0  0  0  0  0  0  0  0  0  0  0  0
    8.3675  -15.4079   28.7939 O   0  0  0  0  0  0  0  0  0  0  0  0
   10.0372  -14.0439   29.4145 O   0  0  0  0  0  0  0  0  0  0  0  0
  2  1  1  0
  3  4  1  1
  3  2  1  0
  5  7  1  0
  5  3  1  0
  5  6  1  6
  7 11  1  0
  8  7  2  0
 10  9  1  1
 10 12  1  0
 11 10  1  0
 12 13  2  0
 12 14  1  0
 14 18  1  0
 14 15  1  0
 15 16  1  0
 17 16  1  0
 18 17  1  0
 19 21  1  0
 18 19  1  1
 20 19  2  0
M  END
$$$$
