IAP.pdb
     RDKit          3D

 21 21  0  0  1  0  0  0  0  0999 V2000
    8.0348  -12.3630   18.0663 C   0  0  0  0  0  0  0  0  0  0  0  0
    8.2308  -13.7928   18.5419 C   0  0  0  0  0  0  0  0  0  0  0  0
    7.6173  -13.9044   19.9188 C   0  0  2  0  0  0  0  0  0  0  0  0
    8.2199  -12.8814   20.8593 C   0  0  0  0  0  0  0  0  0  0  0  0
    7.6428  -15.2829   20.4678 C   0  0  2  0  0  0  0  0  0  0  0  0
    7.0436  -16.2131   19.5107 N   0  0  0  0  0  0  0  0  0  0  0  0
    7.1039  -15.4670   21.8180 C   0  0  0  0  0  0  0  0  0  0  0  0
    5.8927  -15.2795   22.0404 O   0  0  0  0  0  0  0  0  0  0  0  0
    7.0520  -17.0819   24.7241 C   0  0  0  0  0  0  0  0  0  0  0  0
    7.4471  -15.6937   24.2494 C   0  0  2  0  0  0  0  0  0  0  0  0
    7.9335  -15.8592   22.8993 N   0  0  0  0  0  0  0  0  0  0  0  0
    8.4766  -15.0931   25.1278 C   0  0  0  0  0  0  0  0  0  0  0  0
    9.6800  -15.1535   24.7926 O   0  0  0  0  0  0  0  0  0  0  0  0
    8.1350  -14.4488   26.3431 N   0  0  0  0  0  0  0  0  0  0  0  0
    6.8233  -14.3365   26.9413 C   0  0  0  0  0  0  0  0  0  0  0  0
    6.8116  -12.8742   27.3724 C   0  0  0  0  0  0  0  0  0  0  0  0
    8.2622  -12.5227   27.6144 C   0  0  0  0  0  0  0  0  0  0  0  0
    9.0331  -13.7660   27.2425 C   0  0  1  0  0  0  0  0  0  0  0  0
    9.2479  -14.5814   28.4502 C   0  0  0  0  0  0  0  0  0  0  0  0
    8.5905  -15.5969   28.7682 O   0  0  0  0  0  0  0  0  0  0  0  0
   10.2687  -14.2286   29.3559 O   0  0  0  0  0  0  0  0  0  0  0  0
  2  1  1  0
  3  4  1  1
  3  2  1  0
  5  7  1  0
  5  3  1  0
  5  6  1  6
  7 11  1  0
  8  7  2  0
 10  9  1  1
 10 12  1  0
 11 10  1  0
 12 13  2  0
 12 14  1  0
 14 18  1  0
 14 15  1  0
 15 16  1  0
 17 16  1  0
 18 17  1  0
 19 21  1  0
 18 19  1  1
 20 19  2  0
M  END
$$$$
