IAP.pdb
     RDKit          3D

 21 21  0  0  1  0  0  0  0  0999 V2000
   11.6363  -18.2475   26.7258 C   0  0  0  0  0  0  0  0  0  0  0  0
   11.7341  -17.4960   25.4088 C   0  0  0  0  0  0  0  0  0  0  0  0
   10.7390  -18.1153   24.4543 C   0  0  2  0  0  0  0  0  0  0  0  0
   11.0443  -19.5831   24.2388 C   0  0  0  0  0  0  0  0  0  0  0  0
   10.5890  -17.3616   23.1848 C   0  0  2  0  0  0  0  0  0  0  0  0
   11.8579  -17.3515   22.4568 N   0  0  0  0  0  0  0  0  0  0  0  0
   10.0020  -16.0221   23.2765 C   0  0  0  0  0  0  0  0  0  0  0  0
   10.6560  -15.0836   23.7694 O   0  0  0  0  0  0  0  0  0  0  0  0
    6.8853  -14.3622   22.1741 C   0  0  0  0  0  0  0  0  0  0  0  0
    8.1018  -14.4628   23.0788 C   0  0  2  0  0  0  0  0  0  0  0  0
    8.6883  -15.7559   22.8130 N   0  0  0  0  0  0  0  0  0  0  0  0
    7.7304  -14.3177   24.5047 C   0  0  0  0  0  0  0  0  0  0  0  0
    7.8907  -15.2844   25.2818 O   0  0  0  0  0  0  0  0  0  0  0  0
    7.1960  -13.1086   25.0157 N   0  0  0  0  0  0  0  0  0  0  0  0
    6.8882  -11.9021   24.2805 C   0  0  0  0  0  0  0  0  0  0  0  0
    7.4493  -10.8307   25.2086 C   0  0  0  0  0  0  0  0  0  0  0  0
    7.3724  -11.4299   26.5948 C   0  0  0  0  0  0  0  0  0  0  0  0
    6.8455  -12.8290   26.3872 C   0  0  1  0  0  0  0  0  0  0  0  0
    5.3804  -12.8217   26.5380 C   0  0  0  0  0  0  0  0  0  0  0  0
    4.5531  -12.8053   25.6001 O   0  0  0  0  0  0  0  0  0  0  0  0
    4.8133  -12.8336   27.8283 O   0  0  0  0  0  0  0  0  0  0  0  0
  2  1  1  0
  3  4  1  6
  3  2  1  0
  5  7  1  0
  5  3  1  0
  5  6  1  1
  7 11  1  0
  8  7  2  0
 10  9  1  6
 10 12  1  0
 11 10  1  0
 12 13  2  0
 12 14  1  0
 14 18  1  0
 14 15  1  0
 15 16  1  0
 17 16  1  0
 18 17  1  0
 19 21  1  0
 18 19  1  6
 20 19  2  0
M  END
$$$$
