IAP.pdb
     RDKit          3D

 21 21  0  0  1  0  0  0  0  0999 V2000
    8.3413  -11.9502   27.5050 C   0  0  0  0  0  0  0  0  0  0  0  0
    7.7333  -13.2959   27.1469 C   0  0  0  0  0  0  0  0  0  0  0  0
    6.7054  -13.0594   26.0641 C   0  0  2  0  0  0  0  0  0  0  0  0
    5.6438  -12.0872   26.5352 C   0  0  0  0  0  0  0  0  0  0  0  0
    6.1382  -14.3107   25.5033 C   0  0  2  0  0  0  0  0  0  0  0  0
    5.6616  -15.1722   26.5854 N   0  0  0  0  0  0  0  0  0  0  0  0
    6.9726  -15.0453   24.5486 C   0  0  0  0  0  0  0  0  0  0  0  0
    7.5906  -16.0643   24.9108 O   0  0  0  0  0  0  0  0  0  0  0  0
    7.9322  -14.6487   20.9845 C   0  0  0  0  0  0  0  0  0  0  0  0
    7.8878  -15.4242   22.2903 C   0  0  2  0  0  0  0  0  0  0  0  0
    7.1008  -14.6246   23.2003 N   0  0  0  0  0  0  0  0  0  0  0  0
    9.2479  -15.6706   22.8209 C   0  0  0  0  0  0  0  0  0  0  0  0
    9.6861  -14.9495   23.7440 O   0  0  0  0  0  0  0  0  0  0  0  0
   10.0705  -16.7054   22.3098 N   0  0  0  0  0  0  0  0  0  0  0  0
    9.7378  -17.6690   21.2843 C   0  0  0  0  0  0  0  0  0  0  0  0
   10.2816  -18.9573   21.8918 C   0  0  0  0  0  0  0  0  0  0  0  0
   11.4179  -18.5212   22.7892 C   0  0  0  0  0  0  0  0  0  0  0  0
   11.4219  -17.0139   22.7105 C   0  0  1  0  0  0  0  0  0  0  0  0
   12.3646  -16.5865   21.6626 C   0  0  0  0  0  0  0  0  0  0  0  0
   12.1423  -16.6079   20.4320 O   0  0  0  0  0  0  0  0  0  0  0  0
   13.6384  -16.1048   22.0265 O   0  0  0  0  0  0  0  0  0  0  0  0
  2  1  1  0
  3  4  1  1
  3  2  1  0
  5  7  1  0
  5  3  1  0
  5  6  1  1
  7 11  1  0
  8  7  2  0
 10  9  1  6
 10 12  1  0
 11 10  1  0
 12 13  2  0
 12 14  1  0
 14 18  1  0
 14 15  1  0
 15 16  1  0
 17 16  1  0
 18 17  1  0
 19 21  1  0
 18 19  1  6
 20 19  2  0
M  END
$$$$
