IAP.pdb
     RDKit          3D

 21 21  0  0  1  0  0  0  0  0999 V2000
    8.3889  -12.5629   18.1498 C   0  0  0  0  0  0  0  0  0  0  0  0
    8.3774  -14.0155   18.5954 C   0  0  0  0  0  0  0  0  0  0  0  0
    7.8744  -14.0524   20.0203 C   0  0  2  0  0  0  0  0  0  0  0  0
    8.7025  -13.1440   20.9053 C   0  0  0  0  0  0  0  0  0  0  0  0
    7.7392  -15.4263   20.5646 C   0  0  2  0  0  0  0  0  0  0  0  0
    7.0368  -16.2774   19.6041 N   0  0  0  0  0  0  0  0  0  0  0  0
    7.1815  -15.5512   21.9139 C   0  0  0  0  0  0  0  0  0  0  0  0
    6.0402  -15.1188   22.1629 O   0  0  0  0  0  0  0  0  0  0  0  0
    7.1353  -17.3278   24.8702 C   0  0  0  0  0  0  0  0  0  0  0  0
    7.4849  -15.9522   24.3281 C   0  0  2  0  0  0  0  0  0  0  0  0
    7.9141  -16.1602   22.9646 N   0  0  0  0  0  0  0  0  0  0  0  0
    8.5415  -15.3031   25.1371 C   0  0  0  0  0  0  0  0  0  0  0  0
    9.7252  -15.3288   24.7343 O   0  0  0  0  0  0  0  0  0  0  0  0
    8.2476  -14.6507   26.3605 N   0  0  0  0  0  0  0  0  0  0  0  0
    6.9666  -14.5626   27.0255 C   0  0  0  0  0  0  0  0  0  0  0  0
    6.9402  -13.0952   27.4381 C   0  0  0  0  0  0  0  0  0  0  0  0
    8.3921  -12.7044   27.5989 C   0  0  0  0  0  0  0  0  0  0  0  0
    9.1738  -13.9333   27.2027 C   0  0  1  0  0  0  0  0  0  0  0  0
    9.4724  -14.7262   28.4075 C   0  0  0  0  0  0  0  0  0  0  0  0
    8.8653  -15.7589   28.7671 O   0  0  0  0  0  0  0  0  0  0  0  0
   10.5220  -14.3287   29.2601 O   0  0  0  0  0  0  0  0  0  0  0  0
  2  1  1  0
  3  4  1  1
  3  2  1  0
  5  7  1  0
  5  3  1  0
  5  6  1  6
  7 11  1  0
  8  7  2  0
 10  9  1  1
 10 12  1  0
 11 10  1  0
 12 13  2  0
 12 14  1  0
 14 18  1  0
 14 15  1  0
 15 16  1  0
 17 16  1  0
 18 17  1  0
 19 21  1  0
 18 19  1  1
 20 19  2  0
M  END
$$$$
