IAP.pdb
     RDKit          3D

 21 21  0  0  1  0  0  0  0  0999 V2000
    8.2926  -12.0586   19.4379 C   0  0  0  0  0  0  0  0  0  0  0  0
    7.4963  -13.2930   19.8263 C   0  0  0  0  0  0  0  0  0  0  0  0
    8.4738  -14.4341   19.9913 C   0  0  2  0  0  0  0  0  0  0  0  0
    9.2703  -14.6463   18.7206 C   0  0  0  0  0  0  0  0  0  0  0  0
    7.8480  -15.6804   20.4985 C   0  0  2  0  0  0  0  0  0  0  0  0
    6.9457  -16.2334   19.4884 N   0  0  0  0  0  0  0  0  0  0  0  0
    7.2139  -15.6125   21.8178 C   0  0  0  0  0  0  0  0  0  0  0  0
    6.0983  -15.0744   21.9501 O   0  0  0  0  0  0  0  0  0  0  0  0
    6.9229  -17.1778   24.8937 C   0  0  0  0  0  0  0  0  0  0  0  0
    7.2963  -15.8428   24.2716 C   0  0  2  0  0  0  0  0  0  0  0  0
    7.8422  -16.1503   22.9700 N   0  0  0  0  0  0  0  0  0  0  0  0
    8.2710  -15.1081   25.1096 C   0  0  0  0  0  0  0  0  0  0  0  0
    9.4716  -15.0680   24.7617 O   0  0  0  0  0  0  0  0  0  0  0  0
    7.8797  -14.4460   26.3000 N   0  0  0  0  0  0  0  0  0  0  0  0
    6.5948  -14.5083   26.9603 C   0  0  0  0  0  0  0  0  0  0  0  0
    6.3584  -13.0413   27.3014 C   0  0  0  0  0  0  0  0  0  0  0  0
    7.7394  -12.4418   27.4429 C   0  0  0  0  0  0  0  0  0  0  0  0
    8.6896  -13.5652   27.1064 C   0  0  1  0  0  0  0  0  0  0  0  0
    9.0891  -14.2493   28.3481 C   0  0  0  0  0  0  0  0  0  0  0  0
    9.8680  -13.7907   29.2126 O   0  0  0  0  0  0  0  0  0  0  0  0
    8.5775  -15.5317   28.6320 O   0  0  0  0  0  0  0  0  0  0  0  0
  2  1  1  0
  3  4  1  6
  3  2  1  0
  5  7  1  0
  5  3  1  0
  5  6  1  6
  7 11  1  0
  8  7  2  0
 10  9  1  1
 10 12  1  0
 11 10  1  0
 12 13  2  0
 12 14  1  0
 14 18  1  0
 14 15  1  0
 15 16  1  0
 17 16  1  0
 18 17  1  0
 19 21  1  0
 18 19  1  1
 20 19  2  0
M  END
$$$$
