IAP.pdb
     RDKit          3D

 21 21  0  0  1  0  0  0  0  0999 V2000
    7.9661  -12.3566   18.2212 C   0  0  0  0  0  0  0  0  0  0  0  0
    8.0682  -13.8082   18.6586 C   0  0  0  0  0  0  0  0  0  0  0  0
    7.5996  -13.8871   20.0935 C   0  0  2  0  0  0  0  0  0  0  0  0
    8.4368  -12.9901   20.9815 C   0  0  0  0  0  0  0  0  0  0  0  0
    7.4946  -15.2758   20.6060 C   0  0  2  0  0  0  0  0  0  0  0  0
    6.7518  -16.1042   19.6562 N   0  0  0  0  0  0  0  0  0  0  0  0
    7.0000  -15.4396   21.9757 C   0  0  0  0  0  0  0  0  0  0  0  0
    5.8372  -15.1011   22.2669 O   0  0  0  0  0  0  0  0  0  0  0  0
    7.0897  -17.2232   24.8771 C   0  0  0  0  0  0  0  0  0  0  0  0
    7.4122  -15.8255   24.3762 C   0  0  2  0  0  0  0  0  0  0  0  0
    7.8191  -15.9815   22.9989 N   0  0  0  0  0  0  0  0  0  0  0  0
    8.4752  -15.1906   25.1880 C   0  0  0  0  0  0  0  0  0  0  0  0
    9.6617  -15.2458   24.7962 O   0  0  0  0  0  0  0  0  0  0  0  0
    8.1846  -14.5193   26.4018 N   0  0  0  0  0  0  0  0  0  0  0  0
    6.8936  -14.3635   27.0343 C   0  0  0  0  0  0  0  0  0  0  0  0
    6.9316  -12.8950   27.4421 C   0  0  0  0  0  0  0  0  0  0  0  0
    8.3970  -12.5779   27.6382 C   0  0  0  0  0  0  0  0  0  0  0  0
    9.1249  -13.8465   27.2651 C   0  0  1  0  0  0  0  0  0  0  0  0
    9.3524  -14.6488   28.4791 C   0  0  0  0  0  0  0  0  0  0  0  0
   10.1960  -14.3990   29.3681 O   0  0  0  0  0  0  0  0  0  0  0  0
    8.5794  -15.8058   28.7040 O   0  0  0  0  0  0  0  0  0  0  0  0
  2  1  1  0
  3  4  1  1
  3  2  1  0
  5  7  1  0
  5  3  1  0
  5  6  1  6
  7 11  1  0
  8  7  2  0
 10  9  1  1
 10 12  1  0
 11 10  1  0
 12 13  2  0
 12 14  1  0
 14 18  1  0
 14 15  1  0
 15 16  1  0
 17 16  1  0
 18 17  1  0
 19 21  1  0
 18 19  1  1
 20 19  2  0
M  END
$$$$
