IAP.pdb
     RDKit          3D

 21 21  0  0  1  0  0  0  0  0999 V2000
    7.9052  -12.0752   19.2766 C   0  0  0  0  0  0  0  0  0  0  0  0
    7.2482  -13.3709   19.7223 C   0  0  0  0  0  0  0  0  0  0  0  0
    8.3429  -14.3952   19.9158 C   0  0  2  0  0  0  0  0  0  0  0  0
    9.1200  -14.5991   18.6318 C   0  0  0  0  0  0  0  0  0  0  0  0
    7.8643  -15.6669   20.5122 C   0  0  2  0  0  0  0  0  0  0  0  0
    6.9812  -16.3583   19.5728 N   0  0  0  0  0  0  0  0  0  0  0  0
    7.2800  -15.5894   21.8538 C   0  0  0  0  0  0  0  0  0  0  0  0
    6.1398  -15.1143   22.0145 O   0  0  0  0  0  0  0  0  0  0  0  0
    6.9832  -17.0245   24.9046 C   0  0  0  0  0  0  0  0  0  0  0  0
    7.4788  -15.7178   24.3085 C   0  0  2  0  0  0  0  0  0  0  0  0
    7.9851  -16.0469   22.9962 N   0  0  0  0  0  0  0  0  0  0  0  0
    8.5242  -15.0982   25.1543 C   0  0  0  0  0  0  0  0  0  0  0  0
    9.7271  -15.2316   24.8390 O   0  0  0  0  0  0  0  0  0  0  0  0
    8.1984  -14.3550   26.3162 N   0  0  0  0  0  0  0  0  0  0  0  0
    6.8797  -14.0479   26.8237 C   0  0  0  0  0  0  0  0  0  0  0  0
    7.0314  -12.5757   27.1896 C   0  0  0  0  0  0  0  0  0  0  0  0
    8.4988  -12.3979   27.5088 C   0  0  0  0  0  0  0  0  0  0  0  0
    9.1232  -13.7457   27.2411 C   0  0  1  0  0  0  0  0  0  0  0  0
    9.1606  -14.5191   28.4941 C   0  0  0  0  0  0  0  0  0  0  0  0
    8.3531  -15.4176   28.8183 O   0  0  0  0  0  0  0  0  0  0  0  0
   10.1730  -14.2624   29.4407 O   0  0  0  0  0  0  0  0  0  0  0  0
  2  1  1  0
  3  4  1  6
  3  2  1  0
  5  7  1  0
  5  3  1  0
  5  6  1  6
  7 11  1  0
  8  7  2  0
 10  9  1  1
 10 12  1  0
 11 10  1  0
 12 13  2  0
 12 14  1  0
 14 18  1  0
 14 15  1  0
 15 16  1  0
 17 16  1  0
 18 17  1  0
 19 21  1  0
 18 19  1  1
 20 19  2  0
M  END
$$$$
