YDG.pdb
     RDKit          3D

 25 25  0  0  1  0  0  0  0  0999 V2000
    5.5905  -10.6162   27.7875 O   0  0  0  0  0  0  0  0  0  0  0  0
    6.2947  -11.6158   27.1257 C   0  0  0  0  0  0  0  0  0  0  0  0
    5.6227  -12.6826   26.5686 C   0  0  0  0  0  0  0  0  0  0  0  0
    6.2700  -13.7023   25.9010 C   0  0  0  0  0  0  0  0  0  0  0  0
    7.6485  -13.6641   25.7791 C   0  0  0  0  0  0  0  0  0  0  0  0
    8.3852  -14.7192   25.0846 C   0  0  0  0  0  0  0  0  0  0  0  0
    7.5157  -15.8218   24.5340 C   0  0  2  0  0  0  0  0  0  0  0  0
    7.0439  -16.7119   25.5747 N   0  0  0  0  0  0  0  0  0  0  0  0
    8.3967  -16.6232   23.6286 C   0  0  0  0  0  0  0  0  0  0  0  0
    8.6626  -17.7954   23.9510 O   0  0  0  0  0  0  0  0  0  0  0  0
    8.3549  -12.6163   26.3214 C   0  0  0  0  0  0  0  0  0  0  0  0
    7.6673  -11.6057   26.9879 C   0  0  0  0  0  0  0  0  0  0  0  0
    8.9267  -16.0911   22.4336 N   0  0  0  0  0  0  0  0  0  0  0  0
    9.7732  -16.9723   21.6131 C   0  0  1  0  0  0  0  0  0  0  0  0
    9.4714  -16.5330   20.1858 C   0  0  0  0  0  0  0  0  0  0  0  0
    8.1441  -17.0220   19.7937 C   0  0  0  0  0  0  0  0  0  0  0  0
    7.7888  -18.1644   20.2575 O   0  0  0  0  0  0  0  0  0  0  0  0
   11.1842  -16.8032   21.9442 C   0  0  0  0  0  0  0  0  0  0  0  0
   12.1311  -17.3243   21.2882 O   0  0  0  0  0  0  0  0  0  0  0  0
    7.3060  -16.2890   18.9604 O   0  0  0  0  0  0  0  0  0  0  0  0
   11.5658  -16.0111   23.0595 N   0  0  0  0  0  0  0  0  0  0  0  0
   12.9722  -15.8106   23.4058 C   0  0  0  0  0  0  0  0  0  0  0  0
   13.4580  -16.8843   24.2761 C   0  0  0  0  0  0  0  0  0  0  0  0
   14.5853  -16.7948   24.8178 O   0  0  0  0  0  0  0  0  0  0  0  0
   12.6847  -18.0102   24.5134 O   0  0  0  0  0  0  0  0  0  0  0  0
  2  1  1  0
  3  2  2  0
  4  5  2  0
  4  3  1  0
  5 11  1  0
  6  5  1  0
  7  6  1  0
  7  8  1  1
  9  7  1  0
  9 10  2  0
 11 12  2  0
 12  2  1  0
 13  9  1  0
 14 13  1  0
 14 15  1  6
 16 15  1  0
 16 17  2  0
 18 14  1  0
 19 18  2  0
 20 16  1  0
 21 18  1  0
 22 21  1  0
 23 22  1  0
 24 23  2  0
 25 23  1  0
M  END
$$$$
