YDG.pdb
     RDKit          3D

 25 25  0  0  1  0  0  0  0  0999 V2000
    8.1388  -12.7123   23.0105 O   0  0  0  0  0  0  0  0  0  0  0  0
    8.0664  -13.0676   21.6683 C   0  0  0  0  0  0  0  0  0  0  0  0
    8.0096  -14.3966   21.3066 C   0  0  0  0  0  0  0  0  0  0  0  0
    7.9368  -14.8065   19.9909 C   0  0  0  0  0  0  0  0  0  0  0  0
    7.9195  -13.8554   18.9850 C   0  0  0  0  0  0  0  0  0  0  0  0
    7.8462  -14.2340   17.5745 C   0  0  0  0  0  0  0  0  0  0  0  0
    9.1566  -14.1252   16.8355 C   0  0  2  0  0  0  0  0  0  0  0  0
    9.0759  -14.6850   15.5022 N   0  0  0  0  0  0  0  0  0  0  0  0
   10.1317  -14.9558   17.6087 C   0  0  0  0  0  0  0  0  0  0  0  0
   10.3758  -16.1071   17.2044 O   0  0  0  0  0  0  0  0  0  0  0  0
    7.9747  -12.5192   19.3054 C   0  0  0  0  0  0  0  0  0  0  0  0
    8.0474  -12.1437   20.6441 C   0  0  0  0  0  0  0  0  0  0  0  0
   10.7737  -14.4732   18.7693 N   0  0  0  0  0  0  0  0  0  0  0  0
   11.9895  -15.1729   19.2149 C   0  0  1  0  0  0  0  0  0  0  0  0
   13.1079  -14.4658   18.4597 C   0  0  0  0  0  0  0  0  0  0  0  0
   14.0408  -15.4627   17.9207 C   0  0  0  0  0  0  0  0  0  0  0  0
   15.1310  -15.0179   17.4108 O   0  0  0  0  0  0  0  0  0  0  0  0
   12.1593  -15.0634   20.6600 C   0  0  0  0  0  0  0  0  0  0  0  0
   12.4711  -13.9927   21.2556 O   0  0  0  0  0  0  0  0  0  0  0  0
   13.7642  -16.8251   17.9570 O   0  0  0  0  0  0  0  0  0  0  0  0
   11.9693  -16.2007   21.4892 N   0  0  0  0  0  0  0  0  0  0  0  0
   12.1411  -16.1233   22.9394 C   0  0  0  0  0  0  0  0  0  0  0  0
   11.9466  -17.4346   23.5630 C   0  0  0  0  0  0  0  0  0  0  0  0
   11.5781  -18.4130   22.8707 O   0  0  0  0  0  0  0  0  0  0  0  0
   12.1648  -17.6144   24.9202 O   0  0  0  0  0  0  0  0  0  0  0  0
  2  1  1  0
  3  2  2  0
  4  5  2  0
  4  3  1  0
  5 11  1  0
  6  5  1  0
  7  6  1  0
  7  8  1  6
  9  7  1  0
  9 10  2  0
 11 12  2  0
 12  2  1  0
 13  9  1  0
 14 13  1  0
 14 15  1  6
 16 15  1  0
 16 17  2  0
 18 14  1  0
 19 18  2  0
 20 16  1  0
 21 18  1  0
 22 21  1  0
 23 22  1  0
 24 23  2  0
 25 23  1  0
M  END
$$$$
