YDG.pdb
     RDKit          3D

 25 25  0  0  1  0  0  0  0  0999 V2000
    5.3605  -12.7279   16.9880 O   0  0  0  0  0  0  0  0  0  0  0  0
    6.5718  -13.3664   17.2291 C   0  0  0  0  0  0  0  0  0  0  0  0
    7.1690  -13.2720   18.4680 C   0  0  0  0  0  0  0  0  0  0  0  0
    8.3699  -13.8846   18.7629 C   0  0  0  0  0  0  0  0  0  0  0  0
    9.0103  -14.6261   17.7848 C   0  0  0  0  0  0  0  0  0  0  0  0
   10.2857  -15.2935   18.0422 C   0  0  0  0  0  0  0  0  0  0  0  0
   10.6549  -15.3812   19.5020 C   0  0  2  0  0  0  0  0  0  0  0  0
   10.3666  -14.1508   20.2096 N   0  0  0  0  0  0  0  0  0  0  0  0
   12.1375  -15.5780   19.5372 C   0  0  0  0  0  0  0  0  0  0  0  0
   12.6007  -16.6470   19.0997 O   0  0  0  0  0  0  0  0  0  0  0  0
    8.4465  -14.7440   16.5362 C   0  0  0  0  0  0  0  0  0  0  0  0
    7.2337  -14.1118   16.2756 C   0  0  0  0  0  0  0  0  0  0  0  0
   13.0131  -14.5951   20.0466 N   0  0  0  0  0  0  0  0  0  0  0  0
   14.4431  -14.9338   20.1269 C   0  0  1  0  0  0  0  0  0  0  0  0
   15.1290  -13.7622   19.4352 C   0  0  0  0  0  0  0  0  0  0  0  0
   15.5752  -14.1758   18.0994 C   0  0  0  0  0  0  0  0  0  0  0  0
   15.2501  -15.3583   17.7219 O   0  0  0  0  0  0  0  0  0  0  0  0
   14.8740  -15.0702   21.5144 C   0  0  0  0  0  0  0  0  0  0  0  0
   16.0797  -15.0064   21.8891 O   0  0  0  0  0  0  0  0  0  0  0  0
   16.3146  -13.3332   17.2765 O   0  0  0  0  0  0  0  0  0  0  0  0
   13.9167  -15.2848   22.5412 N   0  0  0  0  0  0  0  0  0  0  0  0
   14.3178  -15.4155   23.9413 C   0  0  0  0  0  0  0  0  0  0  0  0
   14.8462  -16.7544   24.2145 C   0  0  0  0  0  0  0  0  0  0  0  0
   15.2334  -17.0555   25.3684 O   0  0  0  0  0  0  0  0  0  0  0  0
   14.9267  -17.7045   23.2081 O   0  0  0  0  0  0  0  0  0  0  0  0
  2  1  1  0
  3  2  2  0
  4  5  2  0
  4  3  1  0
  5 11  1  0
  6  5  1  0
  7  6  1  0
  7  8  1  1
  9  7  1  0
  9 10  2  0
 11 12  2  0
 12  2  1  0
 13  9  1  0
 14 13  1  0
 14 15  1  1
 16 15  1  0
 16 17  2  0
 18 14  1  0
 19 18  2  0
 20 16  1  0
 21 18  1  0
 22 21  1  0
 23 22  1  0
 24 23  2  0
 25 23  1  0
M  END
$$$$
