YDG.pdb
     RDKit          3D

 25 25  0  0  1  0  0  0  0  0999 V2000
    7.6679  -13.3226   17.2660 O   0  0  0  0  0  0  0  0  0  0  0  0
    7.6916  -13.6908   18.6065 C   0  0  0  0  0  0  0  0  0  0  0  0
    8.2713  -14.8824   18.9864 C   0  0  0  0  0  0  0  0  0  0  0  0
    8.3231  -15.2979   20.3013 C   0  0  0  0  0  0  0  0  0  0  0  0
    7.7750  -14.4955   21.2874 C   0  0  0  0  0  0  0  0  0  0  0  0
    7.7997  -14.8883   22.6957 C   0  0  0  0  0  0  0  0  0  0  0  0
    7.3231  -16.2957   22.9542 C   0  0  2  0  0  0  0  0  0  0  0  0
    5.8958  -16.3500   23.1939 N   0  0  0  0  0  0  0  0  0  0  0  0
    8.0028  -16.7323   24.2135 C   0  0  0  0  0  0  0  0  0  0  0  0
    7.5410  -16.3377   25.2997 O   0  0  0  0  0  0  0  0  0  0  0  0
    7.1877  -13.2992   20.9485 C   0  0  0  0  0  0  0  0  0  0  0  0
    7.1542  -12.9132   19.6112 C   0  0  0  0  0  0  0  0  0  0  0  0
    9.1391  -17.5694   24.2015 N   0  0  0  0  0  0  0  0  0  0  0  0
    9.9668  -17.6103   25.4178 C   0  0  1  0  0  0  0  0  0  0  0  0
   10.2405  -19.0960   25.6160 C   0  0  0  0  0  0  0  0  0  0  0  0
   10.2468  -19.4051   27.0509 C   0  0  0  0  0  0  0  0  0  0  0  0
   10.8963  -18.6021   27.8124 O   0  0  0  0  0  0  0  0  0  0  0  0
   11.2007  -16.8521   25.2397 C   0  0  0  0  0  0  0  0  0  0  0  0
   12.0359  -16.6348   26.1636 O   0  0  0  0  0  0  0  0  0  0  0  0
    9.5834  -20.5124   27.5684 O   0  0  0  0  0  0  0  0  0  0  0  0
   11.5278  -16.3092   23.9688 N   0  0  0  0  0  0  0  0  0  0  0  0
   12.7289  -15.4984   23.7730 C   0  0  0  0  0  0  0  0  0  0  0  0
   13.8579  -16.3260   23.3411 C   0  0  0  0  0  0  0  0  0  0  0  0
   13.7161  -17.5646   23.2071 O   0  0  0  0  0  0  0  0  0  0  0  0
   15.0940  -15.7573   23.0754 O   0  0  0  0  0  0  0  0  0  0  0  0
  2  1  1  0
  3  2  2  0
  4  5  2  0
  4  3  1  0
  5 11  1  0
  6  5  1  0
  7  6  1  0
  7  8  1  1
  9  7  1  0
  9 10  2  0
 11 12  2  0
 12  2  1  0
 13  9  1  0
 14 13  1  0
 14 15  1  6
 16 15  1  0
 16 17  2  0
 18 14  1  0
 19 18  2  0
 20 16  1  0
 21 18  1  0
 22 21  1  0
 23 22  1  0
 24 23  2  0
 25 23  1  0
M  END
$$$$
