YDG.pdb
     RDKit          3D

 25 25  0  0  1  0  0  0  0  0999 V2000
    7.8244  -12.6366   27.2367 O   0  0  0  0  0  0  0  0  0  0  0  0
    7.4808  -13.1877   26.0073 C   0  0  0  0  0  0  0  0  0  0  0  0
    7.6585  -12.4609   24.8495 C   0  0  0  0  0  0  0  0  0  0  0  0
    7.3352  -12.9574   23.6031 C   0  0  0  0  0  0  0  0  0  0  0  0
    6.8109  -14.2344   23.4978 C   0  0  0  0  0  0  0  0  0  0  0  0
    6.4483  -14.8087   22.2028 C   0  0  0  0  0  0  0  0  0  0  0  0
    7.6252  -15.1194   21.3121 C   0  0  2  0  0  0  0  0  0  0  0  0
    7.2179  -15.7576   20.0774 N   0  0  0  0  0  0  0  0  0  0  0  0
    8.4604  -16.1042   22.0677 C   0  0  0  0  0  0  0  0  0  0  0  0
    8.0598  -17.2799   22.1451 O   0  0  0  0  0  0  0  0  0  0  0  0
    6.6187  -14.9910   24.6299 C   0  0  0  0  0  0  0  0  0  0  0  0
    6.9567  -14.4564   25.8702 C   0  0  0  0  0  0  0  0  0  0  0  0
    9.6753  -15.7390   22.6865 N   0  0  0  0  0  0  0  0  0  0  0  0
   10.4190  -16.7906   23.3987 C   0  0  1  0  0  0  0  0  0  0  0  0
   11.8735  -16.5009   23.0497 C   0  0  0  0  0  0  0  0  0  0  0  0
   12.1782  -17.0538   21.7245 C   0  0  0  0  0  0  0  0  0  0  0  0
   12.8756  -16.3183   20.9377 O   0  0  0  0  0  0  0  0  0  0  0  0
   10.1833  -16.7191   24.8369 C   0  0  0  0  0  0  0  0  0  0  0  0
   10.2711  -15.6558   25.5151 O   0  0  0  0  0  0  0  0  0  0  0  0
   11.7364  -18.3129   21.3328 O   0  0  0  0  0  0  0  0  0  0  0  0
    9.8274  -17.8879   25.5609 N   0  0  0  0  0  0  0  0  0  0  0  0
    9.6023  -17.8503   27.0052 C   0  0  0  0  0  0  0  0  0  0  0  0
   10.8157  -18.2227   27.7368 C   0  0  0  0  0  0  0  0  0  0  0  0
   11.8665  -18.5031   27.1127 O   0  0  0  0  0  0  0  0  0  0  0  0
   10.8223  -18.2715   29.1223 O   0  0  0  0  0  0  0  0  0  0  0  0
  2  1  1  0
  3  2  2  0
  4  5  2  0
  4  3  1  0
  5 11  1  0
  6  5  1  0
  7  6  1  0
  7  8  1  6
  9  7  1  0
  9 10  2  0
 11 12  2  0
 12  2  1  0
 13  9  1  0
 14 13  1  0
 14 15  1  1
 16 15  1  0
 16 17  2  0
 18 14  1  0
 19 18  2  0
 20 16  1  0
 21 18  1  0
 22 21  1  0
 23 22  1  0
 24 23  2  0
 25 23  1  0
M  END
$$$$
