YDG.pdb
     RDKit          3D

 25 25  0  0  1  0  0  0  0  0999 V2000
    5.6075  -10.5330   27.5253 O   0  0  0  0  0  0  0  0  0  0  0  0
    6.3171  -11.5497   26.8960 C   0  0  0  0  0  0  0  0  0  0  0  0
    7.5838  -11.8793   27.3287 C   0  0  0  0  0  0  0  0  0  0  0  0
    8.3331  -12.8787   26.7420 C   0  0  0  0  0  0  0  0  0  0  0  0
    7.8033  -13.5855   25.6759 C   0  0  0  0  0  0  0  0  0  0  0  0
    8.5546  -14.6520   25.0154 C   0  0  0  0  0  0  0  0  0  0  0  0
    7.6933  -15.7285   24.4037 C   0  0  2  0  0  0  0  0  0  0  0  0
    6.8815  -16.4031   25.3955 N   0  0  0  0  0  0  0  0  0  0  0  0
    8.6415  -16.7401   23.8417 C   0  0  0  0  0  0  0  0  0  0  0  0
    8.6625  -17.8752   24.3514 O   0  0  0  0  0  0  0  0  0  0  0  0
    6.5427  -13.2862   25.2151 C   0  0  0  0  0  0  0  0  0  0  0  0
    5.8165  -12.2713   25.8323 C   0  0  0  0  0  0  0  0  0  0  0  0
    9.5012  -16.4442   22.7621 N   0  0  0  0  0  0  0  0  0  0  0  0
   10.3716  -17.5241   22.2699 C   0  0  1  0  0  0  0  0  0  0  0  0
   10.3910  -17.3103   20.7614 C   0  0  0  0  0  0  0  0  0  0  0  0
    9.1684  -17.8695   20.1722 C   0  0  0  0  0  0  0  0  0  0  0  0
    8.6394  -18.8690   20.7785 O   0  0  0  0  0  0  0  0  0  0  0  0
   11.7081  -17.4265   22.8472 C   0  0  0  0  0  0  0  0  0  0  0  0
   12.6291  -18.2681   22.6427 O   0  0  0  0  0  0  0  0  0  0  0  0
    8.6041  -17.3472   19.0135 O   0  0  0  0  0  0  0  0  0  0  0  0
   12.0423  -16.3357   23.6930 N   0  0  0  0  0  0  0  0  0  0  0  0
   13.3521  -16.2446   24.3369 C   0  0  0  0  0  0  0  0  0  0  0  0
   14.3866  -15.8605   23.3733 C   0  0  0  0  0  0  0  0  0  0  0  0
   15.5434  -15.5819   23.7684 O   0  0  0  0  0  0  0  0  0  0  0  0
   14.1054  -15.7989   22.0171 O   0  0  0  0  0  0  0  0  0  0  0  0
  2  1  1  0
  3  2  2  0
  4  5  2  0
  4  3  1  0
  5 11  1  0
  6  5  1  0
  7  6  1  0
  7  8  1  1
  9  7  1  0
  9 10  2  0
 11 12  2  0
 12  2  1  0
 13  9  1  0
 14 13  1  0
 14 15  1  6
 16 15  1  0
 16 17  2  0
 18 14  1  0
 19 18  2  0
 20 16  1  0
 21 18  1  0
 22 21  1  0
 23 22  1  0
 24 23  2  0
 25 23  1  0
M  END
$$$$
