YDG.pdb
     RDKit          3D

 25 25  0  0  1  0  0  0  0  0999 V2000
    5.2668  -11.4183   27.6630 O   0  0  0  0  0  0  0  0  0  0  0  0
    6.2125  -12.0833   26.8906 C   0  0  0  0  0  0  0  0  0  0  0  0
    7.4737  -12.3207   27.3940 C   0  0  0  0  0  0  0  0  0  0  0  0
    8.4510  -12.9754   26.6724 C   0  0  0  0  0  0  0  0  0  0  0  0
    8.1663  -13.4163   25.3913 C   0  0  0  0  0  0  0  0  0  0  0  0
    9.1651  -14.1127   24.5816 C   0  0  0  0  0  0  0  0  0  0  0  0
    8.6703  -15.3916   23.9534 C   0  0  2  0  0  0  0  0  0  0  0  0
    7.9320  -16.2084   24.8945 N   0  0  0  0  0  0  0  0  0  0  0  0
    9.8958  -16.1570   23.5655 C   0  0  0  0  0  0  0  0  0  0  0  0
   10.7533  -15.5832   22.8697 O   0  0  0  0  0  0  0  0  0  0  0  0
    6.9194  -13.1986   24.8538 C   0  0  0  0  0  0  0  0  0  0  0  0
    5.9589  -12.5344   25.6119 C   0  0  0  0  0  0  0  0  0  0  0  0
   10.1021  -17.4953   23.9637 N   0  0  0  0  0  0  0  0  0  0  0  0
   11.3407  -18.1541   23.5189 C   0  0  1  0  0  0  0  0  0  0  0  0
   11.5575  -19.2490   24.5561 C   0  0  0  0  0  0  0  0  0  0  0  0
   11.8885  -18.6390   25.8495 C   0  0  0  0  0  0  0  0  0  0  0  0
   12.7292  -17.6698   25.8332 O   0  0  0  0  0  0  0  0  0  0  0  0
   11.1907  -18.7038   22.1756 C   0  0  0  0  0  0  0  0  0  0  0  0
   10.4553  -19.6932   21.8952 O   0  0  0  0  0  0  0  0  0  0  0  0
   11.3228  -19.0838   27.0396 O   0  0  0  0  0  0  0  0  0  0  0  0
   11.8902  -18.1230   21.0845 N   0  0  0  0  0  0  0  0  0  0  0  0
   11.7855  -18.6725   19.7334 C   0  0  0  0  0  0  0  0  0  0  0  0
   13.0789  -19.1817   19.2708 C   0  0  0  0  0  0  0  0  0  0  0  0
   13.6935  -20.0436   19.9427 O   0  0  0  0  0  0  0  0  0  0  0  0
   13.6414  -18.7218   18.0901 O   0  0  0  0  0  0  0  0  0  0  0  0
  2  1  1  0
  3  2  2  0
  4  5  2  0
  4  3  1  0
  5 11  1  0
  6  5  1  0
  7  6  1  0
  7  8  1  1
  9  7  1  0
  9 10  2  0
 11 12  2  0
 12  2  1  0
 13  9  1  0
 14 13  1  0
 14 15  1  1
 16 15  1  0
 16 17  2  0
 18 14  1  0
 19 18  2  0
 20 16  1  0
 21 18  1  0
 22 21  1  0
 23 22  1  0
 24 23  2  0
 25 23  1  0
M  END
$$$$
