YDG.pdb
     RDKit          3D

 25 25  0  0  1  0  0  0  0  0999 V2000
    5.3803  -10.5040   27.5000 O   0  0  0  0  0  0  0  0  0  0  0  0
    6.0645  -11.5630   26.9138 C   0  0  0  0  0  0  0  0  0  0  0  0
    6.5291  -12.6017   27.6920 C   0  0  0  0  0  0  0  0  0  0  0  0
    7.2138  -13.6774   27.1641 C   0  0  0  0  0  0  0  0  0  0  0  0
    7.4500  -13.7272   25.8009 C   0  0  0  0  0  0  0  0  0  0  0  0
    8.1726  -14.8416   25.1893 C   0  0  0  0  0  0  0  0  0  0  0  0
    7.2957  -15.8059   24.4302 C   0  0  2  0  0  0  0  0  0  0  0  0
    6.6819  -16.7844   25.3039 N   0  0  0  0  0  0  0  0  0  0  0  0
    8.2085  -16.5462   23.5046 C   0  0  0  0  0  0  0  0  0  0  0  0
    8.5644  -17.6956   23.8223 O   0  0  0  0  0  0  0  0  0  0  0  0
    7.0023  -12.7100   24.9910 C   0  0  0  0  0  0  0  0  0  0  0  0
    6.3151  -11.6409   25.5595 C   0  0  0  0  0  0  0  0  0  0  0  0
    8.6700  -15.9821   22.2958 N   0  0  0  0  0  0  0  0  0  0  0  0
    9.5691  -16.7982   21.4640 C   0  0  1  0  0  0  0  0  0  0  0  0
    9.3702  -16.2357   20.0620 C   0  0  0  0  0  0  0  0  0  0  0  0
    8.1186  -16.7563   19.4990 C   0  0  0  0  0  0  0  0  0  0  0  0
    7.9193  -18.0196   19.6033 O   0  0  0  0  0  0  0  0  0  0  0  0
   10.9538  -16.6715   21.9061 C   0  0  0  0  0  0  0  0  0  0  0  0
   11.9352  -17.2094   21.3180 O   0  0  0  0  0  0  0  0  0  0  0  0
    7.1884  -15.9276   18.8809 O   0  0  0  0  0  0  0  0  0  0  0  0
   11.2675  -15.9043   23.0594 N   0  0  0  0  0  0  0  0  0  0  0  0
   12.6418  -15.7862   23.5450 C   0  0  0  0  0  0  0  0  0  0  0  0
   13.4554  -16.9215   23.1031 C   0  0  0  0  0  0  0  0  0  0  0  0
   14.4916  -16.7275   22.4242 O   0  0  0  0  0  0  0  0  0  0  0  0
   13.0955  -18.2208   23.4257 O   0  0  0  0  0  0  0  0  0  0  0  0
  2  1  1  0
  3  2  2  0
  4  5  2  0
  4  3  1  0
  5 11  1  0
  6  5  1  0
  7  6  1  0
  7  8  1  1
  9  7  1  0
  9 10  2  0
 11 12  2  0
 12  2  1  0
 13  9  1  0
 14 13  1  0
 14 15  1  6
 16 15  1  0
 16 17  2  0
 18 14  1  0
 19 18  2  0
 20 16  1  0
 21 18  1  0
 22 21  1  0
 23 22  1  0
 24 23  2  0
 25 23  1  0
M  END
$$$$
