YDG.pdb
     RDKit          3D

 25 25  0  0  1  0  0  0  0  0999 V2000
    5.4293  -10.9724   27.9536 O   0  0  0  0  0  0  0  0  0  0  0  0
    6.2232  -11.8144   27.1829 C   0  0  0  0  0  0  0  0  0  0  0  0
    5.8483  -12.1309   25.8946 C   0  0  0  0  0  0  0  0  0  0  0  0
    6.5970  -12.9607   25.0852 C   0  0  0  0  0  0  0  0  0  0  0  0
    7.7731  -13.5033   25.5743 C   0  0  0  0  0  0  0  0  0  0  0  0
    8.6033  -14.3907   24.7610 C   0  0  0  0  0  0  0  0  0  0  0  0
    7.8961  -15.6343   24.2831 C   0  0  2  0  0  0  0  0  0  0  0  0
    7.3960  -16.4313   25.3842 N   0  0  0  0  0  0  0  0  0  0  0  0
    8.9344  -16.4495   23.5791 C   0  0  0  0  0  0  0  0  0  0  0  0
    9.2489  -17.5508   24.0659 O   0  0  0  0  0  0  0  0  0  0  0  0
    8.1810  -13.2113   26.8547 C   0  0  0  0  0  0  0  0  0  0  0  0
    7.3994  -12.3700   27.6419 C   0  0  0  0  0  0  0  0  0  0  0  0
    9.5577  -16.0077   22.3924 N   0  0  0  0  0  0  0  0  0  0  0  0
   10.5096  -16.9231   21.7426 C   0  0  1  0  0  0  0  0  0  0  0  0
   10.2722  -16.6916   20.2555 C   0  0  0  0  0  0  0  0  0  0  0  0
    9.4445  -17.7778   19.7172 C   0  0  0  0  0  0  0  0  0  0  0  0
    9.2308  -18.7792   20.4905 O   0  0  0  0  0  0  0  0  0  0  0  0
   11.8829  -16.6125   22.1258 C   0  0  0  0  0  0  0  0  0  0  0  0
   12.9021  -17.0903   21.5504 O   0  0  0  0  0  0  0  0  0  0  0  0
    8.9137  -17.7317   18.4327 O   0  0  0  0  0  0  0  0  0  0  0  0
   12.1395  -15.7218   23.2018 N   0  0  0  0  0  0  0  0  0  0  0  0
   13.5049  -15.3880   23.6051 C   0  0  0  0  0  0  0  0  0  0  0  0
   14.0614  -16.4202   24.4833 C   0  0  0  0  0  0  0  0  0  0  0  0
   13.4216  -17.4771   24.6974 O   0  0  0  0  0  0  0  0  0  0  0  0
   15.2965  -16.2466   25.0885 O   0  0  0  0  0  0  0  0  0  0  0  0
  2  1  1  0
  3  2  2  0
  4  5  2  0
  4  3  1  0
  5 11  1  0
  6  5  1  0
  7  6  1  0
  7  8  1  1
  9  7  1  0
  9 10  2  0
 11 12  2  0
 12  2  1  0
 13  9  1  0
 14 13  1  0
 14 15  1  6
 16 15  1  0
 16 17  2  0
 18 14  1  0
 19 18  2  0
 20 16  1  0
 21 18  1  0
 22 21  1  0
 23 22  1  0
 24 23  2  0
 25 23  1  0
M  END
$$$$
