YDG.pdb
     RDKit          3D

 25 25  0  0  1  0  0  0  0  0999 V2000
    5.6088  -10.5490   27.8126 O   0  0  0  0  0  0  0  0  0  0  0  0
    6.3132  -11.5508   27.1544 C   0  0  0  0  0  0  0  0  0  0  0  0
    7.5297  -11.9767   27.6434 C   0  0  0  0  0  0  0  0  0  0  0  0
    8.2715  -12.9665   27.0314 C   0  0  0  0  0  0  0  0  0  0  0  0
    7.7860  -13.5633   25.8804 C   0  0  0  0  0  0  0  0  0  0  0  0
    8.5318  -14.6146   25.1900 C   0  0  0  0  0  0  0  0  0  0  0  0
    7.6665  -15.6001   24.4450 C   0  0  2  0  0  0  0  0  0  0  0  0
    6.8788  -16.4185   25.3436 N   0  0  0  0  0  0  0  0  0  0  0  0
    8.6109  -16.5109   23.7261 C   0  0  0  0  0  0  0  0  0  0  0  0
    8.7119  -17.6865   24.1216 O   0  0  0  0  0  0  0  0  0  0  0  0
    6.5761  -13.1659   25.3614 C   0  0  0  0  0  0  0  0  0  0  0  0
    5.8559  -12.1641   26.0065 C   0  0  0  0  0  0  0  0  0  0  0  0
    9.3798  -16.0769   22.6248 N   0  0  0  0  0  0  0  0  0  0  0  0
   10.2344  -17.0721   21.9575 C   0  0  1  0  0  0  0  0  0  0  0  0
   10.4766  -16.4706   20.5788 C   0  0  0  0  0  0  0  0  0  0  0  0
   11.2997  -17.3885   19.7822 C   0  0  0  0  0  0  0  0  0  0  0  0
   12.3551  -16.8977   19.2420 O   0  0  0  0  0  0  0  0  0  0  0  0
   11.4819  -17.2685   22.6886 C   0  0  0  0  0  0  0  0  0  0  0  0
   12.2959  -18.2078   22.4573 O   0  0  0  0  0  0  0  0  0  0  0  0
   10.9596  -18.7267   19.6162 O   0  0  0  0  0  0  0  0  0  0  0  0
   11.8481  -16.3737   23.7288 N   0  0  0  0  0  0  0  0  0  0  0  0
   13.0845  -16.5538   24.4885 C   0  0  0  0  0  0  0  0  0  0  0  0
   14.2464  -16.1063   23.7164 C   0  0  0  0  0  0  0  0  0  0  0  0
   15.3816  -16.0742   24.2478 O   0  0  0  0  0  0  0  0  0  0  0  0
   14.1109  -15.7130   22.3939 O   0  0  0  0  0  0  0  0  0  0  0  0
  2  1  1  0
  3  2  2  0
  4  5  2  0
  4  3  1  0
  5 11  1  0
  6  5  1  0
  7  6  1  0
  7  8  1  1
  9  7  1  0
  9 10  2  0
 11 12  2  0
 12  2  1  0
 13  9  1  0
 14 13  1  0
 14 15  1  6
 16 15  1  0
 16 17  2  0
 18 14  1  0
 19 18  2  0
 20 16  1  0
 21 18  1  0
 22 21  1  0
 23 22  1  0
 24 23  2  0
 25 23  1  0
M  END
$$$$
