YDG.pdb
     RDKit          3D

 25 25  0  0  1  0  0  0  0  0999 V2000
    7.2535  -13.0303   17.5196 O   0  0  0  0  0  0  0  0  0  0  0  0
    7.5153  -13.4978   18.8026 C   0  0  0  0  0  0  0  0  0  0  0  0
    7.5703  -12.6173   19.8619 C   0  0  0  0  0  0  0  0  0  0  0  0
    7.8262  -13.0253   21.1551 C   0  0  0  0  0  0  0  0  0  0  0  0
    8.0379  -14.3690   21.4122 C   0  0  0  0  0  0  0  0  0  0  0  0
    8.3159  -14.8557   22.7628 C   0  0  0  0  0  0  0  0  0  0  0  0
    7.3491  -15.9039   23.2542 C   0  0  2  0  0  0  0  0  0  0  0  0
    6.0712  -15.3322   23.6255 N   0  0  0  0  0  0  0  0  0  0  0  0
    7.9598  -16.4727   24.4959 C   0  0  0  0  0  0  0  0  0  0  0  0
    7.8527  -15.8271   25.5544 O   0  0  0  0  0  0  0  0  0  0  0  0
    7.9913  -15.2787   20.3819 C   0  0  0  0  0  0  0  0  0  0  0  0
    7.7303  -14.8297   19.0901 C   0  0  0  0  0  0  0  0  0  0  0  0
    8.6449  -17.7067   24.4977 N   0  0  0  0  0  0  0  0  0  0  0  0
    9.4418  -18.0406   25.6892 C   0  0  1  0  0  0  0  0  0  0  0  0
    9.4869  -19.5635   25.6759 C   0  0  0  0  0  0  0  0  0  0  0  0
    8.1525  -20.0951   25.9783 C   0  0  0  0  0  0  0  0  0  0  0  0
    7.5017  -19.5201   26.9229 O   0  0  0  0  0  0  0  0  0  0  0  0
   10.7777  -17.4592   25.6080 C   0  0  0  0  0  0  0  0  0  0  0  0
   11.6407  -17.5405   26.5283 O   0  0  0  0  0  0  0  0  0  0  0  0
    7.6123  -21.1694   25.2797 O   0  0  0  0  0  0  0  0  0  0  0  0
   11.1795  -16.7536   24.4428 N   0  0  0  0  0  0  0  0  0  0  0  0
   12.4724  -16.0742   24.3716 C   0  0  0  0  0  0  0  0  0  0  0  0
   13.5064  -16.9652   23.8394 C   0  0  0  0  0  0  0  0  0  0  0  0
   13.5332  -18.1722   24.1780 O   0  0  0  0  0  0  0  0  0  0  0  0
   14.4665  -16.4918   22.9585 O   0  0  0  0  0  0  0  0  0  0  0  0
  2  1  1  0
  3  2  2  0
  4  5  2  0
  4  3  1  0
  5 11  1  0
  6  5  1  0
  7  6  1  0
  7  8  1  1
  9  7  1  0
  9 10  2  0
 11 12  2  0
 12  2  1  0
 13  9  1  0
 14 13  1  0
 14 15  1  6
 16 15  1  0
 16 17  2  0
 18 14  1  0
 19 18  2  0
 20 16  1  0
 21 18  1  0
 22 21  1  0
 23 22  1  0
 24 23  2  0
 25 23  1  0
M  END
$$$$
