YDG.pdb
     RDKit          3D

 25 25  0  0  1  0  0  0  0  0999 V2000
    5.4047  -10.8991   27.1972 O   0  0  0  0  0  0  0  0  0  0  0  0
    6.1316  -11.9370   26.6251 C   0  0  0  0  0  0  0  0  0  0  0  0
    5.6768  -13.2348   26.7205 C   0  0  0  0  0  0  0  0  0  0  0  0
    6.3569  -14.3031   26.1721 C   0  0  0  0  0  0  0  0  0  0  0  0
    7.5440  -14.0758   25.4970 C   0  0  0  0  0  0  0  0  0  0  0  0
    8.3066  -15.1710   24.8993 C   0  0  0  0  0  0  0  0  0  0  0  0
    7.8244  -15.5871   23.5320 C   0  0  2  0  0  0  0  0  0  0  0  0
    6.5520  -16.2763   23.5918 N   0  0  0  0  0  0  0  0  0  0  0  0
    8.8362  -16.5638   23.0219 C   0  0  0  0  0  0  0  0  0  0  0  0
    8.4952  -17.7540   22.8961 O   0  0  0  0  0  0  0  0  0  0  0  0
    8.0307  -12.7950   25.3802 C   0  0  0  0  0  0  0  0  0  0  0  0
    7.3168  -11.7424   25.9466 C   0  0  0  0  0  0  0  0  0  0  0  0
   10.1502  -16.1752   22.6835 N   0  0  0  0  0  0  0  0  0  0  0  0
   11.0770  -17.2275   22.2363 C   0  0  1  0  0  0  0  0  0  0  0  0
   12.2407  -16.4492   21.6349 C   0  0  0  0  0  0  0  0  0  0  0  0
   13.2319  -17.3889   21.0974 C   0  0  0  0  0  0  0  0  0  0  0  0
   12.7807  -18.3771   20.4145 O   0  0  0  0  0  0  0  0  0  0  0  0
   11.5046  -18.0615   23.3547 C   0  0  0  0  0  0  0  0  0  0  0  0
   11.9142  -19.2513   23.2325 O   0  0  0  0  0  0  0  0  0  0  0  0
   14.5958  -17.2236   21.3129 O   0  0  0  0  0  0  0  0  0  0  0  0
   11.4804  -17.5476   24.6784 N   0  0  0  0  0  0  0  0  0  0  0  0
   11.5435  -18.4330   25.8405 C   0  0  0  0  0  0  0  0  0  0  0  0
   12.8785  -18.4156   26.4435 C   0  0  0  0  0  0  0  0  0  0  0  0
   13.8295  -17.8514   25.8523 O   0  0  0  0  0  0  0  0  0  0  0  0
   13.1114  -19.0191   27.6697 O   0  0  0  0  0  0  0  0  0  0  0  0
  2  1  1  0
  3  2  2  0
  4  5  2  0
  4  3  1  0
  5 11  1  0
  6  5  1  0
  7  6  1  0
  7  8  1  1
  9  7  1  0
  9 10  2  0
 11 12  2  0
 12  2  1  0
 13  9  1  0
 14 13  1  0
 14 15  1  1
 16 15  1  0
 16 17  2  0
 18 14  1  0
 19 18  2  0
 20 16  1  0
 21 18  1  0
 22 21  1  0
 23 22  1  0
 24 23  2  0
 25 23  1  0
M  END
$$$$
