YDG.pdb
     RDKit          3D

 25 25  0  0  1  0  0  0  0  0999 V2000
    5.2666  -10.6770   27.4883 O   0  0  0  0  0  0  0  0  0  0  0  0
    6.0728  -11.6519   26.9116 C   0  0  0  0  0  0  0  0  0  0  0  0
    7.1949  -12.1021   27.5738 C   0  0  0  0  0  0  0  0  0  0  0  0
    8.0305  -13.0671   27.0493 C   0  0  0  0  0  0  0  0  0  0  0  0
    7.7415  -13.6125   25.8101 C   0  0  0  0  0  0  0  0  0  0  0  0
    8.5941  -14.6356   25.2062 C   0  0  0  0  0  0  0  0  0  0  0  0
    7.8436  -15.6825   24.4214 C   0  0  2  0  0  0  0  0  0  0  0  0
    7.0844  -16.5656   25.2824 N   0  0  0  0  0  0  0  0  0  0  0  0
    8.8883  -16.5115   23.7435 C   0  0  0  0  0  0  0  0  0  0  0  0
    9.2038  -17.5992   24.2594 O   0  0  0  0  0  0  0  0  0  0  0  0
    6.6310  -13.1895   25.1181 C   0  0  0  0  0  0  0  0  0  0  0  0
    5.8113  -12.2140   25.6793 C   0  0  0  0  0  0  0  0  0  0  0  0
    9.5165  -16.0975   22.5493 N   0  0  0  0  0  0  0  0  0  0  0  0
   10.6047  -16.9390   22.0261 C   0  0  1  0  0  0  0  0  0  0  0  0
   10.6814  -16.5526   20.5542 C   0  0  0  0  0  0  0  0  0  0  0  0
    9.5291  -17.1152   19.8400 C   0  0  0  0  0  0  0  0  0  0  0  0
    9.2587  -18.3499   20.0610 O   0  0  0  0  0  0  0  0  0  0  0  0
   11.8587  -16.6696   22.7220 C   0  0  0  0  0  0  0  0  0  0  0  0
   12.3548  -15.5153   22.8625 O   0  0  0  0  0  0  0  0  0  0  0  0
    8.7621  -16.3539   18.9647 O   0  0  0  0  0  0  0  0  0  0  0  0
   12.5998  -17.7364   23.2960 N   0  0  0  0  0  0  0  0  0  0  0  0
   13.7192  -17.4849   24.2028 C   0  0  0  0  0  0  0  0  0  0  0  0
   14.9959  -17.5209   23.4852 C   0  0  0  0  0  0  0  0  0  0  0  0
   16.0695  -17.3136   24.0988 O   0  0  0  0  0  0  0  0  0  0  0  0
   15.0381  -17.7828   22.1245 O   0  0  0  0  0  0  0  0  0  0  0  0
  2  1  1  0
  3  2  2  0
  4  5  2  0
  4  3  1  0
  5 11  1  0
  6  5  1  0
  7  6  1  0
  7  8  1  1
  9  7  1  0
  9 10  2  0
 11 12  2  0
 12  2  1  0
 13  9  1  0
 14 13  1  0
 14 15  1  6
 16 15  1  0
 16 17  2  0
 18 14  1  0
 19 18  2  0
 20 16  1  0
 21 18  1  0
 22 21  1  0
 23 22  1  0
 24 23  2  0
 25 23  1  0
M  END
$$$$
