YDG.pdb
     RDKit          3D

 25 25  0  0  1  0  0  0  0  0999 V2000
    6.2575  -13.0557   20.4489 O   0  0  0  0  0  0  0  0  0  0  0  0
    7.6021  -13.3475   20.2487 C   0  0  0  0  0  0  0  0  0  0  0  0
    8.1528  -14.4842   20.8008 C   0  0  0  0  0  0  0  0  0  0  0  0
    9.4803  -14.8231   20.6349 C   0  0  0  0  0  0  0  0  0  0  0  0
   10.3019  -13.9972   19.8868 C   0  0  0  0  0  0  0  0  0  0  0  0
   11.7161  -14.3067   19.6814 C   0  0  0  0  0  0  0  0  0  0  0  0
   12.0695  -14.6744   18.2619 C   0  0  2  0  0  0  0  0  0  0  0  0
   11.1208  -15.6079   17.6908 N   0  0  0  0  0  0  0  0  0  0  0  0
   13.3905  -15.3726   18.3376 C   0  0  0  0  0  0  0  0  0  0  0  0
   13.4042  -16.6157   18.2801 O   0  0  0  0  0  0  0  0  0  0  0  0
    9.7897  -12.8539   19.3197 C   0  0  0  0  0  0  0  0  0  0  0  0
    8.4454  -12.5448   19.5089 C   0  0  0  0  0  0  0  0  0  0  0  0
   14.6057  -14.6670   18.4704 N   0  0  0  0  0  0  0  0  0  0  0  0
   15.8468  -15.4556   18.5330 C   0  0  1  0  0  0  0  0  0  0  0  0
   16.9020  -14.5094   17.9737 C   0  0  0  0  0  0  0  0  0  0  0  0
   17.0287  -14.7185   16.5264 C   0  0  0  0  0  0  0  0  0  0  0  0
   17.8596  -13.9643   15.9040 O   0  0  0  0  0  0  0  0  0  0  0  0
   16.1488  -15.8526   19.9043 C   0  0  0  0  0  0  0  0  0  0  0  0
   17.1118  -16.6060   20.2258 O   0  0  0  0  0  0  0  0  0  0  0  0
   16.2882  -15.6850   15.8545 O   0  0  0  0  0  0  0  0  0  0  0  0
   15.3424  -15.3864   20.9764 N   0  0  0  0  0  0  0  0  0  0  0  0
   15.6009  -15.7935   22.3569 C   0  0  0  0  0  0  0  0  0  0  0  0
   16.7719  -15.1001   22.8994 C   0  0  0  0  0  0  0  0  0  0  0  0
   17.4898  -14.3956   22.1507 O   0  0  0  0  0  0  0  0  0  0  0  0
   17.1040  -15.2109   24.2408 O   0  0  0  0  0  0  0  0  0  0  0  0
  2  1  1  0
  3  2  2  0
  4  5  2  0
  4  3  1  0
  5 11  1  0
  6  5  1  0
  7  6  1  0
  7  8  1  1
  9  7  1  0
  9 10  2  0
 11 12  2  0
 12  2  1  0
 13  9  1  0
 14 13  1  0
 14 15  1  1
 16 15  1  0
 16 17  2  0
 18 14  1  0
 19 18  2  0
 20 16  1  0
 21 18  1  0
 22 21  1  0
 23 22  1  0
 24 23  2  0
 25 23  1  0
M  END
$$$$
