YDG.pdb
     RDKit          3D

 25 25  0  0  1  0  0  0  0  0999 V2000
    5.6870  -10.8761   27.6642 O   0  0  0  0  0  0  0  0  0  0  0  0
    6.1965  -11.7784   26.7372 C   0  0  0  0  0  0  0  0  0  0  0  0
    5.6470  -13.0375   26.6231 C   0  0  0  0  0  0  0  0  0  0  0  0
    6.1122  -13.9727   25.7212 C   0  0  0  0  0  0  0  0  0  0  0  0
    7.1721  -13.6460   24.8926 C   0  0  0  0  0  0  0  0  0  0  0  0
    7.7065  -14.5993   23.9211 C   0  0  0  0  0  0  0  0  0  0  0  0
    8.3425  -15.8202   24.5374 C   0  0  2  0  0  0  0  0  0  0  0  0
    9.1593  -15.4857   25.6857 N   0  0  0  0  0  0  0  0  0  0  0  0
    9.2538  -16.3785   23.4905 C   0  0  0  0  0  0  0  0  0  0  0  0
    8.7515  -16.7788   22.4246 O   0  0  0  0  0  0  0  0  0  0  0  0
    7.7474  -12.3998   24.9762 C   0  0  0  0  0  0  0  0  0  0  0  0
    7.2509  -11.4824   25.8983 C   0  0  0  0  0  0  0  0  0  0  0  0
   10.6503  -16.4613   23.6779 N   0  0  0  0  0  0  0  0  0  0  0  0
   11.4359  -17.1520   22.6425 C   0  0  1  0  0  0  0  0  0  0  0  0
   11.7461  -16.0526   21.6342 C   0  0  0  0  0  0  0  0  0  0  0  0
   12.0370  -16.6550   20.3276 C   0  0  0  0  0  0  0  0  0  0  0  0
   11.7995  -17.9099   20.2040 O   0  0  0  0  0  0  0  0  0  0  0  0
   12.6524  -17.7300   23.2038 C   0  0  0  0  0  0  0  0  0  0  0  0
   12.7503  -18.9287   23.5937 O   0  0  0  0  0  0  0  0  0  0  0  0
   12.5453  -15.9091   19.2697 O   0  0  0  0  0  0  0  0  0  0  0  0
   13.8239  -16.9381   23.3360 N   0  0  0  0  0  0  0  0  0  0  0  0
   14.9925  -17.4231   24.0690 C   0  0  0  0  0  0  0  0  0  0  0  0
   16.0573  -16.4170   24.0868 C   0  0  0  0  0  0  0  0  0  0  0  0
   15.9608  -15.3851   23.3811 O   0  0  0  0  0  0  0  0  0  0  0  0
   17.1821  -16.5881   24.8789 O   0  0  0  0  0  0  0  0  0  0  0  0
  2  1  1  0
  3  2  2  0
  4  5  2  0
  4  3  1  0
  5 11  1  0
  6  5  1  0
  7  6  1  0
  7  8  1  1
  9  7  1  0
  9 10  2  0
 11 12  2  0
 12  2  1  0
 13  9  1  0
 14 13  1  0
 14 15  1  6
 16 15  1  0
 16 17  2  0
 18 14  1  0
 19 18  2  0
 20 16  1  0
 21 18  1  0
 22 21  1  0
 23 22  1  0
 24 23  2  0
 25 23  1  0
M  END
$$$$
