YDG.pdb
     RDKit          3D

 25 25  0  0  1  0  0  0  0  0999 V2000
    6.3634  -10.2028   26.7940 O   0  0  0  0  0  0  0  0  0  0  0  0
    6.6130  -11.4691   26.2770 C   0  0  0  0  0  0  0  0  0  0  0  0
    7.6392  -11.6585   25.3762 C   0  0  0  0  0  0  0  0  0  0  0  0
    7.9317  -12.8922   24.8313 C   0  0  0  0  0  0  0  0  0  0  0  0
    7.1723  -13.9910   25.1956 C   0  0  0  0  0  0  0  0  0  0  0  0
    7.4368  -15.3203   24.6470 C   0  0  0  0  0  0  0  0  0  0  0  0
    7.4145  -16.4280   25.6705 C   0  0  2  0  0  0  0  0  0  0  0  0
    7.8865  -15.9807   26.9646 N   0  0  0  0  0  0  0  0  0  0  0  0
    8.3792  -17.4595   25.1770 C   0  0  0  0  0  0  0  0  0  0  0  0
    9.5040  -17.5156   25.7065 O   0  0  0  0  0  0  0  0  0  0  0  0
    6.1398  -13.8427   26.0917 C   0  0  0  0  0  0  0  0  0  0  0  0
    5.8743  -12.5824   26.6204 C   0  0  0  0  0  0  0  0  0  0  0  0
    8.0506  -18.3592   24.1404 N   0  0  0  0  0  0  0  0  0  0  0  0
    9.0424  -19.3901   23.7944 C   0  0  1  0  0  0  0  0  0  0  0  0
    8.2002  -20.6418   23.5818 C   0  0  0  0  0  0  0  0  0  0  0  0
    7.8442  -21.2189   24.8837 C   0  0  0  0  0  0  0  0  0  0  0  0
    8.6461  -20.9859   25.8579 O   0  0  0  0  0  0  0  0  0  0  0  0
    9.7821  -19.0251   22.5907 C   0  0  0  0  0  0  0  0  0  0  0  0
   10.5064  -19.8282   21.9359 O   0  0  0  0  0  0  0  0  0  0  0  0
    6.6953  -21.9822   25.0613 O   0  0  0  0  0  0  0  0  0  0  0  0
    9.7119  -17.7002   22.0841 N   0  0  0  0  0  0  0  0  0  0  0  0
   10.4747  -17.2944   20.9043 C   0  0  0  0  0  0  0  0  0  0  0  0
   11.7995  -16.7948   21.2805 C   0  0  0  0  0  0  0  0  0  0  0  0
   12.2383  -16.9841   22.4397 O   0  0  0  0  0  0  0  0  0  0  0  0
   12.5849  -16.1086   20.3671 O   0  0  0  0  0  0  0  0  0  0  0  0
  2  1  1  0
  3  2  2  0
  4  5  2  0
  4  3  1  0
  5 11  1  0
  6  5  1  0
  7  6  1  0
  7  8  1  1
  9  7  1  0
  9 10  2  0
 11 12  2  0
 12  2  1  0
 13  9  1  0
 14 13  1  0
 14 15  1  6
 16 15  1  0
 16 17  2  0
 18 14  1  0
 19 18  2  0
 20 16  1  0
 21 18  1  0
 22 21  1  0
 23 22  1  0
 24 23  2  0
 25 23  1  0
M  END
$$$$
