YDG.pdb
     RDKit          3D

 25 25  0  0  1  0  0  0  0  0999 V2000
    5.5105  -10.7971   27.4747 O   0  0  0  0  0  0  0  0  0  0  0  0
    6.2868  -11.7390   26.8090 C   0  0  0  0  0  0  0  0  0  0  0  0
    6.6703  -12.8974   27.4505 C   0  0  0  0  0  0  0  0  0  0  0  0
    7.4400  -13.8658   26.8390 C   0  0  0  0  0  0  0  0  0  0  0  0
    7.8499  -13.6788   25.5299 C   0  0  0  0  0  0  0  0  0  0  0  0
    8.6688  -14.6709   24.8348 C   0  0  0  0  0  0  0  0  0  0  0  0
    7.8772  -15.6847   24.0469 C   0  0  2  0  0  0  0  0  0  0  0  0
    7.1787  -16.6162   24.9083 N   0  0  0  0  0  0  0  0  0  0  0  0
    8.8824  -16.4695   23.2648 C   0  0  0  0  0  0  0  0  0  0  0  0
    9.2054  -17.5961   23.6832 O   0  0  0  0  0  0  0  0  0  0  0  0
    7.4878  -12.5361   24.8559 C   0  0  0  0  0  0  0  0  0  0  0  0
    6.7104  -11.5812   25.5057 C   0  0  0  0  0  0  0  0  0  0  0  0
    9.4659  -15.9717   22.0799 N   0  0  0  0  0  0  0  0  0  0  0  0
   10.4315  -16.8358   21.3821 C   0  0  1  0  0  0  0  0  0  0  0  0
   10.2841  -16.4318   19.9204 C   0  0  0  0  0  0  0  0  0  0  0  0
    9.1447  -17.1433   19.3287 C   0  0  0  0  0  0  0  0  0  0  0  0
    8.9596  -18.3550   19.7081 O   0  0  0  0  0  0  0  0  0  0  0  0
   11.7877  -16.6108   21.8713 C   0  0  0  0  0  0  0  0  0  0  0  0
   12.8268  -17.0472   21.2984 O   0  0  0  0  0  0  0  0  0  0  0  0
    8.3015  -16.5406   18.4014 O   0  0  0  0  0  0  0  0  0  0  0  0
   12.0034  -15.8586   23.0564 N   0  0  0  0  0  0  0  0  0  0  0  0
   13.3513  -15.6085   23.5652 C   0  0  0  0  0  0  0  0  0  0  0  0
   13.9406  -16.8309   24.1172 C   0  0  0  0  0  0  0  0  0  0  0  0
   15.0725  -16.7972   24.6554 O   0  0  0  0  0  0  0  0  0  0  0  0
   13.2610  -18.0376   24.0539 O   0  0  0  0  0  0  0  0  0  0  0  0
  2  1  1  0
  3  2  2  0
  4  5  2  0
  4  3  1  0
  5 11  1  0
  6  5  1  0
  7  6  1  0
  7  8  1  1
  9  7  1  0
  9 10  2  0
 11 12  2  0
 12  2  1  0
 13  9  1  0
 14 13  1  0
 14 15  1  6
 16 15  1  0
 16 17  2  0
 18 14  1  0
 19 18  2  0
 20 16  1  0
 21 18  1  0
 22 21  1  0
 23 22  1  0
 24 23  2  0
 25 23  1  0
M  END
$$$$
