LDK.pdb
     RDKit          3D

 26 25  0  0  1  0  0  0  0  0999 V2000
   37.0776   -8.4043   -8.7229 C   0  0  0  0  0  0  0  0  0  0  0  0
   37.2606   -8.2275   -7.2098 C   0  0  2  0  0  0  0  0  0  0  0  0
   37.3386   -6.7586   -6.8855 C   0  0  0  0  0  0  0  0  0  0  0  0
   38.5332   -8.8909   -6.7835 C   0  0  0  0  0  0  0  0  0  0  0  0
   38.5904  -10.3562   -7.1438 C   0  0  2  0  0  0  0  0  0  0  0  0
   37.8035  -11.1181   -6.2405 N   0  0  0  0  0  0  0  0  0  0  0  0
   40.0186  -10.7515   -7.1991 C   0  0  0  0  0  0  0  0  0  0  0  0
   40.5446  -11.1244   -6.1186 O   0  0  0  0  0  0  0  0  0  0  0  0
   40.8031  -10.7349   -8.3614 N   0  0  0  0  0  0  0  0  0  0  0  0
   42.1792  -11.1711   -8.2933 C   0  0  1  0  0  0  0  0  0  0  0  0
   42.5487  -11.8053   -9.6026 C   0  0  0  0  0  0  0  0  0  0  0  0
   43.9483  -12.2724   -9.6628 C   0  0  0  0  0  0  0  0  0  0  0  0
   44.8563  -11.4422   -9.9616 O   0  0  0  0  0  0  0  0  0  0  0  0
   43.0938  -10.0487   -7.9409 C   0  0  0  0  0  0  0  0  0  0  0  0
   42.8547   -8.9301   -8.4558 O   0  0  0  0  0  0  0  0  0  0  0  0
   44.3447  -13.5669   -9.4140 O   0  0  0  0  0  0  0  0  0  0  0  0
   44.1563  -10.3050   -7.0644 N   0  0  0  0  0  0  0  0  0  0  0  0
   45.0685   -9.1462   -6.7269 C   0  0  1  0  0  0  0  0  0  0  0  0
   45.5308   -9.4932   -5.3684 C   0  0  0  0  0  0  0  0  0  0  0  0
   44.7495   -9.2525   -4.1632 C   0  0  0  0  0  0  0  0  0  0  0  0
   45.2345   -9.6412   -2.8266 C   0  0  0  0  0  0  0  0  0  0  0  0
   44.1014   -9.3213   -1.8180 C   0  0  0  0  0  0  0  0  0  0  0  0
   44.5367   -9.6542   -0.4931 N   0  0  0  0  0  0  0  0  0  0  0  0
   46.0513   -9.1401   -7.8134 C   0  0  0  0  0  0  0  0  0  0  0  0
   46.2331  -10.0370   -8.8239 O   0  0  0  0  0  0  0  0  0  0  0  0
   46.8825   -8.1537   -7.8390 O   0  0  0  0  0  0  0  0  0  0  0  0
  2  1  1  6
  2  4  1  0
  3  2  1  0
  5  4  1  0
  5  6  1  1
  7  5  1  0
  8  7  2  0
  9  7  1  0
 10 14  1  0
 10  9  1  0
 10 11  1  6
 12 13  2  0
 12 11  1  0
 14 15  2  0
 16 12  1  0
 17 18  1  0
 17 14  1  0
 18 19  1  1
 20 19  1  0
 21 20  1  0
 22 21  1  0
 23 22  1  0
 24 25  1  0
 24 18  1  0
 26 24  2  0
M  END
$$$$
