LDK.pdb
     RDKit          3D

 26 25  0  0  1  0  0  0  0  0999 V2000
   24.6681  -13.9045  -15.1808 C   0  0  0  0  0  0  0  0  0  0  0  0
   24.9164  -13.2120  -16.5272 C   0  0  2  0  0  0  0  0  0  0  0  0
   26.3637  -12.8046  -16.6188 C   0  0  0  0  0  0  0  0  0  0  0  0
   24.0571  -11.9896  -16.6217 C   0  0  0  0  0  0  0  0  0  0  0  0
   22.5791  -12.2974  -16.5953 C   0  0  2  0  0  0  0  0  0  0  0  0
   22.2255  -13.1176  -17.6988 N   0  0  0  0  0  0  0  0  0  0  0  0
   21.8509  -11.0072  -16.5304 C   0  0  0  0  0  0  0  0  0  0  0  0
   21.8211  -10.3207  -17.5844 O   0  0  0  0  0  0  0  0  0  0  0  0
   21.2058  -10.5158  -15.3862 N   0  0  0  0  0  0  0  0  0  0  0  0
   20.4827   -9.2668  -15.4623 C   0  0  1  0  0  0  0  0  0  0  0  0
   19.2373   -9.3800  -14.6321 C   0  0  0  0  0  0  0  0  0  0  0  0
   18.2490  -10.3361  -15.1705 C   0  0  0  0  0  0  0  0  0  0  0  0
   17.9485  -10.2763  -16.3989 O   0  0  0  0  0  0  0  0  0  0  0  0
   21.3298   -8.1157  -15.0406 C   0  0  0  0  0  0  0  0  0  0  0  0
   22.0776   -8.2866  -14.0480 O   0  0  0  0  0  0  0  0  0  0  0  0
   17.6195  -11.3042  -14.4213 O   0  0  0  0  0  0  0  0  0  0  0  0
   21.2431   -6.9222  -15.7692 N   0  0  0  0  0  0  0  0  0  0  0  0
   22.2462   -5.8380  -15.4415 C   0  0  1  0  0  0  0  0  0  0  0  0
   22.0343   -4.8703  -16.5360 C   0  0  0  0  0  0  0  0  0  0  0  0
   22.7610   -3.6139  -16.6554 C   0  0  0  0  0  0  0  0  0  0  0  0
   22.5000   -2.6607  -17.7490 C   0  0  0  0  0  0  0  0  0  0  0  0
   23.3831   -1.4133  -17.4891 C   0  0  0  0  0  0  0  0  0  0  0  0
   23.1780   -0.4588  -18.5391 N   0  0  0  0  0  0  0  0  0  0  0  0
   21.8960   -5.4310  -14.0784 C   0  0  0  0  0  0  0  0  0  0  0  0
   20.6796   -5.4154  -13.4629 O   0  0  0  0  0  0  0  0  0  0  0  0
   22.8620   -5.0179  -13.3296 O   0  0  0  0  0  0  0  0  0  0  0  0
  2  1  1  1
  2  4  1  0
  3  2  1  0
  5  4  1  0
  5  6  1  6
  7  5  1  0
  8  7  2  0
  9  7  1  0
 10 14  1  0
 10  9  1  0
 10 11  1  1
 12 13  2  0
 12 11  1  0
 14 15  2  0
 16 12  1  0
 17 18  1  0
 17 14  1  0
 18 19  1  6
 20 19  1  0
 21 20  1  0
 22 21  1  0
 23 22  1  0
 24 25  1  0
 24 18  1  0
 26 24  2  0
M  END
$$$$
