LDK.pdb
     RDKit          3D

 26 25  0  0  1  0  0  0  0  0999 V2000
   26.9527  -13.2078  -15.9977 C   0  0  0  0  0  0  0  0  0  0  0  0
   25.7733  -13.7695  -16.8026 C   0  0  2  0  0  0  0  0  0  0  0  0
   26.2790  -14.3161  -18.1120 C   0  0  0  0  0  0  0  0  0  0  0  0
   24.7927  -12.6719  -17.0765 C   0  0  0  0  0  0  0  0  0  0  0  0
   24.1980  -12.0780  -15.8221 C   0  0  2  0  0  0  0  0  0  0  0  0
   23.8234  -13.1067  -14.9181 N   0  0  0  0  0  0  0  0  0  0  0  0
   23.0878  -11.1833  -16.2292 C   0  0  0  0  0  0  0  0  0  0  0  0
   23.2957  -10.4398  -17.2228 O   0  0  0  0  0  0  0  0  0  0  0  0
   21.8437  -11.1173  -15.5853 N   0  0  0  0  0  0  0  0  0  0  0  0
   20.8097  -10.2659  -16.1280 C   0  0  1  0  0  0  0  0  0  0  0  0
   19.4853  -10.7035  -15.5735 C   0  0  0  0  0  0  0  0  0  0  0  0
   19.1118  -12.0830  -15.9452 C   0  0  0  0  0  0  0  0  0  0  0  0
   19.2515  -12.4497  -17.1490 O   0  0  0  0  0  0  0  0  0  0  0  0
   21.0813   -8.8273  -15.8501 C   0  0  0  0  0  0  0  0  0  0  0  0
   21.4884   -8.5316  -14.7010 O   0  0  0  0  0  0  0  0  0  0  0  0
   18.6140  -13.0155  -15.0634 O   0  0  0  0  0  0  0  0  0  0  0  0
   20.8687   -7.8985  -16.8772 N   0  0  0  0  0  0  0  0  0  0  0  0
   21.0915   -6.4391  -16.5462 C   0  0  1  0  0  0  0  0  0  0  0  0
   21.2901   -5.8392  -17.8804 C   0  0  0  0  0  0  0  0  0  0  0  0
   21.5952   -4.4317  -18.0959 C   0  0  0  0  0  0  0  0  0  0  0  0
   21.8652   -3.8870  -19.4387 C   0  0  0  0  0  0  0  0  0  0  0  0
   22.3040   -2.4116  -19.2542 C   0  0  0  0  0  0  0  0  0  0  0  0
   22.4854   -1.8054  -20.5408 N   0  0  0  0  0  0  0  0  0  0  0  0
   19.8970   -6.0612  -15.7867 C   0  0  0  0  0  0  0  0  0  0  0  0
   18.6581   -6.6302  -15.7782 O   0  0  0  0  0  0  0  0  0  0  0  0
   20.0045   -5.0397  -15.0060 O   0  0  0  0  0  0  0  0  0  0  0  0
  2  1  1  1
  2  4  1  0
  3  2  1  0
  5  4  1  0
  5  6  1  1
  7  5  1  0
  8  7  2  0
  9  7  1  0
 10 14  1  0
 10  9  1  0
 10 11  1  1
 12 13  2  0
 12 11  1  0
 14 15  2  0
 16 12  1  0
 17 18  1  0
 17 14  1  0
 18 19  1  6
 20 19  1  0
 21 20  1  0
 22 21  1  0
 23 22  1  0
 24 25  1  0
 24 18  1  0
 26 24  2  0
M  END
$$$$
