LDK.pdb
     RDKit          3D

 26 25  0  0  1  0  0  0  0  0999 V2000
   24.6604  -33.6251  -10.0219 C   0  0  0  0  0  0  0  0  0  0  0  0
   25.4261  -32.6546   -9.1131 C   0  0  2  0  0  0  0  0  0  0  0  0
   26.7093  -32.2466   -9.7883 C   0  0  0  0  0  0  0  0  0  0  0  0
   25.7491  -33.3366   -7.8201 C   0  0  0  0  0  0  0  0  0  0  0  0
   24.5226  -33.7379   -7.0360 C   0  0  2  0  0  0  0  0  0  0  0  0
   23.6397  -32.6343   -6.9009 N   0  0  0  0  0  0  0  0  0  0  0  0
   24.9793  -34.3205   -5.7512 C   0  0  0  0  0  0  0  0  0  0  0  0
   25.6156  -35.4041   -5.8157 O   0  0  0  0  0  0  0  0  0  0  0  0
   24.7489  -33.7470   -4.4923 N   0  0  0  0  0  0  0  0  0  0  0  0
   25.2040  -34.4359   -3.3062 C   0  0  1  0  0  0  0  0  0  0  0  0
   26.3971  -33.7103   -2.7557 C   0  0  0  0  0  0  0  0  0  0  0  0
   26.9734  -34.3417   -1.5516 C   0  0  0  0  0  0  0  0  0  0  0  0
   27.9862  -33.8098   -1.0091 O   0  0  0  0  0  0  0  0  0  0  0  0
   24.1166  -34.5655   -2.2956 C   0  0  0  0  0  0  0  0  0  0  0  0
   23.4420  -33.5385   -2.0434 O   0  0  0  0  0  0  0  0  0  0  0  0
   26.4818  -35.4863   -0.9661 O   0  0  0  0  0  0  0  0  0  0  0  0
   23.9127  -35.8135   -1.6924 N   0  0  0  0  0  0  0  0  0  0  0  0
   22.7686  -35.9271   -0.7090 C   0  0  1  0  0  0  0  0  0  0  0  0
   22.4260  -37.3609   -0.7870 C   0  0  0  0  0  0  0  0  0  0  0  0
   21.1913  -37.9262   -0.2610 C   0  0  0  0  0  0  0  0  0  0  0  0
   20.9029  -39.3703   -0.3256 C   0  0  0  0  0  0  0  0  0  0  0  0
   19.4730  -39.5769    0.2366 C   0  0  0  0  0  0  0  0  0  0  0  0
   19.1063  -40.9570    0.1073 N   0  0  0  0  0  0  0  0  0  0  0  0
   23.3264  -35.4145    0.5450 C   0  0  0  0  0  0  0  0  0  0  0  0
   22.6979  -34.8001    1.5872 O   0  0  0  0  0  0  0  0  0  0  0  0
   24.5988  -35.5475    0.7117 O   0  0  0  0  0  0  0  0  0  0  0  0
  2  1  1  6
  2  4  1  0
  3  2  1  0
  5  4  1  0
  5  6  1  1
  7  5  1  0
  8  7  2  0
  9  7  1  0
 10 14  1  0
 10  9  1  0
 10 11  1  1
 12 13  2  0
 12 11  1  0
 14 15  2  0
 16 12  1  0
 17 18  1  0
 17 14  1  0
 18 19  1  1
 20 19  1  0
 21 20  1  0
 22 21  1  0
 23 22  1  0
 24 25  1  0
 24 18  1  0
 26 24  2  0
M  END
$$$$
