LDK.pdb
     RDKit          3D

 26 25  0  0  1  0  0  0  0  0999 V2000
   27.9895  -20.7099  -14.0994 C   0  0  0  0  0  0  0  0  0  0  0  0
   26.8785  -19.8348  -14.6945 C   0  0  2  0  0  0  0  0  0  0  0  0
   27.3778  -18.4203  -14.8315 C   0  0  0  0  0  0  0  0  0  0  0  0
   25.6931  -19.8489  -13.7802 C   0  0  0  0  0  0  0  0  0  0  0  0
   25.0766  -21.2186  -13.6258 C   0  0  2  0  0  0  0  0  0  0  0  0
   25.2961  -21.9938  -14.7947 N   0  0  0  0  0  0  0  0  0  0  0  0
   23.6489  -21.0331  -13.2704 C   0  0  0  0  0  0  0  0  0  0  0  0
   23.4074  -20.3959  -12.2127 O   0  0  0  0  0  0  0  0  0  0  0  0
   22.5724  -21.5163  -14.0282 N   0  0  0  0  0  0  0  0  0  0  0  0
   21.2219  -21.2809  -13.5704 C   0  0  1  0  0  0  0  0  0  0  0  0
   20.4398  -20.6465  -14.6834 C   0  0  0  0  0  0  0  0  0  0  0  0
   20.8322  -19.2512  -14.9655 C   0  0  0  0  0  0  0  0  0  0  0  0
   20.6959  -18.3828  -14.0542 O   0  0  0  0  0  0  0  0  0  0  0  0
   20.5808  -22.5352  -13.0844 C   0  0  0  0  0  0  0  0  0  0  0  0
   20.9483  -23.6107  -13.6153 O   0  0  0  0  0  0  0  0  0  0  0  0
   21.3439  -18.8179  -16.1676 O   0  0  0  0  0  0  0  0  0  0  0  0
   19.6153  -22.4418  -12.0734 N   0  0  0  0  0  0  0  0  0  0  0  0
   19.0728  -23.7385  -11.5140 C   0  0  1  0  0  0  0  0  0  0  0  0
   19.0439  -23.4691  -10.0628 C   0  0  0  0  0  0  0  0  0  0  0  0
   18.6830  -24.4649   -9.0634 C   0  0  0  0  0  0  0  0  0  0  0  0
   18.5860  -24.1345   -7.6301 C   0  0  0  0  0  0  0  0  0  0  0  0
   18.1904  -25.4358   -6.8864 C   0  0  0  0  0  0  0  0  0  0  0  0
   18.2237  -25.2037   -5.4719 N   0  0  0  0  0  0  0  0  0  0  0  0
   17.7970  -23.9195  -12.2113 C   0  0  0  0  0  0  0  0  0  0  0  0
   17.1205  -25.0678  -12.4985 O   0  0  0  0  0  0  0  0  0  0  0  0
   17.2074  -22.8510  -12.6298 O   0  0  0  0  0  0  0  0  0  0  0  0
  2  1  1  1
  2  4  1  0
  3  2  1  0
  5  4  1  0
  5  6  1  6
  7  5  1  0
  8  7  2  0
  9  7  1  0
 10 14  1  0
 10  9  1  0
 10 11  1  6
 12 13  2  0
 12 11  1  0
 14 15  2  0
 16 12  1  0
 17 18  1  0
 17 14  1  0
 18 19  1  1
 20 19  1  0
 21 20  1  0
 22 21  1  0
 23 22  1  0
 24 25  1  0
 24 18  1  0
 26 24  2  0
M  END
$$$$
