LDK.pdb
     RDKit          3D

 26 25  0  0  1  0  0  0  0  0999 V2000
   16.9451  -14.2618  -15.8955 C   0  0  0  0  0  0  0  0  0  0  0  0
   18.3581  -13.9067  -16.3767 C   0  0  2  0  0  0  0  0  0  0  0  0
   19.3061  -15.0151  -16.0000 C   0  0  0  0  0  0  0  0  0  0  0  0
   18.8020  -12.6381  -15.7173 C   0  0  0  0  0  0  0  0  0  0  0  0
   17.9755  -11.4390  -16.1162 C   0  0  2  0  0  0  0  0  0  0  0  0
   17.6139  -11.5220  -17.4866 N   0  0  0  0  0  0  0  0  0  0  0  0
   18.7428  -10.2223  -15.7557 C   0  0  0  0  0  0  0  0  0  0  0  0
   19.0010  -10.0572  -14.5353 O   0  0  0  0  0  0  0  0  0  0  0  0
   19.1892   -9.2629  -16.6759 N   0  0  0  0  0  0  0  0  0  0  0  0
   19.8467   -8.0700  -16.1926 C   0  0  1  0  0  0  0  0  0  0  0  0
   21.2360   -8.0230  -16.7588 C   0  0  0  0  0  0  0  0  0  0  0  0
   22.0029   -6.8278  -16.3537 C   0  0  0  0  0  0  0  0  0  0  0  0
   21.9914   -6.4790  -15.1366 O   0  0  0  0  0  0  0  0  0  0  0  0
   19.0692   -6.8426  -16.5233 C   0  0  0  0  0  0  0  0  0  0  0  0
   18.7084   -6.6956  -17.7156 O   0  0  0  0  0  0  0  0  0  0  0  0
   22.7417   -6.0515  -17.2175 O   0  0  0  0  0  0  0  0  0  0  0  0
   18.7892   -5.9338  -15.4944 N   0  0  0  0  0  0  0  0  0  0  0  0
   18.0316   -4.6787  -15.8683 C   0  0  1  0  0  0  0  0  0  0  0  0
   16.8737   -4.7243  -14.9536 C   0  0  0  0  0  0  0  0  0  0  0  0
   15.5010   -4.9235  -15.3973 C   0  0  0  0  0  0  0  0  0  0  0  0
   14.9359   -6.2680  -15.6113 C   0  0  0  0  0  0  0  0  0  0  0  0
   13.4668   -6.0792  -16.0688 C   0  0  0  0  0  0  0  0  0  0  0  0
   12.9037   -7.3561  -16.3977 N   0  0  0  0  0  0  0  0  0  0  0  0
   19.0132   -3.6057  -15.6915 C   0  0  0  0  0  0  0  0  0  0  0  0
   20.2762   -3.6606  -15.1809 O   0  0  0  0  0  0  0  0  0  0  0  0
   18.6538   -2.4232  -16.0615 O   0  0  0  0  0  0  0  0  0  0  0  0
  2  1  1  1
  2  4  1  0
  3  2  1  0
  5  4  1  0
  5  6  1  6
  7  5  1  0
  8  7  2  0
  9  7  1  0
 10 14  1  0
 10  9  1  0
 10 11  1  6
 12 13  2  0
 12 11  1  0
 14 15  2  0
 16 12  1  0
 17 18  1  0
 17 14  1  0
 18 19  1  1
 20 19  1  0
 21 20  1  0
 22 21  1  0
 23 22  1  0
 24 25  1  0
 24 18  1  0
 26 24  2  0
M  END
$$$$
