LDK.pdb
     RDKit          3D

 26 25  0  0  1  0  0  0  0  0999 V2000
   27.5573  -12.9981  -15.2993 C   0  0  0  0  0  0  0  0  0  0  0  0
   26.3182  -13.3597  -16.1289 C   0  0  2  0  0  0  0  0  0  0  0  0
   26.7260  -13.5857  -17.5612 C   0  0  0  0  0  0  0  0  0  0  0  0
   25.3368  -12.2306  -16.0718 C   0  0  0  0  0  0  0  0  0  0  0  0
   23.9790  -12.5934  -16.6239 C   0  0  2  0  0  0  0  0  0  0  0  0
   24.1081  -13.1641  -17.9174 N   0  0  0  0  0  0  0  0  0  0  0  0
   23.1309  -11.3782  -16.5701 C   0  0  0  0  0  0  0  0  0  0  0  0
   23.1681  -10.6176  -17.5718 O   0  0  0  0  0  0  0  0  0  0  0  0
   22.3055  -11.0326  -15.4903 N   0  0  0  0  0  0  0  0  0  0  0  0
   21.4383   -9.8818  -15.6017 C   0  0  1  0  0  0  0  0  0  0  0  0
   20.1882  -10.1428  -14.8131 C   0  0  0  0  0  0  0  0  0  0  0  0
   19.4171  -11.3084  -15.2899 C   0  0  0  0  0  0  0  0  0  0  0  0
   19.0420  -12.1774  -14.4489 O   0  0  0  0  0  0  0  0  0  0  0  0
   22.1234   -8.6338  -15.1618 C   0  0  0  0  0  0  0  0  0  0  0  0
   23.0007   -8.7436  -14.2720 O   0  0  0  0  0  0  0  0  0  0  0  0
   19.0706  -11.5232  -16.6046 O   0  0  0  0  0  0  0  0  0  0  0  0
   21.7521   -7.4230  -15.7611 N   0  0  0  0  0  0  0  0  0  0  0  0
   22.5499   -6.1933  -15.3866 C   0  0  1  0  0  0  0  0  0  0  0  0
   22.3360   -5.3112  -16.5509 C   0  0  0  0  0  0  0  0  0  0  0  0
   22.9094   -3.9779  -16.6704 C   0  0  0  0  0  0  0  0  0  0  0  0
   22.7020   -3.1421  -17.8666 C   0  0  0  0  0  0  0  0  0  0  0  0
   23.4756   -1.8180  -17.6393 C   0  0  0  0  0  0  0  0  0  0  0  0
   23.4955   -1.0639  -18.8587 N   0  0  0  0  0  0  0  0  0  0  0  0
   21.9893   -5.7862  -14.0957 C   0  0  0  0  0  0  0  0  0  0  0  0
   22.5344   -5.0045  -13.1208 O   0  0  0  0  0  0  0  0  0  0  0  0
   20.8081   -6.2211  -13.8126 O   0  0  0  0  0  0  0  0  0  0  0  0
  2  1  1  1
  2  4  1  0
  3  2  1  0
  5  4  1  0
  5  6  1  6
  7  5  1  0
  8  7  2  0
  9  7  1  0
 10 14  1  0
 10  9  1  0
 10 11  1  1
 12 13  2  0
 12 11  1  0
 14 15  2  0
 16 12  1  0
 17 18  1  0
 17 14  1  0
 18 19  1  6
 20 19  1  0
 21 20  1  0
 22 21  1  0
 23 22  1  0
 24 25  1  0
 24 18  1  0
 26 24  2  0
M  END
$$$$
