LDK.pdb
     RDKit          3D

 26 25  0  0  1  0  0  0  0  0999 V2000
   21.4028  -13.4159  -17.9551 C   0  0  0  0  0  0  0  0  0  0  0  0
   20.3129  -12.6722  -18.7382 C   0  0  2  0  0  0  0  0  0  0  0  0
   20.7581  -12.4952  -20.1662 C   0  0  0  0  0  0  0  0  0  0  0  0
   20.0929  -11.3249  -18.1236 C   0  0  0  0  0  0  0  0  0  0  0  0
   19.6773  -11.3926  -16.6735 C   0  0  2  0  0  0  0  0  0  0  0  0
   18.5097  -12.1876  -16.5309 N   0  0  0  0  0  0  0  0  0  0  0  0
   19.5378  -10.0016  -16.1790 C   0  0  0  0  0  0  0  0  0  0  0  0
   19.6049   -9.0858  -17.0393 O   0  0  0  0  0  0  0  0  0  0  0  0
   19.3395   -9.6522  -14.8354 N   0  0  0  0  0  0  0  0  0  0  0  0
   19.1044   -8.2685  -14.4906 C   0  0  1  0  0  0  0  0  0  0  0  0
   18.2835   -8.2179  -13.2350 C   0  0  0  0  0  0  0  0  0  0  0  0
   16.9329   -8.7961  -13.3842 C   0  0  0  0  0  0  0  0  0  0  0  0
   16.3520   -8.7084  -14.5057 O   0  0  0  0  0  0  0  0  0  0  0  0
   20.3813   -7.5131  -14.3515 C   0  0  0  0  0  0  0  0  0  0  0  0
   21.3446   -8.1085  -13.8119 O   0  0  0  0  0  0  0  0  0  0  0  0
   16.2473   -9.4342  -12.3754 O   0  0  0  0  0  0  0  0  0  0  0  0
   20.4315   -6.1959  -14.8263 N   0  0  0  0  0  0  0  0  0  0  0  0
   21.7863   -5.5232  -14.8557 C   0  0  1  0  0  0  0  0  0  0  0  0
   21.7606   -4.8178  -16.1524 C   0  0  0  0  0  0  0  0  0  0  0  0
   22.7831   -3.8721  -16.5779 C   0  0  0  0  0  0  0  0  0  0  0  0
   22.6651   -3.1043  -17.8306 C   0  0  0  0  0  0  0  0  0  0  0  0
   23.8913   -2.1587  -17.9048 C   0  0  0  0  0  0  0  0  0  0  0  0
   23.8502   -1.4229  -19.1347 N   0  0  0  0  0  0  0  0  0  0  0  0
   21.8108   -4.7209  -13.6301 C   0  0  0  0  0  0  0  0  0  0  0  0
   20.7745   -4.2687  -12.8682 O   0  0  0  0  0  0  0  0  0  0  0  0
   22.9714   -4.3736  -13.1866 O   0  0  0  0  0  0  0  0  0  0  0  0
  2  1  1  1
  2  4  1  0
  3  2  1  0
  5  4  1  0
  5  6  1  6
  7  5  1  0
  8  7  2  0
  9  7  1  0
 10 14  1  0
 10  9  1  0
 10 11  1  1
 12 13  2  0
 12 11  1  0
 14 15  2  0
 16 12  1  0
 17 18  1  0
 17 14  1  0
 18 19  1  6
 20 19  1  0
 21 20  1  0
 22 21  1  0
 23 22  1  0
 24 25  1  0
 24 18  1  0
 26 24  2  0
M  END
$$$$
