LDK.pdb
     RDKit          3D

 26 25  0  0  1  0  0  0  0  0999 V2000
   14.6855  -10.6945  -17.2730 C   0  0  0  0  0  0  0  0  0  0  0  0
   14.3741  -11.6631  -16.1244 C   0  0  2  0  0  0  0  0  0  0  0  0
   12.8860  -11.7006  -15.8938 C   0  0  0  0  0  0  0  0  0  0  0  0
   15.0507  -11.1865  -14.8769 C   0  0  0  0  0  0  0  0  0  0  0  0
   16.5491  -11.0667  -15.0209 C   0  0  2  0  0  0  0  0  0  0  0  0
   17.1547  -12.3496  -14.9670 N   0  0  0  0  0  0  0  0  0  0  0  0
   17.0270  -10.1176  -13.9866 C   0  0  0  0  0  0  0  0  0  0  0  0
   17.0424  -10.5348  -12.7996 O   0  0  0  0  0  0  0  0  0  0  0  0
   17.4547   -8.8077  -14.2473 N   0  0  0  0  0  0  0  0  0  0  0  0
   17.8858   -7.9718  -13.1499 C   0  0  1  0  0  0  0  0  0  0  0  0
   18.8424   -6.9418  -13.6760 C   0  0  0  0  0  0  0  0  0  0  0  0
   20.1500   -7.4964  -14.0802 C   0  0  0  0  0  0  0  0  0  0  0  0
   20.7002   -8.3636  -13.3397 O   0  0  0  0  0  0  0  0  0  0  0  0
   16.7288   -7.3491  -12.4470 C   0  0  0  0  0  0  0  0  0  0  0  0
   15.8403   -6.8226  -13.1591 O   0  0  0  0  0  0  0  0  0  0  0  0
   20.8262   -7.1330  -15.2227 O   0  0  0  0  0  0  0  0  0  0  0  0
   16.7005   -7.3874  -11.0468 N   0  0  0  0  0  0  0  0  0  0  0  0
   15.6141   -6.5932  -10.3556 C   0  0  1  0  0  0  0  0  0  0  0  0
   14.9406   -7.6228   -9.5395 C   0  0  0  0  0  0  0  0  0  0  0  0
   13.7124   -7.3865   -8.7936 C   0  0  0  0  0  0  0  0  0  0  0  0
   13.0833   -8.4354   -7.9710 C   0  0  0  0  0  0  0  0  0  0  0  0
   11.8897   -7.7807   -7.2292 C   0  0  0  0  0  0  0  0  0  0  0  0
   11.1796   -8.7849   -6.4923 N   0  0  0  0  0  0  0  0  0  0  0  0
   16.3406   -5.5256   -9.6637 C   0  0  0  0  0  0  0  0  0  0  0  0
   17.6796   -5.3850   -9.4494 O   0  0  0  0  0  0  0  0  0  0  0  0
   15.6325   -4.5662   -9.1711 O   0  0  0  0  0  0  0  0  0  0  0  0
  2  1  1  6
  2  4  1  0
  3  2  1  0
  5  4  1  0
  5  6  1  1
  7  5  1  0
  8  7  2  0
  9  7  1  0
 10 14  1  0
 10  9  1  0
 10 11  1  6
 12 13  2  0
 12 11  1  0
 14 15  2  0
 16 12  1  0
 17 18  1  0
 17 14  1  0
 18 19  1  1
 20 19  1  0
 21 20  1  0
 22 21  1  0
 23 22  1  0
 24 25  1  0
 24 18  1  0
 26 24  2  0
M  END
$$$$
