LDK.pdb
     RDKit          3D

 26 25  0  0  1  0  0  0  0  0999 V2000
   24.8488  -18.9471  -18.3863 C   0  0  0  0  0  0  0  0  0  0  0  0
   24.7544  -18.0389  -17.1532 C   0  0  2  0  0  0  0  0  0  0  0  0
   25.5628  -16.7903  -17.3908 C   0  0  0  0  0  0  0  0  0  0  0  0
   25.3064  -18.7601  -15.9631 C   0  0  0  0  0  0  0  0  0  0  0  0
   24.5448  -20.0190  -15.6238 C   0  0  2  0  0  0  0  0  0  0  0  0
   24.1809  -20.7108  -16.8090 N   0  0  0  0  0  0  0  0  0  0  0  0
   23.4017  -19.6358  -14.7604 C   0  0  0  0  0  0  0  0  0  0  0  0
   23.6816  -19.1406  -13.6380 O   0  0  0  0  0  0  0  0  0  0  0  0
   22.0531  -19.7893  -15.1131 N   0  0  0  0  0  0  0  0  0  0  0  0
   21.0275  -19.4736  -14.1451 C   0  0  1  0  0  0  0  0  0  0  0  0
   20.2286  -18.3086  -14.6526 C   0  0  0  0  0  0  0  0  0  0  0  0
   19.1782  -17.8562  -13.7185 C   0  0  0  0  0  0  0  0  0  0  0  0
   19.4462  -17.7938  -12.4826 O   0  0  0  0  0  0  0  0  0  0  0  0
   20.1663  -20.6541  -13.8533 C   0  0  0  0  0  0  0  0  0  0  0  0
   19.8128  -21.3614  -14.8271 O   0  0  0  0  0  0  0  0  0  0  0  0
   17.9068  -17.4915  -14.0997 O   0  0  0  0  0  0  0  0  0  0  0  0
   19.8052  -20.9030  -12.5227 N   0  0  0  0  0  0  0  0  0  0  0  0
   18.9421  -22.1167  -12.2563 C   0  0  1  0  0  0  0  0  0  0  0  0
   19.2256  -22.4004  -10.8355 C   0  0  0  0  0  0  0  0  0  0  0  0
   18.7086  -23.5616  -10.1249 C   0  0  0  0  0  0  0  0  0  0  0  0
   19.1433  -23.8986   -8.7573 C   0  0  0  0  0  0  0  0  0  0  0  0
   18.2246  -25.0412   -8.2537 C   0  0  0  0  0  0  0  0  0  0  0  0
   18.6801  -25.4861   -6.9690 N   0  0  0  0  0  0  0  0  0  0  0  0
   17.5922  -21.6789  -12.6202 C   0  0  0  0  0  0  0  0  0  0  0  0
   16.5130  -22.4198  -13.0014 O   0  0  0  0  0  0  0  0  0  0  0  0
   17.3651  -20.4093  -12.5879 O   0  0  0  0  0  0  0  0  0  0  0  0
  2  1  1  6
  2  4  1  0
  3  2  1  0
  5  4  1  0
  5  6  1  6
  7  5  1  0
  8  7  2  0
  9  7  1  0
 10 14  1  0
 10  9  1  0
 10 11  1  6
 12 13  2  0
 12 11  1  0
 14 15  2  0
 16 12  1  0
 17 18  1  0
 17 14  1  0
 18 19  1  1
 20 19  1  0
 21 20  1  0
 22 21  1  0
 23 22  1  0
 24 25  1  0
 24 18  1  0
 26 24  2  0
M  END
$$$$
