LDK.pdb
     RDKit          3D

 26 25  0  0  1  0  0  0  0  0999 V2000
   18.8185  -13.7095  -17.8050 C   0  0  0  0  0  0  0  0  0  0  0  0
   19.6060  -13.7912  -16.4908 C   0  0  2  0  0  0  0  0  0  0  0  0
   18.9527  -14.7974  -15.5800 C   0  0  0  0  0  0  0  0  0  0  0  0
   19.5985  -12.4507  -15.8243 C   0  0  0  0  0  0  0  0  0  0  0  0
   20.2899  -11.3796  -16.6335 C   0  0  2  0  0  0  0  0  0  0  0  0
   21.6441  -11.7350  -16.8687 N   0  0  0  0  0  0  0  0  0  0  0  0
   20.1072  -10.0901  -15.9244 C   0  0  0  0  0  0  0  0  0  0  0  0
   19.5085  -10.1325  -14.8185 O   0  0  0  0  0  0  0  0  0  0  0  0
   20.5533   -8.8498  -16.4034 N   0  0  0  0  0  0  0  0  0  0  0  0
   20.1962   -7.6450  -15.6897 C   0  0  1  0  0  0  0  0  0  0  0  0
   21.1938   -6.5741  -16.0232 C   0  0  0  0  0  0  0  0  0  0  0  0
   20.9785   -5.3116  -15.2882 C   0  0  0  0  0  0  0  0  0  0  0  0
   21.6419   -4.2877  -15.6268 O   0  0  0  0  0  0  0  0  0  0  0  0
   18.8008   -7.2199  -15.9943 C   0  0  0  0  0  0  0  0  0  0  0  0
   18.4126   -7.3331  -17.1817 O   0  0  0  0  0  0  0  0  0  0  0  0
   20.0944   -5.1639  -14.2435 O   0  0  0  0  0  0  0  0  0  0  0  0
   18.0119   -6.7239  -14.9481 N   0  0  0  0  0  0  0  0  0  0  0  0
   16.5665   -6.4067  -15.2631 C   0  0  1  0  0  0  0  0  0  0  0  0
   15.8398   -7.3907  -14.4366 C   0  0  0  0  0  0  0  0  0  0  0  0
   14.4068   -7.6294  -14.5380 C   0  0  0  0  0  0  0  0  0  0  0  0
   13.7058   -8.5701  -13.6455 C   0  0  0  0  0  0  0  0  0  0  0  0
   12.2171   -8.5876  -14.0776 C   0  0  0  0  0  0  0  0  0  0  0  0
   11.5160   -9.5874  -13.3262 N   0  0  0  0  0  0  0  0  0  0  0  0
   16.4337   -4.9867  -14.9279 C   0  0  0  0  0  0  0  0  0  0  0  0
   16.9360   -4.2952  -13.8657 O   0  0  0  0  0  0  0  0  0  0  0  0
   15.7405   -4.2611  -15.7388 O   0  0  0  0  0  0  0  0  0  0  0  0
  2  1  1  6
  2  4  1  0
  3  2  1  0
  5  4  1  0
  5  6  1  1
  7  5  1  0
  8  7  2  0
  9  7  1  0
 10 14  1  0
 10  9  1  0
 10 11  1  6
 12 13  2  0
 12 11  1  0
 14 15  2  0
 16 12  1  0
 17 18  1  0
 17 14  1  0
 18 19  1  1
 20 19  1  0
 21 20  1  0
 22 21  1  0
 23 22  1  0
 24 25  1  0
 24 18  1  0
 26 24  2  0
M  END
$$$$
