LDK.pdb
     RDKit          3D

 26 25  0  0  1  0  0  0  0  0999 V2000
   24.1113  -13.5466  -15.4330 C   0  0  0  0  0  0  0  0  0  0  0  0
   24.5262  -12.6795  -16.6290 C   0  0  2  0  0  0  0  0  0  0  0  0
   25.9892  -12.3397  -16.5145 C   0  0  0  0  0  0  0  0  0  0  0  0
   23.7278  -11.4131  -16.6235 C   0  0  0  0  0  0  0  0  0  0  0  0
   22.2394  -11.6470  -16.7233 C   0  0  2  0  0  0  0  0  0  0  0  0
   21.9248  -12.3174  -17.9346 N   0  0  0  0  0  0  0  0  0  0  0  0
   21.5646  -10.3377  -16.5524 C   0  0  0  0  0  0  0  0  0  0  0  0
   21.4952   -9.5999  -17.5693 O   0  0  0  0  0  0  0  0  0  0  0  0
   21.0098   -9.8811  -15.3480 N   0  0  0  0  0  0  0  0  0  0  0  0
   20.3215   -8.6106  -15.3221 C   0  0  1  0  0  0  0  0  0  0  0  0
   19.1235   -8.7301  -14.4257 C   0  0  0  0  0  0  0  0  0  0  0  0
   18.1031   -9.6762  -14.9202 C   0  0  0  0  0  0  0  0  0  0  0  0
   17.6466   -9.5242  -16.0914 O   0  0  0  0  0  0  0  0  0  0  0  0
   21.2260   -7.5051  -14.8976 C   0  0  0  0  0  0  0  0  0  0  0  0
   22.1313   -7.7874  -14.0764 O   0  0  0  0  0  0  0  0  0  0  0  0
   17.6031  -10.7292  -14.1882 O   0  0  0  0  0  0  0  0  0  0  0  0
   21.0153   -6.2283  -15.4345 N   0  0  0  0  0  0  0  0  0  0  0  0
   22.0716   -5.1804  -15.1604 C   0  0  1  0  0  0  0  0  0  0  0  0
   21.7691   -4.1533  -16.1767 C   0  0  0  0  0  0  0  0  0  0  0  0
   22.5015   -2.9009  -16.3024 C   0  0  0  0  0  0  0  0  0  0  0  0
   22.1809   -1.9090  -17.3446 C   0  0  0  0  0  0  0  0  0  0  0  0
   23.1630   -0.7230  -17.1650 C   0  0  0  0  0  0  0  0  0  0  0  0
   22.8951    0.2711  -18.1629 N   0  0  0  0  0  0  0  0  0  0  0  0
   21.8749   -4.8390  -13.7493 C   0  0  0  0  0  0  0  0  0  0  0  0
   22.7644   -4.3380  -12.8457 O   0  0  0  0  0  0  0  0  0  0  0  0
   20.6961   -5.0356  -13.2633 O   0  0  0  0  0  0  0  0  0  0  0  0
  2  1  1  1
  2  4  1  0
  3  2  1  0
  5  4  1  0
  5  6  1  6
  7  5  1  0
  8  7  2  0
  9  7  1  0
 10 14  1  0
 10  9  1  0
 10 11  1  1
 12 13  2  0
 12 11  1  0
 14 15  2  0
 16 12  1  0
 17 18  1  0
 17 14  1  0
 18 19  1  6
 20 19  1  0
 21 20  1  0
 22 21  1  0
 23 22  1  0
 24 25  1  0
 24 18  1  0
 26 24  2  0
M  END
$$$$
