LDK.pdb
     RDKit          3D

 26 25  0  0  1  0  0  0  0  0999 V2000
   24.2032  -14.3949  -17.7830 C   0  0  0  0  0  0  0  0  0  0  0  0
   23.8286  -15.4339  -18.8481 C   0  0  2  0  0  0  0  0  0  0  0  0
   22.7875  -14.8517  -19.7679 C   0  0  0  0  0  0  0  0  0  0  0  0
   23.2657  -16.6490  -18.1788 C   0  0  0  0  0  0  0  0  0  0  0  0
   24.1620  -17.2017  -17.0966 C   0  0  2  0  0  0  0  0  0  0  0  0
   25.4337  -17.5365  -17.6317 N   0  0  0  0  0  0  0  0  0  0  0  0
   23.4489  -18.3319  -16.4539 C   0  0  0  0  0  0  0  0  0  0  0  0
   22.3825  -18.7132  -17.0023 O   0  0  0  0  0  0  0  0  0  0  0  0
   23.8834  -18.9886  -15.2934 N   0  0  0  0  0  0  0  0  0  0  0  0
   23.1797  -20.1670  -14.8409 C   0  0  1  0  0  0  0  0  0  0  0  0
   24.1582  -21.0817  -14.1635 C   0  0  0  0  0  0  0  0  0  0  0  0
   25.1489  -21.6776  -15.0822 C   0  0  0  0  0  0  0  0  0  0  0  0
   25.0839  -21.3973  -16.3151 O   0  0  0  0  0  0  0  0  0  0  0  0
   22.0377  -19.8160  -13.9504 C   0  0  0  0  0  0  0  0  0  0  0  0
   22.2675  -19.0193  -13.0092 O   0  0  0  0  0  0  0  0  0  0  0  0
   26.1553  -22.5306  -14.6893 O   0  0  0  0  0  0  0  0  0  0  0  0
   20.7868  -20.3900  -14.2132 N   0  0  0  0  0  0  0  0  0  0  0  0
   19.6401  -19.9910  -13.3106 C   0  0  1  0  0  0  0  0  0  0  0  0
   18.5292  -19.8205  -14.2678 C   0  0  0  0  0  0  0  0  0  0  0  0
   17.1911  -19.3923  -13.8844 C   0  0  0  0  0  0  0  0  0  0  0  0
   16.1208  -19.1892  -14.8773 C   0  0  0  0  0  0  0  0  0  0  0  0
   14.8756  -18.6762  -14.1093 C   0  0  0  0  0  0  0  0  0  0  0  0
   13.7819  -18.5253  -15.0241 N   0  0  0  0  0  0  0  0  0  0  0  0
   19.5566  -21.0841  -12.3387 C   0  0  0  0  0  0  0  0  0  0  0  0
   20.0799  -22.3415  -12.4001 O   0  0  0  0  0  0  0  0  0  0  0  0
   18.8919  -20.8506  -11.2580 O   0  0  0  0  0  0  0  0  0  0  0  0
  2  1  1  1
  2  4  1  0
  3  2  1  0
  5  4  1  0
  5  6  1  6
  7  5  1  0
  8  7  2  0
  9  7  1  0
 10 14  1  0
 10  9  1  0
 10 11  1  1
 12 13  2  0
 12 11  1  0
 14 15  2  0
 16 12  1  0
 17 18  1  0
 17 14  1  0
 18 19  1  6
 20 19  1  0
 21 20  1  0
 22 21  1  0
 23 22  1  0
 24 25  1  0
 24 18  1  0
 26 24  2  0
M  END
$$$$
