LDK.pdb
     RDKit          3D

 26 25  0  0  1  0  0  0  0  0999 V2000
   27.6229  -11.4641  -15.3928 C   0  0  0  0  0  0  0  0  0  0  0  0
   27.5179  -11.1536  -16.8917 C   0  0  2  0  0  0  0  0  0  0  0  0
   28.8111  -10.5443  -17.3663 C   0  0  0  0  0  0  0  0  0  0  0  0
   26.4051  -10.1781  -17.1190 C   0  0  0  0  0  0  0  0  0  0  0  0
   25.0456  -10.7332  -16.7671 C   0  0  2  0  0  0  0  0  0  0  0  0
   24.8048  -11.9380  -17.4784 N   0  0  0  0  0  0  0  0  0  0  0  0
   24.0458   -9.6655  -17.0104 C   0  0  0  0  0  0  0  0  0  0  0  0
   23.5633   -9.5960  -18.1704 O   0  0  0  0  0  0  0  0  0  0  0  0
   23.6141   -8.7460  -16.0435 N   0  0  0  0  0  0  0  0  0  0  0  0
   22.6449   -7.7377  -16.4079 C   0  0  1  0  0  0  0  0  0  0  0  0
   21.9811   -7.2344  -15.1593 C   0  0  0  0  0  0  0  0  0  0  0  0
   21.1274   -8.2389  -14.4938 C   0  0  0  0  0  0  0  0  0  0  0  0
   20.4910   -9.0683  -15.2079 O   0  0  0  0  0  0  0  0  0  0  0  0
   23.2693   -6.6336  -17.1899 C   0  0  0  0  0  0  0  0  0  0  0  0
   24.4076   -6.2480  -16.8305 O   0  0  0  0  0  0  0  0  0  0  0  0
   20.9699   -8.3408  -13.1301 O   0  0  0  0  0  0  0  0  0  0  0  0
   22.5566   -6.0960  -18.2697 N   0  0  0  0  0  0  0  0  0  0  0  0
   23.2062   -4.9605  -19.0298 C   0  0  1  0  0  0  0  0  0  0  0  0
   23.2048   -5.4670  -20.4165 C   0  0  0  0  0  0  0  0  0  0  0  0
   23.7425   -4.7246  -21.5481 C   0  0  0  0  0  0  0  0  0  0  0  0
   23.7635   -5.2845  -22.9115 C   0  0  0  0  0  0  0  0  0  0  0  0
   24.3433   -4.1918  -23.8459 C   0  0  0  0  0  0  0  0  0  0  0  0
   24.3678   -4.6825  -25.1929 N   0  0  0  0  0  0  0  0  0  0  0  0
   22.3708   -3.7990  -18.7148 C   0  0  0  0  0  0  0  0  0  0  0  0
   22.6494   -2.4703  -18.8401 O   0  0  0  0  0  0  0  0  0  0  0  0
   21.1943   -4.0406  -18.2437 O   0  0  0  0  0  0  0  0  0  0  0  0
  2  1  1  1
  2  4  1  0
  3  2  1  0
  5  4  1  0
  5  6  1  6
  7  5  1  0
  8  7  2  0
  9  7  1  0
 10 14  1  0
 10  9  1  0
 10 11  1  1
 12 13  2  0
 12 11  1  0
 14 15  2  0
 16 12  1  0
 17 18  1  0
 17 14  1  0
 18 19  1  6
 20 19  1  0
 21 20  1  0
 22 21  1  0
 23 22  1  0
 24 25  1  0
 24 18  1  0
 26 24  2  0
M  END
$$$$
