TGV.pdb
     RDKit          3D

 19 18  0  0  1  0  0  0  0  0999 V2000
    8.6776  -13.0847   16.9762 C   0  0  0  0  0  0  0  0  0  0  0  0
    7.9212  -13.5964   18.1641 C   0  0  1  0  0  0  0  0  0  0  0  0
    7.7597  -14.9992   18.0920 O   0  0  0  0  0  0  0  0  0  0  0  0
    8.7416  -13.3458   19.4199 C   0  0  2  0  0  0  0  0  0  0  0  0
    9.9105  -14.1865   19.3194 N   0  0  0  0  0  0  0  0  0  0  0  0
    7.9953  -13.7137   20.6407 C   0  0  0  0  0  0  0  0  0  0  0  0
    7.0066  -13.0134   21.0552 O   0  0  0  0  0  0  0  0  0  0  0  0
    8.3112  -14.8392   21.4215 N   0  0  0  0  0  0  0  0  0  0  0  0
    7.5130  -15.2699   22.5562 C   0  0  0  0  0  0  0  0  0  0  0  0
    8.1377  -14.7251   23.8034 C   0  0  0  0  0  0  0  0  0  0  0  0
    9.4035  -14.6226   23.8876 O   0  0  0  0  0  0  0  0  0  0  0  0
    5.8275  -13.1597   27.0640 C   0  0  0  0  0  0  0  0  0  0  0  0
    7.2878  -12.7756   26.8201 C   0  0  2  0  0  0  0  0  0  0  0  0
    7.3615  -11.5664   25.9112 C   0  0  0  0  0  0  0  0  0  0  0  0
    8.0244  -13.9034   26.1325 C   0  0  2  0  0  0  0  0  0  0  0  0
    7.3731  -14.3109   24.9142 N   0  0  0  0  0  0  0  0  0  0  0  0
    8.1463  -15.0342   27.0698 C   0  0  0  0  0  0  0  0  0  0  0  0
    7.4959  -16.0842   26.9263 O   0  0  0  0  0  0  0  0  0  0  0  0
    9.0118  -14.9216   28.1417 O   0  0  0  0  0  0  0  0  0  0  0  0
  2  1  1  6
  2  3  1  0
  4  6  1  0
  4  2  1  0
  4  5  1  6
  6  7  2  0
  6  8  1  0
  8  9  1  0
  9 10  1  0
 10 11  2  0
 13 12  1  6
 13 15  1  0
 14 13  1  0
 15 17  1  0
 16 10  1  0
 15 16  1  6
 17 18  2  0
 17 19  1  0
M  END
$$$$
