TGV.pdb
     RDKit          3D

 19 18  0  0  1  0  0  0  0  0999 V2000
    9.3039  -13.7281   17.0813 C   0  0  0  0  0  0  0  0  0  0  0  0
    9.0543  -14.4431   18.3741 C   0  0  1  0  0  0  0  0  0  0  0  0
    9.8432  -13.8963   19.4123 O   0  0  0  0  0  0  0  0  0  0  0  0
    7.6113  -14.2146   18.7967 C   0  0  2  0  0  0  0  0  0  0  0  0
    7.5032  -12.8178   19.1439 N   0  0  0  0  0  0  0  0  0  0  0  0
    7.2544  -15.0269   19.9780 C   0  0  0  0  0  0  0  0  0  0  0  0
    7.2663  -16.3066   19.9364 O   0  0  0  0  0  0  0  0  0  0  0  0
    6.8825  -14.4633   21.2110 N   0  0  0  0  0  0  0  0  0  0  0  0
    6.6288  -15.2539   22.4030 C   0  0  0  0  0  0  0  0  0  0  0  0
    7.4216  -14.6698   23.5312 C   0  0  0  0  0  0  0  0  0  0  0  0
    8.5818  -14.1940   23.3132 O   0  0  0  0  0  0  0  0  0  0  0  0
    5.8884  -12.1909   25.9375 C   0  0  0  0  0  0  0  0  0  0  0  0
    6.7830  -13.1077   26.7734 C   0  0  2  0  0  0  0  0  0  0  0  0
    7.6803  -12.2803   27.6702 C   0  0  0  0  0  0  0  0  0  0  0  0
    7.6781  -13.9348   25.8778 C   0  0  2  0  0  0  0  0  0  0  0  0
    6.9329  -14.6205   24.8536 N   0  0  0  0  0  0  0  0  0  0  0  0
    8.4336  -14.8887   26.7093 C   0  0  0  0  0  0  0  0  0  0  0  0
    8.0898  -16.0776   26.8287 O   0  0  0  0  0  0  0  0  0  0  0  0
    9.5599  -14.4452   27.3767 O   0  0  0  0  0  0  0  0  0  0  0  0
  2  1  1  6
  2  3  1  0
  4  6  1  0
  4  2  1  0
  4  5  1  1
  6  7  2  0
  6  8  1  0
  8  9  1  0
  9 10  1  0
 10 11  2  0
 13 12  1  6
 13 15  1  0
 14 13  1  0
 15 17  1  0
 16 10  1  0
 15 16  1  6
 17 18  2  0
 17 19  1  0
M  END
$$$$
