TGV.pdb
     RDKit          3D

 19 18  0  0  1  0  0  0  0  0999 V2000
    4.4842  -17.9579   20.6880 C   0  0  0  0  0  0  0  0  0  0  0  0
    4.6086  -18.2262   22.1568 C   0  0  1  0  0  0  0  0  0  0  0  0
    3.7917  -19.3146   22.5407 O   0  0  0  0  0  0  0  0  0  0  0  0
    6.0338  -18.6600   22.4628 C   0  0  2  0  0  0  0  0  0  0  0  0
    6.1063  -18.8477   23.8920 N   0  0  0  0  0  0  0  0  0  0  0  0
    7.0141  -17.6273   22.0688 C   0  0  0  0  0  0  0  0  0  0  0  0
    7.4320  -17.5293   20.8624 O   0  0  0  0  0  0  0  0  0  0  0  0
    7.5492  -16.6943   22.9740 N   0  0  0  0  0  0  0  0  0  0  0  0
    8.5066  -15.6716   22.5896 C   0  0  0  0  0  0  0  0  0  0  0  0
    8.7857  -14.8162   23.7866 C   0  0  0  0  0  0  0  0  0  0  0  0
    9.8293  -14.0883   23.8181 O   0  0  0  0  0  0  0  0  0  0  0  0
    5.9218  -13.7515   26.7754 C   0  0  0  0  0  0  0  0  0  0  0  0
    7.2484  -13.0434   26.4957 C   0  0  2  0  0  0  0  0  0  0  0  0
    7.0832  -12.0647   25.3517 C   0  0  0  0  0  0  0  0  0  0  0  0
    8.3065  -14.0433   26.0856 C   0  0  2  0  0  0  0  0  0  0  0  0
    7.9279  -14.7777   24.9059 N   0  0  0  0  0  0  0  0  0  0  0  0
    8.5639  -14.9546   27.2149 C   0  0  0  0  0  0  0  0  0  0  0  0
    8.2681  -16.1615   27.1705 O   0  0  0  0  0  0  0  0  0  0  0  0
    9.1530  -14.4493   28.3588 O   0  0  0  0  0  0  0  0  0  0  0  0
  2  1  1  6
  2  3  1  0
  4  6  1  0
  4  2  1  0
  4  5  1  1
  6  7  2  0
  6  8  1  0
  8  9  1  0
  9 10  1  0
 10 11  2  0
 13 12  1  6
 13 15  1  0
 14 13  1  0
 15 17  1  0
 16 10  1  0
 15 16  1  6
 17 18  2  0
 17 19  1  0
M  END
$$$$
