TGV.pdb
     RDKit          3D

 19 18  0  0  1  0  0  0  0  0999 V2000
    9.4636  -18.4895   21.7313 C   0  0  0  0  0  0  0  0  0  0  0  0
    8.3245  -18.4149   20.7608 C   0  0  1  0  0  0  0  0  0  0  0  0
    8.4867  -19.3588   19.7206 O   0  0  0  0  0  0  0  0  0  0  0  0
    7.0401  -18.8110   21.4723 C   0  0  2  0  0  0  0  0  0  0  0  0
    6.0273  -18.9317   20.4511 N   0  0  0  0  0  0  0  0  0  0  0  0
    6.6154  -17.7817   22.4434 C   0  0  0  0  0  0  0  0  0  0  0  0
    6.1448  -16.6547   22.0586 O   0  0  0  0  0  0  0  0  0  0  0  0
    6.6961  -17.9622   23.8352 N   0  0  0  0  0  0  0  0  0  0  0  0
    6.1148  -17.0370   24.7925 C   0  0  0  0  0  0  0  0  0  0  0  0
    7.1084  -15.9480   25.0556 C   0  0  0  0  0  0  0  0  0  0  0  0
    8.2777  -16.0209   24.5585 O   0  0  0  0  0  0  0  0  0  0  0  0
    6.2527  -12.5206   27.5612 C   0  0  0  0  0  0  0  0  0  0  0  0
    7.1583  -12.4460   26.3308 C   0  0  2  0  0  0  0  0  0  0  0  0
    6.3450  -12.0699   25.1097 C   0  0  0  0  0  0  0  0  0  0  0  0
    7.7903  -13.7922   26.0557 C   0  0  2  0  0  0  0  0  0  0  0  0
    6.8033  -14.8200   25.8459 N   0  0  0  0  0  0  0  0  0  0  0  0
    8.6823  -14.1378   27.1769 C   0  0  0  0  0  0  0  0  0  0  0  0
    8.4313  -15.0731   27.9567 O   0  0  0  0  0  0  0  0  0  0  0  0
    9.8341  -13.3971   27.3655 O   0  0  0  0  0  0  0  0  0  0  0  0
  2  1  1  1
  2  3  1  0
  4  6  1  0
  4  2  1  0
  4  5  1  6
  6  7  2  0
  6  8  1  0
  8  9  1  0
  9 10  1  0
 10 11  2  0
 13 12  1  1
 13 15  1  0
 14 13  1  0
 15 17  1  0
 16 10  1  0
 15 16  1  1
 17 18  2  0
 17 19  1  0
M  END
$$$$
