TGV.pdb
     RDKit          3D

 19 18  0  0  1  0  0  0  0  0999 V2000
    9.3940  -17.8616   21.4144 C   0  0  0  0  0  0  0  0  0  0  0  0
    8.2540  -18.1755   20.4942 C   0  0  1  0  0  0  0  0  0  0  0  0
    8.6151  -19.1838   19.5711 O   0  0  0  0  0  0  0  0  0  0  0  0
    7.1078  -18.7591   21.3058 C   0  0  2  0  0  0  0  0  0  0  0  0
    6.1100  -19.1875   20.3550 N   0  0  0  0  0  0  0  0  0  0  0  0
    6.5070  -17.7509   22.2033 C   0  0  0  0  0  0  0  0  0  0  0  0
    5.8464  -16.7557   21.7420 O   0  0  0  0  0  0  0  0  0  0  0  0
    6.6154  -17.8106   23.6035 N   0  0  0  0  0  0  0  0  0  0  0  0
    6.0020  -16.8380   24.4912 C   0  0  0  0  0  0  0  0  0  0  0  0
    7.0507  -15.8517   24.9035 C   0  0  0  0  0  0  0  0  0  0  0  0
    8.2640  -16.0356   24.5656 O   0  0  0  0  0  0  0  0  0  0  0  0
    6.2369  -12.5249   27.5093 C   0  0  0  0  0  0  0  0  0  0  0  0
    7.2116  -12.3935   26.3378 C   0  0  2  0  0  0  0  0  0  0  0  0
    6.4886  -11.8605   25.1184 C   0  0  0  0  0  0  0  0  0  0  0  0
    7.7829  -13.7447   25.9698 C   0  0  2  0  0  0  0  0  0  0  0  0
    6.7515  -14.7029   25.6655 N   0  0  0  0  0  0  0  0  0  0  0  0
    8.6346  -14.2189   27.0751 C   0  0  0  0  0  0  0  0  0  0  0  0
    8.2651  -15.1115   27.8578 O   0  0  0  0  0  0  0  0  0  0  0  0
    9.8838  -13.6518   27.2449 O   0  0  0  0  0  0  0  0  0  0  0  0
  2  1  1  1
  2  3  1  0
  4  6  1  0
  4  2  1  0
  4  5  1  6
  6  7  2  0
  6  8  1  0
  8  9  1  0
  9 10  1  0
 10 11  2  0
 13 12  1  1
 13 15  1  0
 14 13  1  0
 15 17  1  0
 16 10  1  0
 15 16  1  1
 17 18  2  0
 17 19  1  0
M  END
$$$$
