TGV.pdb
     RDKit          3D

 19 18  0  0  1  0  0  0  0  0999 V2000
    6.7871  -13.7072   20.0969 C   0  0  0  0  0  0  0  0  0  0  0  0
    8.0576  -14.4341   20.4172 C   0  0  1  0  0  0  0  0  0  0  0  0
    8.9679  -13.5852   21.0880 O   0  0  0  0  0  0  0  0  0  0  0  0
    7.7530  -15.5577   21.3957 C   0  0  2  0  0  0  0  0  0  0  0  0
    7.1453  -14.9410   22.5505 N   0  0  0  0  0  0  0  0  0  0  0  0
    8.9826  -16.2569   21.8224 C   0  0  0  0  0  0  0  0  0  0  0  0
    9.6483  -16.9913   21.0117 O   0  0  0  0  0  0  0  0  0  0  0  0
    9.5011  -16.1680   23.1260 N   0  0  0  0  0  0  0  0  0  0  0  0
   10.7626  -16.7687   23.5232 C   0  0  0  0  0  0  0  0  0  0  0  0
   11.0369  -16.3876   24.9452 C   0  0  0  0  0  0  0  0  0  0  0  0
   12.1754  -16.6302   25.4599 O   0  0  0  0  0  0  0  0  0  0  0  0
    8.9481  -13.4055   26.6976 C   0  0  0  0  0  0  0  0  0  0  0  0
    9.3618  -14.4687   27.7164 C   0  0  2  0  0  0  0  0  0  0  0  0
    9.9962  -13.8110   28.9243 C   0  0  0  0  0  0  0  0  0  0  0  0
   10.3897  -15.4035   27.1189 C   0  0  2  0  0  0  0  0  0  0  0  0
   10.0721  -15.7584   25.7597 N   0  0  0  0  0  0  0  0  0  0  0  0
   10.4924  -16.6039   27.9678 C   0  0  0  0  0  0  0  0  0  0  0  0
    9.7506  -17.5894   27.8110 O   0  0  0  0  0  0  0  0  0  0  0  0
   11.4444  -16.6328   28.9696 O   0  0  0  0  0  0  0  0  0  0  0  0
  2  1  1  1
  2  3  1  0
  4  6  1  0
  4  2  1  0
  4  5  1  1
  6  7  2  0
  6  8  1  0
  8  9  1  0
  9 10  1  0
 10 11  2  0
 13 12  1  6
 13 15  1  0
 14 13  1  0
 15 17  1  0
 16 10  1  0
 15 16  1  6
 17 18  2  0
 17 19  1  0
M  END
$$$$
