TGV.pdb
     RDKit          3D

 19 18  0  0  1  0  0  0  0  0999 V2000
-2118.9663 5112.0820 3988.8442 C   0  0  0  0  0  0  0  0  0  0  0  0
-2118.3767 5110.7119 3988.9854 C   0  0  1  0  0  0  0  0  0  0  0  0
-2118.5327 5109.9722 3987.7891 O   0  0  0  0  0  0  0  0  0  0  0  0
-2116.8738 5110.8398 3989.1890 C   0  0  2  0  0  0  0  0  0  0  0  0
-2116.3049 5109.5576 3988.8452 N   0  0  0  0  0  0  0  0  0  0  0  0
-2116.5364 5111.1470 3990.5938 C   0  0  0  0  0  0  0  0  0  0  0  0
-2117.2952 5110.7778 3991.5562 O   0  0  0  0  0  0  0  0  0  0  0  0
-2115.3811 5111.8516 3990.9688 N   0  0  0  0  0  0  0  0  0  0  0  0
-2115.3979 5112.9976 3991.8643 C   0  0  0  0  0  0  0  0  0  0  0  0
-2116.5176 5113.9009 3991.4458 C   0  0  0  0  0  0  0  0  0  0  0  0
-2116.6929 5115.0103 3992.0425 O   0  0  0  0  0  0  0  0  0  0  0  0
-2121.0457 5114.3613 3989.8062 C   0  0  0  0  0  0  0  0  0  0  0  0
-2119.5393 5114.6313 3989.8311 C   0  0  2  0  0  0  0  0  0  0  0  0
-2118.9829 5114.5913 3988.4233 C   0  0  0  0  0  0  0  0  0  0  0  0
-2118.8262 5113.5605 3990.6279 C   0  0  2  0  0  0  0  0  0  0  0  0
-2117.4031 5113.5742 3990.3984 N   0  0  0  0  0  0  0  0  0  0  0  0
-2119.4045 5112.2480 3990.2891 C   0  0  0  0  0  0  0  0  0  0  0  0
-2118.8804 5111.4922 3989.4531 O   0  0  0  0  0  0  0  0  0  0  0  0
-2120.5647 5111.8472 3990.9248 O   0  0  0  0  0  0  0  0  0  0  0  0
  2  1  1  6
  2  3  1  0
  4  6  1  0
  4  2  1  0
  4  5  1  1
  6  7  2  0
  6  8  1  0
  8  9  1  0
  9 10  1  0
 10 11  2  0
 13 12  1  6
 13 15  1  0
 14 13  1  0
 15 17  1  0
 16 10  1  0
 15 16  1  6
 17 18  2  0
 17 19  1  0
M  END
$$$$
