TGV.pdb
     RDKit          3D

 19 18  0  0  1  0  0  0  0  0999 V2000
    9.8298  -19.6187   20.6528 C   0  0  0  0  0  0  0  0  0  0  0  0
    9.5408  -18.3169   21.3360 C   0  0  1  0  0  0  0  0  0  0  0  0
   10.7266  -17.7452   21.8522 O   0  0  0  0  0  0  0  0  0  0  0  0
    9.0235  -17.3217   20.3089 C   0  0  2  0  0  0  0  0  0  0  0  0
   10.0934  -17.1181   19.3618 N   0  0  0  0  0  0  0  0  0  0  0  0
    8.6851  -16.0244   20.9296 C   0  0  0  0  0  0  0  0  0  0  0  0
    9.4417  -15.0007   20.7912 O   0  0  0  0  0  0  0  0  0  0  0  0
    7.5285  -15.8240   21.7030 N   0  0  0  0  0  0  0  0  0  0  0  0
    7.1248  -14.5233   22.2083 C   0  0  0  0  0  0  0  0  0  0  0  0
    7.7738  -14.3156   23.5418 C   0  0  0  0  0  0  0  0  0  0  0  0
    8.9973  -14.6243   23.7080 O   0  0  0  0  0  0  0  0  0  0  0  0
    5.6394  -12.6082   26.8357 C   0  0  0  0  0  0  0  0  0  0  0  0
    7.0936  -12.2339   26.5444 C   0  0  2  0  0  0  0  0  0  0  0  0
    7.1459  -11.0179   25.6430 C   0  0  0  0  0  0  0  0  0  0  0  0
    7.7966  -13.3619   25.8227 C   0  0  2  0  0  0  0  0  0  0  0  0
    7.0783  -13.7823   24.6472 N   0  0  0  0  0  0  0  0  0  0  0  0
    7.9804  -14.4851   26.7590 C   0  0  0  0  0  0  0  0  0  0  0  0
    7.3775  -15.5640   26.6229 O   0  0  0  0  0  0  0  0  0  0  0  0
    8.8514  -14.3320   27.8214 O   0  0  0  0  0  0  0  0  0  0  0  0
  2  1  1  6
  2  3  1  0
  4  6  1  0
  4  2  1  0
  4  5  1  6
  6  7  2  0
  6  8  1  0
  8  9  1  0
  9 10  1  0
 10 11  2  0
 13 12  1  6
 13 15  1  0
 14 13  1  0
 15 17  1  0
 16 10  1  0
 15 16  1  6
 17 18  2  0
 17 19  1  0
M  END
$$$$
