TGV.pdb
     RDKit          3D

 19 18  0  0  1  0  0  0  0  0999 V2000
    8.4854  -12.9662   17.1896 C   0  0  0  0  0  0  0  0  0  0  0  0
    7.8553  -13.6195   18.3817 C   0  0  1  0  0  0  0  0  0  0  0  0
    7.9608  -15.0271   18.2987 O   0  0  0  0  0  0  0  0  0  0  0  0
    8.6304  -13.2268   19.6299 C   0  0  2  0  0  0  0  0  0  0  0  0
    9.9502  -13.7933   19.4870 N   0  0  0  0  0  0  0  0  0  0  0  0
    8.0080  -13.7748   20.8526 C   0  0  0  0  0  0  0  0  0  0  0  0
    6.9140  -13.2974   21.3163 O   0  0  0  0  0  0  0  0  0  0  0  0
    8.5620  -14.8411   21.5822 N   0  0  0  0  0  0  0  0  0  0  0  0
    7.9073  -15.4452   22.7297 C   0  0  0  0  0  0  0  0  0  0  0  0
    8.3990  -14.7581   23.9661 C   0  0  0  0  0  0  0  0  0  0  0  0
    9.6492  -14.6474   24.1772 O   0  0  0  0  0  0  0  0  0  0  0  0
    5.7236  -13.2455   26.9922 C   0  0  0  0  0  0  0  0  0  0  0  0
    7.1159  -12.6524   26.7701 C   0  0  2  0  0  0  0  0  0  0  0  0
    7.0368  -11.4910   25.8012 C   0  0  0  0  0  0  0  0  0  0  0  0
    8.0408  -13.6843   26.1641 C   0  0  2  0  0  0  0  0  0  0  0  0
    7.5230  -14.2157   24.9296 N   0  0  0  0  0  0  0  0  0  0  0  0
    8.2663  -14.7582   27.1478 C   0  0  0  0  0  0  0  0  0  0  0  0
    7.8157  -15.9060   26.9879 O   0  0  0  0  0  0  0  0  0  0  0  0
    9.0025  -14.4782   28.2838 O   0  0  0  0  0  0  0  0  0  0  0  0
  2  1  1  6
  2  3  1  0
  4  6  1  0
  4  2  1  0
  4  5  1  6
  6  7  2  0
  6  8  1  0
  8  9  1  0
  9 10  1  0
 10 11  2  0
 13 12  1  6
 13 15  1  0
 14 13  1  0
 15 17  1  0
 16 10  1  0
 15 16  1  6
 17 18  2  0
 17 19  1  0
M  END
$$$$
