ESS.pdb
     RDKit          3D

 22 21  0  0  1  0  0  0  0  0999 V2000
   18.8161  -11.7814  -17.3906 N   0  0  0  0  0  0  0  0  0  0  0  0
   18.0459  -10.5531  -17.4039 C   0  0  1  0  0  0  0  0  0  0  0  0
   17.0211  -10.5405  -16.3163 C   0  0  0  0  0  0  0  0  0  0  0  0
   16.7869  -11.8428  -15.6427 C   0  0  0  0  0  0  0  0  0  0  0  0
   15.7211  -11.7947  -14.6322 C   0  0  0  0  0  0  0  0  0  0  0  0
   15.7942  -11.1472  -13.5715 O   0  0  0  0  0  0  0  0  0  0  0  0
   18.9287   -9.3615  -17.2558 C   0  0  0  0  0  0  0  0  0  0  0  0
   20.1040   -9.5318  -16.8459 O   0  0  0  0  0  0  0  0  0  0  0  0
   14.5336  -12.5107  -14.8427 O   0  0  0  0  0  0  0  0  0  0  0  0
   18.8700   -5.8570  -19.4392 O   0  0  0  0  0  0  0  0  0  0  0  0
   18.8711   -5.6700  -18.0595 C   0  0  0  0  0  0  0  0  0  0  0  0
   19.3986   -6.9145  -17.3518 C   0  0  2  0  0  0  0  0  0  0  0  0
   18.5260   -8.0307  -17.5504 N   0  0  0  0  0  0  0  0  0  0  0  0
   19.6344   -6.5914  -15.9304 C   0  0  0  0  0  0  0  0  0  0  0  0
   18.6328   -6.5730  -15.1698 O   0  0  0  0  0  0  0  0  0  0  0  0
   22.8457   -7.6435  -13.9616 O   0  0  0  0  0  0  0  0  0  0  0  0
   21.6641   -7.3232  -13.2805 C   0  0  0  0  0  0  0  0  0  0  0  0
   21.1057   -6.0842  -13.9519 C   0  0  2  0  0  0  0  0  0  0  0  0
   20.8925   -6.3033  -15.3651 N   0  0  0  0  0  0  0  0  0  0  0  0
   21.9894   -4.9210  -13.7894 C   0  0  0  0  0  0  0  0  0  0  0  0
   22.5661   -4.4270  -14.7726 O   0  0  0  0  0  0  0  0  0  0  0  0
   22.1775   -4.3771  -12.5387 O   0  0  0  0  0  0  0  0  0  0  0  0
  2  1  1  1
  2  7  1  0
  3  4  1  0
  3  2  1  0
  5  4  1  0
  6  5  2  0
  7  8  2  0
  7 13  1  0
  9  5  1  0
 10 11  1  0
 12 14  1  0
 12 11  1  6
 13 12  1  0
 14 19  1  0
 15 14  2  0
 16 17  1  0
 18 17  1  6
 18 20  1  0
 19 18  1  0
 20 21  2  0
 20 22  1  0
M  END
$$$$
