ESS.pdb
     RDKit          3D

 22 21  0  0  1  0  0  0  0  0999 V2000
   21.1234  -11.7021  -17.6073 N   0  0  0  0  0  0  0  0  0  0  0  0
   21.4397  -10.3846  -18.1234 C   0  0  1  0  0  0  0  0  0  0  0  0
   20.7519  -10.1296  -19.4254 C   0  0  0  0  0  0  0  0  0  0  0  0
   20.1431  -11.3198  -20.0714 C   0  0  0  0  0  0  0  0  0  0  0  0
   19.5493  -11.0325  -21.3844 C   0  0  0  0  0  0  0  0  0  0  0  0
   19.4712   -9.8934  -21.8805 O   0  0  0  0  0  0  0  0  0  0  0  0
   21.0575   -9.3196  -17.1533 C   0  0  0  0  0  0  0  0  0  0  0  0
   19.8651   -9.2635  -16.7617 O   0  0  0  0  0  0  0  0  0  0  0  0
   19.0283  -12.0827  -22.1543 O   0  0  0  0  0  0  0  0  0  0  0  0
   21.5258   -6.8032  -13.3556 O   0  0  0  0  0  0  0  0  0  0  0  0
   22.0234   -7.7161  -14.2816 C   0  0  0  0  0  0  0  0  0  0  0  0
   21.5497   -7.3628  -15.6883 C   0  0  2  0  0  0  0  0  0  0  0  0
   21.9614   -8.3525  -16.6358 N   0  0  0  0  0  0  0  0  0  0  0  0
   22.0088   -5.9987  -16.0179 C   0  0  0  0  0  0  0  0  0  0  0  0
   23.1940   -5.8707  -16.4190 O   0  0  0  0  0  0  0  0  0  0  0  0
   21.0951   -1.3714  -16.9941 O   0  0  0  0  0  0  0  0  0  0  0  0
   20.5310   -2.5797  -16.5646 C   0  0  0  0  0  0  0  0  0  0  0  0
   21.6890   -3.5158  -16.2812 C   0  0  2  0  0  0  0  0  0  0  0  0
   21.2214   -4.8346  -15.9168 N   0  0  0  0  0  0  0  0  0  0  0  0
   22.5546   -3.0148  -15.2040 C   0  0  0  0  0  0  0  0  0  0  0  0
   22.2389   -3.1824  -14.0142 O   0  0  0  0  0  0  0  0  0  0  0  0
   23.7220   -2.3561  -15.5181 O   0  0  0  0  0  0  0  0  0  0  0  0
  2  1  1  1
  2  7  1  0
  3  4  1  0
  3  2  1  0
  5  4  1  0
  6  5  2  0
  7  8  2  0
  7 13  1  0
  9  5  1  0
 10 11  1  0
 12 14  1  0
 12 11  1  1
 13 12  1  0
 14 19  1  0
 15 14  2  0
 16 17  1  0
 18 17  1  1
 18 20  1  0
 19 18  1  0
 20 21  2  0
 20 22  1  0
M  END
$$$$
