ESS.pdb
     RDKit          3D

 22 21  0  0  1  0  0  0  0  0999 V2000
   18.0034  -12.8029  -15.6072 N   0  0  0  0  0  0  0  0  0  0  0  0
   18.6237  -11.8815  -16.5390 C   0  0  1  0  0  0  0  0  0  0  0  0
   17.5993  -11.1237  -17.3199 C   0  0  0  0  0  0  0  0  0  0  0  0
   17.3403   -9.7364  -16.8585 C   0  0  0  0  0  0  0  0  0  0  0  0
   16.3245   -9.0354  -17.6558 C   0  0  0  0  0  0  0  0  0  0  0  0
   16.3866   -7.8301  -17.9609 O   0  0  0  0  0  0  0  0  0  0  0  0
   19.5108  -10.9150  -15.8317 C   0  0  0  0  0  0  0  0  0  0  0  0
   19.1171  -10.4227  -14.7449 O   0  0  0  0  0  0  0  0  0  0  0  0
   15.2015   -9.7366  -18.1188 O   0  0  0  0  0  0  0  0  0  0  0  0
   23.6002  -10.9342  -15.2776 O   0  0  0  0  0  0  0  0  0  0  0  0
   23.0913   -9.8101  -15.9226 C   0  0  0  0  0  0  0  0  0  0  0  0
   21.6202   -9.6115  -15.5698 C   0  0  2  0  0  0  0  0  0  0  0  0
   20.7861  -10.5082  -16.3093 N   0  0  0  0  0  0  0  0  0  0  0  0
   21.2728   -8.1885  -15.7558 C   0  0  0  0  0  0  0  0  0  0  0  0
   20.8773   -7.8362  -16.8966 O   0  0  0  0  0  0  0  0  0  0  0  0
   19.2058   -5.8911  -13.5824 O   0  0  0  0  0  0  0  0  0  0  0  0
   20.3890   -5.1699  -13.7882 C   0  0  0  0  0  0  0  0  0  0  0  0
   21.0716   -5.8003  -14.9858 C   0  0  2  0  0  0  0  0  0  0  0  0
   21.3511   -7.2001  -14.7547 N   0  0  0  0  0  0  0  0  0  0  0  0
   22.3320   -5.1238  -15.3239 C   0  0  0  0  0  0  0  0  0  0  0  0
   23.4122   -5.7330  -15.2509 O   0  0  0  0  0  0  0  0  0  0  0  0
   22.3127   -3.8065  -15.7240 O   0  0  0  0  0  0  0  0  0  0  0  0
  2  1  1  1
  2  7  1  0
  3  4  1  0
  3  2  1  0
  5  4  1  0
  6  5  2  0
  7  8  2  0
  7 13  1  0
  9  5  1  0
 10 11  1  0
 12 14  1  0
 12 11  1  6
 13 12  1  0
 14 19  1  0
 15 14  2  0
 16 17  1  0
 18 17  1  1
 18 20  1  0
 19 18  1  0
 20 21  2  0
 20 22  1  0
M  END
$$$$
