ESS.pdb
     RDKit          3D

 22 21  0  0  1  0  0  0  0  0999 V2000
   20.1816  -12.7177  -17.6530 N   0  0  0  0  0  0  0  0  0  0  0  0
   19.8504  -11.3234  -17.8732 C   0  0  1  0  0  0  0  0  0  0  0  0
   18.4900  -11.1744  -18.4735 C   0  0  0  0  0  0  0  0  0  0  0  0
   18.1998  -12.0607  -19.6288 C   0  0  0  0  0  0  0  0  0  0  0  0
   16.8937  -11.8019  -20.2503 C   0  0  0  0  0  0  0  0  0  0  0  0
   15.8157  -12.2541  -19.8226 O   0  0  0  0  0  0  0  0  0  0  0  0
   19.9100  -10.5478  -16.6019 C   0  0  0  0  0  0  0  0  0  0  0  0
   19.1991  -10.9221  -15.6360 O   0  0  0  0  0  0  0  0  0  0  0  0
   16.8193  -10.9996  -21.3984 O   0  0  0  0  0  0  0  0  0  0  0  0
   23.0675   -9.3106  -14.8173 O   0  0  0  0  0  0  0  0  0  0  0  0
   21.8089   -9.3223  -14.2221 C   0  0  0  0  0  0  0  0  0  0  0  0
   20.7703   -8.7076  -15.1557 C   0  0  2  0  0  0  0  0  0  0  0  0
   20.7259   -9.4005  -16.4066 N   0  0  0  0  0  0  0  0  0  0  0  0
   21.0429   -7.2624  -15.2874 C   0  0  0  0  0  0  0  0  0  0  0  0
   21.8343   -6.9058  -16.1976 O   0  0  0  0  0  0  0  0  0  0  0  0
   20.1482   -2.6560  -14.1629 O   0  0  0  0  0  0  0  0  0  0  0  0
   19.7229   -3.9813  -14.0036 C   0  0  0  0  0  0  0  0  0  0  0  0
   20.8142   -4.8544  -14.5906 C   0  0  2  0  0  0  0  0  0  0  0  0
   20.4847   -6.2574  -14.4728 N   0  0  0  0  0  0  0  0  0  0  0  0
   22.1139   -4.6257  -13.9434 C   0  0  0  0  0  0  0  0  0  0  0  0
   22.4151   -5.2361  -12.9041 O   0  0  0  0  0  0  0  0  0  0  0  0
   23.0015   -3.7289  -14.4943 O   0  0  0  0  0  0  0  0  0  0  0  0
  2  1  1  1
  2  7  1  0
  3  4  1  0
  3  2  1  0
  5  4  1  0
  6  5  2  0
  7  8  2  0
  7 13  1  0
  9  5  1  0
 10 11  1  0
 12 14  1  0
 12 11  1  1
 13 12  1  0
 14 19  1  0
 15 14  2  0
 16 17  1  0
 18 17  1  1
 18 20  1  0
 19 18  1  0
 20 21  2  0
 20 22  1  0
M  END
$$$$
