ESS.pdb
     RDKit          3D

 22 21  0  0  1  0  0  0  0  0999 V2000
   21.6370  -13.6391  -17.3061 N   0  0  0  0  0  0  0  0  0  0  0  0
   20.9243  -12.4124  -17.6052 C   0  0  1  0  0  0  0  0  0  0  0  0
   19.6301  -12.3387  -16.8617 C   0  0  0  0  0  0  0  0  0  0  0  0
   18.5723  -13.2723  -17.3242 C   0  0  0  0  0  0  0  0  0  0  0  0
   17.2921  -13.0979  -16.6244 C   0  0  0  0  0  0  0  0  0  0  0  0
   16.2050  -12.8994  -17.1976 O   0  0  0  0  0  0  0  0  0  0  0  0
   21.7474  -11.2156  -17.2714 C   0  0  0  0  0  0  0  0  0  0  0  0
   22.3269  -11.1769  -16.1574 O   0  0  0  0  0  0  0  0  0  0  0  0
   17.2550  -13.1525  -15.2234 O   0  0  0  0  0  0  0  0  0  0  0  0
   24.1288   -8.8753  -19.6703 O   0  0  0  0  0  0  0  0  0  0  0  0
   23.1514   -8.1687  -18.9747 C   0  0  0  0  0  0  0  0  0  0  0  0
   22.6888   -8.9575  -17.7534 C   0  0  2  0  0  0  0  0  0  0  0  0
   21.9226  -10.1028  -18.1380 N   0  0  0  0  0  0  0  0  0  0  0  0
   21.9736   -8.0451  -16.8388 C   0  0  0  0  0  0  0  0  0  0  0  0
   20.7731   -7.7838  -17.1079 O   0  0  0  0  0  0  0  0  0  0  0  0
   20.9604   -6.3032  -12.6285 O   0  0  0  0  0  0  0  0  0  0  0  0
   21.7693   -7.1594  -13.3869 C   0  0  0  0  0  0  0  0  0  0  0  0
   21.7947   -6.5909  -14.7919 C   0  0  2  0  0  0  0  0  0  0  0  0
   22.5337   -7.4480  -15.6920 N   0  0  0  0  0  0  0  0  0  0  0  0
   22.3900   -5.2477  -14.8346 C   0  0  0  0  0  0  0  0  0  0  0  0
   23.5836   -5.0982  -15.1451 O   0  0  0  0  0  0  0  0  0  0  0  0
   21.6178   -4.1497  -14.5284 O   0  0  0  0  0  0  0  0  0  0  0  0
  2  1  1  1
  2  7  1  0
  3  4  1  0
  3  2  1  0
  5  4  1  0
  6  5  2  0
  7  8  2  0
  7 13  1  0
  9  5  1  0
 10 11  1  0
 12 14  1  0
 12 11  1  6
 13 12  1  0
 14 19  1  0
 15 14  2  0
 16 17  1  0
 18 17  1  1
 18 20  1  0
 19 18  1  0
 20 21  2  0
 20 22  1  0
M  END
$$$$
