ESS.pdb
     RDKit          3D

 22 21  0  0  1  0  0  0  0  0999 V2000
   18.4811  -10.1828  -18.2467 N   0  0  0  0  0  0  0  0  0  0  0  0
   17.7750   -9.6207  -17.1119 C   0  0  1  0  0  0  0  0  0  0  0  0
   17.0021  -10.6679  -16.3775 C   0  0  0  0  0  0  0  0  0  0  0  0
   17.8112  -11.7632  -15.7859 C   0  0  0  0  0  0  0  0  0  0  0  0
   16.9993  -12.8499  -15.2209 C   0  0  0  0  0  0  0  0  0  0  0  0
   16.2955  -13.6203  -15.8998 O   0  0  0  0  0  0  0  0  0  0  0  0
   18.7164   -8.9565  -16.1664 C   0  0  0  0  0  0  0  0  0  0  0  0
   18.2556   -8.4653  -15.1059 O   0  0  0  0  0  0  0  0  0  0  0  0
   16.9928  -13.0614  -13.8344 O   0  0  0  0  0  0  0  0  0  0  0  0
   22.5389  -10.0128  -14.9688 O   0  0  0  0  0  0  0  0  0  0  0  0
   22.4125   -8.7623  -15.5678 C   0  0  0  0  0  0  0  0  0  0  0  0
   20.9860   -8.2412  -15.4215 C   0  0  2  0  0  0  0  0  0  0  0  0
   20.1157   -8.8402  -16.3862 N   0  0  0  0  0  0  0  0  0  0  0  0
   21.0087   -6.7659  -15.4783 C   0  0  0  0  0  0  0  0  0  0  0  0
   20.9723   -6.2324  -16.6167 O   0  0  0  0  0  0  0  0  0  0  0  0
   19.8297   -2.5338  -13.8940 O   0  0  0  0  0  0  0  0  0  0  0  0
   19.7700   -3.9277  -13.7670 C   0  0  0  0  0  0  0  0  0  0  0  0
   21.0138   -4.4724  -14.4408 C   0  0  2  0  0  0  0  0  0  0  0  0
   21.0678   -5.9149  -14.3568 N   0  0  0  0  0  0  0  0  0  0  0  0
   22.2455   -3.9256  -13.8539 C   0  0  0  0  0  0  0  0  0  0  0  0
   22.7535   -4.4551  -12.8514 O   0  0  0  0  0  0  0  0  0  0  0  0
   22.8382   -2.8197  -14.4205 O   0  0  0  0  0  0  0  0  0  0  0  0
  2  1  1  6
  2  7  1  0
  3  4  1  0
  3  2  1  0
  5  4  1  0
  6  5  2  0
  7  8  2  0
  7 13  1  0
  9  5  1  0
 10 11  1  0
 12 14  1  0
 12 11  1  6
 13 12  1  0
 14 19  1  0
 15 14  2  0
 16 17  1  0
 18 17  1  1
 18 20  1  0
 19 18  1  0
 20 21  2  0
 20 22  1  0
M  END
$$$$
