ESS.pdb
     RDKit          3D

 22 21  0  0  1  0  0  0  0  0999 V2000
   19.9378  -11.5588  -17.6211 N   0  0  0  0  0  0  0  0  0  0  0  0
   19.2809  -10.8769  -16.5230 C   0  0  1  0  0  0  0  0  0  0  0  0
   18.7096  -11.8484  -15.5417 C   0  0  0  0  0  0  0  0  0  0  0  0
   17.7736  -12.8531  -16.1067 C   0  0  0  0  0  0  0  0  0  0  0  0
   17.2731  -13.8106  -15.1108 C   0  0  0  0  0  0  0  0  0  0  0  0
   16.1174  -13.7962  -14.6486 O   0  0  0  0  0  0  0  0  0  0  0  0
   20.2226   -9.9647  -15.8142 C   0  0  0  0  0  0  0  0  0  0  0  0
   19.8822   -9.4991  -14.6982 O   0  0  0  0  0  0  0  0  0  0  0  0
   18.1229  -14.8167  -14.6285 O   0  0  0  0  0  0  0  0  0  0  0  0
   24.3278  -10.0647  -15.7480 O   0  0  0  0  0  0  0  0  0  0  0  0
   23.8007   -8.8228  -16.0920 C   0  0  0  0  0  0  0  0  0  0  0  0
   22.3607   -8.6992  -15.6032 C   0  0  2  0  0  0  0  0  0  0  0  0
   21.4938   -9.5818  -16.3217 N   0  0  0  0  0  0  0  0  0  0  0  0
   21.9534   -7.2816  -15.6721 C   0  0  0  0  0  0  0  0  0  0  0  0
   21.4971   -6.8656  -16.7679 O   0  0  0  0  0  0  0  0  0  0  0  0
   20.9884   -3.0695  -13.5015 O   0  0  0  0  0  0  0  0  0  0  0  0
   21.5110   -4.3556  -13.3137 C   0  0  0  0  0  0  0  0  0  0  0  0
   21.5723   -4.9972  -14.6856 C   0  0  2  0  0  0  0  0  0  0  0  0
   22.0375   -6.3640  -14.6061 N   0  0  0  0  0  0  0  0  0  0  0  0
   22.4519   -4.2588  -15.6030 C   0  0  0  0  0  0  0  0  0  0  0  0
   23.6866   -4.3558  -15.5049 O   0  0  0  0  0  0  0  0  0  0  0  0
   21.9017   -3.4554  -16.5762 O   0  0  0  0  0  0  0  0  0  0  0  0
  2  1  1  6
  2  7  1  0
  3  4  1  0
  3  2  1  0
  5  4  1  0
  6  5  2  0
  7  8  2  0
  7 13  1  0
  9  5  1  0
 10 11  1  0
 12 14  1  0
 12 11  1  6
 13 12  1  0
 14 19  1  0
 15 14  2  0
 16 17  1  0
 18 17  1  1
 18 20  1  0
 19 18  1  0
 20 21  2  0
 20 22  1  0
M  END
$$$$
