ESS.pdb
     RDKit          3D

 22 21  0  0  1  0  0  0  0  0999 V2000
   19.5918  -12.2247  -18.1491 N   0  0  0  0  0  0  0  0  0  0  0  0
   20.3748  -11.1166  -18.6599 C   0  0  1  0  0  0  0  0  0  0  0  0
   19.5564  -10.2323  -19.5439 C   0  0  0  0  0  0  0  0  0  0  0  0
   18.1527  -10.6657  -19.7594 C   0  0  0  0  0  0  0  0  0  0  0  0
   17.4272   -9.8350  -20.7304 C   0  0  0  0  0  0  0  0  0  0  0  0
   17.9219   -8.8548  -21.3171 O   0  0  0  0  0  0  0  0  0  0  0  0
   20.9452  -10.3024  -17.5494 C   0  0  0  0  0  0  0  0  0  0  0  0
   20.1663   -9.8552  -16.6710 O   0  0  0  0  0  0  0  0  0  0  0  0
   16.0928  -10.1361  -21.0398 O   0  0  0  0  0  0  0  0  0  0  0  0
   24.8888   -8.7299  -17.5163 O   0  0  0  0  0  0  0  0  0  0  0  0
   24.3369   -9.1620  -16.3133 C   0  0  0  0  0  0  0  0  0  0  0  0
   22.8130   -9.1324  -16.3831 C   0  0  2  0  0  0  0  0  0  0  0  0
   22.3264   -9.9946  -17.4158 N   0  0  0  0  0  0  0  0  0  0  0  0
   22.3688   -7.7311  -16.5220 C   0  0  0  0  0  0  0  0  0  0  0  0
   21.9872   -7.3577  -17.6608 O   0  0  0  0  0  0  0  0  0  0  0  0
   19.9868   -4.0906  -16.0872 O   0  0  0  0  0  0  0  0  0  0  0  0
   20.3845   -5.4334  -16.0501 C   0  0  0  0  0  0  0  0  0  0  0  0
   21.8412   -5.4368  -15.6307 C   0  0  2  0  0  0  0  0  0  0  0  0
   22.3408   -6.7851  -15.4781 N   0  0  0  0  0  0  0  0  0  0  0  0
   22.0551   -4.7155  -14.3680 C   0  0  0  0  0  0  0  0  0  0  0  0
   22.2208   -5.3403  -13.3070 O   0  0  0  0  0  0  0  0  0  0  0  0
   22.0717   -3.3388  -14.3635 O   0  0  0  0  0  0  0  0  0  0  0  0
  2  1  1  1
  2  7  1  0
  3  4  1  0
  3  2  1  0
  5  4  1  0
  6  5  2  0
  7  8  2  0
  7 13  1  0
  9  5  1  0
 10 11  1  0
 12 14  1  0
 12 11  1  6
 13 12  1  0
 14 19  1  0
 15 14  2  0
 16 17  1  0
 18 17  1  1
 18 20  1  0
 19 18  1  0
 20 21  2  0
 20 22  1  0
M  END
$$$$
