ESS.pdb
     RDKit          3D

 22 21  0  0  1  0  0  0  0  0999 V2000
   14.2243  -24.7093    3.9957 N   0  0  0  0  0  0  0  0  0  0  0  0
   15.6131  -25.0554    4.2275 C   0  0  1  0  0  0  0  0  0  0  0  0
   16.1263  -25.9846    3.1757 C   0  0  0  0  0  0  0  0  0  0  0  0
   16.1833  -25.4261    1.8011 C   0  0  0  0  0  0  0  0  0  0  0  0
   16.8876  -26.2935    0.8467 C   0  0  0  0  0  0  0  0  0  0  0  0
   18.0976  -26.5760    0.9224 O   0  0  0  0  0  0  0  0  0  0  0  0
   16.4729  -23.8386    4.2650 C   0  0  0  0  0  0  0  0  0  0  0  0
   17.7097  -23.9820    4.4325 O   0  0  0  0  0  0  0  0  0  0  0  0
   16.1843  -26.8553   -0.2288 O   0  0  0  0  0  0  0  0  0  0  0  0
   17.1338  -19.2027    3.0861 O   0  0  0  0  0  0  0  0  0  0  0  0
   16.2338  -20.2550    3.2322 C   0  0  0  0  0  0  0  0  0  0  0  0
   16.8601  -21.3853    4.0435 C   0  0  2  0  0  0  0  0  0  0  0  0
   15.9824  -22.5123    4.1222 N   0  0  0  0  0  0  0  0  0  0  0  0
   17.2681  -20.8579    5.3609 C   0  0  0  0  0  0  0  0  0  0  0  0
   16.3938  -20.8252    6.2645 O   0  0  0  0  0  0  0  0  0  0  0  0
   20.6058  -19.0836    8.3747 O   0  0  0  0  0  0  0  0  0  0  0  0
   20.3923  -19.5902    7.0862 C   0  0  0  0  0  0  0  0  0  0  0  0
   18.8928  -19.7496    6.9321 C   0  0  2  0  0  0  0  0  0  0  0  0
   18.5585  -20.3905    5.6797 N   0  0  0  0  0  0  0  0  0  0  0  0
   18.1898  -18.4604    6.9973 C   0  0  0  0  0  0  0  0  0  0  0  0
   17.8774  -17.8609    5.9550 O   0  0  0  0  0  0  0  0  0  0  0  0
   17.8765  -17.9159    8.2224 O   0  0  0  0  0  0  0  0  0  0  0  0
  2  1  1  6
  2  7  1  0
  3  4  1  0
  3  2  1  0
  5  4  1  0
  6  5  2  0
  7  8  2  0
  7 13  1  0
  9  5  1  0
 10 11  1  0
 12 14  1  0
 12 11  1  6
 13 12  1  0
 14 19  1  0
 15 14  2  0
 16 17  1  0
 18 17  1  6
 18 20  1  0
 19 18  1  0
 20 21  2  0
 20 22  1  0
M  END
$$$$
