ESS.pdb
     RDKit          3D

 22 21  0  0  1  0  0  0  0  0999 V2000
   21.4818   -8.1876  -14.5640 N   0  0  0  0  0  0  0  0  0  0  0  0
   20.3998   -7.4945  -15.2355 C   0  0  1  0  0  0  0  0  0  0  0  0
   20.1778   -8.0336  -16.6115 C   0  0  0  0  0  0  0  0  0  0  0  0
   19.8551   -9.4809  -16.6873 C   0  0  0  0  0  0  0  0  0  0  0  0
   19.8249  -10.0017  -18.0610 C   0  0  0  0  0  0  0  0  0  0  0  0
   19.5142  -11.1701  -18.3574 O   0  0  0  0  0  0  0  0  0  0  0  0
   19.1306   -7.5975  -14.4609 C   0  0  0  0  0  0  0  0  0  0  0  0
   18.1083   -7.0162  -14.9028 O   0  0  0  0  0  0  0  0  0  0  0  0
   20.1612   -9.1579  -19.1297 O   0  0  0  0  0  0  0  0  0  0  0  0
   16.2568   -9.9947  -11.5003 O   0  0  0  0  0  0  0  0  0  0  0  0
   17.4821   -9.8877  -12.1529 C   0  0  0  0  0  0  0  0  0  0  0  0
   17.7404   -8.4434  -12.5716 C   0  0  2  0  0  0  0  0  0  0  0  0
   18.9977   -8.3170  -13.2424 N   0  0  0  0  0  0  0  0  0  0  0  0
   17.6101   -7.5724  -11.3864 C   0  0  0  0  0  0  0  0  0  0  0  0
   18.6084   -7.4794  -10.6270 O   0  0  0  0  0  0  0  0  0  0  0  0
   16.2458   -4.0875  -11.2361 O   0  0  0  0  0  0  0  0  0  0  0  0
   15.5770   -4.7266  -10.1841 C   0  0  0  0  0  0  0  0  0  0  0  0
   16.3623   -5.9872   -9.8809 C   0  0  2  0  0  0  0  0  0  0  0  0
   16.4556   -6.8407  -11.0444 N   0  0  0  0  0  0  0  0  0  0  0  0
   15.7648   -6.7607   -8.7830 C   0  0  0  0  0  0  0  0  0  0  0  0
   15.3054   -7.8961   -8.9909 O   0  0  0  0  0  0  0  0  0  0  0  0
   15.7152   -6.2214   -7.5173 O   0  0  0  0  0  0  0  0  0  0  0  0
  2  1  1  1
  2  7  1  0
  3  4  1  0
  3  2  1  0
  5  4  1  0
  6  5  2  0
  7  8  2  0
  7 13  1  0
  9  5  1  0
 10 11  1  0
 12 14  1  0
 12 11  1  1
 13 12  1  0
 14 19  1  0
 15 14  2  0
 16 17  1  0
 18 17  1  6
 18 20  1  0
 19 18  1  0
 20 21  2  0
 20 22  1  0
M  END
$$$$
