ESS.pdb
     RDKit          3D

 22 21  0  0  1  0  0  0  0  0999 V2000
   15.6408  -12.6643  -13.7423 N   0  0  0  0  0  0  0  0  0  0  0  0
   15.4817  -11.4881  -14.5750 C   0  0  1  0  0  0  0  0  0  0  0  0
   14.0482  -11.0759  -14.6681 C   0  0  0  0  0  0  0  0  0  0  0  0
   13.1389  -12.0622  -15.3045 C   0  0  0  0  0  0  0  0  0  0  0  0
   12.7807  -13.1811  -14.4219 C   0  0  0  0  0  0  0  0  0  0  0  0
   12.2613  -13.0451  -13.2988 O   0  0  0  0  0  0  0  0  0  0  0  0
   16.2846  -10.3458  -14.0535 C   0  0  0  0  0  0  0  0  0  0  0  0
   16.3300  -10.1608  -12.8118 O   0  0  0  0  0  0  0  0  0  0  0  0
   13.0249  -14.4980  -14.8384 O   0  0  0  0  0  0  0  0  0  0  0  0
   19.4275   -8.6690  -16.0207 O   0  0  0  0  0  0  0  0  0  0  0  0
   19.2433   -8.4853  -14.6528 C   0  0  0  0  0  0  0  0  0  0  0  0
   17.7588   -8.3533  -14.3263 C   0  0  2  0  0  0  0  0  0  0  0  0
   17.0102   -9.4417  -14.8758 N   0  0  0  0  0  0  0  0  0  0  0  0
   17.2887   -7.0259  -14.7704 C   0  0  0  0  0  0  0  0  0  0  0  0
   16.8747   -6.9275  -15.9540 O   0  0  0  0  0  0  0  0  0  0  0  0
   15.8813   -2.5129  -13.9297 O   0  0  0  0  0  0  0  0  0  0  0  0
   16.3003   -3.7116  -13.3381 C   0  0  0  0  0  0  0  0  0  0  0  0
   16.8693   -4.5640  -14.4550 C   0  0  2  0  0  0  0  0  0  0  0  0
   17.2694   -5.8662  -13.9704 N   0  0  0  0  0  0  0  0  0  0  0  0
   18.0289   -3.9304  -15.0987 C   0  0  0  0  0  0  0  0  0  0  0  0
   17.8751   -2.9533  -15.8502 O   0  0  0  0  0  0  0  0  0  0  0  0
   19.2926   -4.4248  -14.8655 O   0  0  0  0  0  0  0  0  0  0  0  0
  2  1  1  1
  2  7  1  0
  3  4  1  0
  3  2  1  0
  5  4  1  0
  6  5  2  0
  7  8  2  0
  7 13  1  0
  9  5  1  0
 10 11  1  0
 12 14  1  0
 12 11  1  6
 13 12  1  0
 14 19  1  0
 15 14  2  0
 16 17  1  0
 18 17  1  1
 18 20  1  0
 19 18  1  0
 20 21  2  0
 20 22  1  0
M  END
$$$$
