ESS.pdb
     RDKit          3D

 22 21  0  0  1  0  0  0  0  0999 V2000
   19.5017  -10.7422  -16.9990 N   0  0  0  0  0  0  0  0  0  0  0  0
   20.4787   -9.6719  -16.9519 C   0  0  1  0  0  0  0  0  0  0  0  0
   20.7393   -9.1113  -18.3124 C   0  0  0  0  0  0  0  0  0  0  0  0
   21.3484  -10.0521  -19.2863 C   0  0  0  0  0  0  0  0  0  0  0  0
   21.6526   -9.4340  -20.5842 C   0  0  0  0  0  0  0  0  0  0  0  0
   22.1392  -10.0473  -21.5520 O   0  0  0  0  0  0  0  0  0  0  0  0
   20.0319   -8.5734  -16.0492 C   0  0  0  0  0  0  0  0  0  0  0  0
   18.8508   -8.1569  -16.1489 O   0  0  0  0  0  0  0  0  0  0  0  0
   21.3914   -8.0700  -20.7804 O   0  0  0  0  0  0  0  0  0  0  0  0
   20.5326   -7.9848  -12.1030 O   0  0  0  0  0  0  0  0  0  0  0  0
   21.0515   -6.9405  -12.8637 C   0  0  0  0  0  0  0  0  0  0  0  0
   20.3876   -6.8981  -14.2368 C   0  0  2  0  0  0  0  0  0  0  0  0
   20.8613   -7.9584  -15.0724 N   0  0  0  0  0  0  0  0  0  0  0  0
   20.5787   -5.5543  -14.8180 C   0  0  0  0  0  0  0  0  0  0  0  0
   21.6613   -5.3351  -15.4194 O   0  0  0  0  0  0  0  0  0  0  0  0
   18.7275   -1.3127  -16.2181 O   0  0  0  0  0  0  0  0  0  0  0  0
   18.4886   -2.4693  -15.4647 C   0  0  0  0  0  0  0  0  0  0  0  0
   19.7860   -3.2533  -15.4612 C   0  0  2  0  0  0  0  0  0  0  0  0
   19.6423   -4.5037  -14.7493 N   0  0  0  0  0  0  0  0  0  0  0  0
   20.8888   -2.4955  -14.8529 C   0  0  0  0  0  0  0  0  0  0  0  0
   21.0212   -2.4595  -13.6182 O   0  0  0  0  0  0  0  0  0  0  0  0
   21.7793   -1.8223  -15.6586 O   0  0  0  0  0  0  0  0  0  0  0  0
  2  1  1  6
  2  7  1  0
  3  4  1  0
  3  2  1  0
  5  4  1  0
  6  5  2  0
  7  8  2  0
  7 13  1  0
  9  5  1  0
 10 11  1  0
 12 14  1  0
 12 11  1  1
 13 12  1  0
 14 19  1  0
 15 14  2  0
 16 17  1  0
 18 17  1  1
 18 20  1  0
 19 18  1  0
 20 21  2  0
 20 22  1  0
M  END
$$$$
