ESS.pdb
     RDKit          3D

 22 21  0  0  1  0  0  0  0  0999 V2000
   13.6970   -9.4866   -9.9284 N   0  0  0  0  0  0  0  0  0  0  0  0
   15.1139   -9.5907  -10.2180 C   0  0  1  0  0  0  0  0  0  0  0  0
   15.3761  -10.5763  -11.3102 C   0  0  0  0  0  0  0  0  0  0  0  0
   15.0826  -11.9933  -10.9775 C   0  0  0  0  0  0  0  0  0  0  0  0
   13.6859  -12.3751  -11.2276 C   0  0  0  0  0  0  0  0  0  0  0  0
   13.0941  -13.2896  -10.6252 O   0  0  0  0  0  0  0  0  0  0  0  0
   15.6832   -8.2693  -10.6066 C   0  0  0  0  0  0  0  0  0  0  0  0
   15.0621   -7.5712  -11.4464 O   0  0  0  0  0  0  0  0  0  0  0  0
   12.9429  -11.6880  -12.1987 O   0  0  0  0  0  0  0  0  0  0  0  0
   18.0695   -5.9034   -8.3332 O   0  0  0  0  0  0  0  0  0  0  0  0
   17.4471   -5.4398   -9.4891 C   0  0  0  0  0  0  0  0  0  0  0  0
   17.4565   -6.5167  -10.5700 C   0  0  2  0  0  0  0  0  0  0  0  0
   16.8948   -7.7399  -10.0853 N   0  0  0  0  0  0  0  0  0  0  0  0
   18.8314   -6.6597  -11.0891 C   0  0  0  0  0  0  0  0  0  0  0  0
   19.4466   -7.7197  -10.8066 O   0  0  0  0  0  0  0  0  0  0  0  0
   22.0158   -7.2729  -13.9692 O   0  0  0  0  0  0  0  0  0  0  0  0
   20.7491   -7.1709  -13.3797 C   0  0  0  0  0  0  0  0  0  0  0  0
   20.7832   -5.9344  -12.5036 C   0  0  2  0  0  0  0  0  0  0  0  0
   19.5026   -5.7012  -11.8739 N   0  0  0  0  0  0  0  0  0  0  0  0
   21.1561   -4.7305  -13.2599 C   0  0  0  0  0  0  0  0  0  0  0  0
   20.2854   -4.0484  -13.8257 O   0  0  0  0  0  0  0  0  0  0  0  0
   22.4791   -4.3583  -13.3404 O   0  0  0  0  0  0  0  0  0  0  0  0
  2  1  1  6
  2  7  1  0
  3  4  1  0
  3  2  1  0
  5  4  1  0
  6  5  2  0
  7  8  2  0
  7 13  1  0
  9  5  1  0
 10 11  1  0
 12 14  1  0
 12 11  1  1
 13 12  1  0
 14 19  1  0
 15 14  2  0
 16 17  1  0
 18 17  1  6
 18 20  1  0
 19 18  1  0
 20 21  2  0
 20 22  1  0
M  END
$$$$
