PQP.pdb
     RDKit          3D

 24 25  0  0  1  0  0  0  0  0999 V2000
   25.6021  -11.3771  -16.3925 N   0  0  0  0  0  0  0  0  0  0  0  0
   25.8334  -12.7556  -16.0173 C   0  0  0  0  0  0  0  0  0  0  0  0
   25.7301  -13.5386  -17.3228 C   0  0  0  0  0  0  0  0  0  0  0  0
   24.5844  -12.8141  -17.9999 C   0  0  0  0  0  0  0  0  0  0  0  0
   24.8782  -11.3755  -17.6343 C   0  0  1  0  0  0  0  0  0  0  0  0
   23.6687  -10.5614  -17.5007 C   0  0  0  0  0  0  0  0  0  0  0  0
   22.9535  -10.3798  -18.5394 O   0  0  0  0  0  0  0  0  0  0  0  0
   18.6915  -10.7993  -14.0596 N   0  0  0  0  0  0  0  0  0  0  0  0
   18.5774   -9.5497  -14.7183 C   0  0  0  0  0  0  0  0  0  0  0  0
   17.4835   -8.9440  -14.6449 O   0  0  0  0  0  0  0  0  0  0  0  0
   19.6834   -8.9359  -15.4800 C   0  0  0  0  0  0  0  0  0  0  0  0
   20.9270   -9.7545  -15.5403 C   0  0  0  0  0  0  0  0  0  0  0  0
   22.0746   -9.0930  -16.2758 C   0  0  2  0  0  0  0  0  0  0  0  0
   23.2348   -9.9604  -16.3016 N   0  0  0  0  0  0  0  0  0  0  0  0
   22.4071   -7.8094  -15.5655 C   0  0  0  0  0  0  0  0  0  0  0  0
   23.1983   -7.9116  -14.5646 O   0  0  0  0  0  0  0  0  0  0  0  0
   21.8888   -6.5602  -15.9656 N   0  0  0  0  0  0  0  0  0  0  0  0
   20.9174   -6.2507  -16.9969 C   0  0  0  0  0  0  0  0  0  0  0  0
   21.4224   -4.9168  -17.5346 C   0  0  0  0  0  0  0  0  0  0  0  0
   21.9833   -4.2324  -16.3334 C   0  0  0  0  0  0  0  0  0  0  0  0
   22.3096   -5.2984  -15.3496 C   0  0  1  0  0  0  0  0  0  0  0  0
   21.5228   -5.1385  -14.1162 C   0  0  0  0  0  0  0  0  0  0  0  0
   21.8371   -4.2071  -13.1380 O   0  0  0  0  0  0  0  0  0  0  0  0
   20.5160   -5.8863  -13.9446 O   0  0  0  0  0  0  0  0  0  0  0  0
  1  5  1  0
  2  1  1  0
  3  2  1  0
  3  4  1  0
  4  5  1  0
  6  7  2  0
  5  6  1  1
  8  9  1  0
  9 11  1  0
 10  9  2  0
 11 12  1  0
 13 12  1  1
 13 14  1  0
 13 15  1  0
 14  6  1  0
 15 16  2  0
 17 15  1  0
 17 21  1  0
 18 17  1  0
 18 19  1  0
 19 20  1  0
 21 20  1  0
 22 23  1  0
 21 22  1  1
 24 22  2  0
M  END
$$$$
