PQP.pdb
     RDKit          3D

 24 25  0  0  1  0  0  0  0  0999 V2000
   20.3404  -11.8689  -17.0813 N   0  0  0  0  0  0  0  0  0  0  0  0
   19.8713  -13.2360  -17.1565 C   0  0  0  0  0  0  0  0  0  0  0  0
   18.9260  -13.2594  -18.3540 C   0  0  0  0  0  0  0  0  0  0  0  0
   18.2342  -11.9204  -18.1973 C   0  0  0  0  0  0  0  0  0  0  0  0
   19.3809  -11.0376  -17.7552 C   0  0  1  0  0  0  0  0  0  0  0  0
   18.9575   -9.9522  -16.8686 C   0  0  0  0  0  0  0  0  0  0  0  0
   18.1181   -9.1062  -17.3191 O   0  0  0  0  0  0  0  0  0  0  0  0
   17.7490   -9.7428  -10.6902 N   0  0  0  0  0  0  0  0  0  0  0  0
   17.7087   -8.3944  -11.1245 C   0  0  0  0  0  0  0  0  0  0  0  0
   17.3194   -7.5258  -10.3103 O   0  0  0  0  0  0  0  0  0  0  0  0
   18.1033   -7.9729  -12.4835 C   0  0  0  0  0  0  0  0  0  0  0  0
   18.5182   -9.0851  -13.3841 C   0  0  0  0  0  0  0  0  0  0  0  0
   18.9843   -8.6377  -14.7546 C   0  0  2  0  0  0  0  0  0  0  0  0
   19.4124   -9.7730  -15.5463 N   0  0  0  0  0  0  0  0  0  0  0  0
   20.1283   -7.6787  -14.5691 C   0  0  0  0  0  0  0  0  0  0  0  0
   21.2816   -8.2079  -14.4022 O   0  0  0  0  0  0  0  0  0  0  0  0
   19.9585   -6.2786  -14.5779 N   0  0  0  0  0  0  0  0  0  0  0  0
   18.7384   -5.4963  -14.6290 C   0  0  0  0  0  0  0  0  0  0  0  0
   19.1534   -4.2945  -15.4696 C   0  0  0  0  0  0  0  0  0  0  0  0
   20.5761   -4.0598  -15.0864 C   0  0  0  0  0  0  0  0  0  0  0  0
   21.0900   -5.3472  -14.5486 C   0  0  1  0  0  0  0  0  0  0  0  0
   21.4960   -5.2078  -13.1409 C   0  0  0  0  0  0  0  0  0  0  0  0
   22.6483   -4.5413  -12.7519 O   0  0  0  0  0  0  0  0  0  0  0  0
   20.7583   -5.7205  -12.2492 O   0  0  0  0  0  0  0  0  0  0  0  0
  1  5  1  0
  2  1  1  0
  3  2  1  0
  3  4  1  0
  4  5  1  0
  6  7  2  0
  5  6  1  1
  8  9  1  0
  9 11  1  0
 10  9  2  0
 11 12  1  0
 13 12  1  1
 13 14  1  0
 13 15  1  0
 14  6  1  0
 15 16  2  0
 17 15  1  0
 17 21  1  0
 18 17  1  0
 18 19  1  0
 19 20  1  0
 21 20  1  0
 22 23  1  0
 21 22  1  1
 24 22  2  0
M  END
$$$$
