PQP.pdb
     RDKit          3D

 24 25  0  0  1  0  0  0  0  0999 V2000
   25.1994  -12.6286  -16.1705 N   0  0  0  0  0  0  0  0  0  0  0  0
   25.2103  -14.0514  -15.9059 C   0  0  0  0  0  0  0  0  0  0  0  0
   25.3694  -14.7025  -17.2766 C   0  0  0  0  0  0  0  0  0  0  0  0
   24.4956  -13.8001  -18.1240 C   0  0  0  0  0  0  0  0  0  0  0  0
   24.8113  -12.4398  -17.5415 C   0  0  1  0  0  0  0  0  0  0  0  0
   23.6814  -11.5115  -17.6125 C   0  0  0  0  0  0  0  0  0  0  0  0
   23.2654  -11.1643  -18.7657 O   0  0  0  0  0  0  0  0  0  0  0  0
   18.2966  -11.8845  -14.8847 N   0  0  0  0  0  0  0  0  0  0  0  0
   18.8559  -12.3929  -16.0835 C   0  0  0  0  0  0  0  0  0  0  0  0
   18.3000  -13.3791  -16.6197 O   0  0  0  0  0  0  0  0  0  0  0  0
   20.0547  -11.8146  -16.7226 C   0  0  0  0  0  0  0  0  0  0  0  0
   20.6491  -10.6565  -15.9974 C   0  0  0  0  0  0  0  0  0  0  0  0
   21.8864  -10.0779  -16.6531 C   0  0  2  0  0  0  0  0  0  0  0  0
   23.0162  -10.9706  -16.4934 N   0  0  0  0  0  0  0  0  0  0  0  0
   22.1819   -8.7525  -16.0060 C   0  0  0  0  0  0  0  0  0  0  0  0
   22.9543   -8.7869  -14.9860 O   0  0  0  0  0  0  0  0  0  0  0  0
   21.6501   -7.5361  -16.4822 N   0  0  0  0  0  0  0  0  0  0  0  0
   20.8390   -7.2794  -17.6566 C   0  0  0  0  0  0  0  0  0  0  0  0
   21.3310   -5.9075  -18.1025 C   0  0  0  0  0  0  0  0  0  0  0  0
   21.6420   -5.2025  -16.8249 C   0  0  0  0  0  0  0  0  0  0  0  0
   21.8779   -6.2570  -15.8035 C   0  0  1  0  0  0  0  0  0  0  0  0
   20.8931   -6.1671  -14.7135 C   0  0  0  0  0  0  0  0  0  0  0  0
   20.9938   -5.2459  -13.6817 O   0  0  0  0  0  0  0  0  0  0  0  0
   19.9128   -6.9678  -14.7220 O   0  0  0  0  0  0  0  0  0  0  0  0
  1  5  1  0
  2  1  1  0
  3  2  1  0
  3  4  1  0
  4  5  1  0
  6  7  2  0
  5  6  1  1
  8  9  1  0
  9 11  1  0
 10  9  2  0
 11 12  1  0
 13 12  1  1
 13 14  1  0
 13 15  1  0
 14  6  1  0
 15 16  2  0
 17 15  1  0
 17 21  1  0
 18 17  1  0
 18 19  1  0
 19 20  1  0
 21 20  1  0
 22 23  1  0
 21 22  1  1
 24 22  2  0
M  END
$$$$
