PQP.pdb
     RDKit          3D

 24 25  0  0  1  0  0  0  0  0999 V2000
   26.5412  -20.5577  -13.8293 N   0  0  0  0  0  0  0  0  0  0  0  0
   27.4517  -20.1150  -14.8635 C   0  0  0  0  0  0  0  0  0  0  0  0
   28.7470  -20.8754  -14.5954 C   0  0  0  0  0  0  0  0  0  0  0  0
   28.7864  -20.8466  -13.0809 C   0  0  0  0  0  0  0  0  0  0  0  0
   27.3285  -21.0599  -12.7366 C   0  0  1  0  0  0  0  0  0  0  0  0
   26.9316  -20.3948  -11.4942 C   0  0  0  0  0  0  0  0  0  0  0  0
   26.8330  -19.1245  -11.5021 O   0  0  0  0  0  0  0  0  0  0  0  0
   22.1015  -20.7077   -7.9895 N   0  0  0  0  0  0  0  0  0  0  0  0
   22.4873  -20.3940   -9.3166 C   0  0  0  0  0  0  0  0  0  0  0  0
   21.5831  -20.1950  -10.1603 O   0  0  0  0  0  0  0  0  0  0  0  0
   23.8970  -20.2914   -9.7435 C   0  0  0  0  0  0  0  0  0  0  0  0
   24.8937  -20.5540   -8.6675 C   0  0  0  0  0  0  0  0  0  0  0  0
   26.3329  -20.3190   -9.0789 C   0  0  2  0  0  0  0  0  0  0  0  0
   26.6491  -21.0594  -10.2835 N   0  0  0  0  0  0  0  0  0  0  0  0
   27.2208  -20.7678   -7.9507 C   0  0  0  0  0  0  0  0  0  0  0  0
   27.5357  -22.0084   -7.9450 O   0  0  0  0  0  0  0  0  0  0  0  0
   27.6886  -19.8882   -6.9524 N   0  0  0  0  0  0  0  0  0  0  0  0
   27.5208  -18.4526   -6.8337 C   0  0  0  0  0  0  0  0  0  0  0  0
   28.8441  -18.0170   -6.2153 C   0  0  0  0  0  0  0  0  0  0  0  0
   29.2072  -19.1444   -5.3081 C   0  0  0  0  0  0  0  0  0  0  0  0
   28.4877  -20.3444   -5.8113 C   0  0  1  0  0  0  0  0  0  0  0  0
   27.5453  -20.8570   -4.8038 C   0  0  0  0  0  0  0  0  0  0  0  0
   27.9571  -21.4935   -3.6426 O   0  0  0  0  0  0  0  0  0  0  0  0
   26.3054  -20.7086   -5.0105 O   0  0  0  0  0  0  0  0  0  0  0  0
  1  5  1  0
  2  1  1  0
  3  2  1  0
  3  4  1  0
  4  5  1  0
  6  7  2  0
  5  6  1  1
  8  9  1  0
  9 11  1  0
 10  9  2  0
 11 12  1  0
 13 12  1  1
 13 14  1  0
 13 15  1  0
 14  6  1  0
 15 16  2  0
 17 15  1  0
 17 21  1  0
 18 17  1  0
 18 19  1  0
 19 20  1  0
 21 20  1  0
 22 23  1  0
 21 22  1  1
 24 22  2  0
M  END
$$$$
