PQP.pdb
     RDKit          3D

 24 25  0  0  1  0  0  0  0  0999 V2000
   27.6856  -20.1087  -17.8838 N   0  0  0  0  0  0  0  0  0  0  0  0
   27.6439  -19.6213  -19.2459 C   0  0  0  0  0  0  0  0  0  0  0  0
   28.7549  -18.5781  -19.3217 C   0  0  0  0  0  0  0  0  0  0  0  0
   28.6167  -17.9154  -17.9660 C   0  0  0  0  0  0  0  0  0  0  0  0
   28.3227  -19.1041  -17.0771 C   0  0  1  0  0  0  0  0  0  0  0  0
   27.4665  -18.7679  -15.9381 C   0  0  0  0  0  0  0  0  0  0  0  0
   27.8872  -17.8935  -15.1124 O   0  0  0  0  0  0  0  0  0  0  0  0
   21.6911  -19.5796  -14.3147 N   0  0  0  0  0  0  0  0  0  0  0  0
   22.1700  -19.5183  -15.6470 C   0  0  0  0  0  0  0  0  0  0  0  0
   21.4840  -20.0603  -16.5440 O   0  0  0  0  0  0  0  0  0  0  0  0
   23.4316  -18.8480  -16.0203 C   0  0  0  0  0  0  0  0  0  0  0  0
   24.1796  -18.2494  -14.8790 C   0  0  0  0  0  0  0  0  0  0  0  0
   25.4447  -18.9935  -14.5030 C   0  0  2  0  0  0  0  0  0  0  0  0
   26.2044  -19.3433  -15.6861 N   0  0  0  0  0  0  0  0  0  0  0  0
   25.0504  -20.2389  -13.7574 C   0  0  0  0  0  0  0  0  0  0  0  0
   24.8072  -21.2693  -14.4767 O   0  0  0  0  0  0  0  0  0  0  0  0
   24.9517  -20.2867  -12.3513 N   0  0  0  0  0  0  0  0  0  0  0  0
   25.1316  -19.2285  -11.3762 C   0  0  0  0  0  0  0  0  0  0  0  0
   25.7695  -19.9659  -10.2046 C   0  0  0  0  0  0  0  0  0  0  0  0
   25.1310  -21.3140  -10.2357 C   0  0  0  0  0  0  0  0  0  0  0  0
   24.6418  -21.5213  -11.6244 C   0  0  1  0  0  0  0  0  0  0  0  0
   23.1790  -21.6807  -11.6515 C   0  0  0  0  0  0  0  0  0  0  0  0
   22.5404  -22.8428  -11.2453 O   0  0  0  0  0  0  0  0  0  0  0  0
   22.4766  -20.7121  -12.0646 O   0  0  0  0  0  0  0  0  0  0  0  0
  1  5  1  0
  2  1  1  0
  3  2  1  0
  3  4  1  0
  4  5  1  0
  6  7  2  0
  5  6  1  1
  8  9  1  0
  9 11  1  0
 10  9  2  0
 11 12  1  0
 13 12  1  6
 13 14  1  0
 13 15  1  0
 14  6  1  0
 15 16  2  0
 17 15  1  0
 17 21  1  0
 18 17  1  0
 18 19  1  0
 19 20  1  0
 21 20  1  0
 22 23  1  0
 21 22  1  1
 24 22  2  0
M  END
$$$$
