PQP.pdb
     RDKit          3D

 24 25  0  0  1  0  0  0  0  0999 V2000
   20.6855  -12.8952  -17.4599 N   0  0  0  0  0  0  0  0  0  0  0  0
   21.8630  -13.1008  -18.2759 C   0  0  0  0  0  0  0  0  0  0  0  0
   23.0164  -13.1926  -17.2812 C   0  0  0  0  0  0  0  0  0  0  0  0
   22.6096  -12.1357  -16.2746 C   0  0  0  0  0  0  0  0  0  0  0  0
   21.1132  -12.3477  -16.2016 C   0  0  1  0  0  0  0  0  0  0  0  0
   20.3743  -11.1152  -15.9217 C   0  0  0  0  0  0  0  0  0  0  0  0
   19.1225  -11.1026  -16.1585 O   0  0  0  0  0  0  0  0  0  0  0  0
   18.1100  -10.1499  -11.1326 N   0  0  0  0  0  0  0  0  0  0  0  0
   17.8783   -8.8685  -11.6917 C   0  0  0  0  0  0  0  0  0  0  0  0
   17.0892   -8.1004  -11.0948 O   0  0  0  0  0  0  0  0  0  0  0  0
   18.5222   -8.4036  -12.9365 C   0  0  0  0  0  0  0  0  0  0  0  0
   19.4177   -9.4027  -13.5846 C   0  0  0  0  0  0  0  0  0  0  0  0
   20.1262   -8.8947  -14.8238 C   0  0  2  0  0  0  0  0  0  0  0  0
   20.9487   -9.9352  -15.4069 N   0  0  0  0  0  0  0  0  0  0  0  0
   20.9827   -7.7239  -14.4256 C   0  0  0  0  0  0  0  0  0  0  0  0
   21.9488   -7.9824  -13.6269 O   0  0  0  0  0  0  0  0  0  0  0  0
   20.7506   -6.4146  -14.8958 N   0  0  0  0  0  0  0  0  0  0  0  0
   19.6310   -5.8902  -15.6539 C   0  0  0  0  0  0  0  0  0  0  0  0
   20.2989   -4.8587  -16.5557 C   0  0  0  0  0  0  0  0  0  0  0  0
   21.3948   -4.2979  -15.7128 C   0  0  0  0  0  0  0  0  0  0  0  0
   21.6981   -5.3183  -14.6747 C   0  0  1  0  0  0  0  0  0  0  0  0
   21.4398   -4.7922  -13.3247 C   0  0  0  0  0  0  0  0  0  0  0  0
   22.3198   -3.9480  -12.6643 O   0  0  0  0  0  0  0  0  0  0  0  0
   20.3660   -5.1277  -12.7445 O   0  0  0  0  0  0  0  0  0  0  0  0
  1  5  1  0
  2  1  1  0
  3  2  1  0
  3  4  1  0
  4  5  1  0
  6  7  2  0
  5  6  1  6
  8  9  1  0
  9 11  1  0
 10  9  2  0
 11 12  1  0
 13 12  1  1
 13 14  1  0
 13 15  1  0
 14  6  1  0
 15 16  2  0
 17 15  1  0
 17 21  1  0
 18 17  1  0
 18 19  1  0
 19 20  1  0
 21 20  1  0
 22 23  1  0
 21 22  1  1
 24 22  2  0
M  END
$$$$
