PQP.pdb
     RDKit          3D

 24 25  0  0  1  0  0  0  0  0999 V2000
   25.5134  -12.0031  -16.2844 N   0  0  0  0  0  0  0  0  0  0  0  0
   25.5238  -13.4502  -16.2652 C   0  0  0  0  0  0  0  0  0  0  0  0
   25.5745  -13.8600  -17.7340 C   0  0  0  0  0  0  0  0  0  0  0  0
   24.6544  -12.8260  -18.3505 C   0  0  0  0  0  0  0  0  0  0  0  0
   25.0300  -11.5844  -17.5716 C   0  0  1  0  0  0  0  0  0  0  0  0
   23.9108  -10.6560  -17.4017 C   0  0  0  0  0  0  0  0  0  0  0  0
   23.4411  -10.0901  -18.4422 O   0  0  0  0  0  0  0  0  0  0  0  0
   18.6158  -11.0709  -16.5307 N   0  0  0  0  0  0  0  0  0  0  0  0
   18.6151   -9.7971  -15.9096 C   0  0  0  0  0  0  0  0  0  0  0  0
   17.5456   -9.1451  -15.9066 O   0  0  0  0  0  0  0  0  0  0  0  0
   19.8102   -9.2109  -15.2707 C   0  0  0  0  0  0  0  0  0  0  0  0
   21.0331  -10.0593  -15.3415 C   0  0  0  0  0  0  0  0  0  0  0  0
   22.1892   -9.4268  -16.0891 C   0  0  2  0  0  0  0  0  0  0  0  0
   23.3113  -10.3401  -16.1655 N   0  0  0  0  0  0  0  0  0  0  0  0
   22.5919   -8.1767  -15.3558 C   0  0  0  0  0  0  0  0  0  0  0  0
   23.4126   -8.3354  -14.3865 O   0  0  0  0  0  0  0  0  0  0  0  0
   22.1059   -6.8990  -15.7030 N   0  0  0  0  0  0  0  0  0  0  0  0
   21.1132   -6.5257  -16.6921 C   0  0  0  0  0  0  0  0  0  0  0  0
   21.6478   -5.1950  -17.2085 C   0  0  0  0  0  0  0  0  0  0  0  0
   22.2714   -4.5660  -16.0079 C   0  0  0  0  0  0  0  0  0  0  0  0
   22.5912   -5.6712  -15.0660 C   0  0  1  0  0  0  0  0  0  0  0  0
   21.8510   -5.5204  -13.8030 C   0  0  0  0  0  0  0  0  0  0  0  0
   22.2316   -4.6317  -12.8086 O   0  0  0  0  0  0  0  0  0  0  0  0
   20.8227   -6.2354  -13.6202 O   0  0  0  0  0  0  0  0  0  0  0  0
  1  5  1  0
  2  1  1  0
  3  2  1  0
  3  4  1  0
  4  5  1  0
  6  7  2  0
  5  6  1  1
  8  9  1  0
  9 11  1  0
 10  9  2  0
 11 12  1  0
 13 12  1  1
 13 14  1  0
 13 15  1  0
 14  6  1  0
 15 16  2  0
 17 15  1  0
 17 21  1  0
 18 17  1  0
 18 19  1  0
 19 20  1  0
 21 20  1  0
 22 23  1  0
 21 22  1  1
 24 22  2  0
M  END
$$$$
