PQP.pdb
     RDKit          3D

 24 25  0  0  1  0  0  0  0  0999 V2000
   20.4970  -12.4275  -15.8925 N   0  0  0  0  0  0  0  0  0  0  0  0
   19.7614  -13.6590  -16.0844 C   0  0  0  0  0  0  0  0  0  0  0  0
   19.3528  -13.6450  -17.5545 C   0  0  0  0  0  0  0  0  0  0  0  0
   19.0130  -12.1803  -17.7420 C   0  0  0  0  0  0  0  0  0  0  0  0
   20.0971  -11.5114  -16.9254 C   0  0  1  0  0  0  0  0  0  0  0  0
   19.6636  -10.2482  -16.3257 C   0  0  0  0  0  0  0  0  0  0  0  0
   19.2830   -9.3161  -17.1065 O   0  0  0  0  0  0  0  0  0  0  0  0
   17.1662   -8.8111  -10.5580 N   0  0  0  0  0  0  0  0  0  0  0  0
   16.5597   -9.3476  -11.7210 C   0  0  0  0  0  0  0  0  0  0  0  0
   15.4254   -9.8665  -11.6066 O   0  0  0  0  0  0  0  0  0  0  0  0
   17.2013   -9.3205  -13.0505 C   0  0  0  0  0  0  0  0  0  0  0  0
   18.6095   -8.8336  -13.0521 C   0  0  0  0  0  0  0  0  0  0  0  0
   19.2203   -8.6944  -14.4317 C   0  0  2  0  0  0  0  0  0  0  0  0
   19.6360   -9.9855  -14.9409 N   0  0  0  0  0  0  0  0  0  0  0  0
   20.4069   -7.7759  -14.3270 C   0  0  0  0  0  0  0  0  0  0  0  0
   21.5158   -8.3277  -14.0043 O   0  0  0  0  0  0  0  0  0  0  0  0
   20.3212   -6.3890  -14.5683 N   0  0  0  0  0  0  0  0  0  0  0  0
   19.1574   -5.5704  -14.8489 C   0  0  0  0  0  0  0  0  0  0  0  0
   19.7091   -4.5384  -15.8256 C   0  0  0  0  0  0  0  0  0  0  0  0
   21.1075   -4.3103  -15.3582 C   0  0  0  0  0  0  0  0  0  0  0  0
   21.4995   -5.5172  -14.5833 C   0  0  1  0  0  0  0  0  0  0  0  0
   21.7978   -5.1731  -13.1838 C   0  0  0  0  0  0  0  0  0  0  0  0
   23.0083   -4.6269  -12.7842 O   0  0  0  0  0  0  0  0  0  0  0  0
   20.9077   -5.3871  -12.3097 O   0  0  0  0  0  0  0  0  0  0  0  0
  1  5  1  0
  2  1  1  0
  3  2  1  0
  3  4  1  0
  4  5  1  0
  6  7  2  0
  5  6  1  1
  8  9  1  0
  9 11  1  0
 10  9  2  0
 11 12  1  0
 13 12  1  1
 13 14  1  0
 13 15  1  0
 14  6  1  0
 15 16  2  0
 17 15  1  0
 17 21  1  0
 18 17  1  0
 18 19  1  0
 19 20  1  0
 21 20  1  0
 22 23  1  0
 21 22  1  1
 24 22  2  0
M  END
$$$$
