PQP.pdb
     RDKit          3D

 24 25  0  0  1  0  0  0  0  0999 V2000
   28.3473  -19.7193  -17.2226 N   0  0  0  0  0  0  0  0  0  0  0  0
   28.0041  -19.6741  -18.6278 C   0  0  0  0  0  0  0  0  0  0  0  0
   28.2288  -18.2219  -19.0384 C   0  0  0  0  0  0  0  0  0  0  0  0
   27.7180  -17.4960  -17.8103 C   0  0  0  0  0  0  0  0  0  0  0  0
   28.2295  -18.3860  -16.6986 C   0  0  1  0  0  0  0  0  0  0  0  0
   27.3563  -18.3916  -15.5235 C   0  0  0  0  0  0  0  0  0  0  0  0
   27.1003  -17.2757  -14.9645 O   0  0  0  0  0  0  0  0  0  0  0  0
   21.7375  -20.1118  -15.7862 N   0  0  0  0  0  0  0  0  0  0  0  0
   21.8774  -19.8202  -14.4065 C   0  0  0  0  0  0  0  0  0  0  0  0
   20.8390  -19.7691  -13.7079 O   0  0  0  0  0  0  0  0  0  0  0  0
   23.1836  -19.5771  -13.7623 C   0  0  0  0  0  0  0  0  0  0  0  0
   24.3561  -19.6739  -14.6766 C   0  0  0  0  0  0  0  0  0  0  0  0
   25.6940  -19.4496  -14.0019 C   0  0  2  0  0  0  0  0  0  0  0  0
   26.7749  -19.5465  -14.9618 N   0  0  0  0  0  0  0  0  0  0  0  0
   25.8595  -20.4949  -12.9329 C   0  0  0  0  0  0  0  0  0  0  0  0
   26.1092  -21.6813  -13.3432 O   0  0  0  0  0  0  0  0  0  0  0  0
   25.7512  -20.2026  -11.5574 N   0  0  0  0  0  0  0  0  0  0  0  0
   25.4207  -18.9518  -10.9021 C   0  0  0  0  0  0  0  0  0  0  0  0
   26.2832  -19.0006   -9.6464 C   0  0  0  0  0  0  0  0  0  0  0  0
   26.3016  -20.4460   -9.2769 C   0  0  0  0  0  0  0  0  0  0  0  0
   25.9931  -21.2063  -10.5169 C   0  0  1  0  0  0  0  0  0  0  0  0
   24.7498  -21.9794  -10.3676 C   0  0  0  0  0  0  0  0  0  0  0  0
   24.6563  -23.1078   -9.5669 O   0  0  0  0  0  0  0  0  0  0  0  0
   23.7232  -21.5941  -10.9999 O   0  0  0  0  0  0  0  0  0  0  0  0
  1  5  1  0
  2  1  1  0
  3  2  1  0
  3  4  1  0
  4  5  1  0
  6  7  2  0
  5  6  1  1
  8  9  1  0
  9 11  1  0
 10  9  2  0
 11 12  1  0
 13 12  1  6
 13 14  1  0
 13 15  1  0
 14  6  1  0
 15 16  2  0
 17 15  1  0
 17 21  1  0
 18 17  1  0
 18 19  1  0
 19 20  1  0
 21 20  1  0
 22 23  1  0
 21 22  1  1
 24 22  2  0
M  END
$$$$
