PQP.pdb
     RDKit          3D

 24 25  0  0  1  0  0  0  0  0999 V2000
   26.7763  -12.8531  -17.3811 N   0  0  0  0  0  0  0  0  0  0  0  0
   28.2230  -12.8751  -17.3477 C   0  0  0  0  0  0  0  0  0  0  0  0
   28.5857  -12.5337  -15.9054 C   0  0  0  0  0  0  0  0  0  0  0  0
   27.5453  -11.4775  -15.5921 C   0  0  0  0  0  0  0  0  0  0  0  0
   26.3238  -12.0417  -16.2844 C   0  0  1  0  0  0  0  0  0  0  0  0
   25.4166  -11.0041  -16.7781 C   0  0  0  0  0  0  0  0  0  0  0  0
   25.6158  -10.5448  -17.9498 O   0  0  0  0  0  0  0  0  0  0  0  0
   19.9828  -12.7563  -17.6500 N   0  0  0  0  0  0  0  0  0  0  0  0
   20.3858  -11.4224  -17.9076 C   0  0  0  0  0  0  0  0  0  0  0  0
   19.5064  -10.5975  -18.2471 O   0  0  0  0  0  0  0  0  0  0  0  0
   21.7856  -10.9667  -17.7930 C   0  0  0  0  0  0  0  0  0  0  0  0
   22.0333   -9.9866  -16.6983 C   0  0  0  0  0  0  0  0  0  0  0  0
   23.4578   -9.4748  -16.6293 C   0  0  2  0  0  0  0  0  0  0  0  0
   24.3334  -10.4726  -16.0490 N   0  0  0  0  0  0  0  0  0  0  0  0
   23.4665   -8.2292  -15.7861 C   0  0  0  0  0  0  0  0  0  0  0  0
   23.6124   -8.4060  -14.5269 O   0  0  0  0  0  0  0  0  0  0  0  0
   23.3256   -6.9370  -16.3334 N   0  0  0  0  0  0  0  0  0  0  0  0
   23.1464   -6.5334  -17.7147 C   0  0  0  0  0  0  0  0  0  0  0  0
   23.9208   -5.2220  -17.7772 C   0  0  0  0  0  0  0  0  0  0  0  0
   23.7059   -4.6113  -16.4331 C   0  0  0  0  0  0  0  0  0  0  0  0
   23.3589   -5.7245  -15.5104 C   0  0  1  0  0  0  0  0  0  0  0  0
   22.0090   -5.5467  -14.9516 C   0  0  0  0  0  0  0  0  0  0  0  0
   20.9106   -6.2699  -15.3916 O   0  0  0  0  0  0  0  0  0  0  0  0
   21.8481   -4.6951  -14.0291 O   0  0  0  0  0  0  0  0  0  0  0  0
  1  5  1  0
  2  1  1  0
  3  2  1  0
  3  4  1  0
  4  5  1  0
  6  7  2  0
  5  6  1  6
  8  9  1  0
  9 11  1  0
 10  9  2  0
 11 12  1  0
 13 12  1  1
 13 14  1  0
 13 15  1  0
 14  6  1  0
 15 16  2  0
 17 15  1  0
 17 21  1  0
 18 17  1  0
 18 19  1  0
 19 20  1  0
 21 20  1  0
 22 23  1  0
 21 22  1  6
 24 22  2  0
M  END
$$$$
