PQP.pdb
     RDKit          3D

 24 25  0  0  1  0  0  0  0  0999 V2000
   26.6955  -20.4648  -13.7885 N   0  0  0  0  0  0  0  0  0  0  0  0
   27.7615  -20.1155  -14.7029 C   0  0  0  0  0  0  0  0  0  0  0  0
   28.9175  -21.0372  -14.3256 C   0  0  0  0  0  0  0  0  0  0  0  0
   28.7925  -21.0478  -12.8156 C   0  0  0  0  0  0  0  0  0  0  0  0
   27.2905  -21.0857  -12.6369 C   0  0  1  0  0  0  0  0  0  0  0  0
   26.8423  -20.4048  -11.4208 C   0  0  0  0  0  0  0  0  0  0  0  0
   26.7405  -19.1350  -11.4505 O   0  0  0  0  0  0  0  0  0  0  0  0
   22.0295  -20.8251   -7.8488 N   0  0  0  0  0  0  0  0  0  0  0  0
   22.3775  -20.3637   -9.1427 C   0  0  0  0  0  0  0  0  0  0  0  0
   21.4500  -20.1022   -9.9430 O   0  0  0  0  0  0  0  0  0  0  0  0
   23.7743  -20.1785   -9.5840 C   0  0  0  0  0  0  0  0  0  0  0  0
   24.8011  -20.5214   -8.5601 C   0  0  0  0  0  0  0  0  0  0  0  0
   26.2304  -20.2974   -9.0100 C   0  0  2  0  0  0  0  0  0  0  0  0
   26.5136  -21.0534  -10.2131 N   0  0  0  0  0  0  0  0  0  0  0  0
   27.1444  -20.7365   -7.8990 C   0  0  0  0  0  0  0  0  0  0  0  0
   27.4017  -21.9893   -7.8471 O   0  0  0  0  0  0  0  0  0  0  0  0
   27.6949  -19.8359   -6.9636 N   0  0  0  0  0  0  0  0  0  0  0  0
   27.6110  -18.3889   -6.9147 C   0  0  0  0  0  0  0  0  0  0  0  0
   28.9772  -17.9988   -6.3628 C   0  0  0  0  0  0  0  0  0  0  0  0
   29.3091  -19.0981   -5.4101 C   0  0  0  0  0  0  0  0  0  0  0  0
   28.5071  -20.2788   -5.8265 C   0  0  1  0  0  0  0  0  0  0  0  0
   27.5737  -20.6855   -4.7638 C   0  0  0  0  0  0  0  0  0  0  0  0
   27.9856  -21.3239   -3.6036 O   0  0  0  0  0  0  0  0  0  0  0  0
   26.3418  -20.4402   -4.9199 O   0  0  0  0  0  0  0  0  0  0  0  0
  1  5  1  0
  2  1  1  0
  3  2  1  0
  3  4  1  0
  4  5  1  0
  6  7  2  0
  5  6  1  1
  8  9  1  0
  9 11  1  0
 10  9  2  0
 11 12  1  0
 13 12  1  1
 13 14  1  0
 13 15  1  0
 14  6  1  0
 15 16  2  0
 17 15  1  0
 17 21  1  0
 18 17  1  0
 18 19  1  0
 19 20  1  0
 21 20  1  0
 22 23  1  0
 21 22  1  1
 24 22  2  0
M  END
$$$$
