PQP.pdb
     RDKit          3D

 24 25  0  0  1  0  0  0  0  0999 V2000
   25.5415  -16.6098  -17.1720 N   0  0  0  0  0  0  0  0  0  0  0  0
   25.0877  -15.2399  -17.0616 C   0  0  0  0  0  0  0  0  0  0  0  0
   26.0693  -14.5796  -16.0980 C   0  0  0  0  0  0  0  0  0  0  0  0
   26.2825  -15.6976  -15.0977 C   0  0  0  0  0  0  0  0  0  0  0  0
   26.3216  -16.9096  -16.0027 C   0  0  1  0  0  0  0  0  0  0  0  0
   25.8050  -18.1194  -15.3602 C   0  0  0  0  0  0  0  0  0  0  0  0
   24.5449  -18.3079  -15.3678 O   0  0  0  0  0  0  0  0  0  0  0  0
   25.3663  -23.3229  -16.1004 N   0  0  0  0  0  0  0  0  0  0  0  0
   25.4819  -23.5949  -14.7144 C   0  0  0  0  0  0  0  0  0  0  0  0
   24.8936  -24.6040  -14.2621 O   0  0  0  0  0  0  0  0  0  0  0  0
   26.2600  -22.7477  -13.7887 C   0  0  0  0  0  0  0  0  0  0  0  0
   26.8095  -21.5033  -14.3968 C   0  0  0  0  0  0  0  0  0  0  0  0
   26.0069  -20.2541  -14.0952 C   0  0  2  0  0  0  0  0  0  0  0  0
   26.6028  -19.0962  -14.7303 N   0  0  0  0  0  0  0  0  0  0  0  0
   25.9789  -20.0654  -12.6031 C   0  0  0  0  0  0  0  0  0  0  0  0
   26.9340  -19.3720  -12.1079 O   0  0  0  0  0  0  0  0  0  0  0  0
   24.9682  -20.6109  -11.7845 N   0  0  0  0  0  0  0  0  0  0  0  0
   23.8181  -21.4155  -12.1491 C   0  0  0  0  0  0  0  0  0  0  0  0
   22.7581  -20.9398  -11.1624 C   0  0  0  0  0  0  0  0  0  0  0  0
   23.5275  -20.6505   -9.9174 C   0  0  0  0  0  0  0  0  0  0  0  0
   24.9344  -20.4080  -10.3331 C   0  0  1  0  0  0  0  0  0  0  0  0
   25.8406  -21.4034   -9.7383 C   0  0  0  0  0  0  0  0  0  0  0  0
   26.3558  -21.2819   -8.4566 O   0  0  0  0  0  0  0  0  0  0  0  0
   26.1614  -22.4132  -10.4308 O   0  0  0  0  0  0  0  0  0  0  0  0
  1  5  1  0
  2  1  1  0
  3  2  1  0
  3  4  1  0
  4  5  1  0
  6  7  2  0
  5  6  1  1
  8  9  1  0
  9 11  1  0
 10  9  2  0
 11 12  1  0
 13 12  1  1
 13 14  1  0
 13 15  1  0
 14  6  1  0
 15 16  2  0
 17 15  1  0
 17 21  1  0
 18 17  1  0
 18 19  1  0
 19 20  1  0
 21 20  1  0
 22 23  1  0
 21 22  1  1
 24 22  2  0
M  END
$$$$
