KAT.pdb
     RDKit          3D

 22 21  0  0  1  0  0  0  0  0999 V2000
    6.4833  -14.8798   21.3983 N   0  0  0  0  0  0  0  0  0  0  0  0
    7.9049  -14.6044   21.3808 C   0  0  1  0  0  0  0  0  0  0  0  0
    8.2314  -13.4293   20.4803 C   0  0  0  0  0  0  0  0  0  0  0  0
    7.5449  -13.6295   19.1729 C   0  0  0  0  0  0  0  0  0  0  0  0
    8.3875  -13.4264   17.9666 C   0  0  0  0  0  0  0  0  0  0  0  0
    7.7242  -13.6835   16.6596 C   0  0  0  0  0  0  0  0  0  0  0  0
    8.6191  -13.5502   15.5279 N   0  0  0  0  0  0  0  0  0  0  0  0
    8.3907  -14.4618   22.7467 C   0  0  0  0  0  0  0  0  0  0  0  0
    9.6274  -14.4447   22.9599 O   0  0  0  0  0  0  0  0  0  0  0  0
    7.0129  -13.5526   26.1524 C   0  0  0  0  0  0  0  0  0  0  0  0
    8.0375  -14.1861   25.2264 C   0  0  2  0  0  0  0  0  0  0  0  0
    7.5526  -14.3364   23.8922 N   0  0  0  0  0  0  0  0  0  0  0  0
    8.4696  -15.4661   25.8375 C   0  0  0  0  0  0  0  0  0  0  0  0
    7.6672  -16.4245   25.9846 O   0  0  0  0  0  0  0  0  0  0  0  0
   12.0621  -18.6501   26.6477 C   0  0  0  0  0  0  0  0  0  0  0  0
   11.5345  -17.3542   26.1210 C   0  0  1  0  0  0  0  0  0  0  0  0
   11.2569  -17.5030   24.7638 O   0  0  0  0  0  0  0  0  0  0  0  0
   10.2559  -16.9310   26.8516 C   0  0  2  0  0  0  0  0  0  0  0  0
    9.8043  -15.6666   26.2827 N   0  0  0  0  0  0  0  0  0  0  0  0
   10.4824  -16.7958   28.2931 C   0  0  0  0  0  0  0  0  0  0  0  0
   10.4540  -17.8556   29.1955 O   0  0  0  0  0  0  0  0  0  0  0  0
   10.7198  -15.6547   28.7665 O   0  0  0  0  0  0  0  0  0  0  0  0
  2  1  1  1
  2  8  1  0
  3  2  1  0
  4  3  1  0
  5  4  1  0
  6  5  1  0
  7  6  1  0
  8  9  2  0
 11 10  1  1
 12  8  1  0
 12 11  1  0
 13 19  1  0
 13 11  1  0
 14 13  2  0
 16 15  1  1
 17 16  1  0
 18 19  1  6
 18 16  1  0
 20 21  1  0
 20 18  1  0
 22 20  2  0
M  END
$$$$
