KAT.pdb
     RDKit          3D

 22 21  0  0  1  0  0  0  0  0999 V2000
    6.9329  -15.9049   19.6287 N   0  0  0  0  0  0  0  0  0  0  0  0
    7.6911  -14.9079   20.3555 C   0  0  1  0  0  0  0  0  0  0  0  0
    7.2930  -13.5027   19.9489 C   0  0  0  0  0  0  0  0  0  0  0  0
    7.3149  -13.4160   18.4615 C   0  0  0  0  0  0  0  0  0  0  0  0
    8.5318  -13.9572   17.8038 C   0  0  0  0  0  0  0  0  0  0  0  0
    8.6004  -13.7918   16.3266 C   0  0  0  0  0  0  0  0  0  0  0  0
    9.7784  -14.3955   15.7374 N   0  0  0  0  0  0  0  0  0  0  0  0
    7.5905  -15.1659   21.7857 C   0  0  0  0  0  0  0  0  0  0  0  0
    6.6789  -14.6116   22.4468 O   0  0  0  0  0  0  0  0  0  0  0  0
    9.1595  -17.5048   24.3400 C   0  0  0  0  0  0  0  0  0  0  0  0
    8.3298  -16.3080   23.9066 C   0  0  2  0  0  0  0  0  0  0  0  0
    8.4669  -16.0201   22.5151 N   0  0  0  0  0  0  0  0  0  0  0  0
    8.6950  -15.1648   24.7774 C   0  0  0  0  0  0  0  0  0  0  0  0
    9.7506  -14.5071   24.5851 O   0  0  0  0  0  0  0  0  0  0  0  0
    6.8900  -11.8845   25.8407 C   0  0  0  0  0  0  0  0  0  0  0  0
    7.0895  -12.7825   27.0192 C   0  0  1  0  0  0  0  0  0  0  0  0
    5.9330  -13.5362   27.2079 O   0  0  0  0  0  0  0  0  0  0  0  0
    8.2765  -13.7283   26.8088 C   0  0  2  0  0  0  0  0  0  0  0  0
    7.8719  -14.7627   25.8640 N   0  0  0  0  0  0  0  0  0  0  0  0
    8.7147  -14.3274   28.0723 C   0  0  0  0  0  0  0  0  0  0  0  0
    9.2754  -13.6130   29.1275 O   0  0  0  0  0  0  0  0  0  0  0  0
    8.5841  -15.5681   28.2341 O   0  0  0  0  0  0  0  0  0  0  0  0
  2  1  1  6
  2  8  1  0
  3  2  1  0
  4  3  1  0
  5  4  1  0
  6  5  1  0
  7  6  1  0
  8  9  2  0
 11 10  1  1
 12  8  1  0
 12 11  1  0
 13 19  1  0
 13 11  1  0
 14 13  2  0
 16 15  1  6
 17 16  1  0
 18 19  1  6
 18 16  1  0
 20 21  1  0
 20 18  1  0
 22 20  2  0
M  END
$$$$
