KAT.pdb
     RDKit          3D

 22 21  0  0  1  0  0  0  0  0999 V2000
    8.5955  -17.2137   16.6881 N   0  0  0  0  0  0  0  0  0  0  0  0
    7.5616  -16.6394   17.5239 C   0  0  1  0  0  0  0  0  0  0  0  0
    6.5237  -17.6739   17.9122 C   0  0  0  0  0  0  0  0  0  0  0  0
    6.5254  -18.7548   16.8865 C   0  0  0  0  0  0  0  0  0  0  0  0
    5.5959  -19.8849   17.1417 C   0  0  0  0  0  0  0  0  0  0  0  0
    5.6363  -20.9959   16.1527 C   0  0  0  0  0  0  0  0  0  0  0  0
    4.7326  -22.0817   16.4747 N   0  0  0  0  0  0  0  0  0  0  0  0
    8.1733  -15.9548   18.6549 C   0  0  0  0  0  0  0  0  0  0  0  0
    9.3116  -16.3111   19.0456 O   0  0  0  0  0  0  0  0  0  0  0  0
    7.2928  -13.1277   21.0629 C   0  0  0  0  0  0  0  0  0  0  0  0
    8.1376  -14.2731   20.5311 C   0  0  2  0  0  0  0  0  0  0  0  0
    7.5677  -14.8838   19.3734 N   0  0  0  0  0  0  0  0  0  0  0  0
    8.3590  -15.2271   21.6444 C   0  0  0  0  0  0  0  0  0  0  0  0
    7.4144  -15.9111   22.1175 O   0  0  0  0  0  0  0  0  0  0  0  0
   11.3142  -17.6909   21.7058 C   0  0  0  0  0  0  0  0  0  0  0  0
   11.2570  -17.0220   23.0416 C   0  0  1  0  0  0  0  0  0  0  0  0
   12.2411  -16.0369   23.0908 O   0  0  0  0  0  0  0  0  0  0  0  0
    9.8888  -16.3777   23.2878 C   0  0  2  0  0  0  0  0  0  0  0  0
    9.6435  -15.4107   22.2244 N   0  0  0  0  0  0  0  0  0  0  0  0
    9.8314  -15.7269   24.5996 C   0  0  0  0  0  0  0  0  0  0  0  0
    9.6930  -14.3548   24.7903 O   0  0  0  0  0  0  0  0  0  0  0  0
    9.9108  -16.4377   25.6345 O   0  0  0  0  0  0  0  0  0  0  0  0
  2  1  1  1
  2  8  1  0
  3  2  1  0
  4  3  1  0
  5  4  1  0
  6  5  1  0
  7  6  1  0
  8  9  2  0
 11 10  1  1
 12  8  1  0
 12 11  1  0
 13 19  1  0
 13 11  1  0
 14 13  2  0
 16 15  1  6
 17 16  1  0
 18 19  1  6
 18 16  1  0
 20 21  1  0
 20 18  1  0
 22 20  2  0
M  END
$$$$
