KAT.pdb
     RDKit          3D

 22 21  0  0  1  0  0  0  0  0999 V2000
    7.9025  -18.0368   19.4905 N   0  0  0  0  0  0  0  0  0  0  0  0
    9.2796  -17.5888   19.4987 C   0  0  1  0  0  0  0  0  0  0  0  0
    9.8861  -17.6342   18.1100 C   0  0  0  0  0  0  0  0  0  0  0  0
    9.4043  -18.8655   17.4228 C   0  0  0  0  0  0  0  0  0  0  0  0
    9.7909  -18.9978   15.9947 C   0  0  0  0  0  0  0  0  0  0  0  0
   11.0488  -19.7468   15.7285 C   0  0  0  0  0  0  0  0  0  0  0  0
   11.4112  -19.7763   14.3260 N   0  0  0  0  0  0  0  0  0  0  0  0
    9.3645  -16.2856   20.1440 C   0  0  0  0  0  0  0  0  0  0  0  0
   10.4878  -15.8409   20.4842 O   0  0  0  0  0  0  0  0  0  0  0  0
    7.1151  -13.3048   20.7878 C   0  0  0  0  0  0  0  0  0  0  0  0
    8.3390  -14.1675   21.0449 C   0  0  2  0  0  0  0  0  0  0  0  0
    8.2448  -15.4515   20.4281 N   0  0  0  0  0  0  0  0  0  0  0  0
    8.5426  -14.2388   22.5119 C   0  0  0  0  0  0  0  0  0  0  0  0
    8.6966  -13.1979   23.2023 O   0  0  0  0  0  0  0  0  0  0  0  0
    6.4044  -15.2473   25.2263 C   0  0  0  0  0  0  0  0  0  0  0  0
    7.5698  -16.1814   25.2918 C   0  0  1  0  0  0  0  0  0  0  0  0
    7.2353  -17.3608   24.6297 O   0  0  0  0  0  0  0  0  0  0  0  0
    8.8137  -15.5729   24.6360 C   0  0  2  0  0  0  0  0  0  0  0  0
    8.5726  -15.4816   23.2008 N   0  0  0  0  0  0  0  0  0  0  0  0
   10.0094  -16.3754   24.9077 C   0  0  0  0  0  0  0  0  0  0  0  0
   10.5669  -16.5515   26.1711 O   0  0  0  0  0  0  0  0  0  0  0  0
   10.5851  -16.9516   23.9489 O   0  0  0  0  0  0  0  0  0  0  0  0
  2  1  1  6
  2  8  1  0
  3  2  1  0
  4  3  1  0
  5  4  1  0
  6  5  1  0
  7  6  1  0
  8  9  2  0
 11 10  1  1
 12  8  1  0
 12 11  1  0
 13 19  1  0
 13 11  1  0
 14 13  2  0
 16 15  1  6
 17 16  1  0
 18 19  1  6
 18 16  1  0
 20 21  1  0
 20 18  1  0
 22 20  2  0
M  END
$$$$
