KAT.pdb
     RDKit          3D

 22 21  0  0  1  0  0  0  0  0999 V2000
    9.4817  -16.7324   19.8391 N   0  0  0  0  0  0  0  0  0  0  0  0
    9.8938  -17.1342   21.1680 C   0  0  1  0  0  0  0  0  0  0  0  0
   11.3528  -16.8075   21.4190 C   0  0  0  0  0  0  0  0  0  0  0  0
   12.1814  -17.9579   20.9602 C   0  0  0  0  0  0  0  0  0  0  0  0
   12.9902  -17.7203   19.7371 C   0  0  0  0  0  0  0  0  0  0  0  0
   13.8841  -18.8352   19.3222 C   0  0  0  0  0  0  0  0  0  0  0  0
   14.5410  -18.5996   18.0525 N   0  0  0  0  0  0  0  0  0  0  0  0
    8.9791  -16.5725   22.1528 C   0  0  0  0  0  0  0  0  0  0  0  0
    8.5074  -15.4242   21.9679 O   0  0  0  0  0  0  0  0  0  0  0  0
    7.0599  -17.7767   25.2021 C   0  0  0  0  0  0  0  0  0  0  0  0
    7.6049  -16.7165   24.2600 C   0  0  2  0  0  0  0  0  0  0  0  0
    8.5647  -17.2394   23.3418 N   0  0  0  0  0  0  0  0  0  0  0  0
    8.1338  -15.6051   25.0866 C   0  0  0  0  0  0  0  0  0  0  0  0
    9.3599  -15.5166   25.3565 O   0  0  0  0  0  0  0  0  0  0  0  0
    6.4127  -11.7080   25.4589 C   0  0  0  0  0  0  0  0  0  0  0  0
    6.6428  -12.5232   26.6908 C   0  0  1  0  0  0  0  0  0  0  0  0
    5.4675  -13.2034   27.0028 O   0  0  0  0  0  0  0  0  0  0  0  0
    7.7721  -13.5387   26.4883 C   0  0  2  0  0  0  0  0  0  0  0  0
    7.2825  -14.5939   25.6090 N   0  0  0  0  0  0  0  0  0  0  0  0
    8.2235  -14.0996   27.7646 C   0  0  0  0  0  0  0  0  0  0  0  0
    8.8936  -13.3762   28.7474 O   0  0  0  0  0  0  0  0  0  0  0  0
    8.0003  -15.3136   28.0076 O   0  0  0  0  0  0  0  0  0  0  0  0
  2  1  1  6
  2  8  1  0
  3  2  1  0
  4  3  1  0
  5  4  1  0
  6  5  1  0
  7  6  1  0
  8  9  2  0
 11 10  1  1
 12  8  1  0
 12 11  1  0
 13 19  1  0
 13 11  1  0
 14 13  2  0
 16 15  1  6
 17 16  1  0
 18 19  1  6
 18 16  1  0
 20 21  1  0
 20 18  1  0
 22 20  2  0
M  END
$$$$
