KAT.pdb
     RDKit          3D

 22 21  0  0  1  0  0  0  0  0999 V2000
    7.4573  -17.0261   19.8522 N   0  0  0  0  0  0  0  0  0  0  0  0
    8.2603  -16.0803   20.5990 C   0  0  1  0  0  0  0  0  0  0  0  0
    7.8047  -14.6544   20.3589 C   0  0  0  0  0  0  0  0  0  0  0  0
    8.5733  -14.0989   19.2094 C   0  0  0  0  0  0  0  0  0  0  0  0
    7.7639  -13.6852   18.0347 C   0  0  0  0  0  0  0  0  0  0  0  0
    8.5312  -13.2129   16.8505 C   0  0  0  0  0  0  0  0  0  0  0  0
    7.6861  -12.7447   15.7707 N   0  0  0  0  0  0  0  0  0  0  0  0
    8.2907  -16.4681   22.0028 C   0  0  0  0  0  0  0  0  0  0  0  0
    7.2230  -16.8056   22.5698 O   0  0  0  0  0  0  0  0  0  0  0  0
   10.4381  -18.0080   24.4757 C   0  0  0  0  0  0  0  0  0  0  0  0
    9.4844  -16.8611   24.1868 C   0  0  2  0  0  0  0  0  0  0  0  0
    9.4667  -16.4964   22.8068 N   0  0  0  0  0  0  0  0  0  0  0  0
    9.8450  -15.7359   25.0827 C   0  0  0  0  0  0  0  0  0  0  0  0
   10.8671  -15.0328   24.8709 O   0  0  0  0  0  0  0  0  0  0  0  0
    8.3798  -12.1919   28.0450 C   0  0  0  0  0  0  0  0  0  0  0  0
    8.1027  -13.4458   27.2793 C   0  0  1  0  0  0  0  0  0  0  0  0
    7.5888  -13.1027   26.0305 O   0  0  0  0  0  0  0  0  0  0  0  0
    9.3748  -14.2781   27.0874 C   0  0  2  0  0  0  0  0  0  0  0  0
    9.0551  -15.4030   26.2163 N   0  0  0  0  0  0  0  0  0  0  0  0
    9.9028  -14.7529   28.3693 C   0  0  0  0  0  0  0  0  0  0  0  0
   10.6545  -13.9750   29.2457 O   0  0  0  0  0  0  0  0  0  0  0  0
    9.6725  -15.9390   28.7195 O   0  0  0  0  0  0  0  0  0  0  0  0
  2  1  1  6
  2  8  1  0
  3  2  1  0
  4  3  1  0
  5  4  1  0
  6  5  1  0
  7  6  1  0
  8  9  2  0
 11 10  1  6
 12  8  1  0
 12 11  1  0
 13 19  1  0
 13 11  1  0
 14 13  2  0
 16 15  1  1
 17 16  1  0
 18 19  1  6
 18 16  1  0
 20 21  1  0
 20 18  1  0
 22 20  2  0
M  END
$$$$
