KAT.pdb
     RDKit          3D

 22 21  0  0  1  0  0  0  0  0999 V2000
    8.4825  -17.1273   15.7472 N   0  0  0  0  0  0  0  0  0  0  0  0
    7.6554  -17.0522   16.9334 C   0  0  1  0  0  0  0  0  0  0  0  0
    7.2486  -18.4312   17.4145 C   0  0  0  0  0  0  0  0  0  0  0  0
    6.3837  -19.0590   16.3760 C   0  0  0  0  0  0  0  0  0  0  0  0
    4.9248  -19.0353   16.6542 C   0  0  0  0  0  0  0  0  0  0  0  0
    4.0578  -19.6832   15.6330 C   0  0  0  0  0  0  0  0  0  0  0  0
    2.6554  -19.6939   15.9969 N   0  0  0  0  0  0  0  0  0  0  0  0
    8.3231  -16.2416   17.9429 C   0  0  0  0  0  0  0  0  0  0  0  0
    9.5021  -16.5193   18.2719 O   0  0  0  0  0  0  0  0  0  0  0  0
    7.5322  -13.2137   20.1251 C   0  0  0  0  0  0  0  0  0  0  0  0
    8.3327  -14.4318   19.6961 C   0  0  2  0  0  0  0  0  0  0  0  0
    7.7303  -15.1281   18.6052 N   0  0  0  0  0  0  0  0  0  0  0  0
    8.5348  -15.2847   20.8920 C   0  0  0  0  0  0  0  0  0  0  0  0
    7.5615  -15.8076   21.4946 O   0  0  0  0  0  0  0  0  0  0  0  0
    9.9355  -18.4224   20.9016 C   0  0  0  0  0  0  0  0  0  0  0  0
   10.7816  -17.7191   21.9137 C   0  0  1  0  0  0  0  0  0  0  0  0
   11.9625  -17.3064   21.3003 O   0  0  0  0  0  0  0  0  0  0  0  0
   10.0628  -16.4962   22.4929 C   0  0  2  0  0  0  0  0  0  0  0  0
    9.8322  -15.5485   21.4089 N   0  0  0  0  0  0  0  0  0  0  0  0
   10.8443  -15.8731   23.5646 C   0  0  0  0  0  0  0  0  0  0  0  0
   10.9695  -16.3932   24.8499 O   0  0  0  0  0  0  0  0  0  0  0  0
   11.4499  -14.7962   23.3276 O   0  0  0  0  0  0  0  0  0  0  0  0
  2  1  1  6
  2  8  1  0
  3  2  1  0
  4  3  1  0
  5  4  1  0
  6  5  1  0
  7  6  1  0
  8  9  2  0
 11 10  1  1
 12  8  1  0
 12 11  1  0
 13 19  1  0
 13 11  1  0
 14 13  2  0
 16 15  1  6
 17 16  1  0
 18 19  1  6
 18 16  1  0
 20 21  1  0
 20 18  1  0
 22 20  2  0
M  END
$$$$
