KAT.pdb
     RDKit          3D

 22 21  0  0  1  0  0  0  0  0999 V2000
    8.4787  -12.6945   17.7181 N   0  0  0  0  0  0  0  0  0  0  0  0
    7.6784  -13.6584   18.4444 C   0  0  1  0  0  0  0  0  0  0  0  0
    7.4350  -14.9090   17.6227 C   0  0  0  0  0  0  0  0  0  0  0  0
    8.7516  -15.5297   17.3035 C   0  0  0  0  0  0  0  0  0  0  0  0
    8.6925  -16.8514   16.6283 C   0  0  0  0  0  0  0  0  0  0  0  0
   10.0034  -17.4977   16.3488 C   0  0  0  0  0  0  0  0  0  0  0  0
    9.8774  -18.8257   15.7832 N   0  0  0  0  0  0  0  0  0  0  0  0
    8.2800  -13.9088   19.7472 C   0  0  0  0  0  0  0  0  0  0  0  0
    9.5305  -13.9366   19.8509 O   0  0  0  0  0  0  0  0  0  0  0  0
    7.1414  -14.1598   23.3657 C   0  0  0  0  0  0  0  0  0  0  0  0
    8.1407  -14.3097   22.2310 C   0  0  2  0  0  0  0  0  0  0  0  0
    7.5437  -14.1306   20.9467 N   0  0  0  0  0  0  0  0  0  0  0  0
    8.8075  -15.6249   22.3859 C   0  0  0  0  0  0  0  0  0  0  0  0
    8.2515  -16.6888   22.0078 O   0  0  0  0  0  0  0  0  0  0  0  0
   12.0890  -16.7451   21.1063 C   0  0  0  0  0  0  0  0  0  0  0  0
   12.1432  -16.9840   22.5812 C   0  0  1  0  0  0  0  0  0  0  0  0
   12.8651  -15.9510   23.1753 O   0  0  0  0  0  0  0  0  0  0  0  0
   10.7394  -17.0324   23.1933 C   0  0  2  0  0  0  0  0  0  0  0  0
   10.0996  -15.7419   22.9662 N   0  0  0  0  0  0  0  0  0  0  0  0
   10.7898  -17.3376   24.6257 C   0  0  0  0  0  0  0  0  0  0  0  0
   11.2478  -18.5402   25.1570 O   0  0  0  0  0  0  0  0  0  0  0  0
   10.3977  -16.4684   25.4463 O   0  0  0  0  0  0  0  0  0  0  0  0
  2  1  1  6
  2  8  1  0
  3  2  1  0
  4  3  1  0
  5  4  1  0
  6  5  1  0
  7  6  1  0
  8  9  2  0
 11 10  1  1
 12  8  1  0
 12 11  1  0
 13 19  1  0
 13 11  1  0
 14 13  2  0
 16 15  1  6
 17 16  1  0
 18 19  1  1
 18 16  1  0
 20 21  1  0
 20 18  1  0
 22 20  2  0
M  END
$$$$
