KAT.pdb
     RDKit          3D

 22 21  0  0  1  0  0  0  0  0999 V2000
    8.4025  -16.0421   17.8155 N   0  0  0  0  0  0  0  0  0  0  0  0
    7.6796  -16.3614   19.0290 C   0  0  1  0  0  0  0  0  0  0  0  0
    7.2514  -17.8155   19.0535 C   0  0  0  0  0  0  0  0  0  0  0  0
    7.3064  -18.3489   17.6632 C   0  0  0  0  0  0  0  0  0  0  0  0
    6.1026  -19.0931   17.2121 C   0  0  0  0  0  0  0  0  0  0  0  0
    6.1622  -19.6514   15.8341 C   0  0  0  0  0  0  0  0  0  0  0  0
    4.9767  -20.4000   15.4683 N   0  0  0  0  0  0  0  0  0  0  0  0
    8.4640  -15.9512   20.1860 C   0  0  0  0  0  0  0  0  0  0  0  0
    9.6878  -16.2267   20.2270 O   0  0  0  0  0  0  0  0  0  0  0  0
    7.8799  -14.1615   23.5060 C   0  0  0  0  0  0  0  0  0  0  0  0
    8.6803  -14.9642   22.4943 C   0  0  2  0  0  0  0  0  0  0  0  0
    7.9402  -15.2429   21.3058 N   0  0  0  0  0  0  0  0  0  0  0  0
    9.1736  -16.1860   23.1741 C   0  0  0  0  0  0  0  0  0  0  0  0
    8.4704  -17.2278   23.2386 O   0  0  0  0  0  0  0  0  0  0  0  0
   13.1461  -18.7593   24.5094 C   0  0  0  0  0  0  0  0  0  0  0  0
   12.5014  -17.5205   23.9758 C   0  0  1  0  0  0  0  0  0  0  0  0
   12.6365  -17.5077   22.5892 O   0  0  0  0  0  0  0  0  0  0  0  0
   11.0132  -17.4633   24.3359 C   0  0  2  0  0  0  0  0  0  0  0  0
   10.4578  -16.2345   23.7810 N   0  0  0  0  0  0  0  0  0  0  0  0
   10.8107  -17.5113   25.7864 C   0  0  0  0  0  0  0  0  0  0  0  0
   10.4654  -16.4123   26.5681 O   0  0  0  0  0  0  0  0  0  0  0  0
   10.9535  -18.6092   26.3839 O   0  0  0  0  0  0  0  0  0  0  0  0
  2  1  1  6
  2  8  1  0
  3  2  1  0
  4  3  1  0
  5  4  1  0
  6  5  1  0
  7  6  1  0
  8  9  2  0
 11 10  1  1
 12  8  1  0
 12 11  1  0
 13 19  1  0
 13 11  1  0
 14 13  2  0
 16 15  1  6
 17 16  1  0
 18 19  1  1
 18 16  1  0
 20 21  1  0
 20 18  1  0
 22 20  2  0
M  END
$$$$
