KAT.pdb
     RDKit          3D

 22 21  0  0  1  0  0  0  0  0999 V2000
    8.5015  -17.9565   17.0648 N   0  0  0  0  0  0  0  0  0  0  0  0
    7.6598  -17.8562   18.2389 C   0  0  1  0  0  0  0  0  0  0  0  0
    7.2257  -19.2236   18.7289 C   0  0  0  0  0  0  0  0  0  0  0  0
    5.8785  -19.5225   18.1665 C   0  0  0  0  0  0  0  0  0  0  0  0
    5.8679  -20.1270   16.8097 C   0  0  0  0  0  0  0  0  0  0  0  0
    4.5292  -20.4874   16.2692 C   0  0  0  0  0  0  0  0  0  0  0  0
    4.5886  -21.1104   14.9624 N   0  0  0  0  0  0  0  0  0  0  0  0
    8.3263  -17.0450   19.2487 C   0  0  0  0  0  0  0  0  0  0  0  0
    9.5617  -17.1782   19.4260 O   0  0  0  0  0  0  0  0  0  0  0  0
    7.4130  -14.2970   21.7317 C   0  0  0  0  0  0  0  0  0  0  0  0
    8.3179  -15.3483   21.1117 C   0  0  2  0  0  0  0  0  0  0  0  0
    7.6716  -16.0858   20.0742 N   0  0  0  0  0  0  0  0  0  0  0  0
    8.8295  -16.2077   22.2064 C   0  0  0  0  0  0  0  0  0  0  0  0
    8.0818  -17.0310   22.7955 O   0  0  0  0  0  0  0  0  0  0  0  0
   11.8083  -18.4313   22.0071 C   0  0  0  0  0  0  0  0  0  0  0  0
   12.0131  -17.6077   23.2379 C   0  0  1  0  0  0  0  0  0  0  0  0
   12.9299  -16.5980   22.9529 O   0  0  0  0  0  0  0  0  0  0  0  0
   10.7013  -16.9751   23.7139 C   0  0  2  0  0  0  0  0  0  0  0  0
   10.1821  -16.1399   22.6372 N   0  0  0  0  0  0  0  0  0  0  0  0
   10.8991  -16.1829   24.9308 C   0  0  0  0  0  0  0  0  0  0  0  0
   10.7696  -14.7983   24.9964 O   0  0  0  0  0  0  0  0  0  0  0  0
   11.2069  -16.7745   25.9975 O   0  0  0  0  0  0  0  0  0  0  0  0
  2  1  1  6
  2  8  1  0
  3  2  1  0
  4  3  1  0
  5  4  1  0
  6  5  1  0
  7  6  1  0
  8  9  2  0
 11 10  1  1
 12  8  1  0
 12 11  1  0
 13 19  1  0
 13 11  1  0
 14 13  2  0
 16 15  1  6
 17 16  1  0
 18 19  1  6
 18 16  1  0
 20 21  1  0
 20 18  1  0
 22 20  2  0
M  END
$$$$
