KAT.pdb
     RDKit          3D

 22 21  0  0  1  0  0  0  0  0999 V2000
    9.9788  -16.0984   16.3033 N   0  0  0  0  0  0  0  0  0  0  0  0
    8.9315  -16.1139   17.3033 C   0  0  1  0  0  0  0  0  0  0  0  0
    8.7729  -17.4900   17.9194 C   0  0  0  0  0  0  0  0  0  0  0  0
    8.4720  -18.4638   16.8323 C   0  0  0  0  0  0  0  0  0  0  0  0
    8.2781  -19.8713   17.2656 C   0  0  0  0  0  0  0  0  0  0  0  0
    8.0845  -20.8660   16.1759 C   0  0  0  0  0  0  0  0  0  0  0  0
    7.9826  -22.2289   16.6569 N   0  0  0  0  0  0  0  0  0  0  0  0
    9.1659  -15.0508   18.2712 C   0  0  0  0  0  0  0  0  0  0  0  0
   10.3418  -14.7901   18.6242 O   0  0  0  0  0  0  0  0  0  0  0  0
    7.1937  -12.3141   20.0189 C   0  0  0  0  0  0  0  0  0  0  0  0
    8.3742  -13.2561   19.8529 C   0  0  2  0  0  0  0  0  0  0  0  0
    8.1402  -14.2607   18.8661 N   0  0  0  0  0  0  0  0  0  0  0  0
    8.6992  -13.8142   21.1876 C   0  0  0  0  0  0  0  0  0  0  0  0
    8.9339  -13.0643   22.1707 O   0  0  0  0  0  0  0  0  0  0  0  0
    6.6248  -16.4179   23.0712 C   0  0  0  0  0  0  0  0  0  0  0  0
    8.0274  -16.9250   22.9674 C   0  0  1  0  0  0  0  0  0  0  0  0
    8.1015  -17.8201   21.9023 O   0  0  0  0  0  0  0  0  0  0  0  0
    9.0208  -15.7823   22.7331 C   0  0  2  0  0  0  0  0  0  0  0  0
    8.7597  -15.2158   21.4150 N   0  0  0  0  0  0  0  0  0  0  0  0
   10.4066  -16.2492   22.8280 C   0  0  0  0  0  0  0  0  0  0  0  0
   11.0158  -16.6664   24.0082 O   0  0  0  0  0  0  0  0  0  0  0  0
   11.1092  -16.2828   21.7850 O   0  0  0  0  0  0  0  0  0  0  0  0
  2  1  1  6
  2  8  1  0
  3  2  1  0
  4  3  1  0
  5  4  1  0
  6  5  1  0
  7  6  1  0
  8  9  2  0
 11 10  1  1
 12  8  1  0
 12 11  1  0
 13 19  1  0
 13 11  1  0
 14 13  2  0
 16 15  1  6
 17 16  1  0
 18 19  1  6
 18 16  1  0
 20 21  1  0
 20 18  1  0
 22 20  2  0
M  END
$$$$
