MKA.pdb
     RDKit          3D

 23 22  0  0  1  0  0  0  0  0999 V2000
   29.9756  -21.3166   -9.5606 C   0  0  0  0  0  0  0  0  0  0  0  0
   28.6780  -20.6677   -8.5201 S   0  0  0  0  0  0  0  0  0  0  0  0
   27.1428  -21.5747   -8.5973 C   0  0  0  0  0  0  0  0  0  0  0  0
   26.6096  -21.7507   -9.9814 C   0  0  0  0  0  0  0  0  0  0  0  0
   25.9391  -20.4764  -10.4752 C   0  0  2  0  0  0  0  0  0  0  0  0
   24.7404  -20.1780   -9.7579 N   0  0  0  0  0  0  0  0  0  0  0  0
   25.6625  -20.5301  -11.9271 C   0  0  0  0  0  0  0  0  0  0  0  0
   26.6167  -20.7945  -12.7115 O   0  0  0  0  0  0  0  0  0  0  0  0
   24.3492  -20.2913  -12.4569 N   0  0  0  0  0  0  0  0  0  0  0  0
   24.1280  -20.2943  -13.8647 C   0  0  1  0  0  0  0  0  0  0  0  0
   22.6357  -20.3049  -14.1421 C   0  0  0  0  0  0  0  0  0  0  0  0
   22.3585  -20.3115  -15.6324 C   0  0  0  0  0  0  0  0  0  0  0  0
   21.6613  -21.5582  -16.0736 C   0  0  0  0  0  0  0  0  0  0  0  0
   21.4242  -21.4875  -17.5576 C   0  0  0  0  0  0  0  0  0  0  0  0
   20.5950  -22.5665  -18.0364 N   0  0  0  0  0  0  0  0  0  0  0  0
   24.7297  -19.1222  -14.5555 C   0  0  0  0  0  0  0  0  0  0  0  0
   24.2124  -17.9835  -14.4181 O   0  0  0  0  0  0  0  0  0  0  0  0
   27.9292  -17.8660  -15.7126 C   0  0  0  0  0  0  0  0  0  0  0  0
   26.4495  -18.0057  -16.0153 C   0  0  2  0  0  0  0  0  0  0  0  0
   25.8827  -19.1956  -15.3862 N   0  0  0  0  0  0  0  0  0  0  0  0
   26.1609  -18.0477  -17.4608 C   0  0  0  0  0  0  0  0  0  0  0  0
   25.5922  -19.0204  -18.0197 O   0  0  0  0  0  0  0  0  0  0  0  0
   26.5180  -16.9846  -18.2767 O   0  0  0  0  0  0  0  0  0  0  0  0
  2  3  1  0
  2  1  1  0
  4  5  1  0
  4  3  1  0
  5  6  1  1
  7  8  2  0
  7  5  1  0
  9  7  1  0
 10 11  1  1
 10  9  1  0
 11 12  1  0
 12 13  1  0
 13 14  1  0
 14 15  1  0
 16 10  1  0
 17 16  2  0
 19 18  1  6
 19 20  1  0
 20 16  1  0
 21 19  1  0
 21 23  1  0
 22 21  2  0
M  END
$$$$
