MKA.pdb
     RDKit          3D

 23 22  0  0  1  0  0  0  0  0999 V2000
   24.7600   -2.5343    0.5010 C   0  0  0  0  0  0  0  0  0  0  0  0
   24.7631   -0.8475   -0.0839 S   0  0  0  0  0  0  0  0  0  0  0  0
   25.6989   -0.5837   -1.5807 C   0  0  0  0  0  0  0  0  0  0  0  0
   25.7079    0.8344   -2.0500 C   0  0  0  0  0  0  0  0  0  0  0  0
   26.4835    0.9744   -3.3523 C   0  0  2  0  0  0  0  0  0  0  0  0
   27.8815    0.7347   -3.1826 N   0  0  0  0  0  0  0  0  0  0  0  0
   26.2670    2.2960   -3.9796 C   0  0  0  0  0  0  0  0  0  0  0  0
   27.2670    3.0461   -4.1616 O   0  0  0  0  0  0  0  0  0  0  0  0
   24.9612    2.7388   -4.3810 N   0  0  0  0  0  0  0  0  0  0  0  0
   24.7886    4.0142   -4.9928 C   0  0  1  0  0  0  0  0  0  0  0  0
   23.6760    3.9348   -6.0223 C   0  0  0  0  0  0  0  0  0  0  0  0
   23.5294    5.2461   -6.7686 C   0  0  0  0  0  0  0  0  0  0  0  0
   22.4763    5.1807   -7.8277 C   0  0  0  0  0  0  0  0  0  0  0  0
   22.4379    6.4935   -8.5617 C   0  0  0  0  0  0  0  0  0  0  0  0
   22.0617    7.5931   -7.7073 N   0  0  0  0  0  0  0  0  0  0  0  0
   24.4585    5.0911   -4.0211 C   0  0  0  0  0  0  0  0  0  0  0  0
   23.4865    4.9464   -3.2354 O   0  0  0  0  0  0  0  0  0  0  0  0
   26.1150    8.2195   -2.6655 C   0  0  0  0  0  0  0  0  0  0  0  0
   24.9770    7.2246   -2.7902 C   0  0  2  0  0  0  0  0  0  0  0  0
   25.1830    6.3108   -3.9108 N   0  0  0  0  0  0  0  0  0  0  0  0
   23.6613    7.8733   -2.9401 C   0  0  0  0  0  0  0  0  0  0  0  0
   22.8693    8.0505   -1.9792 O   0  0  0  0  0  0  0  0  0  0  0  0
   23.2404    8.3229   -4.1828 O   0  0  0  0  0  0  0  0  0  0  0  0
  2  3  1  0
  2  1  1  0
  4  5  1  0
  4  3  1  0
  5  6  1  1
  7  8  2  0
  7  5  1  0
  9  7  1  0
 10 11  1  6
 10  9  1  0
 11 12  1  0
 12 13  1  0
 13 14  1  0
 14 15  1  0
 16 10  1  0
 17 16  2  0
 19 18  1  6
 19 20  1  0
 20 16  1  0
 21 19  1  0
 21 23  1  0
 22 21  2  0
M  END
$$$$
