MKA.pdb
     RDKit          3D

 23 22  0  0  1  0  0  0  0  0999 V2000
   24.7324  -20.4094   -7.7440 C   0  0  0  0  0  0  0  0  0  0  0  0
   24.6603  -20.6127   -9.5162 S   0  0  0  0  0  0  0  0  0  0  0  0
   26.1391  -20.1112  -10.3806 C   0  0  0  0  0  0  0  0  0  0  0  0
   25.9902  -20.0691  -11.8663 C   0  0  0  0  0  0  0  0  0  0  0  0
   25.3692  -21.3564  -12.3902 C   0  0  2  0  0  0  0  0  0  0  0  0
   26.2576  -22.4705  -12.2897 N   0  0  0  0  0  0  0  0  0  0  0  0
   24.8952  -21.2086  -13.7833 C   0  0  0  0  0  0  0  0  0  0  0  0
   25.7139  -21.4181  -14.7223 O   0  0  0  0  0  0  0  0  0  0  0  0
   23.5417  -20.8370  -14.0871 N   0  0  0  0  0  0  0  0  0  0  0  0
   23.0881  -20.8064  -15.4377 C   0  0  1  0  0  0  0  0  0  0  0  0
   21.6645  -21.3289  -15.5049 C   0  0  0  0  0  0  0  0  0  0  0  0
   21.6424  -22.8431  -15.5726 C   0  0  0  0  0  0  0  0  0  0  0  0
   20.2764  -23.3775  -15.8618 C   0  0  0  0  0  0  0  0  0  0  0  0
   20.3571  -24.8724  -16.0118 C   0  0  0  0  0  0  0  0  0  0  0  0
   19.0839  -25.4636  -16.3437 N   0  0  0  0  0  0  0  0  0  0  0  0
   23.1217  -19.4454  -16.0371 C   0  0  0  0  0  0  0  0  0  0  0  0
   22.5350  -18.4942  -15.4592 O   0  0  0  0  0  0  0  0  0  0  0  0
   25.0669  -17.4800  -18.5607 C   0  0  0  0  0  0  0  0  0  0  0  0
   23.7905  -17.7734  -17.7957 C   0  0  2  0  0  0  0  0  0  0  0  0
   23.7889  -19.1295  -17.2536 N   0  0  0  0  0  0  0  0  0  0  0  0
   22.5764  -17.5849  -18.6112 C   0  0  0  0  0  0  0  0  0  0  0  0
   22.0243  -16.4664  -18.7729 O   0  0  0  0  0  0  0  0  0  0  0  0
   21.9849  -18.6670  -19.2457 O   0  0  0  0  0  0  0  0  0  0  0  0
  2  3  1  0
  2  1  1  0
  4  5  1  0
  4  3  1  0
  5  6  1  6
  7  8  2  0
  7  5  1  0
  9  7  1  0
 10 11  1  1
 10  9  1  0
 11 12  1  0
 12 13  1  0
 13 14  1  0
 14 15  1  0
 16 10  1  0
 17 16  2  0
 19 18  1  6
 19 20  1  0
 20 16  1  0
 21 19  1  0
 21 23  1  0
 22 21  2  0
M  END
$$$$
