MKA.pdb
     RDKit          3D

 23 22  0  0  1  0  0  0  0  0999 V2000
   31.3093  -21.9683   -7.2447 C   0  0  0  0  0  0  0  0  0  0  0  0
   31.9732  -21.5904   -8.8584 S   0  0  0  0  0  0  0  0  0  0  0  0
   30.9348  -22.0878  -10.2221 C   0  0  0  0  0  0  0  0  0  0  0  0
   29.6755  -21.2945  -10.3482 C   0  0  0  0  0  0  0  0  0  0  0  0
   28.7645  -21.8810  -11.4174 C   0  0  2  0  0  0  0  0  0  0  0  0
   29.4570  -22.1456  -12.6385 N   0  0  0  0  0  0  0  0  0  0  0  0
   27.5935  -21.0152  -11.6746 C   0  0  0  0  0  0  0  0  0  0  0  0
   26.9610  -20.5498  -10.6852 O   0  0  0  0  0  0  0  0  0  0  0  0
   27.1660  -20.6964  -13.0080 N   0  0  0  0  0  0  0  0  0  0  0  0
   26.0242  -19.8707  -13.2213 C   0  0  1  0  0  0  0  0  0  0  0  0
   25.9878  -19.4227  -14.6711 C   0  0  0  0  0  0  0  0  0  0  0  0
   27.1913  -18.5643  -15.0067 C   0  0  0  0  0  0  0  0  0  0  0  0
   27.1520  -18.0581  -16.4128 C   0  0  0  0  0  0  0  0  0  0  0  0
   28.3749  -17.2188  -16.6654 C   0  0  0  0  0  0  0  0  0  0  0  0
   28.4269  -16.7107  -18.0144 N   0  0  0  0  0  0  0  0  0  0  0  0
   24.7404  -20.5517  -12.9037 C   0  0  0  0  0  0  0  0  0  0  0  0
   24.5803  -21.7596  -13.2173 O   0  0  0  0  0  0  0  0  0  0  0  0
   21.8405  -20.1645  -10.5951 C   0  0  0  0  0  0  0  0  0  0  0  0
   22.4334  -20.6546  -11.9023 C   0  0  2  0  0  0  0  0  0  0  0  0
   23.6456  -19.9186  -12.2515 N   0  0  0  0  0  0  0  0  0  0  0  0
   21.4853  -20.5730  -13.0288 C   0  0  0  0  0  0  0  0  0  0  0  0
   21.6480  -19.8019  -14.0091 O   0  0  0  0  0  0  0  0  0  0  0  0
   20.3484  -21.3671  -13.0453 O   0  0  0  0  0  0  0  0  0  0  0  0
  2  3  1  0
  2  1  1  0
  4  5  1  0
  4  3  1  0
  5  6  1  6
  7  8  2  0
  7  5  1  0
  9  7  1  0
 10 11  1  6
 10  9  1  0
 11 12  1  0
 12 13  1  0
 13 14  1  0
 14 15  1  0
 16 10  1  0
 17 16  2  0
 19 18  1  1
 19 20  1  0
 20 16  1  0
 21 19  1  0
 21 23  1  0
 22 21  2  0
M  END
$$$$
