MKA.pdb
     RDKit          3D

 23 22  0  0  1  0  0  0  0  0999 V2000
   11.5041  -15.2476  -16.2674 C   0  0  0  0  0  0  0  0  0  0  0  0
   12.4758  -13.7725  -16.5269 S   0  0  0  0  0  0  0  0  0  0  0  0
   13.7913  -13.5340  -15.3445 C   0  0  0  0  0  0  0  0  0  0  0  0
   14.4592  -12.2013  -15.4388 C   0  0  0  0  0  0  0  0  0  0  0  0
   15.6460  -12.1160  -14.4893 C   0  0  2  0  0  0  0  0  0  0  0  0
   15.4941  -12.9635  -13.3495 N   0  0  0  0  0  0  0  0  0  0  0  0
   15.9035  -10.7251  -14.0577 C   0  0  0  0  0  0  0  0  0  0  0  0
   16.0811   -9.8435  -14.9448 O   0  0  0  0  0  0  0  0  0  0  0  0
   15.9549  -10.3604  -12.6696 N   0  0  0  0  0  0  0  0  0  0  0  0
   16.2193   -9.0132  -12.2873 C   0  0  1  0  0  0  0  0  0  0  0  0
   15.6373   -8.7552  -10.9094 C   0  0  0  0  0  0  0  0  0  0  0  0
   15.7909   -7.2991  -10.5169 C   0  0  0  0  0  0  0  0  0  0  0  0
   15.2372   -7.0172   -9.1571 C   0  0  0  0  0  0  0  0  0  0  0  0
   15.3199   -5.5386   -8.8916 C   0  0  0  0  0  0  0  0  0  0  0  0
   14.8766   -5.1904   -7.5638 N   0  0  0  0  0  0  0  0  0  0  0  0
   17.6701   -8.6860  -12.2573 C   0  0  0  0  0  0  0  0  0  0  0  0
   18.3701   -9.0420  -11.2743 O   0  0  0  0  0  0  0  0  0  0  0  0
   20.6148   -8.3870  -14.1550 C   0  0  0  0  0  0  0  0  0  0  0  0
   19.7557   -7.6144  -13.1725 C   0  0  2  0  0  0  0  0  0  0  0  0
   18.3461   -7.9780  -13.2900 N   0  0  0  0  0  0  0  0  0  0  0  0
   19.8850   -6.1531  -13.3226 C   0  0  0  0  0  0  0  0  0  0  0  0
   18.9640   -5.4248  -13.7734 O   0  0  0  0  0  0  0  0  0  0  0  0
   21.0617   -5.5141  -12.9614 O   0  0  0  0  0  0  0  0  0  0  0  0
  2  3  1  0
  2  1  1  0
  4  5  1  0
  4  3  1  0
  5  6  1  1
  7  8  2  0
  7  5  1  0
  9  7  1  0
 10 11  1  1
 10  9  1  0
 11 12  1  0
 12 13  1  0
 13 14  1  0
 14 15  1  0
 16 10  1  0
 17 16  2  0
 19 18  1  6
 19 20  1  0
 20 16  1  0
 21 19  1  0
 21 23  1  0
 22 21  2  0
M  END
$$$$
