MKA.pdb
     RDKit          3D

 23 22  0  0  1  0  0  0  0  0999 V2000
   19.0283  -19.2309   -1.1859 C   0  0  0  0  0  0  0  0  0  0  0  0
   19.1146  -18.2620    0.3112 S   0  0  0  0  0  0  0  0  0  0  0  0
   17.9027  -18.6979    1.5470 C   0  0  0  0  0  0  0  0  0  0  0  0
   18.0840  -17.9931    2.8514 C   0  0  0  0  0  0  0  0  0  0  0  0
   16.9212  -18.2761    3.7921 C   0  0  2  0  0  0  0  0  0  0  0  0
   15.7018  -17.6806    3.3460 N   0  0  0  0  0  0  0  0  0  0  0  0
   17.2193  -17.8480    5.1759 C   0  0  0  0  0  0  0  0  0  0  0  0
   16.8848  -16.6824    5.5299 O   0  0  0  0  0  0  0  0  0  0  0  0
   17.8722  -18.7180    6.1135 N   0  0  0  0  0  0  0  0  0  0  0  0
   18.1711  -18.2643    7.4310 C   0  0  1  0  0  0  0  0  0  0  0  0
   18.0101  -19.4130    8.4101 C   0  0  0  0  0  0  0  0  0  0  0  0
   17.0795  -19.0349    9.5455 C   0  0  0  0  0  0  0  0  0  0  0  0
   16.8962  -20.1507   10.5234 C   0  0  0  0  0  0  0  0  0  0  0  0
   15.9357  -19.7103   11.5944 C   0  0  0  0  0  0  0  0  0  0  0  0
   15.7148  -20.7294   12.5911 N   0  0  0  0  0  0  0  0  0  0  0  0
   19.5480  -17.7176    7.5648 C   0  0  0  0  0  0  0  0  0  0  0  0
   20.5042  -18.2829    6.9738 O   0  0  0  0  0  0  0  0  0  0  0  0
   21.3329  -14.8046    9.2463 C   0  0  0  0  0  0  0  0  0  0  0  0
   21.2561  -16.1241    8.5024 C   0  0  2  0  0  0  0  0  0  0  0  0
   19.8743  -16.5670    8.3357 N   0  0  0  0  0  0  0  0  0  0  0  0
   22.0248  -17.1983    9.1581 C   0  0  0  0  0  0  0  0  0  0  0  0
   23.2117  -17.4792    8.8512 O   0  0  0  0  0  0  0  0  0  0  0  0
   21.4473  -17.9575   10.1648 O   0  0  0  0  0  0  0  0  0  0  0  0
  2  3  1  0
  2  1  1  0
  4  5  1  0
  4  3  1  0
  5  6  1  6
  7  8  2  0
  7  5  1  0
  9  7  1  0
 10 11  1  1
 10  9  1  0
 11 12  1  0
 12 13  1  0
 13 14  1  0
 14 15  1  0
 16 10  1  0
 17 16  2  0
 19 18  1  1
 19 20  1  0
 20 16  1  0
 21 19  1  0
 21 23  1  0
 22 21  2  0
M  END
$$$$
