MKA.pdb
     RDKit          3D

 23 22  0  0  1  0  0  0  0  0999 V2000
   29.4434  -19.6104   -7.7109 C   0  0  0  0  0  0  0  0  0  0  0  0
   28.0394  -18.8401   -6.9217 S   0  0  0  0  0  0  0  0  0  0  0  0
   26.4536  -19.4184   -7.5016 C   0  0  0  0  0  0  0  0  0  0  0  0
   26.4911  -20.0328   -8.8626 C   0  0  0  0  0  0  0  0  0  0  0  0
   25.0956  -20.4326   -9.3207 C   0  0  2  0  0  0  0  0  0  0  0  0
   24.6014  -21.5789   -8.6261 N   0  0  0  0  0  0  0  0  0  0  0  0
   25.0429  -20.6614  -10.7808 C   0  0  0  0  0  0  0  0  0  0  0  0
   25.4239  -21.7796  -11.2283 O   0  0  0  0  0  0  0  0  0  0  0  0
   24.5736  -19.6526  -11.6888 N   0  0  0  0  0  0  0  0  0  0  0  0
   24.4964  -19.9198  -13.0865 C   0  0  1  0  0  0  0  0  0  0  0  0
   23.4654  -19.0037  -13.7203 C   0  0  0  0  0  0  0  0  0  0  0  0
   23.3887  -19.2234  -15.2182 C   0  0  0  0  0  0  0  0  0  0  0  0
   22.2737  -20.1433  -15.5997 C   0  0  0  0  0  0  0  0  0  0  0  0
   22.3108  -20.3672  -17.0870 C   0  0  0  0  0  0  0  0  0  0  0  0
   21.2614  -21.2475  -17.5393 N   0  0  0  0  0  0  0  0  0  0  0  0
   25.7928  -19.7332  -13.7917 C   0  0  0  0  0  0  0  0  0  0  0  0
   26.3848  -18.6249  -13.7270 O   0  0  0  0  0  0  0  0  0  0  0  0
   28.5489  -21.7349  -15.3389 C   0  0  0  0  0  0  0  0  0  0  0  0
   27.6815  -20.4924  -15.2723 C   0  0  2  0  0  0  0  0  0  0  0  0
   26.4330  -20.7467  -14.5583 N   0  0  0  0  0  0  0  0  0  0  0  0
   27.3655  -19.9411  -16.6030 C   0  0  0  0  0  0  0  0  0  0  0  0
   26.2168  -19.9925  -17.1128 O   0  0  0  0  0  0  0  0  0  0  0  0
   28.3539  -19.3296  -17.3597 O   0  0  0  0  0  0  0  0  0  0  0  0
  2  3  1  0
  2  1  1  0
  4  5  1  0
  4  3  1  0
  5  6  1  1
  7  8  2  0
  7  5  1  0
  9  7  1  0
 10 11  1  6
 10  9  1  0
 11 12  1  0
 12 13  1  0
 13 14  1  0
 14 15  1  0
 16 10  1  0
 17 16  2  0
 19 18  1  6
 19 20  1  0
 20 16  1  0
 21 19  1  0
 21 23  1  0
 22 21  2  0
M  END
$$$$
