MKA.pdb
     RDKit          3D

 23 22  0  0  1  0  0  0  0  0999 V2000
   20.7462  -16.9276    1.4589 C   0  0  0  0  0  0  0  0  0  0  0  0
   19.7678  -15.6063    0.7631 S   0  0  0  0  0  0  0  0  0  0  0  0
   18.4035  -15.0768    1.7849 C   0  0  0  0  0  0  0  0  0  0  0  0
   18.6604  -15.1963    3.2515 C   0  0  0  0  0  0  0  0  0  0  0  0
   17.4652  -14.7075    4.0576 C   0  0  2  0  0  0  0  0  0  0  0  0
   17.1593  -13.3358    3.8016 N   0  0  0  0  0  0  0  0  0  0  0  0
   17.6573  -14.9232    5.5080 C   0  0  0  0  0  0  0  0  0  0  0  0
   18.2168  -14.0132    6.1822 O   0  0  0  0  0  0  0  0  0  0  0  0
   17.2268  -16.1295    6.1576 N   0  0  0  0  0  0  0  0  0  0  0  0
   17.5550  -16.3697    7.5234 C   0  0  1  0  0  0  0  0  0  0  0  0
   16.4235  -17.1318    8.1889 C   0  0  0  0  0  0  0  0  0  0  0  0
   15.4363  -16.1832    8.8397 C   0  0  0  0  0  0  0  0  0  0  0  0
   14.2998  -16.9056    9.4889 C   0  0  0  0  0  0  0  0  0  0  0  0
   13.3502  -15.8973   10.0763 C   0  0  0  0  0  0  0  0  0  0  0  0
   12.2153  -16.5154   10.7171 N   0  0  0  0  0  0  0  0  0  0  0  0
   18.8134  -17.1436    7.6968 C   0  0  0  0  0  0  0  0  0  0  0  0
   19.0518  -18.1242    6.9453 O   0  0  0  0  0  0  0  0  0  0  0  0
   22.0079  -16.9872    9.7580 C   0  0  0  0  0  0  0  0  0  0  0  0
   21.0354  -17.6183    8.7800 C   0  0  2  0  0  0  0  0  0  0  0  0
   19.7983  -16.8483    8.6805 N   0  0  0  0  0  0  0  0  0  0  0  0
   20.7020  -19.0135    9.1216 C   0  0  0  0  0  0  0  0  0  0  0  0
   19.7870  -19.3237    9.9269 O   0  0  0  0  0  0  0  0  0  0  0  0
   21.4076  -20.0616    8.5497 O   0  0  0  0  0  0  0  0  0  0  0  0
  2  3  1  0
  2  1  1  0
  4  5  1  0
  4  3  1  0
  5  6  1  1
  7  8  2  0
  7  5  1  0
  9  7  1  0
 10 11  1  6
 10  9  1  0
 11 12  1  0
 12 13  1  0
 13 14  1  0
 14 15  1  0
 16 10  1  0
 17 16  2  0
 19 18  1  1
 19 20  1  0
 20 16  1  0
 21 19  1  0
 21 23  1  0
 22 21  2  0
M  END
$$$$
