MKA.pdb
     RDKit          3D

 23 22  0  0  1  0  0  0  0  0999 V2000
   27.0017  -27.7087    6.3222 C   0  0  0  0  0  0  0  0  0  0  0  0
   26.9867  -29.4788    6.5544 S   0  0  0  0  0  0  0  0  0  0  0  0
   25.5407  -30.2993    5.9052 C   0  0  0  0  0  0  0  0  0  0  0  0
   24.2594  -29.5841    6.1840 C   0  0  0  0  0  0  0  0  0  0  0  0
   23.0712  -30.3517    5.6218 C   0  0  2  0  0  0  0  0  0  0  0  0
   23.0848  -30.4086    4.1945 N   0  0  0  0  0  0  0  0  0  0  0  0
   21.7855  -29.7955    6.0960 C   0  0  0  0  0  0  0  0  0  0  0  0
   21.2683  -28.8415    5.4494 O   0  0  0  0  0  0  0  0  0  0  0  0
   21.1214  -30.3104    7.2605 N   0  0  0  0  0  0  0  0  0  0  0  0
   19.8699  -29.7694    7.6753 C   0  0  1  0  0  0  0  0  0  0  0  0
   19.1630  -30.7644    8.5776 C   0  0  0  0  0  0  0  0  0  0  0  0
   17.9031  -31.2947    7.9225 C   0  0  0  0  0  0  0  0  0  0  0  0
   17.2187  -32.3255    8.7618 C   0  0  0  0  0  0  0  0  0  0  0  0
   15.9814  -32.7963    8.0469 C   0  0  0  0  0  0  0  0  0  0  0  0
   15.3186  -33.8730    8.7412 N   0  0  0  0  0  0  0  0  0  0  0  0
   20.0013  -28.4793    8.4042 C   0  0  0  0  0  0  0  0  0  0  0  0
   21.0284  -28.2546    9.0953 O   0  0  0  0  0  0  0  0  0  0  0  0
   20.0613  -26.3947   10.3444 C   0  0  0  0  0  0  0  0  0  0  0  0
   19.2056  -26.1973    9.1077 C   0  0  2  0  0  0  0  0  0  0  0  0
   19.0208  -27.4484    8.3773 N   0  0  0  0  0  0  0  0  0  0  0  0
   19.7532  -25.1843    8.1866 C   0  0  0  0  0  0  0  0  0  0  0  0
   20.1467  -25.4550    7.0231 O   0  0  0  0  0  0  0  0  0  0  0  0
   19.8562  -23.8597    8.5845 O   0  0  0  0  0  0  0  0  0  0  0  0
  2  3  1  0
  2  1  1  0
  4  5  1  0
  4  3  1  0
  5  6  1  6
  7  8  2  0
  7  5  1  0
  9  7  1  0
 10 11  1  1
 10  9  1  0
 11 12  1  0
 12 13  1  0
 13 14  1  0
 14 15  1  0
 16 10  1  0
 17 16  2  0
 19 18  1  1
 19 20  1  0
 20 16  1  0
 21 19  1  0
 21 23  1  0
 22 21  2  0
M  END
$$$$
