MKA.pdb
     RDKit          3D

 23 22  0  0  1  0  0  0  0  0999 V2000
   26.7522  -18.3669   -7.7360 C   0  0  0  0  0  0  0  0  0  0  0  0
   26.7437  -20.1132   -7.3646 S   0  0  0  0  0  0  0  0  0  0  0  0
   26.1106  -21.1466   -8.6749 C   0  0  0  0  0  0  0  0  0  0  0  0
   26.1205  -20.4971  -10.0199 C   0  0  0  0  0  0  0  0  0  0  0  0
   25.6391  -21.4605  -11.0958 C   0  0  2  0  0  0  0  0  0  0  0  0
   26.4679  -22.6193  -11.2003 N   0  0  0  0  0  0  0  0  0  0  0  0
   25.5240  -20.7977  -12.4129 C   0  0  0  0  0  0  0  0  0  0  0  0
   26.5697  -20.6531  -13.1066 O   0  0  0  0  0  0  0  0  0  0  0  0
   24.2649  -20.3215  -12.9133 N   0  0  0  0  0  0  0  0  0  0  0  0
   24.1381  -19.9093  -14.2715 C   0  0  1  0  0  0  0  0  0  0  0  0
   22.7405  -20.2305  -14.7690 C   0  0  0  0  0  0  0  0  0  0  0  0
   22.7529  -21.4359  -15.6881 C   0  0  0  0  0  0  0  0  0  0  0  0
   23.2530  -22.6665  -15.0022 C   0  0  0  0  0  0  0  0  0  0  0  0
   23.3161  -23.7915  -15.9991 C   0  0  0  0  0  0  0  0  0  0  0  0
   23.9470  -24.9717  -15.4608 N   0  0  0  0  0  0  0  0  0  0  0  0
   24.3888  -18.4564  -14.4694 C   0  0  0  0  0  0  0  0  0  0  0  0
   23.6698  -17.6123  -13.8749 O   0  0  0  0  0  0  0  0  0  0  0  0
   27.1447  -16.1917  -15.4764 C   0  0  0  0  0  0  0  0  0  0  0  0
   25.6608  -16.4984  -15.4094 C   0  0  2  0  0  0  0  0  0  0  0  0
   25.4133  -17.9342  -15.3075 N   0  0  0  0  0  0  0  0  0  0  0  0
   24.9122  -15.9667  -16.5633 C   0  0  0  0  0  0  0  0  0  0  0  0
   24.4962  -16.6898  -17.5045 O   0  0  0  0  0  0  0  0  0  0  0  0
   24.6340  -14.6109  -16.6520 O   0  0  0  0  0  0  0  0  0  0  0  0
  2  3  1  0
  2  1  1  0
  4  5  1  0
  4  3  1  0
  5  6  1  6
  7  8  2  0
  7  5  1  0
  9  7  1  0
 10 11  1  1
 10  9  1  0
 11 12  1  0
 12 13  1  0
 13 14  1  0
 14 15  1  0
 16 10  1  0
 17 16  2  0
 19 18  1  6
 19 20  1  0
 20 16  1  0
 21 19  1  0
 21 23  1  0
 22 21  2  0
M  END
$$$$
