MKA.pdb
     RDKit          3D

 23 22  0  0  1  0  0  0  0  0999 V2000
   24.5104  -17.8258  -15.2144 C   0  0  0  0  0  0  0  0  0  0  0  0
   23.9301  -16.1924  -15.6420 S   0  0  0  0  0  0  0  0  0  0  0  0
   25.1696  -14.9130  -15.5318 C   0  0  0  0  0  0  0  0  0  0  0  0
   24.6521  -13.5396  -15.8096 C   0  0  0  0  0  0  0  0  0  0  0  0
   23.8475  -13.5095  -17.1015 C   0  0  2  0  0  0  0  0  0  0  0  0
   24.6383  -13.8408  -18.2441 N   0  0  0  0  0  0  0  0  0  0  0  0
   23.1847  -12.2030  -17.3038 C   0  0  0  0  0  0  0  0  0  0  0  0
   23.8478  -11.2684  -17.8354 O   0  0  0  0  0  0  0  0  0  0  0  0
   21.8211  -11.9774  -16.9139 N   0  0  0  0  0  0  0  0  0  0  0  0
   21.1777  -10.7437  -17.2219 C   0  0  1  0  0  0  0  0  0  0  0  0
   19.7030  -10.9934  -17.4811 C   0  0  0  0  0  0  0  0  0  0  0  0
   19.4983  -11.7493  -18.7790 C   0  0  0  0  0  0  0  0  0  0  0  0
   18.0527  -11.9994  -19.0672 C   0  0  0  0  0  0  0  0  0  0  0  0
   17.9387  -12.8209  -20.3224 C   0  0  0  0  0  0  0  0  0  0  0  0
   16.5698  -13.1250  -20.6609 N   0  0  0  0  0  0  0  0  0  0  0  0
   21.3033   -9.7305  -16.1399 C   0  0  0  0  0  0  0  0  0  0  0  0
   21.1337  -10.0732  -14.9412 O   0  0  0  0  0  0  0  0  0  0  0  0
   22.1675   -6.0460  -15.7358 C   0  0  0  0  0  0  0  0  0  0  0  0
   21.6381   -7.3906  -15.2749 C   0  0  2  0  0  0  0  0  0  0  0  0
   21.6104   -8.3599  -16.3671 N   0  0  0  0  0  0  0  0  0  0  0  0
   20.2914   -7.3041  -14.6805 C   0  0  0  0  0  0  0  0  0  0  0  0
   19.2349   -7.4034  -15.3556 O   0  0  0  0  0  0  0  0  0  0  0  0
   20.1403   -7.1039  -13.3165 O   0  0  0  0  0  0  0  0  0  0  0  0
  2  3  1  0
  2  1  1  0
  4  5  1  0
  4  3  1  0
  5  6  1  6
  7  8  2  0
  7  5  1  0
  9  7  1  0
 10 11  1  1
 10  9  1  0
 11 12  1  0
 12 13  1  0
 13 14  1  0
 14 15  1  0
 16 10  1  0
 17 16  2  0
 19 18  1  6
 19 20  1  0
 20 16  1  0
 21 19  1  0
 21 23  1  0
 22 21  2  0
M  END
$$$$
