MKA.pdb
     RDKit          3D

 23 22  0  0  1  0  0  0  0  0999 V2000
   30.0540  -16.4896  -17.7687 C   0  0  0  0  0  0  0  0  0  0  0  0
   28.9877  -15.0686  -17.9458 S   0  0  0  0  0  0  0  0  0  0  0  0
   27.3583  -15.4383  -18.5733 C   0  0  0  0  0  0  0  0  0  0  0  0
   26.6870  -16.5818  -17.8857 C   0  0  0  0  0  0  0  0  0  0  0  0
   25.2932  -16.8174  -18.4504 C   0  0  2  0  0  0  0  0  0  0  0  0
   24.4457  -15.6768  -18.3039 N   0  0  0  0  0  0  0  0  0  0  0  0
   24.6524  -18.0071  -17.8495 C   0  0  0  0  0  0  0  0  0  0  0  0
   25.2546  -19.1152  -17.9217 O   0  0  0  0  0  0  0  0  0  0  0  0
   23.3770  -17.9302  -17.1940 N   0  0  0  0  0  0  0  0  0  0  0  0
   22.7880  -19.0957  -16.6233 C   0  0  1  0  0  0  0  0  0  0  0  0
   21.9573  -18.7026  -15.4153 C   0  0  0  0  0  0  0  0  0  0  0  0
   21.3271  -19.9198  -14.7679 C   0  0  0  0  0  0  0  0  0  0  0  0
   20.4914  -19.5617  -13.5811 C   0  0  0  0  0  0  0  0  0  0  0  0
   19.8407  -20.8084  -13.0463 C   0  0  0  0  0  0  0  0  0  0  0  0
   18.9530  -20.5377  -11.9419 N   0  0  0  0  0  0  0  0  0  0  0  0
   21.9187  -19.8392  -17.5742 C   0  0  0  0  0  0  0  0  0  0  0  0
   20.9433  -19.2565  -18.1146 O   0  0  0  0  0  0  0  0  0  0  0  0
   21.9134  -23.1261  -19.4538 C   0  0  0  0  0  0  0  0  0  0  0  0
   21.2622  -21.8683  -18.9111 C   0  0  2  0  0  0  0  0  0  0  0  0
   22.1142  -21.2033  -17.9289 N   0  0  0  0  0  0  0  0  0  0  0  0
   19.9427  -22.1216  -18.3034 C   0  0  0  0  0  0  0  0  0  0  0  0
   19.7731  -22.2683  -17.0658 O   0  0  0  0  0  0  0  0  0  0  0  0
   18.8108  -22.2097  -19.1000 O   0  0  0  0  0  0  0  0  0  0  0  0
  2  3  1  0
  2  1  1  0
  4  5  1  0
  4  3  1  0
  5  6  1  1
  7  8  2  0
  7  5  1  0
  9  7  1  0
 10 11  1  1
 10  9  1  0
 11 12  1  0
 12 13  1  0
 13 14  1  0
 14 15  1  0
 16 10  1  0
 17 16  2  0
 19 18  1  1
 19 20  1  0
 20 16  1  0
 21 19  1  0
 21 23  1  0
 22 21  2  0
M  END
$$$$
