GQM.pdb
     RDKit          3D

 22 21  0  0  1  0  0  0  0  0999 V2000
    6.4277  -19.5587   21.9855 N   0  0  0  0  0  0  0  0  0  0  0  0
    5.9703  -18.2975   22.4863 C   0  0  0  0  0  0  0  0  0  0  0  0
    6.8845  -17.2320   21.9959 C   0  0  0  0  0  0  0  0  0  0  0  0
    8.1107  -17.4539   21.8277 O   0  0  0  0  0  0  0  0  0  0  0  0
   10.0287  -12.4040   19.3463 N   0  0  0  0  0  0  0  0  0  0  0  0
    8.7282  -12.9414   19.1542 C   0  0  0  0  0  0  0  0  0  0  0  0
    8.5625  -13.6581   18.1461 O   0  0  0  0  0  0  0  0  0  0  0  0
    7.6698  -12.6636   20.0899 C   0  0  0  0  0  0  0  0  0  0  0  0
    6.7837  -13.7183   20.5705 C   0  0  0  0  0  0  0  0  0  0  0  0
    7.2938  -14.8269   21.4055 C   0  0  2  0  0  0  0  0  0  0  0  0
    6.4041  -15.9042   21.6939 N   0  0  0  0  0  0  0  0  0  0  0  0
    8.0807  -14.3866   22.5750 C   0  0  0  0  0  0  0  0  0  0  0  0
    8.5542  -13.2466   22.6028 O   0  0  0  0  0  0  0  0  0  0  0  0
    6.5299  -11.4106   26.3963 C   0  0  0  0  0  0  0  0  0  0  0  0
    7.8874  -11.8974   27.4893 S   0  0  0  0  0  0  0  0  0  0  0  0
    8.6816  -13.4117   26.8860 C   0  0  0  0  0  0  0  0  0  0  0  0
    8.1210  -13.8225   25.5490 C   0  0  0  0  0  0  0  0  0  0  0  0
    8.9377  -14.9055   24.8841 C   0  0  2  0  0  0  0  0  0  0  0  0
    8.2830  -15.2678   23.6446 N   0  0  0  0  0  0  0  0  0  0  0  0
    9.0248  -16.0587   25.8161 C   0  0  0  0  0  0  0  0  0  0  0  0
    8.3391  -17.0780   25.5571 O   0  0  0  0  0  0  0  0  0  0  0  0
    9.8166  -16.0541   26.9374 O   0  0  0  0  0  0  0  0  0  0  0  0
  2  1  1  0
  3  2  1  0
  3 11  1  0
  4  3  2  0
  5  6  1  0
  6  7  2  0
  6  8  1  0
  8  9  1  0
 10  9  1  1
 10 12  1  0
 11 10  1  0
 12 13  2  0
 12 19  1  0
 15 14  1  0
 16 15  1  0
 17 16  1  0
 18 17  1  1
 18 20  1  0
 19 18  1  0
 20 22  1  0
 21 20  2  0
M  END
$$$$
