GQM.pdb
     RDKit          3D

 22 21  0  0  1  0  0  0  0  0999 V2000
    8.0687  -12.8788   18.5733 N   0  0  0  0  0  0  0  0  0  0  0  0
    8.4107  -14.2337   18.8864 C   0  0  0  0  0  0  0  0  0  0  0  0
    7.8650  -14.5629   20.2300 C   0  0  0  0  0  0  0  0  0  0  0  0
    7.6191  -13.6609   21.0709 O   0  0  0  0  0  0  0  0  0  0  0  0
    5.4299  -20.1478   23.2871 N   0  0  0  0  0  0  0  0  0  0  0  0
    6.7657  -19.9046   22.8705 C   0  0  0  0  0  0  0  0  0  0  0  0
    7.6387  -20.6808   23.3095 O   0  0  0  0  0  0  0  0  0  0  0  0
    7.0744  -18.8138   21.9828 C   0  0  0  0  0  0  0  0  0  0  0  0
    6.3844  -17.5323   22.0846 C   0  0  0  0  0  0  0  0  0  0  0  0
    7.1119  -16.2550   21.9241 C   0  0  2  0  0  0  0  0  0  0  0  0
    7.5960  -15.9260   20.6231 N   0  0  0  0  0  0  0  0  0  0  0  0
    8.0847  -15.9772   22.9999 C   0  0  0  0  0  0  0  0  0  0  0  0
    9.2951  -16.0471   22.7665 O   0  0  0  0  0  0  0  0  0  0  0  0
    5.3718  -12.0761   27.2840 C   0  0  0  0  0  0  0  0  0  0  0  0
    7.1217  -11.6608   27.4834 S   0  0  0  0  0  0  0  0  0  0  0  0
    8.1706  -13.0328   26.9308 C   0  0  0  0  0  0  0  0  0  0  0  0
    7.4824  -13.8470   25.8659 C   0  0  0  0  0  0  0  0  0  0  0  0
    8.3933  -14.8789   25.2436 C   0  0  2  0  0  0  0  0  0  0  0  0
    7.6247  -15.6357   24.2779 N   0  0  0  0  0  0  0  0  0  0  0  0
    8.9194  -15.7471   26.3279 C   0  0  0  0  0  0  0  0  0  0  0  0
    8.3910  -16.8746   26.4878 O   0  0  0  0  0  0  0  0  0  0  0  0
    9.9492  -15.3693   27.1532 O   0  0  0  0  0  0  0  0  0  0  0  0
  2  1  1  0
  3  2  1  0
  3 11  1  0
  4  3  2  0
  5  6  1  0
  6  7  2  0
  6  8  1  0
  8  9  1  0
 10  9  1  6
 10 12  1  0
 11 10  1  0
 12 13  2  0
 12 19  1  0
 15 14  1  0
 16 15  1  0
 17 16  1  0
 18 17  1  1
 18 20  1  0
 19 18  1  0
 20 22  1  0
 21 20  2  0
M  END
$$$$
