GQM.pdb
     RDKit          3D

 22 21  0  0  1  0  0  0  0  0999 V2000
    9.0660  -18.4363   18.4357 N   0  0  0  0  0  0  0  0  0  0  0  0
    9.3860  -18.9522   19.7327 C   0  0  0  0  0  0  0  0  0  0  0  0
    8.4376  -18.3738   20.7213 C   0  0  0  0  0  0  0  0  0  0  0  0
    7.5495  -17.5561   20.3691 O   0  0  0  0  0  0  0  0  0  0  0  0
    5.4024  -21.7633   24.1267 N   0  0  0  0  0  0  0  0  0  0  0  0
    6.6013  -21.4564   24.8233 C   0  0  0  0  0  0  0  0  0  0  0  0
    7.0622  -22.3490   25.5637 O   0  0  0  0  0  0  0  0  0  0  0  0
    7.2384  -20.1748   24.6659 C   0  0  0  0  0  0  0  0  0  0  0  0
    6.6906  -19.1580   23.7744 C   0  0  0  0  0  0  0  0  0  0  0  0
    7.5709  -18.2008   23.0706 C   0  0  2  0  0  0  0  0  0  0  0  0
    8.4966  -18.7256   22.1204 N   0  0  0  0  0  0  0  0  0  0  0  0
    8.1526  -17.1629   23.9454 C   0  0  0  0  0  0  0  0  0  0  0  0
    9.3409  -17.2318   24.2736 O   0  0  0  0  0  0  0  0  0  0  0  0
    6.8408  -10.0832   26.8867 C   0  0  0  0  0  0  0  0  0  0  0  0
    6.3692  -11.4830   25.8414 S   0  0  0  0  0  0  0  0  0  0  0  0
    7.0012  -13.0364   26.5308 C   0  0  0  0  0  0  0  0  0  0  0  0
    6.6221  -14.2087   25.6633 C   0  0  0  0  0  0  0  0  0  0  0  0
    7.8151  -15.0427   25.2593 C   0  0  2  0  0  0  0  0  0  0  0  0
    7.3498  -16.1073   24.3955 N   0  0  0  0  0  0  0  0  0  0  0  0
    8.4483  -15.5744   26.4932 C   0  0  0  0  0  0  0  0  0  0  0  0
    8.0912  -16.7085   26.8964 O   0  0  0  0  0  0  0  0  0  0  0  0
    9.3982  -14.8824   27.2025 O   0  0  0  0  0  0  0  0  0  0  0  0
  2  1  1  0
  3  2  1  0
  3 11  1  0
  4  3  2  0
  5  6  1  0
  6  7  2  0
  6  8  1  0
  8  9  1  0
 10  9  1  1
 10 12  1  0
 11 10  1  0
 12 13  2  0
 12 19  1  0
 15 14  1  0
 16 15  1  0
 17 16  1  0
 18 17  1  1
 18 20  1  0
 19 18  1  0
 20 22  1  0
 21 20  2  0
M  END
$$$$
