GQM.pdb
     RDKit          3D

 22 21  0  0  1  0  0  0  0  0999 V2000
   -3.2971  -25.7379   25.7641 N   0  0  0  0  0  0  0  0  0  0  0  0
   -2.8325  -24.8671   26.8017 C   0  0  0  0  0  0  0  0  0  0  0  0
   -2.9195  -25.5868   28.1002 C   0  0  0  0  0  0  0  0  0  0  0  0
   -3.1271  -26.8263   28.1441 O   0  0  0  0  0  0  0  0  0  0  0  0
   -1.0981  -28.5392   33.8605 N   0  0  0  0  0  0  0  0  0  0  0  0
   -0.8467  -27.6740   32.7626 C   0  0  0  0  0  0  0  0  0  0  0  0
   -0.0253  -28.0735   31.9123 O   0  0  0  0  0  0  0  0  0  0  0  0
   -1.5194  -26.4057   32.6539 C   0  0  0  0  0  0  0  0  0  0  0  0
   -1.5683  -25.6769   31.3910 C   0  0  0  0  0  0  0  0  0  0  0  0
   -2.8191  -25.5823   30.6082 C   0  0  2  0  0  0  0  0  0  0  0  0
   -2.7699  -24.8953   29.3589 N   0  0  0  0  0  0  0  0  0  0  0  0
   -4.0102  -25.2485   31.4150 C   0  0  0  0  0  0  0  0  0  0  0  0
   -4.2104  -24.0800   31.7601 O   0  0  0  0  0  0  0  0  0  0  0  0
  -10.8434  -26.6718   29.9059 C   0  0  0  0  0  0  0  0  0  0  0  0
   -9.4965  -27.5163   30.7703 S   0  0  0  0  0  0  0  0  0  0  0  0
   -8.2777  -26.3190   31.3778 C   0  0  0  0  0  0  0  0  0  0  0  0
   -7.1568  -27.0102   32.1101 C   0  0  0  0  0  0  0  0  0  0  0  0
   -6.0914  -26.0491   32.5825 C   0  0  2  0  0  0  0  0  0  0  0  0
   -4.9041  -26.2623   31.7819 N   0  0  0  0  0  0  0  0  0  0  0  0
   -5.8365  -26.3107   34.0223 C   0  0  0  0  0  0  0  0  0  0  0  0
   -6.7799  -26.1271   34.8300 O   0  0  0  0  0  0  0  0  0  0  0  0
   -4.6233  -26.7406   34.4995 O   0  0  0  0  0  0  0  0  0  0  0  0
  2  1  1  0
  3  2  1  0
  3 11  1  0
  4  3  2  0
  5  6  1  0
  6  7  2  0
  6  8  1  0
  8  9  1  0
 10  9  1  1
 10 12  1  0
 11 10  1  0
 12 13  2  0
 12 19  1  0
 15 14  1  0
 16 15  1  0
 17 16  1  0
 18 17  1  6
 18 20  1  0
 19 18  1  0
 20 22  1  0
 21 20  2  0
M  END
$$$$
