GQM.pdb
     RDKit          3D

 22 21  0  0  1  0  0  0  0  0999 V2000
    7.4180  -13.1955   17.5359 N   0  0  0  0  0  0  0  0  0  0  0  0
    8.5744  -13.1040   18.3757 C   0  0  0  0  0  0  0  0  0  0  0  0
    8.4001  -14.0296   19.5265 C   0  0  0  0  0  0  0  0  0  0  0  0
    7.4720  -13.8650   20.3587 O   0  0  0  0  0  0  0  0  0  0  0  0
   10.7465  -20.1221   20.4875 N   0  0  0  0  0  0  0  0  0  0  0  0
    9.9598  -19.7523   21.6107 C   0  0  0  0  0  0  0  0  0  0  0  0
    9.7583  -20.6366   22.4679 O   0  0  0  0  0  0  0  0  0  0  0  0
    9.4342  -18.4178   21.7358 C   0  0  0  0  0  0  0  0  0  0  0  0
    9.6296  -17.4224   20.6871 C   0  0  0  0  0  0  0  0  0  0  0  0
    9.1322  -16.0385   20.8414 C   0  0  2  0  0  0  0  0  0  0  0  0
    9.2856  -15.1509   19.7350 N   0  0  0  0  0  0  0  0  0  0  0  0
    9.4660  -15.4203   22.1403 C   0  0  0  0  0  0  0  0  0  0  0  0
   10.5606  -14.8705   22.2957 O   0  0  0  0  0  0  0  0  0  0  0  0
    6.2551  -10.8705   27.1693 C   0  0  0  0  0  0  0  0  0  0  0  0
    5.9421  -12.5218   26.4987 S   0  0  0  0  0  0  0  0  0  0  0  0
    7.5029  -13.3672   26.1285 C   0  0  0  0  0  0  0  0  0  0  0  0
    7.4322  -14.0810   24.8034 C   0  0  0  0  0  0  0  0  0  0  0  0
    8.7154  -14.8012   24.4617 C   0  0  2  0  0  0  0  0  0  0  0  0
    8.5359  -15.4628   23.1866 N   0  0  0  0  0  0  0  0  0  0  0  0
    9.0053  -15.7722   25.5477 C   0  0  0  0  0  0  0  0  0  0  0  0
    8.6988  -16.9750   25.3592 O   0  0  0  0  0  0  0  0  0  0  0  0
    9.5885  -15.4103   26.7365 O   0  0  0  0  0  0  0  0  0  0  0  0
  2  1  1  0
  3  2  1  0
  3 11  1  0
  4  3  2  0
  5  6  1  0
  6  7  2  0
  6  8  1  0
  8  9  1  0
 10  9  1  6
 10 12  1  0
 11 10  1  0
 12 13  2  0
 12 19  1  0
 15 14  1  0
 16 15  1  0
 17 16  1  0
 18 17  1  1
 18 20  1  0
 19 18  1  0
 20 22  1  0
 21 20  2  0
M  END
$$$$
