GQM.pdb
     RDKit          3D

 22 21  0  0  1  0  0  0  0  0999 V2000
    5.3159  -19.3996   22.3789 N   0  0  0  0  0  0  0  0  0  0  0  0
    5.1937  -18.0828   22.9286 C   0  0  0  0  0  0  0  0  0  0  0  0
    6.2571  -17.2234   22.3437 C   0  0  0  0  0  0  0  0  0  0  0  0
    7.3627  -17.7070   21.9898 O   0  0  0  0  0  0  0  0  0  0  0  0
   10.0495  -13.7403   19.4079 N   0  0  0  0  0  0  0  0  0  0  0  0
    8.6571  -13.6036   19.1639 C   0  0  0  0  0  0  0  0  0  0  0  0
    8.2408  -14.0057   18.0583 O   0  0  0  0  0  0  0  0  0  0  0  0
    7.7870  -13.0303   20.1575 C   0  0  0  0  0  0  0  0  0  0  0  0
    6.7599  -13.8273   20.8196 C   0  0  0  0  0  0  0  0  0  0  0  0
    7.1178  -14.9523   21.7100 C   0  0  2  0  0  0  0  0  0  0  0  0
    6.0652  -15.8044   22.1586 N   0  0  0  0  0  0  0  0  0  0  0  0
    8.0780  -14.5958   22.7738 C   0  0  0  0  0  0  0  0  0  0  0  0
    8.2061  -13.4162   23.1155 O   0  0  0  0  0  0  0  0  0  0  0  0
   10.4841  -13.3033   29.4399 C   0  0  0  0  0  0  0  0  0  0  0  0
    9.2939  -13.7392   28.1485 S   0  0  0  0  0  0  0  0  0  0  0  0
   10.1351  -14.5066   26.7373 C   0  0  0  0  0  0  0  0  0  0  0  0
    9.1799  -14.7335   25.5943 C   0  0  0  0  0  0  0  0  0  0  0  0
    9.8494  -15.3567   24.3921 C   0  0  2  0  0  0  0  0  0  0  0  0
    8.8361  -15.6010   23.3873 N   0  0  0  0  0  0  0  0  0  0  0  0
   10.5052  -16.6162   24.8277 C   0  0  0  0  0  0  0  0  0  0  0  0
    9.8914  -17.6951   24.6393 O   0  0  0  0  0  0  0  0  0  0  0  0
   11.7423  -16.6470   25.4217 O   0  0  0  0  0  0  0  0  0  0  0  0
  2  1  1  0
  3  2  1  0
  3 11  1  0
  4  3  2  0
  5  6  1  0
  6  7  2  0
  6  8  1  0
  8  9  1  0
 10  9  1  1
 10 12  1  0
 11 10  1  0
 12 13  2  0
 12 19  1  0
 15 14  1  0
 16 15  1  0
 17 16  1  0
 18 17  1  1
 18 20  1  0
 19 18  1  0
 20 22  1  0
 21 20  2  0
M  END
$$$$
