GQM.pdb
     RDKit          3D

 22 21  0  0  1  0  0  0  0  0999 V2000
   11.3842  -18.9017   19.1296 N   0  0  0  0  0  0  0  0  0  0  0  0
   10.3166  -18.9286   20.0836 C   0  0  0  0  0  0  0  0  0  0  0  0
    9.9941  -17.5307   20.4752 C   0  0  0  0  0  0  0  0  0  0  0  0
   10.8997  -16.7208   20.7995 O   0  0  0  0  0  0  0  0  0  0  0  0
    8.0724  -13.1015   17.7193 N   0  0  0  0  0  0  0  0  0  0  0  0
    8.3150  -13.1466   19.1179 C   0  0  0  0  0  0  0  0  0  0  0  0
    9.4365  -12.7585   19.5039 O   0  0  0  0  0  0  0  0  0  0  0  0
    7.3026  -13.6168   20.0272 C   0  0  0  0  0  0  0  0  0  0  0  0
    7.1849  -15.0303   20.3689 C   0  0  0  0  0  0  0  0  0  0  0  0
    8.2991  -15.7590   21.0123 C   0  0  2  0  0  0  0  0  0  0  0  0
    8.6337  -17.0473   20.4991 N   0  0  0  0  0  0  0  0  0  0  0  0
    8.2836  -15.7010   22.4879 C   0  0  0  0  0  0  0  0  0  0  0  0
    7.9862  -16.7070   23.1390 O   0  0  0  0  0  0  0  0  0  0  0  0
    6.1269  -11.2923   28.4131 C   0  0  0  0  0  0  0  0  0  0  0  0
    6.1017  -11.7947   26.6749 S   0  0  0  0  0  0  0  0  0  0  0  0
    7.3045  -13.1181   26.3750 C   0  0  0  0  0  0  0  0  0  0  0  0
    7.3747  -13.4657   24.9105 C   0  0  0  0  0  0  0  0  0  0  0  0
    8.5732  -14.3209   24.5728 C   0  0  2  0  0  0  0  0  0  0  0  0
    8.6076  -14.5030   23.1370 N   0  0  0  0  0  0  0  0  0  0  0  0
    8.4346  -15.6159   25.2870 C   0  0  0  0  0  0  0  0  0  0  0  0
    7.3561  -16.2458   25.1599 O   0  0  0  0  0  0  0  0  0  0  0  0
    9.4284  -16.1454   26.0721 O   0  0  0  0  0  0  0  0  0  0  0  0
  2  1  1  0
  3  2  1  0
  3 11  1  0
  4  3  2  0
  5  6  1  0
  6  7  2  0
  6  8  1  0
  8  9  1  0
 10  9  1  6
 10 12  1  0
 11 10  1  0
 12 13  2  0
 12 19  1  0
 15 14  1  0
 16 15  1  0
 17 16  1  0
 18 17  1  6
 18 20  1  0
 19 18  1  0
 20 22  1  0
 21 20  2  0
M  END
$$$$
