GQM.pdb
     RDKit          3D

 22 21  0  0  1  0  0  0  0  0999 V2000
    6.3567  -18.9539   19.3613 N   0  0  0  0  0  0  0  0  0  0  0  0
    5.8650  -18.0023   20.3118 C   0  0  0  0  0  0  0  0  0  0  0  0
    6.9387  -17.0120   20.5912 C   0  0  0  0  0  0  0  0  0  0  0  0
    8.1371  -17.3708   20.7192 O   0  0  0  0  0  0  0  0  0  0  0  0
    8.2078  -14.3699   17.3107 N   0  0  0  0  0  0  0  0  0  0  0  0
    8.5982  -13.6356   18.4620 C   0  0  0  0  0  0  0  0  0  0  0  0
    9.8244  -13.5274   18.6672 O   0  0  0  0  0  0  0  0  0  0  0  0
    7.6123  -13.0507   19.3331 C   0  0  0  0  0  0  0  0  0  0  0  0
    7.6156  -13.3118   20.7685 C   0  0  0  0  0  0  0  0  0  0  0  0
    7.5893  -14.6926   21.2967 C   0  0  2  0  0  0  0  0  0  0  0  0
    6.6509  -15.6035   20.7266 N   0  0  0  0  0  0  0  0  0  0  0  0
    7.6672  -14.7753   22.7691 C   0  0  0  0  0  0  0  0  0  0  0  0
    6.6579  -15.0559   23.4227 O   0  0  0  0  0  0  0  0  0  0  0  0
    5.5362  -12.0973   26.7001 C   0  0  0  0  0  0  0  0  0  0  0  0
    7.0783  -12.2445   27.6353 S   0  0  0  0  0  0  0  0  0  0  0  0
    8.1121  -13.5710   26.9575 C   0  0  0  0  0  0  0  0  0  0  0  0
    8.0988  -13.5531   25.4509 C   0  0  0  0  0  0  0  0  0  0  0  0
    9.0659  -14.5453   24.8491 C   0  0  2  0  0  0  0  0  0  0  0  0
    8.8877  -14.5347   23.4123 N   0  0  0  0  0  0  0  0  0  0  0  0
    8.7781  -15.8827   25.4278 C   0  0  0  0  0  0  0  0  0  0  0  0
    8.1631  -16.7128   24.7145 O   0  0  0  0  0  0  0  0  0  0  0  0
    9.1537  -16.2429   26.6980 O   0  0  0  0  0  0  0  0  0  0  0  0
  2  1  1  0
  3  2  1  0
  3 11  1  0
  4  3  2  0
  5  6  1  0
  6  7  2  0
  6  8  1  0
  8  9  1  0
 10  9  1  1
 10 12  1  0
 11 10  1  0
 12 13  2  0
 12 19  1  0
 15 14  1  0
 16 15  1  0
 17 16  1  0
 18 17  1  1
 18 20  1  0
 19 18  1  0
 20 22  1  0
 21 20  2  0
M  END
$$$$
