GQM.pdb
     RDKit          3D

 22 21  0  0  1  0  0  0  0  0999 V2000
    7.4367  -12.8831   18.0209 N   0  0  0  0  0  0  0  0  0  0  0  0
    8.6789  -13.5207   18.3389 C   0  0  0  0  0  0  0  0  0  0  0  0
    8.4886  -14.3501   19.5584 C   0  0  0  0  0  0  0  0  0  0  0  0
    7.6400  -14.0370   20.4319 O   0  0  0  0  0  0  0  0  0  0  0  0
    8.5005  -20.4094   20.6541 N   0  0  0  0  0  0  0  0  0  0  0  0
    8.8591  -19.9172   21.9371 C   0  0  0  0  0  0  0  0  0  0  0  0
    8.6511  -20.6762   22.9056 O   0  0  0  0  0  0  0  0  0  0  0  0
    9.4358  -18.6068   22.0896 C   0  0  0  0  0  0  0  0  0  0  0  0
    9.6149  -17.7174   20.9469 C   0  0  0  0  0  0  0  0  0  0  0  0
    9.1187  -16.3248   20.9741 C   0  0  2  0  0  0  0  0  0  0  0  0
    9.2668  -15.5443   19.7891 N   0  0  0  0  0  0  0  0  0  0  0  0
    9.4592  -15.5886   22.2081 C   0  0  0  0  0  0  0  0  0  0  0  0
   10.5615  -15.0424   22.3131 O   0  0  0  0  0  0  0  0  0  0  0  0
    6.1851  -11.5068   28.0565 C   0  0  0  0  0  0  0  0  0  0  0  0
    6.0117  -12.4911   26.5480 S   0  0  0  0  0  0  0  0  0  0  0  0
    7.5621  -13.3492   26.1636 C   0  0  0  0  0  0  0  0  0  0  0  0
    7.4623  -14.0897   24.8551 C   0  0  0  0  0  0  0  0  0  0  0  0
    8.7451  -14.7983   24.4887 C   0  0  2  0  0  0  0  0  0  0  0  0
    8.5265  -15.5159   23.2504 N   0  0  0  0  0  0  0  0  0  0  0  0
    9.1007  -15.7173   25.6001 C   0  0  0  0  0  0  0  0  0  0  0  0
    8.8669  -16.9416   25.4493 O   0  0  0  0  0  0  0  0  0  0  0  0
    9.6686  -15.2857   26.7729 O   0  0  0  0  0  0  0  0  0  0  0  0
  2  1  1  0
  3  2  1  0
  3 11  1  0
  4  3  2  0
  5  6  1  0
  6  7  2  0
  6  8  1  0
  8  9  1  0
 10  9  1  6
 10 12  1  0
 11 10  1  0
 12 13  2  0
 12 19  1  0
 15 14  1  0
 16 15  1  0
 17 16  1  0
 18 17  1  1
 18 20  1  0
 19 18  1  0
 20 22  1  0
 21 20  2  0
M  END
$$$$
