GQM.pdb
     RDKit          3D

 22 21  0  0  1  0  0  0  0  0999 V2000
    7.8623  -12.8701   18.7172 N   0  0  0  0  0  0  0  0  0  0  0  0
    8.4244  -14.1575   18.9956 C   0  0  0  0  0  0  0  0  0  0  0  0
    7.8165  -14.6803   20.2481 C   0  0  0  0  0  0  0  0  0  0  0  0
    7.1306  -13.9387   20.9970 O   0  0  0  0  0  0  0  0  0  0  0  0
    6.5881  -20.8246   22.3099 N   0  0  0  0  0  0  0  0  0  0  0  0
    6.5316  -19.9638   23.4381 C   0  0  0  0  0  0  0  0  0  0  0  0
    6.2655  -20.4961   24.5350 O   0  0  0  0  0  0  0  0  0  0  0  0
    6.7758  -18.5515   23.3011 C   0  0  0  0  0  0  0  0  0  0  0  0
    7.2490  -17.9802   22.0448 C   0  0  0  0  0  0  0  0  0  0  0  0
    7.5239  -16.5330   21.9161 C   0  0  2  0  0  0  0  0  0  0  0  0
    7.9878  -16.0553   20.6544 N   0  0  0  0  0  0  0  0  0  0  0  0
    8.2480  -15.9535   23.0653 C   0  0  0  0  0  0  0  0  0  0  0  0
    9.4814  -15.8986   23.0498 O   0  0  0  0  0  0  0  0  0  0  0  0
    6.5939  -10.1310   26.5603 C   0  0  0  0  0  0  0  0  0  0  0  0
    6.3566  -11.6975   27.4344 S   0  0  0  0  0  0  0  0  0  0  0  0
    7.5980  -12.9130   26.9152 C   0  0  0  0  0  0  0  0  0  0  0  0
    7.0665  -13.7951   25.8153 C   0  0  0  0  0  0  0  0  0  0  0  0
    8.1163  -14.7289   25.2605 C   0  0  2  0  0  0  0  0  0  0  0  0
    7.5277  -15.4699   24.1648 N   0  0  0  0  0  0  0  0  0  0  0  0
    8.5613  -15.6289   26.3551 C   0  0  0  0  0  0  0  0  0  0  0  0
    7.9536  -16.7170   26.5062 O   0  0  0  0  0  0  0  0  0  0  0  0
    9.5994  -15.3212   27.1989 O   0  0  0  0  0  0  0  0  0  0  0  0
  2  1  1  0
  3  2  1  0
  3 11  1  0
  4  3  2  0
  5  6  1  0
  6  7  2  0
  6  8  1  0
  8  9  1  0
 10  9  1  6
 10 12  1  0
 11 10  1  0
 12 13  2  0
 12 19  1  0
 15 14  1  0
 16 15  1  0
 17 16  1  0
 18 17  1  1
 18 20  1  0
 19 18  1  0
 20 22  1  0
 21 20  2  0
M  END
$$$$
