GQM.pdb
     RDKit          3D

 22 21  0  0  1  0  0  0  0  0999 V2000
    8.0547  -18.5028   18.4161 N   0  0  0  0  0  0  0  0  0  0  0  0
    7.3118  -18.1603   19.5915 C   0  0  0  0  0  0  0  0  0  0  0  0
    7.9373  -16.9650   20.2173 C   0  0  0  0  0  0  0  0  0  0  0  0
    9.0986  -17.0149   20.6972 O   0  0  0  0  0  0  0  0  0  0  0  0
    8.5358  -14.0221   17.3075 N   0  0  0  0  0  0  0  0  0  0  0  0
    8.7521  -13.2927   18.5067 C   0  0  0  0  0  0  0  0  0  0  0  0
    9.9394  -13.1204   18.8501 O   0  0  0  0  0  0  0  0  0  0  0  0
    7.6429  -12.7836   19.2706 C   0  0  0  0  0  0  0  0  0  0  0  0
    7.3822  -13.2426   20.6307 C   0  0  0  0  0  0  0  0  0  0  0  0
    7.7470  -14.6091   21.0620 C   0  0  2  0  0  0  0  0  0  0  0  0
    7.2404  -15.7032   20.2993 N   0  0  0  0  0  0  0  0  0  0  0  0
    7.6634  -14.8221   22.5209 C   0  0  0  0  0  0  0  0  0  0  0  0
    6.6893  -15.4096   23.0010 O   0  0  0  0  0  0  0  0  0  0  0  0
    6.1335  -10.9722   27.3402 C   0  0  0  0  0  0  0  0  0  0  0  0
    5.7399  -12.7345   27.2218 S   0  0  0  0  0  0  0  0  0  0  0  0
    7.2048  -13.6845   26.7324 C   0  0  0  0  0  0  0  0  0  0  0  0
    7.3771  -13.6830   25.2355 C   0  0  0  0  0  0  0  0  0  0  0  0
    8.6449  -14.3766   24.7955 C   0  0  2  0  0  0  0  0  0  0  0  0
    8.6922  -14.3554   23.3487 N   0  0  0  0  0  0  0  0  0  0  0  0
    8.6210  -15.7648   25.3234 C   0  0  0  0  0  0  0  0  0  0  0  0
    8.0512  -16.6466   24.6351 O   0  0  0  0  0  0  0  0  0  0  0  0
    9.1911  -16.1177   26.5212 O   0  0  0  0  0  0  0  0  0  0  0  0
  2  1  1  0
  3  2  1  0
  3 11  1  0
  4  3  2  0
  5  6  1  0
  6  7  2  0
  6  8  1  0
  8  9  1  0
 10  9  1  1
 10 12  1  0
 11 10  1  0
 12 13  2  0
 12 19  1  0
 15 14  1  0
 16 15  1  0
 17 16  1  0
 18 17  1  6
 18 20  1  0
 19 18  1  0
 20 22  1  0
 21 20  2  0
M  END
$$$$
