CSR.pdb
     RDKit          3D

 24 23  0  0  1  0  0  0  0  0999 V2000
    8.1806  -13.2202   16.6935 N   0  0  0  0  0  0  0  0  0  0  0  0
    7.6356  -14.0775   17.7043 C   0  0  1  0  0  0  0  0  0  0  0  0
    7.4631  -15.4581   17.1787 C   0  0  0  0  0  0  0  0  0  0  0  0
    8.9729  -16.4484   17.2882 S   0  0  0  0  0  0  0  0  0  0  0  0
    8.3897  -14.0181   18.9809 C   0  0  0  0  0  0  0  0  0  0  0  0
    9.6106  -13.6876   18.9609 O   0  0  0  0  0  0  0  0  0  0  0  0
    6.7293  -15.2751   22.6140 O   0  0  0  0  0  0  0  0  0  0  0  0
    7.5331  -14.1628   22.5969 C   0  0  0  0  0  0  0  0  0  0  0  0
    8.5764  -14.1973   21.4991 C   0  0  2  0  0  0  0  0  0  0  0  0
    7.8387  -14.3085   20.2479 N   0  0  0  0  0  0  0  0  0  0  0  0
    9.4209  -15.3964   21.7396 C   0  0  0  0  0  0  0  0  0  0  0  0
    9.0893  -16.4526   21.1440 O   0  0  0  0  0  0  0  0  0  0  0  0
   13.9939  -15.0647   17.5283 N   0  0  0  0  0  0  0  0  0  0  0  0
   14.5419  -14.6561   18.7645 C   0  0  0  0  0  0  0  0  0  0  0  0
   15.5453  -13.8258   18.7929 N   0  0  0  0  0  0  0  0  0  0  0  0
   14.0252  -15.1296   20.0001 N   0  0  0  0  0  0  0  0  0  0  0  0
   13.9877  -16.5583   20.2216 C   0  0  0  0  0  0  0  0  0  0  0  0
   12.6311  -16.9480   20.8148 C   0  0  0  0  0  0  0  0  0  0  0  0
   12.6384  -16.6425   22.2915 C   0  0  0  0  0  0  0  0  0  0  0  0
   11.2790  -16.6516   22.9077 C   0  0  2  0  0  0  0  0  0  0  0  0
   10.5403  -15.4231   22.5712 N   0  0  0  0  0  0  0  0  0  0  0  0
   11.2756  -16.7649   24.3729 C   0  0  0  0  0  0  0  0  0  0  0  0
   11.8040  -17.7552   24.9695 O   0  0  0  0  0  0  0  0  0  0  0  0
   10.7055  -15.8129   25.1929 O   0  0  0  0  0  0  0  0  0  0  0  0
  2  1  1  6
  2  3  1  0
  4  3  1  0
  5  2  1  0
  6  5  2  0
  7  8  1  0
  9  8  1  1
  9 11  1  0
  9 10  1  0
 10  5  1  0
 11 21  1  0
 12 11  2  0
 14 13  1  0
 15 14  2  0
 16 14  1  0
 17 16  1  0
 18 17  1  0
 19 18  1  0
 20 19  1  1
 20 22  1  0
 21 20  1  0
 22 23  2  0
 22 24  1  0
M  END
$$$$
