CSR.pdb
     RDKit          3D

 24 23  0  0  1  0  0  0  0  0999 V2000
    4.6707  -19.0777   19.3794 N   0  0  0  0  0  0  0  0  0  0  0  0
    4.8051  -17.7779   19.9677 C   0  0  1  0  0  0  0  0  0  0  0  0
    4.1160  -17.7287   21.2849 C   0  0  0  0  0  0  0  0  0  0  0  0
    2.4467  -18.4235   21.2343 S   0  0  0  0  0  0  0  0  0  0  0  0
    6.2116  -17.3075   20.0155 C   0  0  0  0  0  0  0  0  0  0  0  0
    7.1450  -18.1595   20.0721 O   0  0  0  0  0  0  0  0  0  0  0  0
    7.2138  -13.2602   20.4664 O   0  0  0  0  0  0  0  0  0  0  0  0
    7.9607  -14.0431   19.6220 C   0  0  0  0  0  0  0  0  0  0  0  0
    7.9864  -15.5024   20.0277 C   0  0  2  0  0  0  0  0  0  0  0  0
    6.6004  -15.9504   20.0025 N   0  0  0  0  0  0  0  0  0  0  0  0
    8.5509  -15.5617   21.4013 C   0  0  0  0  0  0  0  0  0  0  0  0
    7.7518  -15.3674   22.3521 O   0  0  0  0  0  0  0  0  0  0  0  0
   10.8470  -19.3416   27.9543 N   0  0  0  0  0  0  0  0  0  0  0  0
    9.4689  -19.0435   28.0412 C   0  0  0  0  0  0  0  0  0  0  0  0
    8.8269  -19.2366   29.1581 N   0  0  0  0  0  0  0  0  0  0  0  0
    8.7473  -18.5306   26.9303 N   0  0  0  0  0  0  0  0  0  0  0  0
    9.3503  -18.6307   25.6195 C   0  0  0  0  0  0  0  0  0  0  0  0
    9.7542  -17.2356   25.1350 C   0  0  0  0  0  0  0  0  0  0  0  0
    9.9877  -17.2850   23.6460 C   0  0  0  0  0  0  0  0  0  0  0  0
   10.4084  -15.9756   23.0660 C   0  0  2  0  0  0  0  0  0  0  0  0
    9.8902  -15.8155   21.6971 N   0  0  0  0  0  0  0  0  0  0  0  0
   11.8631  -15.7791   22.9982 C   0  0  0  0  0  0  0  0  0  0  0  0
   12.5722  -15.6569   24.0462 O   0  0  0  0  0  0  0  0  0  0  0  0
   12.5521  -15.7160   21.8044 O   0  0  0  0  0  0  0  0  0  0  0  0
  2  1  1  1
  2  3  1  0
  4  3  1  0
  5  2  1  0
  6  5  2  0
  7  8  1  0
  9  8  1  1
  9 11  1  0
  9 10  1  0
 10  5  1  0
 11 21  1  0
 12 11  2  0
 14 13  1  0
 15 14  2  0
 16 14  1  0
 17 16  1  0
 18 17  1  0
 19 18  1  0
 20 19  1  6
 20 22  1  0
 21 20  1  0
 22 23  2  0
 22 24  1  0
M  END
$$$$
