CSR.pdb
     RDKit          3D

 24 23  0  0  1  0  0  0  0  0999 V2000
    8.1147  -12.4695   19.2210 N   0  0  0  0  0  0  0  0  0  0  0  0
    7.3505  -13.0097   20.3063 C   0  0  1  0  0  0  0  0  0  0  0  0
    6.5191  -14.1515   19.8402 C   0  0  0  0  0  0  0  0  0  0  0  0
    7.4759  -15.6666   19.5938 S   0  0  0  0  0  0  0  0  0  0  0  0
    8.1791  -13.3254   21.4961 C   0  0  0  0  0  0  0  0  0  0  0  0
    9.4330  -13.4285   21.3643 O   0  0  0  0  0  0  0  0  0  0  0  0
    6.4121  -14.3628   25.0685 O   0  0  0  0  0  0  0  0  0  0  0  0
    7.5971  -13.6770   25.1636 C   0  0  0  0  0  0  0  0  0  0  0  0
    8.4888  -13.8554   23.9521 C   0  0  2  0  0  0  0  0  0  0  0  0
    7.6660  -13.5249   22.7962 N   0  0  0  0  0  0  0  0  0  0  0  0
    8.9101  -15.2805   23.9286 C   0  0  0  0  0  0  0  0  0  0  0  0
    8.2052  -16.0694   23.2495 O   0  0  0  0  0  0  0  0  0  0  0  0
   12.9059  -20.3020   20.5554 N   0  0  0  0  0  0  0  0  0  0  0  0
   13.6618  -20.8474   21.6169 C   0  0  0  0  0  0  0  0  0  0  0  0
   14.0081  -22.1030   21.5960 N   0  0  0  0  0  0  0  0  0  0  0  0
   14.0640  -20.0569   22.7266 N   0  0  0  0  0  0  0  0  0  0  0  0
   13.5499  -18.7088   22.8264 C   0  0  0  0  0  0  0  0  0  0  0  0
   12.2578  -18.7141   23.6478 C   0  0  0  0  0  0  0  0  0  0  0  0
   11.7263  -17.3053   23.7301 C   0  0  0  0  0  0  0  0  0  0  0  0
   10.4590  -17.1922   24.5106 C   0  0  2  0  0  0  0  0  0  0  0  0
   10.0205  -15.7896   24.6018 N   0  0  0  0  0  0  0  0  0  0  0  0
   10.5432  -17.7042   25.8855 C   0  0  0  0  0  0  0  0  0  0  0  0
   10.5455  -16.9264   26.8910 O   0  0  0  0  0  0  0  0  0  0  0  0
   10.6230  -19.0507   26.1761 O   0  0  0  0  0  0  0  0  0  0  0  0
  2  1  1  6
  2  3  1  0
  4  3  1  0
  5  2  1  0
  6  5  2  0
  7  8  1  0
  9  8  1  1
  9 11  1  0
  9 10  1  0
 10  5  1  0
 11 21  1  0
 12 11  2  0
 14 13  1  0
 15 14  2  0
 16 14  1  0
 17 16  1  0
 18 17  1  0
 19 18  1  0
 20 19  1  1
 20 22  1  0
 21 20  1  0
 22 23  2  0
 22 24  1  0
M  END
$$$$
