CSR.pdb
     RDKit          3D

 24 23  0  0  1  0  0  0  0  0999 V2000
    8.3093  -12.7163   18.8438 N   0  0  0  0  0  0  0  0  0  0  0  0
    7.5307  -13.2564   19.9189 C   0  0  1  0  0  0  0  0  0  0  0  0
    6.8292  -14.4936   19.4835 C   0  0  0  0  0  0  0  0  0  0  0  0
    7.9151  -15.9393   19.4324 S   0  0  0  0  0  0  0  0  0  0  0  0
    8.3108  -13.4251   21.1698 C   0  0  0  0  0  0  0  0  0  0  0  0
    9.5708  -13.5144   21.1032 O   0  0  0  0  0  0  0  0  0  0  0  0
    6.3984  -14.3317   24.7457 O   0  0  0  0  0  0  0  0  0  0  0  0
    7.5570  -13.6001   24.8246 C   0  0  0  0  0  0  0  0  0  0  0  0
    8.4954  -13.8411   23.6601 C   0  0  2  0  0  0  0  0  0  0  0  0
    7.7438  -13.4957   22.4609 N   0  0  0  0  0  0  0  0  0  0  0  0
    8.8517  -15.2839   23.6804 C   0  0  0  0  0  0  0  0  0  0  0  0
    8.2995  -16.0168   22.8212 O   0  0  0  0  0  0  0  0  0  0  0  0
   13.1853  -16.2119   18.8244 N   0  0  0  0  0  0  0  0  0  0  0  0
   13.8017  -15.5118   19.8853 C   0  0  0  0  0  0  0  0  0  0  0  0
   14.5201  -14.4530   19.6405 N   0  0  0  0  0  0  0  0  0  0  0  0
   13.6611  -15.9321   21.2350 N   0  0  0  0  0  0  0  0  0  0  0  0
   12.6216  -16.8879   21.5474 C   0  0  0  0  0  0  0  0  0  0  0  0
   11.9793  -16.5242   22.8888 C   0  0  0  0  0  0  0  0  0  0  0  0
   10.8914  -17.5223   23.1954 C   0  0  0  0  0  0  0  0  0  0  0  0
   10.1964  -17.2656   24.4911 C   0  0  2  0  0  0  0  0  0  0  0  0
    9.7458  -15.8666   24.5785 N   0  0  0  0  0  0  0  0  0  0  0  0
   11.0151  -17.5264   25.6832 C   0  0  0  0  0  0  0  0  0  0  0  0
   11.5457  -18.6618   25.8962 O   0  0  0  0  0  0  0  0  0  0  0  0
   11.2625  -16.5660   26.6425 O   0  0  0  0  0  0  0  0  0  0  0  0
  2  1  1  6
  2  3  1  0
  4  3  1  0
  5  2  1  0
  6  5  2  0
  7  8  1  0
  9  8  1  1
  9 11  1  0
  9 10  1  0
 10  5  1  0
 11 21  1  0
 12 11  2  0
 14 13  1  0
 15 14  2  0
 16 14  1  0
 17 16  1  0
 18 17  1  0
 19 18  1  0
 20 19  1  6
 20 22  1  0
 21 20  1  0
 22 23  2  0
 22 24  1  0
M  END
$$$$
