CSR.pdb
     RDKit          3D

 24 23  0  0  1  0  0  0  0  0999 V2000
    5.3240  -13.2169   25.9244 N   0  0  0  0  0  0  0  0  0  0  0  0
    6.5979  -13.1318   25.2737 C   0  0  1  0  0  0  0  0  0  0  0  0
    7.5020  -12.2138   26.0168 C   0  0  0  0  0  0  0  0  0  0  0  0
    6.7897  -10.5696   26.2642 S   0  0  0  0  0  0  0  0  0  0  0  0
    7.1969  -14.4614   24.9992 C   0  0  0  0  0  0  0  0  0  0  0  0
    6.9441  -15.4244   25.7796 O   0  0  0  0  0  0  0  0  0  0  0  0
   10.0506  -15.0881   21.9673 O   0  0  0  0  0  0  0  0  0  0  0  0
    9.0712  -16.0232   22.1914 C   0  0  0  0  0  0  0  0  0  0  0  0
    8.6019  -16.0624   23.6313 C   0  0  2  0  0  0  0  0  0  0  0  0
    8.0481  -14.7439   23.9088 N   0  0  0  0  0  0  0  0  0  0  0  0
    9.7973  -16.3366   24.4707 C   0  0  0  0  0  0  0  0  0  0  0  0
   10.4435  -15.3392   24.8807 O   0  0  0  0  0  0  0  0  0  0  0  0
   11.2752  -22.6430   30.2563 N   0  0  0  0  0  0  0  0  0  0  0  0
   11.4507  -21.2984   30.6524 C   0  0  0  0  0  0  0  0  0  0  0  0
   11.3031  -20.9597   31.9016 N   0  0  0  0  0  0  0  0  0  0  0  0
   11.7890  -20.2851   29.7159 N   0  0  0  0  0  0  0  0  0  0  0  0
   11.8815  -20.6498   28.3194 C   0  0  0  0  0  0  0  0  0  0  0  0
   12.2617  -19.4178   27.4937 C   0  0  0  0  0  0  0  0  0  0  0  0
   11.1132  -19.0689   26.5810 C   0  0  0  0  0  0  0  0  0  0  0  0
   11.3638  -17.8575   25.7457 C   0  0  2  0  0  0  0  0  0  0  0  0
   10.2403  -17.6103   24.8266 N   0  0  0  0  0  0  0  0  0  0  0  0
   12.5808  -17.9251   24.9249 C   0  0  0  0  0  0  0  0  0  0  0  0
   13.7062  -17.5263   25.3613 O   0  0  0  0  0  0  0  0  0  0  0  0
   12.5854  -18.4227   23.6379 O   0  0  0  0  0  0  0  0  0  0  0  0
  2  1  1  1
  2  3  1  0
  4  3  1  0
  5  2  1  0
  6  5  2  0
  7  8  1  0
  9  8  1  6
  9 11  1  0
  9 10  1  0
 10  5  1  0
 11 21  1  0
 12 11  2  0
 14 13  1  0
 15 14  2  0
 16 14  1  0
 17 16  1  0
 18 17  1  0
 19 18  1  0
 20 19  1  6
 20 22  1  0
 21 20  1  0
 22 23  2  0
 22 24  1  0
M  END
$$$$
