CSR.pdb
     RDKit          3D

 24 23  0  0  1  0  0  0  0  0999 V2000
    7.3098  -13.0275   16.4302 N   0  0  0  0  0  0  0  0  0  0  0  0
    7.4030  -14.2512   17.1700 C   0  0  1  0  0  0  0  0  0  0  0  0
    8.0947  -15.2943   16.3664 C   0  0  0  0  0  0  0  0  0  0  0  0
    6.9820  -16.6046   15.8035 S   0  0  0  0  0  0  0  0  0  0  0  0
    7.9802  -14.0655   18.5244 C   0  0  0  0  0  0  0  0  0  0  0  0
    9.0995  -13.4883   18.6437 O   0  0  0  0  0  0  0  0  0  0  0  0
    6.5744  -16.2062   21.8903 O   0  0  0  0  0  0  0  0  0  0  0  0
    6.9635  -14.8968   22.0247 C   0  0  0  0  0  0  0  0  0  0  0  0
    8.0197  -14.4821   21.0211 C   0  0  2  0  0  0  0  0  0  0  0  0
    7.3635  -14.4926   19.7205 N   0  0  0  0  0  0  0  0  0  0  0  0
    9.1054  -15.4948   21.0893 C   0  0  0  0  0  0  0  0  0  0  0  0
    9.1242  -16.3683   20.1854 O   0  0  0  0  0  0  0  0  0  0  0  0
   16.5024  -13.5462   18.5154 N   0  0  0  0  0  0  0  0  0  0  0  0
   16.3695  -14.9509   18.4455 C   0  0  0  0  0  0  0  0  0  0  0  0
   17.0750  -15.6329   17.5886 N   0  0  0  0  0  0  0  0  0  0  0  0
   15.4757  -15.6567   19.2944 N   0  0  0  0  0  0  0  0  0  0  0  0
   14.5273  -14.8919   20.0739 C   0  0  0  0  0  0  0  0  0  0  0  0
   13.7125  -15.8385   20.9595 C   0  0  0  0  0  0  0  0  0  0  0  0
   12.3306  -15.2644   21.1450 C   0  0  0  0  0  0  0  0  0  0  0  0
   11.4066  -16.1674   21.8924 C   0  0  2  0  0  0  0  0  0  0  0  0
   10.0891  -15.5363   22.0772 N   0  0  0  0  0  0  0  0  0  0  0  0
   11.8842  -16.5585   23.2260 C   0  0  0  0  0  0  0  0  0  0  0  0
   12.9622  -17.2129   23.3862 O   0  0  0  0  0  0  0  0  0  0  0  0
   11.2028  -16.2441   24.3838 O   0  0  0  0  0  0  0  0  0  0  0  0
  2  1  1  6
  2  3  1  0
  4  3  1  0
  5  2  1  0
  6  5  2  0
  7  8  1  0
  9  8  1  1
  9 11  1  0
  9 10  1  0
 10  5  1  0
 11 21  1  0
 12 11  2  0
 14 13  1  0
 15 14  2  0
 16 14  1  0
 17 16  1  0
 18 17  1  0
 19 18  1  0
 20 19  1  1
 20 22  1  0
 21 20  1  0
 22 23  2  0
 22 24  1  0
M  END
$$$$
