CSR.pdb
     RDKit          3D

 24 23  0  0  1  0  0  0  0  0999 V2000
    2.1110  -20.1554   22.5871 N   0  0  0  0  0  0  0  0  0  0  0  0
    3.5002  -20.0147   22.2647 C   0  0  1  0  0  0  0  0  0  0  0  0
    3.6813  -19.8650   20.7960 C   0  0  0  0  0  0  0  0  0  0  0  0
    4.1578  -18.1888   20.3112 S   0  0  0  0  0  0  0  0  0  0  0  0
    4.1732  -18.9558   23.0569 C   0  0  0  0  0  0  0  0  0  0  0  0
    3.6007  -17.8373   23.2030 O   0  0  0  0  0  0  0  0  0  0  0  0
    7.3088  -19.7891   25.6149 O   0  0  0  0  0  0  0  0  0  0  0  0
    6.4639  -18.7201   25.7798 C   0  0  0  0  0  0  0  0  0  0  0  0
    6.0719  -18.0621   24.4728 C   0  0  2  0  0  0  0  0  0  0  0  0
    5.4337  -19.1014   23.6760 N   0  0  0  0  0  0  0  0  0  0  0  0
    7.3254  -17.5821   23.8348 C   0  0  0  0  0  0  0  0  0  0  0  0
    7.9954  -18.4295   23.1917 O   0  0  0  0  0  0  0  0  0  0  0  0
    8.1335  -13.3140   17.8410 N   0  0  0  0  0  0  0  0  0  0  0  0
    7.7915  -12.8378   19.1262 C   0  0  0  0  0  0  0  0  0  0  0  0
    8.2730  -11.7054   19.5539 N   0  0  0  0  0  0  0  0  0  0  0  0
    6.9238  -13.5665   19.9830 N   0  0  0  0  0  0  0  0  0  0  0  0
    7.2848  -13.6862   21.3784 C   0  0  0  0  0  0  0  0  0  0  0  0
    8.7209  -14.2045   21.4920 C   0  0  0  0  0  0  0  0  0  0  0  0
    9.0530  -14.4059   22.9491 C   0  0  0  0  0  0  0  0  0  0  0  0
    9.0955  -15.8411   23.3569 C   0  0  2  0  0  0  0  0  0  0  0  0
    7.7978  -16.2715   23.9034 N   0  0  0  0  0  0  0  0  0  0  0  0
   10.1120  -16.1562   24.3702 C   0  0  0  0  0  0  0  0  0  0  0  0
    9.7984  -16.4287   25.5716 O   0  0  0  0  0  0  0  0  0  0  0  0
   11.4627  -16.1791   24.0893 O   0  0  0  0  0  0  0  0  0  0  0  0
  2  1  1  6
  2  3  1  0
  4  3  1  0
  5  2  1  0
  6  5  2  0
  7  8  1  0
  9  8  1  1
  9 11  1  0
  9 10  1  0
 10  5  1  0
 11 21  1  0
 12 11  2  0
 14 13  1  0
 15 14  2  0
 16 14  1  0
 17 16  1  0
 18 17  1  0
 19 18  1  0
 20 19  1  1
 20 22  1  0
 21 20  1  0
 22 23  2  0
 22 24  1  0
M  END
$$$$
