CSR.pdb
     RDKit          3D

 24 23  0  0  1  0  0  0  0  0999 V2000
    6.5747  -23.5645   19.5621 N   0  0  0  0  0  0  0  0  0  0  0  0
    6.5079  -22.3643   20.3423 C   0  0  1  0  0  0  0  0  0  0  0  0
    5.1748  -22.2376   20.9897 C   0  0  0  0  0  0  0  0  0  0  0  0
    4.9614  -23.3616   22.3909 S   0  0  0  0  0  0  0  0  0  0  0  0
    7.6428  -22.2255   21.2881 C   0  0  0  0  0  0  0  0  0  0  0  0
    8.4267  -23.2037   21.4581 O   0  0  0  0  0  0  0  0  0  0  0  0
    8.5451  -18.5594   22.6851 O   0  0  0  0  0  0  0  0  0  0  0  0
    9.5693  -19.4730   22.6729 C   0  0  0  0  0  0  0  0  0  0  0  0
    9.0998  -20.8987   22.8773 C   0  0  2  0  0  0  0  0  0  0  0  0
    7.9242  -21.0590   22.0319 N   0  0  0  0  0  0  0  0  0  0  0  0
    8.7569  -21.0413   24.3163 C   0  0  0  0  0  0  0  0  0  0  0  0
    7.5703  -20.7870   24.6447 O   0  0  0  0  0  0  0  0  0  0  0  0
   12.8998  -24.9270   31.4135 N   0  0  0  0  0  0  0  0  0  0  0  0
   11.4912  -25.0269   31.4488 C   0  0  0  0  0  0  0  0  0  0  0  0
   10.9201  -25.9916   32.1125 N   0  0  0  0  0  0  0  0  0  0  0  0
   10.6619  -24.0929   30.7721 N   0  0  0  0  0  0  0  0  0  0  0  0
   11.0325  -23.6974   29.4312 C   0  0  0  0  0  0  0  0  0  0  0  0
    9.9490  -22.7852   28.8497 C   0  0  0  0  0  0  0  0  0  0  0  0
   10.3425  -22.3927   27.4479 C   0  0  0  0  0  0  0  0  0  0  0  0
    9.2728  -21.6540   26.7144 C   0  0  2  0  0  0  0  0  0  0  0  0
    9.6542  -21.4332   25.3095 N   0  0  0  0  0  0  0  0  0  0  0  0
    8.9441  -20.3382   27.2801 C   0  0  0  0  0  0  0  0  0  0  0  0
    9.4912  -19.2715   26.8573 O   0  0  0  0  0  0  0  0  0  0  0  0
    8.0272  -20.1721   28.2977 O   0  0  0  0  0  0  0  0  0  0  0  0
  2  1  1  1
  2  3  1  0
  4  3  1  0
  5  2  1  0
  6  5  2  0
  7  8  1  0
  9  8  1  1
  9 11  1  0
  9 10  1  0
 10  5  1  0
 11 21  1  0
 12 11  2  0
 14 13  1  0
 15 14  2  0
 16 14  1  0
 17 16  1  0
 18 17  1  0
 19 18  1  0
 20 19  1  1
 20 22  1  0
 21 20  1  0
 22 23  2  0
 22 24  1  0
M  END
$$$$
