CSR.pdb
     RDKit          3D

 24 23  0  0  1  0  0  0  0  0999 V2000
    7.6609  -13.2203   18.7589 N   0  0  0  0  0  0  0  0  0  0  0  0
    7.2243  -14.1592   19.7496 C   0  0  1  0  0  0  0  0  0  0  0  0
    7.1761  -15.5324   19.1801 C   0  0  0  0  0  0  0  0  0  0  0  0
    8.7986  -16.3301   19.1237 S   0  0  0  0  0  0  0  0  0  0  0  0
    7.9966  -14.0674   21.0134 C   0  0  0  0  0  0  0  0  0  0  0  0
    9.1704  -13.5966   20.9857 O   0  0  0  0  0  0  0  0  0  0  0  0
    6.5573  -15.6648   24.5920 O   0  0  0  0  0  0  0  0  0  0  0  0
    7.2673  -14.4910   24.6365 C   0  0  0  0  0  0  0  0  0  0  0  0
    8.2745  -14.3598   23.5125 C   0  0  2  0  0  0  0  0  0  0  0  0
    7.5129  -14.4739   22.2759 N   0  0  0  0  0  0  0  0  0  0  0  0
    9.2396  -15.4803   23.6608 C   0  0  0  0  0  0  0  0  0  0  0  0
    8.9891  -16.5333   23.0213 O   0  0  0  0  0  0  0  0  0  0  0  0
   17.8668  -16.0061   23.5138 N   0  0  0  0  0  0  0  0  0  0  0  0
   17.4733  -17.3397   23.7629 C   0  0  0  0  0  0  0  0  0  0  0  0
   18.3556  -18.2978   23.7379 N   0  0  0  0  0  0  0  0  0  0  0  0
   16.1223  -17.6764   24.0449 N   0  0  0  0  0  0  0  0  0  0  0  0
   15.1291  -16.6272   23.9773 C   0  0  0  0  0  0  0  0  0  0  0  0
   13.7597  -17.1944   24.3609 C   0  0  0  0  0  0  0  0  0  0  0  0
   12.7205  -16.1143   24.1955 C   0  0  0  0  0  0  0  0  0  0  0  0
   11.3427  -16.5524   24.5664 C   0  0  2  0  0  0  0  0  0  0  0  0
   10.3874  -15.4378   24.4521 N   0  0  0  0  0  0  0  0  0  0  0  0
   11.2193  -17.0831   25.9311 C   0  0  0  0  0  0  0  0  0  0  0  0
   10.6447  -16.4267   26.8558 O   0  0  0  0  0  0  0  0  0  0  0  0
   11.7125  -18.3184   26.2982 O   0  0  0  0  0  0  0  0  0  0  0  0
  2  1  1  6
  2  3  1  0
  4  3  1  0
  5  2  1  0
  6  5  2  0
  7  8  1  0
  9  8  1  1
  9 11  1  0
  9 10  1  0
 10  5  1  0
 11 21  1  0
 12 11  2  0
 14 13  1  0
 15 14  2  0
 16 14  1  0
 17 16  1  0
 18 17  1  0
 19 18  1  0
 20 19  1  1
 20 22  1  0
 21 20  1  0
 22 23  2  0
 22 24  1  0
M  END
$$$$
