CSR.pdb
     RDKit          3D

 24 23  0  0  1  0  0  0  0  0999 V2000
    7.1709  -13.9229   13.6881 N   0  0  0  0  0  0  0  0  0  0  0  0
    7.3537  -14.7745   14.8261 C   0  0  1  0  0  0  0  0  0  0  0  0
    7.8579  -16.1082   14.4028 C   0  0  0  0  0  0  0  0  0  0  0  0
    8.2550  -17.1878   15.7988 S   0  0  0  0  0  0  0  0  0  0  0  0
    8.1671  -14.1441   15.8952 C   0  0  0  0  0  0  0  0  0  0  0  0
    9.2170  -13.5129   15.5798 O   0  0  0  0  0  0  0  0  0  0  0  0
    7.6551  -15.0572   19.9747 O   0  0  0  0  0  0  0  0  0  0  0  0
    7.9164  -13.7619   19.6037 C   0  0  0  0  0  0  0  0  0  0  0  0
    8.7124  -13.6581   18.3190 C   0  0  2  0  0  0  0  0  0  0  0  0
    7.8543  -14.1945   17.2709 N   0  0  0  0  0  0  0  0  0  0  0  0
    9.9341  -14.4856   18.4966 C   0  0  0  0  0  0  0  0  0  0  0  0
    9.8900  -15.6635   18.0593 O   0  0  0  0  0  0  0  0  0  0  0  0
   18.0949  -12.3375   16.7740 N   0  0  0  0  0  0  0  0  0  0  0  0
   18.2164  -13.6777   17.2038 C   0  0  0  0  0  0  0  0  0  0  0  0
   19.3413  -14.3157   17.0470 N   0  0  0  0  0  0  0  0  0  0  0  0
   17.1323  -14.3649   17.8125 N   0  0  0  0  0  0  0  0  0  0  0  0
   15.8487  -13.7009   17.8689 C   0  0  0  0  0  0  0  0  0  0  0  0
   14.8149  -14.6395   18.4968 C   0  0  0  0  0  0  0  0  0  0  0  0
   13.4803  -13.9388   18.5366 C   0  0  0  0  0  0  0  0  0  0  0  0
   12.3772  -14.7897   19.0722 C   0  0  2  0  0  0  0  0  0  0  0  0
   11.1076  -14.0447   19.1079 N   0  0  0  0  0  0  0  0  0  0  0  0
   12.6093  -15.3043   20.4290 C   0  0  0  0  0  0  0  0  0  0  0  0
   11.9479  -14.8805   21.4285 O   0  0  0  0  0  0  0  0  0  0  0  0
   13.5504  -16.2741   20.7077 O   0  0  0  0  0  0  0  0  0  0  0  0
  2  1  1  6
  2  3  1  0
  4  3  1  0
  5  2  1  0
  6  5  2  0
  7  8  1  0
  9  8  1  1
  9 11  1  0
  9 10  1  0
 10  5  1  0
 11 21  1  0
 12 11  2  0
 14 13  1  0
 15 14  2  0
 16 14  1  0
 17 16  1  0
 18 17  1  0
 19 18  1  0
 20 19  1  1
 20 22  1  0
 21 20  1  0
 22 23  2  0
 22 24  1  0
M  END
$$$$
