CSR.pdb
     RDKit          3D

 24 23  0  0  1  0  0  0  0  0999 V2000
    5.1151  -20.3118   23.2463 N   0  0  0  0  0  0  0  0  0  0  0  0
    6.1424  -19.9115   24.1618 C   0  0  1  0  0  0  0  0  0  0  0  0
    7.0967  -21.0285   24.3944 C   0  0  0  0  0  0  0  0  0  0  0  0
    6.8764  -21.8206   26.0056 S   0  0  0  0  0  0  0  0  0  0  0  0
    6.8005  -18.6398   23.7724 C   0  0  0  0  0  0  0  0  0  0  0  0
    6.8831  -18.3385   22.5466 O   0  0  0  0  0  0  0  0  0  0  0  0
    8.4902  -16.2135   26.6377 O   0  0  0  0  0  0  0  0  0  0  0  0
    8.0102  -15.5906   25.5128 C   0  0  0  0  0  0  0  0  0  0  0  0
    8.0190  -16.4815   24.2876 C   0  0  2  0  0  0  0  0  0  0  0  0
    7.3557  -17.7163   24.6846 N   0  0  0  0  0  0  0  0  0  0  0  0
    9.4426  -16.7197   23.9337 C   0  0  0  0  0  0  0  0  0  0  0  0
    9.9998  -17.7150   24.4623 O   0  0  0  0  0  0  0  0  0  0  0  0
   14.5491  -13.4756   17.4603 N   0  0  0  0  0  0  0  0  0  0  0  0
   15.3923  -14.3998   18.1164 C   0  0  0  0  0  0  0  0  0  0  0  0
   16.5662  -14.6779   17.6248 N   0  0  0  0  0  0  0  0  0  0  0  0
   14.9947  -15.0475   19.3165 N   0  0  0  0  0  0  0  0  0  0  0  0
   13.7318  -14.6684   19.9106 C   0  0  0  0  0  0  0  0  0  0  0  0
   13.4134  -15.6075   21.0772 C   0  0  0  0  0  0  0  0  0  0  0  0
   12.0347  -15.2885   21.5981 C   0  0  0  0  0  0  0  0  0  0  0  0
   11.5766  -16.2146   22.6752 C   0  0  2  0  0  0  0  0  0  0  0  0
   10.1876  -15.9213   23.0659 N   0  0  0  0  0  0  0  0  0  0  0  0
   12.3846  -16.1688   23.9018 C   0  0  0  0  0  0  0  0  0  0  0  0
   12.0673  -15.4291   24.8858 O   0  0  0  0  0  0  0  0  0  0  0  0
   13.5304  -16.9192   24.0683 O   0  0  0  0  0  0  0  0  0  0  0  0
  2  1  1  6
  2  3  1  0
  4  3  1  0
  5  2  1  0
  6  5  2  0
  7  8  1  0
  9  8  1  1
  9 11  1  0
  9 10  1  0
 10  5  1  0
 11 21  1  0
 12 11  2  0
 14 13  1  0
 15 14  2  0
 16 14  1  0
 17 16  1  0
 18 17  1  0
 19 18  1  0
 20 19  1  6
 20 22  1  0
 21 20  1  0
 22 23  2  0
 22 24  1  0
M  END
$$$$
