CSR.pdb
     RDKit          3D

 24 23  0  0  1  0  0  0  0  0999 V2000
    7.0403  -14.6162   17.0135 N   0  0  0  0  0  0  0  0  0  0  0  0
    8.0225  -14.2155   17.9770 C   0  0  1  0  0  0  0  0  0  0  0  0
    7.8443  -12.7837   18.3378 C   0  0  0  0  0  0  0  0  0  0  0  0
    8.9809  -12.2360   19.6339 S   0  0  0  0  0  0  0  0  0  0  0  0
    8.0834  -15.1206   19.1513 C   0  0  0  0  0  0  0  0  0  0  0  0
    7.0275  -15.3481   19.8097 O   0  0  0  0  0  0  0  0  0  0  0  0
   11.0824  -17.8283   19.6740 O   0  0  0  0  0  0  0  0  0  0  0  0
    9.8678  -17.9482   20.3020 C   0  0  0  0  0  0  0  0  0  0  0  0
    9.3091  -16.6233   20.7787 C   0  0  2  0  0  0  0  0  0  0  0  0
    9.2560  -15.7641   19.6034 N   0  0  0  0  0  0  0  0  0  0  0  0
   10.2545  -16.0936   21.7958 C   0  0  0  0  0  0  0  0  0  0  0  0
   11.1680  -15.3360   21.3812 O   0  0  0  0  0  0  0  0  0  0  0  0
    9.9281  -16.9312   30.3115 N   0  0  0  0  0  0  0  0  0  0  0  0
   10.8916  -17.5598   29.4916 C   0  0  0  0  0  0  0  0  0  0  0  0
   11.4702  -18.6582   29.8863 N   0  0  0  0  0  0  0  0  0  0  0  0
   11.2566  -17.0236   28.2278 N   0  0  0  0  0  0  0  0  0  0  0  0
   10.8990  -15.6524   27.9391 C   0  0  0  0  0  0  0  0  0  0  0  0
   11.4544  -15.2571   26.5681 C   0  0  0  0  0  0  0  0  0  0  0  0
   10.5147  -15.7551   25.4991 C   0  0  0  0  0  0  0  0  0  0  0  0
   11.1451  -15.8489   24.1494 C   0  0  2  0  0  0  0  0  0  0  0  0
   10.1930  -16.3796   23.1595 N   0  0  0  0  0  0  0  0  0  0  0  0
   12.3401  -16.7023   24.0936 C   0  0  0  0  0  0  0  0  0  0  0  0
   12.2571  -17.9628   23.9510 O   0  0  0  0  0  0  0  0  0  0  0  0
   13.6211  -16.1987   24.1898 O   0  0  0  0  0  0  0  0  0  0  0  0
  2  1  1  6
  2  3  1  0
  4  3  1  0
  5  2  1  0
  6  5  2  0
  7  8  1  0
  9  8  1  6
  9 11  1  0
  9 10  1  0
 10  5  1  0
 11 21  1  0
 12 11  2  0
 14 13  1  0
 15 14  2  0
 16 14  1  0
 17 16  1  0
 18 17  1  0
 19 18  1  0
 20 19  1  1
 20 22  1  0
 21 20  1  0
 22 23  2  0
 22 24  1  0
M  END
$$$$
