CSR.pdb
     RDKit          3D

 24 23  0  0  1  0  0  0  0  0999 V2000
   11.6326  -17.7709   14.8645 N   0  0  0  0  0  0  0  0  0  0  0  0
   12.3666  -17.6568   16.0900 C   0  0  1  0  0  0  0  0  0  0  0  0
   13.1887  -16.4173   16.0911 C   0  0  0  0  0  0  0  0  0  0  0  0
   14.2821  -16.2972   17.5271 S   0  0  0  0  0  0  0  0  0  0  0  0
   11.5099  -17.8021   17.2928 C   0  0  0  0  0  0  0  0  0  0  0  0
   10.2898  -17.4752   17.2237 O   0  0  0  0  0  0  0  0  0  0  0  0
   13.0421  -19.6063   20.5656 O   0  0  0  0  0  0  0  0  0  0  0  0
   11.6741  -19.6492   20.4628 C   0  0  0  0  0  0  0  0  0  0  0  0
   11.0961  -18.4766   19.6974 C   0  0  2  0  0  0  0  0  0  0  0  0
   11.9598  -18.2884   18.5395 N   0  0  0  0  0  0  0  0  0  0  0  0
   11.1412  -17.3005   20.6050 C   0  0  0  0  0  0  0  0  0  0  0  0
   12.2039  -16.6288   20.6109 O   0  0  0  0  0  0  0  0  0  0  0  0
    7.2371  -15.0540   18.2071 N   0  0  0  0  0  0  0  0  0  0  0  0
    7.6031  -13.7066   17.9923 C   0  0  0  0  0  0  0  0  0  0  0  0
    7.7748  -13.2604   16.7805 N   0  0  0  0  0  0  0  0  0  0  0  0
    7.7934  -12.8059   19.0742 N   0  0  0  0  0  0  0  0  0  0  0  0
    7.7929  -13.3426   20.4173 C   0  0  0  0  0  0  0  0  0  0  0  0
    9.0451  -14.1986   20.6259 C   0  0  0  0  0  0  0  0  0  0  0  0
    9.0047  -14.7925   22.0114 C   0  0  0  0  0  0  0  0  0  0  0  0
   10.1470  -15.7090   22.2994 C   0  0  2  0  0  0  0  0  0  0  0  0
   10.0954  -16.9014   21.4371 N   0  0  0  0  0  0  0  0  0  0  0  0
   10.2085  -16.1875   23.6875 C   0  0  0  0  0  0  0  0  0  0  0  0
    9.8230  -17.3547   24.0115 O   0  0  0  0  0  0  0  0  0  0  0  0
   10.6856  -15.4108   24.7234 O   0  0  0  0  0  0  0  0  0  0  0  0
  2  1  1  6
  2  3  1  0
  4  3  1  0
  5  2  1  0
  6  5  2  0
  7  8  1  0
  9  8  1  1
  9 11  1  0
  9 10  1  0
 10  5  1  0
 11 21  1  0
 12 11  2  0
 14 13  1  0
 15 14  2  0
 16 14  1  0
 17 16  1  0
 18 17  1  0
 19 18  1  0
 20 19  1  1
 20 22  1  0
 21 20  1  0
 22 23  2  0
 22 24  1  0
M  END
$$$$
