CSR.pdb
     RDKit          3D

 24 23  0  0  1  0  0  0  0  0999 V2000
    7.9406  -18.1181   15.8006 N   0  0  0  0  0  0  0  0  0  0  0  0
    8.7748  -17.6495   16.8674 C   0  0  1  0  0  0  0  0  0  0  0  0
    9.1843  -16.2399   16.6277 C   0  0  0  0  0  0  0  0  0  0  0  0
   10.2978  -15.6021   17.9025 S   0  0  0  0  0  0  0  0  0  0  0  0
    8.1801  -17.8752   18.2082 C   0  0  0  0  0  0  0  0  0  0  0  0
    6.9383  -17.6966   18.3697 O   0  0  0  0  0  0  0  0  0  0  0  0
   10.0023  -20.1672   21.1017 O   0  0  0  0  0  0  0  0  0  0  0  0
    8.6516  -19.9333   21.0329 C   0  0  0  0  0  0  0  0  0  0  0  0
    8.3116  -18.5059   20.6563 C   0  0  2  0  0  0  0  0  0  0  0  0
    8.9089  -18.2835   19.3463 N   0  0  0  0  0  0  0  0  0  0  0  0
    8.9224  -17.6270   21.6875 C   0  0  0  0  0  0  0  0  0  0  0  0
   10.1448  -17.3639   21.5569 O   0  0  0  0  0  0  0  0  0  0  0  0
    5.3374  -12.0095   27.2038 N   0  0  0  0  0  0  0  0  0  0  0  0
    6.4735  -11.5981   26.4720 C   0  0  0  0  0  0  0  0  0  0  0  0
    6.6851  -10.3321   26.2492 N   0  0  0  0  0  0  0  0  0  0  0  0
    7.4098  -12.5367   25.9618 N   0  0  0  0  0  0  0  0  0  0  0  0
    7.3102  -13.9098   26.4050 C   0  0  0  0  0  0  0  0  0  0  0  0
    8.4229  -14.7380   25.7567 C   0  0  0  0  0  0  0  0  0  0  0  0
    7.8575  -15.4647   24.5625 C   0  0  0  0  0  0  0  0  0  0  0  0
    8.8739  -16.2629   23.8157 C   0  0  2  0  0  0  0  0  0  0  0  0
    8.2359  -17.0845   22.7736 N   0  0  0  0  0  0  0  0  0  0  0  0
    9.6671  -17.1740   24.6525 C   0  0  0  0  0  0  0  0  0  0  0  0
    9.3411  -18.3924   24.8116 O   0  0  0  0  0  0  0  0  0  0  0  0
   10.8094  -16.7737   25.3149 O   0  0  0  0  0  0  0  0  0  0  0  0
  2  1  1  6
  2  3  1  0
  4  3  1  0
  5  2  1  0
  6  5  2  0
  7  8  1  0
  9  8  1  1
  9 11  1  0
  9 10  1  0
 10  5  1  0
 11 21  1  0
 12 11  2  0
 14 13  1  0
 15 14  2  0
 16 14  1  0
 17 16  1  0
 18 17  1  0
 19 18  1  0
 20 19  1  1
 20 22  1  0
 21 20  1  0
 22 23  2  0
 22 24  1  0
M  END
$$$$
