EVQ.pdb
     RDKit          3D

 26 25  0  0  1  0  0  0  0  0999 V2000
   21.9716  -21.0902   -7.8983 N   0  0  0  0  0  0  0  0  0  0  0  0
   21.8367  -21.6708   -9.2186 C   0  0  1  0  0  0  0  0  0  0  0  0
   20.3636  -21.7619   -9.5201 C   0  0  0  0  0  0  0  0  0  0  0  0
   19.7096  -22.9270   -8.8097 C   0  0  0  0  0  0  0  0  0  0  0  0
   19.4737  -22.6305   -7.3859 C   0  0  0  0  0  0  0  0  0  0  0  0
   19.2814  -21.4568   -7.0154 O   0  0  0  0  0  0  0  0  0  0  0  0
   22.5627  -20.8179  -10.1783 C   0  0  0  0  0  0  0  0  0  0  0  0
   22.5619  -19.5735  -10.0333 O   0  0  0  0  0  0  0  0  0  0  0  0
   19.4653  -23.6500   -6.4621 O   0  0  0  0  0  0  0  0  0  0  0  0
   26.2194  -20.5563  -13.4554 C   0  0  0  0  0  0  0  0  0  0  0  0
   25.3772  -21.2863  -12.4334 C   0  0  1  0  0  0  0  0  0  0  0  0
   26.1117  -21.2714  -11.1195 C   0  0  0  0  0  0  0  0  0  0  0  0
   24.0549  -20.5456  -12.2021 C   0  0  2  0  0  0  0  0  0  0  0  0
   23.2861  -21.3322  -11.2923 N   0  0  0  0  0  0  0  0  0  0  0  0
   23.4205  -20.4021  -13.5320 C   0  0  0  0  0  0  0  0  0  0  0  0
   23.0529  -21.4759  -14.0991 O   0  0  0  0  0  0  0  0  0  0  0  0
   20.0413  -15.5370  -15.8253 N   0  0  0  0  0  0  0  0  0  0  0  0
   20.0800  -16.4745  -16.8887 C   0  0  0  0  0  0  0  0  0  0  0  0
   19.4389  -16.1853  -17.9267 O   0  0  0  0  0  0  0  0  0  0  0  0
   20.8351  -17.7189  -16.7709 C   0  0  0  0  0  0  0  0  0  0  0  0
   21.5696  -17.9282  -15.4978 C   0  0  0  0  0  0  0  0  0  0  0  0
   22.4335  -19.1538  -15.4377 C   0  0  2  0  0  0  0  0  0  0  0  0
   23.2000  -19.1921  -14.1984 N   0  0  0  0  0  0  0  0  0  0  0  0
   23.3279  -19.2744  -16.6150 C   0  0  0  0  0  0  0  0  0  0  0  0
   22.8243  -19.8682  -17.7620 O   0  0  0  0  0  0  0  0  0  0  0  0
   24.5150  -18.8707  -16.6357 O   0  0  0  0  0  0  0  0  0  0  0  0
  2  1  1  1
  3  2  1  0
  4  3  1  0
  5  4  1  0
  6  5  2  0
  7  8  2  0
  7  2  1  0
  9  5  1  0
 11 10  1  6
 11 12  1  0
 13 11  1  0
 13 14  1  1
 14  7  1  0
 15 13  1  0
 16 15  2  0
 18 20  1  0
 18 17  1  0
 19 18  2  0
 21 20  1  0
 22 21  1  6
 22 23  1  0
 23 15  1  0
 24 22  1  0
 24 25  1  0
 26 24  2  0
M  END
$$$$
