EVQ.pdb
     RDKit          3D

 26 25  0  0  1  0  0  0  0  0999 V2000
   17.6483  -12.8471  -15.7577 N   0  0  0  0  0  0  0  0  0  0  0  0
   17.7717  -11.4299  -16.0313 C   0  0  1  0  0  0  0  0  0  0  0  0
   16.4319  -10.8009  -15.7514 C   0  0  0  0  0  0  0  0  0  0  0  0
   15.3929  -11.1972  -16.7776 C   0  0  0  0  0  0  0  0  0  0  0  0
   14.1217  -10.4834  -16.5656 C   0  0  0  0  0  0  0  0  0  0  0  0
   14.1268   -9.2806  -16.2412 O   0  0  0  0  0  0  0  0  0  0  0  0
   18.8461  -10.8837  -15.1811 C   0  0  0  0  0  0  0  0  0  0  0  0
   18.9979  -11.3124  -14.0137 O   0  0  0  0  0  0  0  0  0  0  0  0
   12.9255  -11.1440  -16.7256 O   0  0  0  0  0  0  0  0  0  0  0  0
   23.1645   -8.7455  -14.6420 C   0  0  0  0  0  0  0  0  0  0  0  0
   22.0587   -9.2946  -15.5153 C   0  0  1  0  0  0  0  0  0  0  0  0
   22.3356  -10.7529  -15.7658 C   0  0  0  0  0  0  0  0  0  0  0  0
   20.7138   -9.2257  -14.7825 C   0  0  2  0  0  0  0  0  0  0  0  0
   19.7489   -9.8705  -15.6135 N   0  0  0  0  0  0  0  0  0  0  0  0
   20.4319   -7.7887  -14.5651 C   0  0  0  0  0  0  0  0  0  0  0  0
   19.3764   -7.3345  -15.1031 O   0  0  0  0  0  0  0  0  0  0  0  0
   17.0677   -6.3476  -10.9133 N   0  0  0  0  0  0  0  0  0  0  0  0
   17.6955   -5.0761  -10.8991 C   0  0  0  0  0  0  0  0  0  0  0  0
   17.1695   -4.1890  -10.1859 O   0  0  0  0  0  0  0  0  0  0  0  0
   18.9002   -4.8202  -11.6838 C   0  0  0  0  0  0  0  0  0  0  0  0
   19.4556   -5.9728  -12.4367 C   0  0  0  0  0  0  0  0  0  0  0  0
   20.6678   -5.6822  -13.2724 C   0  0  2  0  0  0  0  0  0  0  0  0
   21.2284   -6.9097  -13.8237 N   0  0  0  0  0  0  0  0  0  0  0  0
   21.6992   -4.9191  -12.5279 C   0  0  0  0  0  0  0  0  0  0  0  0
   21.6725   -3.5352  -12.6044 O   0  0  0  0  0  0  0  0  0  0  0  0
   22.5962   -5.4513  -11.8316 O   0  0  0  0  0  0  0  0  0  0  0  0
  2  1  1  1
  3  2  1  0
  4  3  1  0
  5  4  1  0
  6  5  2  0
  7  8  2  0
  7  2  1  0
  9  5  1  0
 11 10  1  1
 11 12  1  0
 13 11  1  0
 13 14  1  6
 14  7  1  0
 15 13  1  0
 16 15  2  0
 18 20  1  0
 18 17  1  0
 19 18  2  0
 21 20  1  0
 22 21  1  1
 22 23  1  0
 23 15  1  0
 24 22  1  0
 24 25  1  0
 26 24  2  0
M  END
$$$$
