EVQ.pdb
     RDKit          3D

 26 25  0  0  1  0  0  0  0  0999 V2000
   28.2323  -21.6958  -15.9791 N   0  0  0  0  0  0  0  0  0  0  0  0
   27.7459  -20.6373  -15.1180 C   0  0  1  0  0  0  0  0  0  0  0  0
   27.3368  -19.4903  -16.0045 C   0  0  0  0  0  0  0  0  0  0  0  0
   26.4673  -19.9450  -17.1564 C   0  0  0  0  0  0  0  0  0  0  0  0
   27.2200  -19.9815  -18.4224 C   0  0  0  0  0  0  0  0  0  0  0  0
   27.1402  -20.9759  -19.1686 O   0  0  0  0  0  0  0  0  0  0  0  0
   26.6255  -21.1663  -14.3177 C   0  0  0  0  0  0  0  0  0  0  0  0
   26.0007  -22.1787  -14.7104 O   0  0  0  0  0  0  0  0  0  0  0  0
   28.0129  -18.9167  -18.7835 O   0  0  0  0  0  0  0  0  0  0  0  0
   24.1543  -20.8908   -9.9890 C   0  0  0  0  0  0  0  0  0  0  0  0
   25.3152  -20.5059  -10.8785 C   0  0  1  0  0  0  0  0  0  0  0  0
   26.5610  -21.1524  -10.3345 C   0  0  0  0  0  0  0  0  0  0  0  0
   25.1151  -21.0655  -12.2918 C   0  0  2  0  0  0  0  0  0  0  0  0
   26.1950  -20.5840  -13.0913 N   0  0  0  0  0  0  0  0  0  0  0  0
   23.7908  -20.5841  -12.7460 C   0  0  0  0  0  0  0  0  0  0  0  0
   23.6472  -19.3262  -12.8290 O   0  0  0  0  0  0  0  0  0  0  0  0
   17.3769  -21.8301  -16.2309 N   0  0  0  0  0  0  0  0  0  0  0  0
   18.7805  -21.9059  -16.0435 C   0  0  0  0  0  0  0  0  0  0  0  0
   19.4157  -22.6764  -16.8018 O   0  0  0  0  0  0  0  0  0  0  0  0
   19.4478  -21.1184  -15.0104 C   0  0  0  0  0  0  0  0  0  0  0  0
   20.7634  -21.6222  -14.5421 C   0  0  0  0  0  0  0  0  0  0  0  0
   21.4257  -20.8127  -13.4659 C   0  0  2  0  0  0  0  0  0  0  0  0
   22.7049  -21.3985  -13.0844 N   0  0  0  0  0  0  0  0  0  0  0  0
   20.5551  -20.6283  -12.2791 C   0  0  0  0  0  0  0  0  0  0  0  0
   19.6423  -19.5851  -12.2922 O   0  0  0  0  0  0  0  0  0  0  0  0
   20.5948  -21.3609  -11.2621 O   0  0  0  0  0  0  0  0  0  0  0  0
  2  1  1  6
  3  2  1  0
  4  3  1  0
  5  4  1  0
  6  5  2  0
  7  8  2  0
  7  2  1  0
  9  5  1  0
 11 10  1  1
 11 12  1  0
 13 11  1  0
 13 14  1  6
 14  7  1  0
 15 13  1  0
 16 15  2  0
 18 20  1  0
 18 17  1  0
 19 18  2  0
 21 20  1  0
 22 21  1  6
 22 23  1  0
 23 15  1  0
 24 22  1  0
 24 25  1  0
 26 24  2  0
M  END
$$$$
