EVQ.pdb
     RDKit          3D

 26 25  0  0  1  0  0  0  0  0999 V2000
   19.3518  -12.3334  -18.4383 N   0  0  0  0  0  0  0  0  0  0  0  0
   18.5944  -11.2030  -17.9414 C   0  0  1  0  0  0  0  0  0  0  0  0
   18.0702  -11.5779  -16.5799 C   0  0  0  0  0  0  0  0  0  0  0  0
   17.0508  -12.6939  -16.6515 C   0  0  0  0  0  0  0  0  0  0  0  0
   16.4552  -12.9695  -15.3324 C   0  0  0  0  0  0  0  0  0  0  0  0
   15.8035  -14.0149  -15.1470 O   0  0  0  0  0  0  0  0  0  0  0  0
   19.4838  -10.0268  -17.9052 C   0  0  0  0  0  0  0  0  0  0  0  0
   20.7240  -10.1838  -17.8237 O   0  0  0  0  0  0  0  0  0  0  0  0
   16.6174  -12.0723  -14.3021 O   0  0  0  0  0  0  0  0  0  0  0  0
   19.9300   -5.1711  -18.7959 C   0  0  0  0  0  0  0  0  0  0  0  0
   19.1046   -6.4372  -18.7437 C   0  0  1  0  0  0  0  0  0  0  0  0
   18.9535   -6.9599  -20.1472 C   0  0  0  0  0  0  0  0  0  0  0  0
   19.8406   -7.5235  -17.9507 C   0  0  2  0  0  0  0  0  0  0  0  0
   19.0104   -8.6845  -17.9582 N   0  0  0  0  0  0  0  0  0  0  0  0
   20.0615   -6.9710  -16.5951 C   0  0  0  0  0  0  0  0  0  0  0  0
   19.2119   -7.2945  -15.7100 O   0  0  0  0  0  0  0  0  0  0  0  0
   19.4670   -7.6828  -12.1622 N   0  0  0  0  0  0  0  0  0  0  0  0
   20.7423   -7.2876  -11.6840 C   0  0  0  0  0  0  0  0  0  0  0  0
   20.8779   -7.1842  -10.4418 O   0  0  0  0  0  0  0  0  0  0  0  0
   21.8424   -7.0147  -12.6047 C   0  0  0  0  0  0  0  0  0  0  0  0
   21.5437   -7.1571  -14.0519 C   0  0  0  0  0  0  0  0  0  0  0  0
   21.4041   -5.8741  -14.8179 C   0  0  2  0  0  0  0  0  0  0  0  0
   21.1187   -6.1336  -16.2237 N   0  0  0  0  0  0  0  0  0  0  0  0
   22.5915   -4.9966  -14.6740 C   0  0  0  0  0  0  0  0  0  0  0  0
   22.6537   -4.1538  -13.5750 O   0  0  0  0  0  0  0  0  0  0  0  0
   23.5449   -4.9710  -15.4882 O   0  0  0  0  0  0  0  0  0  0  0  0
  2  1  1  1
  3  2  1  0
  4  3  1  0
  5  4  1  0
  6  5  2  0
  7  8  2  0
  7  2  1  0
  9  5  1  0
 11 10  1  6
 11 12  1  0
 13 11  1  0
 13 14  1  1
 14  7  1  0
 15 13  1  0
 16 15  2  0
 18 20  1  0
 18 17  1  0
 19 18  2  0
 21 20  1  0
 22 21  1  1
 22 23  1  0
 23 15  1  0
 24 22  1  0
 24 25  1  0
 26 24  2  0
M  END
$$$$
