EVQ.pdb
     RDKit          3D

 26 25  0  0  1  0  0  0  0  0999 V2000
   27.3959  -22.2396  -16.0033 N   0  0  0  0  0  0  0  0  0  0  0  0
   26.9475  -21.0428  -15.3214 C   0  0  1  0  0  0  0  0  0  0  0  0
   26.3655  -20.1242  -16.3638 C   0  0  0  0  0  0  0  0  0  0  0  0
   27.4266  -19.5727  -17.2909 C   0  0  0  0  0  0  0  0  0  0  0  0
   26.8419  -18.7080  -18.3307 C   0  0  0  0  0  0  0  0  0  0  0  0
   27.5766  -18.1634  -19.1766 O   0  0  0  0  0  0  0  0  0  0  0  0
   25.9643  -21.4334  -14.2937 C   0  0  0  0  0  0  0  0  0  0  0  0
   25.1880  -22.3938  -14.5049 O   0  0  0  0  0  0  0  0  0  0  0  0
   25.4824  -18.5001  -18.3696 O   0  0  0  0  0  0  0  0  0  0  0  0
   24.4034  -20.8745   -9.6007 C   0  0  0  0  0  0  0  0  0  0  0  0
   25.3796  -20.5566  -10.7111 C   0  0  1  0  0  0  0  0  0  0  0  0
   26.6575  -21.3064  -10.4447 C   0  0  0  0  0  0  0  0  0  0  0  0
   24.8465  -21.0672  -12.0548 C   0  0  2  0  0  0  0  0  0  0  0  0
   25.8361  -20.7704  -13.0397 N   0  0  0  0  0  0  0  0  0  0  0  0
   23.5627  -20.3672  -12.2859 C   0  0  0  0  0  0  0  0  0  0  0  0
   23.6165  -19.1016  -12.3577 O   0  0  0  0  0  0  0  0  0  0  0  0
   22.6152  -19.1861  -16.6112 N   0  0  0  0  0  0  0  0  0  0  0  0
   21.4078  -19.9255  -16.5298 C   0  0  0  0  0  0  0  0  0  0  0  0
   20.9872  -20.4478  -17.5892 O   0  0  0  0  0  0  0  0  0  0  0  0
   20.6928  -20.0666  -15.2643 C   0  0  0  0  0  0  0  0  0  0  0  0
   21.3406  -19.4696  -14.0693 C   0  0  0  0  0  0  0  0  0  0  0  0
   21.1346  -20.2080  -12.7792 C   0  0  2  0  0  0  0  0  0  0  0  0
   22.3164  -20.9862  -12.4286 N   0  0  0  0  0  0  0  0  0  0  0  0
   19.9258  -21.0675  -12.8054 C   0  0  0  0  0  0  0  0  0  0  0  0
   18.6850  -20.4512  -12.8557 O   0  0  0  0  0  0  0  0  0  0  0  0
   19.9583  -22.3209  -12.7847 O   0  0  0  0  0  0  0  0  0  0  0  0
  2  1  1  6
  3  2  1  0
  4  3  1  0
  5  4  1  0
  6  5  2  0
  7  8  2  0
  7  2  1  0
  9  5  1  0
 11 10  1  1
 11 12  1  0
 13 11  1  0
 13 14  1  6
 14  7  1  0
 15 13  1  0
 16 15  2  0
 18 20  1  0
 18 17  1  0
 19 18  2  0
 21 20  1  0
 22 21  1  6
 22 23  1  0
 23 15  1  0
 24 22  1  0
 24 25  1  0
 26 24  2  0
M  END
$$$$
