EVQ.pdb
     RDKit          3D

 26 25  0  0  1  0  0  0  0  0999 V2000
   13.0769  -11.5801  -10.9350 N   0  0  0  0  0  0  0  0  0  0  0  0
   14.5012  -11.3273  -10.8581 C   0  0  1  0  0  0  0  0  0  0  0  0
   15.1487  -12.0557  -12.0067 C   0  0  0  0  0  0  0  0  0  0  0  0
   15.1168  -13.5567  -11.8176 C   0  0  0  0  0  0  0  0  0  0  0  0
   15.7356  -14.2597  -12.9549 C   0  0  0  0  0  0  0  0  0  0  0  0
   15.5860  -13.8269  -14.1135 O   0  0  0  0  0  0  0  0  0  0  0  0
   14.7186   -9.8695  -10.9132 C   0  0  0  0  0  0  0  0  0  0  0  0
   13.9711   -9.1526  -11.6181 O   0  0  0  0  0  0  0  0  0  0  0  0
   16.4802  -15.3964  -12.7397 O   0  0  0  0  0  0  0  0  0  0  0  0
   16.1536   -5.8929   -8.5476 C   0  0  0  0  0  0  0  0  0  0  0  0
   15.7409   -7.3382   -8.7143 C   0  0  1  0  0  0  0  0  0  0  0  0
   14.2643   -7.4418   -8.4408 C   0  0  0  0  0  0  0  0  0  0  0  0
   15.9485   -7.7903  -10.1646 C   0  0  2  0  0  0  0  0  0  0  0  0
   15.7537   -9.2039  -10.1961 N   0  0  0  0  0  0  0  0  0  0  0  0
   17.3219   -7.3804  -10.5353 C   0  0  0  0  0  0  0  0  0  0  0  0
   18.2670   -8.0711  -10.0458 O   0  0  0  0  0  0  0  0  0  0  0  0
   22.4177   -9.1786  -13.9026 N   0  0  0  0  0  0  0  0  0  0  0  0
   21.0733   -8.7336  -13.9792 C   0  0  0  0  0  0  0  0  0  0  0  0
   20.2648   -9.4671  -14.5961 O   0  0  0  0  0  0  0  0  0  0  0  0
   20.6583   -7.4757  -13.3646 C   0  0  0  0  0  0  0  0  0  0  0  0
   19.3473   -7.4815  -12.6681 C   0  0  0  0  0  0  0  0  0  0  0  0
   18.9755   -6.2071  -11.9681 C   0  0  2  0  0  0  0  0  0  0  0  0
   17.6497   -6.3072  -11.3706 N   0  0  0  0  0  0  0  0  0  0  0  0
   19.0644   -5.0248  -12.8596 C   0  0  0  0  0  0  0  0  0  0  0  0
   17.8852   -4.4770  -13.3405 O   0  0  0  0  0  0  0  0  0  0  0  0
   20.1443   -4.4893  -13.2055 O   0  0  0  0  0  0  0  0  0  0  0  0
  2  1  1  6
  3  2  1  0
  4  3  1  0
  5  4  1  0
  6  5  2  0
  7  8  2  0
  7  2  1  0
  9  5  1  0
 11 10  1  6
 11 12  1  0
 13 11  1  0
 13 14  1  1
 14  7  1  0
 15 13  1  0
 16 15  2  0
 18 20  1  0
 18 17  1  0
 19 18  2  0
 21 20  1  0
 22 21  1  6
 22 23  1  0
 23 15  1  0
 24 22  1  0
 24 25  1  0
 26 24  2  0
M  END
$$$$
