EVQ.pdb
     RDKit          3D

 26 25  0  0  1  0  0  0  0  0999 V2000
   28.5512  -21.7689  -15.9620 N   0  0  0  0  0  0  0  0  0  0  0  0
   27.5762  -20.8437  -15.4217 C   0  0  1  0  0  0  0  0  0  0  0  0
   26.9910  -20.0810  -16.5814 C   0  0  0  0  0  0  0  0  0  0  0  0
   27.9693  -19.9534  -17.7288 C   0  0  0  0  0  0  0  0  0  0  0  0
   27.6080  -20.8380  -18.8502 C   0  0  0  0  0  0  0  0  0  0  0  0
   26.6655  -21.6440  -18.7319 O   0  0  0  0  0  0  0  0  0  0  0  0
   26.5630  -21.6166  -14.6790 C   0  0  0  0  0  0  0  0  0  0  0  0
   26.2992  -22.7924  -15.0219 O   0  0  0  0  0  0  0  0  0  0  0  0
   28.3113  -20.7758  -20.0310 O   0  0  0  0  0  0  0  0  0  0  0  0
   26.3516  -21.5686  -10.8455 C   0  0  0  0  0  0  0  0  0  0  0  0
   24.9501  -21.3519  -11.3705 C   0  0  1  0  0  0  0  0  0  0  0  0
   24.6678  -19.8733  -11.3656 C   0  0  0  0  0  0  0  0  0  0  0  0
   24.8484  -21.8103  -12.8300 C   0  0  2  0  0  0  0  0  0  0  0  0
   25.8436  -21.0980  -13.5645 N   0  0  0  0  0  0  0  0  0  0  0  0
   23.4675  -21.5040  -13.2669 C   0  0  0  0  0  0  0  0  0  0  0  0
   23.2507  -20.3161  -13.6565 O   0  0  0  0  0  0  0  0  0  0  0  0
   18.4025  -25.2859  -14.6203 N   0  0  0  0  0  0  0  0  0  0  0  0
   17.9190  -23.9538  -14.6724 C   0  0  0  0  0  0  0  0  0  0  0  0
   16.7267  -23.7939  -15.0260 O   0  0  0  0  0  0  0  0  0  0  0  0
   18.7789  -22.8246  -14.3285 C   0  0  0  0  0  0  0  0  0  0  0  0
   20.1809  -23.1488  -13.9639 C   0  0  0  0  0  0  0  0  0  0  0  0
   21.0589  -21.9748  -13.6426 C   0  0  2  0  0  0  0  0  0  0  0  0
   22.4023  -22.4107  -13.2819 N   0  0  0  0  0  0  0  0  0  0  0  0
   20.4829  -21.1099  -12.5840 C   0  0  0  0  0  0  0  0  0  0  0  0
   19.6739  -20.0525  -12.9704 O   0  0  0  0  0  0  0  0  0  0  0  0
   20.6839  -21.2776  -11.3577 O   0  0  0  0  0  0  0  0  0  0  0  0
  2  1  1  6
  3  2  1  0
  4  3  1  0
  5  4  1  0
  6  5  2  0
  7  8  2  0
  7  2  1  0
  9  5  1  0
 11 10  1  6
 11 12  1  0
 13 11  1  0
 13 14  1  6
 14  7  1  0
 15 13  1  0
 16 15  2  0
 18 20  1  0
 18 17  1  0
 19 18  2  0
 21 20  1  0
 22 21  1  1
 22 23  1  0
 23 15  1  0
 24 22  1  0
 24 25  1  0
 26 24  2  0
M  END
$$$$
