EVQ.pdb
     RDKit          3D

 26 25  0  0  1  0  0  0  0  0999 V2000
   24.1350  -20.4181   -9.4148 N   0  0  0  0  0  0  0  0  0  0  0  0
   24.0129  -20.8143  -10.8028 C   0  0  1  0  0  0  0  0  0  0  0  0
   22.6067  -20.4951  -11.2383 C   0  0  0  0  0  0  0  0  0  0  0  0
   21.5826  -21.3454  -10.5186 C   0  0  0  0  0  0  0  0  0  0  0  0
   20.2141  -21.0515  -10.9787 C   0  0  0  0  0  0  0  0  0  0  0  0
   19.5879  -20.0862  -10.5011 O   0  0  0  0  0  0  0  0  0  0  0  0
   25.0302  -20.0874  -11.5853 C   0  0  0  0  0  0  0  0  0  0  0  0
   25.2763  -18.8864  -11.3273 O   0  0  0  0  0  0  0  0  0  0  0  0
   19.6246  -21.8429  -11.9374 O   0  0  0  0  0  0  0  0  0  0  0  0
   29.0219  -20.0258  -14.3519 C   0  0  0  0  0  0  0  0  0  0  0  0
   28.0228  -20.6895  -13.4310 C   0  0  1  0  0  0  0  0  0  0  0  0
   28.5080  -20.5300  -12.0149 C   0  0  0  0  0  0  0  0  0  0  0  0
   26.6671  -19.9778  -13.5101 C   0  0  2  0  0  0  0  0  0  0  0  0
   25.7730  -20.6795  -12.6466 N   0  0  0  0  0  0  0  0  0  0  0  0
   26.2588  -20.0179  -14.9326 C   0  0  0  0  0  0  0  0  0  0  0  0
   25.6589  -21.0678  -15.3167 O   0  0  0  0  0  0  0  0  0  0  0  0
   21.5120  -19.1137  -16.6394 N   0  0  0  0  0  0  0  0  0  0  0  0
   22.2321  -17.9160  -16.3985 C   0  0  0  0  0  0  0  0  0  0  0  0
   21.5708  -16.9198  -16.0211 O   0  0  0  0  0  0  0  0  0  0  0  0
   23.6792  -17.8546  -16.5849 C   0  0  0  0  0  0  0  0  0  0  0  0
   24.3414  -19.1057  -17.0324 C   0  0  0  0  0  0  0  0  0  0  0  0
   25.8339  -19.0384  -17.1740 C   0  0  2  0  0  0  0  0  0  0  0  0
   26.4812  -19.0022  -15.8684 N   0  0  0  0  0  0  0  0  0  0  0  0
   26.2722  -17.8955  -18.0119 C   0  0  0  0  0  0  0  0  0  0  0  0
   25.9194  -17.8930  -19.3526 O   0  0  0  0  0  0  0  0  0  0  0  0
   26.9441  -16.9288  -17.5800 O   0  0  0  0  0  0  0  0  0  0  0  0
  2  1  1  1
  3  2  1  0
  4  3  1  0
  5  4  1  0
  6  5  2  0
  7  8  2  0
  7  2  1  0
  9  5  1  0
 11 10  1  6
 11 12  1  0
 13 11  1  0
 13 14  1  1
 14  7  1  0
 15 13  1  0
 16 15  2  0
 18 20  1  0
 18 17  1  0
 19 18  2  0
 21 20  1  0
 22 21  1  1
 22 23  1  0
 23 15  1  0
 24 22  1  0
 24 25  1  0
 26 24  2  0
M  END
$$$$
