EVQ.pdb
     RDKit          3D

 26 25  0  0  1  0  0  0  0  0999 V2000
   24.3778  -21.2499  -12.5303 N   0  0  0  0  0  0  0  0  0  0  0  0
   25.4722  -20.4192  -12.0713 C   0  0  1  0  0  0  0  0  0  0  0  0
   25.8733  -20.9188  -10.7080 C   0  0  0  0  0  0  0  0  0  0  0  0
   24.7355  -20.8327   -9.7142 C   0  0  0  0  0  0  0  0  0  0  0  0
   25.1422  -21.3115   -8.3816 C   0  0  0  0  0  0  0  0  0  0  0  0
   26.0830  -20.7599   -7.7795 O   0  0  0  0  0  0  0  0  0  0  0  0
   26.5676  -20.5073  -13.0552 C   0  0  0  0  0  0  0  0  0  0  0  0
   27.4507  -21.3870  -12.9296 O   0  0  0  0  0  0  0  0  0  0  0  0
   24.4835  -22.3696   -7.7990 O   0  0  0  0  0  0  0  0  0  0  0  0
   28.0092  -21.3745  -17.1891 C   0  0  0  0  0  0  0  0  0  0  0  0
   27.1776  -21.1437  -15.9473 C   0  0  1  0  0  0  0  0  0  0  0  0
   27.4840  -22.2412  -14.9636 C   0  0  0  0  0  0  0  0  0  0  0  0
   27.5792  -19.8276  -15.2712 C   0  0  2  0  0  0  0  0  0  0  0  0
   26.6903  -19.6316  -14.1717 N   0  0  0  0  0  0  0  0  0  0  0  0
   27.4681  -18.7767  -16.3080 C   0  0  0  0  0  0  0  0  0  0  0  0
   26.3053  -18.5592  -16.7667 O   0  0  0  0  0  0  0  0  0  0  0  0
   31.8305  -14.3100  -17.9962 N   0  0  0  0  0  0  0  0  0  0  0  0
   30.6128  -13.9135  -18.6054 C   0  0  0  0  0  0  0  0  0  0  0  0
   30.6200  -12.8341  -19.2434 O   0  0  0  0  0  0  0  0  0  0  0  0
   29.4089  -14.7319  -18.4892 C   0  0  0  0  0  0  0  0  0  0  0  0
   29.5256  -15.9667  -17.6733 C   0  0  0  0  0  0  0  0  0  0  0  0
   28.2819  -16.8004  -17.5713 C   0  0  2  0  0  0  0  0  0  0  0  0
   28.5309  -18.0188  -16.8108 N   0  0  0  0  0  0  0  0  0  0  0  0
   27.7019  -17.1168  -18.8995 C   0  0  0  0  0  0  0  0  0  0  0  0
   26.7889  -16.2271  -19.4442 O   0  0  0  0  0  0  0  0  0  0  0  0
   27.9881  -18.1429  -19.5611 O   0  0  0  0  0  0  0  0  0  0  0  0
  2  1  1  6
  3  2  1  0
  4  3  1  0
  5  4  1  0
  6  5  2  0
  7  8  2  0
  7  2  1  0
  9  5  1  0
 11 10  1  6
 11 12  1  0
 13 11  1  0
 13 14  1  1
 14  7  1  0
 15 13  1  0
 16 15  2  0
 18 20  1  0
 18 17  1  0
 19 18  2  0
 21 20  1  0
 22 21  1  6
 22 23  1  0
 23 15  1  0
 24 22  1  0
 24 25  1  0
 26 24  2  0
M  END
$$$$
