EVQ.pdb
     RDKit          3D

 26 25  0  0  1  0  0  0  0  0999 V2000
   19.4798  -10.9599  -17.1161 N   0  0  0  0  0  0  0  0  0  0  0  0
   18.4183  -10.4125  -16.2963 C   0  0  1  0  0  0  0  0  0  0  0  0
   17.7405  -11.5690  -15.6092 C   0  0  0  0  0  0  0  0  0  0  0  0
   17.0459  -12.4858  -16.5925 C   0  0  0  0  0  0  0  0  0  0  0  0
   17.7506  -13.7729  -16.7245 C   0  0  0  0  0  0  0  0  0  0  0  0
   18.7978  -13.9809  -16.0825 O   0  0  0  0  0  0  0  0  0  0  0  0
   19.0120   -9.4538  -15.3456 C   0  0  0  0  0  0  0  0  0  0  0  0
   18.2889   -8.8944  -14.4890 O   0  0  0  0  0  0  0  0  0  0  0  0
   17.2535  -14.7483  -17.5576 O   0  0  0  0  0  0  0  0  0  0  0  0
   21.7952  -10.0188  -13.0231 C   0  0  0  0  0  0  0  0  0  0  0  0
   22.2159   -8.8117  -13.8310 C   0  0  1  0  0  0  0  0  0  0  0  0
   23.0919   -9.2823  -14.9611 C   0  0  0  0  0  0  0  0  0  0  0  0
   20.9938   -8.1461  -14.4747 C   0  0  2  0  0  0  0  0  0  0  0  0
   20.3948   -9.1124  -15.3376 N   0  0  0  0  0  0  0  0  0  0  0  0
   21.4995   -6.9542  -15.1926 C   0  0  0  0  0  0  0  0  0  0  0  0
   22.3330   -7.1699  -16.1245 O   0  0  0  0  0  0  0  0  0  0  0  0
   19.8551   -5.4989  -19.8651 N   0  0  0  0  0  0  0  0  0  0  0  0
   20.5617   -4.2891  -19.6456 C   0  0  0  0  0  0  0  0  0  0  0  0
   20.7280   -3.5388  -20.6363 O   0  0  0  0  0  0  0  0  0  0  0  0
   21.0699   -3.9413  -18.3214 C   0  0  0  0  0  0  0  0  0  0  0  0
   20.8841   -4.9569  -17.2546 C   0  0  0  0  0  0  0  0  0  0  0  0
   21.3941   -4.5754  -15.8957 C   0  0  2  0  0  0  0  0  0  0  0  0
   21.1331   -5.6309  -14.9248 N   0  0  0  0  0  0  0  0  0  0  0  0
   20.8435   -3.2800  -15.4274 C   0  0  0  0  0  0  0  0  0  0  0  0
   19.8343   -3.3026  -14.4772 O   0  0  0  0  0  0  0  0  0  0  0  0
   21.2365   -2.1629  -15.8400 O   0  0  0  0  0  0  0  0  0  0  0  0
  2  1  1  6
  3  2  1  0
  4  3  1  0
  5  4  1  0
  6  5  2  0
  7  8  2  0
  7  2  1  0
  9  5  1  0
 11 10  1  6
 11 12  1  0
 13 11  1  0
 13 14  1  6
 14  7  1  0
 15 13  1  0
 16 15  2  0
 18 20  1  0
 18 17  1  0
 19 18  2  0
 21 20  1  0
 22 21  1  6
 22 23  1  0
 23 15  1  0
 24 22  1  0
 24 25  1  0
 26 24  2  0
M  END
$$$$
