EVQ.pdb
     RDKit          3D

 26 25  0  0  1  0  0  0  0  0999 V2000
   24.7212  -20.5992   -9.2404 N   0  0  0  0  0  0  0  0  0  0  0  0
   24.3290  -20.8759  -10.6072 C   0  0  1  0  0  0  0  0  0  0  0  0
   22.8890  -20.4585  -10.7538 C   0  0  0  0  0  0  0  0  0  0  0  0
   21.9622  -21.3126   -9.9165 C   0  0  0  0  0  0  0  0  0  0  0  0
   20.5652  -20.8551  -10.0163 C   0  0  0  0  0  0  0  0  0  0  0  0
   20.2576  -19.9579  -10.8240 O   0  0  0  0  0  0  0  0  0  0  0  0
   25.2311  -20.1355  -11.5092 C   0  0  0  0  0  0  0  0  0  0  0  0
   25.6444  -18.9984  -11.1840 O   0  0  0  0  0  0  0  0  0  0  0  0
   19.5970  -21.4182   -9.2174 O   0  0  0  0  0  0  0  0  0  0  0  0
   28.4015  -20.0833  -15.2429 C   0  0  0  0  0  0  0  0  0  0  0  0
   27.5643  -20.8004  -14.2076 C   0  0  1  0  0  0  0  0  0  0  0  0
   28.4287  -21.0671  -13.0044 C   0  0  0  0  0  0  0  0  0  0  0  0
   26.4178  -19.9014  -13.7302 C   0  0  2  0  0  0  0  0  0  0  0  0
   25.6763  -20.6442  -12.7628 N   0  0  0  0  0  0  0  0  0  0  0  0
   25.6288  -19.5586  -14.9351 C   0  0  0  0  0  0  0  0  0  0  0  0
   24.9991  -20.5125  -15.4858 O   0  0  0  0  0  0  0  0  0  0  0  0
   22.1896  -14.4719  -16.5212 N   0  0  0  0  0  0  0  0  0  0  0  0
   21.5924  -15.7452  -16.3394 C   0  0  0  0  0  0  0  0  0  0  0  0
   20.3507  -15.7727  -16.1670 O   0  0  0  0  0  0  0  0  0  0  0  0
   22.3956  -16.9647  -16.3532 C   0  0  0  0  0  0  0  0  0  0  0  0
   23.8648  -16.7870  -16.4708 C   0  0  0  0  0  0  0  0  0  0  0  0
   24.6613  -18.0462  -16.6499 C   0  0  2  0  0  0  0  0  0  0  0  0
   25.5277  -18.2837  -15.5018 N   0  0  0  0  0  0  0  0  0  0  0  0
   25.4438  -18.0468  -17.9102 C   0  0  0  0  0  0  0  0  0  0  0  0
   24.7900  -18.3784  -19.0868 O   0  0  0  0  0  0  0  0  0  0  0  0
   26.6639  -17.7648  -17.9760 O   0  0  0  0  0  0  0  0  0  0  0  0
  2  1  1  1
  3  2  1  0
  4  3  1  0
  5  4  1  0
  6  5  2  0
  7  8  2  0
  7  2  1  0
  9  5  1  0
 11 10  1  6
 11 12  1  0
 13 11  1  0
 13 14  1  1
 14  7  1  0
 15 13  1  0
 16 15  2  0
 18 20  1  0
 18 17  1  0
 19 18  2  0
 21 20  1  0
 22 21  1  1
 22 23  1  0
 23 15  1  0
 24 22  1  0
 24 25  1  0
 26 24  2  0
M  END
$$$$
