TAD.pdb
     RDKit          3D

 21 20  0  0  1  0  0  0  0  0999 V2000
    6.0399  -16.6521   22.2366 C   0  0  0  0  0  0  0  0  0  0  0  0
    7.1412  -16.1147   21.3694 C   0  0  1  0  0  0  0  0  0  0  0  0
    6.9457  -16.5637   20.0529 O   0  0  0  0  0  0  0  0  0  0  0  0
    7.1541  -14.5940   21.4177 C   0  0  2  0  0  0  0  0  0  0  0  0
    7.9557  -14.1134   20.3113 N   0  0  0  0  0  0  0  0  0  0  0  0
    7.6698  -14.0990   22.7115 C   0  0  0  0  0  0  0  0  0  0  0  0
    8.9090  -14.0553   22.9197 O   0  0  0  0  0  0  0  0  0  0  0  0
    6.1597  -12.4952   25.7884 C   0  0  0  0  0  0  0  0  0  0  0  0
    7.2676  -13.1907   25.0250 C   0  0  2  0  0  0  0  0  0  0  0  0
    6.8027  -13.6615   23.7504 N   0  0  0  0  0  0  0  0  0  0  0  0
    7.8933  -14.2736   25.8296 C   0  0  0  0  0  0  0  0  0  0  0  0
    8.4295  -14.0182   26.9424 O   0  0  0  0  0  0  0  0  0  0  0  0
    7.9263  -15.6275   25.4080 N   0  0  0  0  0  0  0  0  0  0  0  0
    8.5683  -16.6731   26.1872 C   0  0  1  0  0  0  0  0  0  0  0  0
    7.6970  -17.9051   26.1007 C   0  0  0  0  0  0  0  0  0  0  0  0
    8.2746  -18.9964   26.9192 C   0  0  0  0  0  0  0  0  0  0  0  0
    9.2599  -18.7633   27.6551 O   0  0  0  0  0  0  0  0  0  0  0  0
    9.9096  -17.0039   25.6218 C   0  0  0  0  0  0  0  0  0  0  0  0
   10.0380  -17.0415   24.3835 O   0  0  0  0  0  0  0  0  0  0  0  0
    7.7402  -20.2804   26.8849 O   0  0  0  0  0  0  0  0  0  0  0  0
   10.9900  -17.2639   26.4306 O   0  0  0  0  0  0  0  0  0  0  0  0
  2  1  1  1
  3  2  1  0
  4  5  1  6
  4  2  1  0
  6  4  1  0
  6  7  2  0
  9  8  1  1
  9 10  1  0
  9 11  1  0
 10  6  1  0
 11 12  2  0
 13 11  1  0
 13 14  1  0
 14 15  1  6
 15 16  1  0
 16 20  1  0
 16 17  2  0
 18 21  1  0
 18 14  1  0
 19 18  2  0
M  END
$$$$
