TAD.pdb
     RDKit          3D

 21 20  0  0  1  0  0  0  0  0999 V2000
    8.1304  -16.5201   18.6106 C   0  0  0  0  0  0  0  0  0  0  0  0
    8.5072  -15.1735   18.0645 C   0  0  1  0  0  0  0  0  0  0  0  0
    7.9267  -15.0172   16.7950 O   0  0  0  0  0  0  0  0  0  0  0  0
    8.0363  -14.0740   19.0050 C   0  0  2  0  0  0  0  0  0  0  0  0
    8.1457  -12.8077   18.3107 N   0  0  0  0  0  0  0  0  0  0  0  0
    8.8144  -14.0683   20.2617 C   0  0  0  0  0  0  0  0  0  0  0  0
   10.0128  -13.6880   20.2580 O   0  0  0  0  0  0  0  0  0  0  0  0
    8.0832  -14.6111   23.9247 C   0  0  0  0  0  0  0  0  0  0  0  0
    9.0004  -14.5806   22.7197 C   0  0  2  0  0  0  0  0  0  0  0  0
    8.2500  -14.4841   21.4991 N   0  0  0  0  0  0  0  0  0  0  0  0
    9.9374  -15.7355   22.7131 C   0  0  0  0  0  0  0  0  0  0  0  0
    9.5718  -16.8558   22.2633 O   0  0  0  0  0  0  0  0  0  0  0  0
   11.2672  -15.6531   23.1995 N   0  0  0  0  0  0  0  0  0  0  0  0
   12.1510  -16.8055   23.2568 C   0  0  1  0  0  0  0  0  0  0  0  0
   13.5718  -16.2900   23.2497 C   0  0  0  0  0  0  0  0  0  0  0  0
   13.8778  -15.6565   21.9460 C   0  0  0  0  0  0  0  0  0  0  0  0
   13.3607  -16.1107   20.9005 O   0  0  0  0  0  0  0  0  0  0  0  0
   11.9348  -17.5737   24.5183 C   0  0  0  0  0  0  0  0  0  0  0  0
   12.5414  -18.6512   24.6675 O   0  0  0  0  0  0  0  0  0  0  0  0
   14.7325  -14.5619   21.8620 O   0  0  0  0  0  0  0  0  0  0  0  0
   11.0909  -17.1206   25.5040 O   0  0  0  0  0  0  0  0  0  0  0  0
  2  1  1  1
  3  2  1  0
  4  5  1  6
  4  2  1  0
  6  4  1  0
  6  7  2  0
  9  8  1  1
  9 10  1  0
  9 11  1  0
 10  6  1  0
 11 12  2  0
 13 11  1  0
 13 14  1  0
 14 15  1  1
 15 16  1  0
 16 20  1  0
 16 17  2  0
 18 21  1  0
 18 14  1  0
 19 18  2  0
M  END
$$$$
