TAD.pdb
     RDKit          3D

 21 20  0  0  1  0  0  0  0  0999 V2000
    8.1361  -12.1894   19.0646 C   0  0  0  0  0  0  0  0  0  0  0  0
    7.8564  -13.6145   18.6844 C   0  0  1  0  0  0  0  0  0  0  0  0
    7.8591  -13.7220   17.2839 O   0  0  0  0  0  0  0  0  0  0  0  0
    8.9036  -14.5361   19.2919 C   0  0  2  0  0  0  0  0  0  0  0  0
    8.6464  -15.8826   18.8247 N   0  0  0  0  0  0  0  0  0  0  0  0
    8.8928  -14.4670   20.7684 C   0  0  0  0  0  0  0  0  0  0  0  0
    9.4665  -13.5160   21.3579 O   0  0  0  0  0  0  0  0  0  0  0  0
    7.0257  -15.9697   23.6060 C   0  0  0  0  0  0  0  0  0  0  0  0
    8.3279  -15.4927   22.9972 C   0  0  2  0  0  0  0  0  0  0  0  0
    8.2465  -15.4528   21.5640 N   0  0  0  0  0  0  0  0  0  0  0  0
    9.4841  -16.2988   23.4718 C   0  0  0  0  0  0  0  0  0  0  0  0
    9.6767  -16.4802   24.7052 O   0  0  0  0  0  0  0  0  0  0  0  0
   10.4197  -16.8993   22.5909 N   0  0  0  0  0  0  0  0  0  0  0  0
   11.5503  -17.6795   23.0655 C   0  0  1  0  0  0  0  0  0  0  0  0
   11.7748  -18.8021   22.0788 C   0  0  0  0  0  0  0  0  0  0  0  0
   12.9373  -19.6211   22.4941 C   0  0  0  0  0  0  0  0  0  0  0  0
   12.9800  -20.0928   23.6527 O   0  0  0  0  0  0  0  0  0  0  0  0
   12.7851  -16.8421   23.1154 C   0  0  0  0  0  0  0  0  0  0  0  0
   13.6038  -17.0471   24.0314 O   0  0  0  0  0  0  0  0  0  0  0  0
   13.9865  -19.8764   21.6168 O   0  0  0  0  0  0  0  0  0  0  0  0
   13.0318  -15.8632   22.1827 O   0  0  0  0  0  0  0  0  0  0  0  0
  2  1  1  6
  3  2  1  0
  4  5  1  1
  4  2  1  0
  6  4  1  0
  6  7  2  0
  9  8  1  1
  9 10  1  0
  9 11  1  0
 10  6  1  0
 11 12  2  0
 13 11  1  0
 13 14  1  0
 14 15  1  6
 15 16  1  0
 16 20  1  0
 16 17  2  0
 18 21  1  0
 18 14  1  0
 19 18  2  0
M  END
$$$$
