TAD.pdb
     RDKit          3D

 21 20  0  0  1  0  0  0  0  0999 V2000
    8.1587  -17.6046   16.3015 C   0  0  0  0  0  0  0  0  0  0  0  0
    8.3468  -16.7444   15.0856 C   0  0  1  0  0  0  0  0  0  0  0  0
    7.6884  -17.3415   13.9980 O   0  0  0  0  0  0  0  0  0  0  0  0
    7.7986  -15.3480   15.3394 C   0  0  2  0  0  0  0  0  0  0  0  0
    7.7185  -14.6561   14.0696 N   0  0  0  0  0  0  0  0  0  0  0  0
    8.6362  -14.6060   16.3052 C   0  0  0  0  0  0  0  0  0  0  0  0
    9.8415  -14.3667   16.0389 O   0  0  0  0  0  0  0  0  0  0  0  0
    8.1035  -13.0848   19.7404 C   0  0  0  0  0  0  0  0  0  0  0  0
    8.9461  -13.6073   18.5955 C   0  0  2  0  0  0  0  0  0  0  0  0
    8.1227  -14.1432   17.5480 N   0  0  0  0  0  0  0  0  0  0  0  0
    9.9650  -14.5840   19.0642 C   0  0  0  0  0  0  0  0  0  0  0  0
    9.7140  -15.8202   19.0698 O   0  0  0  0  0  0  0  0  0  0  0  0
   11.2504  -14.1979   19.5230 N   0  0  0  0  0  0  0  0  0  0  0  0
   12.2110  -15.1525   20.0505 C   0  0  1  0  0  0  0  0  0  0  0  0
   13.5857  -14.5405   19.9087 C   0  0  0  0  0  0  0  0  0  0  0  0
   13.9612  -14.4568   18.4781 C   0  0  0  0  0  0  0  0  0  0  0  0
   13.6920  -15.4084   17.7107 O   0  0  0  0  0  0  0  0  0  0  0  0
   11.9572  -15.4104   21.4988 C   0  0  0  0  0  0  0  0  0  0  0  0
   11.0603  -14.7604   22.0683 O   0  0  0  0  0  0  0  0  0  0  0  0
   14.6100  -13.3360   17.9698 O   0  0  0  0  0  0  0  0  0  0  0  0
   12.6844  -16.3384   22.2053 O   0  0  0  0  0  0  0  0  0  0  0  0
  2  1  1  1
  3  2  1  0
  4  5  1  6
  4  2  1  0
  6  4  1  0
  6  7  2  0
  9  8  1  1
  9 10  1  0
  9 11  1  0
 10  6  1  0
 11 12  2  0
 13 11  1  0
 13 14  1  0
 14 15  1  1
 15 16  1  0
 16 20  1  0
 16 17  2  0
 18 21  1  0
 18 14  1  0
 19 18  2  0
M  END
$$$$
