TAD.pdb
     RDKit          3D

 21 20  0  0  1  0  0  0  0  0999 V2000
    7.9239  -17.8132   16.3457 C   0  0  0  0  0  0  0  0  0  0  0  0
    8.7990  -17.1650   15.3124 C   0  0  1  0  0  0  0  0  0  0  0  0
    8.6111  -17.8160   14.0820 O   0  0  0  0  0  0  0  0  0  0  0  0
    8.4616  -15.6864   15.1901 C   0  0  2  0  0  0  0  0  0  0  0  0
    9.1082  -15.1720   14.0006 N   0  0  0  0  0  0  0  0  0  0  0  0
    8.8751  -14.9365   16.3949 C   0  0  0  0  0  0  0  0  0  0  0  0
   10.0953  -14.8184   16.6746 O   0  0  0  0  0  0  0  0  0  0  0  0
    7.1036  -12.9719   19.1107 C   0  0  0  0  0  0  0  0  0  0  0  0
    8.2834  -13.7095   18.5123 C   0  0  2  0  0  0  0  0  0  0  0  0
    7.9289  -14.3315   17.2674 N   0  0  0  0  0  0  0  0  0  0  0  0
    8.8725  -14.6772   19.4759 C   0  0  0  0  0  0  0  0  0  0  0  0
    9.3004  -14.2869   20.5965 O   0  0  0  0  0  0  0  0  0  0  0  0
    8.9877  -16.0644   19.2034 N   0  0  0  0  0  0  0  0  0  0  0  0
    9.5390  -17.0060   20.1635 C   0  0  1  0  0  0  0  0  0  0  0  0
    9.1136  -18.3922   19.7370 C   0  0  0  0  0  0  0  0  0  0  0  0
    9.6203  -19.3993   20.6981 C   0  0  0  0  0  0  0  0  0  0  0  0
    9.8038  -19.0767   21.8936 O   0  0  0  0  0  0  0  0  0  0  0  0
   11.0307  -16.9493   20.1609 C   0  0  0  0  0  0  0  0  0  0  0  0
   11.6182  -16.8495   19.0672 O   0  0  0  0  0  0  0  0  0  0  0  0
    9.8971  -20.7017   20.2951 O   0  0  0  0  0  0  0  0  0  0  0  0
   11.7574  -17.0043   21.3262 O   0  0  0  0  0  0  0  0  0  0  0  0
  2  1  1  1
  3  2  1  0
  4  5  1  6
  4  2  1  0
  6  4  1  0
  6  7  2  0
  9  8  1  1
  9 10  1  0
  9 11  1  0
 10  6  1  0
 11 12  2  0
 13 11  1  0
 13 14  1  0
 14 15  1  6
 15 16  1  0
 16 20  1  0
 16 17  2  0
 18 21  1  0
 18 14  1  0
 19 18  2  0
M  END
$$$$
