TAD.pdb
     RDKit          3D

 21 20  0  0  1  0  0  0  0  0999 V2000
    9.0614  -19.7893   20.6470 C   0  0  0  0  0  0  0  0  0  0  0  0
    9.7192  -19.3711   19.3640 C   0  0  1  0  0  0  0  0  0  0  0  0
    9.1126  -20.0536   18.2966 O   0  0  0  0  0  0  0  0  0  0  0  0
    9.5941  -17.8667   19.1747 C   0  0  2  0  0  0  0  0  0  0  0  0
    9.9799  -17.5484   17.8155 N   0  0  0  0  0  0  0  0  0  0  0  0
   10.4178  -17.1285   20.1553 C   0  0  0  0  0  0  0  0  0  0  0  0
   11.6672  -17.0844   20.0210 O   0  0  0  0  0  0  0  0  0  0  0  0
    9.7186  -15.0811   23.2738 C   0  0  0  0  0  0  0  0  0  0  0  0
   10.6145  -15.7780   22.2710 C   0  0  2  0  0  0  0  0  0  0  0  0
    9.8417  -16.4531   21.2664 N   0  0  0  0  0  0  0  0  0  0  0  0
   11.5839  -16.6869   22.9389 C   0  0  0  0  0  0  0  0  0  0  0  0
   11.2134  -17.8106   23.3761 O   0  0  0  0  0  0  0  0  0  0  0  0
   12.9511  -16.3568   23.1222 N   0  0  0  0  0  0  0  0  0  0  0  0
   13.8885  -17.2492   23.7833 C   0  0  1  0  0  0  0  0  0  0  0  0
   14.8881  -17.7082   22.7467 C   0  0  0  0  0  0  0  0  0  0  0  0
   14.9813  -19.1867   22.7479 C   0  0  0  0  0  0  0  0  0  0  0  0
   14.3148  -19.8483   23.5755 O   0  0  0  0  0  0  0  0  0  0  0  0
   14.6267  -16.5318   24.8644 C   0  0  0  0  0  0  0  0  0  0  0  0
   14.8853  -15.3239   24.7047 O   0  0  0  0  0  0  0  0  0  0  0  0
   15.7988  -19.8560   21.8428 O   0  0  0  0  0  0  0  0  0  0  0  0
   15.0206  -17.1701   26.0161 O   0  0  0  0  0  0  0  0  0  0  0  0
  2  1  1  1
  3  2  1  0
  4  5  1  6
  4  2  1  0
  6  4  1  0
  6  7  2  0
  9  8  1  1
  9 10  1  0
  9 11  1  0
 10  6  1  0
 11 12  2  0
 13 11  1  0
 13 14  1  0
 14 15  1  6
 15 16  1  0
 16 20  1  0
 16 17  2  0
 18 21  1  0
 18 14  1  0
 19 18  2  0
M  END
$$$$
