TAD.pdb
     RDKit          3D

 21 20  0  0  1  0  0  0  0  0999 V2000
    7.3008  -14.8737   16.5303 C   0  0  0  0  0  0  0  0  0  0  0  0
    8.0147  -15.0034   17.8446 C   0  0  1  0  0  0  0  0  0  0  0  0
    9.3988  -15.0493   17.6094 O   0  0  0  0  0  0  0  0  0  0  0  0
    7.6664  -13.8314   18.7502 C   0  0  2  0  0  0  0  0  0  0  0  0
    8.0497  -12.6088   18.0749 N   0  0  0  0  0  0  0  0  0  0  0  0
    8.3288  -13.9503   20.0663 C   0  0  0  0  0  0  0  0  0  0  0  0
    9.5225  -13.5808   20.2055 O   0  0  0  0  0  0  0  0  0  0  0  0
    7.2581  -14.9970   23.5482 C   0  0  0  0  0  0  0  0  0  0  0  0
    8.2781  -14.6381   22.4877 C   0  0  2  0  0  0  0  0  0  0  0  0
    7.6560  -14.4762   21.2035 N   0  0  0  0  0  0  0  0  0  0  0  0
    9.3984  -15.6155   22.4498 C   0  0  0  0  0  0  0  0  0  0  0  0
    9.3474  -16.6209   21.6898 O   0  0  0  0  0  0  0  0  0  0  0  0
   10.5653  -15.4829   23.2452 N   0  0  0  0  0  0  0  0  0  0  0  0
   11.5887  -16.5130   23.3088 C   0  0  1  0  0  0  0  0  0  0  0  0
   12.9310  -15.8193   23.3435 C   0  0  0  0  0  0  0  0  0  0  0  0
   14.0230  -16.8199   23.3112 C   0  0  0  0  0  0  0  0  0  0  0  0
   14.7825  -16.9394   24.2990 O   0  0  0  0  0  0  0  0  0  0  0  0
   11.4447  -17.3232   24.5543 C   0  0  0  0  0  0  0  0  0  0  0  0
   10.8794  -16.8055   25.5361 O   0  0  0  0  0  0  0  0  0  0  0  0
   14.2206  -17.6323   22.1993 O   0  0  0  0  0  0  0  0  0  0  0  0
   11.9175  -18.6111   24.6367 O   0  0  0  0  0  0  0  0  0  0  0  0
  2  1  1  6
  3  2  1  0
  4  5  1  6
  4  2  1  0
  6  4  1  0
  6  7  2  0
  9  8  1  1
  9 10  1  0
  9 11  1  0
 10  6  1  0
 11 12  2  0
 13 11  1  0
 13 14  1  0
 14 15  1  1
 15 16  1  0
 16 20  1  0
 16 17  2  0
 18 21  1  0
 18 14  1  0
 19 18  2  0
M  END
$$$$
