TAD.pdb
     RDKit          3D

 21 20  0  0  1  0  0  0  0  0999 V2000
    6.5127  -14.2400   18.5081 C   0  0  0  0  0  0  0  0  0  0  0  0
    7.1865  -14.5719   19.8079 C   0  0  1  0  0  0  0  0  0  0  0  0
    8.2395  -15.4679   19.5602 O   0  0  0  0  0  0  0  0  0  0  0  0
    7.7090  -13.3046   20.4681 C   0  0  2  0  0  0  0  0  0  0  0  0
    8.6412  -12.6720   19.5579 N   0  0  0  0  0  0  0  0  0  0  0  0
    8.3425  -13.5961   21.7714 C   0  0  0  0  0  0  0  0  0  0  0  0
    9.5573  -13.9162   21.8229 O   0  0  0  0  0  0  0  0  0  0  0  0
    7.2595  -13.4950   25.4011 C   0  0  0  0  0  0  0  0  0  0  0  0
    8.1676  -13.9124   24.2630 C   0  0  2  0  0  0  0  0  0  0  0  0
    7.6180  -13.5276   22.9933 N   0  0  0  0  0  0  0  0  0  0  0  0
    8.4880  -15.3636   24.3197 C   0  0  0  0  0  0  0  0  0  0  0  0
    7.6694  -16.2189   23.8845 O   0  0  0  0  0  0  0  0  0  0  0  0
    9.7029  -15.8653   24.8529 N   0  0  0  0  0  0  0  0  0  0  0  0
    9.9460  -17.2859   25.0407 C   0  0  1  0  0  0  0  0  0  0  0  0
   11.4190  -17.5303   24.8063 C   0  0  0  0  0  0  0  0  0  0  0  0
   11.7928  -17.1144   23.4345 C   0  0  0  0  0  0  0  0  0  0  0  0
   11.1224  -17.5228   22.4595 O   0  0  0  0  0  0  0  0  0  0  0  0
    9.6164  -17.6972   26.4373 C   0  0  0  0  0  0  0  0  0  0  0  0
    9.2572  -16.8194   27.2446 O   0  0  0  0  0  0  0  0  0  0  0  0
   12.8793  -16.2752   23.2090 O   0  0  0  0  0  0  0  0  0  0  0  0
    9.7009  -19.0076   26.8431 O   0  0  0  0  0  0  0  0  0  0  0  0
  2  1  1  6
  3  2  1  0
  4  5  1  6
  4  2  1  0
  6  4  1  0
  6  7  2  0
  9  8  1  1
  9 10  1  0
  9 11  1  0
 10  6  1  0
 11 12  2  0
 13 11  1  0
 13 14  1  0
 14 15  1  1
 15 16  1  0
 16 20  1  0
 16 17  2  0
 18 21  1  0
 18 14  1  0
 19 18  2  0
M  END
$$$$
