TAD.pdb
     RDKit          3D

 21 20  0  0  1  0  0  0  0  0999 V2000
    8.1676  -16.3436   18.7316 C   0  0  0  0  0  0  0  0  0  0  0  0
    8.7093  -15.0216   18.2704 C   0  0  1  0  0  0  0  0  0  0  0  0
    8.4670  -14.8845   16.8937 O   0  0  0  0  0  0  0  0  0  0  0  0
    8.0539  -13.8863   19.0428 C   0  0  2  0  0  0  0  0  0  0  0  0
    8.3295  -12.6471   18.3457 N   0  0  0  0  0  0  0  0  0  0  0  0
    8.5332  -13.8364   20.4402 C   0  0  0  0  0  0  0  0  0  0  0  0
    9.6105  -13.2494   20.7152 O   0  0  0  0  0  0  0  0  0  0  0  0
    7.1047  -14.6728   23.8251 C   0  0  0  0  0  0  0  0  0  0  0  0
    8.2558  -14.4276   22.8717 C   0  0  2  0  0  0  0  0  0  0  0  0
    7.8097  -14.4377   21.5067 N   0  0  0  0  0  0  0  0  0  0  0  0
    9.3742  -15.3799   23.1042 C   0  0  0  0  0  0  0  0  0  0  0  0
    9.9070  -15.4781   24.2433 O   0  0  0  0  0  0  0  0  0  0  0  0
    9.8994  -16.2167   22.0864 N   0  0  0  0  0  0  0  0  0  0  0  0
   10.9995  -17.1368   22.3218 C   0  0  1  0  0  0  0  0  0  0  0  0
   10.9540  -18.1876   21.2363 C   0  0  0  0  0  0  0  0  0  0  0  0
    9.6490  -18.8884   21.2597 C   0  0  0  0  0  0  0  0  0  0  0  0
    9.2249  -19.3715   22.3338 O   0  0  0  0  0  0  0  0  0  0  0  0
   12.3093  -16.4260   22.2348 C   0  0  0  0  0  0  0  0  0  0  0  0
   13.3516  -17.0771   22.4376 O   0  0  0  0  0  0  0  0  0  0  0  0
    8.8833  -19.0202   20.1056 O   0  0  0  0  0  0  0  0  0  0  0  0
   12.3854  -15.0859   21.9395 O   0  0  0  0  0  0  0  0  0  0  0  0
  2  1  1  1
  3  2  1  0
  4  5  1  6
  4  2  1  0
  6  4  1  0
  6  7  2  0
  9  8  1  1
  9 10  1  0
  9 11  1  0
 10  6  1  0
 11 12  2  0
 13 11  1  0
 13 14  1  0
 14 15  1  6
 15 16  1  0
 16 20  1  0
 16 17  2  0
 18 21  1  0
 18 14  1  0
 19 18  2  0
M  END
$$$$
