KGD.pdb
     RDKit          3D

 22 21  0  0  1  0  0  0  0  0999 V2000
    3.7543  -21.7220   19.5985 N   0  0  0  0  0  0  0  0  0  0  0  0
    2.5100  -22.2134   20.2039 C   0  0  1  0  0  0  0  0  0  0  0  0
    2.1876  -23.5136   19.5518 C   0  0  0  0  0  0  0  0  0  0  0  0
    1.0667  -23.3753   18.5716 C   0  0  0  0  0  0  0  0  0  0  0  0
   -0.2415  -23.7258   19.2539 C   0  0  0  0  0  0  0  0  0  0  0  0
   -1.3968  -23.6420   18.2522 C   0  0  0  0  0  0  0  0  0  0  0  0
   -2.6016  -23.9212   19.0123 N   0  0  0  0  0  0  0  0  0  0  0  0
    2.7027  -22.3661   21.6624 C   0  0  0  0  0  0  0  0  0  0  0  0
    2.1456  -23.2600   22.3492 O   0  0  0  0  0  0  0  0  0  0  0  0
    3.5806  -21.4341   22.3294 N   0  0  0  0  0  0  0  0  0  0  0  0
    3.8175  -21.6032   23.7478 C   0  0  0  0  0  0  0  0  0  0  0  0
    5.0909  -22.3249   23.9637 C   0  0  0  0  0  0  0  0  0  0  0  0
    5.5680  -23.0204   23.0364 O   0  0  0  0  0  0  0  0  0  0  0  0
    5.7378  -22.2108   25.2132 N   0  0  0  0  0  0  0  0  0  0  0  0
    7.0716  -22.8075   25.3632 C   0  0  1  0  0  0  0  0  0  0  0  0
    8.0439  -21.7223   25.7484 C   0  0  0  0  0  0  0  0  0  0  0  0
    9.3939  -22.2862   25.9093 C   0  0  0  0  0  0  0  0  0  0  0  0
   10.0179  -22.7526   24.8983 O   0  0  0  0  0  0  0  0  0  0  0  0
    6.9578  -23.7870   26.5041 C   0  0  0  0  0  0  0  0  0  0  0  0
    6.0512  -23.7421   27.3605 O   0  0  0  0  0  0  0  0  0  0  0  0
   10.0527  -22.3495   27.1212 O   0  0  0  0  0  0  0  0  0  0  0  0
    7.8883  -24.8054   26.6450 O   0  0  0  0  0  0  0  0  0  0  0  0
  2  1  1  6
  2  8  1  0
  3  2  1  0
  4  3  1  0
  5  4  1  0
  6  7  1  0
  6  5  1  0
  8 10  1  0
  9  8  2  0
 10 11  1  0
 12 14  1  0
 12 11  1  0
 13 12  2  0
 15 16  1  1
 15 14  1  0
 16 17  1  0
 17 18  2  0
 17 21  1  0
 19 15  1  0
 19 22  1  0
 20 19  2  0
M  END
$$$$
