KGD.pdb
     RDKit          3D

 22 21  0  0  1  0  0  0  0  0999 V2000
    8.0714  -14.8964   17.4197 N   0  0  0  0  0  0  0  0  0  0  0  0
    7.9497  -16.2118   16.7785 C   0  0  1  0  0  0  0  0  0  0  0  0
    8.2046  -16.0168   15.3237 C   0  0  0  0  0  0  0  0  0  0  0  0
    7.6728  -14.7045   14.8423 C   0  0  0  0  0  0  0  0  0  0  0  0
    7.6964  -14.6803   13.3262 C   0  0  0  0  0  0  0  0  0  0  0  0
    7.1397  -13.3495   12.8121 C   0  0  0  0  0  0  0  0  0  0  0  0
    7.2386  -13.4109   11.3652 N   0  0  0  0  0  0  0  0  0  0  0  0
    8.9256  -17.1436   17.3846 C   0  0  0  0  0  0  0  0  0  0  0  0
    9.0872  -18.3301   17.0010 O   0  0  0  0  0  0  0  0  0  0  0  0
    9.7351  -16.6582   18.4769 N   0  0  0  0  0  0  0  0  0  0  0  0
   10.7625  -17.5261   19.0134 C   0  0  0  0  0  0  0  0  0  0  0  0
   11.5230  -16.8166   20.0655 C   0  0  0  0  0  0  0  0  0  0  0  0
   11.9570  -15.6628   19.8381 O   0  0  0  0  0  0  0  0  0  0  0  0
   11.7409  -17.4600   21.3031 N   0  0  0  0  0  0  0  0  0  0  0  0
   12.6912  -16.8536   22.2447 C   0  0  1  0  0  0  0  0  0  0  0  0
   12.5486  -17.5376   23.5800 C   0  0  0  0  0  0  0  0  0  0  0  0
   13.4145  -16.8873   24.5768 C   0  0  0  0  0  0  0  0  0  0  0  0
   14.1148  -15.8711   24.2513 O   0  0  0  0  0  0  0  0  0  0  0  0
   14.0628  -17.1473   21.6910 C   0  0  0  0  0  0  0  0  0  0  0  0
   14.3041  -18.1012   20.9234 O   0  0  0  0  0  0  0  0  0  0  0  0
   13.5267  -17.3179   25.8841 O   0  0  0  0  0  0  0  0  0  0  0  0
   15.1388  -16.3400   22.0274 O   0  0  0  0  0  0  0  0  0  0  0  0
  2  1  1  1
  2  8  1  0
  3  2  1  0
  4  3  1  0
  5  4  1  0
  6  7  1  0
  6  5  1  0
  8 10  1  0
  9  8  2  0
 10 11  1  0
 12 14  1  0
 12 11  1  0
 13 12  2  0
 15 16  1  1
 15 14  1  0
 16 17  1  0
 17 18  2  0
 17 21  1  0
 19 15  1  0
 19 22  1  0
 20 19  2  0
M  END
$$$$
