KGD.pdb
     RDKit          3D

 22 21  0  0  1  0  0  0  0  0999 V2000
    7.3699  -16.5084   19.6003 N   0  0  0  0  0  0  0  0  0  0  0  0
    7.8353  -15.6163   20.6697 C   0  0  1  0  0  0  0  0  0  0  0  0
    7.0213  -14.3712   20.5888 C   0  0  0  0  0  0  0  0  0  0  0  0
    7.4482  -13.5073   19.4451 C   0  0  0  0  0  0  0  0  0  0  0  0
    8.7916  -12.8805   19.7650 C   0  0  0  0  0  0  0  0  0  0  0  0
    9.2556  -12.0049   18.5975 C   0  0  0  0  0  0  0  0  0  0  0  0
   10.4943  -11.3864   19.0337 N   0  0  0  0  0  0  0  0  0  0  0  0
    7.6729  -16.2919   21.9755 C   0  0  0  0  0  0  0  0  0  0  0  0
    6.6304  -16.9065   22.3172 O   0  0  0  0  0  0  0  0  0  0  0  0
    8.7759  -16.2397   22.9054 N   0  0  0  0  0  0  0  0  0  0  0  0
    8.5723  -16.7457   24.2467 C   0  0  0  0  0  0  0  0  0  0  0  0
    9.7611  -16.4590   25.0795 C   0  0  0  0  0  0  0  0  0  0  0  0
   10.7864  -15.9780   24.5422 O   0  0  0  0  0  0  0  0  0  0  0  0
    9.7095  -16.7357   26.4628 N   0  0  0  0  0  0  0  0  0  0  0  0
   10.8659  -16.3667   27.2898 C   0  0  1  0  0  0  0  0  0  0  0  0
   10.3646  -15.8175   28.6007 C   0  0  0  0  0  0  0  0  0  0  0  0
    9.7311  -14.5056   28.3907 C   0  0  0  0  0  0  0  0  0  0  0  0
    9.5803  -14.0491   27.2085 O   0  0  0  0  0  0  0  0  0  0  0  0
   11.6101  -17.6516   27.5528 C   0  0  0  0  0  0  0  0  0  0  0  0
   11.1456  -18.7804   27.2927 O   0  0  0  0  0  0  0  0  0  0  0  0
    9.2757  -13.7068   29.4209 O   0  0  0  0  0  0  0  0  0  0  0  0
   12.8790  -17.6215   28.1113 O   0  0  0  0  0  0  0  0  0  0  0  0
  2  1  1  6
  2  8  1  0
  3  2  1  0
  4  3  1  0
  5  4  1  0
  6  7  1  0
  6  5  1  0
  8 10  1  0
  9  8  2  0
 10 11  1  0
 12 14  1  0
 12 11  1  0
 13 12  2  0
 15 16  1  1
 15 14  1  0
 16 17  1  0
 17 18  2  0
 17 21  1  0
 19 15  1  0
 19 22  1  0
 20 19  2  0
M  END
$$$$
