KGD.pdb
     RDKit          3D

 22 21  0  0  1  0  0  0  0  0999 V2000
    7.1226  -18.0283   21.0220 N   0  0  0  0  0  0  0  0  0  0  0  0
    7.8729  -18.0729   19.7606 C   0  0  1  0  0  0  0  0  0  0  0  0
    7.7590  -16.7263   19.1337 C   0  0  0  0  0  0  0  0  0  0  0  0
    8.0357  -15.6351   20.1182 C   0  0  0  0  0  0  0  0  0  0  0  0
    7.8319  -14.2909   19.4465 C   0  0  0  0  0  0  0  0  0  0  0  0
    8.0704  -13.1591   20.4502 C   0  0  0  0  0  0  0  0  0  0  0  0
    7.8678  -11.9255   19.7122 N   0  0  0  0  0  0  0  0  0  0  0  0
    9.2810  -18.4282   20.0414 C   0  0  0  0  0  0  0  0  0  0  0  0
   10.1603  -18.5487   19.1505 O   0  0  0  0  0  0  0  0  0  0  0  0
    9.6615  -18.6473   21.4166 N   0  0  0  0  0  0  0  0  0  0  0  0
   11.0479  -18.9447   21.7102 C   0  0  0  0  0  0  0  0  0  0  0  0
   11.6617  -17.8150   22.4422 C   0  0  0  0  0  0  0  0  0  0  0  0
   11.0321  -16.7362   22.5474 O   0  0  0  0  0  0  0  0  0  0  0  0
   12.9454  -17.9822   23.0054 N   0  0  0  0  0  0  0  0  0  0  0  0
   13.4983  -16.8879   23.8141 C   0  0  1  0  0  0  0  0  0  0  0  0
   14.3322  -17.4809   24.9206 C   0  0  0  0  0  0  0  0  0  0  0  0
   13.4612  -18.0232   25.9758 C   0  0  0  0  0  0  0  0  0  0  0  0
   12.1926  -17.9348   25.8675 O   0  0  0  0  0  0  0  0  0  0  0  0
   14.3991  -16.1080   22.8897 C   0  0  0  0  0  0  0  0  0  0  0  0
   14.9826  -15.0568   23.2242 O   0  0  0  0  0  0  0  0  0  0  0  0
   13.9393  -18.6399   27.1150 O   0  0  0  0  0  0  0  0  0  0  0  0
   14.6170  -16.5475   21.5927 O   0  0  0  0  0  0  0  0  0  0  0  0
  2  1  1  1
  2  8  1  0
  3  2  1  0
  4  3  1  0
  5  4  1  0
  6  7  1  0
  6  5  1  0
  8 10  1  0
  9  8  2  0
 10 11  1  0
 12 14  1  0
 12 11  1  0
 13 12  2  0
 15 16  1  1
 15 14  1  0
 16 17  1  0
 17 18  2  0
 17 21  1  0
 19 15  1  0
 19 22  1  0
 20 19  2  0
M  END
$$$$
