KGD.pdb
     RDKit          3D

 22 21  0  0  1  0  0  0  0  0999 V2000
    9.7522  -14.5937   20.1937 N   0  0  0  0  0  0  0  0  0  0  0  0
    8.7221  -13.6541   20.6546 C   0  0  1  0  0  0  0  0  0  0  0  0
    7.7167  -13.5336   19.5619 C   0  0  0  0  0  0  0  0  0  0  0  0
    8.0715  -14.3918   18.3897 C   0  0  0  0  0  0  0  0  0  0  0  0
    7.9795  -13.5680   17.1198 C   0  0  0  0  0  0  0  0  0  0  0  0
    8.1273  -14.4730   15.8932 C   0  0  0  0  0  0  0  0  0  0  0  0
    7.9887  -13.6028   14.7396 N   0  0  0  0  0  0  0  0  0  0  0  0
    8.1152  -14.1671   21.9022 C   0  0  0  0  0  0  0  0  0  0  0  0
    7.1363  -13.6245   22.4753 O   0  0  0  0  0  0  0  0  0  0  0  0
    8.6822  -15.3575   22.4899 N   0  0  0  0  0  0  0  0  0  0  0  0
    8.1033  -15.8648   23.7163 C   0  0  0  0  0  0  0  0  0  0  0  0
    9.1147  -15.8479   24.7960 C   0  0  0  0  0  0  0  0  0  0  0  0
   10.3314  -15.9016   24.4992 O   0  0  0  0  0  0  0  0  0  0  0  0
    8.6814  -15.7714   26.1374 N   0  0  0  0  0  0  0  0  0  0  0  0
    9.6989  -15.6900   27.1936 C   0  0  1  0  0  0  0  0  0  0  0  0
    9.1058  -14.9727   28.3790 C   0  0  0  0  0  0  0  0  0  0  0  0
   10.1140  -14.8328   29.4422 C   0  0  0  0  0  0  0  0  0  0  0  0
    9.7862  -14.3467   30.5758 O   0  0  0  0  0  0  0  0  0  0  0  0
    9.9986  -17.1147   27.5865 C   0  0  0  0  0  0  0  0  0  0  0  0
    9.1985  -18.0573   27.4164 O   0  0  0  0  0  0  0  0  0  0  0  0
   11.4360  -15.2021   29.2907 O   0  0  0  0  0  0  0  0  0  0  0  0
   11.2147  -17.4368   28.1697 O   0  0  0  0  0  0  0  0  0  0  0  0
  2  1  1  6
  2  8  1  0
  3  2  1  0
  4  3  1  0
  5  4  1  0
  6  7  1  0
  6  5  1  0
  8 10  1  0
  9  8  2  0
 10 11  1  0
 12 14  1  0
 12 11  1  0
 13 12  2  0
 15 16  1  1
 15 14  1  0
 16 17  1  0
 17 18  2  0
 17 21  1  0
 19 15  1  0
 19 22  1  0
 20 19  2  0
M  END
$$$$
