KGD.pdb
     RDKit          3D

 22 21  0  0  1  0  0  0  0  0999 V2000
    7.2681  -16.9844   21.7275 N   0  0  0  0  0  0  0  0  0  0  0  0
    7.1746  -17.1635   20.2731 C   0  0  1  0  0  0  0  0  0  0  0  0
    7.1574  -15.8044   19.6632 C   0  0  0  0  0  0  0  0  0  0  0  0
    8.3351  -14.9910   20.0967 C   0  0  0  0  0  0  0  0  0  0  0  0
    8.3547  -13.6865   19.3238 C   0  0  0  0  0  0  0  0  0  0  0  0
    9.5491  -12.8334   19.7607 C   0  0  0  0  0  0  0  0  0  0  0  0
    9.4734  -11.6142   18.9765 N   0  0  0  0  0  0  0  0  0  0  0  0
    8.3295  -17.9592   19.8031 C   0  0  0  0  0  0  0  0  0  0  0  0
    8.4978  -18.3028   18.6052 O   0  0  0  0  0  0  0  0  0  0  0  0
    9.3154  -18.3608   20.7782 N   0  0  0  0  0  0  0  0  0  0  0  0
   10.4661  -19.1146   20.3262 C   0  0  0  0  0  0  0  0  0  0  0  0
   11.7034  -18.3415   20.5719 C   0  0  0  0  0  0  0  0  0  0  0  0
   12.8134  -18.8537   20.2947 O   0  0  0  0  0  0  0  0  0  0  0  0
   11.6011  -17.0421   21.1141 N   0  0  0  0  0  0  0  0  0  0  0  0
   12.8408  -16.3080   21.4000 C   0  0  1  0  0  0  0  0  0  0  0  0
   12.7436  -14.9387   20.7780 C   0  0  0  0  0  0  0  0  0  0  0  0
   13.3446  -14.9493   19.4344 C   0  0  0  0  0  0  0  0  0  0  0  0
   14.2799  -15.7724   19.1577 O   0  0  0  0  0  0  0  0  0  0  0  0
   12.8939  -16.1591   22.8997 C   0  0  0  0  0  0  0  0  0  0  0  0
   11.9411  -16.4459   23.6529 O   0  0  0  0  0  0  0  0  0  0  0  0
   12.9537  -14.0989   18.4192 O   0  0  0  0  0  0  0  0  0  0  0  0
   14.0422  -15.6822   23.5135 O   0  0  0  0  0  0  0  0  0  0  0  0
  2  1  1  1
  2  8  1  0
  3  2  1  0
  4  3  1  0
  5  4  1  0
  6  7  1  0
  6  5  1  0
  8 10  1  0
  9  8  2  0
 10 11  1  0
 12 14  1  0
 12 11  1  0
 13 12  2  0
 15 16  1  6
 15 14  1  0
 16 17  1  0
 17 18  2  0
 17 21  1  0
 19 15  1  0
 19 22  1  0
 20 19  2  0
M  END
$$$$
