KGD.pdb
     RDKit          3D

 22 21  0  0  1  0  0  0  0  0999 V2000
    6.9981  -15.7607   19.6315 N   0  0  0  0  0  0  0  0  0  0  0  0
    8.3724  -15.3600   19.3048 C   0  0  1  0  0  0  0  0  0  0  0  0
    8.2866  -14.1009   18.5131 C   0  0  0  0  0  0  0  0  0  0  0  0
    7.6416  -14.3290   17.1833 C   0  0  0  0  0  0  0  0  0  0  0  0
    7.6619  -13.0377   16.3886 C   0  0  0  0  0  0  0  0  0  0  0  0
    7.0110  -13.2519   15.0190 C   0  0  0  0  0  0  0  0  0  0  0  0
    8.0319  -13.8607   14.1858 N   0  0  0  0  0  0  0  0  0  0  0  0
    9.1366  -15.1680   20.5566 C   0  0  0  0  0  0  0  0  0  0  0  0
   10.3567  -14.8658   20.5888 O   0  0  0  0  0  0  0  0  0  0  0  0
    8.4374  -15.3380   21.8081 N   0  0  0  0  0  0  0  0  0  0  0  0
    9.1834  -15.1933   23.0406 C   0  0  0  0  0  0  0  0  0  0  0  0
    9.9255  -16.4401   23.3300 C   0  0  0  0  0  0  0  0  0  0  0  0
   10.2741  -17.1821   22.3818 O   0  0  0  0  0  0  0  0  0  0  0  0
   10.2229  -16.7627   24.6719 N   0  0  0  0  0  0  0  0  0  0  0  0
   11.3659  -17.6458   24.9382 C   0  0  1  0  0  0  0  0  0  0  0  0
   12.6266  -16.9479   24.4966 C   0  0  0  0  0  0  0  0  0  0  0  0
   13.6988  -17.9318   24.2756 C   0  0  0  0  0  0  0  0  0  0  0  0
   13.4934  -19.1681   24.5171 O   0  0  0  0  0  0  0  0  0  0  0  0
   11.4071  -17.8249   26.4350 C   0  0  0  0  0  0  0  0  0  0  0  0
   11.9253  -18.8125   26.9949 O   0  0  0  0  0  0  0  0  0  0  0  0
   14.9553  -17.5966   23.8114 O   0  0  0  0  0  0  0  0  0  0  0  0
   10.8517  -16.8656   27.2682 O   0  0  0  0  0  0  0  0  0  0  0  0
  2  1  1  1
  2  8  1  0
  3  2  1  0
  4  3  1  0
  5  4  1  0
  6  7  1  0
  6  5  1  0
  8 10  1  0
  9  8  2  0
 10 11  1  0
 12 14  1  0
 12 11  1  0
 13 12  2  0
 15 16  1  1
 15 14  1  0
 16 17  1  0
 17 18  2  0
 17 21  1  0
 19 15  1  0
 19 22  1  0
 20 19  2  0
M  END
$$$$
