KGD.pdb
     RDKit          3D

 22 21  0  0  1  0  0  0  0  0999 V2000
    9.9582  -13.6704   17.4698 N   0  0  0  0  0  0  0  0  0  0  0  0
    8.8459  -13.4039   18.3907 C   0  0  1  0  0  0  0  0  0  0  0  0
    7.5958  -13.4005   17.5803 C   0  0  0  0  0  0  0  0  0  0  0  0
    7.8609  -13.7744   16.1568 C   0  0  0  0  0  0  0  0  0  0  0  0
    6.5517  -13.7932   15.3917 C   0  0  0  0  0  0  0  0  0  0  0  0
    6.8179  -13.9978   13.8975 C   0  0  0  0  0  0  0  0  0  0  0  0
    5.5147  -13.9917   13.2582 N   0  0  0  0  0  0  0  0  0  0  0  0
    8.8164  -14.4488   19.4372 C   0  0  0  0  0  0  0  0  0  0  0  0
    7.9879  -14.4646   20.3830 O   0  0  0  0  0  0  0  0  0  0  0  0
    9.7956  -15.5070   19.3637 N   0  0  0  0  0  0  0  0  0  0  0  0
    9.6479  -16.6464   20.2448 C   0  0  0  0  0  0  0  0  0  0  0  0
   10.4808  -16.4604   21.4533 C   0  0  0  0  0  0  0  0  0  0  0  0
   11.4347  -15.6478   21.4232 O   0  0  0  0  0  0  0  0  0  0  0  0
   10.1783  -17.2059   22.6133 N   0  0  0  0  0  0  0  0  0  0  0  0
   11.0485  -17.0512   23.7865 C   0  0  1  0  0  0  0  0  0  0  0  0
   10.3964  -17.7314   24.9626 C   0  0  0  0  0  0  0  0  0  0  0  0
   11.2362  -17.5832   26.1624 C   0  0  0  0  0  0  0  0  0  0  0  0
   12.3605  -16.9839   26.0872 O   0  0  0  0  0  0  0  0  0  0  0  0
   12.3258  -17.7788   23.4498 C   0  0  0  0  0  0  0  0  0  0  0  0
   13.3533  -17.7261   24.1560 O   0  0  0  0  0  0  0  0  0  0  0  0
   10.8794  -18.0672   27.4055 O   0  0  0  0  0  0  0  0  0  0  0  0
   12.4044  -18.5576   22.3052 O   0  0  0  0  0  0  0  0  0  0  0  0
  2  1  1  6
  2  8  1  0
  3  2  1  0
  4  3  1  0
  5  4  1  0
  6  7  1  0
  6  5  1  0
  8 10  1  0
  9  8  2  0
 10 11  1  0
 12 14  1  0
 12 11  1  0
 13 12  2  0
 15 16  1  1
 15 14  1  0
 16 17  1  0
 17 18  2  0
 17 21  1  0
 19 15  1  0
 19 22  1  0
 20 19  2  0
M  END
$$$$
