KGD.pdb
     RDKit          3D

 22 21  0  0  1  0  0  0  0  0999 V2000
    8.6019  -16.3288   20.5051 N   0  0  0  0  0  0  0  0  0  0  0  0
    8.5030  -15.0067   21.1363 C   0  0  1  0  0  0  0  0  0  0  0  0
    7.7237  -14.1358   20.2123 C   0  0  0  0  0  0  0  0  0  0  0  0
    8.3314  -14.0990   18.8463 C   0  0  0  0  0  0  0  0  0  0  0  0
    7.5269  -13.1629   17.9653 C   0  0  0  0  0  0  0  0  0  0  0  0
    8.1896  -13.0341   16.5906 C   0  0  0  0  0  0  0  0  0  0  0  0
    7.3204  -12.1716   15.8109 N   0  0  0  0  0  0  0  0  0  0  0  0
    7.8393  -15.1410   22.4513 C   0  0  0  0  0  0  0  0  0  0  0  0
    7.7917  -14.2192   23.3052 O   0  0  0  0  0  0  0  0  0  0  0  0
    7.2126  -16.4027   22.7664 N   0  0  0  0  0  0  0  0  0  0  0  0
    6.4716  -16.5149   24.0053 C   0  0  0  0  0  0  0  0  0  0  0  0
    7.2780  -17.2409   25.0111 C   0  0  0  0  0  0  0  0  0  0  0  0
    6.7160  -17.7046   26.0311 O   0  0  0  0  0  0  0  0  0  0  0  0
    8.6647  -17.3930   24.7948 N   0  0  0  0  0  0  0  0  0  0  0  0
    9.4461  -18.1400   25.7893 C   0  0  1  0  0  0  0  0  0  0  0  0
   10.7238  -18.6104   25.1430 C   0  0  0  0  0  0  0  0  0  0  0  0
   10.4198  -19.4564   23.9776 C   0  0  0  0  0  0  0  0  0  0  0  0
   10.8381  -19.1243   22.8185 O   0  0  0  0  0  0  0  0  0  0  0  0
    9.7853  -17.1491   26.8743 C   0  0  0  0  0  0  0  0  0  0  0  0
    9.5996  -15.9199   26.7649 O   0  0  0  0  0  0  0  0  0  0  0  0
    9.6855  -20.6233   24.0551 O   0  0  0  0  0  0  0  0  0  0  0  0
   10.3334  -17.5850   28.0711 O   0  0  0  0  0  0  0  0  0  0  0  0
  2  1  1  6
  2  8  1  0
  3  2  1  0
  4  3  1  0
  5  4  1  0
  6  7  1  0
  6  5  1  0
  8 10  1  0
  9  8  2  0
 10 11  1  0
 12 14  1  0
 12 11  1  0
 13 12  2  0
 15 16  1  6
 15 14  1  0
 16 17  1  0
 17 18  2  0
 17 21  1  0
 19 15  1  0
 19 22  1  0
 20 19  2  0
M  END
$$$$
