KGD.pdb
     RDKit          3D

 22 21  0  0  1  0  0  0  0  0999 V2000
    8.6407  -15.2614   23.1489 N   0  0  0  0  0  0  0  0  0  0  0  0
    7.6720  -16.0281   22.3552 C   0  0  1  0  0  0  0  0  0  0  0  0
    7.1685  -15.1241   21.2835 C   0  0  0  0  0  0  0  0  0  0  0  0
    8.2864  -14.4007   20.6027 C   0  0  0  0  0  0  0  0  0  0  0  0
    7.7320  -13.6071   19.4354 C   0  0  0  0  0  0  0  0  0  0  0  0
    8.8721  -12.9249   18.6736 C   0  0  0  0  0  0  0  0  0  0  0  0
    8.2448  -12.2146   17.5740 N   0  0  0  0  0  0  0  0  0  0  0  0
    8.3370  -17.2242   21.7940 C   0  0  0  0  0  0  0  0  0  0  0  0
    7.7929  -18.0012   20.9685 O   0  0  0  0  0  0  0  0  0  0  0  0
    9.6859  -17.5106   22.2213 N   0  0  0  0  0  0  0  0  0  0  0  0
   10.7711  -16.7518   21.6357 C   0  0  0  0  0  0  0  0  0  0  0  0
   12.0698  -17.3185   22.0615 C   0  0  0  0  0  0  0  0  0  0  0  0
   13.1267  -16.6969   21.8012 O   0  0  0  0  0  0  0  0  0  0  0  0
   12.0847  -18.5494   22.7527 N   0  0  0  0  0  0  0  0  0  0  0  0
   13.0930  -18.7457   23.8025 C   0  0  1  0  0  0  0  0  0  0  0  0
   12.5125  -19.6420   24.8659 C   0  0  0  0  0  0  0  0  0  0  0  0
   11.7192  -18.8488   25.8188 C   0  0  0  0  0  0  0  0  0  0  0  0
   11.7543  -17.5737   25.7759 O   0  0  0  0  0  0  0  0  0  0  0  0
   14.2439  -19.4593   23.1390 C   0  0  0  0  0  0  0  0  0  0  0  0
   14.1825  -19.9418   21.9897 O   0  0  0  0  0  0  0  0  0  0  0  0
   10.9142  -19.4093   26.7907 O   0  0  0  0  0  0  0  0  0  0  0  0
   15.4504  -19.6084   23.8060 O   0  0  0  0  0  0  0  0  0  0  0  0
  2  1  1  6
  2  8  1  0
  3  2  1  0
  4  3  1  0
  5  4  1  0
  6  7  1  0
  6  5  1  0
  8 10  1  0
  9  8  2  0
 10 11  1  0
 12 14  1  0
 12 11  1  0
 13 12  2  0
 15 16  1  1
 15 14  1  0
 16 17  1  0
 17 18  2  0
 17 21  1  0
 19 15  1  0
 19 22  1  0
 20 19  2  0
M  END
$$$$
