KGD.pdb
     RDKit          3D

 22 21  0  0  1  0  0  0  0  0999 V2000
    9.0398  -16.1516   21.3797 N   0  0  0  0  0  0  0  0  0  0  0  0
    8.1280  -15.0352   21.0996 C   0  0  1  0  0  0  0  0  0  0  0  0
    7.5368  -15.2777   19.7538 C   0  0  0  0  0  0  0  0  0  0  0  0
    8.1668  -16.4544   19.0792 C   0  0  0  0  0  0  0  0  0  0  0  0
    7.3887  -16.7859   17.8205 C   0  0  0  0  0  0  0  0  0  0  0  0
    7.9123  -18.0868   17.2051 C   0  0  0  0  0  0  0  0  0  0  0  0
    7.1903  -18.2535   15.9568 N   0  0  0  0  0  0  0  0  0  0  0  0
    7.0890  -14.9768   22.1508 C   0  0  0  0  0  0  0  0  0  0  0  0
    6.0736  -14.2379   22.0867 O   0  0  0  0  0  0  0  0  0  0  0  0
    7.2551  -15.8171   23.3128 N   0  0  0  0  0  0  0  0  0  0  0  0
    6.2446  -15.7701   24.3488 C   0  0  0  0  0  0  0  0  0  0  0  0
    6.6462  -16.6294   25.4842 C   0  0  0  0  0  0  0  0  0  0  0  0
    5.7886  -16.9649   26.3346 O   0  0  0  0  0  0  0  0  0  0  0  0
    7.9902  -17.0506   25.5806 N   0  0  0  0  0  0  0  0  0  0  0  0
    8.3207  -18.1069   26.5463 C   0  0  1  0  0  0  0  0  0  0  0  0
    7.6325  -19.3790   26.1226 C   0  0  0  0  0  0  0  0  0  0  0  0
    8.0685  -20.4978   26.9739 C   0  0  0  0  0  0  0  0  0  0  0  0
    8.8751  -20.2904   27.9409 O   0  0  0  0  0  0  0  0  0  0  0  0
    9.8125  -18.3035   26.4460 C   0  0  0  0  0  0  0  0  0  0  0  0
   10.4894  -17.9369   25.4638 O   0  0  0  0  0  0  0  0  0  0  0  0
    7.6520  -21.8014   26.7896 O   0  0  0  0  0  0  0  0  0  0  0  0
   10.5062  -18.9190   27.4769 O   0  0  0  0  0  0  0  0  0  0  0  0
  2  1  1  1
  2  8  1  0
  3  2  1  0
  4  3  1  0
  5  4  1  0
  6  7  1  0
  6  5  1  0
  8 10  1  0
  9  8  2  0
 10 11  1  0
 12 14  1  0
 12 11  1  0
 13 12  2  0
 15 16  1  6
 15 14  1  0
 16 17  1  0
 17 18  2  0
 17 21  1  0
 19 15  1  0
 19 22  1  0
 20 19  2  0
M  END
$$$$
