AHQ.pdb
     RDKit          3D

 25 25  0  0  1  0  0  0  0  0999 V2000
   12.3512  -18.1842   13.7771 C   0  0  0  0  0  0  0  0  0  0  0  0
   11.9284  -16.7440   13.5115 C   0  0  2  0  0  0  0  0  0  0  0  0
   12.8585  -16.0595   12.6627 N   0  0  0  0  0  0  0  0  0  0  0  0
   11.7607  -16.0502   14.8291 C   0  0  0  0  0  0  0  0  0  0  0  0
   12.7922  -15.5574   15.3550 O   0  0  0  0  0  0  0  0  0  0  0  0
   10.4923  -15.9568   15.4502 N   0  0  0  0  0  0  0  0  0  0  0  0
   10.3402  -15.1786   16.6600 C   0  0  1  0  0  0  0  0  0  0  0  0
    8.8727  -15.0687   16.9467 C   0  0  0  0  0  0  0  0  0  0  0  0
    8.5480  -14.2063   18.1097 C   0  0  0  0  0  0  0  0  0  0  0  0
    9.3801  -13.5551   18.9936 C   0  0  0  0  0  0  0  0  0  0  0  0
    8.6434  -12.8757   19.9126 N   0  0  0  0  0  0  0  0  0  0  0  0
    7.3637  -13.1012   19.6046 C   0  0  0  0  0  0  0  0  0  0  0  0
    7.2835  -13.9008   18.5212 N   0  0  0  0  0  0  0  0  0  0  0  0
   11.0949  -15.7814   17.7938 C   0  0  0  0  0  0  0  0  0  0  0  0
   11.2999  -17.0110   17.7672 O   0  0  0  0  0  0  0  0  0  0  0  0
   17.2394  -15.1666   18.7225 N   0  0  0  0  0  0  0  0  0  0  0  0
   16.3787  -14.2852   19.3974 C   0  0  0  0  0  0  0  0  0  0  0  0
   16.5772  -13.0569   19.4652 O   0  0  0  0  0  0  0  0  0  0  0  0
   15.1532  -14.8253   20.0780 C   0  0  0  0  0  0  0  0  0  0  0  0
   13.9135  -14.4807   19.3074 C   0  0  0  0  0  0  0  0  0  0  0  0
   12.7713  -15.3984   19.6639 C   0  0  2  0  0  0  0  0  0  0  0  0
   11.5840  -15.0445   18.8827 N   0  0  0  0  0  0  0  0  0  0  0  0
   12.4268  -15.3027   21.0911 C   0  0  0  0  0  0  0  0  0  0  0  0
   11.6388  -14.2125   21.5034 O   0  0  0  0  0  0  0  0  0  0  0  0
   12.7558  -16.0872   21.9977 O   0  0  0  0  0  0  0  0  0  0  0  0
  2  3  1  0
  2  1  1  1
  4  2  1  0
  5  4  2  0
  6  4  1  0
  7  6  1  0
  8  9  1  0
  7  8  1  1
  9 10  2  0
 11 10  1  0
 12 11  1  0
 13 12  2  0
 13  9  1  0
 14  7  1  0
 14 15  2  0
 16 17  1  0
 17 18  2  0
 17 19  1  0
 19 20  1  0
 21 20  1  1
 21 22  1  0
 22 14  1  0
 23 21  1  0
 24 23  1  0
 25 23  2  0
M  END
$$$$
