AHQ.pdb
     RDKit          3D

 25 25  0  0  1  0  0  0  0  0999 V2000
    7.8332  -12.7984   18.5504 C   0  0  0  0  0  0  0  0  0  0  0  0
    8.1306  -14.1704   19.1441 C   0  0  2  0  0  0  0  0  0  0  0  0
    7.0529  -15.0915   18.9336 N   0  0  0  0  0  0  0  0  0  0  0  0
    8.4408  -13.9981   20.5999 C   0  0  0  0  0  0  0  0  0  0  0  0
    9.5139  -13.4103   20.8937 O   0  0  0  0  0  0  0  0  0  0  0  0
    7.5592  -14.4789   21.5974 N   0  0  0  0  0  0  0  0  0  0  0  0
    7.8829  -14.2893   22.9945 C   0  0  1  0  0  0  0  0  0  0  0  0
    6.6002  -14.0283   23.7255 C   0  0  0  0  0  0  0  0  0  0  0  0
    6.7857  -13.5511   25.1182 C   0  0  0  0  0  0  0  0  0  0  0  0
    7.9407  -13.3250   25.8342 C   0  0  0  0  0  0  0  0  0  0  0  0
    7.6352  -12.8908   27.0860 N   0  0  0  0  0  0  0  0  0  0  0  0
    6.3020  -12.8468   27.1501 C   0  0  0  0  0  0  0  0  0  0  0  0
    5.7700  -13.2408   25.9747 N   0  0  0  0  0  0  0  0  0  0  0  0
    8.6209  -15.4595   23.5462 C   0  0  0  0  0  0  0  0  0  0  0  0
    8.1907  -16.5981   23.2758 O   0  0  0  0  0  0  0  0  0  0  0  0
   14.5813  -15.7329   23.1126 N   0  0  0  0  0  0  0  0  0  0  0  0
   14.4199  -16.8558   23.9411 C   0  0  0  0  0  0  0  0  0  0  0  0
   15.3513  -17.6336   24.2241 O   0  0  0  0  0  0  0  0  0  0  0  0
   13.0688  -17.1544   24.5262 C   0  0  0  0  0  0  0  0  0  0  0  0
   12.0647  -16.1176   24.1186 C   0  0  0  0  0  0  0  0  0  0  0  0
   10.6892  -16.4488   24.6405 C   0  0  2  0  0  0  0  0  0  0  0  0
    9.7664  -15.3496   24.3486 N   0  0  0  0  0  0  0  0  0  0  0  0
   10.7010  -16.6637   26.0960 C   0  0  0  0  0  0  0  0  0  0  0  0
   10.8583  -17.9815   26.5628 O   0  0  0  0  0  0  0  0  0  0  0  0
   10.5860  -15.8009   26.9837 O   0  0  0  0  0  0  0  0  0  0  0  0
  2  3  1  0
  2  1  1  1
  4  2  1  0
  5  4  2  0
  6  4  1  0
  7  6  1  0
  8  9  1  0
  7  8  1  1
  9 10  2  0
 11 10  1  0
 12 11  1  0
 13 12  2  0
 13  9  1  0
 14  7  1  0
 14 15  2  0
 16 17  1  0
 17 18  2  0
 17 19  1  0
 19 20  1  0
 21 20  1  1
 21 22  1  0
 22 14  1  0
 23 21  1  0
 24 23  1  0
 25 23  2  0
M  END
$$$$
