AHQ.pdb
     RDKit          3D

 25 25  0  0  1  0  0  0  0  0999 V2000
    8.7500  -21.4254   18.4396 C   0  0  0  0  0  0  0  0  0  0  0  0
    8.3079  -20.2690   17.5504 C   0  0  2  0  0  0  0  0  0  0  0  0
    8.7411  -20.4382   16.1948 N   0  0  0  0  0  0  0  0  0  0  0  0
    8.8213  -18.9929   18.1449 C   0  0  0  0  0  0  0  0  0  0  0  0
   10.0693  -18.8635   18.2392 O   0  0  0  0  0  0  0  0  0  0  0  0
    7.9337  -17.9798   18.5800 N   0  0  0  0  0  0  0  0  0  0  0  0
    8.4611  -16.7344   19.0933 C   0  0  1  0  0  0  0  0  0  0  0  0
    7.4516  -15.6631   18.8082 C   0  0  0  0  0  0  0  0  0  0  0  0
    7.8794  -14.3047   19.2247 C   0  0  0  0  0  0  0  0  0  0  0  0
    7.3632  -13.4664   20.1883 C   0  0  0  0  0  0  0  0  0  0  0  0
    8.0734  -12.3075   20.2265 N   0  0  0  0  0  0  0  0  0  0  0  0
    9.0237  -12.4221   19.2952 C   0  0  0  0  0  0  0  0  0  0  0  0
    8.9249  -13.6183   18.6795 N   0  0  0  0  0  0  0  0  0  0  0  0
    8.7840  -16.8363   20.5437 C   0  0  0  0  0  0  0  0  0  0  0  0
    7.9347  -16.4249   21.3586 O   0  0  0  0  0  0  0  0  0  0  0  0
   13.5243  -14.2597   18.8729 N   0  0  0  0  0  0  0  0  0  0  0  0
   13.7891  -14.5875   20.2129 C   0  0  0  0  0  0  0  0  0  0  0  0
   14.9379  -14.7917   20.6504 O   0  0  0  0  0  0  0  0  0  0  0  0
   12.6493  -14.7034   21.1845 C   0  0  0  0  0  0  0  0  0  0  0  0
   11.5442  -15.5456   20.6198 C   0  0  0  0  0  0  0  0  0  0  0  0
   11.0719  -16.5738   21.6166 C   0  0  2  0  0  0  0  0  0  0  0  0
    9.9847  -17.3669   21.0386 N   0  0  0  0  0  0  0  0  0  0  0  0
   10.5743  -15.9427   22.8490 C   0  0  0  0  0  0  0  0  0  0  0  0
   11.1232  -16.3700   24.0719 O   0  0  0  0  0  0  0  0  0  0  0  0
    9.7070  -15.0569   22.9422 O   0  0  0  0  0  0  0  0  0  0  0  0
  2  3  1  0
  2  1  1  1
  4  2  1  0
  5  4  2  0
  6  4  1  0
  7  6  1  0
  8  9  1  0
  7  8  1  1
  9 10  2  0
 11 10  1  0
 12 11  1  0
 13 12  2  0
 13  9  1  0
 14  7  1  0
 14 15  2  0
 16 17  1  0
 17 18  2  0
 17 19  1  0
 19 20  1  0
 21 20  1  6
 21 22  1  0
 22 14  1  0
 23 21  1  0
 24 23  1  0
 25 23  2  0
M  END
$$$$
