AHQ.pdb
     RDKit          3D

 25 25  0  0  1  0  0  0  0  0999 V2000
   10.7067  -17.3239   17.4939 C   0  0  0  0  0  0  0  0  0  0  0  0
   10.2590  -18.0189   18.7745 C   0  0  2  0  0  0  0  0  0  0  0  0
    9.0199  -18.7179   18.6009 N   0  0  0  0  0  0  0  0  0  0  0  0
   10.1729  -16.9931   19.8634 C   0  0  0  0  0  0  0  0  0  0  0  0
   11.2344  -16.3927   20.1733 O   0  0  0  0  0  0  0  0  0  0  0  0
    8.9455  -16.7162   20.5118 N   0  0  0  0  0  0  0  0  0  0  0  0
    8.8799  -15.6709   21.5096 C   0  0  1  0  0  0  0  0  0  0  0  0
    7.6611  -14.8463   21.2225 C   0  0  0  0  0  0  0  0  0  0  0  0
    7.6755  -14.1915   19.8911 C   0  0  0  0  0  0  0  0  0  0  0  0
    8.0775  -12.9250   19.5274 C   0  0  0  0  0  0  0  0  0  0  0  0
    7.9118  -12.7500   18.1892 N   0  0  0  0  0  0  0  0  0  0  0  0
    7.4109  -13.8968   17.7227 C   0  0  0  0  0  0  0  0  0  0  0  0
    7.2606  -14.7792   18.7319 N   0  0  0  0  0  0  0  0  0  0  0  0
    8.8705  -16.2339   22.8885 C   0  0  0  0  0  0  0  0  0  0  0  0
    7.8307  -16.8015   23.2775 O   0  0  0  0  0  0  0  0  0  0  0  0
   10.0867  -20.9108   22.7530 N   0  0  0  0  0  0  0  0  0  0  0  0
   10.8871  -20.8905   23.9072 C   0  0  0  0  0  0  0  0  0  0  0  0
   11.1945  -21.9179   24.5417 O   0  0  0  0  0  0  0  0  0  0  0  0
   11.4098  -19.5791   24.4210 C   0  0  0  0  0  0  0  0  0  0  0  0
   10.8330  -18.4300   23.6489 C   0  0  0  0  0  0  0  0  0  0  0  0
   10.4735  -17.2817   24.5578 C   0  0  2  0  0  0  0  0  0  0  0  0
    9.9618  -16.1603   23.7670 N   0  0  0  0  0  0  0  0  0  0  0  0
   11.6404  -16.8107   25.3203 C   0  0  0  0  0  0  0  0  0  0  0  0
   11.8909  -17.4066   26.5699 O   0  0  0  0  0  0  0  0  0  0  0  0
   12.4505  -15.9290   24.9857 O   0  0  0  0  0  0  0  0  0  0  0  0
  2  3  1  0
  2  1  1  6
  4  2  1  0
  5  4  2  0
  6  4  1  0
  7  6  1  0
  8  9  1  0
  7  8  1  6
  9 10  2  0
 11 10  1  0
 12 11  1  0
 13 12  2  0
 13  9  1  0
 14  7  1  0
 14 15  2  0
 16 17  1  0
 17 18  2  0
 17 19  1  0
 19 20  1  0
 21 20  1  6
 21 22  1  0
 22 14  1  0
 23 21  1  0
 24 23  1  0
 25 23  2  0
M  END
$$$$
