AHQ.pdb
     RDKit          3D

 25 25  0  0  1  0  0  0  0  0999 V2000
   10.8849  -17.5281   16.4322 C   0  0  0  0  0  0  0  0  0  0  0  0
   10.3804  -18.1643   17.7221 C   0  0  2  0  0  0  0  0  0  0  0  0
    9.1477  -18.8688   17.5268 N   0  0  0  0  0  0  0  0  0  0  0  0
   10.2509  -17.0907   18.7593 C   0  0  0  0  0  0  0  0  0  0  0  0
   11.2819  -16.4199   19.0247 O   0  0  0  0  0  0  0  0  0  0  0  0
    9.0175  -16.8467   19.4093 N   0  0  0  0  0  0  0  0  0  0  0  0
    8.9420  -15.8528   20.4576 C   0  0  1  0  0  0  0  0  0  0  0  0
    7.6377  -15.1297   20.3033 C   0  0  0  0  0  0  0  0  0  0  0  0
    7.5527  -14.2925   19.0811 C   0  0  0  0  0  0  0  0  0  0  0  0
    7.7794  -12.9446   18.9091 C   0  0  0  0  0  0  0  0  0  0  0  0
    7.5797  -12.6010   17.6088 N   0  0  0  0  0  0  0  0  0  0  0  0
    7.2318  -13.7242   16.9757 C   0  0  0  0  0  0  0  0  0  0  0  0
    7.2094  -14.7558   17.8447 N   0  0  0  0  0  0  0  0  0  0  0  0
    9.0912  -16.4698   21.8050 C   0  0  0  0  0  0  0  0  0  0  0  0
    8.1808  -17.2228   22.2035 O   0  0  0  0  0  0  0  0  0  0  0  0
   14.2688  -19.1178   22.7069 N   0  0  0  0  0  0  0  0  0  0  0  0
   13.7639  -19.3340   23.9997 C   0  0  0  0  0  0  0  0  0  0  0  0
   14.3167  -20.0791   24.8316 O   0  0  0  0  0  0  0  0  0  0  0  0
   12.4980  -18.6451   24.4236 C   0  0  0  0  0  0  0  0  0  0  0  0
   11.9763  -17.7586   23.3321 C   0  0  0  0  0  0  0  0  0  0  0  0
   10.6375  -17.1677   23.6961 C   0  0  2  0  0  0  0  0  0  0  0  0
   10.1939  -16.2505   22.6439 N   0  0  0  0  0  0  0  0  0  0  0  0
   10.7037  -16.4181   24.9603 C   0  0  0  0  0  0  0  0  0  0  0  0
   10.6536  -17.1509   26.1603 O   0  0  0  0  0  0  0  0  0  0  0  0
   10.8006  -15.1864   25.0993 O   0  0  0  0  0  0  0  0  0  0  0  0
  2  3  1  0
  2  1  1  6
  4  2  1  0
  5  4  2  0
  6  4  1  0
  7  6  1  0
  8  9  1  0
  7  8  1  1
  9 10  2  0
 11 10  1  0
 12 11  1  0
 13 12  2  0
 13  9  1  0
 14  7  1  0
 14 15  2  0
 16 17  1  0
 17 18  2  0
 17 19  1  0
 19 20  1  0
 21 20  1  6
 21 22  1  0
 22 14  1  0
 23 21  1  0
 24 23  1  0
 25 23  2  0
M  END
$$$$
