AHQ.pdb
     RDKit          3D

 25 25  0  0  1  0  0  0  0  0999 V2000
   10.8332  -19.1256   19.7929 C   0  0  0  0  0  0  0  0  0  0  0  0
   10.3675  -17.7375   19.3693 C   0  0  2  0  0  0  0  0  0  0  0  0
   11.2659  -17.1332   18.4303 N   0  0  0  0  0  0  0  0  0  0  0  0
   10.2003  -16.8992   20.6000 C   0  0  0  0  0  0  0  0  0  0  0  0
   11.2280  -16.3329   21.0542 O   0  0  0  0  0  0  0  0  0  0  0  0
    8.9362  -16.7550   21.2204 N   0  0  0  0  0  0  0  0  0  0  0  0
    8.7809  -15.8408   22.3307 C   0  0  1  0  0  0  0  0  0  0  0  0
    7.3179  -15.5457   22.4735 C   0  0  0  0  0  0  0  0  0  0  0  0
    6.9984  -14.5918   23.5642 C   0  0  0  0  0  0  0  0  0  0  0  0
    7.3747  -13.2776   23.7347 C   0  0  0  0  0  0  0  0  0  0  0  0
    6.8494  -12.7888   24.8897 N   0  0  0  0  0  0  0  0  0  0  0  0
    6.1520  -13.7890   25.4345 C   0  0  0  0  0  0  0  0  0  0  0  0
    6.2285  -14.8850   24.6518 N   0  0  0  0  0  0  0  0  0  0  0  0
    9.3709  -16.3964   23.5803 C   0  0  0  0  0  0  0  0  0  0  0  0
    9.4251  -17.6367   23.6961 O   0  0  0  0  0  0  0  0  0  0  0  0
   10.7044  -13.1877   28.9215 N   0  0  0  0  0  0  0  0  0  0  0  0
   10.9367  -14.5222   29.2933 C   0  0  0  0  0  0  0  0  0  0  0  0
   11.1422  -14.8760   30.4704 O   0  0  0  0  0  0  0  0  0  0  0  0
   10.9426  -15.5928   28.2394 C   0  0  0  0  0  0  0  0  0  0  0  0
   10.4196  -15.0674   26.9356 C   0  0  0  0  0  0  0  0  0  0  0  0
   10.4542  -16.1261   25.8624 C   0  0  2  0  0  0  0  0  0  0  0  0
    9.8654  -15.6041   24.6271 N   0  0  0  0  0  0  0  0  0  0  0  0
    9.6980  -17.3238   26.2606 C   0  0  0  0  0  0  0  0  0  0  0  0
    8.3015  -17.3037   26.0912 O   0  0  0  0  0  0  0  0  0  0  0  0
   10.1551  -18.3759   26.7399 O   0  0  0  0  0  0  0  0  0  0  0  0
  2  3  1  0
  2  1  1  1
  4  2  1  0
  5  4  2  0
  6  4  1  0
  7  6  1  0
  8  9  1  0
  7  8  1  1
  9 10  2  0
 11 10  1  0
 12 11  1  0
 13 12  2  0
 13  9  1  0
 14  7  1  0
 14 15  2  0
 16 17  1  0
 17 18  2  0
 17 19  1  0
 19 20  1  0
 21 20  1  1
 21 22  1  0
 22 14  1  0
 23 21  1  0
 24 23  1  0
 25 23  2  0
M  END
$$$$
