AHQ.pdb
     RDKit          3D

 25 25  0  0  1  0  0  0  0  0999 V2000
   10.9916  -16.1721   18.3116 C   0  0  0  0  0  0  0  0  0  0  0  0
   10.7726  -17.1256   19.4804 C   0  0  2  0  0  0  0  0  0  0  0  0
    9.7115  -18.0543   19.2239 N   0  0  0  0  0  0  0  0  0  0  0  0
   10.5161  -16.3120   20.7123 C   0  0  0  0  0  0  0  0  0  0  0  0
   11.4054  -15.4901   21.0542 O   0  0  0  0  0  0  0  0  0  0  0  0
    9.3213  -16.4667   21.4553 N   0  0  0  0  0  0  0  0  0  0  0  0
    9.1008  -15.6619   22.6369 C   0  0  1  0  0  0  0  0  0  0  0  0
    7.6193  -15.5442   22.8349 C   0  0  0  0  0  0  0  0  0  0  0  0
    7.2290  -14.6453   23.9492 C   0  0  0  0  0  0  0  0  0  0  0  0
    7.8987  -13.5787   24.5075 C   0  0  0  0  0  0  0  0  0  0  0  0
    7.1619  -13.0427   25.5167 N   0  0  0  0  0  0  0  0  0  0  0  0
    6.0429  -13.7683   25.5871 C   0  0  0  0  0  0  0  0  0  0  0  0
    6.0629  -14.7396   24.6512 N   0  0  0  0  0  0  0  0  0  0  0  0
    9.7866  -16.2405   23.8257 C   0  0  0  0  0  0  0  0  0  0  0  0
   10.0292  -17.4636   23.8188 O   0  0  0  0  0  0  0  0  0  0  0  0
   10.9014  -13.1620   29.3032 N   0  0  0  0  0  0  0  0  0  0  0  0
   11.0507  -14.5093   29.6714 C   0  0  0  0  0  0  0  0  0  0  0  0
   11.1868  -14.8820   30.8526 O   0  0  0  0  0  0  0  0  0  0  0  0
   11.0495  -15.5705   28.6081 C   0  0  0  0  0  0  0  0  0  0  0  0
   10.6885  -14.9931   27.2718 C   0  0  0  0  0  0  0  0  0  0  0  0
   10.6679  -16.0549   26.2013 C   0  0  2  0  0  0  0  0  0  0  0  0
   10.1715  -15.4880   24.9454 N   0  0  0  0  0  0  0  0  0  0  0  0
    9.7958  -17.1801   26.5731 C   0  0  0  0  0  0  0  0  0  0  0  0
   10.4090  -18.3637   27.0231 O   0  0  0  0  0  0  0  0  0  0  0  0
    8.5535  -17.2117   26.5366 O   0  0  0  0  0  0  0  0  0  0  0  0
  2  3  1  0
  2  1  1  6
  4  2  1  0
  5  4  2  0
  6  4  1  0
  7  6  1  0
  8  9  1  0
  7  8  1  1
  9 10  2  0
 11 10  1  0
 12 11  1  0
 13 12  2  0
 13  9  1  0
 14  7  1  0
 14 15  2  0
 16 17  1  0
 17 18  2  0
 17 19  1  0
 19 20  1  0
 21 20  1  1
 21 22  1  0
 22 14  1  0
 23 21  1  0
 24 23  1  0
 25 23  2  0
M  END
$$$$
