AHQ.pdb
     RDKit          3D

 25 25  0  0  1  0  0  0  0  0999 V2000
    9.2377  -18.3027   17.1696 C   0  0  0  0  0  0  0  0  0  0  0  0
    9.1621  -18.5452   18.6726 C   0  0  2  0  0  0  0  0  0  0  0  0
    7.8945  -19.0862   19.0658 N   0  0  0  0  0  0  0  0  0  0  0  0
    9.4601  -17.2555   19.3748 C   0  0  0  0  0  0  0  0  0  0  0  0
   10.6165  -16.7791   19.2365 O   0  0  0  0  0  0  0  0  0  0  0  0
    8.4772  -16.6057   20.1592 N   0  0  0  0  0  0  0  0  0  0  0  0
    8.7947  -15.3592   20.8210 C   0  0  1  0  0  0  0  0  0  0  0  0
    7.7098  -14.3798   20.4870 C   0  0  0  0  0  0  0  0  0  0  0  0
    7.6920  -13.9613   19.0635 C   0  0  0  0  0  0  0  0  0  0  0  0
    8.2745  -12.8747   18.4488 C   0  0  0  0  0  0  0  0  0  0  0  0
    7.9924  -12.8853   17.1187 N   0  0  0  0  0  0  0  0  0  0  0  0
    7.2409  -13.9686   16.9059 C   0  0  0  0  0  0  0  0  0  0  0  0
    7.0478  -14.6314   18.0648 N   0  0  0  0  0  0  0  0  0  0  0  0
    8.9546  -15.5477   22.2898 C   0  0  0  0  0  0  0  0  0  0  0  0
    7.9227  -15.7087   22.9709 O   0  0  0  0  0  0  0  0  0  0  0  0
   10.7554  -20.4917   22.6185 N   0  0  0  0  0  0  0  0  0  0  0  0
   10.9624  -20.2858   23.9925 C   0  0  0  0  0  0  0  0  0  0  0  0
   11.1897  -21.2124   24.7940 O   0  0  0  0  0  0  0  0  0  0  0  0
   10.9122  -18.8902   24.5465 C   0  0  0  0  0  0  0  0  0  0  0  0
   10.5226  -17.9039   23.4859 C   0  0  0  0  0  0  0  0  0  0  0  0
   10.5757  -16.4889   24.0045 C   0  0  2  0  0  0  0  0  0  0  0  0
   10.1959  -15.5537   22.9433 N   0  0  0  0  0  0  0  0  0  0  0  0
   11.9264  -16.1336   24.4674 C   0  0  0  0  0  0  0  0  0  0  0  0
   12.2497  -16.3986   25.8107 O   0  0  0  0  0  0  0  0  0  0  0  0
   12.8375  -15.6153   23.7989 O   0  0  0  0  0  0  0  0  0  0  0  0
  2  3  1  0
  2  1  1  6
  4  2  1  0
  5  4  2  0
  6  4  1  0
  7  6  1  0
  8  9  1  0
  7  8  1  1
  9 10  2  0
 11 10  1  0
 12 11  1  0
 13 12  2  0
 13  9  1  0
 14  7  1  0
 14 15  2  0
 16 17  1  0
 17 18  2  0
 17 19  1  0
 19 20  1  0
 21 20  1  6
 21 22  1  0
 22 14  1  0
 23 21  1  0
 24 23  1  0
 25 23  2  0
M  END
$$$$
