AHQ.pdb
     RDKit          3D

 25 25  0  0  1  0  0  0  0  0999 V2000
   11.1083  -14.8181   18.3413 C   0  0  0  0  0  0  0  0  0  0  0  0
   12.0160  -14.8779   17.1183 C   0  0  2  0  0  0  0  0  0  0  0  0
   11.6303  -15.9208   16.2141 N   0  0  0  0  0  0  0  0  0  0  0  0
   13.4300  -15.0407   17.5869 C   0  0  0  0  0  0  0  0  0  0  0  0
   13.8354  -16.2135   17.7957 O   0  0  0  0  0  0  0  0  0  0  0  0
   14.2689  -13.9179   17.7843 N   0  0  0  0  0  0  0  0  0  0  0  0
   15.6410  -14.1103   18.1999 C   0  0  1  0  0  0  0  0  0  0  0  0
   16.4188  -12.9035   17.7679 C   0  0  0  0  0  0  0  0  0  0  0  0
   16.9176  -12.9750   16.3722 C   0  0  0  0  0  0  0  0  0  0  0  0
   16.8247  -13.9901   15.4456 C   0  0  0  0  0  0  0  0  0  0  0  0
   17.4309  -13.6196   14.2863 N   0  0  0  0  0  0  0  0  0  0  0  0
   17.8976  -12.3847   14.4881 C   0  0  0  0  0  0  0  0  0  0  0  0
   17.5991  -11.9770   15.7389 N   0  0  0  0  0  0  0  0  0  0  0  0
   15.7373  -14.3506   19.6666 C   0  0  0  0  0  0  0  0  0  0  0  0
   14.6958  -14.2409   20.3432 O   0  0  0  0  0  0  0  0  0  0  0  0
   15.3623  -19.3719   20.9947 N   0  0  0  0  0  0  0  0  0  0  0  0
   15.9460  -19.0987   22.2429 C   0  0  0  0  0  0  0  0  0  0  0  0
   15.9860  -19.9275   23.1726 O   0  0  0  0  0  0  0  0  0  0  0  0
   16.5580  -17.7498   22.4933 C   0  0  0  0  0  0  0  0  0  0  0  0
   16.3881  -16.8525   21.3036 C   0  0  0  0  0  0  0  0  0  0  0  0
   17.0091  -15.4992   21.5422 C   0  0  2  0  0  0  0  0  0  0  0  0
   16.9294  -14.6914   20.3231 N   0  0  0  0  0  0  0  0  0  0  0  0
   18.4252  -15.6145   21.9243 C   0  0  0  0  0  0  0  0  0  0  0  0
   19.3920  -15.1982   20.9909 O   0  0  0  0  0  0  0  0  0  0  0  0
   18.8810  -16.0457   22.9976 O   0  0  0  0  0  0  0  0  0  0  0  0
  2  3  1  0
  2  1  1  1
  4  2  1  0
  5  4  2  0
  6  4  1  0
  7  6  1  0
  8  9  1  0
  7  8  1  1
  9 10  2  0
 11 10  1  0
 12 11  1  0
 13 12  2  0
 13  9  1  0
 14  7  1  0
 14 15  2  0
 16 17  1  0
 17 18  2  0
 17 19  1  0
 19 20  1  0
 21 20  1  6
 21 22  1  0
 22 14  1  0
 23 21  1  0
 24 23  1  0
 25 23  2  0
M  END
$$$$
