AHQ.pdb
     RDKit          3D

 25 25  0  0  1  0  0  0  0  0999 V2000
   14.5327  -16.4519   19.5599 C   0  0  0  0  0  0  0  0  0  0  0  0
   13.5729  -15.3460   19.1363 C   0  0  2  0  0  0  0  0  0  0  0  0
   14.2671  -14.1648   18.7158 N   0  0  0  0  0  0  0  0  0  0  0  0
   12.6394  -15.0688   20.2752 C   0  0  0  0  0  0  0  0  0  0  0  0
   12.9886  -14.1886   21.1039 O   0  0  0  0  0  0  0  0  0  0  0  0
   11.4178  -15.7713   20.4071 N   0  0  0  0  0  0  0  0  0  0  0  0
   10.4566  -15.3598   21.4067 C   0  0  1  0  0  0  0  0  0  0  0  0
    9.0899  -15.6827   20.8813 C   0  0  0  0  0  0  0  0  0  0  0  0
    8.6013  -14.7358   19.8486 C   0  0  0  0  0  0  0  0  0  0  0  0
    8.5969  -14.8427   18.4751 C   0  0  0  0  0  0  0  0  0  0  0  0
    8.0510  -13.7266   17.9228 N   0  0  0  0  0  0  0  0  0  0  0  0
    7.7181  -12.9310   18.9425 C   0  0  0  0  0  0  0  0  0  0  0  0
    8.0412  -13.5201   20.1122 N   0  0  0  0  0  0  0  0  0  0  0  0
   10.7256  -16.0080   22.7204 C   0  0  0  0  0  0  0  0  0  0  0  0
   11.3253  -17.1012   22.7172 O   0  0  0  0  0  0  0  0  0  0  0  0
    9.2312  -13.6689   28.4748 N   0  0  0  0  0  0  0  0  0  0  0  0
   10.0857  -14.7351   28.8009 C   0  0  0  0  0  0  0  0  0  0  0  0
   10.4375  -14.9942   29.9679 O   0  0  0  0  0  0  0  0  0  0  0  0
   10.6139  -15.6198   27.7077 C   0  0  0  0  0  0  0  0  0  0  0  0
   10.1958  -15.1161   26.3583 C   0  0  0  0  0  0  0  0  0  0  0  0
   10.6518  -16.0428   25.2597 C   0  0  2  0  0  0  0  0  0  0  0  0
   10.3429  -15.4580   23.9529 N   0  0  0  0  0  0  0  0  0  0  0  0
    9.9853  -17.3517   25.3456 C   0  0  0  0  0  0  0  0  0  0  0  0
   10.6595  -18.3876   26.0178 O   0  0  0  0  0  0  0  0  0  0  0  0
    8.8724  -17.6598   24.8851 O   0  0  0  0  0  0  0  0  0  0  0  0
  2  3  1  0
  2  1  1  1
  4  2  1  0
  5  4  2  0
  6  4  1  0
  7  6  1  0
  8  9  1  0
  7  8  1  6
  9 10  2  0
 11 10  1  0
 12 11  1  0
 13 12  2  0
 13  9  1  0
 14  7  1  0
 14 15  2  0
 16 17  1  0
 17 18  2  0
 17 19  1  0
 19 20  1  0
 21 20  1  1
 21 22  1  0
 22 14  1  0
 23 21  1  0
 24 23  1  0
 25 23  2  0
M  END
$$$$
