AHQ.pdb
     RDKit          3D

 25 25  0  0  1  0  0  0  0  0999 V2000
    8.5437  -12.2318   19.2432 C   0  0  0  0  0  0  0  0  0  0  0  0
    8.5935  -13.6925   18.8102 C   0  0  2  0  0  0  0  0  0  0  0  0
    7.6424  -13.9786   17.7769 N   0  0  0  0  0  0  0  0  0  0  0  0
    8.3788  -14.5512   20.0192 C   0  0  0  0  0  0  0  0  0  0  0  0
    7.1892  -14.8114   20.3361 O   0  0  0  0  0  0  0  0  0  0  0  0
    9.4730  -15.0456   20.7687 N   0  0  0  0  0  0  0  0  0  0  0  0
    9.2482  -16.0300   21.8045 C   0  0  1  0  0  0  0  0  0  0  0  0
   10.1535  -17.1929   21.5287 C   0  0  0  0  0  0  0  0  0  0  0  0
    9.5696  -18.2097   20.6194 C   0  0  0  0  0  0  0  0  0  0  0  0
    8.3391  -18.2478   20.0011 C   0  0  0  0  0  0  0  0  0  0  0  0
    8.2280  -19.3785   19.2541 N   0  0  0  0  0  0  0  0  0  0  0  0
    9.3785  -20.0394   19.4051 C   0  0  0  0  0  0  0  0  0  0  0  0
   10.2014  -19.3526   20.2242 N   0  0  0  0  0  0  0  0  0  0  0  0
    9.4649  -15.4531   23.1605 C   0  0  0  0  0  0  0  0  0  0  0  0
   10.5398  -14.8585   23.3742 O   0  0  0  0  0  0  0  0  0  0  0  0
    5.1177  -13.0527   26.6992 N   0  0  0  0  0  0  0  0  0  0  0  0
    6.3055  -12.3167   26.8429 C   0  0  0  0  0  0  0  0  0  0  0  0
    6.3347  -11.1462   27.2692 O   0  0  0  0  0  0  0  0  0  0  0  0
    7.6165  -12.9494   26.4716 C   0  0  0  0  0  0  0  0  0  0  0  0
    7.4220  -14.3676   26.0240 C   0  0  0  0  0  0  0  0  0  0  0  0
    8.7151  -14.9739   25.5401 C   0  0  2  0  0  0  0  0  0  0  0  0
    8.5304  -15.5423   24.2029 N   0  0  0  0  0  0  0  0  0  0  0  0
    9.1769  -16.0468   26.4348 C   0  0  0  0  0  0  0  0  0  0  0  0
    8.9989  -17.3763   26.0103 O   0  0  0  0  0  0  0  0  0  0  0  0
    9.7178  -15.9171   27.5467 O   0  0  0  0  0  0  0  0  0  0  0  0
  2  3  1  0
  2  1  1  1
  4  2  1  0
  5  4  2  0
  6  4  1  0
  7  6  1  0
  8  9  1  0
  7  8  1  6
  9 10  2  0
 11 10  1  0
 12 11  1  0
 13 12  2  0
 13  9  1  0
 14  7  1  0
 14 15  2  0
 16 17  1  0
 17 18  2  0
 17 19  1  0
 19 20  1  0
 21 20  1  1
 21 22  1  0
 22 14  1  0
 23 21  1  0
 24 23  1  0
 25 23  2  0
M  END
$$$$
