AHQ.pdb
     RDKit          3D

 25 25  0  0  1  0  0  0  0  0999 V2000
    6.8865  -13.7275   19.2628 C   0  0  0  0  0  0  0  0  0  0  0  0
    8.2930  -13.2003   19.0035 C   0  0  2  0  0  0  0  0  0  0  0  0
    8.4415  -12.7016   17.6681 N   0  0  0  0  0  0  0  0  0  0  0  0
    9.2707  -14.2960   19.3016 C   0  0  0  0  0  0  0  0  0  0  0  0
    9.0832  -14.9643   20.3512 O   0  0  0  0  0  0  0  0  0  0  0  0
   10.3572  -14.5626   18.4346 N   0  0  0  0  0  0  0  0  0  0  0  0
   11.2225  -15.6926   18.6933 C   0  0  1  0  0  0  0  0  0  0  0  0
   12.0034  -15.9612   17.4419 C   0  0  0  0  0  0  0  0  0  0  0  0
   11.2663  -16.7575   16.4299 C   0  0  0  0  0  0  0  0  0  0  0  0
   10.1864  -17.6003   16.5759 C   0  0  0  0  0  0  0  0  0  0  0  0
    9.8385  -18.1249   15.3706 N   0  0  0  0  0  0  0  0  0  0  0  0
   10.6937  -17.6139   14.4812 C   0  0  0  0  0  0  0  0  0  0  0  0
   11.5627  -16.7872   15.0984 N   0  0  0  0  0  0  0  0  0  0  0  0
   12.1036  -15.4460   19.8685 C   0  0  0  0  0  0  0  0  0  0  0  0
   12.6529  -14.3304   19.9592 O   0  0  0  0  0  0  0  0  0  0  0  0
   10.5441  -17.6825   25.3396 N   0  0  0  0  0  0  0  0  0  0  0  0
   11.7838  -17.1244   25.6930 C   0  0  0  0  0  0  0  0  0  0  0  0
   12.2072  -17.0911   26.8645 O   0  0  0  0  0  0  0  0  0  0  0  0
   12.6594  -16.5330   24.6251 C   0  0  0  0  0  0  0  0  0  0  0  0
   12.0554  -16.7258   23.2659 C   0  0  0  0  0  0  0  0  0  0  0  0
   12.9028  -16.0908   22.1923 C   0  0  2  0  0  0  0  0  0  0  0  0
   12.3468  -16.3957   20.8720 N   0  0  0  0  0  0  0  0  0  0  0  0
   14.2872  -16.5871   22.2328 C   0  0  0  0  0  0  0  0  0  0  0  0
   15.2617  -15.7636   22.8259 O   0  0  0  0  0  0  0  0  0  0  0  0
   14.7097  -17.6717   21.7960 O   0  0  0  0  0  0  0  0  0  0  0  0
  2  3  1  0
  2  1  1  6
  4  2  1  0
  5  4  2  0
  6  4  1  0
  7  6  1  0
  8  9  1  0
  7  8  1  6
  9 10  2  0
 11 10  1  0
 12 11  1  0
 13 12  2  0
 13  9  1  0
 14  7  1  0
 14 15  2  0
 16 17  1  0
 17 18  2  0
 17 19  1  0
 19 20  1  0
 21 20  1  1
 21 22  1  0
 22 14  1  0
 23 21  1  0
 24 23  1  0
 25 23  2  0
M  END
$$$$
