AHQ.pdb
     RDKit          3D

 25 25  0  0  1  0  0  0  0  0999 V2000
    9.4341  -18.3130   18.3797 C   0  0  0  0  0  0  0  0  0  0  0  0
    8.9796  -18.4369   19.8293 C   0  0  2  0  0  0  0  0  0  0  0  0
    7.6111  -18.8511   19.9292 N   0  0  0  0  0  0  0  0  0  0  0  0
    9.2164  -17.1245   20.5125 C   0  0  0  0  0  0  0  0  0  0  0  0
   10.3808  -16.6503   20.4595 O   0  0  0  0  0  0  0  0  0  0  0  0
    8.1697  -16.4519   21.1874 N   0  0  0  0  0  0  0  0  0  0  0  0
    8.4084  -15.1470   21.7641 C   0  0  1  0  0  0  0  0  0  0  0  0
    7.3297  -14.2296   21.2715 C   0  0  0  0  0  0  0  0  0  0  0  0
    7.3756  -13.9739   19.8106 C   0  0  0  0  0  0  0  0  0  0  0  0
    7.7985  -12.8624   19.1153 C   0  0  0  0  0  0  0  0  0  0  0  0
    7.6590  -13.0682   17.7785 N   0  0  0  0  0  0  0  0  0  0  0  0
    7.1537  -14.2968   17.6414 C   0  0  0  0  0  0  0  0  0  0  0  0
    6.9752  -14.8604   18.8539 N   0  0  0  0  0  0  0  0  0  0  0  0
    8.4622  -15.2103   23.2512 C   0  0  0  0  0  0  0  0  0  0  0  0
    7.3939  -15.0678   23.8781 O   0  0  0  0  0  0  0  0  0  0  0  0
    6.5760  -19.6558   25.3580 N   0  0  0  0  0  0  0  0  0  0  0  0
    7.4498  -18.9965   26.2383 C   0  0  0  0  0  0  0  0  0  0  0  0
    7.9416  -19.5409   27.2455 O   0  0  0  0  0  0  0  0  0  0  0  0
    7.8244  -17.5658   25.9742 C   0  0  0  0  0  0  0  0  0  0  0  0
    9.0695  -17.4802   25.1425 C   0  0  0  0  0  0  0  0  0  0  0  0
    9.7184  -16.1242   25.2615 C   0  0  2  0  0  0  0  0  0  0  0  0
    9.6428  -15.4203   23.9793 N   0  0  0  0  0  0  0  0  0  0  0  0
   11.1355  -16.2350   25.6412 C   0  0  0  0  0  0  0  0  0  0  0  0
   11.4444  -16.2879   27.0127 O   0  0  0  0  0  0  0  0  0  0  0  0
   12.1158  -16.2887   24.8783 O   0  0  0  0  0  0  0  0  0  0  0  0
  2  3  1  0
  2  1  1  6
  4  2  1  0
  5  4  2  0
  6  4  1  0
  7  6  1  0
  8  9  1  0
  7  8  1  1
  9 10  2  0
 11 10  1  0
 12 11  1  0
 13 12  2  0
 13  9  1  0
 14  7  1  0
 14 15  2  0
 16 17  1  0
 17 18  2  0
 17 19  1  0
 19 20  1  0
 21 20  1  6
 21 22  1  0
 22 14  1  0
 23 21  1  0
 24 23  1  0
 25 23  2  0
M  END
$$$$
