AHQ.pdb
     RDKit          3D

 25 25  0  0  1  0  0  0  0  0999 V2000
    7.4342  -12.7771   19.3035 C   0  0  0  0  0  0  0  0  0  0  0  0
    8.8414  -13.1324   19.7692 C   0  0  2  0  0  0  0  0  0  0  0  0
    9.7043  -13.4563   18.6716 N   0  0  0  0  0  0  0  0  0  0  0  0
    8.7433  -14.2585   20.7528 C   0  0  0  0  0  0  0  0  0  0  0  0
    7.9071  -14.1368   21.6851 O   0  0  0  0  0  0  0  0  0  0  0  0
    9.5603  -15.4081   20.6321 N   0  0  0  0  0  0  0  0  0  0  0  0
    9.4017  -16.5033   21.5638 C   0  0  1  0  0  0  0  0  0  0  0  0
    9.7577  -17.7679   20.8414 C   0  0  0  0  0  0  0  0  0  0  0  0
    8.6590  -18.3171   20.0089 C   0  0  0  0  0  0  0  0  0  0  0  0
    7.3811  -17.8467   19.8003 C   0  0  0  0  0  0  0  0  0  0  0  0
    6.7110  -18.6768   18.9572 N   0  0  0  0  0  0  0  0  0  0  0  0
    7.5632  -19.6559   18.6431 C   0  0  0  0  0  0  0  0  0  0  0  0
    8.7432  -19.4584   19.2662 N   0  0  0  0  0  0  0  0  0  0  0  0
   10.2246  -16.3000   22.7884 C   0  0  0  0  0  0  0  0  0  0  0  0
   11.3988  -15.9072   22.6411 O   0  0  0  0  0  0  0  0  0  0  0  0
    8.5193  -13.6254   27.9497 N   0  0  0  0  0  0  0  0  0  0  0  0
    9.7731  -14.1068   28.3612 C   0  0  0  0  0  0  0  0  0  0  0  0
   10.2935  -13.8071   29.4530 O   0  0  0  0  0  0  0  0  0  0  0  0
   10.5431  -15.0289   27.4591 C   0  0  0  0  0  0  0  0  0  0  0  0
    9.7765  -15.3167   26.2026 C   0  0  0  0  0  0  0  0  0  0  0  0
   10.5219  -16.2780   25.3114 C   0  0  2  0  0  0  0  0  0  0  0  0
    9.7524  -16.5255   24.0900 N   0  0  0  0  0  0  0  0  0  0  0  0
   10.7491  -17.5688   25.9799 C   0  0  0  0  0  0  0  0  0  0  0  0
   11.8967  -17.6976   26.7837 O   0  0  0  0  0  0  0  0  0  0  0  0
   10.0328  -18.5831   25.9187 O   0  0  0  0  0  0  0  0  0  0  0  0
  2  3  1  0
  2  1  1  6
  4  2  1  0
  5  4  2  0
  6  4  1  0
  7  6  1  0
  8  9  1  0
  7  8  1  6
  9 10  2  0
 11 10  1  0
 12 11  1  0
 13 12  2  0
 13  9  1  0
 14  7  1  0
 14 15  2  0
 16 17  1  0
 17 18  2  0
 17 19  1  0
 19 20  1  0
 21 20  1  1
 21 22  1  0
 22 14  1  0
 23 21  1  0
 24 23  1  0
 25 23  2  0
M  END
$$$$
