DMM.pdb
     RDKit          3D

 25 24  0  0  1  0  0  0  0  0999 V2000
    6.9921  -18.9867   21.1192 N   0  0  0  0  0  0  0  0  0  0  0  0
    7.3752  -18.7286   22.4722 C   0  0  1  0  0  0  0  0  0  0  0  0
    8.3013  -19.7954   22.9831 C   0  0  0  0  0  0  0  0  0  0  0  0
    7.7546  -21.1593   22.7707 C   0  0  0  0  0  0  0  0  0  0  0  0
    6.6873  -21.3100   22.1360 O   0  0  0  0  0  0  0  0  0  0  0  0
    8.0125  -17.3993   22.6500 C   0  0  0  0  0  0  0  0  0  0  0  0
    9.0556  -17.1164   22.0006 O   0  0  0  0  0  0  0  0  0  0  0  0
    8.4254  -22.2515   23.2737 O   0  0  0  0  0  0  0  0  0  0  0  0
    7.0596  -11.4205   25.8882 C   0  0  0  0  0  0  0  0  0  0  0  0
    6.1257  -12.8823   26.3613 S   0  0  0  0  0  0  0  0  0  0  0  0
    6.7181  -14.3753   25.4945 C   0  0  0  0  0  0  0  0  0  0  0  0
    7.1169  -14.0571   24.0814 C   0  0  0  0  0  0  0  0  0  0  0  0
    8.1296  -15.0635   23.6052 C   0  0  2  0  0  0  0  0  0  0  0  0
    7.5168  -16.3949   23.5244 N   0  0  0  0  0  0  0  0  0  0  0  0
    9.3563  -15.1385   24.4602 C   0  0  0  0  0  0  0  0  0  0  0  0
   10.0719  -14.1323   24.6991 O   0  0  0  0  0  0  0  0  0  0  0  0
   10.4126  -14.6656   30.3870 C   0  0  0  0  0  0  0  0  0  0  0  0
    9.3642  -13.9942   29.0531 S   0  0  0  0  0  0  0  0  0  0  0  0
   10.0514  -14.4522   27.4607 C   0  0  0  0  0  0  0  0  0  0  0  0
   10.4662  -15.8686   27.3112 C   0  0  0  0  0  0  0  0  0  0  0  0
   10.9429  -16.3505   25.9869 C   0  0  2  0  0  0  0  0  0  0  0  0
    9.7789  -16.3486   25.0481 N   0  0  0  0  0  0  0  0  0  0  0  0
   11.5516  -17.6674   25.9941 C   0  0  0  0  0  0  0  0  0  0  0  0
   12.6177  -17.9622   26.5528 O   0  0  0  0  0  0  0  0  0  0  0  0
   10.9291  -18.7611   25.3241 O   0  0  0  0  0  0  0  0  0  0  0  0
  2  1  1  6
  3  2  1  0
  3  4  1  0
  4  8  1  0
  5  4  2  0
  6  7  2  0
  6  2  1  0
  9 10  1  0
 10 11  1  0
 11 12  1  0
 13 12  1  1
 13 14  1  0
 14  6  1  0
 15 13  1  0
 16 15  2  0
 18 17  1  0
 19 18  1  0
 21 20  1  1
 20 19  1  0
 21 22  1  0
 22 15  1  0
 23 25  1  0
 23 21  1  0
 24 23  2  0
M  END
$$$$
