DMM.pdb
     RDKit          3D

 25 24  0  0  1  0  0  0  0  0999 V2000
    9.7480  -18.3730   19.0623 N   0  0  0  0  0  0  0  0  0  0  0  0
   10.8010  -17.6070   19.6524 C   0  0  1  0  0  0  0  0  0  0  0  0
   11.6088  -16.9012   18.6008 C   0  0  0  0  0  0  0  0  0  0  0  0
   11.9448  -17.7923   17.4618 C   0  0  0  0  0  0  0  0  0  0  0  0
   11.9353  -17.3412   16.2951 O   0  0  0  0  0  0  0  0  0  0  0  0
   10.3106  -16.6150   20.6425 C   0  0  0  0  0  0  0  0  0  0  0  0
   11.1226  -15.8079   21.1707 O   0  0  0  0  0  0  0  0  0  0  0  0
   12.2650  -19.1108   17.6956 O   0  0  0  0  0  0  0  0  0  0  0  0
    8.0634  -12.1560   18.7811 C   0  0  0  0  0  0  0  0  0  0  0  0
    8.1628  -12.9721   20.3802 S   0  0  0  0  0  0  0  0  0  0  0  0
    7.0937  -14.4495   20.4551 C   0  0  0  0  0  0  0  0  0  0  0  0
    7.1363  -15.0787   21.8187 C   0  0  0  0  0  0  0  0  0  0  0  0
    8.5285  -15.5758   22.1007 C   0  0  2  0  0  0  0  0  0  0  0  0
    8.9532  -16.5074   21.0487 N   0  0  0  0  0  0  0  0  0  0  0  0
    8.6750  -16.2408   23.4340 C   0  0  0  0  0  0  0  0  0  0  0  0
    7.8081  -17.0289   23.8913 O   0  0  0  0  0  0  0  0  0  0  0  0
    6.4818  -11.3935   27.8203 C   0  0  0  0  0  0  0  0  0  0  0  0
    6.7738  -12.3637   26.3028 S   0  0  0  0  0  0  0  0  0  0  0  0
    8.0889  -13.5491   26.5914 C   0  0  0  0  0  0  0  0  0  0  0  0
    8.5979  -14.2642   25.3957 C   0  0  0  0  0  0  0  0  0  0  0  0
    9.6352  -15.3171   25.5652 C   0  0  2  0  0  0  0  0  0  0  0  0
    9.7999  -16.0188   24.2550 N   0  0  0  0  0  0  0  0  0  0  0  0
    9.3567  -16.2939   26.6012 C   0  0  0  0  0  0  0  0  0  0  0  0
    9.3507  -16.0662   27.8193 O   0  0  0  0  0  0  0  0  0  0  0  0
    9.0573  -17.6466   26.2652 O   0  0  0  0  0  0  0  0  0  0  0  0
  2  1  1  6
  3  2  1  0
  3  4  1  0
  4  8  1  0
  5  4  2  0
  6  7  2  0
  6  2  1  0
  9 10  1  0
 10 11  1  0
 11 12  1  0
 13 12  1  6
 13 14  1  0
 14  6  1  0
 15 13  1  0
 16 15  2  0
 18 17  1  0
 19 18  1  0
 21 20  1  6
 20 19  1  0
 21 22  1  0
 22 15  1  0
 23 25  1  0
 23 21  1  0
 24 23  2  0
M  END
$$$$
