DMM.pdb
     RDKit          3D

 25 24  0  0  1  0  0  0  0  0999 V2000
   10.3369  -16.5992   18.7477 N   0  0  0  0  0  0  0  0  0  0  0  0
   10.4496  -17.3946   19.9304 C   0  0  1  0  0  0  0  0  0  0  0  0
   11.8288  -17.9755   20.0600 C   0  0  0  0  0  0  0  0  0  0  0  0
   12.2158  -18.7695   18.8667 C   0  0  0  0  0  0  0  0  0  0  0  0
   11.7359  -19.9122   18.6973 O   0  0  0  0  0  0  0  0  0  0  0  0
   10.1151  -16.6439   21.1671 C   0  0  0  0  0  0  0  0  0  0  0  0
   10.8179  -15.6526   21.5036 O   0  0  0  0  0  0  0  0  0  0  0  0
   13.1011  -18.2439   17.9525 O   0  0  0  0  0  0  0  0  0  0  0  0
    6.9425  -12.3998   25.3641 C   0  0  0  0  0  0  0  0  0  0  0  0
    6.8105  -14.1906   25.2710 S   0  0  0  0  0  0  0  0  0  0  0  0
    6.6731  -14.7715   23.5462 C   0  0  0  0  0  0  0  0  0  0  0  0
    7.1888  -16.1756   23.4062 C   0  0  0  0  0  0  0  0  0  0  0  0
    8.6769  -16.1457   23.1834 C   0  0  2  0  0  0  0  0  0  0  0  0
    9.0289  -16.9721   22.0224 N   0  0  0  0  0  0  0  0  0  0  0  0
    9.4751  -16.5963   24.3671 C   0  0  0  0  0  0  0  0  0  0  0  0
   10.0430  -17.7178   24.4078 O   0  0  0  0  0  0  0  0  0  0  0  0
    9.9425  -12.8281   29.6313 C   0  0  0  0  0  0  0  0  0  0  0  0
   11.1839  -14.0685   30.1310 S   0  0  0  0  0  0  0  0  0  0  0  0
   11.1512  -15.4470   28.9837 C   0  0  0  0  0  0  0  0  0  0  0  0
   10.5703  -15.1708   27.6470 C   0  0  0  0  0  0  0  0  0  0  0  0
   10.4295  -16.2850   26.6713 C   0  0  2  0  0  0  0  0  0  0  0  0
    9.6352  -15.7831   25.5080 N   0  0  0  0  0  0  0  0  0  0  0  0
    9.8071  -17.4864   27.1950 C   0  0  0  0  0  0  0  0  0  0  0  0
    8.5875  -17.7005   27.2426 O   0  0  0  0  0  0  0  0  0  0  0  0
   10.6008  -18.5507   27.7143 O   0  0  0  0  0  0  0  0  0  0  0  0
  2  1  1  6
  3  2  1  0
  3  4  1  0
  4  8  1  0
  5  4  2  0
  6  7  2  0
  6  2  1  0
  9 10  1  0
 10 11  1  0
 11 12  1  0
 13 12  1  1
 13 14  1  0
 14  6  1  0
 15 13  1  0
 16 15  2  0
 18 17  1  0
 19 18  1  0
 21 20  1  1
 20 19  1  0
 21 22  1  0
 22 15  1  0
 23 25  1  0
 23 21  1  0
 24 23  2  0
M  END
$$$$
