DMM.pdb
     RDKit          3D

 25 24  0  0  1  0  0  0  0  0999 V2000
    8.1690  -18.1235   20.8064 N   0  0  0  0  0  0  0  0  0  0  0  0
    9.5454  -17.7370   20.8067 C   0  0  1  0  0  0  0  0  0  0  0  0
   10.0126  -17.4054   19.4180 C   0  0  0  0  0  0  0  0  0  0  0  0
    9.6533  -18.4627   18.4396 C   0  0  0  0  0  0  0  0  0  0  0  0
   10.2929  -19.5376   18.4221 O   0  0  0  0  0  0  0  0  0  0  0  0
    9.8240  -16.5883   21.7055 C   0  0  0  0  0  0  0  0  0  0  0  0
   10.9689  -16.0601   21.7052 O   0  0  0  0  0  0  0  0  0  0  0  0
    8.6178  -18.2546   17.5563 O   0  0  0  0  0  0  0  0  0  0  0  0
    5.8312  -13.0824   26.3289 C   0  0  0  0  0  0  0  0  0  0  0  0
    6.7567  -12.0578   25.1771 S   0  0  0  0  0  0  0  0  0  0  0  0
    8.2612  -12.9001   24.5784 C   0  0  0  0  0  0  0  0  0  0  0  0
    7.9165  -14.1646   23.8439 C   0  0  0  0  0  0  0  0  0  0  0  0
    9.1812  -14.8801   23.4521 C   0  0  2  0  0  0  0  0  0  0  0  0
    8.8653  -16.0261   22.5909 N   0  0  0  0  0  0  0  0  0  0  0  0
    9.9956  -15.3509   24.6169 C   0  0  0  0  0  0  0  0  0  0  0  0
   10.4524  -14.5600   25.4816 O   0  0  0  0  0  0  0  0  0  0  0  0
   10.4525  -13.1704   29.1318 C   0  0  0  0  0  0  0  0  0  0  0  0
   10.8945  -14.8598   28.6025 S   0  0  0  0  0  0  0  0  0  0  0  0
    9.5385  -15.5704   27.6678 C   0  0  0  0  0  0  0  0  0  0  0  0
    9.7514  -16.9439   27.1493 C   0  0  0  0  0  0  0  0  0  0  0  0
   10.8122  -17.1811   26.1337 C   0  0  2  0  0  0  0  0  0  0  0  0
   10.2968  -16.7150   24.8095 N   0  0  0  0  0  0  0  0  0  0  0  0
   11.2568  -18.5573   26.0183 C   0  0  0  0  0  0  0  0  0  0  0  0
   10.9634  -19.3314   25.0961 O   0  0  0  0  0  0  0  0  0  0  0  0
   12.1026  -19.1349   27.0099 O   0  0  0  0  0  0  0  0  0  0  0  0
  2  1  1  6
  3  2  1  0
  3  4  1  0
  4  8  1  0
  5  4  2  0
  6  7  2  0
  6  2  1  0
  9 10  1  0
 10 11  1  0
 11 12  1  0
 13 12  1  1
 13 14  1  0
 14  6  1  0
 15 13  1  0
 16 15  2  0
 18 17  1  0
 19 18  1  0
 21 20  1  1
 20 19  1  0
 21 22  1  0
 22 15  1  0
 23 25  1  0
 23 21  1  0
 24 23  2  0
M  END
$$$$
