DMM.pdb
     RDKit          3D

 25 24  0  0  1  0  0  0  0  0999 V2000
   10.2455  -19.0913   19.6897 N   0  0  0  0  0  0  0  0  0  0  0  0
   11.3697  -18.2404   19.9267 C   0  0  1  0  0  0  0  0  0  0  0  0
   12.1258  -17.9793   18.6552 C   0  0  0  0  0  0  0  0  0  0  0  0
   11.2219  -17.6478   17.5249 C   0  0  0  0  0  0  0  0  0  0  0  0
   11.6594  -17.0017   16.5472 O   0  0  0  0  0  0  0  0  0  0  0  0
   10.9946  -16.9455   20.5493 C   0  0  0  0  0  0  0  0  0  0  0  0
   11.8879  -16.0902   20.7948 O   0  0  0  0  0  0  0  0  0  0  0  0
    9.9065  -18.0533   17.5588 O   0  0  0  0  0  0  0  0  0  0  0  0
    6.7970  -11.9000   19.5336 C   0  0  0  0  0  0  0  0  0  0  0  0
    7.0275  -13.5687   18.9050 S   0  0  0  0  0  0  0  0  0  0  0  0
    8.4573  -14.3947   19.6826 C   0  0  0  0  0  0  0  0  0  0  0  0
    8.2031  -14.6566   21.1400 C   0  0  0  0  0  0  0  0  0  0  0  0
    9.3631  -15.4166   21.7248 C   0  0  2  0  0  0  0  0  0  0  0  0
    9.6634  -16.5917   20.8980 N   0  0  0  0  0  0  0  0  0  0  0  0
    9.1476  -15.8541   23.1403 C   0  0  0  0  0  0  0  0  0  0  0  0
    9.7284  -16.8563   23.6302 O   0  0  0  0  0  0  0  0  0  0  0  0
    6.3570  -11.2924   26.6613 C   0  0  0  0  0  0  0  0  0  0  0  0
    7.0363  -12.2174   28.0798 S   0  0  0  0  0  0  0  0  0  0  0  0
    7.9611  -13.6348   27.4853 C   0  0  0  0  0  0  0  0  0  0  0  0
    7.8640  -13.9154   26.0319 C   0  0  0  0  0  0  0  0  0  0  0  0
    8.5902  -15.0845   25.4672 C   0  0  2  0  0  0  0  0  0  0  0  0
    8.2766  -15.1622   24.0071 N   0  0  0  0  0  0  0  0  0  0  0  0
    8.2860  -16.3582   26.0919 C   0  0  0  0  0  0  0  0  0  0  0  0
    7.4346  -17.1667   25.6957 O   0  0  0  0  0  0  0  0  0  0  0  0
    8.9837  -16.7808   27.2611 O   0  0  0  0  0  0  0  0  0  0  0  0
  2  1  1  6
  3  2  1  0
  3  4  1  0
  4  8  1  0
  5  4  2  0
  6  7  2  0
  6  2  1  0
  9 10  1  0
 10 11  1  0
 11 12  1  0
 13 12  1  6
 13 14  1  0
 14  6  1  0
 15 13  1  0
 16 15  2  0
 18 17  1  0
 19 18  1  0
 21 20  1  1
 20 19  1  0
 21 22  1  0
 22 15  1  0
 23 25  1  0
 23 21  1  0
 24 23  2  0
M  END
$$$$
