DMM.pdb
     RDKit          3D

 25 24  0  0  1  0  0  0  0  0999 V2000
    8.6670  -17.7167   19.5012 N   0  0  0  0  0  0  0  0  0  0  0  0
    9.7215  -17.9301   20.4427 C   0  0  1  0  0  0  0  0  0  0  0  0
   11.0399  -18.1068   19.7447 C   0  0  0  0  0  0  0  0  0  0  0  0
   11.0045  -19.2118   18.7537 C   0  0  0  0  0  0  0  0  0  0  0  0
   10.3270  -20.2367   18.9886 O   0  0  0  0  0  0  0  0  0  0  0  0
    9.8371  -16.8363   21.4402 C   0  0  0  0  0  0  0  0  0  0  0  0
   10.9481  -16.2659   21.6138 O   0  0  0  0  0  0  0  0  0  0  0  0
   11.7177  -19.1025   17.5810 O   0  0  0  0  0  0  0  0  0  0  0  0
    6.2462  -11.6800   26.3172 C   0  0  0  0  0  0  0  0  0  0  0  0
    6.1626  -13.2693   25.4805 S   0  0  0  0  0  0  0  0  0  0  0  0
    7.7060  -13.6441   24.5812 C   0  0  0  0  0  0  0  0  0  0  0  0
    7.5777  -14.9184   23.7958 C   0  0  0  0  0  0  0  0  0  0  0  0
    8.9131  -15.2821   23.2046 C   0  0  2  0  0  0  0  0  0  0  0  0
    8.7545  -16.3734   22.2357 N   0  0  0  0  0  0  0  0  0  0  0  0
    9.9387  -15.6741   24.2223 C   0  0  0  0  0  0  0  0  0  0  0  0
   11.0471  -15.0880   24.3203 O   0  0  0  0  0  0  0  0  0  0  0  0
   10.1930  -12.9170   28.6051 C   0  0  0  0  0  0  0  0  0  0  0  0
   10.6383  -14.3536   29.6382 S   0  0  0  0  0  0  0  0  0  0  0  0
   10.9992  -15.7610   28.5862 C   0  0  0  0  0  0  0  0  0  0  0  0
   10.3450  -15.7664   27.2549 C   0  0  0  0  0  0  0  0  0  0  0  0
   10.6165  -16.8881   26.3161 C   0  0  2  0  0  0  0  0  0  0  0  0
    9.7167  -16.7282   25.1325 N   0  0  0  0  0  0  0  0  0  0  0  0
   10.4417  -18.2151   26.8761 C   0  0  0  0  0  0  0  0  0  0  0  0
    9.5355  -19.0061   26.5783 O   0  0  0  0  0  0  0  0  0  0  0  0
   11.3486  -18.7178   27.8546 O   0  0  0  0  0  0  0  0  0  0  0  0
  2  1  1  6
  3  2  1  0
  3  4  1  0
  4  8  1  0
  5  4  2  0
  6  7  2  0
  6  2  1  0
  9 10  1  0
 10 11  1  0
 11 12  1  0
 13 12  1  1
 13 14  1  0
 14  6  1  0
 15 13  1  0
 16 15  2  0
 18 17  1  0
 19 18  1  0
 21 20  1  1
 20 19  1  0
 21 22  1  0
 22 15  1  0
 23 25  1  0
 23 21  1  0
 24 23  2  0
M  END
$$$$
