DMM.pdb
     RDKit          3D

 25 24  0  0  1  0  0  0  0  0999 V2000
    7.8832  -17.2467   19.9705 N   0  0  0  0  0  0  0  0  0  0  0  0
    9.2352  -16.8066   20.1200 C   0  0  1  0  0  0  0  0  0  0  0  0
    9.6143  -15.8485   19.0269 C   0  0  0  0  0  0  0  0  0  0  0  0
    9.7013  -16.5158   17.7035 C   0  0  0  0  0  0  0  0  0  0  0  0
    9.4427  -15.8710   16.6633 O   0  0  0  0  0  0  0  0  0  0  0  0
    9.4961  -16.1750   21.4384 C   0  0  0  0  0  0  0  0  0  0  0  0
   10.6232  -15.6599   21.6705 O   0  0  0  0  0  0  0  0  0  0  0  0
   10.0662  -17.8413   17.6280 O   0  0  0  0  0  0  0  0  0  0  0  0
    6.3009  -12.5438   26.3224 C   0  0  0  0  0  0  0  0  0  0  0  0
    6.1294  -12.6923   24.5388 S   0  0  0  0  0  0  0  0  0  0  0  0
    7.5292  -13.5979   23.7961 C   0  0  0  0  0  0  0  0  0  0  0  0
    7.7209  -14.9331   24.4578 C   0  0  0  0  0  0  0  0  0  0  0  0
    8.8926  -15.6413   23.8327 C   0  0  2  0  0  0  0  0  0  0  0  0
    8.5391  -16.1080   22.4866 N   0  0  0  0  0  0  0  0  0  0  0  0
    9.3991  -16.7984   24.6364 C   0  0  0  0  0  0  0  0  0  0  0  0
    8.6490  -17.7347   25.0138 O   0  0  0  0  0  0  0  0  0  0  0  0
   10.1631  -12.7837   28.8539 C   0  0  0  0  0  0  0  0  0  0  0  0
   11.3015  -14.1481   29.2687 S   0  0  0  0  0  0  0  0  0  0  0  0
   10.6491  -15.6908   28.6268 C   0  0  0  0  0  0  0  0  0  0  0  0
   10.5493  -15.7939   27.1504 C   0  0  0  0  0  0  0  0  0  0  0  0
   11.1125  -16.9885   26.4655 C   0  0  2  0  0  0  0  0  0  0  0  0
   10.7531  -16.9026   25.0164 N   0  0  0  0  0  0  0  0  0  0  0  0
   10.6721  -18.2657   26.9944 C   0  0  0  0  0  0  0  0  0  0  0  0
   11.2707  -18.9331   27.8497 O   0  0  0  0  0  0  0  0  0  0  0  0
    9.4604  -18.8634   26.5395 O   0  0  0  0  0  0  0  0  0  0  0  0
  2  1  1  1
  3  2  1  0
  3  4  1  0
  4  8  1  0
  5  4  2  0
  6  7  2  0
  6  2  1  0
  9 10  1  0
 10 11  1  0
 11 12  1  0
 13 12  1  1
 13 14  1  0
 14  6  1  0
 15 13  1  0
 16 15  2  0
 18 17  1  0
 19 18  1  0
 21 20  1  1
 20 19  1  0
 21 22  1  0
 22 15  1  0
 23 25  1  0
 23 21  1  0
 24 23  2  0
M  END
$$$$
