DMM.pdb
     RDKit          3D

 25 24  0  0  1  0  0  0  0  0999 V2000
    8.6708  -18.1301   20.0204 N   0  0  0  0  0  0  0  0  0  0  0  0
    9.8790  -18.0298   20.7783 C   0  0  1  0  0  0  0  0  0  0  0  0
   11.0801  -17.9996   19.8767 C   0  0  0  0  0  0  0  0  0  0  0  0
   11.2681  -19.2819   19.1523 C   0  0  0  0  0  0  0  0  0  0  0  0
   10.4152  -20.1902   19.2635 O   0  0  0  0  0  0  0  0  0  0  0  0
    9.9055  -16.8435   21.6710 C   0  0  0  0  0  0  0  0  0  0  0  0
   10.9265  -16.1040   21.6944 O   0  0  0  0  0  0  0  0  0  0  0  0
   12.3805  -19.4647   18.3618 O   0  0  0  0  0  0  0  0  0  0  0  0
    6.1501  -12.1903   26.8877 C   0  0  0  0  0  0  0  0  0  0  0  0
    6.0740  -13.5769   25.7455 S   0  0  0  0  0  0  0  0  0  0  0  0
    7.5791  -13.6935   24.7196 C   0  0  0  0  0  0  0  0  0  0  0  0
    7.5010  -14.8604   23.7764 C   0  0  0  0  0  0  0  0  0  0  0  0
    8.8899  -15.2715   23.3678 C   0  0  2  0  0  0  0  0  0  0  0  0
    8.8323  -16.4719   22.5249 N   0  0  0  0  0  0  0  0  0  0  0  0
    9.8098  -15.5251   24.5215 C   0  0  0  0  0  0  0  0  0  0  0  0
   10.3904  -14.5940   25.1359 O   0  0  0  0  0  0  0  0  0  0  0  0
   10.3965  -13.2339   28.6436 C   0  0  0  0  0  0  0  0  0  0  0  0
   11.3533  -14.7194   29.0988 S   0  0  0  0  0  0  0  0  0  0  0  0
   10.3949  -16.1890   28.7253 C   0  0  0  0  0  0  0  0  0  0  0  0
    9.8936  -16.3060   27.3341 C   0  0  0  0  0  0  0  0  0  0  0  0
   10.7151  -17.0252   26.3235 C   0  0  2  0  0  0  0  0  0  0  0  0
   10.0770  -16.8298   24.9853 N   0  0  0  0  0  0  0  0  0  0  0  0
   10.8895  -18.4443   26.5696 C   0  0  0  0  0  0  0  0  0  0  0  0
   10.2594  -19.3526   26.0095 O   0  0  0  0  0  0  0  0  0  0  0  0
   11.8462  -18.9064   27.5202 O   0  0  0  0  0  0  0  0  0  0  0  0
  2  1  1  6
  3  2  1  0
  3  4  1  0
  4  8  1  0
  5  4  2  0
  6  7  2  0
  6  2  1  0
  9 10  1  0
 10 11  1  0
 11 12  1  0
 13 12  1  1
 13 14  1  0
 14  6  1  0
 15 13  1  0
 16 15  2  0
 18 17  1  0
 19 18  1  0
 21 20  1  1
 20 19  1  0
 21 22  1  0
 22 15  1  0
 23 25  1  0
 23 21  1  0
 24 23  2  0
M  END
$$$$
