DMM.pdb
     RDKit          3D

 25 24  0  0  1  0  0  0  0  0999 V2000
    9.4475  -18.0048   19.4477 N   0  0  0  0  0  0  0  0  0  0  0  0
   10.6651  -17.5458   20.0399 C   0  0  1  0  0  0  0  0  0  0  0  0
   11.5754  -16.9472   19.0057 C   0  0  0  0  0  0  0  0  0  0  0  0
   12.2757  -17.9857   18.2084 C   0  0  0  0  0  0  0  0  0  0  0  0
   11.8719  -19.1692   18.2367 O   0  0  0  0  0  0  0  0  0  0  0  0
   10.4441  -16.5604   21.1284 C   0  0  0  0  0  0  0  0  0  0  0  0
   11.4302  -15.9602   21.6354 O   0  0  0  0  0  0  0  0  0  0  0  0
   13.3662  -17.6404   17.4420 O   0  0  0  0  0  0  0  0  0  0  0  0
    6.1351  -12.9117   26.3237 C   0  0  0  0  0  0  0  0  0  0  0  0
    6.6096  -14.2240   25.1898 S   0  0  0  0  0  0  0  0  0  0  0  0
    7.5534  -13.5813   23.7659 C   0  0  0  0  0  0  0  0  0  0  0  0
    7.6641  -14.6143   22.6805 C   0  0  0  0  0  0  0  0  0  0  0  0
    8.9986  -15.3035   22.7755 C   0  0  2  0  0  0  0  0  0  0  0  0
    9.1645  -16.2365   21.6545 N   0  0  0  0  0  0  0  0  0  0  0  0
    9.2092  -16.0394   24.0622 C   0  0  0  0  0  0  0  0  0  0  0  0
    9.0987  -17.2892   24.1479 O   0  0  0  0  0  0  0  0  0  0  0  0
   10.1997  -12.9345   29.6284 C   0  0  0  0  0  0  0  0  0  0  0  0
   10.7878  -14.5617   30.2079 S   0  0  0  0  0  0  0  0  0  0  0  0
   10.7456  -15.7338   28.8507 C   0  0  0  0  0  0  0  0  0  0  0  0
   10.3141  -15.1969   27.5369 C   0  0  0  0  0  0  0  0  0  0  0  0
   10.1651  -16.1266   26.3851 C   0  0  2  0  0  0  0  0  0  0  0  0
    9.5453  -15.3675   25.2556 N   0  0  0  0  0  0  0  0  0  0  0  0
    9.3789  -17.3163   26.6525 C   0  0  0  0  0  0  0  0  0  0  0  0
    9.8283  -18.3970   27.0594 O   0  0  0  0  0  0  0  0  0  0  0  0
    7.9672  -17.3162   26.4533 O   0  0  0  0  0  0  0  0  0  0  0  0
  2  1  1  6
  3  2  1  0
  3  4  1  0
  4  8  1  0
  5  4  2  0
  6  7  2  0
  6  2  1  0
  9 10  1  0
 10 11  1  0
 11 12  1  0
 13 12  1  1
 13 14  1  0
 14  6  1  0
 15 13  1  0
 16 15  2  0
 18 17  1  0
 19 18  1  0
 21 20  1  1
 20 19  1  0
 21 22  1  0
 22 15  1  0
 23 25  1  0
 23 21  1  0
 24 23  2  0
M  END
$$$$
