DMM.pdb
     RDKit          3D

 25 24  0  0  1  0  0  0  0  0999 V2000
    9.9204  -16.1453   19.2518 N   0  0  0  0  0  0  0  0  0  0  0  0
   10.1364  -16.9755   20.3955 C   0  0  1  0  0  0  0  0  0  0  0  0
   11.4929  -17.6190   20.3461 C   0  0  0  0  0  0  0  0  0  0  0  0
   11.6523  -18.4977   19.1600 C   0  0  0  0  0  0  0  0  0  0  0  0
   10.6525  -19.0658   18.6677 O   0  0  0  0  0  0  0  0  0  0  0  0
    9.9870  -16.2435   21.6788 C   0  0  0  0  0  0  0  0  0  0  0  0
   10.8363  -15.3686   21.9997 O   0  0  0  0  0  0  0  0  0  0  0  0
   12.9001  -18.6826   18.6080 O   0  0  0  0  0  0  0  0  0  0  0  0
    6.3877  -12.4807   23.7273 C   0  0  0  0  0  0  0  0  0  0  0  0
    6.5738  -13.0543   25.4212 S   0  0  0  0  0  0  0  0  0  0  0  0
    7.2820  -14.7349   25.4939 C   0  0  0  0  0  0  0  0  0  0  0  0
    7.3984  -15.3321   24.1202 C   0  0  0  0  0  0  0  0  0  0  0  0
    8.8271  -15.7295   23.8634 C   0  0  2  0  0  0  0  0  0  0  0  0
    8.9253  -16.4650   22.5969 N   0  0  0  0  0  0  0  0  0  0  0  0
    9.4321  -16.5529   24.9577 C   0  0  0  0  0  0  0  0  0  0  0  0
    9.5779  -17.7982   24.8600 O   0  0  0  0  0  0  0  0  0  0  0  0
   10.7372  -14.3786   31.0351 C   0  0  0  0  0  0  0  0  0  0  0  0
   11.4273  -13.5080   29.5875 S   0  0  0  0  0  0  0  0  0  0  0  0
   11.1625  -14.4929   28.1118 C   0  0  0  0  0  0  0  0  0  0  0  0
   10.9501  -15.9455   28.3252 C   0  0  0  0  0  0  0  0  0  0  0  0
   10.6119  -16.8092   27.1621 C   0  0  2  0  0  0  0  0  0  0  0  0
    9.8745  -15.9737   26.1650 N   0  0  0  0  0  0  0  0  0  0  0  0
    9.8246  -17.9861   27.4781 C   0  0  0  0  0  0  0  0  0  0  0  0
   10.2640  -19.0293   27.9825 O   0  0  0  0  0  0  0  0  0  0  0  0
    8.4239  -18.0176   27.2145 O   0  0  0  0  0  0  0  0  0  0  0  0
  2  1  1  6
  3  2  1  0
  3  4  1  0
  4  8  1  0
  5  4  2  0
  6  7  2  0
  6  2  1  0
  9 10  1  0
 10 11  1  0
 11 12  1  0
 13 12  1  1
 13 14  1  0
 14  6  1  0
 15 13  1  0
 16 15  2  0
 18 17  1  0
 19 18  1  0
 21 20  1  1
 20 19  1  0
 21 22  1  0
 22 15  1  0
 23 25  1  0
 23 21  1  0
 24 23  2  0
M  END
$$$$
