DMM.pdb
     RDKit          3D

 25 24  0  0  1  0  0  0  0  0999 V2000
    9.4170  -16.8469   19.0638 N   0  0  0  0  0  0  0  0  0  0  0  0
   10.2088  -17.4119   20.1116 C   0  0  1  0  0  0  0  0  0  0  0  0
   11.6350  -17.5884   19.6743 C   0  0  0  0  0  0  0  0  0  0  0  0
   11.7820  -18.6715   18.6694 C   0  0  0  0  0  0  0  0  0  0  0  0
   10.7640  -19.2213   18.1939 O   0  0  0  0  0  0  0  0  0  0  0  0
   10.1742  -16.6093   21.3604 C   0  0  0  0  0  0  0  0  0  0  0  0
   11.2027  -15.9766   21.7233 O   0  0  0  0  0  0  0  0  0  0  0  0
   13.0383  -19.0651   18.2661 O   0  0  0  0  0  0  0  0  0  0  0  0
    7.0477  -11.7318   26.2495 C   0  0  0  0  0  0  0  0  0  0  0  0
    7.1218  -12.6629   24.7131 S   0  0  0  0  0  0  0  0  0  0  0  0
    7.6728  -14.3811   24.9875 C   0  0  0  0  0  0  0  0  0  0  0  0
    7.6608  -15.1637   23.7050 C   0  0  0  0  0  0  0  0  0  0  0  0
    9.0423  -15.6901   23.4234 C   0  0  2  0  0  0  0  0  0  0  0  0
    9.0326  -16.5004   22.1994 N   0  0  0  0  0  0  0  0  0  0  0  0
    9.6217  -16.4981   24.5427 C   0  0  0  0  0  0  0  0  0  0  0  0
    8.9482  -17.3520   25.1743 O   0  0  0  0  0  0  0  0  0  0  0  0
    9.8660  -13.8616   31.0720 C   0  0  0  0  0  0  0  0  0  0  0  0
    9.9948  -13.6583   29.2633 S   0  0  0  0  0  0  0  0  0  0  0  0
   10.7669  -15.1114   28.5490 C   0  0  0  0  0  0  0  0  0  0  0  0
   10.7325  -15.2088   27.0692 C   0  0  0  0  0  0  0  0  0  0  0  0
   11.3058  -16.4111   26.4064 C   0  0  2  0  0  0  0  0  0  0  0  0
   10.9623  -16.3451   24.9525 N   0  0  0  0  0  0  0  0  0  0  0  0
   10.8622  -17.6821   26.9473 C   0  0  0  0  0  0  0  0  0  0  0  0
   11.5819  -18.5031   27.5335 O   0  0  0  0  0  0  0  0  0  0  0  0
    9.5001  -18.0869   26.8322 O   0  0  0  0  0  0  0  0  0  0  0  0
  2  1  1  6
  3  2  1  0
  3  4  1  0
  4  8  1  0
  5  4  2  0
  6  7  2  0
  6  2  1  0
  9 10  1  0
 10 11  1  0
 11 12  1  0
 13 12  1  1
 13 14  1  0
 14  6  1  0
 15 13  1  0
 16 15  2  0
 18 17  1  0
 19 18  1  0
 21 20  1  1
 20 19  1  0
 21 22  1  0
 22 15  1  0
 23 25  1  0
 23 21  1  0
 24 23  2  0
M  END
$$$$
