DMM.pdb
     RDKit          3D

 25 24  0  0  1  0  0  0  0  0999 V2000
    7.8372  -18.5818   21.4015 N   0  0  0  0  0  0  0  0  0  0  0  0
    8.9119  -17.9015   20.7486 C   0  0  1  0  0  0  0  0  0  0  0  0
    8.5870  -17.6401   19.3055 C   0  0  0  0  0  0  0  0  0  0  0  0
    7.2200  -18.0965   18.9483 C   0  0  0  0  0  0  0  0  0  0  0  0
    6.3496  -18.2108   19.8394 O   0  0  0  0  0  0  0  0  0  0  0  0
    9.2736  -16.6220   21.4097 C   0  0  0  0  0  0  0  0  0  0  0  0
   10.3309  -16.0234   21.0724 O   0  0  0  0  0  0  0  0  0  0  0  0
    6.9176  -18.3916   17.6379 O   0  0  0  0  0  0  0  0  0  0  0  0
    5.6600  -12.9938   25.8837 C   0  0  0  0  0  0  0  0  0  0  0  0
    7.3407  -12.3592   25.8099 S   0  0  0  0  0  0  0  0  0  0  0  0
    8.1334  -12.7242   24.2068 C   0  0  0  0  0  0  0  0  0  0  0  0
    7.7235  -14.0767   23.6970 C   0  0  0  0  0  0  0  0  0  0  0  0
    8.9133  -14.7660   23.0852 C   0  0  2  0  0  0  0  0  0  0  0  0
    8.4914  -16.0068   22.4239 N   0  0  0  0  0  0  0  0  0  0  0  0
   10.0019  -15.0772   24.0648 C   0  0  0  0  0  0  0  0  0  0  0  0
   10.6542  -14.1775   24.6535 O   0  0  0  0  0  0  0  0  0  0  0  0
   10.6381  -13.8676   30.1681 C   0  0  0  0  0  0  0  0  0  0  0  0
   10.0564  -14.1860   28.4681 S   0  0  0  0  0  0  0  0  0  0  0  0
   10.2058  -15.9352   28.0999 C   0  0  0  0  0  0  0  0  0  0  0  0
    9.8085  -16.3513   26.7326 C   0  0  0  0  0  0  0  0  0  0  0  0
   10.8624  -16.7288   25.7527 C   0  0  2  0  0  0  0  0  0  0  0  0
   10.3575  -16.4042   24.3831 N   0  0  0  0  0  0  0  0  0  0  0  0
   11.2729  -18.1197   25.7959 C   0  0  0  0  0  0  0  0  0  0  0  0
   10.8819  -19.0076   25.0250 O   0  0  0  0  0  0  0  0  0  0  0  0
   12.1995  -18.5753   26.7789 O   0  0  0  0  0  0  0  0  0  0  0  0
  2  1  1  1
  3  2  1  0
  3  4  1  0
  4  8  1  0
  5  4  2  0
  6  7  2  0
  6  2  1  0
  9 10  1  0
 10 11  1  0
 11 12  1  0
 13 12  1  1
 13 14  1  0
 14  6  1  0
 15 13  1  0
 16 15  2  0
 18 17  1  0
 19 18  1  0
 21 20  1  1
 20 19  1  0
 21 22  1  0
 22 15  1  0
 23 25  1  0
 23 21  1  0
 24 23  2  0
M  END
$$$$
