DMM.pdb
     RDKit          3D

 25 24  0  0  1  0  0  0  0  0999 V2000
    8.7399  -18.3005   20.6022 N   0  0  0  0  0  0  0  0  0  0  0  0
   10.0471  -17.7388   20.7424 C   0  0  1  0  0  0  0  0  0  0  0  0
   10.5934  -17.3059   19.4117 C   0  0  0  0  0  0  0  0  0  0  0  0
   10.5502  -18.3984   18.4072 C   0  0  0  0  0  0  0  0  0  0  0  0
   10.7773  -19.5770   18.7595 O   0  0  0  0  0  0  0  0  0  0  0  0
   10.0865  -16.5924   21.6854 C   0  0  0  0  0  0  0  0  0  0  0  0
   11.1663  -15.9650   21.8589 O   0  0  0  0  0  0  0  0  0  0  0  0
   10.2604  -18.1084   17.0927 O   0  0  0  0  0  0  0  0  0  0  0  0
    6.6128  -12.1345   27.0991 C   0  0  0  0  0  0  0  0  0  0  0  0
    6.6236  -13.5613   26.0050 S   0  0  0  0  0  0  0  0  0  0  0  0
    7.7384  -13.3152   24.5809 C   0  0  0  0  0  0  0  0  0  0  0  0
    7.6523  -14.4684   23.6218 C   0  0  0  0  0  0  0  0  0  0  0  0
    9.0367  -14.9733   23.3158 C   0  0  2  0  0  0  0  0  0  0  0  0
    8.9625  -16.1394   22.4273 N   0  0  0  0  0  0  0  0  0  0  0  0
    9.8322  -15.3325   24.5322 C   0  0  0  0  0  0  0  0  0  0  0  0
   10.4317  -14.4692   25.2228 O   0  0  0  0  0  0  0  0  0  0  0  0
   10.2535  -13.1304   29.2249 C   0  0  0  0  0  0  0  0  0  0  0  0
   10.8201  -14.5617   28.2451 S   0  0  0  0  0  0  0  0  0  0  0  0
    9.4732  -15.7313   28.0561 C   0  0  0  0  0  0  0  0  0  0  0  0
    9.8014  -16.9986   27.3586 C   0  0  0  0  0  0  0  0  0  0  0  0
   10.7420  -16.9716   26.2063 C   0  0  2  0  0  0  0  0  0  0  0  0
    9.9534  -16.6666   24.9730 N   0  0  0  0  0  0  0  0  0  0  0  0
   11.4998  -18.1918   26.0020 C   0  0  0  0  0  0  0  0  0  0  0  0
   12.2533  -18.7165   26.8342 O   0  0  0  0  0  0  0  0  0  0  0  0
   11.4208  -18.9000   24.7672 O   0  0  0  0  0  0  0  0  0  0  0  0
  2  1  1  6
  3  2  1  0
  3  4  1  0
  4  8  1  0
  5  4  2  0
  6  7  2  0
  6  2  1  0
  9 10  1  0
 10 11  1  0
 11 12  1  0
 13 12  1  1
 13 14  1  0
 14  6  1  0
 15 13  1  0
 16 15  2  0
 18 17  1  0
 19 18  1  0
 21 20  1  1
 20 19  1  0
 21 22  1  0
 22 15  1  0
 23 25  1  0
 23 21  1  0
 24 23  2  0
M  END
$$$$
