DMM.pdb
     RDKit          3D

 25 24  0  0  1  0  0  0  0  0999 V2000
    8.8338  -17.8846   20.2203 N   0  0  0  0  0  0  0  0  0  0  0  0
   10.0039  -17.1138   20.5044 C   0  0  1  0  0  0  0  0  0  0  0  0
   10.3496  -16.2140   19.3523 C   0  0  0  0  0  0  0  0  0  0  0  0
   10.6117  -16.9768   18.1058 C   0  0  0  0  0  0  0  0  0  0  0  0
   11.3714  -17.9703   18.1324 O   0  0  0  0  0  0  0  0  0  0  0  0
    9.8758  -16.3011   21.7405 C   0  0  0  0  0  0  0  0  0  0  0  0
   10.8396  -15.5792   22.1143 O   0  0  0  0  0  0  0  0  0  0  0  0
   10.0172  -16.5867   16.9267 O   0  0  0  0  0  0  0  0  0  0  0  0
    7.2543  -12.0641   24.2998 C   0  0  0  0  0  0  0  0  0  0  0  0
    6.7903  -12.9823   25.7744 S   0  0  0  0  0  0  0  0  0  0  0  0
    7.2663  -14.7403   25.6563 C   0  0  0  0  0  0  0  0  0  0  0  0
    7.3073  -15.1939   24.2246 C   0  0  0  0  0  0  0  0  0  0  0  0
    8.7016  -15.6421   23.8780 C   0  0  2  0  0  0  0  0  0  0  0  0
    8.7118  -16.2783   22.5551 N   0  0  0  0  0  0  0  0  0  0  0  0
    9.3019  -16.5800   24.8787 C   0  0  0  0  0  0  0  0  0  0  0  0
    8.6126  -17.4222   25.5089 O   0  0  0  0  0  0  0  0  0  0  0  0
    8.8124  -13.1709   28.9479 C   0  0  0  0  0  0  0  0  0  0  0  0
   10.4538  -13.7487   29.4969 S   0  0  0  0  0  0  0  0  0  0  0  0
   10.8063  -15.3453   28.7591 C   0  0  0  0  0  0  0  0  0  0  0  0
   10.7957  -15.3966   27.2766 C   0  0  0  0  0  0  0  0  0  0  0  0
   11.1395  -16.6713   26.5910 C   0  0  2  0  0  0  0  0  0  0  0  0
   10.6814  -16.5705   25.1710 N   0  0  0  0  0  0  0  0  0  0  0  0
   10.5767  -17.8652   27.1933 C   0  0  0  0  0  0  0  0  0  0  0  0
    9.3791  -18.1832   27.1727 O   0  0  0  0  0  0  0  0  0  0  0  0
   11.4092  -18.7951   27.8822 O   0  0  0  0  0  0  0  0  0  0  0  0
  2  1  1  6
  3  2  1  0
  3  4  1  0
  4  8  1  0
  5  4  2  0
  6  7  2  0
  6  2  1  0
  9 10  1  0
 10 11  1  0
 11 12  1  0
 13 12  1  1
 13 14  1  0
 14  6  1  0
 15 13  1  0
 16 15  2  0
 18 17  1  0
 19 18  1  0
 21 20  1  1
 20 19  1  0
 21 22  1  0
 22 15  1  0
 23 25  1  0
 23 21  1  0
 24 23  2  0
M  END
$$$$
