DMM.pdb
     RDKit          3D

 25 24  0  0  1  0  0  0  0  0999 V2000
    8.1447  -17.4541   18.9069 N   0  0  0  0  0  0  0  0  0  0  0  0
    8.9726  -17.8119   20.0162 C   0  0  1  0  0  0  0  0  0  0  0  0
   10.3574  -17.2518   19.8582 C   0  0  0  0  0  0  0  0  0  0  0  0
   11.1913  -18.0715   18.9433 C   0  0  0  0  0  0  0  0  0  0  0  0
   11.0098  -19.3072   18.8753 O   0  0  0  0  0  0  0  0  0  0  0  0
    8.4128  -17.3761   21.3206 C   0  0  0  0  0  0  0  0  0  0  0  0
    7.9727  -16.2015   21.4487 O   0  0  0  0  0  0  0  0  0  0  0  0
   12.1605  -17.4670   18.1744 O   0  0  0  0  0  0  0  0  0  0  0  0
    8.0960  -20.6813   27.3654 C   0  0  0  0  0  0  0  0  0  0  0  0
    6.5394  -19.8379   27.0513 S   0  0  0  0  0  0  0  0  0  0  0  0
    6.7366  -18.4743   25.8543 C   0  0  0  0  0  0  0  0  0  0  0  0
    7.4911  -18.9287   24.6371 C   0  0  0  0  0  0  0  0  0  0  0  0
    7.7190  -17.7577   23.7196 C   0  0  2  0  0  0  0  0  0  0  0  0
    8.3357  -18.2118   22.4672 N   0  0  0  0  0  0  0  0  0  0  0  0
    8.5625  -16.6753   24.3182 C   0  0  0  0  0  0  0  0  0  0  0  0
    8.9795  -15.6980   23.6454 O   0  0  0  0  0  0  0  0  0  0  0  0
    6.0632  -12.2703   25.1542 C   0  0  0  0  0  0  0  0  0  0  0  0
    6.5935  -12.2425   26.8999 S   0  0  0  0  0  0  0  0  0  0  0  0
    8.0428  -13.2796   27.1040 C   0  0  0  0  0  0  0  0  0  0  0  0
    8.0668  -14.5323   26.3098 C   0  0  0  0  0  0  0  0  0  0  0  0
    9.2666  -15.4097   26.3723 C   0  0  2  0  0  0  0  0  0  0  0  0
    8.9378  -16.6923   25.6774 N   0  0  0  0  0  0  0  0  0  0  0  0
    9.7487  -15.6983   27.7100 C   0  0  0  0  0  0  0  0  0  0  0  0
   10.1456  -14.8556   28.5272 O   0  0  0  0  0  0  0  0  0  0  0  0
    9.7983  -17.0388   28.1927 O   0  0  0  0  0  0  0  0  0  0  0  0
  2  1  1  6
  3  2  1  0
  3  4  1  0
  4  8  1  0
  5  4  2  0
  6  7  2  0
  6  2  1  0
  9 10  1  0
 10 11  1  0
 11 12  1  0
 13 12  1  1
 13 14  1  0
 14  6  1  0
 15 13  1  0
 16 15  2  0
 18 17  1  0
 19 18  1  0
 21 20  1  1
 20 19  1  0
 21 22  1  0
 22 15  1  0
 23 25  1  0
 23 21  1  0
 24 23  2  0
M  END
$$$$
