DMM.pdb
     RDKit          3D

 25 24  0  0  1  0  0  0  0  0999 V2000
    7.8457  -18.3105   20.7685 N   0  0  0  0  0  0  0  0  0  0  0  0
    9.1450  -17.7462   20.5756 C   0  0  1  0  0  0  0  0  0  0  0  0
    9.3561  -17.3572   19.1401 C   0  0  0  0  0  0  0  0  0  0  0  0
    9.5523  -18.5392   18.2633 C   0  0  0  0  0  0  0  0  0  0  0  0
    9.4596  -19.6911   18.7419 O   0  0  0  0  0  0  0  0  0  0  0  0
    9.4004  -16.5701   21.4453 C   0  0  0  0  0  0  0  0  0  0  0  0
   10.5187  -15.9898   21.3962 O   0  0  0  0  0  0  0  0  0  0  0  0
    9.8355  -18.3611   16.9276 O   0  0  0  0  0  0  0  0  0  0  0  0
    5.2021  -13.3474   26.0892 C   0  0  0  0  0  0  0  0  0  0  0  0
    6.9853  -13.1804   26.2475 S   0  0  0  0  0  0  0  0  0  0  0  0
    7.8068  -13.1092   24.6192 C   0  0  0  0  0  0  0  0  0  0  0  0
    7.4864  -14.3262   23.7986 C   0  0  0  0  0  0  0  0  0  0  0  0
    8.7553  -14.8916   23.2197 C   0  0  2  0  0  0  0  0  0  0  0  0
    8.4476  -16.0370   22.3547 N   0  0  0  0  0  0  0  0  0  0  0  0
    9.7569  -15.3101   24.2509 C   0  0  0  0  0  0  0  0  0  0  0  0
   10.6369  -14.5265   24.6905 O   0  0  0  0  0  0  0  0  0  0  0  0
   11.3240  -12.6434   28.9741 C   0  0  0  0  0  0  0  0  0  0  0  0
   11.0389  -14.4454   28.9402 S   0  0  0  0  0  0  0  0  0  0  0  0
   11.1710  -15.0428   27.2539 C   0  0  0  0  0  0  0  0  0  0  0  0
   10.6912  -16.4253   27.0111 C   0  0  0  0  0  0  0  0  0  0  0  0
   10.8963  -17.0413   25.6726 C   0  0  2  0  0  0  0  0  0  0  0  0
    9.7683  -16.6134   24.7891 N   0  0  0  0  0  0  0  0  0  0  0  0
   10.9862  -18.4894   25.6690 C   0  0  0  0  0  0  0  0  0  0  0  0
   10.1383  -19.2599   25.1968 O   0  0  0  0  0  0  0  0  0  0  0  0
   12.1139  -19.1504   26.2381 O   0  0  0  0  0  0  0  0  0  0  0  0
  2  1  1  6
  3  2  1  0
  3  4  1  0
  4  8  1  0
  5  4  2  0
  6  7  2  0
  6  2  1  0
  9 10  1  0
 10 11  1  0
 11 12  1  0
 13 12  1  1
 13 14  1  0
 14  6  1  0
 15 13  1  0
 16 15  2  0
 18 17  1  0
 19 18  1  0
 21 20  1  1
 20 19  1  0
 21 22  1  0
 22 15  1  0
 23 25  1  0
 23 21  1  0
 24 23  2  0
M  END
$$$$
