DMM.pdb
     RDKit          3D

 25 24  0  0  1  0  0  0  0  0999 V2000
    9.7328  -18.2165   20.0967 N   0  0  0  0  0  0  0  0  0  0  0  0
   10.5922  -17.0752   20.1515 C   0  0  1  0  0  0  0  0  0  0  0  0
   10.4081  -16.2031   18.9424 C   0  0  0  0  0  0  0  0  0  0  0  0
   10.7784  -16.9028   17.6863 C   0  0  0  0  0  0  0  0  0  0  0  0
   11.7227  -17.7231   17.6862 O   0  0  0  0  0  0  0  0  0  0  0  0
   10.3964  -16.2614   21.3780 C   0  0  0  0  0  0  0  0  0  0  0  0
   11.0984  -15.2301   21.5602 O   0  0  0  0  0  0  0  0  0  0  0  0
   10.0803  -16.6450   16.5279 O   0  0  0  0  0  0  0  0  0  0  0  0
    6.3534  -12.6200   26.8456 C   0  0  0  0  0  0  0  0  0  0  0  0
    6.3746  -13.6431   25.3671 S   0  0  0  0  0  0  0  0  0  0  0  0
    7.9799  -14.4831   25.1468 C   0  0  0  0  0  0  0  0  0  0  0  0
    8.0329  -15.2114   23.8338 C   0  0  0  0  0  0  0  0  0  0  0  0
    9.3930  -15.8307   23.6560 C   0  0  2  0  0  0  0  0  0  0  0  0
    9.4476  -16.5708   22.3895 N   0  0  0  0  0  0  0  0  0  0  0  0
    9.7939  -16.7414   24.7747 C   0  0  0  0  0  0  0  0  0  0  0  0
    9.9168  -17.9834   24.6195 O   0  0  0  0  0  0  0  0  0  0  0  0
   10.6442  -12.1458   28.9691 C   0  0  0  0  0  0  0  0  0  0  0  0
   10.0018  -13.8456   29.1348 S   0  0  0  0  0  0  0  0  0  0  0  0
   11.1727  -15.0024   28.4217 C   0  0  0  0  0  0  0  0  0  0  0  0
   10.7448  -16.4221   28.3786 C   0  0  0  0  0  0  0  0  0  0  0  0
   10.7284  -17.1371   27.0741 C   0  0  2  0  0  0  0  0  0  0  0  0
   10.0576  -16.2536   26.0712 N   0  0  0  0  0  0  0  0  0  0  0  0
   10.0715  -18.4306   27.0897 C   0  0  0  0  0  0  0  0  0  0  0  0
    8.9243  -18.6579   26.6800 O   0  0  0  0  0  0  0  0  0  0  0  0
   10.7394  -19.5803   27.6039 O   0  0  0  0  0  0  0  0  0  0  0  0
  2  1  1  6
  3  2  1  0
  3  4  1  0
  4  8  1  0
  5  4  2  0
  6  7  2  0
  6  2  1  0
  9 10  1  0
 10 11  1  0
 11 12  1  0
 13 12  1  1
 13 14  1  0
 14  6  1  0
 15 13  1  0
 16 15  2  0
 18 17  1  0
 19 18  1  0
 21 20  1  1
 20 19  1  0
 21 22  1  0
 22 15  1  0
 23 25  1  0
 23 21  1  0
 24 23  2  0
M  END
$$$$
