PRM.pdb
     RDKit          3D

 27 27  0  0  1  0  0  0  0  0999 V2000
   27.9300  -20.3923  -15.7467 N   0  0  0  0  0  0  0  0  0  0  0  0
   28.0464  -18.9325  -15.7009 C   0  0  0  0  0  0  0  0  0  0  0  0
   28.6775  -18.6718  -17.0737 C   0  0  0  0  0  0  0  0  0  0  0  0
   28.1505  -19.7828  -17.9604 C   0  0  0  0  0  0  0  0  0  0  0  0
   27.2783  -20.5814  -17.0135 C   0  0  1  0  0  0  0  0  0  0  0  0
   27.2128  -22.0092  -17.4092 C   0  0  0  0  0  0  0  0  0  0  0  0
   26.5569  -22.4019  -18.4329 O   0  0  0  0  0  0  0  0  0  0  0  0
   28.8000  -29.2705  -17.6058 N   0  0  0  0  0  0  0  0  0  0  0  0
   29.2690  -29.2501  -16.2676 C   0  0  0  0  0  0  0  0  0  0  0  0
   28.9305  -30.1237  -15.3768 N   0  0  0  0  0  0  0  0  0  0  0  0
   30.1735  -28.1978  -15.8805 N   0  0  0  0  0  0  0  0  0  0  0  0
   30.5790  -27.1703  -16.8142 C   0  0  0  0  0  0  0  0  0  0  0  0
   29.3300  -26.4857  -17.3245 C   0  0  0  0  0  0  0  0  0  0  0  0
   29.1706  -25.1246  -16.6337 C   0  0  0  0  0  0  0  0  0  0  0  0
   27.9498  -24.4020  -17.1368 C   0  0  2  0  0  0  0  0  0  0  0  0
   27.8666  -23.0399  -16.6902 N   0  0  0  0  0  0  0  0  0  0  0  0
   26.7160  -25.1772  -16.9341 C   0  0  0  0  0  0  0  0  0  0  0  0
   26.3206  -25.4016  -15.7770 O   0  0  0  0  0  0  0  0  0  0  0  0
   29.2325  -29.9269  -14.3944 C   0  0  0  0  0  0  0  0  0  0  0  0
   21.9941  -24.5155  -21.0791 S   0  0  0  0  0  0  0  0  0  0  0  0
   21.3256  -25.9350  -20.2123 C   0  0  0  0  0  0  0  0  0  0  0  0
   22.4013  -26.5165  -18.8795 C   0  0  0  0  0  0  0  0  0  0  0  0
   23.7614  -25.8560  -18.9496 C   0  0  1  0  0  0  0  0  0  0  0  0
   24.6767  -26.3386  -17.8549 N   0  0  0  0  0  0  0  0  0  0  0  0
   25.9715  -25.6709  -18.0222 C   0  0  0  0  0  0  0  0  0  0  0  0
   24.8106  -27.8015  -17.8754 O   0  0  0  0  0  0  0  0  0  0  0  0
   25.6984  -28.4467  -18.4607 O   0  0  0  0  0  0  0  0  0  0  0  0
  1  5  1  0
  1  2  1  0
  2  3  1  0
  4  3  1  0
  5  4  1  0
  6 16  1  0
  5  6  1  6
  7  6  2  0
  9  8  1  0
  9 10  2  0
 11  9  1  0
 12 11  1  0
 13 12  1  0
 14 13  1  0
 15 14  1  1
 15 16  1  0
 17 24  1  0
 17 15  1  0
 18 17  2  0
 20 19  1  0
 20 21  1  0
 21 22  1  0
 23 22  1  1
 23 24  1  0
 23 25  1  0
 25 27  1  0
 26 25  2  0
M  END
$$$$
