PRM.pdb
     RDKit          3D

 27 27  0  0  1  0  0  0  0  0999 V2000
   28.4408  -20.4179  -12.9477 N   0  0  0  0  0  0  0  0  0  0  0  0
   29.5446  -20.9720  -12.1592 C   0  0  0  0  0  0  0  0  0  0  0  0
   29.3672  -20.1802  -10.8583 C   0  0  0  0  0  0  0  0  0  0  0  0
   27.8784  -19.9082  -10.7695 C   0  0  0  0  0  0  0  0  0  0  0  0
   27.3439  -20.5571  -12.0297 C   0  0  1  0  0  0  0  0  0  0  0  0
   26.1145  -19.8804  -12.5096 C   0  0  0  0  0  0  0  0  0  0  0  0
   25.0626  -19.7904  -11.7900 O   0  0  0  0  0  0  0  0  0  0  0  0
   28.9000  -16.7826  -17.5554 N   0  0  0  0  0  0  0  0  0  0  0  0
   27.6206  -17.1323  -18.0573 C   0  0  0  0  0  0  0  0  0  0  0  0
   27.4365  -17.9472  -19.0438 N   0  0  0  0  0  0  0  0  0  0  0  0
   26.4622  -16.5471  -17.4320 N   0  0  0  0  0  0  0  0  0  0  0  0
   26.5753  -15.7512  -16.2296 C   0  0  0  0  0  0  0  0  0  0  0  0
   26.2979  -16.6527  -15.0466 C   0  0  0  0  0  0  0  0  0  0  0  0
   25.1639  -17.6258  -15.3962 C   0  0  0  0  0  0  0  0  0  0  0  0
   24.8663  -18.5467  -14.2434 C   0  0  2  0  0  0  0  0  0  0  0  0
   26.0113  -19.2859  -13.7913 N   0  0  0  0  0  0  0  0  0  0  0  0
   23.6725  -19.3733  -14.4799 C   0  0  0  0  0  0  0  0  0  0  0  0
   23.7966  -20.4774  -15.0377 O   0  0  0  0  0  0  0  0  0  0  0  0
   26.4426  -18.1406  -19.3078 C   0  0  0  0  0  0  0  0  0  0  0  0
   20.6647  -20.7309   -9.5125 S   0  0  0  0  0  0  0  0  0  0  0  0
   19.9122  -21.8759  -10.6682 C   0  0  0  0  0  0  0  0  0  0  0  0
   20.0051  -21.3082  -12.3830 C   0  0  0  0  0  0  0  0  0  0  0  0
   21.1817  -20.3778  -12.5859 C   0  0  1  0  0  0  0  0  0  0  0  0
   21.2452  -19.8526  -13.9963 N   0  0  0  0  0  0  0  0  0  0  0  0
   22.3910  -18.9421  -14.0877 C   0  0  0  0  0  0  0  0  0  0  0  0
   19.9904  -19.1904  -14.3776 O   0  0  0  0  0  0  0  0  0  0  0  0
   18.8824  -19.7408  -14.5057 O   0  0  0  0  0  0  0  0  0  0  0  0
  1  5  1  0
  1  2  1  0
  2  3  1  0
  4  3  1  0
  5  4  1  0
  6 16  1  0
  5  6  1  6
  7  6  2  0
  9  8  1  0
  9 10  2  0
 11  9  1  0
 12 11  1  0
 13 12  1  0
 14 13  1  0
 15 14  1  6
 15 16  1  0
 17 24  1  0
 17 15  1  0
 18 17  2  0
 20 19  1  0
 20 21  1  0
 21 22  1  0
 23 22  1  6
 23 24  1  0
 23 25  1  0
 25 27  1  0
 26 25  2  0
M  END
$$$$
