PRM.pdb
     RDKit          3D

 27 27  0  0  1  0  0  0  0  0999 V2000
   28.7708  -22.8408  -16.1803 N   0  0  0  0  0  0  0  0  0  0  0  0
   29.7610  -23.0872  -17.2319 C   0  0  0  0  0  0  0  0  0  0  0  0
   29.3551  -22.0053  -18.2396 C   0  0  0  0  0  0  0  0  0  0  0  0
   28.7913  -20.8798  -17.3947 C   0  0  0  0  0  0  0  0  0  0  0  0
   28.9152  -21.4242  -15.9864 C   0  0  1  0  0  0  0  0  0  0  0  0
   27.8707  -20.8653  -15.0942 C   0  0  0  0  0  0  0  0  0  0  0  0
   27.8498  -19.6321  -14.7605 O   0  0  0  0  0  0  0  0  0  0  0  0
   24.2680  -25.2026  -15.7451 N   0  0  0  0  0  0  0  0  0  0  0  0
   23.1043  -25.4844  -14.9852 C   0  0  0  0  0  0  0  0  0  0  0  0
   22.7820  -26.6697  -14.5818 N   0  0  0  0  0  0  0  0  0  0  0  0
   22.2339  -24.3886  -14.6433 N   0  0  0  0  0  0  0  0  0  0  0  0
   22.6266  -23.0149  -14.8687 C   0  0  0  0  0  0  0  0  0  0  0  0
   24.0180  -22.8297  -14.3039 C   0  0  0  0  0  0  0  0  0  0  0  0
   24.3924  -21.3418  -14.3360 C   0  0  0  0  0  0  0  0  0  0  0  0
   25.7583  -21.1146  -13.7458 C   0  0  2  0  0  0  0  0  0  0  0  0
   26.8238  -21.6474  -14.5474 N   0  0  0  0  0  0  0  0  0  0  0  0
   25.8261  -21.4953  -12.3263 C   0  0  0  0  0  0  0  0  0  0  0  0
   25.6480  -22.6829  -12.0049 O   0  0  0  0  0  0  0  0  0  0  0  0
   21.8836  -26.7521  -14.0518 C   0  0  0  0  0  0  0  0  0  0  0  0
   29.2930  -19.2576   -6.5845 S   0  0  0  0  0  0  0  0  0  0  0  0
   27.5676  -18.7906   -6.7193 C   0  0  0  0  0  0  0  0  0  0  0  0
   26.5790  -20.0034   -7.6266 C   0  0  0  0  0  0  0  0  0  0  0  0
   26.7392  -19.8282   -9.1215 C   0  0  1  0  0  0  0  0  0  0  0  0
   25.9335  -20.8393   -9.8946 N   0  0  0  0  0  0  0  0  0  0  0  0
   26.0892  -20.5440  -11.3224 C   0  0  0  0  0  0  0  0  0  0  0  0
   24.5226  -20.8251   -9.4852 O   0  0  0  0  0  0  0  0  0  0  0  0
   23.5810  -20.3209  -10.1226 O   0  0  0  0  0  0  0  0  0  0  0  0
  1  5  1  0
  1  2  1  0
  2  3  1  0
  4  3  1  0
  5  4  1  0
  6 16  1  0
  5  6  1  1
  7  6  2  0
  9  8  1  0
  9 10  2  0
 11  9  1  0
 12 11  1  0
 13 12  1  0
 14 13  1  0
 15 14  1  6
 15 16  1  0
 17 24  1  0
 17 15  1  0
 18 17  2  0
 20 19  1  0
 20 21  1  0
 21 22  1  0
 23 22  1  6
 23 24  1  0
 23 25  1  0
 25 27  1  0
 26 25  2  0
M  END
$$$$
