PRM.pdb
     RDKit          3D

 27 27  0  0  1  0  0  0  0  0999 V2000
   27.5088  -21.4353  -15.3612 N   0  0  0  0  0  0  0  0  0  0  0  0
   28.3051  -21.4457  -16.5911 C   0  0  0  0  0  0  0  0  0  0  0  0
   28.1721  -19.9761  -17.0077 C   0  0  0  0  0  0  0  0  0  0  0  0
   28.0299  -19.2147  -15.7045 C   0  0  0  0  0  0  0  0  0  0  0  0
   28.0826  -20.3162  -14.6658 C   0  0  1  0  0  0  0  0  0  0  0  0
   27.3169  -19.9524  -13.4489 C   0  0  0  0  0  0  0  0  0  0  0  0
   27.5844  -18.9076  -12.7640 O   0  0  0  0  0  0  0  0  0  0  0  0
   19.3734  -20.2609  -14.3551 N   0  0  0  0  0  0  0  0  0  0  0  0
   20.4208  -21.1364  -14.7393 C   0  0  0  0  0  0  0  0  0  0  0  0
   20.2445  -22.1837  -15.4764 N   0  0  0  0  0  0  0  0  0  0  0  0
   21.7550  -20.8413  -14.2831 N   0  0  0  0  0  0  0  0  0  0  0  0
   22.0381  -19.6653  -13.4900 C   0  0  0  0  0  0  0  0  0  0  0  0
   23.5363  -19.5848  -13.2950 C   0  0  0  0  0  0  0  0  0  0  0  0
   23.9475  -20.4583  -12.1022 C   0  0  0  0  0  0  0  0  0  0  0  0
   25.4247  -20.3487  -11.8348 C   0  0  2  0  0  0  0  0  0  0  0  0
   26.2386  -20.7274  -12.9555 N   0  0  0  0  0  0  0  0  0  0  0  0
   25.8139  -20.9858  -10.5671 C   0  0  0  0  0  0  0  0  0  0  0  0
   25.9778  -22.2175  -10.5294 O   0  0  0  0  0  0  0  0  0  0  0  0
   21.0912  -22.7705  -15.6606 C   0  0  0  0  0  0  0  0  0  0  0  0
   28.3552  -18.7141   -4.5517 S   0  0  0  0  0  0  0  0  0  0  0  0
   28.8511  -18.4810   -6.2584 C   0  0  0  0  0  0  0  0  0  0  0  0
   28.1125  -19.6944   -7.3781 C   0  0  0  0  0  0  0  0  0  0  0  0
   26.6331  -19.8592   -7.1036 C   0  0  2  0  0  0  0  0  0  0  0  0
   25.9905  -20.8325   -8.0570 N   0  0  0  0  0  0  0  0  0  0  0  0
   26.0056  -20.2310   -9.3942 C   0  0  0  0  0  0  0  0  0  0  0  0
   24.6281  -21.1791   -7.6301 O   0  0  0  0  0  0  0  0  0  0  0  0
   23.5733  -20.7714   -8.1479 O   0  0  0  0  0  0  0  0  0  0  0  0
  1  5  1  0
  1  2  1  0
  2  3  1  0
  4  3  1  0
  5  4  1  0
  6 16  1  0
  5  6  1  1
  7  6  2  0
  9  8  1  0
  9 10  2  0
 11  9  1  0
 12 11  1  0
 13 12  1  0
 14 13  1  0
 15 14  1  6
 15 16  1  0
 17 24  1  0
 17 15  1  0
 18 17  2  0
 20 19  1  0
 20 21  1  0
 21 22  1  0
 23 22  1  6
 23 24  1  0
 23 25  1  0
 25 27  1  0
 26 25  2  0
M  END
$$$$
