PRM.pdb
     RDKit          3D

 27 27  0  0  1  0  0  0  0  0999 V2000
   29.2275  -23.4580  -16.2980 N   0  0  0  0  0  0  0  0  0  0  0  0
   30.3393  -23.8264  -17.1783 C   0  0  0  0  0  0  0  0  0  0  0  0
   30.1216  -22.8235  -18.3173 C   0  0  0  0  0  0  0  0  0  0  0  0
   29.4983  -21.6114  -17.6535 C   0  0  0  0  0  0  0  0  0  0  0  0
   29.4061  -22.0353  -16.2020 C   0  0  1  0  0  0  0  0  0  0  0  0
   28.2757  -21.3678  -15.5119 C   0  0  0  0  0  0  0  0  0  0  0  0
   28.2522  -20.1067  -15.3086 O   0  0  0  0  0  0  0  0  0  0  0  0
   22.0017  -23.6142  -16.8991 N   0  0  0  0  0  0  0  0  0  0  0  0
   21.5504  -22.5953  -16.0220 C   0  0  0  0  0  0  0  0  0  0  0  0
   20.4695  -22.6832  -15.3183 N   0  0  0  0  0  0  0  0  0  0  0  0
   22.3413  -21.3966  -15.9087 N   0  0  0  0  0  0  0  0  0  0  0  0
   23.2830  -21.0143  -16.9379 C   0  0  0  0  0  0  0  0  0  0  0  0
   24.6266  -20.7899  -16.2794 C   0  0  0  0  0  0  0  0  0  0  0  0
   24.7225  -21.6380  -15.0040 C   0  0  0  0  0  0  0  0  0  0  0  0
   26.0543  -21.4504  -14.3282 C   0  0  2  0  0  0  0  0  0  0  0  0
   27.1438  -22.0696  -15.0292 N   0  0  0  0  0  0  0  0  0  0  0  0
   26.0046  -21.7694  -12.8929 C   0  0  0  0  0  0  0  0  0  0  0  0
   26.1056  -22.9536  -12.5281 O   0  0  0  0  0  0  0  0  0  0  0  0
   20.2401  -21.8604  -14.7138 C   0  0  0  0  0  0  0  0  0  0  0  0
   28.9953  -19.2313   -7.7974 S   0  0  0  0  0  0  0  0  0  0  0  0
   27.2991  -19.2738   -7.2193 C   0  0  0  0  0  0  0  0  0  0  0  0
   26.2501  -20.3772   -8.1958 C   0  0  0  0  0  0  0  0  0  0  0  0
   26.4830  -20.1796   -9.6784 C   0  0  1  0  0  0  0  0  0  0  0  0
   25.5882  -21.0616  -10.5094 N   0  0  0  0  0  0  0  0  0  0  0  0
   25.8456  -20.7627  -11.9217 C   0  0  0  0  0  0  0  0  0  0  0  0
   24.1741  -20.8699  -10.1601 O   0  0  0  0  0  0  0  0  0  0  0  0
   23.3139  -20.3177  -10.8687 O   0  0  0  0  0  0  0  0  0  0  0  0
  1  5  1  0
  1  2  1  0
  2  3  1  0
  4  3  1  0
  5  4  1  0
  6 16  1  0
  5  6  1  6
  7  6  2  0
  9  8  1  0
  9 10  2  0
 11  9  1  0
 12 11  1  0
 13 12  1  0
 14 13  1  0
 15 14  1  6
 15 16  1  0
 17 24  1  0
 17 15  1  0
 18 17  2  0
 20 19  1  0
 20 21  1  0
 21 22  1  0
 23 22  1  6
 23 24  1  0
 23 25  1  0
 25 27  1  0
 26 25  2  0
M  END
$$$$
