PRM.pdb
     RDKit          3D

 27 27  0  0  1  0  0  0  0  0999 V2000
   32.0116  -32.8422  -17.0939 N   0  0  0  0  0  0  0  0  0  0  0  0
   33.1345  -32.0958  -17.6673 C   0  0  0  0  0  0  0  0  0  0  0  0
   32.3792  -30.9204  -18.2987 C   0  0  0  0  0  0  0  0  0  0  0  0
   31.1626  -30.7218  -17.4162 C   0  0  0  0  0  0  0  0  0  0  0  0
   31.3270  -31.8060  -16.3708 C   0  0  1  0  0  0  0  0  0  0  0  0
   30.0157  -32.2551  -15.8432 C   0  0  0  0  0  0  0  0  0  0  0  0
   29.2451  -31.4774  -15.1846 O   0  0  0  0  0  0  0  0  0  0  0  0
   23.9283  -37.3985  -19.6492 N   0  0  0  0  0  0  0  0  0  0  0  0
   23.3329  -36.9387  -18.4470 C   0  0  0  0  0  0  0  0  0  0  0  0
   22.1082  -37.1851  -18.1145 N   0  0  0  0  0  0  0  0  0  0  0  0
   24.1385  -36.1544  -17.5464 N   0  0  0  0  0  0  0  0  0  0  0  0
   25.5068  -35.8096  -17.8642 C   0  0  0  0  0  0  0  0  0  0  0  0
   26.0652  -35.0078  -16.7090 C   0  0  0  0  0  0  0  0  0  0  0  0
   27.5436  -34.6896  -16.9707 C   0  0  0  0  0  0  0  0  0  0  0  0
   28.1511  -33.9477  -15.8106 C   0  0  2  0  0  0  0  0  0  0  0  0
   29.5192  -33.5690  -16.0269 N   0  0  0  0  0  0  0  0  0  0  0  0
   27.9104  -34.6224  -14.5256 C   0  0  0  0  0  0  0  0  0  0  0  0
   28.6553  -35.5551  -14.1782 O   0  0  0  0  0  0  0  0  0  0  0  0
   21.7829  -36.7812  -17.2057 C   0  0  0  0  0  0  0  0  0  0  0  0
   25.9316  -32.7668   -7.2000 S   0  0  0  0  0  0  0  0  0  0  0  0
   26.0336  -32.3886   -8.9492 C   0  0  0  0  0  0  0  0  0  0  0  0
   26.2947  -33.8568   -9.9727 C   0  0  0  0  0  0  0  0  0  0  0  0
   26.4926  -33.4802  -11.4254 C   0  0  1  0  0  0  0  0  0  0  0  0
   26.7508  -34.6877  -12.2881 N   0  0  0  0  0  0  0  0  0  0  0  0
   26.8545  -34.2349  -13.6789 C   0  0  0  0  0  0  0  0  0  0  0  0
   25.6989  -35.6996  -12.1208 O   0  0  0  0  0  0  0  0  0  0  0  0
   25.6797  -36.5999  -11.2629 O   0  0  0  0  0  0  0  0  0  0  0  0
  1  5  1  0
  1  2  1  0
  2  3  1  0
  4  3  1  0
  5  4  1  0
  6 16  1  0
  5  6  1  6
  7  6  2  0
  9  8  1  0
  9 10  2  0
 11  9  1  0
 12 11  1  0
 13 12  1  0
 14 13  1  0
 15 14  1  6
 15 16  1  0
 17 24  1  0
 17 15  1  0
 18 17  2  0
 20 19  1  0
 20 21  1  0
 21 22  1  0
 23 22  1  1
 23 24  1  0
 23 25  1  0
 25 27  1  0
 26 25  2  0
M  END
$$$$
