PRM.pdb
     RDKit          3D

 27 27  0  0  1  0  0  0  0  0999 V2000
   27.9175  -20.0846  -16.0910 N   0  0  0  0  0  0  0  0  0  0  0  0
   28.9004  -19.6640  -17.0930 C   0  0  0  0  0  0  0  0  0  0  0  0
   28.6718  -18.1480  -17.0712 C   0  0  0  0  0  0  0  0  0  0  0  0
   28.2329  -17.8421  -15.6527 C   0  0  0  0  0  0  0  0  0  0  0  0
   28.2393  -19.2084  -14.9983 C   0  0  1  0  0  0  0  0  0  0  0  0
   27.2485  -19.2881  -13.8977 C   0  0  0  0  0  0  0  0  0  0  0  0
   27.3367  -18.5632  -12.8493 O   0  0  0  0  0  0  0  0  0  0  0  0
   19.3842  -22.2862  -11.0348 N   0  0  0  0  0  0  0  0  0  0  0  0
   19.3709  -20.9424  -11.4879 C   0  0  0  0  0  0  0  0  0  0  0  0
   18.4961  -20.0683  -11.1113 N   0  0  0  0  0  0  0  0  0  0  0  0
   20.3896  -20.5291  -12.4189 N   0  0  0  0  0  0  0  0  0  0  0  0
   21.4851  -21.4036  -12.7756 C   0  0  0  0  0  0  0  0  0  0  0  0
   22.7655  -20.7761  -12.2699 C   0  0  0  0  0  0  0  0  0  0  0  0
   23.8054  -20.7483  -13.3981 C   0  0  0  0  0  0  0  0  0  0  0  0
   25.1199  -20.2019  -12.9092 C   0  0  2  0  0  0  0  0  0  0  0  0
   26.1368  -20.1657  -13.9224 N   0  0  0  0  0  0  0  0  0  0  0  0
   25.5510  -20.8233  -11.6473 C   0  0  0  0  0  0  0  0  0  0  0  0
   25.7633  -22.0477  -11.6124 O   0  0  0  0  0  0  0  0  0  0  0  0
   18.6411  -19.0892  -11.4509 C   0  0  0  0  0  0  0  0  0  0  0  0
   29.2775  -20.1003   -5.0426 S   0  0  0  0  0  0  0  0  0  0  0  0
   28.0293  -19.1968   -5.9585 C   0  0  0  0  0  0  0  0  0  0  0  0
   26.9386  -20.2770   -6.9150 C   0  0  0  0  0  0  0  0  0  0  0  0
   26.7499  -19.7526   -8.3224 C   0  0  1  0  0  0  0  0  0  0  0  0
   25.8961  -20.6733   -9.1546 N   0  0  0  0  0  0  0  0  0  0  0  0
   25.7292  -20.0617  -10.4767 C   0  0  0  0  0  0  0  0  0  0  0  0
   24.6035  -20.9350   -8.5073 O   0  0  0  0  0  0  0  0  0  0  0  0
   23.5106  -20.4349   -8.8274 O   0  0  0  0  0  0  0  0  0  0  0  0
  1  5  1  0
  1  2  1  0
  2  3  1  0
  4  3  1  0
  5  4  1  0
  6 16  1  0
  5  6  1  1
  7  6  2  0
  9  8  1  0
  9 10  2  0
 11  9  1  0
 12 11  1  0
 13 12  1  0
 14 13  1  0
 15 14  1  6
 15 16  1  0
 17 24  1  0
 17 15  1  0
 18 17  2  0
 20 19  1  0
 20 21  1  0
 21 22  1  0
 23 22  1  6
 23 24  1  0
 23 25  1  0
 25 27  1  0
 26 25  2  0
M  END
$$$$
