PRM.pdb
     RDKit          3D

 27 27  0  0  1  0  0  0  0  0999 V2000
   27.8003  -20.9740  -15.3452 N   0  0  0  0  0  0  0  0  0  0  0  0
   28.6601  -20.7618  -16.5125 C   0  0  0  0  0  0  0  0  0  0  0  0
   28.4360  -19.2622  -16.7401 C   0  0  0  0  0  0  0  0  0  0  0  0
   28.1651  -18.6964  -15.3599 C   0  0  0  0  0  0  0  0  0  0  0  0
   28.2472  -19.9223  -14.4737 C   0  0  1  0  0  0  0  0  0  0  0  0
   27.3911  -19.7814  -13.2709 C   0  0  0  0  0  0  0  0  0  0  0  0
   27.5970  -18.8776  -12.3916 O   0  0  0  0  0  0  0  0  0  0  0  0
   19.1203  -21.2868  -12.9926 N   0  0  0  0  0  0  0  0  0  0  0  0
   20.2816  -20.9886  -13.7500 C   0  0  0  0  0  0  0  0  0  0  0  0
   20.2963  -20.9184  -15.0408 N   0  0  0  0  0  0  0  0  0  0  0  0
   21.5126  -20.7499  -13.0409 N   0  0  0  0  0  0  0  0  0  0  0  0
   21.5438  -20.6428  -11.5988 C   0  0  0  0  0  0  0  0  0  0  0  0
   22.9640  -20.3235  -11.1862 C   0  0  0  0  0  0  0  0  0  0  0  0
   23.9257  -20.6937  -12.3234 C   0  0  0  0  0  0  0  0  0  0  0  0
   25.3540  -20.4203  -11.9350 C   0  0  2  0  0  0  0  0  0  0  0  0
   26.2880  -20.6295  -13.0053 N   0  0  0  0  0  0  0  0  0  0  0  0
   25.7279  -21.0789  -10.6737 C   0  0  0  0  0  0  0  0  0  0  0  0
   25.8111  -22.3187  -10.6352 O   0  0  0  0  0  0  0  0  0  0  0  0
   21.2214  -20.7137  -15.4847 C   0  0  0  0  0  0  0  0  0  0  0  0
   28.3928  -17.7881   -5.7095 S   0  0  0  0  0  0  0  0  0  0  0  0
   28.3005  -19.4319   -5.0006 C   0  0  0  0  0  0  0  0  0  0  0  0
   27.2715  -20.5599   -5.9702 C   0  0  0  0  0  0  0  0  0  0  0  0
   27.0144  -20.0078   -7.3560 C   0  0  1  0  0  0  0  0  0  0  0  0
   26.2208  -20.9671   -8.2040 N   0  0  0  0  0  0  0  0  0  0  0  0
   25.9947  -20.3360   -9.5080 C   0  0  0  0  0  0  0  0  0  0  0  0
   24.9581  -21.3393   -7.5517 O   0  0  0  0  0  0  0  0  0  0  0  0
   23.8456  -20.8254   -7.7645 O   0  0  0  0  0  0  0  0  0  0  0  0
  1  5  1  0
  1  2  1  0
  2  3  1  0
  4  3  1  0
  5  4  1  0
  6 16  1  0
  5  6  1  1
  7  6  2  0
  9  8  1  0
  9 10  2  0
 11  9  1  0
 12 11  1  0
 13 12  1  0
 14 13  1  0
 15 14  1  6
 15 16  1  0
 17 24  1  0
 17 15  1  0
 18 17  2  0
 20 19  1  0
 20 21  1  0
 21 22  1  0
 23 22  1  6
 23 24  1  0
 23 25  1  0
 25 27  1  0
 26 25  2  0
M  END
$$$$
