PRM.pdb
     RDKit          3D

 27 27  0  0  1  0  0  0  0  0999 V2000
   23.3307  -17.6194  -16.8038 N   0  0  0  0  0  0  0  0  0  0  0  0
   24.0326  -17.0056  -17.9340 C   0  0  0  0  0  0  0  0  0  0  0  0
   24.2211  -18.2350  -18.8307 C   0  0  0  0  0  0  0  0  0  0  0  0
   23.0306  -19.1231  -18.5271 C   0  0  0  0  0  0  0  0  0  0  0  0
   22.2787  -18.3281  -17.4793 C   0  0  1  0  0  0  0  0  0  0  0  0
   21.5171  -19.2156  -16.5672 C   0  0  0  0  0  0  0  0  0  0  0  0
   20.5484  -19.9413  -16.9761 O   0  0  0  0  0  0  0  0  0  0  0  0
   24.5357  -24.3250  -13.7051 N   0  0  0  0  0  0  0  0  0  0  0  0
   25.2229  -23.6498  -14.7458 C   0  0  0  0  0  0  0  0  0  0  0  0
   25.7123  -24.2443  -15.7842 N   0  0  0  0  0  0  0  0  0  0  0  0
   25.3834  -22.2221  -14.6396 N   0  0  0  0  0  0  0  0  0  0  0  0
   24.5181  -21.4265  -13.7968 C   0  0  0  0  0  0  0  0  0  0  0  0
   23.0925  -21.8693  -14.0432 C   0  0  0  0  0  0  0  0  0  0  0  0
   22.1263  -20.9126  -13.3315 C   0  0  0  0  0  0  0  0  0  0  0  0
   21.1744  -20.2782  -14.3097 C   0  0  2  0  0  0  0  0  0  0  0  0
   21.8018  -19.3275  -15.1840 N   0  0  0  0  0  0  0  0  0  0  0  0
   19.9515  -19.7812  -13.6600 C   0  0  0  0  0  0  0  0  0  0  0  0
   19.9837  -18.7006  -13.0463 O   0  0  0  0  0  0  0  0  0  0  0  0
   26.2033  -23.6361  -16.4798 C   0  0  0  0  0  0  0  0  0  0  0  0
   14.2376  -23.2040  -13.9277 S   0  0  0  0  0  0  0  0  0  0  0  0
   13.7227  -21.5700  -13.4002 C   0  0  0  0  0  0  0  0  0  0  0  0
   15.0941  -20.5646  -12.7838 C   0  0  0  0  0  0  0  0  0  0  0  0
   16.3882  -20.9206  -13.4836 C   0  0  2  0  0  0  0  0  0  0  0  0
   17.5424  -20.0908  -12.9851 N   0  0  0  0  0  0  0  0  0  0  0  0
   18.7438  -20.5024  -13.7182 C   0  0  0  0  0  0  0  0  0  0  0  0
   17.7145  -20.2313  -11.5329 O   0  0  0  0  0  0  0  0  0  0  0  0
   18.4144  -21.0839  -10.9583 O   0  0  0  0  0  0  0  0  0  0  0  0
  1  5  1  0
  1  2  1  0
  2  3  1  0
  4  3  1  0
  5  4  1  0
  6 16  1  0
  5  6  1  1
  7  6  2  0
  9  8  1  0
  9 10  2  0
 11  9  1  0
 12 11  1  0
 13 12  1  0
 14 13  1  0
 15 14  1  1
 15 16  1  0
 17 24  1  0
 17 15  1  0
 18 17  2  0
 20 19  1  0
 20 21  1  0
 21 22  1  0
 23 22  1  6
 23 24  1  0
 23 25  1  0
 25 27  1  0
 26 25  2  0
M  END
$$$$
