PRM.pdb
     RDKit          3D

 27 27  0  0  1  0  0  0  0  0999 V2000
   16.7799  -10.4511  -17.4288 N   0  0  0  0  0  0  0  0  0  0  0  0
   15.4073  -10.9086  -17.6601 C   0  0  0  0  0  0  0  0  0  0  0  0
   15.1145  -11.5691  -16.3079 C   0  0  0  0  0  0  0  0  0  0  0  0
   15.9408  -10.7863  -15.3065 C   0  0  0  0  0  0  0  0  0  0  0  0
   16.6373   -9.7603  -16.1767 C   0  0  1  0  0  0  0  0  0  0  0  0
   17.9429   -9.3563  -15.6009 C   0  0  0  0  0  0  0  0  0  0  0  0
   18.0295   -8.6737  -14.5243 O   0  0  0  0  0  0  0  0  0  0  0  0
   25.8609  -12.6933  -16.6229 N   0  0  0  0  0  0  0  0  0  0  0  0
   24.8305  -12.9368  -15.6795 C   0  0  0  0  0  0  0  0  0  0  0  0
   24.6718  -14.0643  -15.0673 N   0  0  0  0  0  0  0  0  0  0  0  0
   23.9105  -11.8675  -15.3870 N   0  0  0  0  0  0  0  0  0  0  0  0
   24.0486  -10.5647  -16.0000 C   0  0  0  0  0  0  0  0  0  0  0  0
   22.9233   -9.6898  -15.4928 C   0  0  0  0  0  0  0  0  0  0  0  0
   21.5842  -10.2093  -16.0331 C   0  0  0  0  0  0  0  0  0  0  0  0
   20.4588   -9.2741  -15.6803 C   0  0  2  0  0  0  0  0  0  0  0  0
   19.1848   -9.6927  -16.1936 N   0  0  0  0  0  0  0  0  0  0  0  0
   20.7882   -7.8685  -15.9636 C   0  0  0  0  0  0  0  0  0  0  0  0
   21.0139   -7.5198  -17.1353 O   0  0  0  0  0  0  0  0  0  0  0  0
   23.8211  -14.1500  -14.4641 C   0  0  0  0  0  0  0  0  0  0  0  0
   19.0342   -0.4511  -14.9044 S   0  0  0  0  0  0  0  0  0  0  0  0
   18.7919   -2.2069  -14.6370 C   0  0  0  0  0  0  0  0  0  0  0  0
   20.2468   -3.1918  -15.0669 C   0  0  0  0  0  0  0  0  0  0  0  0
   19.9755   -4.6704  -14.8900 C   0  0  1  0  0  0  0  0  0  0  0  0
   21.1940   -5.5042  -15.1885 N   0  0  0  0  0  0  0  0  0  0  0  0
   20.8531   -6.9079  -14.9364 C   0  0  0  0  0  0  0  0  0  0  0  0
   22.3478   -5.0708  -14.3890 O   0  0  0  0  0  0  0  0  0  0  0  0
   22.6801   -5.5234  -13.2791 O   0  0  0  0  0  0  0  0  0  0  0  0
  1  5  1  0
  1  2  1  0
  2  3  1  0
  4  3  1  0
  5  4  1  0
  6 16  1  0
  5  6  1  1
  7  6  2  0
  9  8  1  0
  9 10  2  0
 11  9  1  0
 12 11  1  0
 13 12  1  0
 14 13  1  0
 15 14  1  6
 15 16  1  0
 17 24  1  0
 17 15  1  0
 18 17  2  0
 20 19  1  0
 20 21  1  0
 21 22  1  0
 23 22  1  6
 23 24  1  0
 23 25  1  0
 25 27  1  0
 26 25  2  0
M  END
$$$$
