PRM.pdb
     RDKit          3D

 27 27  0  0  1  0  0  0  0  0999 V2000
   26.3186  -17.1738  -15.7955 N   0  0  0  0  0  0  0  0  0  0  0  0
   27.4363  -16.3519  -16.2668 C   0  0  0  0  0  0  0  0  0  0  0  0
   28.5138  -17.4313  -16.4240 C   0  0  0  0  0  0  0  0  0  0  0  0
   27.7508  -18.6930  -16.7762 C   0  0  0  0  0  0  0  0  0  0  0  0
   26.3103  -18.2239  -16.7767 C   0  0  1  0  0  0  0  0  0  0  0  0
   25.3808  -19.3235  -16.4214 C   0  0  0  0  0  0  0  0  0  0  0  0
   25.0712  -20.2465  -17.2489 O   0  0  0  0  0  0  0  0  0  0  0  0
   27.4175  -21.1037   -9.6620 N   0  0  0  0  0  0  0  0  0  0  0  0
   26.0388  -20.8119   -9.8208 C   0  0  0  0  0  0  0  0  0  0  0  0
   25.3325  -20.1874   -8.9363 N   0  0  0  0  0  0  0  0  0  0  0  0
   25.3903  -21.2344  -11.0358 N   0  0  0  0  0  0  0  0  0  0  0  0
   26.0914  -22.0115  -12.0341 C   0  0  0  0  0  0  0  0  0  0  0  0
   25.7509  -21.4398  -13.3929 C   0  0  0  0  0  0  0  0  0  0  0  0
   24.2450  -21.1538  -13.4680 C   0  0  0  0  0  0  0  0  0  0  0  0
   23.8825  -20.5019  -14.7754 C   0  0  2  0  0  0  0  0  0  0  0  0
   24.7694  -19.4360  -15.1485 N   0  0  0  0  0  0  0  0  0  0  0  0
   22.4559  -20.1505  -14.8501 C   0  0  0  0  0  0  0  0  0  0  0  0
   22.0782  -19.0434  -14.4292 O   0  0  0  0  0  0  0  0  0  0  0  0
   24.3383  -19.9857   -9.1930 C   0  0  0  0  0  0  0  0  0  0  0  0
   15.3369  -22.6235  -17.4930 S   0  0  0  0  0  0  0  0  0  0  0  0
   17.0989  -22.8833  -17.2906 C   0  0  0  0  0  0  0  0  0  0  0  0
   17.9077  -21.5458  -16.3804 C   0  0  0  0  0  0  0  0  0  0  0  0
   19.3971  -21.7890  -16.2638 C   0  0  2  0  0  0  0  0  0  0  0  0
   20.0715  -20.7442  -15.4135 N   0  0  0  0  0  0  0  0  0  0  0  0
   21.5073  -21.0406  -15.3887 C   0  0  0  0  0  0  0  0  0  0  0  0
   19.4992  -20.7041  -14.0610 O   0  0  0  0  0  0  0  0  0  0  0  0
   19.8473  -21.4105  -13.0982 O   0  0  0  0  0  0  0  0  0  0  0  0
  1  5  1  0
  1  2  1  0
  2  3  1  0
  4  3  1  0
  5  4  1  0
  6 16  1  0
  5  6  1  1
  7  6  2  0
  9  8  1  0
  9 10  2  0
 11  9  1  0
 12 11  1  0
 13 12  1  0
 14 13  1  0
 15 14  1  1
 15 16  1  0
 17 24  1  0
 17 15  1  0
 18 17  2  0
 20 19  1  0
 20 21  1  0
 21 22  1  0
 23 22  1  6
 23 24  1  0
 23 25  1  0
 25 27  1  0
 26 25  2  0
M  END
$$$$
