PRM.pdb
     RDKit          3D

 27 27  0  0  1  0  0  0  0  0999 V2000
   29.7164  -21.9765  -16.8043 N   0  0  0  0  0  0  0  0  0  0  0  0
   30.7135  -22.6051  -17.6748 C   0  0  0  0  0  0  0  0  0  0  0  0
   29.8623  -23.7197  -18.2943 C   0  0  0  0  0  0  0  0  0  0  0  0
   28.4547  -23.1578  -18.3318 C   0  0  0  0  0  0  0  0  0  0  0  0
   28.6272  -21.7820  -17.7214 C   0  0  1  0  0  0  0  0  0  0  0  0
   27.3888  -21.3300  -17.0421 C   0  0  0  0  0  0  0  0  0  0  0  0
   26.4139  -20.8078  -17.6820 O   0  0  0  0  0  0  0  0  0  0  0  0
   21.2798  -22.7625  -12.9174 N   0  0  0  0  0  0  0  0  0  0  0  0
   22.1832  -23.8515  -13.0131 C   0  0  0  0  0  0  0  0  0  0  0  0
   21.8688  -25.0008  -13.5144 N   0  0  0  0  0  0  0  0  0  0  0  0
   23.5258  -23.6655  -12.5251 N   0  0  0  0  0  0  0  0  0  0  0  0
   23.9713  -22.3891  -12.0107 C   0  0  0  0  0  0  0  0  0  0  0  0
   24.2887  -21.4968  -13.1905 C   0  0  0  0  0  0  0  0  0  0  0  0
   25.6535  -21.8839  -13.7759 C   0  0  0  0  0  0  0  0  0  0  0  0
   25.9938  -21.0290  -14.9670 C   0  0  2  0  0  0  0  0  0  0  0  0
   27.1912  -21.4412  -15.6438 N   0  0  0  0  0  0  0  0  0  0  0  0
   25.9427  -19.5914  -14.6583 C   0  0  0  0  0  0  0  0  0  0  0  0
   26.7249  -19.1214  -13.8141 O   0  0  0  0  0  0  0  0  0  0  0  0
   22.5700  -25.7681  -13.3938 C   0  0  0  0  0  0  0  0  0  0  0  0
   29.1307  -16.0438  -16.9655 S   0  0  0  0  0  0  0  0  0  0  0  0
   28.2663  -14.8025  -16.0037 C   0  0  0  0  0  0  0  0  0  0  0  0
   26.6010  -15.3186  -15.5223 C   0  0  0  0  0  0  0  0  0  0  0  0
   26.4519  -16.8227  -15.6038 C   0  0  1  0  0  0  0  0  0  0  0  0
   25.0842  -17.2757  -15.1640 N   0  0  0  0  0  0  0  0  0  0  0  0
   25.0271  -18.7347  -15.2986 C   0  0  0  0  0  0  0  0  0  0  0  0
   24.0264  -16.6145  -15.9400 O   0  0  0  0  0  0  0  0  0  0  0  0
   23.5817  -15.4697  -15.7433 O   0  0  0  0  0  0  0  0  0  0  0  0
  1  5  1  0
  1  2  1  0
  2  3  1  0
  4  3  1  0
  5  4  1  0
  6 16  1  0
  5  6  1  1
  7  6  2  0
  9  8  1  0
  9 10  2  0
 11  9  1  0
 12 11  1  0
 13 12  1  0
 14 13  1  0
 15 14  1  1
 15 16  1  0
 17 24  1  0
 17 15  1  0
 18 17  2  0
 20 19  1  0
 20 21  1  0
 21 22  1  0
 23 22  1  1
 23 24  1  0
 23 25  1  0
 25 27  1  0
 26 25  2  0
M  END
$$$$
