VRT.pdb
     RDKit          3D

 26 25  0  0  1  0  0  0  0  0999 V2000
   28.3993  -18.3343  -16.3576 C   0  0  0  0  0  0  0  0  0  0  0  0
   27.0892  -18.9613  -15.9227 C   0  0  1  0  0  0  0  0  0  0  0  0
   26.2272  -19.3401  -17.0812 C   0  0  0  0  0  0  0  0  0  0  0  0
   27.4492  -20.1202  -15.0325 C   0  0  2  0  0  0  0  0  0  0  0  0
   28.1730  -21.0799  -15.8306 N   0  0  0  0  0  0  0  0  0  0  0  0
   26.3005  -20.7522  -14.3822 C   0  0  0  0  0  0  0  0  0  0  0  0
   25.8696  -21.8662  -14.8062 O   0  0  0  0  0  0  0  0  0  0  0  0
   22.9857  -22.3472   -7.6017 N   0  0  0  0  0  0  0  0  0  0  0  0
   21.8113  -21.5975   -7.8271 C   0  0  0  0  0  0  0  0  0  0  0  0
   20.6818  -22.0584   -7.4384 N   0  0  0  0  0  0  0  0  0  0  0  0
   21.8822  -20.3183   -8.4921 N   0  0  0  0  0  0  0  0  0  0  0  0
   23.0901  -19.9904   -9.1842 C   0  0  0  0  0  0  0  0  0  0  0  0
   23.0679  -20.6190  -10.5796 C   0  0  0  0  0  0  0  0  0  0  0  0
   24.2718  -20.1970  -11.3391 C   0  0  0  0  0  0  0  0  0  0  0  0
   24.3811  -20.7844  -12.7219 C   0  0  2  0  0  0  0  0  0  0  0  0
   25.6202  -20.1842  -13.2790 N   0  0  0  0  0  0  0  0  0  0  0  0
   23.2336  -20.4784  -13.5749 C   0  0  0  0  0  0  0  0  0  0  0  0
   23.0552  -19.2542  -13.9017 O   0  0  0  0  0  0  0  0  0  0  0  0
   19.7730  -21.5890   -7.5603 C   0  0  0  0  0  0  0  0  0  0  0  0
   20.5042  -23.3046  -15.5836 C   0  0  2  0  0  0  0  0  0  0  0  0
   21.0299  -21.9872  -16.0963 O   0  0  0  0  0  0  0  0  0  0  0  0
   20.0664  -21.4537  -16.9508 C   0  0  1  0  0  0  0  0  0  0  0  0
   21.2481  -20.9882  -14.9807 N   0  0  0  0  0  0  0  0  0  0  0  0
   22.2988  -21.4170  -14.0789 C   0  0  0  0  0  0  0  0  0  0  0  0
   19.9868  -20.7296  -14.2306 O   0  0  0  0  0  0  0  0  0  0  0  0
   19.9116  -20.9671  -12.9986 O   0  0  0  0  0  0  0  0  0  0  0  0
  2  3  1  6
  2  1  1  0
  4  2  1  0
  4  5  1  6
  6  4  1  0
  6  7  2  0
  9  8  1  0
 10  9  2  0
 11  9  1  0
 12 11  1  0
 13 12  1  0
 13 14  1  0
 15 14  1  1
 16 15  1  0
 16  6  1  0
 17 15  1  0
 18 17  2  0
 20 19  1  6
 20 22  1  0
 21 20  1  0
 22 24  1  0
 22 23  1  6
 23 17  1  0
 24 26  1  0
 25 24  2  0
M  END
$$$$
