VRT.pdb
     RDKit          3D

 26 25  0  0  1  0  0  0  0  0999 V2000
   18.3536  -14.9981  -17.0388 C   0  0  0  0  0  0  0  0  0  0  0  0
   19.0541  -14.0626  -16.0731 C   0  0  1  0  0  0  0  0  0  0  0  0
   20.5180  -14.3381  -15.9743 C   0  0  0  0  0  0  0  0  0  0  0  0
   18.7313  -12.6648  -16.5281 C   0  0  2  0  0  0  0  0  0  0  0  0
   19.0605  -12.5712  -17.9298 N   0  0  0  0  0  0  0  0  0  0  0  0
   19.4135  -11.6172  -15.7672 C   0  0  0  0  0  0  0  0  0  0  0  0
   19.2150  -11.5125  -14.5198 O   0  0  0  0  0  0  0  0  0  0  0  0
   27.0851  -11.7071  -16.2039 N   0  0  0  0  0  0  0  0  0  0  0  0
   26.0148  -12.1481  -17.0114 C   0  0  0  0  0  0  0  0  0  0  0  0
   26.2602  -12.7713  -18.1026 N   0  0  0  0  0  0  0  0  0  0  0  0
   24.6509  -11.8984  -16.6102 N   0  0  0  0  0  0  0  0  0  0  0  0
   24.4246  -11.3780  -15.2974 C   0  0  0  0  0  0  0  0  0  0  0  0
   22.9218  -11.1973  -15.0698 C   0  0  0  0  0  0  0  0  0  0  0  0
   22.4616   -9.9478  -15.7266 C   0  0  0  0  0  0  0  0  0  0  0  0
   20.9968   -9.6457  -15.5473 C   0  0  2  0  0  0  0  0  0  0  0  0
   20.3061  -10.6867  -16.3505 N   0  0  0  0  0  0  0  0  0  0  0  0
   20.6196   -8.3092  -16.0052 C   0  0  0  0  0  0  0  0  0  0  0  0
   20.8403   -8.0256  -17.2332 O   0  0  0  0  0  0  0  0  0  0  0  0
   25.5501  -13.1647  -18.7366 C   0  0  0  0  0  0  0  0  0  0  0  0
   17.3356   -6.7313  -16.4294 C   0  0  2  0  0  0  0  0  0  0  0  0
   18.1784   -5.7478  -15.6567 O   0  0  0  0  0  0  0  0  0  0  0  0
   17.8616   -5.8916  -14.3069 C   0  0  2  0  0  0  0  0  0  0  0  0
   19.6586   -6.0256  -15.8062 N   0  0  0  0  0  0  0  0  0  0  0  0
   20.0254   -7.2958  -15.2122 C   0  0  0  0  0  0  0  0  0  0  0  0
   20.4777   -4.9218  -15.2309 O   0  0  0  0  0  0  0  0  0  0  0  0
   21.2624   -5.1362  -14.2726 O   0  0  0  0  0  0  0  0  0  0  0  0
  2  3  1  6
  2  1  1  0
  4  2  1  0
  4  5  1  6
  6  4  1  0
  6  7  2  0
  9  8  1  0
 10  9  2  0
 11  9  1  0
 12 11  1  0
 13 12  1  0
 13 14  1  0
 15 14  1  6
 16 15  1  0
 16  6  1  0
 17 15  1  0
 18 17  2  0
 20 19  1  6
 20 22  1  0
 21 20  1  0
 22 24  1  0
 22 23  1  6
 23 17  1  0
 24 26  1  0
 25 24  2  0
M  END
$$$$
