VRT.pdb
     RDKit          3D

 26 25  0  0  1  0  0  0  0  0999 V2000
   27.0720  -24.3976  -18.4088 C   0  0  0  0  0  0  0  0  0  0  0  0
   27.3520  -24.3806  -16.9189 C   0  0  1  0  0  0  0  0  0  0  0  0
   27.4240  -25.7537  -16.3375 C   0  0  0  0  0  0  0  0  0  0  0  0
   28.6122  -23.5788  -16.7339 C   0  0  2  0  0  0  0  0  0  0  0  0
   28.3905  -22.2725  -17.3052 N   0  0  0  0  0  0  0  0  0  0  0  0
   29.8045  -24.1993  -17.3132 C   0  0  0  0  0  0  0  0  0  0  0  0
   30.0262  -24.0999  -18.5572 O   0  0  0  0  0  0  0  0  0  0  0  0
   37.3354  -25.1160  -13.7110 N   0  0  0  0  0  0  0  0  0  0  0  0
   36.0930  -25.6868  -13.3609 C   0  0  0  0  0  0  0  0  0  0  0  0
   35.8357  -25.9379  -12.1320 N   0  0  0  0  0  0  0  0  0  0  0  0
   35.1173  -25.9862  -14.3816 N   0  0  0  0  0  0  0  0  0  0  0  0
   35.4435  -25.6587  -15.7351 C   0  0  0  0  0  0  0  0  0  0  0  0
   34.3023  -26.0948  -16.6571 C   0  0  0  0  0  0  0  0  0  0  0  0
   33.0568  -25.3756  -16.2885 C   0  0  0  0  0  0  0  0  0  0  0  0
   31.8800  -25.6545  -17.1867 C   0  0  2  0  0  0  0  0  0  0  0  0
   30.7530  -24.9236  -16.5530 N   0  0  0  0  0  0  0  0  0  0  0  0
   31.5664  -27.0775  -17.3073 C   0  0  0  0  0  0  0  0  0  0  0  0
   30.9807  -27.6356  -16.3159 O   0  0  0  0  0  0  0  0  0  0  0  0
   34.9858  -26.4049  -11.7848 C   0  0  0  0  0  0  0  0  0  0  0  0
   29.2759  -28.8497  -19.8417 C   0  0  2  0  0  0  0  0  0  0  0  0
   30.6215  -29.5286  -19.7854 O   0  0  0  0  0  0  0  0  0  0  0  0
   31.4023  -29.0009  -20.8125 C   0  0  2  0  0  0  0  0  0  0  0  0
   31.3427  -29.2560  -18.4831 N   0  0  0  0  0  0  0  0  0  0  0  0
   31.8485  -27.8988  -18.4275 C   0  0  0  0  0  0  0  0  0  0  0  0
   32.4433  -30.2351  -18.2580 O   0  0  0  0  0  0  0  0  0  0  0  0
   32.1955  -31.4595  -18.1185 O   0  0  0  0  0  0  0  0  0  0  0  0
  2  3  1  6
  2  1  1  0
  4  2  1  0
  4  5  1  6
  6  4  1  0
  6  7  2  0
  9  8  1  0
 10  9  2  0
 11  9  1  0
 12 11  1  0
 13 12  1  0
 13 14  1  0
 15 14  1  1
 16 15  1  0
 16  6  1  0
 17 15  1  0
 18 17  2  0
 20 19  1  6
 20 22  1  0
 21 20  1  0
 22 24  1  0
 22 23  1  1
 23 17  1  0
 24 26  1  0
 25 24  2  0
M  END
$$$$
