VRT.pdb
     RDKit          3D

 26 25  0  0  1  0  0  0  0  0999 V2000
   20.9199  -19.7813  -17.3392 C   0  0  0  0  0  0  0  0  0  0  0  0
   19.8516  -19.6478  -16.2719 C   0  0  1  0  0  0  0  0  0  0  0  0
   18.5200  -20.1390  -16.7347 C   0  0  0  0  0  0  0  0  0  0  0  0
   20.3733  -20.3684  -15.0580 C   0  0  2  0  0  0  0  0  0  0  0  0
   19.4670  -20.1051  -13.9665 N   0  0  0  0  0  0  0  0  0  0  0  0
   21.7424  -20.0043  -14.6905 C   0  0  0  0  0  0  0  0  0  0  0  0
   21.9522  -18.9791  -13.9753 O   0  0  0  0  0  0  0  0  0  0  0  0
   25.4074  -20.9710   -7.9487 N   0  0  0  0  0  0  0  0  0  0  0  0
   24.3126  -20.7288   -8.8059 C   0  0  0  0  0  0  0  0  0  0  0  0
   23.1218  -20.7629   -8.3369 N   0  0  0  0  0  0  0  0  0  0  0  0
   24.5332  -20.4441  -10.2037 N   0  0  0  0  0  0  0  0  0  0  0  0
   25.2824  -21.3920  -10.9691 C   0  0  0  0  0  0  0  0  0  0  0  0
   25.4664  -20.8681  -12.3954 C   0  0  0  0  0  0  0  0  0  0  0  0
   24.1828  -20.9654  -13.1351 C   0  0  0  0  0  0  0  0  0  0  0  0
   24.2349  -20.4628  -14.5542 C   0  0  2  0  0  0  0  0  0  0  0  0
   22.8798  -20.7436  -15.0933 N   0  0  0  0  0  0  0  0  0  0  0  0
   25.2573  -21.1213  -15.3660 C   0  0  0  0  0  0  0  0  0  0  0  0
   25.1404  -22.3826  -15.5473 O   0  0  0  0  0  0  0  0  0  0  0  0
   22.2630  -20.5889   -8.8784 C   0  0  0  0  0  0  0  0  0  0  0  0
   27.1371  -19.5725  -18.7112 C   0  0  2  0  0  0  0  0  0  0  0  0
   28.0345  -20.3334  -17.7677 O   0  0  0  0  0  0  0  0  0  0  0  0
   28.6950  -19.3998  -16.9706 C   0  0  2  0  0  0  0  0  0  0  0  0
   27.2511  -21.2423  -16.8453 N   0  0  0  0  0  0  0  0  0  0  0  0
   26.3686  -20.4885  -15.9771 C   0  0  0  0  0  0  0  0  0  0  0  0
   28.1574  -22.1122  -16.0439 O   0  0  0  0  0  0  0  0  0  0  0  0
   28.1734  -22.0402  -14.7891 O   0  0  0  0  0  0  0  0  0  0  0  0
  2  3  1  6
  2  1  1  0
  4  2  1  0
  4  5  1  1
  6  4  1  0
  6  7  2  0
  9  8  1  0
 10  9  2  0
 11  9  1  0
 12 11  1  0
 13 12  1  0
 13 14  1  0
 15 14  1  1
 16 15  1  0
 16  6  1  0
 17 15  1  0
 18 17  2  0
 20 19  1  6
 20 22  1  0
 21 20  1  0
 22 24  1  0
 22 23  1  6
 23 17  1  0
 24 26  1  0
 25 24  2  0
M  END
$$$$
