VRT.pdb
     RDKit          3D

 26 25  0  0  1  0  0  0  0  0999 V2000
   28.6224  -20.5665  -16.9934 C   0  0  0  0  0  0  0  0  0  0  0  0
   27.8487  -19.9378  -18.1357 C   0  0  1  0  0  0  0  0  0  0  0  0
   27.5613  -20.9100  -19.2315 C   0  0  0  0  0  0  0  0  0  0  0  0
   26.6136  -19.3303  -17.5271 C   0  0  2  0  0  0  0  0  0  0  0  0
   27.0063  -18.1156  -16.8545 N   0  0  0  0  0  0  0  0  0  0  0  0
   25.9010  -20.2204  -16.6095 C   0  0  0  0  0  0  0  0  0  0  0  0
   25.2224  -21.1876  -17.0684 O   0  0  0  0  0  0  0  0  0  0  0  0
   23.5783  -19.5668   -9.4355 N   0  0  0  0  0  0  0  0  0  0  0  0
   24.1654  -20.7529   -8.9450 C   0  0  0  0  0  0  0  0  0  0  0  0
   23.6337  -21.3576   -7.9496 N   0  0  0  0  0  0  0  0  0  0  0  0
   25.3586  -21.2819   -9.5614 N   0  0  0  0  0  0  0  0  0  0  0  0
   25.9766  -20.5093  -10.5942 C   0  0  0  0  0  0  0  0  0  0  0  0
   25.0637  -20.4722  -11.8222 C   0  0  0  0  0  0  0  0  0  0  0  0
   25.8073  -20.9508  -13.0148 C   0  0  0  0  0  0  0  0  0  0  0  0
   25.0422  -20.8644  -14.3096 C   0  0  2  0  0  0  0  0  0  0  0  0
   25.9209  -20.0669  -15.2029 N   0  0  0  0  0  0  0  0  0  0  0  0
   23.7350  -20.2243  -14.1698 C   0  0  0  0  0  0  0  0  0  0  0  0
   23.6765  -19.1567  -13.4669 O   0  0  0  0  0  0  0  0  0  0  0  0
   24.0034  -22.2092   -7.5032 C   0  0  0  0  0  0  0  0  0  0  0  0
   21.5942  -18.2644  -16.3607 C   0  0  2  0  0  0  0  0  0  0  0  0
   20.7383  -19.3807  -15.8166 O   0  0  0  0  0  0  0  0  0  0  0  0
   20.7426  -20.4103  -16.7562 C   0  0  2  0  0  0  0  0  0  0  0  0
   21.2910  -19.9443  -14.5253 N   0  0  0  0  0  0  0  0  0  0  0  0
   22.5221  -20.6766  -14.7468 C   0  0  0  0  0  0  0  0  0  0  0  0
   20.2872  -20.8028  -13.8355 O   0  0  0  0  0  0  0  0  0  0  0  0
   20.5450  -22.0032  -13.5664 O   0  0  0  0  0  0  0  0  0  0  0  0
  2  3  1  6
  2  1  1  0
  4  2  1  0
  4  5  1  1
  6  4  1  0
  6  7  2  0
  9  8  1  0
 10  9  2  0
 11  9  1  0
 12 11  1  0
 13 12  1  0
 13 14  1  0
 15 14  1  1
 16 15  1  0
 16  6  1  0
 17 15  1  0
 18 17  2  0
 20 19  1  6
 20 22  1  0
 21 20  1  0
 22 24  1  0
 22 23  1  1
 23 17  1  0
 24 26  1  0
 25 24  2  0
M  END
$$$$
