VRT.pdb
     RDKit          3D

 26 25  0  0  1  0  0  0  0  0999 V2000
   18.0864  -13.9036  -19.1998 C   0  0  0  0  0  0  0  0  0  0  0  0
   18.2941  -14.6132  -17.8762 C   0  0  1  0  0  0  0  0  0  0  0  0
   18.8722  -15.9789  -18.0472 C   0  0  0  0  0  0  0  0  0  0  0  0
   19.1421  -13.6987  -17.0338 C   0  0  2  0  0  0  0  0  0  0  0  0
   19.2119  -14.2614  -15.7070 N   0  0  0  0  0  0  0  0  0  0  0  0
   18.6612  -12.3173  -16.9834 C   0  0  0  0  0  0  0  0  0  0  0  0
   18.6403  -11.6176  -18.0400 O   0  0  0  0  0  0  0  0  0  0  0  0
   11.7302   -9.2395  -13.4845 N   0  0  0  0  0  0  0  0  0  0  0  0
   12.0877   -9.4915  -14.8264 C   0  0  0  0  0  0  0  0  0  0  0  0
   11.1822   -9.8109  -15.6734 N   0  0  0  0  0  0  0  0  0  0  0  0
   13.4662   -9.3901  -15.2426 N   0  0  0  0  0  0  0  0  0  0  0  0
   14.4484   -9.1119  -14.2410 C   0  0  0  0  0  0  0  0  0  0  0  0
   15.8215   -8.9559  -14.8991 C   0  0  0  0  0  0  0  0  0  0  0  0
   16.4322  -10.2928  -15.1087 C   0  0  0  0  0  0  0  0  0  0  0  0
   17.7878  -10.2692  -15.7652 C   0  0  2  0  0  0  0  0  0  0  0  0
   18.2050  -11.6942  -15.7976 N   0  0  0  0  0  0  0  0  0  0  0  0
   18.7693   -9.4628  -15.0411 C   0  0  0  0  0  0  0  0  0  0  0  0
   18.9015   -9.6847  -13.7879 O   0  0  0  0  0  0  0  0  0  0  0  0
   11.3444  -10.0175  -16.6694 C   0  0  0  0  0  0  0  0  0  0  0  0
   22.4904   -9.2800  -15.2300 C   0  0  2  0  0  0  0  0  0  0  0  0
   21.9587   -7.8720  -15.3267 O   0  0  0  0  0  0  0  0  0  0  0  0
   21.9040   -7.5348  -16.6781 C   0  0  2  0  0  0  0  0  0  0  0  0
   20.5548   -7.7543  -14.7738 N   0  0  0  0  0  0  0  0  0  0  0  0
   19.5948   -8.4565  -15.6023 C   0  0  0  0  0  0  0  0  0  0  0  0
   20.1570   -6.3283  -14.6046 O   0  0  0  0  0  0  0  0  0  0  0  0
   20.7903   -5.5727  -13.8249 O   0  0  0  0  0  0  0  0  0  0  0  0
  2  3  1  6
  2  1  1  0
  4  2  1  0
  4  5  1  1
  6  4  1  0
  6  7  2  0
  9  8  1  0
 10  9  2  0
 11  9  1  0
 12 11  1  0
 13 12  1  0
 13 14  1  0
 15 14  1  1
 16 15  1  0
 16  6  1  0
 17 15  1  0
 18 17  2  0
 20 19  1  1
 20 22  1  0
 21 20  1  0
 22 24  1  0
 22 23  1  1
 23 17  1  0
 24 26  1  0
 25 24  2  0
M  END
$$$$
