VRT.pdb
     RDKit          3D

 26 25  0  0  1  0  0  0  0  0999 V2000
   23.6229  -20.7776   -8.6665 C   0  0  0  0  0  0  0  0  0  0  0  0
   24.0645  -19.8488   -9.7804 C   0  0  1  0  0  0  0  0  0  0  0  0
   25.5296  -19.5655   -9.7380 C   0  0  0  0  0  0  0  0  0  0  0  0
   23.6082  -20.4829  -11.0667 C   0  0  2  0  0  0  0  0  0  0  0  0
   24.3196  -21.7289  -11.2196 N   0  0  0  0  0  0  0  0  0  0  0  0
   23.7911  -19.6367  -12.2468 C   0  0  0  0  0  0  0  0  0  0  0  0
   23.1071  -18.5774  -12.3756 O   0  0  0  0  0  0  0  0  0  0  0  0
   28.3034  -21.4449  -15.9160 N   0  0  0  0  0  0  0  0  0  0  0  0
   28.3673  -20.8972  -17.2153 C   0  0  0  0  0  0  0  0  0  0  0  0
   28.3590  -21.6760  -18.2315 N   0  0  0  0  0  0  0  0  0  0  0  0
   28.4416  -19.4674  -17.3984 N   0  0  0  0  0  0  0  0  0  0  0  0
   28.2775  -18.6363  -16.2461 C   0  0  0  0  0  0  0  0  0  0  0  0
   26.7865  -18.4030  -15.9907 C   0  0  0  0  0  0  0  0  0  0  0  0
   26.3415  -19.2213  -14.8345 C   0  0  0  0  0  0  0  0  0  0  0  0
   24.8970  -19.0341  -14.4503 C   0  0  2  0  0  0  0  0  0  0  0  0
   24.7081  -19.9329  -13.2830 N   0  0  0  0  0  0  0  0  0  0  0  0
   23.9623  -19.3788  -15.5206 C   0  0  0  0  0  0  0  0  0  0  0  0
   23.9445  -20.5960  -15.9148 O   0  0  0  0  0  0  0  0  0  0  0  0
   28.4027  -21.3727  -19.2149 C   0  0  0  0  0  0  0  0  0  0  0  0
   20.1678  -19.1237  -15.5523 C   0  0  2  0  0  0  0  0  0  0  0  0
   20.7067  -18.5094  -16.8199 O   0  0  0  0  0  0  0  0  0  0  0  0
   20.7657  -17.1302  -16.6269 C   0  0  2  0  0  0  0  0  0  0  0  0
   22.1101  -18.9833  -17.1303 N   0  0  0  0  0  0  0  0  0  0  0  0
   23.0672  -18.4864  -16.1618 C   0  0  0  0  0  0  0  0  0  0  0  0
   22.5171  -18.6028  -18.5123 O   0  0  0  0  0  0  0  0  0  0  0  0
   23.5084  -17.8549  -18.7073 O   0  0  0  0  0  0  0  0  0  0  0  0
  2  3  1  6
  2  1  1  0
  4  2  1  0
  4  5  1  6
  6  4  1  0
  6  7  2  0
  9  8  1  0
 10  9  2  0
 11  9  1  0
 12 11  1  0
 13 12  1  0
 13 14  1  0
 15 14  1  6
 16 15  1  0
 16  6  1  0
 17 15  1  0
 18 17  2  0
 20 19  1  6
 20 22  1  0
 21 20  1  0
 22 24  1  0
 22 23  1  6
 23 17  1  0
 24 26  1  0
 25 24  2  0
M  END
$$$$
