VRT.pdb
     RDKit          3D

 26 25  0  0  1  0  0  0  0  0999 V2000
   24.2294  -17.4636  -15.8803 C   0  0  0  0  0  0  0  0  0  0  0  0
   23.9936  -18.0782  -17.2459 C   0  0  1  0  0  0  0  0  0  0  0  0
   23.7230  -17.0500  -18.2939 C   0  0  0  0  0  0  0  0  0  0  0  0
   25.1949  -18.9368  -17.5372 C   0  0  2  0  0  0  0  0  0  0  0  0
   24.9110  -19.7016  -18.7273 N   0  0  0  0  0  0  0  0  0  0  0  0
   25.5776  -19.8208  -16.4353 C   0  0  0  0  0  0  0  0  0  0  0  0
   24.8311  -20.7953  -16.1198 O   0  0  0  0  0  0  0  0  0  0  0  0
   31.0770  -20.5983  -10.8640 N   0  0  0  0  0  0  0  0  0  0  0  0
   31.5293  -21.8628  -11.2983 C   0  0  0  0  0  0  0  0  0  0  0  0
   32.1548  -22.6258  -10.4822 N   0  0  0  0  0  0  0  0  0  0  0  0
   31.2886  -22.2943  -12.6545 N   0  0  0  0  0  0  0  0  0  0  0  0
   30.7333  -21.3456  -13.5695 C   0  0  0  0  0  0  0  0  0  0  0  0
   29.2200  -21.2552  -13.3581 C   0  0  0  0  0  0  0  0  0  0  0  0
   28.6123  -20.4274  -14.4304 C   0  0  0  0  0  0  0  0  0  0  0  0
   27.1177  -20.5642  -14.5599 C   0  0  2  0  0  0  0  0  0  0  0  0
   26.7610  -19.6535  -15.6777 N   0  0  0  0  0  0  0  0  0  0  0  0
   26.3936  -20.1942  -13.3447 C   0  0  0  0  0  0  0  0  0  0  0  0
   26.5453  -18.9997  -12.9118 O   0  0  0  0  0  0  0  0  0  0  0  0
   32.5918  -23.5265  -10.7247 C   0  0  0  0  0  0  0  0  0  0  0  0
   22.8611  -19.6945  -12.6060 C   0  0  2  0  0  0  0  0  0  0  0  0
   23.3784  -20.6002  -11.5166 O   0  0  0  0  0  0  0  0  0  0  0  0
   23.0327  -21.9071  -11.8565 C   0  0  2  0  0  0  0  0  0  0  0  0
   24.8864  -20.5468  -11.3999 N   0  0  0  0  0  0  0  0  0  0  0  0
   25.5319  -21.0386  -12.6009 C   0  0  0  0  0  0  0  0  0  0  0  0
   25.3641  -21.2961  -10.2038 O   0  0  0  0  0  0  0  0  0  0  0  0
   26.1970  -22.2301  -10.3210 O   0  0  0  0  0  0  0  0  0  0  0  0
  2  3  1  6
  2  1  1  0
  4  2  1  0
  4  5  1  6
  6  4  1  0
  6  7  2  0
  9  8  1  0
 10  9  2  0
 11  9  1  0
 12 11  1  0
 13 12  1  0
 13 14  1  0
 15 14  1  1
 16 15  1  0
 16  6  1  0
 17 15  1  0
 18 17  2  0
 20 19  1  1
 20 22  1  0
 21 20  1  0
 22 24  1  0
 22 23  1  1
 23 17  1  0
 24 26  1  0
 25 24  2  0
M  END
$$$$
