VRT.pdb
     RDKit          3D

 26 25  0  0  1  0  0  0  0  0999 V2000
   21.4031  -11.8304  -19.7409 C   0  0  0  0  0  0  0  0  0  0  0  0
   21.6306  -12.7655  -18.5695 C   0  0  1  0  0  0  0  0  0  0  0  0
   22.3675  -14.0026  -18.9635 C   0  0  0  0  0  0  0  0  0  0  0  0
   22.3305  -11.9561  -17.5111 C   0  0  2  0  0  0  0  0  0  0  0  0
   22.4789  -12.7919  -16.3443 N   0  0  0  0  0  0  0  0  0  0  0  0
   21.6492  -10.7072  -17.1674 C   0  0  0  0  0  0  0  0  0  0  0  0
   21.5825   -9.7701  -18.0182 O   0  0  0  0  0  0  0  0  0  0  0  0
   14.3622  -11.2749  -13.2758 N   0  0  0  0  0  0  0  0  0  0  0  0
   14.3466  -11.2245  -14.6862 C   0  0  0  0  0  0  0  0  0  0  0  0
   13.2726  -11.5187  -15.3182 N   0  0  0  0  0  0  0  0  0  0  0  0
   15.5341  -10.8436  -15.4130 N   0  0  0  0  0  0  0  0  0  0  0  0
   16.7165  -10.5595  -14.6602 C   0  0  0  0  0  0  0  0  0  0  0  0
   17.8403  -10.1390  -15.6105 C   0  0  0  0  0  0  0  0  0  0  0  0
   19.0547   -9.7932  -14.8295 C   0  0  0  0  0  0  0  0  0  0  0  0
   20.2044   -9.2728  -15.6519 C   0  0  2  0  0  0  0  0  0  0  0  0
   21.0428  -10.4711  -15.9108 N   0  0  0  0  0  0  0  0  0  0  0  0
   20.9828   -8.2383  -14.9721 C   0  0  0  0  0  0  0  0  0  0  0  0
   21.6487   -8.5897  -13.9375 O   0  0  0  0  0  0  0  0  0  0  0  0
   13.1726  -11.5447  -16.3431 C   0  0  0  0  0  0  0  0  0  0  0  0
   23.9514   -6.4098  -16.1489 C   0  0  2  0  0  0  0  0  0  0  0  0
   22.9930   -5.3770  -15.6108 O   0  0  0  0  0  0  0  0  0  0  0  0
   22.2923   -4.8487  -16.6939 C   0  0  2  0  0  0  0  0  0  0  0  0
   21.9769   -5.9809  -14.6657 N   0  0  0  0  0  0  0  0  0  0  0  0
   21.0719   -6.8773  -15.3574 C   0  0  0  0  0  0  0  0  0  0  0  0
   21.2160   -4.9242  -13.9411 O   0  0  0  0  0  0  0  0  0  0  0  0
   19.9768   -4.7959  -14.1081 O   0  0  0  0  0  0  0  0  0  0  0  0
  2  3  1  6
  2  1  1  0
  4  2  1  0
  4  5  1  1
  6  4  1  0
  6  7  2  0
  9  8  1  0
 10  9  2  0
 11  9  1  0
 12 11  1  0
 13 12  1  0
 13 14  1  0
 15 14  1  1
 16 15  1  0
 16  6  1  0
 17 15  1  0
 18 17  2  0
 20 19  1  6
 20 22  1  0
 21 20  1  0
 22 24  1  0
 22 23  1  1
 23 17  1  0
 24 26  1  0
 25 24  2  0
M  END
$$$$
