VRT.pdb
     RDKit          3D

 26 25  0  0  1  0  0  0  0  0999 V2000
   13.4587   -8.4698  -16.2748 C   0  0  0  0  0  0  0  0  0  0  0  0
   14.7314   -8.8766  -15.5587 C   0  0  1  0  0  0  0  0  0  0  0  0
   15.2091  -10.2295  -15.9712 C   0  0  0  0  0  0  0  0  0  0  0  0
   15.7297   -7.7795  -15.8128 C   0  0  2  0  0  0  0  0  0  0  0  0
   15.8505   -7.6166  -17.2414 N   0  0  0  0  0  0  0  0  0  0  0  0
   17.0416   -8.0146  -15.2081 C   0  0  0  0  0  0  0  0  0  0  0  0
   17.1471   -8.1148  -13.9490 O   0  0  0  0  0  0  0  0  0  0  0  0
   21.3998  -14.6292  -17.0976 N   0  0  0  0  0  0  0  0  0  0  0  0
   20.0502  -14.2207  -17.1564 C   0  0  0  0  0  0  0  0  0  0  0  0
   19.2274  -14.8594  -17.9010 N   0  0  0  0  0  0  0  0  0  0  0  0
   19.5989  -13.0892  -16.3820 N   0  0  0  0  0  0  0  0  0  0  0  0
   20.2764  -11.8426  -16.5622 C   0  0  0  0  0  0  0  0  0  0  0  0
   19.5596  -10.7500  -15.7652 C   0  0  0  0  0  0  0  0  0  0  0  0
   20.2079   -9.4382  -16.0169 C   0  0  0  0  0  0  0  0  0  0  0  0
   19.5644   -8.2729  -15.3119 C   0  0  2  0  0  0  0  0  0  0  0  0
   18.2342   -8.1411  -15.9593 N   0  0  0  0  0  0  0  0  0  0  0  0
   20.3221   -7.0286  -15.4369 C   0  0  0  0  0  0  0  0  0  0  0  0
   20.7909   -6.7405  -16.5921 O   0  0  0  0  0  0  0  0  0  0  0  0
   18.2187  -14.6652  -17.9775 C   0  0  0  0  0  0  0  0  0  0  0  0
   19.4898   -3.8622  -16.0100 C   0  0  2  0  0  0  0  0  0  0  0  0
   20.4188   -3.7005  -14.8329 O   0  0  0  0  0  0  0  0  0  0  0  0
   19.6323   -3.6087  -13.6857 C   0  0  2  0  0  0  0  0  0  0  0  0
   21.3327   -4.8945  -14.6607 N   0  0  0  0  0  0  0  0  0  0  0  0
   20.5828   -6.1058  -14.3933 C   0  0  0  0  0  0  0  0  0  0  0  0
   22.3409   -4.6550  -13.5899 O   0  0  0  0  0  0  0  0  0  0  0  0
   22.3605   -5.3677  -12.5547 O   0  0  0  0  0  0  0  0  0  0  0  0
  2  3  1  6
  2  1  1  0
  4  2  1  0
  4  5  1  6
  6  4  1  0
  6  7  2  0
  9  8  1  0
 10  9  2  0
 11  9  1  0
 12 11  1  0
 13 12  1  0
 13 14  1  0
 15 14  1  6
 16 15  1  0
 16  6  1  0
 17 15  1  0
 18 17  2  0
 20 19  1  6
 20 22  1  0
 21 20  1  0
 22 24  1  0
 22 23  1  6
 23 17  1  0
 24 26  1  0
 25 24  2  0
M  END
$$$$
