VRT.pdb
     RDKit          3D

 26 25  0  0  1  0  0  0  0  0999 V2000
   17.8425  -13.7903  -17.2516 C   0  0  0  0  0  0  0  0  0  0  0  0
   17.5397  -12.3168  -17.0636 C   0  0  1  0  0  0  0  0  0  0  0  0
   16.2223  -12.0865  -16.4003 C   0  0  0  0  0  0  0  0  0  0  0  0
   18.7060  -11.7376  -16.3090 C   0  0  2  0  0  0  0  0  0  0  0  0
   18.9392  -12.5694  -15.1533 N   0  0  0  0  0  0  0  0  0  0  0  0
   18.5247  -10.3410  -15.9108 C   0  0  0  0  0  0  0  0  0  0  0  0
   18.4710   -9.4346  -16.7953 O   0  0  0  0  0  0  0  0  0  0  0  0
   16.8618   -6.5701   -9.0050 N   0  0  0  0  0  0  0  0  0  0  0  0
   16.0063   -5.6797   -9.6886 C   0  0  0  0  0  0  0  0  0  0  0  0
   15.7594   -4.5281   -9.1865 N   0  0  0  0  0  0  0  0  0  0  0  0
   15.4126   -6.0643  -10.9468 N   0  0  0  0  0  0  0  0  0  0  0  0
   15.7465   -7.3492  -11.4788 C   0  0  0  0  0  0  0  0  0  0  0  0
   16.8509   -7.1983  -12.5278 C   0  0  0  0  0  0  0  0  0  0  0  0
   17.1572   -8.5214  -13.1276 C   0  0  0  0  0  0  0  0  0  0  0  0
   18.2228   -8.4980  -14.1921 C   0  0  2  0  0  0  0  0  0  0  0  0
   18.4020   -9.9247  -14.5639 N   0  0  0  0  0  0  0  0  0  0  0  0
   19.4873   -7.9235  -13.7350 C   0  0  0  0  0  0  0  0  0  0  0  0
   20.0291   -8.4458  -12.7001 O   0  0  0  0  0  0  0  0  0  0  0  0
   15.1270   -3.8241   -9.5931 C   0  0  0  0  0  0  0  0  0  0  0  0
   22.7963   -8.0277  -15.2657 C   0  0  2  0  0  0  0  0  0  0  0  0
   22.5426   -6.5839  -14.9109 O   0  0  0  0  0  0  0  0  0  0  0  0
   22.0756   -5.9446  -16.0582 C   0  0  2  0  0  0  0  0  0  0  0  0
   21.4770   -6.4380  -13.8461 N   0  0  0  0  0  0  0  0  0  0  0  0
   20.1738   -6.8396  -14.3372 C   0  0  0  0  0  0  0  0  0  0  0  0
   21.4306   -5.0472  -13.3132 O   0  0  0  0  0  0  0  0  0  0  0  0
   20.4171   -4.3249  -13.4899 O   0  0  0  0  0  0  0  0  0  0  0  0
  2  3  1  1
  2  1  1  0
  4  2  1  0
  4  5  1  1
  6  4  1  0
  6  7  2  0
  9  8  1  0
 10  9  2  0
 11  9  1  0
 12 11  1  0
 13 12  1  0
 13 14  1  0
 15 14  1  1
 16 15  1  0
 16  6  1  0
 17 15  1  0
 18 17  2  0
 20 19  1  6
 20 22  1  0
 21 20  1  0
 22 24  1  0
 22 23  1  1
 23 17  1  0
 24 26  1  0
 25 24  2  0
M  END
$$$$
