VRT.pdb
     RDKit          3D

 26 25  0  0  1  0  0  0  0  0999 V2000
   20.4249  -19.9669  -16.1479 C   0  0  0  0  0  0  0  0  0  0  0  0
   20.9722  -20.8993  -15.0851 C   0  0  1  0  0  0  0  0  0  0  0  0
   22.4488  -20.7623  -14.9134 C   0  0  0  0  0  0  0  0  0  0  0  0
   20.1890  -20.6184  -13.8311 C   0  0  2  0  0  0  0  0  0  0  0  0
   20.3063  -19.2090  -13.5453 N   0  0  0  0  0  0  0  0  0  0  0  0
   20.6060  -21.4150  -12.6762 C   0  0  0  0  0  0  0  0  0  0  0  0
   20.4386  -22.6714  -12.6829 O   0  0  0  0  0  0  0  0  0  0  0  0
   27.9002  -21.4880  -10.0167 N   0  0  0  0  0  0  0  0  0  0  0  0
   27.2546  -20.6729  -10.9711 C   0  0  0  0  0  0  0  0  0  0  0  0
   27.7368  -20.5794  -12.1535 N   0  0  0  0  0  0  0  0  0  0  0  0
   26.0575  -19.9483  -10.6171 N   0  0  0  0  0  0  0  0  0  0  0  0
   25.1824  -20.5346   -9.6496 C   0  0  0  0  0  0  0  0  0  0  0  0
   24.0653  -21.2980  -10.3652 C   0  0  0  0  0  0  0  0  0  0  0  0
   22.7567  -20.9702   -9.7452 C   0  0  0  0  0  0  0  0  0  0  0  0
   21.5777  -21.6887  -10.3476 C   0  0  2  0  0  0  0  0  0  0  0  0
   21.2009  -20.8577  -11.5195 N   0  0  0  0  0  0  0  0  0  0  0  0
   20.4483  -21.8228   -9.4286 C   0  0  0  0  0  0  0  0  0  0  0  0
   19.7533  -20.7740   -9.1958 O   0  0  0  0  0  0  0  0  0  0  0  0
   27.3500  -19.9974  -12.9103 C   0  0  0  0  0  0  0  0  0  0  0  0
   17.2648  -23.2600   -9.8439 C   0  0  2  0  0  0  0  0  0  0  0  0
   17.7539  -23.8444   -8.5424 O   0  0  0  0  0  0  0  0  0  0  0  0
   18.2730  -25.1085   -8.8175 C   0  0  2  0  0  0  0  0  0  0  0  0
   18.8671  -23.0212   -7.9313 N   0  0  0  0  0  0  0  0  0  0  0  0
   20.0478  -23.0134   -8.7721 C   0  0  0  0  0  0  0  0  0  0  0  0
   19.2033  -23.4978   -6.5600 O   0  0  0  0  0  0  0  0  0  0  0  0
   20.3799  -23.8265   -6.2644 O   0  0  0  0  0  0  0  0  0  0  0  0
  2  3  1  1
  2  1  1  0
  4  2  1  0
  4  5  1  1
  6  4  1  0
  6  7  2  0
  9  8  1  0
 10  9  2  0
 11  9  1  0
 12 11  1  0
 13 12  1  0
 13 14  1  0
 15 14  1  1
 16 15  1  0
 16  6  1  0
 17 15  1  0
 18 17  2  0
 20 19  1  1
 20 22  1  0
 21 20  1  0
 22 24  1  0
 22 23  1  1
 23 17  1  0
 24 26  1  0
 25 24  2  0
M  END
$$$$
