VRT.pdb
     RDKit          3D

 26 25  0  0  1  0  0  0  0  0999 V2000
   18.0191  -13.9351  -15.0296 C   0  0  0  0  0  0  0  0  0  0  0  0
   17.6383  -12.6053  -15.6501 C   0  0  1  0  0  0  0  0  0  0  0  0
   17.0501  -12.7609  -17.0134 C   0  0  0  0  0  0  0  0  0  0  0  0
   16.7198  -11.9277  -14.6691 C   0  0  2  0  0  0  0  0  0  0  0  0
   15.4389  -11.7569  -15.3112 N   0  0  0  0  0  0  0  0  0  0  0  0
   17.2209  -10.6465  -14.1696 C   0  0  0  0  0  0  0  0  0  0  0  0
   18.3076  -10.6048  -13.5184 O   0  0  0  0  0  0  0  0  0  0  0  0
   17.6617   -3.4055  -18.5588 N   0  0  0  0  0  0  0  0  0  0  0  0
   18.1052   -2.9397  -17.3025 C   0  0  0  0  0  0  0  0  0  0  0  0
   18.5389   -1.7403  -17.1892 N   0  0  0  0  0  0  0  0  0  0  0  0
   18.0704   -3.8096  -16.1511 N   0  0  0  0  0  0  0  0  0  0  0  0
   17.6254   -5.1552  -16.3429 C   0  0  0  0  0  0  0  0  0  0  0  0
   17.5982   -5.8828  -14.9965 C   0  0  0  0  0  0  0  0  0  0  0  0
   17.1805   -7.2933  -15.1968 C   0  0  0  0  0  0  0  0  0  0  0  0
   17.1346   -8.1205  -13.9387 C   0  0  2  0  0  0  0  0  0  0  0  0
   16.5520   -9.4161  -14.3720 N   0  0  0  0  0  0  0  0  0  0  0  0
   16.3240   -7.5213  -12.8795 C   0  0  0  0  0  0  0  0  0  0  0  0
   15.0572   -7.4898  -13.0566 O   0  0  0  0  0  0  0  0  0  0  0  0
   18.9148   -1.3217  -16.3264 C   0  0  0  0  0  0  0  0  0  0  0  0
   15.4451   -8.2078   -9.2743 C   0  0  2  0  0  0  0  0  0  0  0  0
   15.9875   -6.8035   -9.3664 O   0  0  0  0  0  0  0  0  0  0  0  0
   17.3315   -6.8467   -8.9993 C   0  0  2  0  0  0  0  0  0  0  0  0
   15.9208   -6.2587  -10.7767 N   0  0  0  0  0  0  0  0  0  0  0  0
   16.8134   -6.9737  -11.6673 C   0  0  0  0  0  0  0  0  0  0  0  0
   16.2099   -4.7972  -10.8072 O   0  0  0  0  0  0  0  0  0  0  0  0
   17.1607   -4.3444  -11.4934 O   0  0  0  0  0  0  0  0  0  0  0  0
  2  3  1  6
  2  1  1  0
  4  2  1  0
  4  5  1  6
  6  4  1  0
  6  7  2  0
  9  8  1  0
 10  9  2  0
 11  9  1  0
 12 11  1  0
 13 12  1  0
 13 14  1  0
 15 14  1  6
 16 15  1  0
 16  6  1  0
 17 15  1  0
 18 17  2  0
 20 19  1  1
 20 22  1  0
 21 20  1  0
 22 24  1  0
 22 23  1  1
 23 17  1  0
 24 26  1  0
 25 24  2  0
M  END
$$$$
