VRT.pdb
     RDKit          3D

 26 25  0  0  1  0  0  0  0  0999 V2000
   15.9957  -13.7847  -17.9350 C   0  0  0  0  0  0  0  0  0  0  0  0
   17.3591  -14.4008  -18.1798 C   0  0  1  0  0  0  0  0  0  0  0  0
   17.8103  -14.2410  -19.5939 C   0  0  0  0  0  0  0  0  0  0  0  0
   18.2911  -13.7803  -17.1741 C   0  0  2  0  0  0  0  0  0  0  0  0
   17.8671  -14.2038  -15.8615 N   0  0  0  0  0  0  0  0  0  0  0  0
   18.3613  -12.3203  -17.2471 C   0  0  0  0  0  0  0  0  0  0  0  0
   18.8743  -11.7634  -18.2635 O   0  0  0  0  0  0  0  0  0  0  0  0
   16.0252   -5.1497  -14.3084 N   0  0  0  0  0  0  0  0  0  0  0  0
   15.2657   -5.1562  -15.4980 C   0  0  0  0  0  0  0  0  0  0  0  0
   14.9804   -4.0482  -16.0728 N   0  0  0  0  0  0  0  0  0  0  0  0
   14.8125   -6.4042  -16.0641 N   0  0  0  0  0  0  0  0  0  0  0  0
   15.1451   -7.6117  -15.3735 C   0  0  0  0  0  0  0  0  0  0  0  0
   16.5847   -8.0118  -15.7053 C   0  0  0  0  0  0  0  0  0  0  0  0
   16.6441   -9.4635  -16.0112 C   0  0  0  0  0  0  0  0  0  0  0  0
   18.0257   -9.9892  -16.3011 C   0  0  2  0  0  0  0  0  0  0  0  0
   17.8799  -11.4654  -16.2273 N   0  0  0  0  0  0  0  0  0  0  0  0
   19.0348   -9.5245  -15.3503 C   0  0  0  0  0  0  0  0  0  0  0  0
   18.7675   -9.6455  -14.1049 O   0  0  0  0  0  0  0  0  0  0  0  0
   14.5200   -3.9538  -16.9894 C   0  0  0  0  0  0  0  0  0  0  0  0
   22.4824  -10.6272  -14.4249 C   0  0  2  0  0  0  0  0  0  0  0  0
   22.5410   -9.1526  -14.7362 O   0  0  0  0  0  0  0  0  0  0  0  0
   22.9732   -9.0178  -16.0546 C   0  0  2  0  0  0  0  0  0  0  0  0
   21.1816   -8.4951  -14.6362 N   0  0  0  0  0  0  0  0  0  0  0  0
   20.2891   -8.9539  -15.6821 C   0  0  0  0  0  0  0  0  0  0  0  0
   21.2953   -7.0095  -14.6584 O   0  0  0  0  0  0  0  0  0  0  0  0
   20.7926   -6.3406  -15.5964 O   0  0  0  0  0  0  0  0  0  0  0  0
  2  3  1  6
  2  1  1  0
  4  2  1  0
  4  5  1  1
  6  4  1  0
  6  7  2  0
  9  8  1  0
 10  9  2  0
 11  9  1  0
 12 11  1  0
 13 12  1  0
 13 14  1  0
 15 14  1  1
 16 15  1  0
 16  6  1  0
 17 15  1  0
 18 17  2  0
 20 19  1  1
 20 22  1  0
 21 20  1  0
 22 24  1  0
 22 23  1  1
 23 17  1  0
 24 26  1  0
 25 24  2  0
M  END
$$$$
