KAS.pdb
     RDKit          3D

 21 20  0  0  1  0  0  0  0  0999 V2000
   21.8347  -14.4629  -15.9677 N   0  0  0  0  0  0  0  0  0  0  0  0
   23.0320  -15.0161  -15.3801 C   0  0  1  0  0  0  0  0  0  0  0  0
   23.1944  -16.4832  -15.5675 C   0  0  0  0  0  0  0  0  0  0  0  0
   22.0719  -17.3502  -15.1546 C   0  0  0  0  0  0  0  0  0  0  0  0
   22.2846  -18.8194  -15.2571 C   0  0  0  0  0  0  0  0  0  0  0  0
   21.0453  -19.5596  -14.7306 C   0  0  0  0  0  0  0  0  0  0  0  0
   21.2922  -20.9739  -14.7147 N   0  0  0  0  0  0  0  0  0  0  0  0
   24.2233  -14.3677  -15.9959 C   0  0  0  0  0  0  0  0  0  0  0  0
   24.1752  -14.1109  -17.2238 O   0  0  0  0  0  0  0  0  0  0  0  0
   27.4426  -13.0193  -14.6572 C   0  0  0  0  0  0  0  0  0  0  0  0
   26.5676  -13.4382  -15.8451 C   0  0  2  0  0  0  0  0  0  0  0  0
   25.3778  -14.0366  -15.2775 N   0  0  0  0  0  0  0  0  0  0  0  0
   27.2737  -14.4285  -16.6926 C   0  0  0  0  0  0  0  0  0  0  0  0
   28.2399  -14.0626  -17.4252 O   0  0  0  0  0  0  0  0  0  0  0  0
   27.6926  -19.1343  -17.9146 O   0  0  0  0  0  0  0  0  0  0  0  0
   27.2401  -18.1493  -17.0544 C   0  0  0  0  0  0  0  0  0  0  0  0
   27.5343  -16.7712  -17.5980 C   0  0  2  0  0  0  0  0  0  0  0  0
   26.9114  -15.7883  -16.7214 N   0  0  0  0  0  0  0  0  0  0  0  0
   27.0322  -16.5883  -18.9734 C   0  0  0  0  0  0  0  0  0  0  0  0
   25.8424  -15.9301  -19.2198 O   0  0  0  0  0  0  0  0  0  0  0  0
   27.6807  -17.0300  -19.9507 O   0  0  0  0  0  0  0  0  0  0  0  0
  2  1  1  6
  3  2  1  0
  4  3  1  0
  5  6  1  0
  5  4  1  0
  7  6  1  0
  8  2  1  0
  8  9  2  0
 11 10  1  1
 11 12  1  0
 12  8  1  0
 13 11  1  0
 14 13  2  0
 15 16  1  0
 17 18  1  0
 17 16  1  1
 18 13  1  0
 19 17  1  0
 20 19  1  0
 21 19  2  0
M  END
$$$$
