KAS.pdb
     RDKit          3D

 21 20  0  0  1  0  0  0  0  0999 V2000
   12.9878  -11.3030  -10.2931 N   0  0  0  0  0  0  0  0  0  0  0  0
   14.3313  -10.7831  -10.3904 C   0  0  1  0  0  0  0  0  0  0  0  0
   15.0270  -11.0965  -11.6678 C   0  0  0  0  0  0  0  0  0  0  0  0
   15.3004  -12.5180  -11.9626 C   0  0  0  0  0  0  0  0  0  0  0  0
   16.1083  -12.8090  -13.1778 C   0  0  0  0  0  0  0  0  0  0  0  0
   16.3068  -14.3264  -13.3161 C   0  0  0  0  0  0  0  0  0  0  0  0
   17.0386  -14.6151  -14.5172 N   0  0  0  0  0  0  0  0  0  0  0  0
   14.2907   -9.2986  -10.2741 C   0  0  0  0  0  0  0  0  0  0  0  0
   13.3427   -8.6976  -10.8363 O   0  0  0  0  0  0  0  0  0  0  0  0
   16.1037   -6.8105   -8.1936 C   0  0  0  0  0  0  0  0  0  0  0  0
   15.2275   -7.1154   -9.4149 C   0  0  2  0  0  0  0  0  0  0  0  0
   15.2482   -8.5540   -9.5761 N   0  0  0  0  0  0  0  0  0  0  0  0
   15.7759   -6.4650  -10.6289 C   0  0  0  0  0  0  0  0  0  0  0  0
   16.8566   -6.8836  -11.1399 O   0  0  0  0  0  0  0  0  0  0  0  0
   13.5061   -3.6567  -12.5757 O   0  0  0  0  0  0  0  0  0  0  0  0
   14.4554   -4.3393  -13.3159 C   0  0  0  0  0  0  0  0  0  0  0  0
   15.6365   -4.7328  -12.4608 C   0  0  2  0  0  0  0  0  0  0  0  0
   15.1362   -5.3786  -11.2544 N   0  0  0  0  0  0  0  0  0  0  0  0
   16.4721   -3.5758  -12.0861 C   0  0  0  0  0  0  0  0  0  0  0  0
   16.5595   -3.1505  -10.7742 O   0  0  0  0  0  0  0  0  0  0  0  0
   17.1227   -2.9530  -12.9576 O   0  0  0  0  0  0  0  0  0  0  0  0
  2  1  1  6
  3  2  1  0
  4  3  1  0
  5  6  1  0
  5  4  1  0
  7  6  1  0
  8  2  1  0
  8  9  2  0
 11 10  1  1
 11 12  1  0
 12  8  1  0
 13 11  1  0
 14 13  2  0
 15 16  1  0
 17 18  1  0
 17 16  1  6
 18 13  1  0
 19 17  1  0
 20 19  1  0
 21 19  2  0
M  END
$$$$
