KAS.pdb
     RDKit          3D

 21 20  0  0  1  0  0  0  0  0999 V2000
   16.7851  -10.6852  -17.6818 N   0  0  0  0  0  0  0  0  0  0  0  0
   17.5817  -10.4789  -16.4953 C   0  0  1  0  0  0  0  0  0  0  0  0
   18.7563  -11.3837  -16.3715 C   0  0  0  0  0  0  0  0  0  0  0  0
   18.4954  -12.8375  -16.3442 C   0  0  0  0  0  0  0  0  0  0  0  0
   19.6520  -13.7222  -16.0380 C   0  0  0  0  0  0  0  0  0  0  0  0
   19.1962  -15.1896  -16.0413 C   0  0  0  0  0  0  0  0  0  0  0  0
   20.2786  -16.0375  -15.6280 N   0  0  0  0  0  0  0  0  0  0  0  0
   18.1083   -9.0856  -16.4963 C   0  0  0  0  0  0  0  0  0  0  0  0
   18.8537   -8.7470  -17.4480 O   0  0  0  0  0  0  0  0  0  0  0  0
   17.1828   -6.0017  -14.6795 C   0  0  0  0  0  0  0  0  0  0  0  0
   18.2221   -6.7610  -15.5135 C   0  0  2  0  0  0  0  0  0  0  0  0
   17.8138   -8.1499  -15.4981 N   0  0  0  0  0  0  0  0  0  0  0  0
   19.5725   -6.6268  -14.9167 C   0  0  0  0  0  0  0  0  0  0  0  0
   19.9257   -7.3881  -13.9681 O   0  0  0  0  0  0  0  0  0  0  0  0
   24.0257   -4.8088  -15.6479 O   0  0  0  0  0  0  0  0  0  0  0  0
   22.7021   -4.9510  -16.0257 C   0  0  0  0  0  0  0  0  0  0  0  0
   21.8981   -5.6439  -14.9511 C   0  0  2  0  0  0  0  0  0  0  0  0
   20.5018   -5.6700  -15.3661 N   0  0  0  0  0  0  0  0  0  0  0  0
   22.0073   -4.9709  -13.6425 C   0  0  0  0  0  0  0  0  0  0  0  0
   22.9254   -5.3873  -12.6974 O   0  0  0  0  0  0  0  0  0  0  0  0
   21.2636   -4.0018  -13.3624 O   0  0  0  0  0  0  0  0  0  0  0  0
  2  1  1  6
  3  2  1  0
  4  3  1  0
  5  6  1  0
  5  4  1  0
  7  6  1  0
  8  2  1  0
  8  9  2  0
 11 10  1  1
 11 12  1  0
 12  8  1  0
 13 11  1  0
 14 13  2  0
 15 16  1  0
 17 18  1  0
 17 16  1  6
 18 13  1  0
 19 17  1  0
 20 19  1  0
 21 19  2  0
M  END
$$$$
