KAS.pdb
     RDKit          3D

 21 20  0  0  1  0  0  0  0  0999 V2000
   23.5802  -12.0390  -19.1008 N   0  0  0  0  0  0  0  0  0  0  0  0
   22.3625  -11.7926  -18.3651 C   0  0  1  0  0  0  0  0  0  0  0  0
   21.7011  -13.0145  -17.8327 C   0  0  0  0  0  0  0  0  0  0  0  0
   21.2758  -14.0381  -18.8092 C   0  0  0  0  0  0  0  0  0  0  0  0
   22.2271  -15.1516  -19.0728 C   0  0  0  0  0  0  0  0  0  0  0  0
   21.6967  -16.0245  -20.2208 C   0  0  0  0  0  0  0  0  0  0  0  0
   22.5872  -17.1280  -20.4459 N   0  0  0  0  0  0  0  0  0  0  0  0
   22.6658  -10.9215  -17.1954 C   0  0  0  0  0  0  0  0  0  0  0  0
   21.7494  -10.7332  -16.3583 O   0  0  0  0  0  0  0  0  0  0  0  0
   25.7776   -9.3330  -15.8806 C   0  0  0  0  0  0  0  0  0  0  0  0
   24.2516   -9.4839  -15.8535 C   0  0  2  0  0  0  0  0  0  0  0  0
   23.9088  -10.3121  -16.9904 N   0  0  0  0  0  0  0  0  0  0  0  0
   23.5919   -8.1621  -15.9766 C   0  0  0  0  0  0  0  0  0  0  0  0
   23.5598   -7.5706  -17.0962 O   0  0  0  0  0  0  0  0  0  0  0  0
   20.8768   -4.7948  -13.7075 O   0  0  0  0  0  0  0  0  0  0  0  0
   21.5979   -5.9750  -13.6632 C   0  0  0  0  0  0  0  0  0  0  0  0
   22.2913   -6.2418  -14.9782 C   0  0  2  0  0  0  0  0  0  0  0  0
   22.9856   -7.5190  -14.8813 N   0  0  0  0  0  0  0  0  0  0  0  0
   23.2583   -5.1846  -15.3308 C   0  0  0  0  0  0  0  0  0  0  0  0
   24.4811   -5.0911  -14.6941 O   0  0  0  0  0  0  0  0  0  0  0  0
   22.9859   -4.3456  -16.2212 O   0  0  0  0  0  0  0  0  0  0  0  0
  2  1  1  1
  3  2  1  0
  4  3  1  0
  5  6  1  0
  5  4  1  0
  7  6  1  0
  8  2  1  0
  8  9  2  0
 11 10  1  6
 11 12  1  0
 12  8  1  0
 13 11  1  0
 14 13  2  0
 15 16  1  0
 17 18  1  0
 17 16  1  1
 18 13  1  0
 19 17  1  0
 20 19  1  0
 21 19  2  0
M  END
$$$$
