KAS.pdb
     RDKit          3D

 21 20  0  0  1  0  0  0  0  0999 V2000
   17.3323  -11.3427  -15.8390 N   0  0  0  0  0  0  0  0  0  0  0  0
   18.3314  -10.4852  -16.4318 C   0  0  1  0  0  0  0  0  0  0  0  0
   17.8166   -9.5680  -17.4842 C   0  0  0  0  0  0  0  0  0  0  0  0
   17.2212  -10.1811  -18.6891 C   0  0  0  0  0  0  0  0  0  0  0  0
   16.7339   -9.2524  -19.7448 C   0  0  0  0  0  0  0  0  0  0  0  0
   16.0746  -10.0558  -20.8765 C   0  0  0  0  0  0  0  0  0  0  0  0
   15.5274   -9.1598  -21.8559 N   0  0  0  0  0  0  0  0  0  0  0  0
   18.9335   -9.6302  -15.3710 C   0  0  0  0  0  0  0  0  0  0  0  0
   18.1623   -9.1499  -14.5047 O   0  0  0  0  0  0  0  0  0  0  0  0
   22.3263   -9.1669  -14.0523 C   0  0  0  0  0  0  0  0  0  0  0  0
   20.9318   -8.5615  -14.2541 C   0  0  2  0  0  0  0  0  0  0  0  0
   20.3011   -9.3422  -15.2975 N   0  0  0  0  0  0  0  0  0  0  0  0
   21.0318   -7.1442  -14.6768 C   0  0  0  0  0  0  0  0  0  0  0  0
   21.3145   -6.8586  -15.8780 O   0  0  0  0  0  0  0  0  0  0  0  0
   20.0932   -2.5164  -13.5897 O   0  0  0  0  0  0  0  0  0  0  0  0
   19.9693   -3.8709  -13.3349 C   0  0  0  0  0  0  0  0  0  0  0  0
   20.9471   -4.6742  -14.1595 C   0  0  2  0  0  0  0  0  0  0  0  0
   20.8223   -6.0763  -13.7842 N   0  0  0  0  0  0  0  0  0  0  0  0
   22.3428   -4.2373  -13.9633 C   0  0  0  0  0  0  0  0  0  0  0  0
   22.9512   -3.3658  -14.8464 O   0  0  0  0  0  0  0  0  0  0  0  0
   23.0068   -4.6519  -12.9846 O   0  0  0  0  0  0  0  0  0  0  0  0
  2  1  1  1
  3  2  1  0
  4  3  1  0
  5  6  1  0
  5  4  1  0
  7  6  1  0
  8  2  1  0
  8  9  2  0
 11 10  1  6
 11 12  1  0
 12  8  1  0
 13 11  1  0
 14 13  2  0
 15 16  1  0
 17 18  1  0
 17 16  1  1
 18 13  1  0
 19 17  1  0
 20 19  1  0
 21 19  2  0
M  END
$$$$
