KAS.pdb
     RDKit          3D

 21 20  0  0  1  0  0  0  0  0999 V2000
   25.3729  -24.6285  -14.3811 N   0  0  0  0  0  0  0  0  0  0  0  0
   25.8072  -23.6497  -15.3496 C   0  0  1  0  0  0  0  0  0  0  0  0
   26.2802  -24.2207  -16.6397 C   0  0  0  0  0  0  0  0  0  0  0  0
   27.4296  -25.1474  -16.5928 C   0  0  0  0  0  0  0  0  0  0  0  0
   27.8531  -25.7587  -17.8817 C   0  0  0  0  0  0  0  0  0  0  0  0
   28.9897  -26.7616  -17.6301 C   0  0  0  0  0  0  0  0  0  0  0  0
   29.4051  -27.3497  -18.8722 N   0  0  0  0  0  0  0  0  0  0  0  0
   24.6708  -22.7417  -15.6704 C   0  0  0  0  0  0  0  0  0  0  0  0
   24.6567  -22.2076  -16.8064 O   0  0  0  0  0  0  0  0  0  0  0  0
   21.4789  -21.8749  -13.9375 C   0  0  0  0  0  0  0  0  0  0  0  0
   22.4879  -21.6234  -15.0649 C   0  0  2  0  0  0  0  0  0  0  0  0
   23.6325  -22.4611  -14.7750 N   0  0  0  0  0  0  0  0  0  0  0  0
   22.9000  -20.1997  -15.0914 C   0  0  0  0  0  0  0  0  0  0  0  0
   23.5585  -19.7115  -14.1258 O   0  0  0  0  0  0  0  0  0  0  0  0
   23.6656  -18.0585  -18.5865 O   0  0  0  0  0  0  0  0  0  0  0  0
   24.1726  -17.9390  -17.3045 C   0  0  0  0  0  0  0  0  0  0  0  0
   23.0687  -17.9752  -16.2742 C   0  0  2  0  0  0  0  0  0  0  0  0
   22.5861  -19.3455  -16.1651 N   0  0  0  0  0  0  0  0  0  0  0  0
   21.9435  -17.0862  -16.6216 C   0  0  0  0  0  0  0  0  0  0  0  0
   22.0696  -15.7118  -16.5545 O   0  0  0  0  0  0  0  0  0  0  0  0
   20.8443  -17.5653  -16.9866 O   0  0  0  0  0  0  0  0  0  0  0  0
  2  1  1  1
  3  2  1  0
  4  3  1  0
  5  6  1  0
  5  4  1  0
  7  6  1  0
  8  2  1  0
  8  9  2  0
 11 10  1  1
 11 12  1  0
 12  8  1  0
 13 11  1  0
 14 13  2  0
 15 16  1  0
 17 18  1  0
 17 16  1  6
 18 13  1  0
 19 17  1  0
 20 19  1  0
 21 19  2  0
M  END
$$$$
