KAS.pdb
     RDKit          3D

 21 20  0  0  1  0  0  0  0  0999 V2000
   20.2749  -13.1882  -16.6474 N   0  0  0  0  0  0  0  0  0  0  0  0
   19.7186  -11.8816  -16.9083 C   0  0  1  0  0  0  0  0  0  0  0  0
   18.4258  -11.6096  -16.2238 C   0  0  0  0  0  0  0  0  0  0  0  0
   17.2742  -12.4632  -16.5808 C   0  0  0  0  0  0  0  0  0  0  0  0
   16.6175  -13.2047  -15.4703 C   0  0  0  0  0  0  0  0  0  0  0  0
   15.4167  -13.9941  -16.0141 C   0  0  0  0  0  0  0  0  0  0  0  0
   14.8088  -14.7488  -14.9547 N   0  0  0  0  0  0  0  0  0  0  0  0
   20.6787  -10.8404  -16.4469 C   0  0  0  0  0  0  0  0  0  0  0  0
   21.0945  -10.9166  -15.2648 O   0  0  0  0  0  0  0  0  0  0  0  0
   22.9265   -8.5209  -18.1755 C   0  0  0  0  0  0  0  0  0  0  0  0
   22.1505   -8.8356  -16.8906 C   0  0  2  0  0  0  0  0  0  0  0  0
   21.1319   -9.7956  -17.2603 N   0  0  0  0  0  0  0  0  0  0  0  0
   21.5149   -7.6108  -16.3489 C   0  0  0  0  0  0  0  0  0  0  0  0
   20.4963   -7.1191  -16.9191 O   0  0  0  0  0  0  0  0  0  0  0  0
   22.3572   -6.2111  -12.5151 O   0  0  0  0  0  0  0  0  0  0  0  0
   21.1744   -5.9440  -13.1817 C   0  0  0  0  0  0  0  0  0  0  0  0
   21.4135   -5.7376  -14.6587 C   0  0  2  0  0  0  0  0  0  0  0  0
   22.0023   -6.9537  -15.2037 N   0  0  0  0  0  0  0  0  0  0  0  0
   22.3077   -4.5961  -14.9313 C   0  0  0  0  0  0  0  0  0  0  0  0
   21.9128   -3.2982  -14.6683 O   0  0  0  0  0  0  0  0  0  0  0  0
   23.4506   -4.7843  -15.4101 O   0  0  0  0  0  0  0  0  0  0  0  0
  2  1  1  1
  3  2  1  0
  4  3  1  0
  5  6  1  0
  5  4  1  0
  7  6  1  0
  8  2  1  0
  8  9  2  0
 11 10  1  6
 11 12  1  0
 12  8  1  0
 13 11  1  0
 14 13  2  0
 15 16  1  0
 17 18  1  0
 17 16  1  1
 18 13  1  0
 19 17  1  0
 20 19  1  0
 21 19  2  0
M  END
$$$$
