KAS.pdb
     RDKit          3D

 21 20  0  0  1  0  0  0  0  0999 V2000
   22.4776  -21.2257  -16.5910 N   0  0  0  0  0  0  0  0  0  0  0  0
   22.4221  -20.3713  -15.4283 C   0  0  1  0  0  0  0  0  0  0  0  0
   23.5533  -20.5435  -14.4772 C   0  0  0  0  0  0  0  0  0  0  0  0
   23.8626  -21.9168  -14.0294 C   0  0  0  0  0  0  0  0  0  0  0  0
   23.9941  -22.9550  -15.0872 C   0  0  0  0  0  0  0  0  0  0  0  0
   24.5239  -24.2586  -14.4698 C   0  0  0  0  0  0  0  0  0  0  0  0
   24.7793  -25.2200  -15.5051 N   0  0  0  0  0  0  0  0  0  0  0  0
   22.4394  -18.9477  -15.8664 C   0  0  0  0  0  0  0  0  0  0  0  0
   23.3423  -18.5966  -16.6648 O   0  0  0  0  0  0  0  0  0  0  0  0
   20.1839  -16.0194  -15.2964 C   0  0  0  0  0  0  0  0  0  0  0  0
   21.5020  -16.6021  -15.8209 C   0  0  2  0  0  0  0  0  0  0  0  0
   21.5075  -17.9973  -15.4342 N   0  0  0  0  0  0  0  0  0  0  0  0
   22.6614  -15.9068  -15.2125 C   0  0  0  0  0  0  0  0  0  0  0  0
   23.1133  -16.2874  -14.0922 O   0  0  0  0  0  0  0  0  0  0  0  0
   26.8696  -15.2020  -15.2522 O   0  0  0  0  0  0  0  0  0  0  0  0
   25.5623  -15.5692  -15.5182 C   0  0  0  0  0  0  0  0  0  0  0  0
   24.6438  -14.3703  -15.5041 C   0  0  2  0  0  0  0  0  0  0  0  0
   23.2979  -14.8179  -15.8371 N   0  0  0  0  0  0  0  0  0  0  0  0
   25.0631  -13.3271  -16.4596 C   0  0  0  0  0  0  0  0  0  0  0  0
   25.7800  -12.2214  -16.0438 O   0  0  0  0  0  0  0  0  0  0  0  0
   24.7744  -13.4257  -17.6753 O   0  0  0  0  0  0  0  0  0  0  0  0
  2  1  1  6
  3  2  1  0
  4  3  1  0
  5  6  1  0
  5  4  1  0
  7  6  1  0
  8  2  1  0
  8  9  2  0
 11 10  1  1
 11 12  1  0
 12  8  1  0
 13 11  1  0
 14 13  2  0
 15 16  1  0
 17 18  1  0
 17 16  1  6
 18 13  1  0
 19 17  1  0
 20 19  1  0
 21 19  2  0
M  END
$$$$
