KAS.pdb
     RDKit          3D

 21 20  0  0  1  0  0  0  0  0999 V2000
   19.8390  -19.7885  -15.5865 N   0  0  0  0  0  0  0  0  0  0  0  0
   20.7884  -18.7270  -15.3484 C   0  0  1  0  0  0  0  0  0  0  0  0
   20.5871  -17.9894  -14.0719 C   0  0  0  0  0  0  0  0  0  0  0  0
   19.3506  -17.1929  -13.9341 C   0  0  0  0  0  0  0  0  0  0  0  0
   18.0715  -17.8737  -14.2727 C   0  0  0  0  0  0  0  0  0  0  0  0
   16.8942  -16.9201  -14.0170 C   0  0  0  0  0  0  0  0  0  0  0  0
   15.6561  -17.5824  -14.3163 N   0  0  0  0  0  0  0  0  0  0  0  0
   22.1622  -19.3009  -15.3032 C   0  0  0  0  0  0  0  0  0  0  0  0
   22.3553  -20.2873  -14.5511 O   0  0  0  0  0  0  0  0  0  0  0  0
   25.3994  -18.4338  -16.9759 C   0  0  0  0  0  0  0  0  0  0  0  0
   24.5821  -19.3208  -16.0287 C   0  0  2  0  0  0  0  0  0  0  0  0
   23.2325  -18.7971  -16.0510 N   0  0  0  0  0  0  0  0  0  0  0  0
   25.1246  -19.2554  -14.6507 C   0  0  0  0  0  0  0  0  0  0  0  0
   24.9356  -18.2224  -13.9426 O   0  0  0  0  0  0  0  0  0  0  0  0
   26.2887  -21.1648  -10.5705 O   0  0  0  0  0  0  0  0  0  0  0  0
   25.6665  -21.0703  -11.8029 C   0  0  0  0  0  0  0  0  0  0  0  0
   26.4845  -20.2436  -12.7666 C   0  0  2  0  0  0  0  0  0  0  0  0
   25.8571  -20.3129  -14.0796 N   0  0  0  0  0  0  0  0  0  0  0  0
   27.8807  -20.7104  -12.8660 C   0  0  0  0  0  0  0  0  0  0  0  0
   28.8216  -20.3624  -11.9157 O   0  0  0  0  0  0  0  0  0  0  0  0
   28.2414  -21.4368  -13.8216 O   0  0  0  0  0  0  0  0  0  0  0  0
  2  1  1  1
  3  2  1  0
  4  3  1  0
  5  6  1  0
  5  4  1  0
  7  6  1  0
  8  2  1  0
  8  9  2  0
 11 10  1  6
 11 12  1  0
 12  8  1  0
 13 11  1  0
 14 13  2  0
 15 16  1  0
 17 18  1  0
 17 16  1  1
 18 13  1  0
 19 17  1  0
 20 19  1  0
 21 19  2  0
M  END
$$$$
