KAS.pdb
     RDKit          3D

 21 20  0  0  1  0  0  0  0  0999 V2000
   13.9428  -11.6028  -10.9947 N   0  0  0  0  0  0  0  0  0  0  0  0
   15.1203  -10.7675  -11.0204 C   0  0  1  0  0  0  0  0  0  0  0  0
   15.8016  -10.6958  -12.3412 C   0  0  0  0  0  0  0  0  0  0  0  0
   16.3220  -11.9571  -12.9075 C   0  0  0  0  0  0  0  0  0  0  0  0
   16.9455  -11.8812  -14.2565 C   0  0  0  0  0  0  0  0  0  0  0  0
   17.3888  -13.2835  -14.7013 C   0  0  0  0  0  0  0  0  0  0  0  0
   17.9282  -13.2258  -16.0306 N   0  0  0  0  0  0  0  0  0  0  0  0
   14.7395   -9.3745  -10.6550 C   0  0  0  0  0  0  0  0  0  0  0  0
   13.7049   -8.8977  -11.1826 O   0  0  0  0  0  0  0  0  0  0  0  0
   15.9473   -6.9080   -8.1354 C   0  0  0  0  0  0  0  0  0  0  0  0
   15.1617   -7.2133   -9.4167 C   0  0  2  0  0  0  0  0  0  0  0  0
   15.4727   -8.5843   -9.7626 N   0  0  0  0  0  0  0  0  0  0  0  0
   15.5792   -6.3099  -10.5154 C   0  0  0  0  0  0  0  0  0  0  0  0
   16.6374   -6.5515  -11.1682 O   0  0  0  0  0  0  0  0  0  0  0  0
   14.2722   -3.2681  -13.9267 O   0  0  0  0  0  0  0  0  0  0  0  0
   14.0035   -4.1354  -12.8824 C   0  0  0  0  0  0  0  0  0  0  0  0
   15.1999   -4.2828  -11.9723 C   0  0  2  0  0  0  0  0  0  0  0  0
   14.8366   -5.1696  -10.8750 N   0  0  0  0  0  0  0  0  0  0  0  0
   15.6561   -2.9901  -11.4265 C   0  0  0  0  0  0  0  0  0  0  0  0
   16.6215   -2.2409  -12.0716 O   0  0  0  0  0  0  0  0  0  0  0  0
   15.1725   -2.5446  -10.3594 O   0  0  0  0  0  0  0  0  0  0  0  0
  2  1  1  6
  3  2  1  0
  4  3  1  0
  5  6  1  0
  5  4  1  0
  7  6  1  0
  8  2  1  0
  8  9  2  0
 11 10  1  1
 11 12  1  0
 12  8  1  0
 13 11  1  0
 14 13  2  0
 15 16  1  0
 17 18  1  0
 17 16  1  6
 18 13  1  0
 19 17  1  0
 20 19  1  0
 21 19  2  0
M  END
$$$$
