KAS.pdb
     RDKit          3D

 21 20  0  0  1  0  0  0  0  0999 V2000
   13.8850  -11.0996  -11.7951 N   0  0  0  0  0  0  0  0  0  0  0  0
   15.1494  -10.5084  -11.4256 C   0  0  1  0  0  0  0  0  0  0  0  0
   16.1640  -10.4828  -12.5137 C   0  0  0  0  0  0  0  0  0  0  0  0
   16.5266  -11.7725  -13.1363 C   0  0  0  0  0  0  0  0  0  0  0  0
   17.6367  -11.7519  -14.1270 C   0  0  0  0  0  0  0  0  0  0  0  0
   17.8496  -13.1637  -14.6949 C   0  0  0  0  0  0  0  0  0  0  0  0
   18.9862  -13.1703  -15.5721 N   0  0  0  0  0  0  0  0  0  0  0  0
   14.9258   -9.0954  -11.0108 C   0  0  0  0  0  0  0  0  0  0  0  0
   14.2057   -8.3801  -11.7496 O   0  0  0  0  0  0  0  0  0  0  0  0
   15.5195   -7.1060   -7.9447 C   0  0  0  0  0  0  0  0  0  0  0  0
   15.3747   -7.1434   -9.4710 C   0  0  2  0  0  0  0  0  0  0  0  0
   15.4745   -8.5369   -9.8508 N   0  0  0  0  0  0  0  0  0  0  0  0
   16.4578   -6.3662  -10.1194 C   0  0  0  0  0  0  0  0  0  0  0  0
   17.5479   -6.9325  -10.4283 O   0  0  0  0  0  0  0  0  0  0  0  0
   17.9036   -4.1961  -13.5933 O   0  0  0  0  0  0  0  0  0  0  0  0
   17.1760   -4.9209  -12.6659 C   0  0  0  0  0  0  0  0  0  0  0  0
   17.2280   -4.2728  -11.3026 C   0  0  2  0  0  0  0  0  0  0  0  0
   16.3277   -4.9962  -10.4146 N   0  0  0  0  0  0  0  0  0  0  0  0
   16.8401   -2.8496  -11.3394 C   0  0  0  0  0  0  0  0  0  0  0  0
   17.7877   -1.8522  -11.4686 O   0  0  0  0  0  0  0  0  0  0  0  0
   15.6348   -2.5170  -11.2536 O   0  0  0  0  0  0  0  0  0  0  0  0
  2  1  1  6
  3  2  1  0
  4  3  1  0
  5  6  1  0
  5  4  1  0
  7  6  1  0
  8  2  1  0
  8  9  2  0
 11 10  1  1
 11 12  1  0
 12  8  1  0
 13 11  1  0
 14 13  2  0
 15 16  1  0
 17 18  1  0
 17 16  1  6
 18 13  1  0
 19 17  1  0
 20 19  1  0
 21 19  2  0
M  END
$$$$
