KAS.pdb
     RDKit          3D

 21 20  0  0  1  0  0  0  0  0999 V2000
   22.1371  -14.9893  -17.5327 N   0  0  0  0  0  0  0  0  0  0  0  0
   21.0748  -14.0160  -17.6272 C   0  0  1  0  0  0  0  0  0  0  0  0
   19.9684  -14.2083  -16.6511 C   0  0  0  0  0  0  0  0  0  0  0  0
   19.3149  -15.5327  -16.6156 C   0  0  0  0  0  0  0  0  0  0  0  0
   17.9133  -15.5773  -16.1180 C   0  0  0  0  0  0  0  0  0  0  0  0
   17.3914  -17.0216  -16.1701 C   0  0  0  0  0  0  0  0  0  0  0  0
   16.0203  -17.0604  -15.7461 N   0  0  0  0  0  0  0  0  0  0  0  0
   21.6338  -12.6570  -17.3838 C   0  0  0  0  0  0  0  0  0  0  0  0
   22.2735  -12.4741  -16.3192 O   0  0  0  0  0  0  0  0  0  0  0  0
   22.0312   -9.5927  -19.4555 C   0  0  0  0  0  0  0  0  0  0  0  0
   22.0005  -10.2540  -18.0721 C   0  0  2  0  0  0  0  0  0  0  0  0
   21.4802  -11.5896  -18.2758 N   0  0  0  0  0  0  0  0  0  0  0  0
   21.1133   -9.5033  -17.1518 C   0  0  0  0  0  0  0  0  0  0  0  0
   19.8948   -9.8296  -17.0381 O   0  0  0  0  0  0  0  0  0  0  0  0
   19.8132   -7.9831  -13.2269 O   0  0  0  0  0  0  0  0  0  0  0  0
   20.4981   -8.6338  -14.2380 C   0  0  0  0  0  0  0  0  0  0  0  0
   20.7495   -7.7131  -15.4087 C   0  0  2  0  0  0  0  0  0  0  0  0
   21.5734   -8.4194  -16.3808 N   0  0  0  0  0  0  0  0  0  0  0  0
   21.4261   -6.4642  -15.0090 C   0  0  0  0  0  0  0  0  0  0  0  0
   20.7256   -5.4244  -14.4281 O   0  0  0  0  0  0  0  0  0  0  0  0
   22.6582   -6.3228  -15.1907 O   0  0  0  0  0  0  0  0  0  0  0  0
  2  1  1  1
  3  2  1  0
  4  3  1  0
  5  6  1  0
  5  4  1  0
  7  6  1  0
  8  2  1  0
  8  9  2  0
 11 10  1  6
 11 12  1  0
 12  8  1  0
 13 11  1  0
 14 13  2  0
 15 16  1  0
 17 18  1  0
 17 16  1  1
 18 13  1  0
 19 17  1  0
 20 19  1  0
 21 19  2  0
M  END
$$$$
