RER.pdb
     RDKit          3D

 32 31  0  0  1  0  0  0  0  0999 V2000
   32.0207  -26.9761  -15.7248 N   0  0  0  0  0  0  0  0  0  0  0  0
   31.3646  -27.5715  -16.8484 C   0  0  0  0  0  0  0  0  0  0  0  0
   31.8041  -28.6420  -17.3876 N   0  0  0  0  0  0  0  0  0  0  0  0
   30.2048  -26.9672  -17.3623 N   0  0  0  0  0  0  0  0  0  0  0  0
   29.5417  -25.8639  -16.7383 C   0  0  0  0  0  0  0  0  0  0  0  0
   30.4071  -24.6545  -16.7083 C   0  0  0  0  0  0  0  0  0  0  0  0
   29.8362  -23.4269  -16.0923 C   0  0  0  0  0  0  0  0  0  0  0  0
   28.7086  -22.9303  -17.0134 C   0  0  2  0  0  0  0  0  0  0  0  0
   29.1648  -22.7286  -18.3672 N   0  0  0  0  0  0  0  0  0  0  0  0
   28.0070  -21.7549  -16.4463 C   0  0  0  0  0  0  0  0  0  0  0  0
   27.6097  -21.8277  -15.2544 O   0  0  0  0  0  0  0  0  0  0  0  0
   31.3344  -29.0727  -18.1868 N   0  0  0  0  0  0  0  0  0  0  0  0
   27.7728  -20.5707  -17.1944 C   0  0  1  0  0  0  0  0  0  0  0  0
   27.0614  -19.4471  -16.6720 C   0  0  0  0  0  0  0  0  0  0  0  0
   27.2075  -18.1653  -17.4084 C   0  0  0  0  0  0  0  0  0  0  0  0
   28.6263  -17.6729  -17.5152 C   0  0  0  0  0  0  0  0  0  0  0  0
   28.6335  -16.4123  -18.2934 O   0  0  0  0  0  0  0  0  0  0  0  0
   27.5347  -15.9464  -18.6824 C   0  0  0  0  0  0  0  0  0  0  0  0
   25.5904  -19.7917  -16.7246 O   0  0  0  0  0  0  0  0  0  0  0  0
   25.0826  -20.3556  -17.7252 O   0  0  0  0  0  0  0  0  0  0  0  0
   29.8060  -15.7652  -18.5890 N   0  0  0  0  0  0  0  0  0  0  0  0
   18.5572  -24.3627  -12.9051 C   0  0  0  0  0  0  0  0  0  0  0  0
   19.2454  -23.2006  -12.4196 N   0  0  0  0  0  0  0  0  0  0  0  0
   19.3591  -22.9489  -11.1708 N   0  0  0  0  0  0  0  0  0  0  0  0
   19.8211  -22.3028  -13.3494 C   0  0  0  0  0  0  0  0  0  0  0  0
   21.2318  -21.9548  -13.2966 C   0  0  0  0  0  0  0  0  0  0  0  0
   21.4730  -21.0324  -14.4791 C   0  0  0  0  0  0  0  0  0  0  0  0
   22.9163  -20.6505  -14.5675 C   0  0  2  0  0  0  0  0  0  0  0  0
   23.2634  -19.7601  -15.7298 N   0  0  0  0  0  0  0  0  0  0  0  0
   24.7137  -19.4975  -15.6574 C   0  0  0  0  0  0  0  0  0  0  0  0
   22.5097  -18.4902  -15.6509 O   0  0  0  0  0  0  0  0  0  0  0  0
   21.1735  -18.4056  -15.9987 O   0  0  0  0  0  0  0  0  0  0  0  0
  1  2  1  0
  2  3  2  0
  4  2  1  0
  4  5  1  0
  6  5  1  0
  7  8  1  0
  7  6  1  0
  8  9  1  6
 10  8  1  0
 11 10  2  0
 12 10  1  0
 13 18  1  0
 13 12  1  0
 13 14  1  1
 15 16  1  0
 15 14  1  0
 16 20  1  0
 17 16  2  0
 18 19  2  0
 21 22  1  0
 22 24  1  0
 22 23  2  0
 24 25  1  0
 26 25  1  0
 27 26  1  0
 28 27  1  6
 29 18  1  0
 29 28  1  0
 30 28  1  0
 30 31  1  0
 32 30  2  0
M  END
$$$$
