RER.pdb
     RDKit          3D

 32 31  0  0  1  0  0  0  0  0999 V2000
   24.2045  -22.0623  -17.5537 N   0  0  0  0  0  0  0  0  0  0  0  0
   24.3258  -20.6925  -17.9492 C   0  0  0  0  0  0  0  0  0  0  0  0
   23.4201  -20.1144  -18.6386 N   0  0  0  0  0  0  0  0  0  0  0  0
   25.4644  -19.9668  -17.5604 N   0  0  0  0  0  0  0  0  0  0  0  0
   26.5289  -20.5182  -16.7801 C   0  0  0  0  0  0  0  0  0  0  0  0
   26.5277  -19.9744  -15.3956 C   0  0  0  0  0  0  0  0  0  0  0  0
   27.8497  -19.7764  -14.7434 C   0  0  0  0  0  0  0  0  0  0  0  0
   28.1577  -21.0455  -13.9304 C   0  0  2  0  0  0  0  0  0  0  0  0
   28.1678  -22.2284  -14.7565 N   0  0  0  0  0  0  0  0  0  0  0  0
   27.2851  -21.1658  -12.7390 C   0  0  0  0  0  0  0  0  0  0  0  0
   26.2587  -21.8876  -12.8343 O   0  0  0  0  0  0  0  0  0  0  0  0
   23.4844  -19.1250  -18.8877 N   0  0  0  0  0  0  0  0  0  0  0  0
   27.5667  -20.5021  -11.5156 C   0  0  2  0  0  0  0  0  0  0  0  0
   26.7299  -20.6060  -10.3622 C   0  0  0  0  0  0  0  0  0  0  0  0
   27.1880  -19.8957   -9.1407 C   0  0  0  0  0  0  0  0  0  0  0  0
   26.3568  -20.1734   -7.9164 C   0  0  0  0  0  0  0  0  0  0  0  0
   27.1893  -19.9366   -6.7142 O   0  0  0  0  0  0  0  0  0  0  0  0
   26.6880  -20.1696   -5.5873 C   0  0  0  0  0  0  0  0  0  0  0  0
   25.3975  -19.9915  -10.7257 O   0  0  0  0  0  0  0  0  0  0  0  0
   25.3116  -19.0481  -11.5503 O   0  0  0  0  0  0  0  0  0  0  0  0
   28.4753  -19.4719   -6.8196 N   0  0  0  0  0  0  0  0  0  0  0  0
   19.2979  -20.2021  -15.2265 C   0  0  0  0  0  0  0  0  0  0  0  0
   20.5972  -19.9752  -15.7925 N   0  0  0  0  0  0  0  0  0  0  0  0
   20.7706  -19.2446  -16.8278 N   0  0  0  0  0  0  0  0  0  0  0  0
   21.7264  -20.5752  -15.1867 C   0  0  0  0  0  0  0  0  0  0  0  0
   21.5866  -21.5592  -14.1255 C   0  0  0  0  0  0  0  0  0  0  0  0
   21.5397  -20.7653  -12.8314 C   0  0  0  0  0  0  0  0  0  0  0  0
   22.8231  -20.9062  -12.0765 C   0  0  1  0  0  0  0  0  0  0  0  0
   22.8726  -20.1596  -10.7710 N   0  0  0  0  0  0  0  0  0  0  0  0
   24.1852  -20.4421  -10.1589 C   0  0  0  0  0  0  0  0  0  0  0  0
   21.7843  -20.6100   -9.8767 O   0  0  0  0  0  0  0  0  0  0  0  0
   22.0359  -21.2654   -8.6848 O   0  0  0  0  0  0  0  0  0  0  0  0
  1  2  1  0
  2  3  2  0
  4  2  1  0
  4  5  1  0
  6  5  1  0
  7  8  1  0
  7  6  1  0
  8  9  1  6
 10  8  1  0
 11 10  2  0
 12 10  1  0
 13 18  1  0
 13 12  1  0
 13 14  1  6
 15 16  1  0
 15 14  1  0
 16 20  1  0
 17 16  2  0
 18 19  2  0
 21 22  1  0
 22 24  1  0
 22 23  2  0
 24 25  1  0
 26 25  1  0
 27 26  1  0
 28 27  1  6
 29 18  1  0
 29 28  1  0
 30 28  1  0
 30 31  1  0
 32 30  2  0
M  END
$$$$
