RER.pdb
     RDKit          3D

 32 31  0  0  1  0  0  0  0  0999 V2000
   21.2083  -28.7981  -15.3924 N   0  0  0  0  0  0  0  0  0  0  0  0
   21.4095  -29.4874  -14.1548 C   0  0  0  0  0  0  0  0  0  0  0  0
   21.8350  -30.6906  -14.1226 N   0  0  0  0  0  0  0  0  0  0  0  0
   21.1407  -28.8192  -12.9483 N   0  0  0  0  0  0  0  0  0  0  0  0
   20.6836  -27.4657  -12.8755 C   0  0  0  0  0  0  0  0  0  0  0  0
   21.7526  -26.5079  -13.2658 C   0  0  0  0  0  0  0  0  0  0  0  0
   21.3994  -25.0631  -13.2731 C   0  0  0  0  0  0  0  0  0  0  0  0
   20.3941  -24.8397  -14.4158 C   0  0  2  0  0  0  0  0  0  0  0  0
   21.0298  -24.8750  -15.7106 N   0  0  0  0  0  0  0  0  0  0  0  0
   19.5670  -23.6298  -14.1978 C   0  0  0  0  0  0  0  0  0  0  0  0
   18.8867  -23.5671  -13.1410 O   0  0  0  0  0  0  0  0  0  0  0  0
   22.0277  -31.1686  -13.2398 N   0  0  0  0  0  0  0  0  0  0  0  0
   19.5191  -22.5591  -15.1294 C   0  0  2  0  0  0  0  0  0  0  0  0
   18.6642  -21.4254  -14.9701 C   0  0  0  0  0  0  0  0  0  0  0  0
   18.4095  -20.6075  -16.1836 C   0  0  0  0  0  0  0  0  0  0  0  0
   17.6981  -19.3081  -15.9144 C   0  0  0  0  0  0  0  0  0  0  0  0
   17.6073  -18.5458  -17.1814 O   0  0  0  0  0  0  0  0  0  0  0  0
   18.2044  -18.9943  -18.1903 C   0  0  0  0  0  0  0  0  0  0  0  0
   17.3155  -21.9471  -14.5294 O   0  0  0  0  0  0  0  0  0  0  0  0
   17.0760  -23.1782  -14.4645 O   0  0  0  0  0  0  0  0  0  0  0  0
   16.8940  -17.3771  -17.2590 N   0  0  0  0  0  0  0  0  0  0  0  0
   13.3622  -25.8982   -9.2333 C   0  0  0  0  0  0  0  0  0  0  0  0
   14.6677  -25.4585   -8.8305 N   0  0  0  0  0  0  0  0  0  0  0  0
   15.2779  -25.9666   -7.8279 N   0  0  0  0  0  0  0  0  0  0  0  0
   15.3056  -24.4316   -9.5658 C   0  0  0  0  0  0  0  0  0  0  0  0
   14.5527  -23.5306  -10.4232 C   0  0  0  0  0  0  0  0  0  0  0  0
   15.3326  -23.4526  -11.7244 C   0  0  0  0  0  0  0  0  0  0  0  0
   15.6834  -22.0352  -12.0478 C   0  0  2  0  0  0  0  0  0  0  0  0
   15.1184  -21.5256  -13.3459 N   0  0  0  0  0  0  0  0  0  0  0  0
   16.2584  -21.0820  -14.1712 C   0  0  0  0  0  0  0  0  0  0  0  0
   14.1958  -20.3963  -13.0999 O   0  0  0  0  0  0  0  0  0  0  0  0
   12.8876  -20.5907  -12.6945 O   0  0  0  0  0  0  0  0  0  0  0  0
  1  2  1  0
  2  3  2  0
  4  2  1  0
  4  5  1  0
  6  5  1  0
  7  8  1  0
  7  6  1  0
  8  9  1  6
 10  8  1  0
 11 10  2  0
 12 10  1  0
 13 18  1  0
 13 12  1  0
 13 14  1  6
 15 16  1  0
 15 14  1  0
 16 20  1  0
 17 16  2  0
 18 19  2  0
 21 22  1  0
 22 24  1  0
 22 23  2  0
 24 25  1  0
 26 25  1  0
 27 26  1  0
 28 27  1  6
 29 18  1  0
 29 28  1  0
 30 28  1  0
 30 31  1  0
 32 30  2  0
M  END
$$$$
