RER.pdb
     RDKit          3D

 32 31  0  0  1  0  0  0  0  0999 V2000
   17.5889  -25.5311   -5.1648 N   0  0  0  0  0  0  0  0  0  0  0  0
   17.4328  -25.7237   -3.7556 C   0  0  0  0  0  0  0  0  0  0  0  0
   18.3537  -26.2551   -3.0488 N   0  0  0  0  0  0  0  0  0  0  0  0
   16.2416  -25.3090   -3.1364 N   0  0  0  0  0  0  0  0  0  0  0  0
   15.2002  -24.6000   -3.8139 C   0  0  0  0  0  0  0  0  0  0  0  0
   14.8965  -23.3071   -3.1440 C   0  0  0  0  0  0  0  0  0  0  0  0
   14.4842  -23.3632   -1.7161 C   0  0  0  0  0  0  0  0  0  0  0  0
   14.0215  -21.9524   -1.3137 C   0  0  2  0  0  0  0  0  0  0  0  0
   14.3393  -20.9704   -2.3219 N   0  0  0  0  0  0  0  0  0  0  0  0
   14.4922  -21.5801    0.0410 C   0  0  0  0  0  0  0  0  0  0  0  0
   14.5110  -20.3579    0.3401 O   0  0  0  0  0  0  0  0  0  0  0  0
   18.2490  -26.3850   -2.0403 N   0  0  0  0  0  0  0  0  0  0  0  0
   14.9163  -22.5438    0.9941 C   0  0  2  0  0  0  0  0  0  0  0  0
   14.9901  -22.2738    2.3952 C   0  0  0  0  0  0  0  0  0  0  0  0
   15.0904  -23.4507    3.2959 C   0  0  0  0  0  0  0  0  0  0  0  0
   15.1225  -23.1060    4.7611 C   0  0  0  0  0  0  0  0  0  0  0  0
   15.0867  -24.3627    5.5449 O   0  0  0  0  0  0  0  0  0  0  0  0
   16.1638  -24.9799    5.7301 C   0  0  0  0  0  0  0  0  0  0  0  0
   16.2472  -21.4662    2.6243 O   0  0  0  0  0  0  0  0  0  0  0  0
   17.2689  -21.6237    1.9112 O   0  0  0  0  0  0  0  0  0  0  0  0
   13.9108  -24.8489    6.0565 N   0  0  0  0  0  0  0  0  0  0  0  0
   16.2417  -13.5149    2.6986 C   0  0  0  0  0  0  0  0  0  0  0  0
   15.4603  -14.7160    2.6164 N   0  0  0  0  0  0  0  0  0  0  0  0
   14.1860  -14.6931    2.5098 N   0  0  0  0  0  0  0  0  0  0  0  0
   16.1174  -15.9686    2.6510 C   0  0  0  0  0  0  0  0  0  0  0  0
   17.5479  -16.0701    2.8904 C   0  0  0  0  0  0  0  0  0  0  0  0
   17.8786  -17.5491    2.7879 C   0  0  0  0  0  0  0  0  0  0  0  0
   17.2730  -18.3075    3.9258 C   0  0  2  0  0  0  0  0  0  0  0  0
   17.5925  -19.7778    3.9454 N   0  0  0  0  0  0  0  0  0  0  0  0
   16.3394  -20.4982    3.6483 C   0  0  0  0  0  0  0  0  0  0  0  0
   18.1089  -20.1767    5.2724 O   0  0  0  0  0  0  0  0  0  0  0  0
   19.2298  -19.5900    5.8318 O   0  0  0  0  0  0  0  0  0  0  0  0
  1  2  1  0
  2  3  2  0
  4  2  1  0
  4  5  1  0
  6  5  1  0
  7  8  1  0
  7  6  1  0
  8  9  1  6
 10  8  1  0
 11 10  2  0
 12 10  1  0
 13 18  1  0
 13 12  1  0
 13 14  1  6
 15 16  1  0
 15 14  1  0
 16 20  1  0
 17 16  2  0
 18 19  2  0
 21 22  1  0
 22 24  1  0
 22 23  2  0
 24 25  1  0
 26 25  1  0
 27 26  1  0
 28 27  1  6
 29 18  1  0
 29 28  1  0
 30 28  1  0
 30 31  1  0
 32 30  2  0
M  END
$$$$
