RER.pdb
     RDKit          3D

 32 31  0  0  1  0  0  0  0  0999 V2000
   31.2392  -23.8662  -16.5559 N   0  0  0  0  0  0  0  0  0  0  0  0
   30.8911  -25.2533  -16.6006 C   0  0  0  0  0  0  0  0  0  0  0  0
   31.6673  -26.1515  -16.1308 N   0  0  0  0  0  0  0  0  0  0  0  0
   29.6620  -25.6321  -17.1664 N   0  0  0  0  0  0  0  0  0  0  0  0
   28.7274  -24.7057  -17.7273 C   0  0  0  0  0  0  0  0  0  0  0  0
   28.3212  -23.6740  -16.7358 C   0  0  0  0  0  0  0  0  0  0  0  0
   26.8992  -23.6752  -16.2995 C   0  0  0  0  0  0  0  0  0  0  0  0
   26.0787  -24.3643  -17.4032 C   0  0  2  0  0  0  0  0  0  0  0  0
   26.2274  -23.7068  -18.6788 N   0  0  0  0  0  0  0  0  0  0  0  0
   24.6658  -24.5610  -17.0024 C   0  0  0  0  0  0  0  0  0  0  0  0
   23.8260  -23.6999  -17.3722 O   0  0  0  0  0  0  0  0  0  0  0  0
   31.4232  -27.1436  -16.1652 N   0  0  0  0  0  0  0  0  0  0  0  0
   24.2393  -25.6713  -16.2265 C   0  0  2  0  0  0  0  0  0  0  0  0
   22.8766  -25.8829  -15.8524 C   0  0  0  0  0  0  0  0  0  0  0  0
   22.5848  -27.1079  -15.0645 C   0  0  0  0  0  0  0  0  0  0  0  0
   23.0052  -28.3885  -15.7355 C   0  0  0  0  0  0  0  0  0  0  0  0
   22.7498  -29.5156  -14.8086 O   0  0  0  0  0  0  0  0  0  0  0  0
   22.2283  -29.2642  -13.6949 C   0  0  0  0  0  0  0  0  0  0  0  0
   22.4727  -24.7188  -14.9766 O   0  0  0  0  0  0  0  0  0  0  0  0
   23.2239  -24.2887  -14.0668 O   0  0  0  0  0  0  0  0  0  0  0  0
   23.0743  -30.8039  -15.1487 N   0  0  0  0  0  0  0  0  0  0  0  0
   21.8816  -17.0414  -16.6058 C   0  0  0  0  0  0  0  0  0  0  0  0
   22.7428  -17.8695  -15.8105 N   0  0  0  0  0  0  0  0  0  0  0  0
   24.0052  -17.6747  -15.7463 N   0  0  0  0  0  0  0  0  0  0  0  0
   22.1806  -18.9355  -15.0692 C   0  0  0  0  0  0  0  0  0  0  0  0
   20.7531  -19.2101  -15.0961 C   0  0  0  0  0  0  0  0  0  0  0  0
   20.5567  -20.4528  -14.2449 C   0  0  0  0  0  0  0  0  0  0  0  0
   20.9422  -21.6819  -15.0048 C   0  0  2  0  0  0  0  0  0  0  0  0
   20.8005  -22.9686  -14.2377 N   0  0  0  0  0  0  0  0  0  0  0  0
   21.2346  -24.0580  -15.1333 C   0  0  0  0  0  0  0  0  0  0  0  0
   19.3944  -23.1736  -13.8280 O   0  0  0  0  0  0  0  0  0  0  0  0
   18.8079  -22.4336  -12.8171 O   0  0  0  0  0  0  0  0  0  0  0  0
  1  2  1  0
  2  3  2  0
  4  2  1  0
  4  5  1  0
  6  5  1  0
  7  8  1  0
  7  6  1  0
  8  9  1  6
 10  8  1  0
 11 10  2  0
 12 10  1  0
 13 18  1  0
 13 12  1  0
 13 14  1  6
 15 16  1  0
 15 14  1  0
 16 20  1  0
 17 16  2  0
 18 19  2  0
 21 22  1  0
 22 24  1  0
 22 23  2  0
 24 25  1  0
 26 25  1  0
 27 26  1  0
 28 27  1  1
 29 18  1  0
 29 28  1  0
 30 28  1  0
 30 31  1  0
 32 30  2  0
M  END
$$$$
