RER.pdb
     RDKit          3D

 32 31  0  0  1  0  0  0  0  0999 V2000
   27.9213  -21.9172  -18.0152 N   0  0  0  0  0  0  0  0  0  0  0  0
   27.9243  -20.5185  -17.7140 C   0  0  0  0  0  0  0  0  0  0  0  0
   28.5306  -19.6770  -18.4584 N   0  0  0  0  0  0  0  0  0  0  0  0
   27.2355  -20.0621  -16.5776 N   0  0  0  0  0  0  0  0  0  0  0  0
   26.3443  -20.8759  -15.8096 C   0  0  0  0  0  0  0  0  0  0  0  0
   24.9227  -20.5298  -16.0778 C   0  0  0  0  0  0  0  0  0  0  0  0
   24.1905  -19.7955  -15.0116 C   0  0  0  0  0  0  0  0  0  0  0  0
   23.9623  -20.7767  -13.8490 C   0  0  2  0  0  0  0  0  0  0  0  0
   24.1501  -22.1488  -14.2540 N   0  0  0  0  0  0  0  0  0  0  0  0
   22.6701  -20.5353  -13.1655 C   0  0  0  0  0  0  0  0  0  0  0  0
   22.4145  -19.3609  -12.7924 O   0  0  0  0  0  0  0  0  0  0  0  0
   28.5398  -18.6779  -18.2424 N   0  0  0  0  0  0  0  0  0  0  0  0
   21.7293  -21.5708  -12.9222 C   0  0  1  0  0  0  0  0  0  0  0  0
   20.4670  -21.3445  -12.2923 C   0  0  0  0  0  0  0  0  0  0  0  0
   19.3556  -20.8959  -13.1698 C   0  0  0  0  0  0  0  0  0  0  0  0
   18.8218  -19.5274  -12.8394 C   0  0  0  0  0  0  0  0  0  0  0  0
   17.6497  -19.2542  -13.7033 O   0  0  0  0  0  0  0  0  0  0  0  0
   16.5057  -19.5054  -13.2519 C   0  0  0  0  0  0  0  0  0  0  0  0
   20.0244  -22.6640  -11.7021 O   0  0  0  0  0  0  0  0  0  0  0  0
   20.0848  -23.7319  -12.3602 O   0  0  0  0  0  0  0  0  0  0  0  0
   17.8009  -18.7428  -14.9668 N   0  0  0  0  0  0  0  0  0  0  0  0
   15.8359  -24.4989   -3.8505 C   0  0  0  0  0  0  0  0  0  0  0  0
   16.4091  -25.6916   -4.4062 N   0  0  0  0  0  0  0  0  0  0  0  0
   16.5085  -26.7758   -3.7350 N   0  0  0  0  0  0  0  0  0  0  0  0
   16.8782  -25.6728   -5.7410 C   0  0  0  0  0  0  0  0  0  0  0  0
   17.6242  -24.5418   -6.2686 C   0  0  0  0  0  0  0  0  0  0  0  0
   17.9668  -24.9074   -7.7026 C   0  0  0  0  0  0  0  0  0  0  0  0
   18.6454  -23.7670   -8.3924 C   0  0  1  0  0  0  0  0  0  0  0  0
   19.0520  -24.0418   -9.8149 N   0  0  0  0  0  0  0  0  0  0  0  0
   19.5205  -22.7648  -10.3868 C   0  0  0  0  0  0  0  0  0  0  0  0
   17.9033  -24.5579  -10.5901 O   0  0  0  0  0  0  0  0  0  0  0  0
   16.8649  -23.7401  -10.9983 O   0  0  0  0  0  0  0  0  0  0  0  0
  1  2  1  0
  2  3  2  0
  4  2  1  0
  4  5  1  0
  6  5  1  0
  7  8  1  0
  7  6  1  0
  8  9  1  6
 10  8  1  0
 11 10  2  0
 12 10  1  0
 13 18  1  0
 13 12  1  0
 13 14  1  1
 15 16  1  0
 15 14  1  0
 16 20  1  0
 17 16  2  0
 18 19  2  0
 21 22  1  0
 22 24  1  0
 22 23  2  0
 24 25  1  0
 26 25  1  0
 27 26  1  0
 28 27  1  1
 29 18  1  0
 29 28  1  0
 30 28  1  0
 30 31  1  0
 32 30  2  0
M  END
$$$$
