RER.pdb
     RDKit          3D

 32 31  0  0  1  0  0  0  0  0999 V2000
   21.0021  -22.6562  -20.4908 N   0  0  0  0  0  0  0  0  0  0  0  0
   20.1356  -21.9438  -19.6026 C   0  0  0  0  0  0  0  0  0  0  0  0
   18.9953  -21.5149  -19.9842 N   0  0  0  0  0  0  0  0  0  0  0  0
   20.5475  -21.7207  -18.2779 N   0  0  0  0  0  0  0  0  0  0  0  0
   21.8959  -21.8821  -17.8282 C   0  0  0  0  0  0  0  0  0  0  0  0
   21.9722  -22.7841  -16.6479 C   0  0  0  0  0  0  0  0  0  0  0  0
   21.3347  -24.1220  -16.7742 C   0  0  0  0  0  0  0  0  0  0  0  0
   21.5348  -24.8563  -15.4373 C   0  0  2  0  0  0  0  0  0  0  0  0
   21.0763  -26.2231  -15.4966 N   0  0  0  0  0  0  0  0  0  0  0  0
   20.9728  -24.0948  -14.2973 C   0  0  0  0  0  0  0  0  0  0  0  0
   21.5191  -23.0020  -13.9957 O   0  0  0  0  0  0  0  0  0  0  0  0
   18.3951  -20.9635  -19.3672 N   0  0  0  0  0  0  0  0  0  0  0  0
   19.8573  -24.5537  -13.5477 C   0  0  1  0  0  0  0  0  0  0  0  0
   19.2468  -23.7849  -12.5096 C   0  0  0  0  0  0  0  0  0  0  0  0
   18.0603  -22.9760  -12.8897 C   0  0  0  0  0  0  0  0  0  0  0  0
   17.1780  -23.6224  -13.9244 C   0  0  0  0  0  0  0  0  0  0  0  0
   17.4216  -22.9681  -15.2310 O   0  0  0  0  0  0  0  0  0  0  0  0
   17.8818  -21.8002  -15.2356 C   0  0  0  0  0  0  0  0  0  0  0  0
   18.7657  -24.7614  -11.4607 O   0  0  0  0  0  0  0  0  0  0  0  0
   18.2005  -25.8381  -11.7747 O   0  0  0  0  0  0  0  0  0  0  0  0
   17.1515  -23.6127  -16.4110 N   0  0  0  0  0  0  0  0  0  0  0  0
   15.6856  -24.6673   -4.6016 C   0  0  0  0  0  0  0  0  0  0  0  0
   16.5147  -25.5910   -3.8810 N   0  0  0  0  0  0  0  0  0  0  0  0
   16.0467  -26.3601   -2.9726 N   0  0  0  0  0  0  0  0  0  0  0  0
   17.8951  -25.6585   -4.1844 C   0  0  0  0  0  0  0  0  0  0  0  0
   18.4818  -24.8485   -5.2397 C   0  0  0  0  0  0  0  0  0  0  0  0
   18.1765  -25.5779   -6.5366 C   0  0  0  0  0  0  0  0  0  0  0  0
   18.6908  -24.8080   -7.7112 C   0  0  1  0  0  0  0  0  0  0  0  0
   18.4336  -25.4494   -9.0478 N   0  0  0  0  0  0  0  0  0  0  0  0
   18.9240  -24.5151  -10.0793 C   0  0  0  0  0  0  0  0  0  0  0  0
   16.9876  -25.6996   -9.2311 O   0  0  0  0  0  0  0  0  0  0  0  0
   16.0952  -24.6809   -9.5127 O   0  0  0  0  0  0  0  0  0  0  0  0
  1  2  1  0
  2  3  2  0
  4  2  1  0
  4  5  1  0
  6  5  1  0
  7  8  1  0
  7  6  1  0
  8  9  1  6
 10  8  1  0
 11 10  2  0
 12 10  1  0
 13 18  1  0
 13 12  1  0
 13 14  1  1
 15 16  1  0
 15 14  1  0
 16 20  1  0
 17 16  2  0
 18 19  2  0
 21 22  1  0
 22 24  1  0
 22 23  2  0
 24 25  1  0
 26 25  1  0
 27 26  1  0
 28 27  1  1
 29 18  1  0
 29 28  1  0
 30 28  1  0
 30 31  1  0
 32 30  2  0
M  END
$$$$
