RER.pdb
     RDKit          3D

 32 31  0  0  1  0  0  0  0  0999 V2000
   29.8131  -23.3177  -21.0595 N   0  0  0  0  0  0  0  0  0  0  0  0
   30.4017  -22.6171  -19.9594 C   0  0  0  0  0  0  0  0  0  0  0  0
   31.5502  -22.9367  -19.5025 N   0  0  0  0  0  0  0  0  0  0  0  0
   29.7017  -21.5473  -19.3767 N   0  0  0  0  0  0  0  0  0  0  0  0
   28.7873  -21.6969  -18.2868 C   0  0  0  0  0  0  0  0  0  0  0  0
   27.4390  -21.1714  -18.6310 C   0  0  0  0  0  0  0  0  0  0  0  0
   26.3705  -21.3222  -17.6073 C   0  0  0  0  0  0  0  0  0  0  0  0
   27.0285  -21.1595  -16.2264 C   0  0  2  0  0  0  0  0  0  0  0  0
   28.2427  -21.9302  -16.1112 N   0  0  0  0  0  0  0  0  0  0  0  0
   26.0693  -21.4019  -15.1234 C   0  0  0  0  0  0  0  0  0  0  0  0
   24.9832  -21.9716  -15.4053 O   0  0  0  0  0  0  0  0  0  0  0  0
   31.9587  -22.4601  -18.6957 N   0  0  0  0  0  0  0  0  0  0  0  0
   26.3337  -21.0165  -13.7824 C   0  0  1  0  0  0  0  0  0  0  0  0
   25.4096  -21.2298  -12.7138 C   0  0  0  0  0  0  0  0  0  0  0  0
   25.8596  -20.8331  -11.3549 C   0  0  0  0  0  0  0  0  0  0  0  0
   24.8357  -21.0598  -10.2746 C   0  0  0  0  0  0  0  0  0  0  0  0
   25.4559  -20.7603   -8.9630 O   0  0  0  0  0  0  0  0  0  0  0  0
   26.6482  -20.3684   -8.9436 C   0  0  0  0  0  0  0  0  0  0  0  0
   24.1892  -20.3883  -13.0100 O   0  0  0  0  0  0  0  0  0  0  0  0
   24.2898  -19.2111  -13.4357 O   0  0  0  0  0  0  0  0  0  0  0  0
   24.7541  -20.9075   -7.7940 N   0  0  0  0  0  0  0  0  0  0  0  0
   20.9147  -19.7840  -19.7442 C   0  0  0  0  0  0  0  0  0  0  0  0
   20.6265  -20.8664  -18.8468 N   0  0  0  0  0  0  0  0  0  0  0  0
   20.3977  -22.0537  -19.2635 N   0  0  0  0  0  0  0  0  0  0  0  0
   20.5964  -20.6167  -17.4544 C   0  0  0  0  0  0  0  0  0  0  0  0
   20.7792  -19.2777  -16.9181 C   0  0  0  0  0  0  0  0  0  0  0  0
   20.5718  -19.4029  -15.4185 C   0  0  0  0  0  0  0  0  0  0  0  0
   21.7632  -20.0322  -14.7695 C   0  0  1  0  0  0  0  0  0  0  0  0
   21.6844  -20.1352  -13.2704 N   0  0  0  0  0  0  0  0  0  0  0  0
   22.8781  -20.8784  -12.8230 C   0  0  0  0  0  0  0  0  0  0  0  0
   20.4554  -20.8511  -12.8656 O   0  0  0  0  0  0  0  0  0  0  0  0
   20.4940  -22.0973  -12.2666 O   0  0  0  0  0  0  0  0  0  0  0  0
  1  2  1  0
  2  3  2  0
  4  2  1  0
  4  5  1  0
  6  5  1  0
  7  8  1  0
  7  6  1  0
  8  9  1  6
 10  8  1  0
 11 10  2  0
 12 10  1  0
 13 18  1  0
 13 12  1  0
 13 14  1  1
 15 16  1  0
 15 14  1  0
 16 20  1  0
 17 16  2  0
 18 19  2  0
 21 22  1  0
 22 24  1  0
 22 23  2  0
 24 25  1  0
 26 25  1  0
 27 26  1  0
 28 27  1  1
 29 18  1  0
 29 28  1  0
 30 28  1  0
 30 31  1  0
 32 30  2  0
M  END
$$$$
