RER.pdb
     RDKit          3D

 32 31  0  0  1  0  0  0  0  0999 V2000
   30.6814  -21.4199  -19.5384 N   0  0  0  0  0  0  0  0  0  0  0  0
   30.4094  -20.1090  -20.0432 C   0  0  0  0  0  0  0  0  0  0  0  0
   30.8871  -19.7111  -21.1583 N   0  0  0  0  0  0  0  0  0  0  0  0
   29.5899  -19.2453  -19.2972 N   0  0  0  0  0  0  0  0  0  0  0  0
   28.9953  -19.5996  -18.0453 C   0  0  0  0  0  0  0  0  0  0  0  0
   27.7264  -20.3513  -18.2384 C   0  0  0  0  0  0  0  0  0  0  0  0
   26.8126  -20.4513  -17.0690 C   0  0  0  0  0  0  0  0  0  0  0  0
   27.4010  -21.5025  -16.1124 C   0  0  2  0  0  0  0  0  0  0  0  0
   27.9088  -22.6534  -16.8189 N   0  0  0  0  0  0  0  0  0  0  0  0
   26.4594  -21.8482  -15.0219 C   0  0  0  0  0  0  0  0  0  0  0  0
   25.6672  -22.8070  -15.2130 O   0  0  0  0  0  0  0  0  0  0  0  0
   30.7367  -18.7585  -21.4975 N   0  0  0  0  0  0  0  0  0  0  0  0
   26.4241  -21.1417  -13.7904 C   0  0  2  0  0  0  0  0  0  0  0  0
   25.4760  -21.4214  -12.7587 C   0  0  0  0  0  0  0  0  0  0  0  0
   25.7564  -20.8396  -11.4210 C   0  0  0  0  0  0  0  0  0  0  0  0
   24.7082  -21.1431  -10.3836 C   0  0  0  0  0  0  0  0  0  0  0  0
   25.1186  -20.5268   -9.1005 O   0  0  0  0  0  0  0  0  0  0  0  0
   26.2665  -20.0253   -9.0209 C   0  0  0  0  0  0  0  0  0  0  0  0
   24.1556  -20.8324  -13.2001 O   0  0  0  0  0  0  0  0  0  0  0  0
   24.0910  -19.7119  -13.7635 O   0  0  0  0  0  0  0  0  0  0  0  0
   24.2737  -20.5028   -8.0204 N   0  0  0  0  0  0  0  0  0  0  0  0
   16.7384  -24.6017  -16.1690 C   0  0  0  0  0  0  0  0  0  0  0  0
   16.5916  -23.1811  -16.3114 N   0  0  0  0  0  0  0  0  0  0  0  0
   15.6170  -22.6584  -16.9539 N   0  0  0  0  0  0  0  0  0  0  0  0
   17.5526  -22.3270  -15.7206 C   0  0  0  0  0  0  0  0  0  0  0  0
   18.6922  -22.8561  -14.9890 C   0  0  0  0  0  0  0  0  0  0  0  0
   19.4784  -21.6444  -14.5189 C   0  0  0  0  0  0  0  0  0  0  0  0
   20.8132  -22.0542  -13.9829 C   0  0  2  0  0  0  0  0  0  0  0  0
   21.6354  -20.9312  -13.4111 N   0  0  0  0  0  0  0  0  0  0  0  0
   22.9309  -21.5067  -13.0014 C   0  0  0  0  0  0  0  0  0  0  0  0
   20.9511  -20.3315  -12.2453 O   0  0  0  0  0  0  0  0  0  0  0  0
   19.9867  -19.3496  -12.3839 O   0  0  0  0  0  0  0  0  0  0  0  0
  1  2  1  0
  2  3  2  0
  4  2  1  0
  4  5  1  0
  6  5  1  0
  7  8  1  0
  7  6  1  0
  8  9  1  6
 10  8  1  0
 11 10  2  0
 12 10  1  0
 13 18  1  0
 13 12  1  0
 13 14  1  1
 15 16  1  0
 15 14  1  0
 16 20  1  0
 17 16  2  0
 18 19  2  0
 21 22  1  0
 22 24  1  0
 22 23  2  0
 24 25  1  0
 26 25  1  0
 27 26  1  0
 28 27  1  6
 29 18  1  0
 29 28  1  0
 30 28  1  0
 30 31  1  0
 32 30  2  0
M  END
$$$$
