RER.pdb
     RDKit          3D

 32 31  0  0  1  0  0  0  0  0999 V2000
   31.1994  -20.9520   -8.7637 N   0  0  0  0  0  0  0  0  0  0  0  0
   31.6250  -21.8128   -9.8245 C   0  0  0  0  0  0  0  0  0  0  0  0
   32.6614  -22.5495   -9.7108 N   0  0  0  0  0  0  0  0  0  0  0  0
   30.8780  -21.8534  -11.0138 N   0  0  0  0  0  0  0  0  0  0  0  0
   30.1293  -20.7441  -11.5190 C   0  0  0  0  0  0  0  0  0  0  0  0
   28.6670  -20.9443  -11.3341 C   0  0  0  0  0  0  0  0  0  0  0  0
   27.9979  -21.9252  -12.2298 C   0  0  0  0  0  0  0  0  0  0  0  0
   27.2223  -21.1264  -13.2912 C   0  0  2  0  0  0  0  0  0  0  0  0
   27.4821  -19.7101  -13.1996 N   0  0  0  0  0  0  0  0  0  0  0  0
   25.7792  -21.4622  -13.2926 C   0  0  0  0  0  0  0  0  0  0  0  0
   25.4603  -22.6795  -13.2835 O   0  0  0  0  0  0  0  0  0  0  0  0
   32.9770  -23.1536  -10.4727 N   0  0  0  0  0  0  0  0  0  0  0  0
   24.7638  -20.4695  -13.3050 C   0  0  1  0  0  0  0  0  0  0  0  0
   23.3698  -20.7812  -13.3404 C   0  0  0  0  0  0  0  0  0  0  0  0
   22.4420  -19.7437  -12.8215 C   0  0  0  0  0  0  0  0  0  0  0  0
   21.0166  -20.2068  -12.6769 C   0  0  0  0  0  0  0  0  0  0  0  0
   20.2062  -19.0874  -12.1431 O   0  0  0  0  0  0  0  0  0  0  0  0
   20.7762  -17.9904  -11.9253 C   0  0  0  0  0  0  0  0  0  0  0  0
   22.9986  -20.9828  -14.7919 O   0  0  0  0  0  0  0  0  0  0  0  0
   23.2149  -20.0966  -15.6551 O   0  0  0  0  0  0  0  0  0  0  0  0
   18.8672  -19.2371  -11.8874 N   0  0  0  0  0  0  0  0  0  0  0  0
   16.4364  -25.1808  -16.4757 C   0  0  0  0  0  0  0  0  0  0  0  0
   17.1984  -25.2748  -15.2630 N   0  0  0  0  0  0  0  0  0  0  0  0
   17.3305  -26.3757  -14.6256 N   0  0  0  0  0  0  0  0  0  0  0  0
   17.8284  -24.1145  -14.7542 C   0  0  0  0  0  0  0  0  0  0  0  0
   17.5630  -22.7986  -15.3126 C   0  0  0  0  0  0  0  0  0  0  0  0
   18.7527  -22.4813  -16.2022 C   0  0  0  0  0  0  0  0  0  0  0  0
   20.0278  -22.5405  -15.4228 C   0  0  1  0  0  0  0  0  0  0  0  0
   21.2606  -22.1665  -16.2003 N   0  0  0  0  0  0  0  0  0  0  0  0
   22.3905  -22.1716  -15.2513 C   0  0  0  0  0  0  0  0  0  0  0  0
   21.1046  -20.8245  -16.8019 O   0  0  0  0  0  0  0  0  0  0  0  0
   21.5436  -20.5371  -18.0818 O   0  0  0  0  0  0  0  0  0  0  0  0
  1  2  1  0
  2  3  2  0
  4  2  1  0
  4  5  1  0
  6  5  1  0
  7  8  1  0
  7  6  1  0
  8  9  1  1
 10  8  1  0
 11 10  2  0
 12 10  1  0
 13 18  1  0
 13 12  1  0
 13 14  1  1
 15 16  1  0
 15 14  1  0
 16 20  1  0
 17 16  2  0
 18 19  2  0
 21 22  1  0
 22 24  1  0
 22 23  2  0
 24 25  1  0
 26 25  1  0
 27 26  1  0
 28 27  1  6
 29 18  1  0
 29 28  1  0
 30 28  1  0
 30 31  1  0
 32 30  2  0
M  END
$$$$
