RER.pdb
     RDKit          3D

 32 31  0  0  1  0  0  0  0  0999 V2000
   27.8836  -25.8646  -16.4690 N   0  0  0  0  0  0  0  0  0  0  0  0
   27.3688  -25.5403  -17.7640 C   0  0  0  0  0  0  0  0  0  0  0  0
   27.6661  -26.2346  -18.7933 N   0  0  0  0  0  0  0  0  0  0  0  0
   26.5091  -24.4375  -17.9018 N   0  0  0  0  0  0  0  0  0  0  0  0
   25.8655  -23.7904  -16.8002 C   0  0  0  0  0  0  0  0  0  0  0  0
   25.4118  -24.7736  -15.7804 C   0  0  0  0  0  0  0  0  0  0  0  0
   24.6477  -24.2433  -14.6196 C   0  0  0  0  0  0  0  0  0  0  0  0
   23.2058  -23.9915  -15.0928 C   0  0  2  0  0  0  0  0  0  0  0  0
   23.1627  -23.2132  -16.3070 N   0  0  0  0  0  0  0  0  0  0  0  0
   22.3552  -23.4432  -14.0106 C   0  0  0  0  0  0  0  0  0  0  0  0
   22.3943  -24.0121  -12.8888 O   0  0  0  0  0  0  0  0  0  0  0  0
   27.3115  -25.9969  -19.7221 N   0  0  0  0  0  0  0  0  0  0  0  0
   21.5115  -22.3164  -14.1985 C   0  0  1  0  0  0  0  0  0  0  0  0
   20.7534  -21.7258  -13.1412 C   0  0  0  0  0  0  0  0  0  0  0  0
   20.0672  -20.4448  -13.4488 C   0  0  0  0  0  0  0  0  0  0  0  0
   20.9985  -19.3108  -13.7859 C   0  0  0  0  0  0  0  0  0  0  0  0
   20.1891  -18.1200  -14.1344 O   0  0  0  0  0  0  0  0  0  0  0  0
   20.7891  -17.0590  -14.4342 C   0  0  0  0  0  0  0  0  0  0  0  0
   19.6613  -22.7062  -12.7791 O   0  0  0  0  0  0  0  0  0  0  0  0
   18.9487  -23.2510  -13.6581 O   0  0  0  0  0  0  0  0  0  0  0  0
   18.8184  -18.1651  -14.1294 N   0  0  0  0  0  0  0  0  0  0  0  0
   18.2134  -26.2788   -4.8737 C   0  0  0  0  0  0  0  0  0  0  0  0
   17.1594  -25.4775   -5.4277 N   0  0  0  0  0  0  0  0  0  0  0  0
   16.2732  -24.9173   -4.6951 N   0  0  0  0  0  0  0  0  0  0  0  0
   17.0966  -25.2963   -6.8296 C   0  0  0  0  0  0  0  0  0  0  0  0
   18.0685  -25.9104   -7.7197 C   0  0  0  0  0  0  0  0  0  0  0  0
   17.6649  -25.4905   -9.1226 C   0  0  0  0  0  0  0  0  0  0  0  0
   18.5935  -24.4434   -9.6500 C   0  0  2  0  0  0  0  0  0  0  0  0
   18.3457  -24.0419  -11.0788 N   0  0  0  0  0  0  0  0  0  0  0  0
   19.3847  -23.0583  -11.4398 C   0  0  0  0  0  0  0  0  0  0  0  0
   17.0019  -23.4411  -11.2210 O   0  0  0  0  0  0  0  0  0  0  0  0
   15.9144  -24.1698  -11.6679 O   0  0  0  0  0  0  0  0  0  0  0  0
  1  2  1  0
  2  3  2  0
  4  2  1  0
  4  5  1  0
  6  5  1  0
  7  8  1  0
  7  6  1  0
  8  9  1  6
 10  8  1  0
 11 10  2  0
 12 10  1  0
 13 18  1  0
 13 12  1  0
 13 14  1  1
 15 16  1  0
 15 14  1  0
 16 20  1  0
 17 16  2  0
 18 19  2  0
 21 22  1  0
 22 24  1  0
 22 23  2  0
 24 25  1  0
 26 25  1  0
 27 26  1  0
 28 27  1  6
 29 18  1  0
 29 28  1  0
 30 28  1  0
 30 31  1  0
 32 30  2  0
M  END
$$$$
