RER.pdb
     RDKit          3D

 32 31  0  0  1  0  0  0  0  0999 V2000
   19.7014  -23.3138  -13.1977 N   0  0  0  0  0  0  0  0  0  0  0  0
   18.5979  -22.4280  -12.9854 C   0  0  0  0  0  0  0  0  0  0  0  0
   17.9917  -21.8714  -13.9614 N   0  0  0  0  0  0  0  0  0  0  0  0
   18.1675  -22.1742  -11.6721 N   0  0  0  0  0  0  0  0  0  0  0  0
   18.8450  -22.6556  -10.5079 C   0  0  0  0  0  0  0  0  0  0  0  0
   18.4260  -24.0418  -10.1680 C   0  0  0  0  0  0  0  0  0  0  0  0
   17.5845  -24.2178   -8.9543 C   0  0  0  0  0  0  0  0  0  0  0  0
   18.2454  -25.3040   -8.0883 C   0  0  2  0  0  0  0  0  0  0  0  0
   18.6501  -26.4474   -8.8697 N   0  0  0  0  0  0  0  0  0  0  0  0
   17.4150  -25.6571   -6.9130 C   0  0  0  0  0  0  0  0  0  0  0  0
   16.1818  -25.4139   -6.9719 O   0  0  0  0  0  0  0  0  0  0  0  0
   17.2385  -21.1969  -13.8113 N   0  0  0  0  0  0  0  0  0  0  0  0
   17.9597  -26.2496   -5.7430 C   0  0  1  0  0  0  0  0  0  0  0  0
   17.2064  -26.4427   -4.5444 C   0  0  0  0  0  0  0  0  0  0  0  0
   17.9103  -27.1012   -3.4142 C   0  0  0  0  0  0  0  0  0  0  0  0
   17.0681  -27.2724   -2.1779 C   0  0  0  0  0  0  0  0  0  0  0  0
   17.8851  -27.9365   -1.1357 O   0  0  0  0  0  0  0  0  0  0  0  0
   18.2538  -29.1201   -1.3325 C   0  0  0  0  0  0  0  0  0  0  0  0
   16.8101  -25.0718   -4.0456 O   0  0  0  0  0  0  0  0  0  0  0  0
   17.6395  -24.1311   -3.9792 O   0  0  0  0  0  0  0  0  0  0  0  0
   18.2322  -27.2839    0.0194 N   0  0  0  0  0  0  0  0  0  0  0  0
   10.2116  -21.5005   -6.8677 C   0  0  0  0  0  0  0  0  0  0  0  0
   11.1057  -22.5981   -7.1041 N   0  0  0  0  0  0  0  0  0  0  0  0
   10.8565  -23.5046   -7.9712 N   0  0  0  0  0  0  0  0  0  0  0  0
   12.3047  -22.6824   -6.3576 C   0  0  0  0  0  0  0  0  0  0  0  0
   12.6937  -21.6380   -5.4238 C   0  0  0  0  0  0  0  0  0  0  0  0
   14.0348  -22.0711   -4.8569 C   0  0  0  0  0  0  0  0  0  0  0  0
   13.8470  -23.0386   -3.7320 C   0  0  2  0  0  0  0  0  0  0  0  0
   15.1182  -23.4721   -3.0536 N   0  0  0  0  0  0  0  0  0  0  0  0
   15.4933  -24.7783   -3.6284 C   0  0  0  0  0  0  0  0  0  0  0  0
   14.9087  -23.5969   -1.5950 O   0  0  0  0  0  0  0  0  0  0  0  0
   14.8629  -22.4936   -0.7618 O   0  0  0  0  0  0  0  0  0  0  0  0
  1  2  1  0
  2  3  2  0
  4  2  1  0
  4  5  1  0
  6  5  1  0
  7  8  1  0
  7  6  1  0
  8  9  1  6
 10  8  1  0
 11 10  2  0
 12 10  1  0
 13 18  1  0
 13 12  1  0
 13 14  1  1
 15 16  1  0
 15 14  1  0
 16 20  1  0
 17 16  2  0
 18 19  2  0
 21 22  1  0
 22 24  1  0
 22 23  2  0
 24 25  1  0
 26 25  1  0
 27 26  1  0
 28 27  1  6
 29 18  1  0
 29 28  1  0
 30 28  1  0
 30 31  1  0
 32 30  2  0
M  END
$$$$
