RER.pdb
     RDKit          3D

 32 31  0  0  1  0  0  0  0  0999 V2000
   21.9501  -19.9481  -15.9232 N   0  0  0  0  0  0  0  0  0  0  0  0
   22.8488  -20.1283  -17.0219 C   0  0  0  0  0  0  0  0  0  0  0  0
   22.8679  -21.2114  -17.6976 N   0  0  0  0  0  0  0  0  0  0  0  0
   23.7228  -19.0843  -17.3690 N   0  0  0  0  0  0  0  0  0  0  0  0
   23.7204  -17.8029  -16.7332 C   0  0  0  0  0  0  0  0  0  0  0  0
   24.7590  -16.9072  -17.3091 C   0  0  0  0  0  0  0  0  0  0  0  0
   24.8380  -15.5241  -16.7677 C   0  0  0  0  0  0  0  0  0  0  0  0
   26.2064  -15.3750  -16.0810 C   0  0  2  0  0  0  0  0  0  0  0  0
   26.3439  -16.2604  -14.9502 N   0  0  0  0  0  0  0  0  0  0  0  0
   26.5163  -13.9611  -15.7640 C   0  0  0  0  0  0  0  0  0  0  0  0
   26.1180  -13.5068  -14.6601 O   0  0  0  0  0  0  0  0  0  0  0  0
   23.4405  -21.3095  -18.5386 N   0  0  0  0  0  0  0  0  0  0  0  0
   27.2350  -13.1186  -16.6530 C   0  0  2  0  0  0  0  0  0  0  0  0
   27.5175  -11.7471  -16.3693 C   0  0  0  0  0  0  0  0  0  0  0  0
   28.7716  -11.1933  -16.9413 C   0  0  0  0  0  0  0  0  0  0  0  0
   29.0802   -9.7856  -16.5052 C   0  0  0  0  0  0  0  0  0  0  0  0
   30.3512   -9.3613  -17.1372 O   0  0  0  0  0  0  0  0  0  0  0  0
   30.7422   -8.1825  -16.9555 C   0  0  0  0  0  0  0  0  0  0  0  0
   26.3928  -10.9316  -16.9653 O   0  0  0  0  0  0  0  0  0  0  0  0
   25.9711  -11.1447  -18.1289 O   0  0  0  0  0  0  0  0  0  0  0  0
   31.0873  -10.2265  -17.9056 N   0  0  0  0  0  0  0  0  0  0  0  0
   18.5554   -9.2612  -13.8887 C   0  0  0  0  0  0  0  0  0  0  0  0
   18.6608   -8.4160  -15.0439 N   0  0  0  0  0  0  0  0  0  0  0  0
   17.6840   -7.6999  -15.4549 N   0  0  0  0  0  0  0  0  0  0  0  0
   19.8846   -8.3679  -15.7525 C   0  0  0  0  0  0  0  0  0  0  0  0
   21.0400   -9.1412  -15.3271 C   0  0  0  0  0  0  0  0  0  0  0  0
   22.1552   -8.7806  -16.2934 C   0  0  0  0  0  0  0  0  0  0  0  0
   23.4137   -9.5101  -15.9461 C   0  0  1  0  0  0  0  0  0  0  0  0
   24.6065   -9.1473  -16.7887 N   0  0  0  0  0  0  0  0  0  0  0  0
   25.7613   -9.8910  -16.2494 C   0  0  0  0  0  0  0  0  0  0  0  0
   24.8609   -7.6919  -16.7244 O   0  0  0  0  0  0  0  0  0  0  0  0
   24.0586   -6.7757  -17.3804 O   0  0  0  0  0  0  0  0  0  0  0  0
  1  2  1  0
  2  3  2  0
  4  2  1  0
  4  5  1  0
  6  5  1  0
  7  8  1  0
  7  6  1  0
  8  9  1  1
 10  8  1  0
 11 10  2  0
 12 10  1  0
 13 18  1  0
 13 12  1  0
 13 14  1  1
 15 16  1  0
 15 14  1  0
 16 20  1  0
 17 16  2  0
 18 19  2  0
 21 22  1  0
 22 24  1  0
 22 23  2  0
 24 25  1  0
 26 25  1  0
 27 26  1  0
 28 27  1  6
 29 18  1  0
 29 28  1  0
 30 28  1  0
 30 31  1  0
 32 30  2  0
M  END
$$$$
