CSH.pdb
     RDKit          3D

 23 23  0  0  1  0  0  0  0  0999 V2000
   18.3165  -12.1222    4.4473 N   0  0  0  0  0  0  0  0  0  0  0  0
   17.8294  -13.4617    4.3216 C   0  0  1  0  0  0  0  0  0  0  0  0
   18.3513  -14.1532    3.0765 C   0  0  0  0  0  0  0  0  0  0  0  0
   17.6022  -13.5190    1.5777 S   0  0  0  0  0  0  0  0  0  0  0  0
   18.2243  -14.2983    5.5070 C   0  0  0  0  0  0  0  0  0  0  0  0
   19.2147  -13.9943    6.2184 O   0  0  0  0  0  0  0  0  0  0  0  0
   16.0396  -15.1287    8.2206 O   0  0  0  0  0  0  0  0  0  0  0  0
   17.3568  -15.5115    8.2716 C   0  0  0  0  0  0  0  0  0  0  0  0
   17.7749  -16.2696    7.0076 C   0  0  2  0  0  0  0  0  0  0  0  0
   17.4872  -15.4624    5.8606 N   0  0  0  0  0  0  0  0  0  0  0  0
   17.0964  -17.5898    6.9548 C   0  0  0  0  0  0  0  0  0  0  0  0
   15.8981  -17.6389    6.5955 O   0  0  0  0  0  0  0  0  0  0  0  0
   17.7528  -18.7780    7.2932 N   0  0  0  0  0  0  0  0  0  0  0  0
   17.1327  -20.1084    7.2391 C   0  0  1  0  0  0  0  0  0  0  0  0
   17.6181  -20.8791    6.0712 C   0  0  0  0  0  0  0  0  0  0  0  0
   17.0597  -20.3909    4.8106 C   0  0  0  0  0  0  0  0  0  0  0  0
   17.7205  -19.5155    3.9445 C   0  0  0  0  0  0  0  0  0  0  0  0
   16.9633  -19.2492    2.8772 N   0  0  0  0  0  0  0  0  0  0  0  0
   15.8301  -19.9418    3.0506 C   0  0  0  0  0  0  0  0  0  0  0  0
   15.8940  -20.6258    4.2142 N   0  0  0  0  0  0  0  0  0  0  0  0
   17.4467  -20.7144    8.5528 C   0  0  0  0  0  0  0  0  0  0  0  0
   18.3749  -20.1908    9.4209 O   0  0  0  0  0  0  0  0  0  0  0  0
   16.8674  -21.7795    8.9712 O   0  0  0  0  0  0  0  0  0  0  0  0
  2  1  1  1
  3  2  1  0
  4  3  1  0
  5  2  1  0
  5 10  1  0
  6  5  2  0
  7  8  1  0
  9 10  1  0
  9 11  1  0
  9  8  1  1
 11 13  1  0
 12 11  2  0
 13 14  1  0
 14 15  1  6
 15 16  1  0
 16 17  2  0
 17 18  1  0
 19 18  1  0
 20 16  1  0
 20 19  2  0
 21 22  1  0
 21 14  1  0
 23 21  2  0
M  END
$$$$
