CSH.pdb
     RDKit          3D

 23 23  0  0  1  0  0  0  0  0999 V2000
   22.2325  -10.5920    7.1094 N   0  0  0  0  0  0  0  0  0  0  0  0
   21.0133  -11.3253    6.9570 C   0  0  1  0  0  0  0  0  0  0  0  0
   20.7397  -11.7003    5.5129 C   0  0  0  0  0  0  0  0  0  0  0  0
   19.8592  -10.4153    4.6281 S   0  0  0  0  0  0  0  0  0  0  0  0
   21.0378  -12.5957    7.7611 C   0  0  0  0  0  0  0  0  0  0  0  0
   22.0410  -12.9128    8.4484 O   0  0  0  0  0  0  0  0  0  0  0  0
   18.7545  -13.7064   10.5074 O   0  0  0  0  0  0  0  0  0  0  0  0
   19.9334  -14.2473   10.0583 C   0  0  0  0  0  0  0  0  0  0  0  0
   19.8437  -14.6540    8.5839 C   0  0  2  0  0  0  0  0  0  0  0  0
   19.9235  -13.4798    7.7685 N   0  0  0  0  0  0  0  0  0  0  0  0
   18.5993  -15.4277    8.3413 C   0  0  0  0  0  0  0  0  0  0  0  0
   17.6191  -14.8474    7.8216 O   0  0  0  0  0  0  0  0  0  0  0  0
   18.4878  -16.7819    8.6747 N   0  0  0  0  0  0  0  0  0  0  0  0
   17.7173  -17.7627    7.8990 C   0  0  1  0  0  0  0  0  0  0  0  0
   18.0075  -17.6483    6.4511 C   0  0  0  0  0  0  0  0  0  0  0  0
   17.0435  -18.3807    5.6303 C   0  0  0  0  0  0  0  0  0  0  0  0
   15.9821  -19.1305    6.1446 C   0  0  0  0  0  0  0  0  0  0  0  0
   15.2746  -19.6835    5.1560 N   0  0  0  0  0  0  0  0  0  0  0  0
   15.8695  -19.2971    4.0199 C   0  0  0  0  0  0  0  0  0  0  0  0
   16.9319  -18.5144    4.3115 N   0  0  0  0  0  0  0  0  0  0  0  0
   18.0735  -19.0683    8.4991 C   0  0  0  0  0  0  0  0  0  0  0  0
   17.1390  -19.9681    8.9533 O   0  0  0  0  0  0  0  0  0  0  0  0
   19.2905  -19.4490    8.6367 O   0  0  0  0  0  0  0  0  0  0  0  0
  2  1  1  6
  3  2  1  0
  4  3  1  0
  5  2  1  0
  5 10  1  0
  6  5  2  0
  7  8  1  0
  9 10  1  0
  9 11  1  0
  9  8  1  1
 11 13  1  0
 12 11  2  0
 13 14  1  0
 14 15  1  6
 15 16  1  0
 16 17  2  0
 17 18  1  0
 19 18  1  0
 20 16  1  0
 20 19  2  0
 21 22  1  0
 21 14  1  0
 23 21  2  0
M  END
$$$$
