CSH.pdb
     RDKit          3D

 23 23  0  0  1  0  0  0  0  0999 V2000
   15.8109  -10.5111  -12.0711 N   0  0  0  0  0  0  0  0  0  0  0  0
   16.6020   -9.3207  -12.1394 C   0  0  1  0  0  0  0  0  0  0  0  0
   17.5074   -9.1571  -10.9335 C   0  0  0  0  0  0  0  0  0  0  0  0
   16.6161   -8.6105   -9.4788 S   0  0  0  0  0  0  0  0  0  0  0  0
   17.4713   -9.3143  -13.3664 C   0  0  0  0  0  0  0  0  0  0  0  0
   17.9644  -10.3769  -13.8214 O   0  0  0  0  0  0  0  0  0  0  0  0
   18.0930   -7.5777  -17.6307 O   0  0  0  0  0  0  0  0  0  0  0  0
   17.4723   -7.6734  -16.4102 C   0  0  0  0  0  0  0  0  0  0  0  0
   18.4617   -8.0410  -15.2996 C   0  0  2  0  0  0  0  0  0  0  0  0
   17.7630   -8.1022  -14.0514 N   0  0  0  0  0  0  0  0  0  0  0  0
   19.5844   -7.0690  -15.2723 C   0  0  0  0  0  0  0  0  0  0  0  0
   19.4296   -5.9845  -14.6662 O   0  0  0  0  0  0  0  0  0  0  0  0
   20.8072   -7.3265  -15.9014 N   0  0  0  0  0  0  0  0  0  0  0  0
   21.9291   -6.3794  -15.9452 C   0  0  1  0  0  0  0  0  0  0  0  0
   23.1301   -6.9987  -16.5512 C   0  0  0  0  0  0  0  0  0  0  0  0
   24.2885   -6.1059  -16.5292 C   0  0  0  0  0  0  0  0  0  0  0  0
   24.3176   -4.8716  -15.8745 C   0  0  0  0  0  0  0  0  0  0  0  0
   25.5071   -4.2847  -16.0300 N   0  0  0  0  0  0  0  0  0  0  0  0
   26.2360   -5.1269  -16.7739 C   0  0  0  0  0  0  0  0  0  0  0  0
   25.4982   -6.2194  -17.0708 N   0  0  0  0  0  0  0  0  0  0  0  0
   21.3965   -5.2122  -16.6839 C   0  0  0  0  0  0  0  0  0  0  0  0
   20.7398   -5.3182  -17.8867 O   0  0  0  0  0  0  0  0  0  0  0  0
   21.5150   -4.0127  -16.2456 O   0  0  0  0  0  0  0  0  0  0  0  0
  2  1  1  1
  3  2  1  0
  4  3  1  0
  5  2  1  0
  5 10  1  0
  6  5  2  0
  7  8  1  0
  9 10  1  0
  9 11  1  0
  9  8  1  6
 11 13  1  0
 12 11  2  0
 13 14  1  0
 14 15  1  6
 15 16  1  0
 16 17  2  0
 17 18  1  0
 19 18  1  0
 20 16  1  0
 20 19  2  0
 21 22  1  0
 21 14  1  0
 23 21  2  0
M  END
$$$$
