CSH.pdb
     RDKit          3D

 23 23  0  0  1  0  0  0  0  0999 V2000
   27.5602  -24.4739  -17.5860 N   0  0  0  0  0  0  0  0  0  0  0  0
   28.3101  -25.4195  -16.8172 C   0  0  1  0  0  0  0  0  0  0  0  0
   27.7394  -26.8220  -16.9077 C   0  0  0  0  0  0  0  0  0  0  0  0
   26.2631  -27.0246  -15.9132 S   0  0  0  0  0  0  0  0  0  0  0  0
   29.7415  -25.4796  -17.2738 C   0  0  0  0  0  0  0  0  0  0  0  0
   30.0423  -25.3828  -18.4902 O   0  0  0  0  0  0  0  0  0  0  0  0
   32.6550  -26.2782  -14.4197 O   0  0  0  0  0  0  0  0  0  0  0  0
   33.0445  -25.4744  -15.4619 C   0  0  0  0  0  0  0  0  0  0  0  0
   32.1844  -25.7074  -16.7081 C   0  0  2  0  0  0  0  0  0  0  0  0
   30.8019  -25.6482  -16.3407 N   0  0  0  0  0  0  0  0  0  0  0  0
   32.5457  -26.9998  -17.3448 C   0  0  0  0  0  0  0  0  0  0  0  0
   32.0044  -28.0496  -16.9296 O   0  0  0  0  0  0  0  0  0  0  0  0
   33.4700  -27.0810  -18.3918 N   0  0  0  0  0  0  0  0  0  0  0  0
   33.8822  -28.3359  -19.0341 C   0  0  1  0  0  0  0  0  0  0  0  0
   33.0911  -28.5964  -20.2587 C   0  0  0  0  0  0  0  0  0  0  0  0
   31.7222  -29.0154  -19.9589 C   0  0  0  0  0  0  0  0  0  0  0  0
   30.6457  -28.1367  -19.8095 C   0  0  0  0  0  0  0  0  0  0  0  0
   29.5238  -28.8091  -19.5402 N   0  0  0  0  0  0  0  0  0  0  0  0
   29.8695  -30.1028  -19.5159 C   0  0  0  0  0  0  0  0  0  0  0  0
   31.1918  -30.2204  -19.7682 N   0  0  0  0  0  0  0  0  0  0  0  0
   35.3361  -28.1729  -19.2611 C   0  0  0  0  0  0  0  0  0  0  0  0
   36.1064  -29.1087  -19.9094 O   0  0  0  0  0  0  0  0  0  0  0  0
   35.9790  -27.1372  -18.8627 O   0  0  0  0  0  0  0  0  0  0  0  0
  2  1  1  6
  3  2  1  0
  4  3  1  0
  5  2  1  0
  5 10  1  0
  6  5  2  0
  7  8  1  0
  9 10  1  0
  9 11  1  0
  9  8  1  1
 11 13  1  0
 12 11  2  0
 13 14  1  0
 14 15  1  6
 15 16  1  0
 16 17  2  0
 17 18  1  0
 19 18  1  0
 20 16  1  0
 20 19  2  0
 21 22  1  0
 21 14  1  0
 23 21  2  0
M  END
$$$$
