CSH.pdb
     RDKit          3D

 23 23  0  0  1  0  0  0  0  0999 V2000
   20.8362  -16.5918  -16.0010 N   0  0  0  0  0  0  0  0  0  0  0  0
   20.1948  -15.4603  -15.4046 C   0  0  1  0  0  0  0  0  0  0  0  0
   20.3193  -15.4542  -13.8929 C   0  0  0  0  0  0  0  0  0  0  0  0
   19.4379  -16.8140  -13.1291 S   0  0  0  0  0  0  0  0  0  0  0  0
   20.7783  -14.1719  -15.9153 C   0  0  0  0  0  0  0  0  0  0  0  0
   22.0018  -14.0718  -16.1843 O   0  0  0  0  0  0  0  0  0  0  0  0
   18.2505  -10.8215  -16.4202 O   0  0  0  0  0  0  0  0  0  0  0  0
   19.2341  -11.0785  -17.3425 C   0  0  0  0  0  0  0  0  0  0  0  0
   20.4236  -11.8099  -16.7121 C   0  0  2  0  0  0  0  0  0  0  0  0
   19.9612  -13.0238  -16.1100 N   0  0  0  0  0  0  0  0  0  0  0  0
   21.1127  -10.9231  -15.7400 C   0  0  0  0  0  0  0  0  0  0  0  0
   20.7929  -10.9881  -14.5313 O   0  0  0  0  0  0  0  0  0  0  0  0
   22.1060  -10.0192  -16.1317 N   0  0  0  0  0  0  0  0  0  0  0  0
   22.8097   -9.1157  -15.2118 C   0  0  1  0  0  0  0  0  0  0  0  0
   24.1397   -8.7389  -15.7434 C   0  0  0  0  0  0  0  0  0  0  0  0
   25.0976   -9.8425  -15.6811 C   0  0  0  0  0  0  0  0  0  0  0  0
   24.8050  -11.1098  -15.1697 C   0  0  0  0  0  0  0  0  0  0  0  0
   25.8748  -11.9055  -15.2445 N   0  0  0  0  0  0  0  0  0  0  0  0
   26.8444  -11.1641  -15.7959 C   0  0  0  0  0  0  0  0  0  0  0  0
   26.3713   -9.9253  -16.0560 N   0  0  0  0  0  0  0  0  0  0  0  0
   21.8762   -7.9824  -15.0232 C   0  0  0  0  0  0  0  0  0  0  0  0
   21.8429   -7.2163  -13.8825 O   0  0  0  0  0  0  0  0  0  0  0  0
   21.0278   -7.6378  -15.9212 O   0  0  0  0  0  0  0  0  0  0  0  0
  2  1  1  6
  3  2  1  0
  4  3  1  0
  5  2  1  0
  5 10  1  0
  6  5  2  0
  7  8  1  0
  9 10  1  0
  9 11  1  0
  9  8  1  1
 11 13  1  0
 12 11  2  0
 13 14  1  0
 14 15  1  6
 15 16  1  0
 16 17  2  0
 17 18  1  0
 19 18  1  0
 20 16  1  0
 20 19  2  0
 21 22  1  0
 21 14  1  0
 23 21  2  0
M  END
$$$$
