CSH.pdb
     RDKit          3D

 23 23  0  0  1  0  0  0  0  0999 V2000
   20.2898  -14.2134  -16.5601 N   0  0  0  0  0  0  0  0  0  0  0  0
   20.6811  -12.9927  -17.1959 C   0  0  1  0  0  0  0  0  0  0  0  0
   19.6088  -12.4530  -18.1231 C   0  0  0  0  0  0  0  0  0  0  0  0
   19.4010  -13.4626  -19.5884 S   0  0  0  0  0  0  0  0  0  0  0  0
   20.9871  -11.9248  -16.1824 C   0  0  0  0  0  0  0  0  0  0  0  0
   20.0870  -11.4474  -15.4466 O   0  0  0  0  0  0  0  0  0  0  0  0
   24.9514  -10.4368  -15.8316 O   0  0  0  0  0  0  0  0  0  0  0  0
   24.1405  -10.5308  -14.7281 C   0  0  0  0  0  0  0  0  0  0  0  0
   22.6611  -10.3871  -15.0994 C   0  0  2  0  0  0  0  0  0  0  0  0
   22.3079  -11.4208  -16.0250 N   0  0  0  0  0  0  0  0  0  0  0  0
   22.3991   -9.0291  -15.6410 C   0  0  0  0  0  0  0  0  0  0  0  0
   22.5592   -8.8264  -16.8661 O   0  0  0  0  0  0  0  0  0  0  0  0
   21.9798   -7.9713  -14.8271 N   0  0  0  0  0  0  0  0  0  0  0  0
   21.6949   -6.6158  -15.3159 C   0  0  1  0  0  0  0  0  0  0  0  0
   20.2377   -6.3927  -15.4585 C   0  0  0  0  0  0  0  0  0  0  0  0
   19.9213   -5.0259  -15.8723 C   0  0  0  0  0  0  0  0  0  0  0  0
   20.4774   -4.3933  -16.9875 C   0  0  0  0  0  0  0  0  0  0  0  0
   19.9989   -3.1527  -17.1116 N   0  0  0  0  0  0  0  0  0  0  0  0
   19.1464   -2.9857  -16.0921 C   0  0  0  0  0  0  0  0  0  0  0  0
   19.1041   -4.1149  -15.3509 N   0  0  0  0  0  0  0  0  0  0  0  0
   22.3637   -5.7249  -14.3410 C   0  0  0  0  0  0  0  0  0  0  0  0
   22.7498   -4.4394  -14.6373 O   0  0  0  0  0  0  0  0  0  0  0  0
   22.6301   -6.0983  -13.1433 O   0  0  0  0  0  0  0  0  0  0  0  0
  2  1  1  1
  3  2  1  0
  4  3  1  0
  5  2  1  0
  5 10  1  0
  6  5  2  0
  7  8  1  0
  9 10  1  0
  9 11  1  0
  9  8  1  6
 11 13  1  0
 12 11  2  0
 13 14  1  0
 14 15  1  1
 15 16  1  0
 16 17  2  0
 17 18  1  0
 19 18  1  0
 20 16  1  0
 20 19  2  0
 21 22  1  0
 21 14  1  0
 23 21  2  0
M  END
$$$$
