CSH.pdb
     RDKit          3D

 23 23  0  0  1  0  0  0  0  0999 V2000
   17.6583  -12.7226  -15.4727 N   0  0  0  0  0  0  0  0  0  0  0  0
   18.6759  -12.1260  -16.2827 C   0  0  1  0  0  0  0  0  0  0  0  0
   18.1514  -11.6755  -17.6328 C   0  0  0  0  0  0  0  0  0  0  0  0
   17.6233  -13.0495  -18.6539 S   0  0  0  0  0  0  0  0  0  0  0  0
   19.2783  -10.9267  -15.6044 C   0  0  0  0  0  0  0  0  0  0  0  0
   18.5550  -10.0362  -15.0915 O   0  0  0  0  0  0  0  0  0  0  0  0
   23.4714  -10.3641  -15.7173 O   0  0  0  0  0  0  0  0  0  0  0  0
   22.7803   -9.9948  -14.5904 C   0  0  0  0  0  0  0  0  0  0  0  0
   21.3258   -9.6357  -14.9111 C   0  0  2  0  0  0  0  0  0  0  0  0
   20.6890  -10.7629  -15.5224 N   0  0  0  0  0  0  0  0  0  0  0  0
   21.2751   -8.4237  -15.7681 C   0  0  0  0  0  0  0  0  0  0  0  0
   21.2735   -8.5636  -17.0123 O   0  0  0  0  0  0  0  0  0  0  0  0
   21.2291   -7.1331  -15.2302 N   0  0  0  0  0  0  0  0  0  0  0  0
   21.1219   -5.9073  -16.0323 C   0  0  1  0  0  0  0  0  0  0  0  0
   19.7810   -5.2934  -15.8967 C   0  0  0  0  0  0  0  0  0  0  0  0
   19.6719   -4.0277  -16.6215 C   0  0  0  0  0  0  0  0  0  0  0  0
   20.6782   -3.0590  -16.6681 C   0  0  0  0  0  0  0  0  0  0  0  0
   20.2915   -2.0143  -17.4047 N   0  0  0  0  0  0  0  0  0  0  0  0
   19.0540   -2.3032  -17.8279 C   0  0  0  0  0  0  0  0  0  0  0  0
   18.6872   -3.5143  -17.3540 N   0  0  0  0  0  0  0  0  0  0  0  0
   22.2400   -5.0596  -15.5599 C   0  0  0  0  0  0  0  0  0  0  0  0
   22.9611   -4.2340  -16.3891 O   0  0  0  0  0  0  0  0  0  0  0  0
   22.6133   -5.0404  -14.3331 O   0  0  0  0  0  0  0  0  0  0  0  0
  2  1  1  1
  3  2  1  0
  4  3  1  0
  5  2  1  0
  5 10  1  0
  6  5  2  0
  7  8  1  0
  9 10  1  0
  9 11  1  0
  9  8  1  6
 11 13  1  0
 12 11  2  0
 13 14  1  0
 14 15  1  1
 15 16  1  0
 16 17  2  0
 17 18  1  0
 19 18  1  0
 20 16  1  0
 20 19  2  0
 21 22  1  0
 21 14  1  0
 23 21  2  0
M  END
$$$$
