CSH.pdb
     RDKit          3D

 23 23  0  0  1  0  0  0  0  0999 V2000
   29.8936  -11.6718  -18.2575 N   0  0  0  0  0  0  0  0  0  0  0  0
   29.3986  -10.7175  -17.3132 C   0  0  1  0  0  0  0  0  0  0  0  0
   30.2177   -9.4410  -17.2962 C   0  0  0  0  0  0  0  0  0  0  0  0
   31.9231   -9.7295  -16.8296 S   0  0  0  0  0  0  0  0  0  0  0  0
   27.9743  -10.3412  -17.6151 C   0  0  0  0  0  0  0  0  0  0  0  0
   27.5974  -10.1065  -18.7908 O   0  0  0  0  0  0  0  0  0  0  0  0
   25.2049   -9.9469  -14.4371 O   0  0  0  0  0  0  0  0  0  0  0  0
   24.8146  -10.5411  -15.6112 C   0  0  0  0  0  0  0  0  0  0  0  0
   25.6129  -10.0106  -16.8064 C   0  0  2  0  0  0  0  0  0  0  0  0
   27.0075  -10.2391  -16.5767 N   0  0  0  0  0  0  0  0  0  0  0  0
   25.3044   -8.5752  -17.0312 C   0  0  0  0  0  0  0  0  0  0  0  0
   25.9209   -7.7134  -16.3644 O   0  0  0  0  0  0  0  0  0  0  0  0
   24.3483   -8.1565  -17.9628 N   0  0  0  0  0  0  0  0  0  0  0  0
   24.0346   -6.7504  -18.2491 C   0  0  1  0  0  0  0  0  0  0  0  0
   23.8521   -6.5269  -19.7017 C   0  0  0  0  0  0  0  0  0  0  0  0
   23.5823   -5.1250  -20.0201 C   0  0  0  0  0  0  0  0  0  0  0  0
   24.2960   -4.0468  -19.4897 C   0  0  0  0  0  0  0  0  0  0  0  0
   23.8228   -2.8912  -19.9632 N   0  0  0  0  0  0  0  0  0  0  0  0
   22.8186   -3.2173  -20.7872 C   0  0  0  0  0  0  0  0  0  0  0  0
   22.6789   -4.5610  -20.8172 N   0  0  0  0  0  0  0  0  0  0  0  0
   22.8381   -6.4652  -17.4252 C   0  0  0  0  0  0  0  0  0  0  0  0
   22.4752   -5.1971  -17.0384 O   0  0  0  0  0  0  0  0  0  0  0  0
   22.0539   -7.3926  -17.0133 O   0  0  0  0  0  0  0  0  0  0  0  0
  2  1  1  6
  3  2  1  0
  4  3  1  0
  5  2  1  0
  5 10  1  0
  6  5  2  0
  7  8  1  0
  9 10  1  0
  9 11  1  0
  9  8  1  1
 11 13  1  0
 12 11  2  0
 13 14  1  0
 14 15  1  6
 15 16  1  0
 16 17  2  0
 17 18  1  0
 19 18  1  0
 20 16  1  0
 20 19  2  0
 21 22  1  0
 21 14  1  0
 23 21  2  0
M  END
$$$$
