CSH.pdb
     RDKit          3D

 23 23  0  0  1  0  0  0  0  0999 V2000
   16.0062  -12.9064  -13.3303 N   0  0  0  0  0  0  0  0  0  0  0  0
   15.8887  -11.5326  -13.7129 C   0  0  1  0  0  0  0  0  0  0  0  0
   14.4474  -11.1141  -13.9334 C   0  0  0  0  0  0  0  0  0  0  0  0
   13.6618  -12.0376  -15.2522 S   0  0  0  0  0  0  0  0  0  0  0  0
   16.4721  -10.6241  -12.6662 C   0  0  0  0  0  0  0  0  0  0  0  0
   16.4428  -10.9303  -11.4477 O   0  0  0  0  0  0  0  0  0  0  0  0
   18.2860   -6.9969  -13.8639 O   0  0  0  0  0  0  0  0  0  0  0  0
   18.7637   -7.6777  -12.7719 C   0  0  0  0  0  0  0  0  0  0  0  0
   17.6591   -8.4825  -12.0795 C   0  0  2  0  0  0  0  0  0  0  0  0
   17.0765   -9.3871  -13.0240 N   0  0  0  0  0  0  0  0  0  0  0  0
   16.6556   -7.5650  -11.4818 C   0  0  0  0  0  0  0  0  0  0  0  0
   15.7102   -7.1574  -12.1942 O   0  0  0  0  0  0  0  0  0  0  0  0
   16.7333   -7.1425  -10.1503 N   0  0  0  0  0  0  0  0  0  0  0  0
   15.8248   -6.1627   -9.5404 C   0  0  1  0  0  0  0  0  0  0  0  0
   15.3789   -6.6071   -8.1998 C   0  0  0  0  0  0  0  0  0  0  0  0
   14.3022   -7.5946   -8.2699 C   0  0  0  0  0  0  0  0  0  0  0  0
   13.7059   -8.0247   -9.4584 C   0  0  0  0  0  0  0  0  0  0  0  0
   12.7553   -8.9285   -9.2074 N   0  0  0  0  0  0  0  0  0  0  0  0
   12.7372   -9.0803   -7.8767 C   0  0  0  0  0  0  0  0  0  0  0  0
   13.6691   -8.2762   -7.3190 N   0  0  0  0  0  0  0  0  0  0  0  0
   16.5910   -4.8960   -9.5480 C   0  0  0  0  0  0  0  0  0  0  0  0
   17.8919   -4.8056   -9.9827 O   0  0  0  0  0  0  0  0  0  0  0  0
   16.0859   -3.7882   -9.1447 O   0  0  0  0  0  0  0  0  0  0  0  0
  2  1  1  1
  3  2  1  0
  4  3  1  0
  5  2  1  0
  5 10  1  0
  6  5  2  0
  7  8  1  0
  9 10  1  0
  9 11  1  0
  9  8  1  6
 11 13  1  0
 12 11  2  0
 13 14  1  0
 14 15  1  1
 15 16  1  0
 16 17  2  0
 17 18  1  0
 19 18  1  0
 20 16  1  0
 20 19  2  0
 21 22  1  0
 21 14  1  0
 23 21  2  0
M  END
$$$$
