CSH.pdb
     RDKit          3D

 23 23  0  0  1  0  0  0  0  0999 V2000
   34.3549  -25.8109  -16.7298 N   0  0  0  0  0  0  0  0  0  0  0  0
   33.1287  -25.7712  -15.9935 C   0  0  1  0  0  0  0  0  0  0  0  0
   33.2228  -24.8957  -14.7585 C   0  0  0  0  0  0  0  0  0  0  0  0
   34.4052  -25.5204  -13.5663 S   0  0  0  0  0  0  0  0  0  0  0  0
   32.0021  -25.2460  -16.8398 C   0  0  0  0  0  0  0  0  0  0  0  0
   32.1938  -24.3432  -17.6928 O   0  0  0  0  0  0  0  0  0  0  0  0
   28.0496  -26.3364  -15.9343 O   0  0  0  0  0  0  0  0  0  0  0  0
   28.3894  -26.2685  -17.2624 C   0  0  0  0  0  0  0  0  0  0  0  0
   29.5725  -25.3235  -17.4960 C   0  0  2  0  0  0  0  0  0  0  0  0
   30.6816  -25.7561  -16.7006 N   0  0  0  0  0  0  0  0  0  0  0  0
   29.1754  -23.9234  -17.1991 C   0  0  0  0  0  0  0  0  0  0  0  0
   29.3792  -23.4686  -16.0506 O   0  0  0  0  0  0  0  0  0  0  0  0
   28.5820  -23.0983  -18.1604 N   0  0  0  0  0  0  0  0  0  0  0  0
   28.1528  -21.7159  -17.9109 C   0  0  1  0  0  0  0  0  0  0  0  0
   28.4814  -20.8374  -19.0571 C   0  0  0  0  0  0  0  0  0  0  0  0
   27.9533  -19.4836  -18.8907 C   0  0  0  0  0  0  0  0  0  0  0  0
   28.7073  -18.3948  -18.4447 C   0  0  0  0  0  0  0  0  0  0  0  0
   27.9561  -17.2918  -18.3941 N   0  0  0  0  0  0  0  0  0  0  0  0
   26.7350  -17.6619  -18.8013 C   0  0  0  0  0  0  0  0  0  0  0  0
   26.7396  -18.9801  -19.0983 N   0  0  0  0  0  0  0  0  0  0  0  0
   26.7071  -21.8275  -17.6127 C   0  0  0  0  0  0  0  0  0  0  0  0
   26.0038  -20.8672  -16.9254 O   0  0  0  0  0  0  0  0  0  0  0  0
   26.0087  -22.8388  -17.9796 O   0  0  0  0  0  0  0  0  0  0  0  0
  2  1  1  6
  3  2  1  0
  4  3  1  0
  5  2  1  0
  5 10  1  0
  6  5  2  0
  7  8  1  0
  9 10  1  0
  9 11  1  0
  9  8  1  1
 11 13  1  0
 12 11  2  0
 13 14  1  0
 14 15  1  6
 15 16  1  0
 16 17  2  0
 17 18  1  0
 19 18  1  0
 20 16  1  0
 20 19  2  0
 21 22  1  0
 21 14  1  0
 23 21  2  0
M  END
$$$$
