CSH.pdb
     RDKit          3D

 23 23  0  0  1  0  0  0  0  0999 V2000
   26.4594  -20.1880   -8.7939 N   0  0  0  0  0  0  0  0  0  0  0  0
   25.4235  -20.7448   -9.6091 C   0  0  1  0  0  0  0  0  0  0  0  0
   24.0376  -20.3613   -9.1265 C   0  0  0  0  0  0  0  0  0  0  0  0
   23.6775  -21.0111   -7.4963 S   0  0  0  0  0  0  0  0  0  0  0  0
   25.5509  -20.2907  -11.0369 C   0  0  0  0  0  0  0  0  0  0  0  0
   25.7005  -19.0763  -11.3238 O   0  0  0  0  0  0  0  0  0  0  0  0
   26.5635  -21.4304  -15.5776 O   0  0  0  0  0  0  0  0  0  0  0  0
   26.4526  -21.7905  -14.2578 C   0  0  0  0  0  0  0  0  0  0  0  0
   25.5165  -20.8503  -13.4915 C   0  0  2  0  0  0  0  0  0  0  0  0
   25.5060  -21.2240  -12.1094 N   0  0  0  0  0  0  0  0  0  0  0  0
   24.1595  -20.8760  -14.0948 C   0  0  0  0  0  0  0  0  0  0  0  0
   23.2593  -21.5364  -13.5283 O   0  0  0  0  0  0  0  0  0  0  0  0
   23.8560  -20.1868  -15.2738 N   0  0  0  0  0  0  0  0  0  0  0  0
   22.5159  -19.6968  -15.6225 C   0  0  1  0  0  0  0  0  0  0  0  0
   21.9863  -18.7933  -14.5753 C   0  0  0  0  0  0  0  0  0  0  0  0
   20.7433  -19.2912  -13.9867 C   0  0  0  0  0  0  0  0  0  0  0  0
   20.1729  -20.5314  -14.2861 C   0  0  0  0  0  0  0  0  0  0  0  0
   19.0433  -20.7084  -13.5961 N   0  0  0  0  0  0  0  0  0  0  0  0
   18.8856  -19.5994  -12.8618 C   0  0  0  0  0  0  0  0  0  0  0  0
   19.9104  -18.7516  -13.1008 N   0  0  0  0  0  0  0  0  0  0  0  0
   22.6884  -19.0678  -16.9515 C   0  0  0  0  0  0  0  0  0  0  0  0
   21.7355  -19.1244  -17.9405 O   0  0  0  0  0  0  0  0  0  0  0  0
   23.7498  -18.4225  -17.2707 O   0  0  0  0  0  0  0  0  0  0  0  0
  2  1  1  1
  3  2  1  0
  4  3  1  0
  5  2  1  0
  5 10  1  0
  6  5  2  0
  7  8  1  0
  9 10  1  0
  9 11  1  0
  9  8  1  6
 11 13  1  0
 12 11  2  0
 13 14  1  0
 14 15  1  1
 15 16  1  0
 16 17  2  0
 17 18  1  0
 19 18  1  0
 20 16  1  0
 20 19  2  0
 21 22  1  0
 21 14  1  0
 23 21  2  0
M  END
$$$$
