CSH.pdb
     RDKit          3D

 23 23  0  0  1  0  0  0  0  0999 V2000
   32.5318   -8.9261  -17.9254 N   0  0  0  0  0  0  0  0  0  0  0  0
   31.1241   -9.0455  -17.6987 C   0  0  1  0  0  0  0  0  0  0  0  0
   30.3131   -8.1319  -18.5979 C   0  0  0  0  0  0  0  0  0  0  0  0
   30.3726   -6.4219  -18.0671 S   0  0  0  0  0  0  0  0  0  0  0  0
   30.6521  -10.4536  -17.9347 C   0  0  0  0  0  0  0  0  0  0  0  0
   31.3289  -11.2619  -18.6187 O   0  0  0  0  0  0  0  0  0  0  0  0
   26.7921  -11.4790  -16.7475 O   0  0  0  0  0  0  0  0  0  0  0  0
   27.7377  -12.4659  -16.6208 C   0  0  0  0  0  0  0  0  0  0  0  0
   28.9186  -12.2432  -17.5712 C   0  0  2  0  0  0  0  0  0  0  0  0
   29.4219  -10.9152  -17.3897 N   0  0  0  0  0  0  0  0  0  0  0  0
   28.5033  -12.5040  -18.9732 C   0  0  0  0  0  0  0  0  0  0  0  0
   28.0669  -11.5529  -19.6606 O   0  0  0  0  0  0  0  0  0  0  0  0
   28.5842  -13.7765  -19.5489 N   0  0  0  0  0  0  0  0  0  0  0  0
   28.2407  -14.0744  -20.9456 C   0  0  1  0  0  0  0  0  0  0  0  0
   28.7857  -15.3867  -21.3634 C   0  0  0  0  0  0  0  0  0  0  0  0
   28.5803  -15.6471  -22.7880 C   0  0  0  0  0  0  0  0  0  0  0  0
   28.1730  -14.6819  -23.7130 C   0  0  0  0  0  0  0  0  0  0  0  0
   28.0716  -15.2139  -24.9338 N   0  0  0  0  0  0  0  0  0  0  0  0
   28.4082  -16.5033  -24.8000 C   0  0  0  0  0  0  0  0  0  0  0  0
   28.7128  -16.7576  -23.5083 N   0  0  0  0  0  0  0  0  0  0  0  0
   26.7643  -13.9762  -20.9905 C   0  0  0  0  0  0  0  0  0  0  0  0
   26.0781  -13.4262  -22.0469 O   0  0  0  0  0  0  0  0  0  0  0  0
   26.0207  -14.4016  -20.0360 O   0  0  0  0  0  0  0  0  0  0  0  0
  2  1  1  6
  3  2  1  0
  4  3  1  0
  5  2  1  0
  5 10  1  0
  6  5  2  0
  7  8  1  0
  9 10  1  0
  9 11  1  0
  9  8  1  1
 11 13  1  0
 12 11  2  0
 13 14  1  0
 14 15  1  1
 15 16  1  0
 16 17  2  0
 17 18  1  0
 19 18  1  0
 20 16  1  0
 20 19  2  0
 21 22  1  0
 21 14  1  0
 23 21  2  0
M  END
$$$$
