CSH.pdb
     RDKit          3D

 23 23  0  0  1  0  0  0  0  0999 V2000
   18.6152  -15.5199  -16.1773 N   0  0  0  0  0  0  0  0  0  0  0  0
   17.8620  -14.4626  -16.7792 C   0  0  1  0  0  0  0  0  0  0  0  0
   16.3959  -14.5031  -16.3923 C   0  0  0  0  0  0  0  0  0  0  0  0
   15.5183  -15.8519  -17.1797 S   0  0  0  0  0  0  0  0  0  0  0  0
   18.4011  -13.1160  -16.3826 C   0  0  0  0  0  0  0  0  0  0  0  0
   18.8489  -12.9077  -15.2270 O   0  0  0  0  0  0  0  0  0  0  0  0
   20.2659   -9.0151  -18.1265 O   0  0  0  0  0  0  0  0  0  0  0  0
   19.6096  -10.2021  -18.3369 C   0  0  0  0  0  0  0  0  0  0  0  0
   19.0318  -10.7675  -17.0355 C   0  0  2  0  0  0  0  0  0  0  0  0
   18.4207  -12.0338  -17.3056 N   0  0  0  0  0  0  0  0  0  0  0  0
   18.0813   -9.7976  -16.4338 C   0  0  0  0  0  0  0  0  0  0  0  0
   16.8878   -9.8079  -16.8118 O   0  0  0  0  0  0  0  0  0  0  0  0
   18.4768   -8.8746  -15.4597 N   0  0  0  0  0  0  0  0  0  0  0  0
   17.5662   -7.9312  -14.7977 C   0  0  1  0  0  0  0  0  0  0  0  0
   17.9205   -7.7561  -13.3703 C   0  0  0  0  0  0  0  0  0  0  0  0
   17.3925   -8.8302  -12.5295 C   0  0  0  0  0  0  0  0  0  0  0  0
   16.6304   -9.9000  -13.0069 C   0  0  0  0  0  0  0  0  0  0  0  0
   16.2920  -10.7190  -12.0077 N   0  0  0  0  0  0  0  0  0  0  0  0
   16.8272  -10.1868  -10.9013 C   0  0  0  0  0  0  0  0  0  0  0  0
   17.4872   -9.0519  -11.2213 N   0  0  0  0  0  0  0  0  0  0  0  0
   17.6573   -6.6985  -15.6124 C   0  0  0  0  0  0  0  0  0  0  0  0
   16.8176   -5.6229  -15.4470 O   0  0  0  0  0  0  0  0  0  0  0  0
   18.5348   -6.5521  -16.5363 O   0  0  0  0  0  0  0  0  0  0  0  0
  2  1  1  1
  3  2  1  0
  4  3  1  0
  5  2  1  0
  5 10  1  0
  6  5  2  0
  7  8  1  0
  9 10  1  0
  9 11  1  0
  9  8  1  6
 11 13  1  0
 12 11  2  0
 13 14  1  0
 14 15  1  1
 15 16  1  0
 16 17  2  0
 17 18  1  0
 19 18  1  0
 20 16  1  0
 20 19  2  0
 21 22  1  0
 21 14  1  0
 23 21  2  0
M  END
$$$$
