CSH.pdb
     RDKit          3D

 23 23  0  0  1  0  0  0  0  0999 V2000
   22.7246  -34.1102  -11.1602 N   0  0  0  0  0  0  0  0  0  0  0  0
   22.8419  -33.0819  -10.1720 C   0  0  1  0  0  0  0  0  0  0  0  0
   21.5760  -32.9193   -9.3523 C   0  0  0  0  0  0  0  0  0  0  0  0
   21.1301  -34.4186   -8.4788 S   0  0  0  0  0  0  0  0  0  0  0  0
   23.9686  -33.3690   -9.2185 C   0  0  0  0  0  0  0  0  0  0  0  0
   24.4717  -34.5174   -9.1308 O   0  0  0  0  0  0  0  0  0  0  0  0
   24.8567  -30.6665   -6.1472 O   0  0  0  0  0  0  0  0  0  0  0  0
   25.9312  -31.2167   -6.8004 C   0  0  0  0  0  0  0  0  0  0  0  0
   25.5709  -32.5539   -7.4556 C   0  0  2  0  0  0  0  0  0  0  0  0
   24.5011  -32.3472   -8.3844 N   0  0  0  0  0  0  0  0  0  0  0  0
   25.2309  -33.5582   -6.4154 C   0  0  0  0  0  0  0  0  0  0  0  0
   24.0474  -33.6350   -6.0143 O   0  0  0  0  0  0  0  0  0  0  0  0
   26.1895  -34.4193   -5.8707 N   0  0  0  0  0  0  0  0  0  0  0  0
   25.9083  -35.4139   -4.8270 C   0  0  1  0  0  0  0  0  0  0  0  0
   26.9910  -36.4208   -4.7405 C   0  0  0  0  0  0  0  0  0  0  0  0
   26.9124  -37.4164   -5.8091 C   0  0  0  0  0  0  0  0  0  0  0  0
   25.7499  -37.7085   -6.5278 C   0  0  0  0  0  0  0  0  0  0  0  0
   25.9852  -38.6581   -7.4368 N   0  0  0  0  0  0  0  0  0  0  0  0
   27.2801  -38.9753   -7.3078 C   0  0  0  0  0  0  0  0  0  0  0  0
   27.8319  -38.2257   -6.3281 N   0  0  0  0  0  0  0  0  0  0  0  0
   25.7108  -34.6122   -3.5983 C   0  0  0  0  0  0  0  0  0  0  0  0
   25.8243  -33.2427   -3.5665 O   0  0  0  0  0  0  0  0  0  0  0  0
   25.4182  -35.1488   -2.4707 O   0  0  0  0  0  0  0  0  0  0  0  0
  2  1  1  6
  3  2  1  0
  4  3  1  0
  5  2  1  0
  5 10  1  0
  6  5  2  0
  7  8  1  0
  9 10  1  0
  9 11  1  0
  9  8  1  1
 11 13  1  0
 12 11  2  0
 13 14  1  0
 14 15  1  1
 15 16  1  0
 16 17  2  0
 17 18  1  0
 19 18  1  0
 20 16  1  0
 20 19  2  0
 21 22  1  0
 21 14  1  0
 23 21  2  0
M  END
$$$$
