CSH.pdb
     RDKit          3D

 23 23  0  0  1  0  0  0  0  0999 V2000
   27.9904  -18.3575  -16.4345 N   0  0  0  0  0  0  0  0  0  0  0  0
   27.4486  -18.1439  -15.1275 C   0  0  1  0  0  0  0  0  0  0  0  0
   26.5226  -16.9436  -15.0735 C   0  0  0  0  0  0  0  0  0  0  0  0
   27.4112  -15.3905  -15.1605 S   0  0  0  0  0  0  0  0  0  0  0  0
   26.6701  -19.3417  -14.6584 C   0  0  0  0  0  0  0  0  0  0  0  0
   26.0415  -20.0686  -15.4683 O   0  0  0  0  0  0  0  0  0  0  0  0
   25.5361  -22.0088  -10.7102 O   0  0  0  0  0  0  0  0  0  0  0  0
   26.3140  -21.0482  -11.3069 C   0  0  0  0  0  0  0  0  0  0  0  0
   25.9179  -20.8283  -12.7705 C   0  0  2  0  0  0  0  0  0  0  0  0
   26.6210  -19.6899  -13.2800 N   0  0  0  0  0  0  0  0  0  0  0  0
   24.4444  -20.6810  -12.8851 C   0  0  0  0  0  0  0  0  0  0  0  0
   23.9310  -19.5597  -12.6694 O   0  0  0  0  0  0  0  0  0  0  0  0
   23.6134  -21.7537  -13.2259 N   0  0  0  0  0  0  0  0  0  0  0  0
   22.1460  -21.6908  -13.2364 C   0  0  1  0  0  0  0  0  0  0  0  0
   21.6296  -21.0162  -12.0233 C   0  0  0  0  0  0  0  0  0  0  0  0
   20.1722  -20.8928  -12.0322 C   0  0  0  0  0  0  0  0  0  0  0  0
   19.3411  -21.4583  -13.0031 C   0  0  0  0  0  0  0  0  0  0  0  0
   18.0608  -21.1768  -12.7480 N   0  0  0  0  0  0  0  0  0  0  0  0
   18.0641  -20.4403  -11.6292 C   0  0  0  0  0  0  0  0  0  0  0  0
   19.3358  -20.2731  -11.2039 N   0  0  0  0  0  0  0  0  0  0  0  0
   21.8160  -21.0106  -14.5092 C   0  0  0  0  0  0  0  0  0  0  0  0
   20.7429  -21.3604  -15.2936 O   0  0  0  0  0  0  0  0  0  0  0  0
   22.5178  -20.0403  -14.9686 O   0  0  0  0  0  0  0  0  0  0  0  0
  2  1  1  6
  3  2  1  0
  4  3  1  0
  5  2  1  0
  5 10  1  0
  6  5  2  0
  7  8  1  0
  9 10  1  0
  9 11  1  0
  9  8  1  1
 11 13  1  0
 12 11  2  0
 13 14  1  0
 14 15  1  1
 15 16  1  0
 16 17  2  0
 17 18  1  0
 19 18  1  0
 20 16  1  0
 20 19  2  0
 21 22  1  0
 21 14  1  0
 23 21  2  0
M  END
$$$$
