TTL.pdb
     RDKit          3D

 23 22  0  0  1  0  0  0  0  0999 V2000
   21.1514  -19.7637  -16.3913 C   0  0  0  0  0  0  0  0  0  0  0  0
   19.8864  -20.4298  -15.9086 C   0  0  1  0  0  0  0  0  0  0  0  0
   18.8646  -20.1052  -16.7963 O   0  0  0  0  0  0  0  0  0  0  0  0
   20.1166  -21.9291  -15.8610 C   0  0  2  0  0  0  0  0  0  0  0  0
   18.8738  -22.5537  -15.5291 N   0  0  0  0  0  0  0  0  0  0  0  0
   21.2032  -22.2733  -14.9009 C   0  0  0  0  0  0  0  0  0  0  0  0
   21.1019  -22.1062  -13.6575 O   0  0  0  0  0  0  0  0  0  0  0  0
   23.3725  -25.5469  -14.9356 C   0  0  0  0  0  0  0  0  0  0  0  0
   24.3126  -24.3395  -15.0005 C   0  0  1  0  0  0  0  0  0  0  0  0
   24.7855  -24.2505  -16.2701 O   0  0  0  0  0  0  0  0  0  0  0  0
   23.5361  -23.1599  -14.5045 C   0  0  2  0  0  0  0  0  0  0  0  0
   22.4277  -22.8187  -15.3743 N   0  0  0  0  0  0  0  0  0  0  0  0
   24.3762  -21.9848  -14.1819 C   0  0  0  0  0  0  0  0  0  0  0  0
   24.2689  -20.9884  -14.9440 O   0  0  0  0  0  0  0  0  0  0  0  0
   26.0604  -21.4551   -8.9860 C   0  0  0  0  0  0  0  0  0  0  0  0
   25.5242  -21.1539  -10.3295 C   0  0  1  0  0  0  0  0  0  0  0  0
   24.4702  -20.0411  -10.2869 C   0  0  0  0  0  0  0  0  0  0  0  0
   26.5032  -20.9368  -11.3945 C   0  0  0  0  0  0  0  0  0  0  0  0
   26.0993  -20.7049  -12.8060 C   0  0  2  0  0  0  0  0  0  0  0  0
   25.2615  -21.9086  -13.1109 N   0  0  0  0  0  0  0  0  0  0  0  0
   27.1960  -20.6322  -13.7618 C   0  0  0  0  0  0  0  0  0  0  0  0
   27.9365  -19.6478  -13.9641 O   0  0  0  0  0  0  0  0  0  0  0  0
   27.5165  -21.7499  -14.5808 O   0  0  0  0  0  0  0  0  0  0  0  0
  2  1  1  6
  2  4  1  0
  3  2  1  0
  4  5  1  1
  6  4  1  0
  7  6  2  0
  9  8  1  6
  9 11  1  0
 10  9  1  0
 11 13  1  0
 11 12  1  6
 12  6  1  0
 13 20  1  0
 14 13  2  0
 16 15  1  1
 16 17  1  0
 18 16  1  0
 19 18  1  1
 19 21  1  0
 20 19  1  0
 21 22  2  0
 21 23  1  0
M  END
$$$$
