TTL.pdb
     RDKit          3D

 23 22  0  0  1  0  0  0  0  0999 V2000
   18.5153  -14.1124  -18.6205 C   0  0  0  0  0  0  0  0  0  0  0  0
   18.5559  -12.9203  -17.6963 C   0  0  1  0  0  0  0  0  0  0  0  0
   17.3343  -12.8495  -17.0329 O   0  0  0  0  0  0  0  0  0  0  0  0
   19.7018  -13.1047  -16.7185 C   0  0  2  0  0  0  0  0  0  0  0  0
   19.4063  -14.2432  -15.9055 N   0  0  0  0  0  0  0  0  0  0  0  0
   19.9224  -11.8698  -15.9139 C   0  0  0  0  0  0  0  0  0  0  0  0
   19.2027  -11.5503  -14.9318 O   0  0  0  0  0  0  0  0  0  0  0  0
   23.0286  -10.6743  -14.1971 C   0  0  0  0  0  0  0  0  0  0  0  0
   22.6713   -9.5559  -15.1806 C   0  0  1  0  0  0  0  0  0  0  0  0
   23.5539   -9.6126  -16.2108 O   0  0  0  0  0  0  0  0  0  0  0  0
   21.2299   -9.7401  -15.5397 C   0  0  2  0  0  0  0  0  0  0  0  0
   20.9865  -10.9856  -16.2404 N   0  0  0  0  0  0  0  0  0  0  0  0
   20.6358   -8.5792  -16.2397 C   0  0  0  0  0  0  0  0  0  0  0  0
   20.4537   -8.7010  -17.4796 O   0  0  0  0  0  0  0  0  0  0  0  0
   17.3400   -5.0433  -18.1289 C   0  0  0  0  0  0  0  0  0  0  0  0
   17.3583   -5.2741  -16.6695 C   0  0  1  0  0  0  0  0  0  0  0  0
   15.9459   -5.4643  -16.1040 C   0  0  0  0  0  0  0  0  0  0  0  0
   18.2844   -6.2937  -16.1769 C   0  0  0  0  0  0  0  0  0  0  0  0
   19.7539   -6.1909  -16.3755 C   0  0  2  0  0  0  0  0  0  0  0  0
   20.2712   -7.3827  -15.6299 N   0  0  0  0  0  0  0  0  0  0  0  0
   20.3705   -4.9863  -15.8368 C   0  0  0  0  0  0  0  0  0  0  0  0
   20.4645   -3.8828  -16.4128 O   0  0  0  0  0  0  0  0  0  0  0  0
   20.9433   -4.9875  -14.5350 O   0  0  0  0  0  0  0  0  0  0  0  0
  2  1  1  6
  2  4  1  0
  3  2  1  0
  4  5  1  1
  6  4  1  0
  7  6  2  0
  9  8  1  1
  9 11  1  0
 10  9  1  0
 11 13  1  0
 11 12  1  6
 12  6  1  0
 13 20  1  0
 14 13  2  0
 16 15  1  6
 16 17  1  0
 18 16  1  0
 19 18  1  1
 19 21  1  0
 20 19  1  0
 21 22  2  0
 21 23  1  0
M  END
$$$$
