TTL.pdb
     RDKit          3D

 23 22  0  0  1  0  0  0  0  0999 V2000
   13.2615  -13.1451  -15.4038 C   0  0  0  0  0  0  0  0  0  0  0  0
   14.6272  -12.5722  -15.6931 C   0  0  1  0  0  0  0  0  0  0  0  0
   15.5711  -13.3650  -15.0466 O   0  0  0  0  0  0  0  0  0  0  0  0
   14.8447  -12.5740  -17.1951 C   0  0  2  0  0  0  0  0  0  0  0  0
   14.6971  -13.9187  -17.6584 N   0  0  0  0  0  0  0  0  0  0  0  0
   16.1714  -11.9919  -17.5442 C   0  0  0  0  0  0  0  0  0  0  0  0
   17.1619  -12.6904  -17.8839 O   0  0  0  0  0  0  0  0  0  0  0  0
   16.9930   -9.6119  -20.1302 C   0  0  0  0  0  0  0  0  0  0  0  0
   17.5066   -8.9027  -18.8736 C   0  0  1  0  0  0  0  0  0  0  0  0
   16.6616   -7.8748  -18.6036 O   0  0  0  0  0  0  0  0  0  0  0  0
   17.6321   -9.9469  -17.8086 C   0  0  2  0  0  0  0  0  0  0  0  0
   16.3664  -10.5844  -17.5034 N   0  0  0  0  0  0  0  0  0  0  0  0
   18.3296   -9.4770  -16.5907 C   0  0  0  0  0  0  0  0  0  0  0  0
   17.6061   -9.1943  -15.5999 O   0  0  0  0  0  0  0  0  0  0  0  0
   22.2429   -9.9327  -12.8838 C   0  0  0  0  0  0  0  0  0  0  0  0
   22.6877   -9.4542  -14.2091 C   0  0  1  0  0  0  0  0  0  0  0  0
   24.0384  -10.0587  -14.6103 C   0  0  0  0  0  0  0  0  0  0  0  0
   21.7122   -9.5298  -15.2967 C   0  0  0  0  0  0  0  0  0  0  0  0
   20.3890   -8.8569  -15.2216 C   0  0  2  0  0  0  0  0  0  0  0  0
   19.7080   -9.3292  -16.4694 N   0  0  0  0  0  0  0  0  0  0  0  0
   20.4318   -7.4009  -15.2231 C   0  0  0  0  0  0  0  0  0  0  0  0
   20.5904   -6.6669  -16.2203 O   0  0  0  0  0  0  0  0  0  0  0  0
   20.2864   -6.6721  -14.0105 O   0  0  0  0  0  0  0  0  0  0  0  0
  2  1  1  6
  2  4  1  0
  3  2  1  0
  4  5  1  1
  6  4  1  0
  7  6  2  0
  9  8  1  6
  9 11  1  0
 10  9  1  0
 11 13  1  0
 11 12  1  1
 12  6  1  0
 13 20  1  0
 14 13  2  0
 16 15  1  1
 16 17  1  0
 18 16  1  0
 19 18  1  6
 19 21  1  0
 20 19  1  0
 21 22  2  0
 21 23  1  0
M  END
$$$$
