TTL.pdb
     RDKit          3D

 23 22  0  0  1  0  0  0  0  0999 V2000
   18.1218  -14.1080  -14.7891 C   0  0  0  0  0  0  0  0  0  0  0  0
   18.1593  -15.0268  -15.9854 C   0  0  1  0  0  0  0  0  0  0  0  0
   17.3325  -16.1141  -15.7180 O   0  0  0  0  0  0  0  0  0  0  0  0
   17.6783  -14.2574  -17.2020 C   0  0  2  0  0  0  0  0  0  0  0  0
   17.6020  -15.1724  -18.2981 N   0  0  0  0  0  0  0  0  0  0  0  0
   18.5686  -13.0969  -17.4874 C   0  0  0  0  0  0  0  0  0  0  0  0
   19.6811  -13.2084  -18.0654 O   0  0  0  0  0  0  0  0  0  0  0  0
   17.7428  -10.1216  -19.3951 C   0  0  0  0  0  0  0  0  0  0  0  0
   18.2151   -9.5307  -18.0634 C   0  0  1  0  0  0  0  0  0  0  0  0
   17.1237   -9.0537  -17.4116 O   0  0  0  0  0  0  0  0  0  0  0  0
   18.9816  -10.6071  -17.3604 C   0  0  2  0  0  0  0  0  0  0  0  0
   18.1769  -11.7853  -17.1038 N   0  0  0  0  0  0  0  0  0  0  0  0
   19.6921  -10.1404  -16.1489 C   0  0  0  0  0  0  0  0  0  0  0  0
   19.0941  -10.2907  -15.0512 O   0  0  0  0  0  0  0  0  0  0  0  0
   25.1208  -10.6606  -15.6699 C   0  0  0  0  0  0  0  0  0  0  0  0
   23.6719  -10.6058  -15.3850 C   0  0  1  0  0  0  0  0  0  0  0  0
   23.2807  -11.5409  -14.2346 C   0  0  0  0  0  0  0  0  0  0  0  0
   23.0823   -9.2759  -15.2308 C   0  0  0  0  0  0  0  0  0  0  0  0
   21.6462   -9.0799  -14.9011 C   0  0  2  0  0  0  0  0  0  0  0  0
   20.9554   -9.5567  -16.1417 N   0  0  0  0  0  0  0  0  0  0  0  0
   21.2526   -7.7031  -14.6346 C   0  0  0  0  0  0  0  0  0  0  0  0
   21.3947   -7.0888  -13.5573 O   0  0  0  0  0  0  0  0  0  0  0  0
   20.6407   -6.9168  -15.6495 O   0  0  0  0  0  0  0  0  0  0  0  0
  2  1  1  1
  2  4  1  0
  3  2  1  0
  4  5  1  6
  6  4  1  0
  7  6  2  0
  9  8  1  6
  9 11  1  0
 10  9  1  0
 11 13  1  0
 11 12  1  1
 12  6  1  0
 13 20  1  0
 14 13  2  0
 16 15  1  1
 16 17  1  0
 18 16  1  0
 19 18  1  6
 19 21  1  0
 20 19  1  0
 21 22  2  0
 21 23  1  0
M  END
$$$$
