TTL.pdb
     RDKit          3D

 23 22  0  0  1  0  0  0  0  0999 V2000
   27.9302  -17.2514  -15.6338 C   0  0  0  0  0  0  0  0  0  0  0  0
   26.8773  -16.8900  -16.6525 C   0  0  1  0  0  0  0  0  0  0  0  0
   27.4923  -16.8191  -17.8992 O   0  0  0  0  0  0  0  0  0  0  0  0
   25.7981  -17.9568  -16.6326 C   0  0  2  0  0  0  0  0  0  0  0  0
   24.9050  -17.6982  -17.7189 N   0  0  0  0  0  0  0  0  0  0  0  0
   25.1015  -17.9885  -15.3155 C   0  0  0  0  0  0  0  0  0  0  0  0
   24.6427  -16.9595  -14.7543 O   0  0  0  0  0  0  0  0  0  0  0  0
   22.7205  -20.9598  -14.3929 C   0  0  0  0  0  0  0  0  0  0  0  0
   22.7708  -19.6765  -13.5584 C   0  0  1  0  0  0  0  0  0  0  0  0
   22.0578  -19.8923  -12.4232 O   0  0  0  0  0  0  0  0  0  0  0  0
   24.2170  -19.3389  -13.3714 C   0  0  2  0  0  0  0  0  0  0  0  0
   24.9275  -19.2214  -14.6295 N   0  0  0  0  0  0  0  0  0  0  0  0
   24.9178  -20.2236  -12.4139 C   0  0  0  0  0  0  0  0  0  0  0  0
   25.4561  -21.2570  -12.8908 O   0  0  0  0  0  0  0  0  0  0  0  0
   27.5704  -18.2729   -7.9970 C   0  0  0  0  0  0  0  0  0  0  0  0
   27.3054  -19.2105   -9.1078 C   0  0  1  0  0  0  0  0  0  0  0  0
   28.5490  -20.0301   -9.4719 C   0  0  0  0  0  0  0  0  0  0  0  0
   26.1143  -20.0515   -8.9882 C   0  0  0  0  0  0  0  0  0  0  0  0
   25.6639  -20.9469  -10.0857 C   0  0  2  0  0  0  0  0  0  0  0  0
   25.0199  -19.9938  -11.0452 N   0  0  0  0  0  0  0  0  0  0  0  0
   24.6946  -21.9633   -9.6996 C   0  0  0  0  0  0  0  0  0  0  0  0
   23.4521  -21.8427   -9.7119 O   0  0  0  0  0  0  0  0  0  0  0  0
   25.1272  -23.2429   -9.2544 O   0  0  0  0  0  0  0  0  0  0  0  0
  2  1  1  1
  2  4  1  0
  3  2  1  0
  4  5  1  6
  6  4  1  0
  7  6  2  0
  9  8  1  6
  9 11  1  0
 10  9  1  0
 11 13  1  0
 11 12  1  6
 12  6  1  0
 13 20  1  0
 14 13  2  0
 16 15  1  1
 16 17  1  0
 18 16  1  0
 19 18  1  1
 19 21  1  0
 20 19  1  0
 21 22  2  0
 21 23  1  0
M  END
$$$$
