TTL.pdb
     RDKit          3D

 23 22  0  0  1  0  0  0  0  0999 V2000
   28.3366  -17.8209  -14.9138 C   0  0  0  0  0  0  0  0  0  0  0  0
   27.2957  -18.1791  -15.9459 C   0  0  1  0  0  0  0  0  0  0  0  0
   27.9429  -18.3547  -17.1656 O   0  0  0  0  0  0  0  0  0  0  0  0
   26.5969  -19.4527  -15.5067 C   0  0  2  0  0  0  0  0  0  0  0  0
   25.7524  -19.8818  -16.5779 N   0  0  0  0  0  0  0  0  0  0  0  0
   25.8459  -19.2404  -14.2372 C   0  0  0  0  0  0  0  0  0  0  0  0
   25.3512  -18.1311  -13.9071 O   0  0  0  0  0  0  0  0  0  0  0  0
   22.7978  -20.1519  -13.5117 C   0  0  0  0  0  0  0  0  0  0  0  0
   23.4827  -20.8874  -12.3559 C   0  0  1  0  0  0  0  0  0  0  0  0
   23.5097  -22.2094  -12.6643 O   0  0  0  0  0  0  0  0  0  0  0  0
   24.8135  -20.2325  -12.1550 C   0  0  2  0  0  0  0  0  0  0  0  0
   25.6584  -20.3186  -13.3298 N   0  0  0  0  0  0  0  0  0  0  0  0
   25.5156  -20.6709  -10.9279 C   0  0  0  0  0  0  0  0  0  0  0  0
   26.3208  -21.6309  -11.0513 O   0  0  0  0  0  0  0  0  0  0  0  0
   28.2072  -18.1146   -6.5918 C   0  0  0  0  0  0  0  0  0  0  0  0
   27.8441  -19.3133   -7.3757 C   0  0  1  0  0  0  0  0  0  0  0  0
   28.4525  -20.5893   -6.7821 C   0  0  0  0  0  0  0  0  0  0  0  0
   26.4273  -19.4837   -7.6977 C   0  0  0  0  0  0  0  0  0  0  0  0
   25.9161  -20.6839   -8.4101 C   0  0  2  0  0  0  0  0  0  0  0  0
   25.3483  -20.1029   -9.6686 N   0  0  0  0  0  0  0  0  0  0  0  0
   24.8726  -21.4227   -7.7123 C   0  0  0  0  0  0  0  0  0  0  0  0
   25.0289  -22.1643   -6.7204 O   0  0  0  0  0  0  0  0  0  0  0  0
   23.5193  -21.3429   -8.1424 O   0  0  0  0  0  0  0  0  0  0  0  0
  2  1  1  1
  2  4  1  0
  3  2  1  0
  4  5  1  6
  6  4  1  0
  7  6  2  0
  9  8  1  6
  9 11  1  0
 10  9  1  0
 11 13  1  0
 11 12  1  6
 12  6  1  0
 13 20  1  0
 14 13  2  0
 16 15  1  1
 16 17  1  0
 18 16  1  0
 19 18  1  1
 19 21  1  0
 20 19  1  0
 21 22  2  0
 21 23  1  0
M  END
$$$$
