TTL.pdb
     RDKit          3D

 23 22  0  0  1  0  0  0  0  0999 V2000
   16.1054  -12.5455  -14.5245 C   0  0  0  0  0  0  0  0  0  0  0  0
   15.4179  -12.9670  -15.7999 C   0  0  1  0  0  0  0  0  0  0  0  0
   14.4138  -13.8719  -15.4676 O   0  0  0  0  0  0  0  0  0  0  0  0
   14.8443  -11.7327  -16.4713 C   0  0  2  0  0  0  0  0  0  0  0  0
   14.0840  -12.1622  -17.6036 N   0  0  0  0  0  0  0  0  0  0  0  0
   15.9238  -10.7732  -16.8387 C   0  0  0  0  0  0  0  0  0  0  0  0
   16.7645  -10.9978  -17.7482 O   0  0  0  0  0  0  0  0  0  0  0  0
   15.4738   -7.3735  -17.9325 C   0  0  0  0  0  0  0  0  0  0  0  0
   16.4369   -7.1922  -16.7555 C   0  0  1  0  0  0  0  0  0  0  0  0
   15.7416   -6.6295  -15.7341 O   0  0  0  0  0  0  0  0  0  0  0  0
   17.0391   -8.5344  -16.4791 C   0  0  2  0  0  0  0  0  0  0  0  0
   16.0419   -9.5343  -16.1517 N   0  0  0  0  0  0  0  0  0  0  0  0
   18.1432   -8.5021  -15.4939 C   0  0  0  0  0  0  0  0  0  0  0  0
   17.8355   -8.7290  -14.2943 O   0  0  0  0  0  0  0  0  0  0  0  0
   22.4742  -10.1559  -13.0691 C   0  0  0  0  0  0  0  0  0  0  0  0
   22.6619   -9.6772  -14.4544 C   0  0  1  0  0  0  0  0  0  0  0  0
   23.5719  -10.6101  -15.2621 C   0  0  0  0  0  0  0  0  0  0  0  0
   21.4526   -9.3193  -15.1956 C   0  0  0  0  0  0  0  0  0  0  0  0
   20.5713   -8.1973  -14.7787 C   0  0  2  0  0  0  0  0  0  0  0  0
   19.4758   -8.2422  -15.7993 N   0  0  0  0  0  0  0  0  0  0  0  0
   21.1911   -6.8794  -14.8015 C   0  0  0  0  0  0  0  0  0  0  0  0
   21.8462   -6.3543  -13.8776 O   0  0  0  0  0  0  0  0  0  0  0  0
   21.0842   -6.0499  -15.9518 O   0  0  0  0  0  0  0  0  0  0  0  0
  2  1  1  1
  2  4  1  0
  3  2  1  0
  4  5  1  6
  6  4  1  0
  7  6  2  0
  9  8  1  6
  9 11  1  0
 10  9  1  0
 11 13  1  0
 11 12  1  1
 12  6  1  0
 13 20  1  0
 14 13  2  0
 16 15  1  1
 16 17  1  0
 18 16  1  0
 19 18  1  6
 19 21  1  0
 20 19  1  0
 21 22  2  0
 21 23  1  0
M  END
$$$$
