TTL.pdb
     RDKit          3D

 23 22  0  0  1  0  0  0  0  0999 V2000
   26.5110  -11.5866  -17.3386 C   0  0  0  0  0  0  0  0  0  0  0  0
   27.9948  -11.4361  -17.5676 C   0  0  1  0  0  0  0  0  0  0  0  0
   28.5053  -12.6851  -17.9099 O   0  0  0  0  0  0  0  0  0  0  0  0
   28.2130  -10.4296  -18.6824 C   0  0  2  0  0  0  0  0  0  0  0  0
   27.7662  -11.0238  -19.9039 N   0  0  0  0  0  0  0  0  0  0  0  0
   29.6387  -10.0002  -18.7440 C   0  0  0  0  0  0  0  0  0  0  0  0
   30.5599  -10.7330  -19.1897 O   0  0  0  0  0  0  0  0  0  0  0  0
   31.0482   -7.6227  -20.7786 C   0  0  0  0  0  0  0  0  0  0  0  0
   31.4187   -7.0425  -19.4105 C   0  0  1  0  0  0  0  0  0  0  0  0
   30.5905   -5.9945  -19.1670 O   0  0  0  0  0  0  0  0  0  0  0  0
   31.3546   -8.1718  -18.4302 C   0  0  2  0  0  0  0  0  0  0  0  0
   30.0154   -8.7079  -18.2867 N   0  0  0  0  0  0  0  0  0  0  0  0
   31.9768   -7.8640  -17.1230 C   0  0  0  0  0  0  0  0  0  0  0  0
   31.1936   -7.5895  -16.1763 O   0  0  0  0  0  0  0  0  0  0  0  0
   36.8552  -10.0892  -15.7854 C   0  0  0  0  0  0  0  0  0  0  0  0
   35.4676   -9.5906  -15.6891 C   0  0  1  0  0  0  0  0  0  0  0  0
   34.6779  -10.3095  -14.5888 C   0  0  0  0  0  0  0  0  0  0  0  0
   35.2935   -8.1395  -15.6254 C   0  0  0  0  0  0  0  0  0  0  0  0
   33.9512   -7.5057  -15.5503 C   0  0  2  0  0  0  0  0  0  0  0  0
   33.3460   -7.8579  -16.8745 N   0  0  0  0  0  0  0  0  0  0  0  0
   33.9561   -6.0571  -15.3979 C   0  0  0  0  0  0  0  0  0  0  0  0
   34.0793   -5.4266  -14.3275 O   0  0  0  0  0  0  0  0  0  0  0  0
   33.8116   -5.2104  -16.5314 O   0  0  0  0  0  0  0  0  0  0  0  0
  2  1  1  6
  2  4  1  0
  3  2  1  0
  4  5  1  6
  6  4  1  0
  7  6  2  0
  9  8  1  6
  9 11  1  0
 10  9  1  0
 11 13  1  0
 11 12  1  1
 12  6  1  0
 13 20  1  0
 14 13  2  0
 16 15  1  1
 16 17  1  0
 18 16  1  0
 19 18  1  6
 19 21  1  0
 20 19  1  0
 21 22  2  0
 21 23  1  0
M  END
$$$$
