TTL.pdb
     RDKit          3D

 23 22  0  0  1  0  0  0  0  0999 V2000
   17.7932  -13.8824  -14.4641 C   0  0  0  0  0  0  0  0  0  0  0  0
   17.6274  -14.8503  -15.6099 C   0  0  1  0  0  0  0  0  0  0  0  0
   16.7391  -15.8436  -15.2077 O   0  0  0  0  0  0  0  0  0  0  0  0
   17.0951  -14.0913  -16.8115 C   0  0  2  0  0  0  0  0  0  0  0  0
   16.8191  -15.0416  -17.8438 N   0  0  0  0  0  0  0  0  0  0  0  0
   18.0548  -13.0376  -17.2468 C   0  0  0  0  0  0  0  0  0  0  0  0
   19.1409  -13.2936  -17.8292 O   0  0  0  0  0  0  0  0  0  0  0  0
   17.6004  -10.2486  -19.5120 C   0  0  0  0  0  0  0  0  0  0  0  0
   18.0257   -9.5494  -18.2174 C   0  0  1  0  0  0  0  0  0  0  0  0
   16.9297   -8.9410  -17.6958 O   0  0  0  0  0  0  0  0  0  0  0  0
   18.6717  -10.5895  -17.3564 C   0  0  2  0  0  0  0  0  0  0  0  0
   17.7647  -11.6662  -17.0104 N   0  0  0  0  0  0  0  0  0  0  0  0
   19.3629  -10.0374  -16.1698 C   0  0  0  0  0  0  0  0  0  0  0  0
   18.6953   -9.9806  -15.1038 O   0  0  0  0  0  0  0  0  0  0  0  0
   24.7517  -10.8439  -15.4145 C   0  0  0  0  0  0  0  0  0  0  0  0
   23.3136  -10.6768  -15.1193 C   0  0  1  0  0  0  0  0  0  0  0  0
   22.9123  -11.3823  -13.8184 C   0  0  0  0  0  0  0  0  0  0  0  0
   22.7825   -9.3154  -15.1871 C   0  0  0  0  0  0  0  0  0  0  0  0
   21.3482   -9.0120  -14.9421 C   0  0  2  0  0  0  0  0  0  0  0  0
   20.6787   -9.5847  -16.1535 N   0  0  0  0  0  0  0  0  0  0  0  0
   21.0215   -7.5961  -14.8408 C   0  0  0  0  0  0  0  0  0  0  0  0
   20.6888   -6.8449  -15.7806 O   0  0  0  0  0  0  0  0  0  0  0  0
   21.0626   -6.9329  -13.5833 O   0  0  0  0  0  0  0  0  0  0  0  0
  2  1  1  1
  2  4  1  0
  3  2  1  0
  4  5  1  6
  6  4  1  0
  7  6  2  0
  9  8  1  6
  9 11  1  0
 10  9  1  0
 11 13  1  0
 11 12  1  1
 12  6  1  0
 13 20  1  0
 14 13  2  0
 16 15  1  1
 16 17  1  0
 18 16  1  0
 19 18  1  6
 19 21  1  0
 20 19  1  0
 21 22  2  0
 21 23  1  0
M  END
$$$$
