TTL.pdb
     RDKit          3D

 23 22  0  0  1  0  0  0  0  0999 V2000
   16.1440  -16.4684  -17.7271 C   0  0  0  0  0  0  0  0  0  0  0  0
   16.6198  -15.1136  -18.1908 C   0  0  1  0  0  0  0  0  0  0  0  0
   15.5614  -14.4865  -18.8419 O   0  0  0  0  0  0  0  0  0  0  0  0
   17.0685  -14.3173  -16.9793 C   0  0  2  0  0  0  0  0  0  0  0  0
   15.9338  -14.1365  -16.1281 N   0  0  0  0  0  0  0  0  0  0  0  0
   17.6879  -13.0250  -17.3879 C   0  0  0  0  0  0  0  0  0  0  0  0
   18.7299  -12.9524  -18.0902 O   0  0  0  0  0  0  0  0  0  0  0  0
   16.0833   -9.9389  -19.0013 C   0  0  0  0  0  0  0  0  0  0  0  0
   16.6742   -9.4789  -17.6652 C   0  0  1  0  0  0  0  0  0  0  0  0
   15.6453   -9.2959  -16.7984 O   0  0  0  0  0  0  0  0  0  0  0  0
   17.6933  -10.5008  -17.2686 C   0  0  2  0  0  0  0  0  0  0  0  0
   17.1026  -11.7938  -16.9846 N   0  0  0  0  0  0  0  0  0  0  0  0
   18.6009  -10.0514  -16.1892 C   0  0  0  0  0  0  0  0  0  0  0  0
   18.4047  -10.5422  -15.0465 O   0  0  0  0  0  0  0  0  0  0  0  0
   22.3239   -9.5467  -12.7980 C   0  0  0  0  0  0  0  0  0  0  0  0
   22.6958   -9.5543  -14.2281 C   0  0  1  0  0  0  0  0  0  0  0  0
   23.7978  -10.5779  -14.5257 C   0  0  0  0  0  0  0  0  0  0  0  0
   21.5987   -9.6388  -15.1921 C   0  0  0  0  0  0  0  0  0  0  0  0
   20.4952   -8.6436  -15.2250 C   0  0  2  0  0  0  0  0  0  0  0  0
   19.6388   -9.1384  -16.3499 N   0  0  0  0  0  0  0  0  0  0  0  0
   20.9030   -7.2731  -15.5028 C   0  0  0  0  0  0  0  0  0  0  0  0
   21.1309   -6.7832  -16.6281 O   0  0  0  0  0  0  0  0  0  0  0  0
   21.0801   -6.3424  -14.4420 O   0  0  0  0  0  0  0  0  0  0  0  0
  2  1  1  1
  2  4  1  0
  3  2  1  0
  4  5  1  1
  6  4  1  0
  7  6  2  0
  9  8  1  6
  9 11  1  0
 10  9  1  0
 11 13  1  0
 11 12  1  1
 12  6  1  0
 13 20  1  0
 14 13  2  0
 16 15  1  1
 16 17  1  0
 18 16  1  0
 19 18  1  6
 19 21  1  0
 20 19  1  0
 21 22  2  0
 21 23  1  0
M  END
$$$$
