TTL.pdb
     RDKit          3D

 23 22  0  0  1  0  0  0  0  0999 V2000
   17.9471  -25.3497    2.5946 C   0  0  0  0  0  0  0  0  0  0  0  0
   16.9734  -25.3821    1.4423 C   0  0  1  0  0  0  0  0  0  0  0  0
   17.1723  -26.5704    0.7453 O   0  0  0  0  0  0  0  0  0  0  0  0
   15.5633  -25.3008    1.9977 C   0  0  2  0  0  0  0  0  0  0  0  0
   14.6524  -25.5034    0.9143 N   0  0  0  0  0  0  0  0  0  0  0  0
   15.3382  -24.0051    2.6986 C   0  0  0  0  0  0  0  0  0  0  0  0
   15.2824  -22.8992    2.1002 O   0  0  0  0  0  0  0  0  0  0  0  0
   14.4543  -21.6325    6.9479 C   0  0  0  0  0  0  0  0  0  0  0  0
   14.7337  -22.9984    6.3140 C   0  0  1  0  0  0  0  0  0  0  0  0
   13.6624  -23.7957    6.5588 O   0  0  0  0  0  0  0  0  0  0  0  0
   15.0513  -22.7493    4.8726 C   0  0  2  0  0  0  0  0  0  0  0  0
   15.1742  -23.9762    4.1104 N   0  0  0  0  0  0  0  0  0  0  0  0
   16.2023  -21.8428    4.6627 C   0  0  0  0  0  0  0  0  0  0  0  0
   17.3344  -22.3837    4.5578 O   0  0  0  0  0  0  0  0  0  0  0  0
   19.4028  -18.2408    2.4037 C   0  0  0  0  0  0  0  0  0  0  0  0
   17.9426  -18.0145    2.4100 C   0  0  1  0  0  0  0  0  0  0  0  0
   17.4283  -17.5687    1.0360 C   0  0  0  0  0  0  0  0  0  0  0  0
   17.1154  -19.0760    2.9834 C   0  0  0  0  0  0  0  0  0  0  0  0
   17.3028  -19.5610    4.3758 C   0  0  2  0  0  0  0  0  0  0  0  0
   16.1187  -20.4565    4.5749 N   0  0  0  0  0  0  0  0  0  0  0  0
   17.2957  -18.5255    5.4002 C   0  0  0  0  0  0  0  0  0  0  0  0
   18.2882  -17.8984    5.8246 O   0  0  0  0  0  0  0  0  0  0  0  0
   16.0793  -18.1351    6.0252 O   0  0  0  0  0  0  0  0  0  0  0  0
  2  1  1  1
  2  4  1  0
  3  2  1  0
  4  5  1  6
  6  4  1  0
  7  6  2  0
  9  8  1  1
  9 11  1  0
 10  9  1  0
 11 13  1  0
 11 12  1  1
 12  6  1  0
 13 20  1  0
 14 13  2  0
 16 15  1  6
 16 17  1  0
 18 16  1  0
 19 18  1  6
 19 21  1  0
 20 19  1  0
 21 22  2  0
 21 23  1  0
M  END
$$$$
