TTL.pdb
     RDKit          3D

 23 22  0  0  1  0  0  0  0  0999 V2000
   22.3393  -21.7821   -9.6255 C   0  0  0  0  0  0  0  0  0  0  0  0
   23.1545  -20.8168  -10.4504 C   0  0  1  0  0  0  0  0  0  0  0  0
   22.6363  -19.5400  -10.2538 O   0  0  0  0  0  0  0  0  0  0  0  0
   24.6016  -20.8973  -10.0000 C   0  0  2  0  0  0  0  0  0  0  0  0
   24.6575  -20.4964   -8.6286 N   0  0  0  0  0  0  0  0  0  0  0  0
   25.4805  -20.0694  -10.8735 C   0  0  0  0  0  0  0  0  0  0  0  0
   26.0812  -19.0402  -10.4684 O   0  0  0  0  0  0  0  0  0  0  0  0
   28.3843  -21.2644  -12.6268 C   0  0  0  0  0  0  0  0  0  0  0  0
   27.5808  -20.6247  -13.7631 C   0  0  1  0  0  0  0  0  0  0  0  0
   27.0789  -21.6261  -14.5303 O   0  0  0  0  0  0  0  0  0  0  0  0
   26.5745  -19.7192  -13.1244 C   0  0  2  0  0  0  0  0  0  0  0  0
   25.6746  -20.4275  -12.2355 N   0  0  0  0  0  0  0  0  0  0  0  0
   25.8488  -18.8599  -14.0864 C   0  0  0  0  0  0  0  0  0  0  0  0
   24.6603  -19.1837  -14.3469 O   0  0  0  0  0  0  0  0  0  0  0  0
   24.6455  -13.8997  -16.2423 C   0  0  0  0  0  0  0  0  0  0  0  0
   26.0110  -14.4318  -16.4306 C   0  0  1  0  0  0  0  0  0  0  0  0
   27.0692  -13.3241  -16.3648 C   0  0  0  0  0  0  0  0  0  0  0  0
   26.3830  -15.5899  -15.6179 C   0  0  0  0  0  0  0  0  0  0  0  0
   25.6124  -16.8604  -15.6505 C   0  0  2  0  0  0  0  0  0  0  0  0
   26.3828  -17.7372  -14.7117 N   0  0  0  0  0  0  0  0  0  0  0  0
   25.5360  -17.5071  -16.9534 C   0  0  0  0  0  0  0  0  0  0  0  0
   26.4354  -18.1789  -17.4993 O   0  0  0  0  0  0  0  0  0  0  0  0
   24.3556  -17.4098  -17.7408 O   0  0  0  0  0  0  0  0  0  0  0  0
  2  1  1  1
  2  4  1  0
  3  2  1  0
  4  5  1  1
  6  4  1  0
  7  6  2  0
  9  8  1  1
  9 11  1  0
 10  9  1  0
 11 13  1  0
 11 12  1  6
 12  6  1  0
 13 20  1  0
 14 13  2  0
 16 15  1  1
 16 17  1  0
 18 16  1  0
 19 18  1  6
 19 21  1  0
 20 19  1  0
 21 22  2  0
 21 23  1  0
M  END
$$$$
