TTL.pdb
     RDKit          3D

 23 22  0  0  1  0  0  0  0  0999 V2000
   21.3556  -12.0285  -16.5212 C   0  0  0  0  0  0  0  0  0  0  0  0
   20.3353  -12.4372  -17.5551 C   0  0  1  0  0  0  0  0  0  0  0  0
   20.2302  -13.8250  -17.5295 O   0  0  0  0  0  0  0  0  0  0  0  0
   19.0105  -11.7799  -17.2141 C   0  0  2  0  0  0  0  0  0  0  0  0
   17.9954  -12.4011  -18.0067 N   0  0  0  0  0  0  0  0  0  0  0  0
   19.0756  -10.3057  -17.4222 C   0  0  0  0  0  0  0  0  0  0  0  0
   19.9570   -9.7480  -18.1268 O   0  0  0  0  0  0  0  0  0  0  0  0
   16.1824   -8.3351  -18.6411 C   0  0  0  0  0  0  0  0  0  0  0  0
   16.6225   -7.5938  -17.3752 C   0  0  1  0  0  0  0  0  0  0  0  0
   15.7037   -7.8448  -16.4076 O   0  0  0  0  0  0  0  0  0  0  0  0
   18.0227   -8.0339  -17.0813 C   0  0  2  0  0  0  0  0  0  0  0  0
   18.1135   -9.4555  -16.8120 N   0  0  0  0  0  0  0  0  0  0  0  0
   18.6978   -7.2237  -16.0428 C   0  0  0  0  0  0  0  0  0  0  0  0
   18.6946   -7.6898  -14.8733 O   0  0  0  0  0  0  0  0  0  0  0  0
   22.1885   -4.3484  -13.2437 C   0  0  0  0  0  0  0  0  0  0  0  0
   22.1198   -4.0719  -14.6935 C   0  0  1  0  0  0  0  0  0  0  0  0
   23.5149   -3.9474  -15.3175 C   0  0  0  0  0  0  0  0  0  0  0  0
   21.2432   -4.9338  -15.4863 C   0  0  0  0  0  0  0  0  0  0  0  0
   19.7985   -5.0937  -15.1758 C   0  0  2  0  0  0  0  0  0  0  0  0
   19.3253   -6.0023  -16.2686 N   0  0  0  0  0  0  0  0  0  0  0  0
   19.0172   -3.8647  -15.2050 C   0  0  0  0  0  0  0  0  0  0  0  0
   18.5802   -3.2905  -16.2236 O   0  0  0  0  0  0  0  0  0  0  0  0
   18.6787   -3.1943  -13.9973 O   0  0  0  0  0  0  0  0  0  0  0  0
  2  1  1  1
  2  4  1  0
  3  2  1  0
  4  5  1  6
  6  4  1  0
  7  6  2  0
  9  8  1  6
  9 11  1  0
 10  9  1  0
 11 13  1  0
 11 12  1  1
 12  6  1  0
 13 20  1  0
 14 13  2  0
 16 15  1  1
 16 17  1  0
 18 16  1  0
 19 18  1  6
 19 21  1  0
 20 19  1  0
 21 22  2  0
 21 23  1  0
M  END
$$$$
