RPD.pdb
     RDKit          3D

 27 27  0  0  1  0  0  0  0  0999 V2000
    9.0517  -21.4444   17.6999 N   0  0  0  0  0  0  0  0  0  0  0  0
    8.3809  -20.2381   17.9986 C   0  0  0  0  0  0  0  0  0  0  0  0
    7.0759  -20.2398   17.8856 N   0  0  0  0  0  0  0  0  0  0  0  0
    9.0447  -19.0547   18.3957 N   0  0  0  0  0  0  0  0  0  0  0  0
    8.3072  -17.7920   18.2957 C   0  0  0  0  0  0  0  0  0  0  0  0
    7.6761  -17.6814   16.9550 C   0  0  0  0  0  0  0  0  0  0  0  0
    8.4919  -16.8902   16.0000 C   0  0  0  0  0  0  0  0  0  0  0  0
    8.3760  -15.4138   16.0472 C   0  0  2  0  0  0  0  0  0  0  0  0
    8.8934  -14.7171   14.9002 N   0  0  0  0  0  0  0  0  0  0  0  0
    9.2007  -14.9492   17.2232 C   0  0  0  0  0  0  0  0  0  0  0  0
   10.4745  -14.8816   17.1106 O   0  0  0  0  0  0  0  0  0  0  0  0
    6.5224  -19.3640   17.9668 N   0  0  0  0  0  0  0  0  0  0  0  0
    8.6459  -14.5755   18.4640 C   0  0  0  0  0  0  0  0  0  0  0  0
    7.2669  -14.6289   18.8573 C   0  0  0  0  0  0  0  0  0  0  0  0
    7.0468  -13.4391   19.7561 C   0  0  0  0  0  0  0  0  0  0  0  0
    8.4274  -12.9450   20.0914 C   0  0  2  0  0  0  0  0  0  0  0  0
    9.4016  -14.0288   19.5906 C   0  0  0  0  0  0  0  0  0  0  0  0
    9.4695  -15.0117   20.7025 O   0  0  0  0  0  0  0  0  0  0  0  0
    8.5227  -15.8106   20.9495 N   0  0  0  0  0  0  0  0  0  0  0  0
   10.6000  -15.1226   21.5650 C   0  0  1  0  0  0  0  0  0  0  0  0
   10.7537  -16.1636   22.5232 C   0  0  0  0  0  0  0  0  0  0  0  0
   12.1603  -16.3712   23.0383 C   0  0  0  0  0  0  0  0  0  0  0  0
   13.1219  -16.4925   21.8888 O   0  0  0  0  0  0  0  0  0  0  0  0
   12.7397  -16.7429   20.7181 C   0  0  0  0  0  0  0  0  0  0  0  0
    9.8329  -15.9274   23.6659 O   0  0  0  0  0  0  0  0  0  0  0  0
    9.6889  -16.8745   24.6563 O   0  0  0  0  0  0  0  0  0  0  0  0
   14.5087  -16.3356   22.0651 O   0  0  0  0  0  0  0  0  0  0  0  0
  2  1  1  0
  3  2  2  0
  4  2  1  0
  5  6  1  0
  5  4  1  0
  7  6  1  0
  8  7  1  0
  8  9  1  6
 10 12  1  0
 10  8  1  0
 11 10  2  0
 12 16  1  0
 13 12  1  0
 13 14  1  0
 14 15  1  0
 16 15  1  0
 16 17  1  1
 17 18  2  0
 19 17  1  0
 20 19  1  0
 20 21  1  1
 22 21  1  0
 22 23  2  0
 24 20  1  0
 24 25  1  0
 26 22  1  0
 27 24  2  0
M  END
$$$$
