RPD.pdb
     RDKit          3D

 27 27  0  0  1  0  0  0  0  0999 V2000
    8.7699  -14.4104   17.8837 N   0  0  0  0  0  0  0  0  0  0  0  0
    8.2189  -13.3920   18.6922 C   0  0  0  0  0  0  0  0  0  0  0  0
    8.0462  -12.2189   18.1354 N   0  0  0  0  0  0  0  0  0  0  0  0
    7.8638  -13.5793   20.0477 N   0  0  0  0  0  0  0  0  0  0  0  0
    8.1962  -14.8645   20.6691 C   0  0  0  0  0  0  0  0  0  0  0  0
    6.9577  -15.5226   21.1599 C   0  0  0  0  0  0  0  0  0  0  0  0
    7.2260  -16.8100   21.8486 C   0  0  0  0  0  0  0  0  0  0  0  0
    6.0675  -17.5667   22.3785 C   0  0  2  0  0  0  0  0  0  0  0  0
    4.7991  -16.8943   22.2916 N   0  0  0  0  0  0  0  0  0  0  0  0
    6.3242  -17.7822   23.8505 C   0  0  0  0  0  0  0  0  0  0  0  0
    5.8380  -16.9577   24.7010 O   0  0  0  0  0  0  0  0  0  0  0  0
    7.7335  -11.3961   18.6878 N   0  0  0  0  0  0  0  0  0  0  0  0
    7.0803  -18.8575   24.3596 C   0  0  0  0  0  0  0  0  0  0  0  0
    7.7003  -19.9191   23.6193 C   0  0  0  0  0  0  0  0  0  0  0  0
    7.5947  -21.1460   24.4884 C   0  0  0  0  0  0  0  0  0  0  0  0
    7.1989  -20.6286   25.8442 C   0  0  1  0  0  0  0  0  0  0  0  0
    7.3504  -19.0966   25.7771 C   0  0  0  0  0  0  0  0  0  0  0  0
    8.7822  -18.8496   26.0867 O   0  0  0  0  0  0  0  0  0  0  0  0
    9.6895  -18.9906   25.2192 N   0  0  0  0  0  0  0  0  0  0  0  0
    9.2320  -18.4393   27.3765 C   0  0  1  0  0  0  0  0  0  0  0  0
    9.7970  -17.1594   27.6373 C   0  0  0  0  0  0  0  0  0  0  0  0
    8.8971  -15.9793   27.3463 C   0  0  0  0  0  0  0  0  0  0  0  0
    9.6265  -14.6917   27.6121 O   0  0  0  0  0  0  0  0  0  0  0  0
   10.8445  -14.5424   27.3409 C   0  0  0  0  0  0  0  0  0  0  0  0
   10.2602  -17.0984   29.0483 O   0  0  0  0  0  0  0  0  0  0  0  0
   11.5610  -16.7535   29.3440 O   0  0  0  0  0  0  0  0  0  0  0  0
    8.9812  -13.5811   28.1857 O   0  0  0  0  0  0  0  0  0  0  0  0
  2  1  1  0
  3  2  2  0
  4  2  1  0
  5  6  1  0
  5  4  1  0
  7  6  1  0
  8  7  1  0
  8  9  1  1
 10 12  1  0
 10  8  1  0
 11 10  2  0
 12 16  1  0
 13 12  1  0
 13 14  1  0
 14 15  1  0
 16 15  1  0
 16 17  1  1
 17 18  2  0
 19 17  1  0
 20 19  1  0
 20 21  1  1
 22 21  1  0
 22 23  2  0
 24 20  1  0
 24 25  1  0
 26 22  1  0
 27 24  2  0
M  END
$$$$
