RPD.pdb
     RDKit          3D

 27 27  0  0  1  0  0  0  0  0999 V2000
    8.6025  -14.1927   16.2767 N   0  0  0  0  0  0  0  0  0  0  0  0
    8.3972  -14.1043   17.6711 C   0  0  0  0  0  0  0  0  0  0  0  0
    8.0989  -12.9239   18.1545 N   0  0  0  0  0  0  0  0  0  0  0  0
    8.5072  -15.2087   18.5468 N   0  0  0  0  0  0  0  0  0  0  0  0
    8.3850  -14.9543   19.9851 C   0  0  0  0  0  0  0  0  0  0  0  0
    7.1804  -15.6417   20.5183 C   0  0  0  0  0  0  0  0  0  0  0  0
    7.0423  -15.4995   21.9895 C   0  0  0  0  0  0  0  0  0  0  0  0
    6.8173  -14.1408   22.5361 C   0  0  2  0  0  0  0  0  0  0  0  0
    6.8837  -13.0710   21.5771 N   0  0  0  0  0  0  0  0  0  0  0  0
    7.9261  -13.8806   23.5271 C   0  0  0  0  0  0  0  0  0  0  0  0
    9.1242  -13.7234   23.1034 O   0  0  0  0  0  0  0  0  0  0  0  0
    7.9410  -12.7773   19.1711 N   0  0  0  0  0  0  0  0  0  0  0  0
    7.7219  -13.7965   24.9193 C   0  0  0  0  0  0  0  0  0  0  0  0
    6.4802  -13.9091   25.6298 C   0  0  0  0  0  0  0  0  0  0  0  0
    6.5833  -12.9593   26.7957 C   0  0  0  0  0  0  0  0  0  0  0  0
    8.0396  -12.5900   26.8681 C   0  0  1  0  0  0  0  0  0  0  0  0
    8.7709  -13.5478   25.9077 C   0  0  0  0  0  0  0  0  0  0  0  0
    9.0263  -14.7659   26.7189 O   0  0  0  0  0  0  0  0  0  0  0  0
    8.0888  -15.5062   27.1298 N   0  0  0  0  0  0  0  0  0  0  0  0
   10.3386  -15.1836   27.0896 C   0  0  1  0  0  0  0  0  0  0  0  0
   10.6205  -16.4503   27.6739 C   0  0  0  0  0  0  0  0  0  0  0  0
   11.9263  -17.0856   27.2514 C   0  0  0  0  0  0  0  0  0  0  0  0
   11.9726  -17.2325   25.7558 O   0  0  0  0  0  0  0  0  0  0  0  0
   12.8818  -16.7157   25.0589 C   0  0  0  0  0  0  0  0  0  0  0  0
   10.5770  -16.3355   29.1552 O   0  0  0  0  0  0  0  0  0  0  0  0
   10.4957  -15.0999   29.7596 O   0  0  0  0  0  0  0  0  0  0  0  0
   10.9926  -17.9568   25.0532 O   0  0  0  0  0  0  0  0  0  0  0  0
  2  1  1  0
  3  2  2  0
  4  2  1  0
  5  6  1  0
  5  4  1  0
  7  6  1  0
  8  7  1  0
  8  9  1  6
 10 12  1  0
 10  8  1  0
 11 10  2  0
 12 16  1  0
 13 12  1  0
 13 14  1  0
 14 15  1  0
 16 15  1  0
 16 17  1  1
 17 18  2  0
 19 17  1  0
 20 19  1  0
 20 21  1  1
 22 21  1  0
 22 23  2  0
 24 20  1  0
 24 25  1  0
 26 22  1  0
 27 24  2  0
M  END
$$$$
