RPD.pdb
     RDKit          3D

 27 27  0  0  1  0  0  0  0  0999 V2000
    7.5542  -12.7062   17.5384 N   0  0  0  0  0  0  0  0  0  0  0  0
    7.9633  -14.0320   17.2755 C   0  0  0  0  0  0  0  0  0  0  0  0
    7.8601  -14.4520   16.0390 N   0  0  0  0  0  0  0  0  0  0  0  0
    8.4585  -14.9067   18.2698 N   0  0  0  0  0  0  0  0  0  0  0  0
    8.4309  -14.4447   19.6605 C   0  0  0  0  0  0  0  0  0  0  0  0
    7.1721  -14.8874   20.3141 C   0  0  0  0  0  0  0  0  0  0  0  0
    7.1108  -14.5190   21.7508 C   0  0  0  0  0  0  0  0  0  0  0  0
    7.7490  -13.2486   22.1682 C   0  0  2  0  0  0  0  0  0  0  0  0
    8.7002  -12.7013   21.2385 N   0  0  0  0  0  0  0  0  0  0  0  0
    8.5232  -13.5437   23.4302 C   0  0  0  0  0  0  0  0  0  0  0  0
    9.7652  -13.8446   23.3503 O   0  0  0  0  0  0  0  0  0  0  0  0
    8.1762  -15.4018   15.7597 N   0  0  0  0  0  0  0  0  0  0  0  0
    7.9538  -13.5071   24.7192 C   0  0  0  0  0  0  0  0  0  0  0  0
    6.5680  -13.3552   25.0595 C   0  0  0  0  0  0  0  0  0  0  0  0
    6.5405  -12.5434   26.3291 C   0  0  0  0  0  0  0  0  0  0  0  0
    7.9595  -12.5543   26.8279 C   0  0  1  0  0  0  0  0  0  0  0  0
    8.7049  -13.5959   25.9711 C   0  0  0  0  0  0  0  0  0  0  0  0
    8.4432  -14.8918   26.6486 O   0  0  0  0  0  0  0  0  0  0  0  0
    7.4044  -15.5720   26.4160 N   0  0  0  0  0  0  0  0  0  0  0  0
    9.3392  -15.4568   27.6036 C   0  0  1  0  0  0  0  0  0  0  0  0
    9.8915  -16.7627   27.4813 C   0  0  0  0  0  0  0  0  0  0  0  0
   11.1985  -16.8482   26.7253 C   0  0  0  0  0  0  0  0  0  0  0  0
   10.9758  -17.4599   25.3700 O   0  0  0  0  0  0  0  0  0  0  0  0
    9.8528  -17.8897   25.0044 C   0  0  0  0  0  0  0  0  0  0  0  0
   10.0552  -17.3619   28.8317 O   0  0  0  0  0  0  0  0  0  0  0  0
   10.4792  -16.5918   29.8926 O   0  0  0  0  0  0  0  0  0  0  0  0
   12.0197  -17.5881   24.4359 O   0  0  0  0  0  0  0  0  0  0  0  0
  2  1  1  0
  3  2  2  0
  4  2  1  0
  5  6  1  0
  5  4  1  0
  7  6  1  0
  8  7  1  0
  8  9  1  6
 10 12  1  0
 10  8  1  0
 11 10  2  0
 12 16  1  0
 13 12  1  0
 13 14  1  0
 14 15  1  0
 16 15  1  0
 16 17  1  1
 17 18  2  0
 19 17  1  0
 20 19  1  0
 20 21  1  1
 22 21  1  0
 22 23  2  0
 24 20  1  0
 24 25  1  0
 26 22  1  0
 27 24  2  0
M  END
$$$$
