RPD.pdb
     RDKit          3D

 27 27  0  0  1  0  0  0  0  0999 V2000
    9.1365  -15.5789   17.2281 N   0  0  0  0  0  0  0  0  0  0  0  0
    8.4416  -14.3597   17.3865 C   0  0  0  0  0  0  0  0  0  0  0  0
    7.8789  -13.8530   16.3176 N   0  0  0  0  0  0  0  0  0  0  0  0
    8.3392  -13.6753   18.6192 N   0  0  0  0  0  0  0  0  0  0  0  0
    7.0580  -13.7350   19.3287 C   0  0  0  0  0  0  0  0  0  0  0  0
    7.1803  -14.6183   20.5172 C   0  0  0  0  0  0  0  0  0  0  0  0
    7.1127  -13.8705   21.7978 C   0  0  0  0  0  0  0  0  0  0  0  0
    8.3336  -13.1654   22.2536 C   0  0  2  0  0  0  0  0  0  0  0  0
    9.4839  -13.3100   21.4024 N   0  0  0  0  0  0  0  0  0  0  0  0
    8.7187  -13.7739   23.5804 C   0  0  0  0  0  0  0  0  0  0  0  0
    9.7949  -14.4621   23.6680 O   0  0  0  0  0  0  0  0  0  0  0  0
    7.3244  -12.9751   16.3600 N   0  0  0  0  0  0  0  0  0  0  0  0
    7.9530  -13.6285   24.7550 C   0  0  0  0  0  0  0  0  0  0  0  0
    6.5975  -13.1703   24.8647 C   0  0  0  0  0  0  0  0  0  0  0  0
    6.5267  -12.3932   26.1542 C   0  0  0  0  0  0  0  0  0  0  0  0
    7.7970  -12.7349   26.8838 C   0  0  1  0  0  0  0  0  0  0  0  0
    8.4323  -13.9055   26.1088 C   0  0  0  0  0  0  0  0  0  0  0  0
    7.7746  -15.1181   26.6600 O   0  0  0  0  0  0  0  0  0  0  0  0
    7.0969  -15.0873   27.7256 N   0  0  0  0  0  0  0  0  0  0  0  0
    7.8608  -16.3950   26.0304 C   0  0  2  0  0  0  0  0  0  0  0  0
    8.9582  -17.2832   26.2100 C   0  0  0  0  0  0  0  0  0  0  0  0
   10.1706  -17.0015   25.3509 C   0  0  0  0  0  0  0  0  0  0  0  0
   11.2252  -18.0481   25.5814 O   0  0  0  0  0  0  0  0  0  0  0  0
   12.3489  -18.0028   25.0207 C   0  0  0  0  0  0  0  0  0  0  0  0
    9.3543  -17.3010   27.6426 O   0  0  0  0  0  0  0  0  0  0  0  0
    9.0511  -18.3833   28.4394 O   0  0  0  0  0  0  0  0  0  0  0  0
   11.0066  -19.1419   26.4385 O   0  0  0  0  0  0  0  0  0  0  0  0
  2  1  1  0
  3  2  2  0
  4  2  1  0
  5  6  1  0
  5  4  1  0
  7  6  1  0
  8  7  1  0
  8  9  1  6
 10 12  1  0
 10  8  1  0
 11 10  2  0
 12 16  1  0
 13 12  1  0
 13 14  1  0
 14 15  1  0
 16 15  1  0
 16 17  1  1
 17 18  2  0
 19 17  1  0
 20 19  1  0
 20 21  1  6
 22 21  1  0
 22 23  2  0
 24 20  1  0
 24 25  1  0
 26 22  1  0
 27 24  2  0
M  END
$$$$
