RPD.pdb
     RDKit          3D

 27 27  0  0  1  0  0  0  0  0999 V2000
    8.4438  -15.6284   16.7088 N   0  0  0  0  0  0  0  0  0  0  0  0
    7.8616  -14.3826   16.3874 C   0  0  0  0  0  0  0  0  0  0  0  0
    8.1866  -13.8544   15.2336 N   0  0  0  0  0  0  0  0  0  0  0  0
    6.9715  -13.6942   17.2433 N   0  0  0  0  0  0  0  0  0  0  0  0
    7.5131  -13.1372   18.4862 C   0  0  0  0  0  0  0  0  0  0  0  0
    8.3081  -14.1713   19.1978 C   0  0  0  0  0  0  0  0  0  0  0  0
    8.1638  -14.0920   20.6731 C   0  0  0  0  0  0  0  0  0  0  0  0
    9.2105  -13.3700   21.4338 C   0  0  2  0  0  0  0  0  0  0  0  0
   10.5110  -13.3424   20.8202 N   0  0  0  0  0  0  0  0  0  0  0  0
    9.3831  -14.1037   22.7418 C   0  0  0  0  0  0  0  0  0  0  0  0
   10.4645  -14.7535   22.9605 O   0  0  0  0  0  0  0  0  0  0  0  0
    7.8438  -12.9151   14.9503 N   0  0  0  0  0  0  0  0  0  0  0  0
    8.4089  -14.1184   23.7605 C   0  0  0  0  0  0  0  0  0  0  0  0
    7.0454  -13.6794   23.6736 C   0  0  0  0  0  0  0  0  0  0  0  0
    6.7162  -13.0836   25.0184 C   0  0  0  0  0  0  0  0  0  0  0  0
    7.8370  -13.5203   25.9215 C   0  0  1  0  0  0  0  0  0  0  0  0
    8.6350  -14.5754   25.1314 C   0  0  0  0  0  0  0  0  0  0  0  0
    7.9175  -15.8515   25.3836 O   0  0  0  0  0  0  0  0  0  0  0  0
    7.0488  -16.3013   24.5842 N   0  0  0  0  0  0  0  0  0  0  0  0
    8.1555  -16.6543   26.5381 C   0  0  1  0  0  0  0  0  0  0  0  0
    9.1718  -17.6484   26.6038 C   0  0  0  0  0  0  0  0  0  0  0  0
   10.4354  -17.3389   25.8326 C   0  0  0  0  0  0  0  0  0  0  0  0
   10.4979  -18.1714   24.5821 O   0  0  0  0  0  0  0  0  0  0  0  0
    9.5631  -18.9382   24.2394 C   0  0  0  0  0  0  0  0  0  0  0  0
    9.5085  -17.9222   28.0254 O   0  0  0  0  0  0  0  0  0  0  0  0
    9.4200  -19.2004   28.5322 O   0  0  0  0  0  0  0  0  0  0  0  0
   11.6144  -18.1388   23.7271 O   0  0  0  0  0  0  0  0  0  0  0  0
  2  1  1  0
  3  2  2  0
  4  2  1  0
  5  6  1  0
  5  4  1  0
  7  6  1  0
  8  7  1  0
  8  9  1  6
 10 12  1  0
 10  8  1  0
 11 10  2  0
 12 16  1  0
 13 12  1  0
 13 14  1  0
 14 15  1  0
 16 15  1  0
 16 17  1  6
 17 18  2  0
 19 17  1  0
 20 19  1  0
 20 21  1  1
 22 21  1  0
 22 23  2  0
 24 20  1  0
 24 25  1  0
 26 22  1  0
 27 24  2  0
M  END
$$$$
