RPD.pdb
     RDKit          3D

 27 27  0  0  1  0  0  0  0  0999 V2000
    6.1743  -20.7302   18.2404 N   0  0  0  0  0  0  0  0  0  0  0  0
    7.5852  -20.7354   18.3016 C   0  0  0  0  0  0  0  0  0  0  0  0
    8.1318  -21.2480   19.3760 N   0  0  0  0  0  0  0  0  0  0  0  0
    8.4117  -20.2139   17.2801 N   0  0  0  0  0  0  0  0  0  0  0  0
    8.9573  -18.8661   17.4649 C   0  0  0  0  0  0  0  0  0  0  0  0
    8.3875  -17.9473   16.4456 C   0  0  0  0  0  0  0  0  0  0  0  0
    7.9611  -16.6464   17.0198 C   0  0  0  0  0  0  0  0  0  0  0  0
    8.8669  -15.4856   16.8538 C   0  0  2  0  0  0  0  0  0  0  0  0
   10.0127  -15.7120   16.0144 N   0  0  0  0  0  0  0  0  0  0  0  0
    9.4122  -15.1589   18.2231 C   0  0  0  0  0  0  0  0  0  0  0  0
   10.6622  -15.3113   18.4550 O   0  0  0  0  0  0  0  0  0  0  0  0
    9.1619  -21.2500   19.5134 N   0  0  0  0  0  0  0  0  0  0  0  0
    8.6158  -14.6853   19.2854 C   0  0  0  0  0  0  0  0  0  0  0  0
    7.1958  -14.4783   19.2896 C   0  0  0  0  0  0  0  0  0  0  0  0
    6.9571  -13.2665   20.1536 C   0  0  0  0  0  0  0  0  0  0  0  0
    8.2588  -13.0395   20.8724 C   0  0  2  0  0  0  0  0  0  0  0  0
    9.1201  -14.2878   20.5996 C   0  0  0  0  0  0  0  0  0  0  0  0
    8.7017  -15.2637   21.6386 O   0  0  0  0  0  0  0  0  0  0  0  0
    7.6590  -15.9663   21.5172 N   0  0  0  0  0  0  0  0  0  0  0  0
    9.4416  -15.4755   22.8394 C   0  0  1  0  0  0  0  0  0  0  0  0
   10.3440  -16.5609   23.0212 C   0  0  0  0  0  0  0  0  0  0  0  0
   11.4076  -16.7081   21.9561 C   0  0  0  0  0  0  0  0  0  0  0  0
   12.3370  -17.8380   22.3027 O   0  0  0  0  0  0  0  0  0  0  0  0
   13.3316  -18.1303   21.5924 C   0  0  0  0  0  0  0  0  0  0  0  0
   10.9864  -16.4551   24.3574 O   0  0  0  0  0  0  0  0  0  0  0  0
   11.5881  -15.2807   24.7540 O   0  0  0  0  0  0  0  0  0  0  0  0
   12.1384  -18.6350   23.4447 O   0  0  0  0  0  0  0  0  0  0  0  0
  2  1  1  0
  3  2  2  0
  4  2  1  0
  5  6  1  0
  5  4  1  0
  7  6  1  0
  8  7  1  0
  8  9  1  6
 10 12  1  0
 10  8  1  0
 11 10  2  0
 12 16  1  0
 13 12  1  0
 13 14  1  0
 14 15  1  0
 16 15  1  0
 16 17  1  1
 17 18  2  0
 19 17  1  0
 20 19  1  0
 20 21  1  1
 22 21  1  0
 22 23  2  0
 24 20  1  0
 24 25  1  0
 26 22  1  0
 27 24  2  0
M  END
$$$$
