RPD.pdb
     RDKit          3D

 27 27  0  0  1  0  0  0  0  0999 V2000
    7.3112  -19.1305   17.4704 N   0  0  0  0  0  0  0  0  0  0  0  0
    7.5397  -17.7371   17.4490 C   0  0  0  0  0  0  0  0  0  0  0  0
    7.1894  -17.0937   16.3630 N   0  0  0  0  0  0  0  0  0  0  0  0
    8.1257  -17.0267   18.5216 N   0  0  0  0  0  0  0  0  0  0  0  0
    7.2301  -16.3291   19.4487 C   0  0  0  0  0  0  0  0  0  0  0  0
    7.8148  -15.0153   19.8224 C   0  0  0  0  0  0  0  0  0  0  0  0
    6.9774  -14.2701   20.7956 C   0  0  0  0  0  0  0  0  0  0  0  0
    7.4814  -12.9666   21.2878 C   0  0  2  0  0  0  0  0  0  0  0  0
    8.3935  -12.2857   20.4086 N   0  0  0  0  0  0  0  0  0  0  0  0
    8.2552  -13.2481   22.5532 C   0  0  0  0  0  0  0  0  0  0  0  0
    9.5272  -13.3836   22.4955 O   0  0  0  0  0  0  0  0  0  0  0  0
    7.3829  -16.0794   16.2462 N   0  0  0  0  0  0  0  0  0  0  0  0
    7.6538  -13.3727   23.8220 C   0  0  0  0  0  0  0  0  0  0  0  0
    6.2800  -13.1407   24.1656 C   0  0  0  0  0  0  0  0  0  0  0  0
    6.2941  -12.5571   25.5552 C   0  0  0  0  0  0  0  0  0  0  0  0
    7.6897  -12.7964   26.0628 C   0  0  1  0  0  0  0  0  0  0  0  0
    8.3548  -13.7480   25.0496 C   0  0  0  0  0  0  0  0  0  0  0  0
    7.9474  -15.1066   25.4913 O   0  0  0  0  0  0  0  0  0  0  0  0
    7.0090  -15.7402   24.9312 N   0  0  0  0  0  0  0  0  0  0  0  0
    8.5814  -15.7880   26.5720 C   0  0  1  0  0  0  0  0  0  0  0  0
    9.6357  -16.7273   26.3937 C   0  0  0  0  0  0  0  0  0  0  0  0
   10.7335  -16.3008   25.4451 C   0  0  0  0  0  0  0  0  0  0  0  0
   10.8894  -17.3115   24.3428 O   0  0  0  0  0  0  0  0  0  0  0  0
   10.2464  -18.3911   24.3269 C   0  0  0  0  0  0  0  0  0  0  0  0
   10.2230  -17.0722   27.7148 O   0  0  0  0  0  0  0  0  0  0  0  0
   10.1382  -18.3572   28.2047 O   0  0  0  0  0  0  0  0  0  0  0  0
   11.7715  -17.1025   23.2673 O   0  0  0  0  0  0  0  0  0  0  0  0
  2  1  1  0
  3  2  2  0
  4  2  1  0
  5  6  1  0
  5  4  1  0
  7  6  1  0
  8  7  1  0
  8  9  1  6
 10 12  1  0
 10  8  1  0
 11 10  2  0
 12 16  1  0
 13 12  1  0
 13 14  1  0
 14 15  1  0
 16 15  1  0
 16 17  1  1
 17 18  2  0
 19 17  1  0
 20 19  1  0
 20 21  1  1
 22 21  1  0
 22 23  2  0
 24 20  1  0
 24 25  1  0
 26 22  1  0
 27 24  2  0
M  END
$$$$
