RPD.pdb
     RDKit          3D

 27 27  0  0  1  0  0  0  0  0999 V2000
    9.5384  -20.5444   15.8354 N   0  0  0  0  0  0  0  0  0  0  0  0
   10.5663  -19.8253   16.4840 C   0  0  0  0  0  0  0  0  0  0  0  0
   11.7320  -20.4144   16.5845 N   0  0  0  0  0  0  0  0  0  0  0  0
   10.3905  -18.5310   17.0249 N   0  0  0  0  0  0  0  0  0  0  0  0
    9.0213  -18.0865   17.3003 C   0  0  0  0  0  0  0  0  0  0  0  0
    8.3756  -17.6324   16.0415 C   0  0  0  0  0  0  0  0  0  0  0  0
    7.5053  -16.4460   16.2381 C   0  0  0  0  0  0  0  0  0  0  0  0
    8.0530  -15.1175   15.8768 C   0  0  2  0  0  0  0  0  0  0  0  0
    8.8169  -15.0753   14.6589 N   0  0  0  0  0  0  0  0  0  0  0  0
    9.0060  -14.7243   16.9796 C   0  0  0  0  0  0  0  0  0  0  0  0
   10.2649  -14.7065   16.7462 O   0  0  0  0  0  0  0  0  0  0  0  0
   12.5298  -19.9607   17.0719 N   0  0  0  0  0  0  0  0  0  0  0  0
    8.5893  -14.3664   18.2778 C   0  0  0  0  0  0  0  0  0  0  0  0
    7.2646  -14.4447   18.8241 C   0  0  0  0  0  0  0  0  0  0  0  0
    7.1289  -13.2635   19.7505 C   0  0  0  0  0  0  0  0  0  0  0  0
    8.5306  -12.7485   19.9311 C   0  0  2  0  0  0  0  0  0  0  0  0
    9.4589  -13.8133   19.3156 C   0  0  0  0  0  0  0  0  0  0  0  0
    9.6676  -14.8009   20.4057 O   0  0  0  0  0  0  0  0  0  0  0  0
    8.8823  -15.7733   20.5885 N   0  0  0  0  0  0  0  0  0  0  0  0
   10.7613  -14.7222   21.3177 C   0  0  1  0  0  0  0  0  0  0  0  0
   11.3927  -15.8658   21.8825 C   0  0  0  0  0  0  0  0  0  0  0  0
   12.8776  -15.7307   22.1354 C   0  0  0  0  0  0  0  0  0  0  0  0
   13.4058  -16.9700   22.8030 O   0  0  0  0  0  0  0  0  0  0  0  0
   13.3387  -18.1030   22.2634 C   0  0  0  0  0  0  0  0  0  0  0  0
   10.7032  -16.2421   23.1444 O   0  0  0  0  0  0  0  0  0  0  0  0
   10.8047  -17.5226   23.6427 O   0  0  0  0  0  0  0  0  0  0  0  0
   14.0025  -16.9270   24.0762 O   0  0  0  0  0  0  0  0  0  0  0  0
  2  1  1  0
  3  2  2  0
  4  2  1  0
  5  6  1  0
  5  4  1  0
  7  6  1  0
  8  7  1  0
  8  9  1  6
 10 12  1  0
 10  8  1  0
 11 10  2  0
 12 16  1  0
 13 12  1  0
 13 14  1  0
 14 15  1  0
 16 15  1  0
 16 17  1  1
 17 18  2  0
 19 17  1  0
 20 19  1  0
 20 21  1  1
 22 21  1  0
 22 23  2  0
 24 20  1  0
 24 25  1  0
 26 22  1  0
 27 24  2  0
M  END
$$$$
