RPD.pdb
     RDKit          3D

 27 27  0  0  1  0  0  0  0  0999 V2000
    8.4392  -12.9303   17.4555 N   0  0  0  0  0  0  0  0  0  0  0  0
    8.4349  -14.3413   17.3951 C   0  0  0  0  0  0  0  0  0  0  0  0
    7.8315  -14.8906   16.3705 N   0  0  0  0  0  0  0  0  0  0  0  0
    9.0322  -15.1653   18.3764 N   0  0  0  0  0  0  0  0  0  0  0  0
    8.7844  -14.8399   19.7839 C   0  0  0  0  0  0  0  0  0  0  0  0
    7.3218  -14.7983   20.0420 C   0  0  0  0  0  0  0  0  0  0  0  0
    6.9973  -14.5996   21.4769 C   0  0  0  0  0  0  0  0  0  0  0  0
    7.2015  -13.2498   22.0528 C   0  0  2  0  0  0  0  0  0  0  0  0
    7.7786  -12.2794   21.1618 N   0  0  0  0  0  0  0  0  0  0  0  0
    8.1817  -13.4049   23.1904 C   0  0  0  0  0  0  0  0  0  0  0  0
    9.4383  -13.3797   22.9457 O   0  0  0  0  0  0  0  0  0  0  0  0
    7.7780  -15.9227   16.2609 N   0  0  0  0  0  0  0  0  0  0  0  0
    7.7934  -13.5783   24.5344 C   0  0  0  0  0  0  0  0  0  0  0  0
    6.4618  -13.7286   25.0480 C   0  0  0  0  0  0  0  0  0  0  0  0
    6.4542  -13.0358   26.3866 C   0  0  0  0  0  0  0  0  0  0  0  0
    7.9043  -12.8043   26.7123 C   0  0  1  0  0  0  0  0  0  0  0  0
    8.7087  -13.6111   25.6748 C   0  0  0  0  0  0  0  0  0  0  0  0
    8.7858  -14.9804   26.2457 O   0  0  0  0  0  0  0  0  0  0  0  0
    7.7635  -15.7110   26.3756 N   0  0  0  0  0  0  0  0  0  0  0  0
   10.0106  -15.5640   26.6855 C   0  0  1  0  0  0  0  0  0  0  0  0
   10.1445  -16.9399   27.0236 C   0  0  0  0  0  0  0  0  0  0  0  0
   11.4084  -17.6103   26.5334 C   0  0  0  0  0  0  0  0  0  0  0  0
   11.5141  -17.4897   25.0384 O   0  0  0  0  0  0  0  0  0  0  0  0
   10.5164  -17.2511   24.3125 C   0  0  0  0  0  0  0  0  0  0  0  0
   10.0315  -17.1033   28.4967 O   0  0  0  0  0  0  0  0  0  0  0  0
    9.9645  -18.3595   29.0587 O   0  0  0  0  0  0  0  0  0  0  0  0
   12.7419  -17.6427   24.3692 O   0  0  0  0  0  0  0  0  0  0  0  0
  2  1  1  0
  3  2  2  0
  4  2  1  0
  5  6  1  0
  5  4  1  0
  7  6  1  0
  8  7  1  0
  8  9  1  6
 10 12  1  0
 10  8  1  0
 11 10  2  0
 12 16  1  0
 13 12  1  0
 13 14  1  0
 14 15  1  0
 16 15  1  0
 16 17  1  1
 17 18  2  0
 19 17  1  0
 20 19  1  0
 20 21  1  1
 22 21  1  0
 22 23  2  0
 24 20  1  0
 24 25  1  0
 26 22  1  0
 27 24  2  0
M  END
$$$$
