HFG.pdb
     RDKit          3D

 26 27  0  0  1  0  0  0  0  0999 V2000
   26.9805  -18.9816  -13.4251 N   0  0  0  0  0  0  0  0  0  0  0  0
   26.8766  -20.4567  -13.4240 C   0  0  1  0  0  0  0  0  0  0  0  0
   28.0903  -21.0239  -14.0755 C   0  0  0  0  0  0  0  0  0  0  0  0
   28.2053  -20.5582  -15.4666 C   0  0  0  0  0  0  0  0  0  0  0  0
   27.3452  -19.7101  -16.1101 C   0  0  0  0  0  0  0  0  0  0  0  0
   27.8283  -19.5723  -17.3793 N   0  0  0  0  0  0  0  0  0  0  0  0
   28.9357  -20.2959  -17.5294 C   0  0  0  0  0  0  0  0  0  0  0  0
   29.1538  -20.8935  -16.3506 N   0  0  0  0  0  0  0  0  0  0  0  0
   26.7495  -20.9470  -12.0307 C   0  0  0  0  0  0  0  0  0  0  0  0
   26.9683  -22.1345  -11.6973 O   0  0  0  0  0  0  0  0  0  0  0  0
   26.3595  -20.0825  -10.9422 N   0  0  0  0  0  0  0  0  0  0  0  0
   25.5119  -20.5493   -9.8628 C   0  0  1  0  0  0  0  0  0  0  0  0
   25.6209  -19.5866   -8.7004 C   0  0  0  0  0  0  0  0  0  0  0  0
   26.7902  -19.8611   -7.8531 C   0  0  0  0  0  0  0  0  0  0  0  0
   26.6253  -20.2210   -6.5378 C   0  0  0  0  0  0  0  0  0  0  0  0
   27.7217  -20.4869   -5.7123 C   0  0  0  0  0  0  0  0  0  0  0  0
   28.9879  -20.3860   -6.2278 C   0  0  0  0  0  0  0  0  0  0  0  0
   29.1662  -20.0227   -7.5571 C   0  0  0  0  0  0  0  0  0  0  0  0
   28.0608  -19.7585   -8.3748 C   0  0  0  0  0  0  0  0  0  0  0  0
   24.0821  -20.5857  -10.2761 C   0  0  0  0  0  0  0  0  0  0  0  0
   23.1745  -21.0457   -9.5295 O   0  0  0  0  0  0  0  0  0  0  0  0
   23.7155  -20.0938  -11.5394 N   0  0  0  0  0  0  0  0  0  0  0  0
   22.3400  -19.9981  -11.9215 C   0  0  0  0  0  0  0  0  0  0  0  0
   21.9287  -21.1437  -12.7567 C   0  0  0  0  0  0  0  0  0  0  0  0
   22.8192  -22.1183  -13.1735 O   0  0  0  0  0  0  0  0  0  0  0  0
   20.7245  -21.2316  -13.0984 O   0  0  0  0  0  0  0  0  0  0  0  0
  2  9  1  0
  2  1  1  1
  3  2  1  0
  4  3  1  0
  5  4  2  0
  6  5  1  0
  6  7  1  0
  7  8  2  0
  8  4  1  0
  9 11  1  0
 10  9  2  0
 11 12  1  0
 12 13  1  1
 13 14  1  0
 14 19  1  0
 15 14  2  0
 15 16  1  0
 16 17  2  0
 17 18  1  0
 19 18  2  0
 20 21  2  0
 20 12  1  0
 22 20  1  0
 23 22  1  0
 24 23  1  0
 25 24  1  0
 26 24  2  0
M  END
$$$$
