HFG.pdb
     RDKit          3D

 26 27  0  0  1  0  0  0  0  0999 V2000
   25.3759  -11.5054  -20.0502 N   0  0  0  0  0  0  0  0  0  0  0  0
   24.7334  -10.2303  -20.4348 C   0  0  1  0  0  0  0  0  0  0  0  0
   23.6268  -10.5191  -21.3894 C   0  0  0  0  0  0  0  0  0  0  0  0
   24.1512  -10.7638  -22.7423 C   0  0  0  0  0  0  0  0  0  0  0  0
   23.6646  -11.6670  -23.6481 C   0  0  0  0  0  0  0  0  0  0  0  0
   24.4637  -11.5661  -24.7501 N   0  0  0  0  0  0  0  0  0  0  0  0
   25.4060  -10.6470  -24.5504 C   0  0  0  0  0  0  0  0  0  0  0  0
   25.2019  -10.1649  -23.3174 N   0  0  0  0  0  0  0  0  0  0  0  0
   24.2193   -9.5455  -19.2247 C   0  0  0  0  0  0  0  0  0  0  0  0
   23.4452  -10.0895  -18.4038 O   0  0  0  0  0  0  0  0  0  0  0  0
   24.5768   -8.1853  -18.8986 N   0  0  0  0  0  0  0  0  0  0  0  0
   24.0294   -7.5094  -17.7388 C   0  0  1  0  0  0  0  0  0  0  0  0
   25.1615   -7.1401  -16.8050 C   0  0  0  0  0  0  0  0  0  0  0  0
   25.8180   -8.3208  -16.2256 C   0  0  0  0  0  0  0  0  0  0  0  0
   27.0504   -8.7226  -16.6798 C   0  0  0  0  0  0  0  0  0  0  0  0
   27.6946   -9.8420  -16.1446 C   0  0  0  0  0  0  0  0  0  0  0  0
   27.0820  -10.5528  -15.1452 C   0  0  0  0  0  0  0  0  0  0  0  0
   25.8352  -10.1551  -14.6783 C   0  0  0  0  0  0  0  0  0  0  0  0
   25.1992   -9.0324  -15.2216 C   0  0  0  0  0  0  0  0  0  0  0  0
   23.3424   -6.2462  -18.1243 C   0  0  0  0  0  0  0  0  0  0  0  0
   23.7100   -5.5513  -19.1116 O   0  0  0  0  0  0  0  0  0  0  0  0
   22.2443   -5.7995  -17.3714 N   0  0  0  0  0  0  0  0  0  0  0  0
   21.5291   -4.6172  -17.7424 C   0  0  0  0  0  0  0  0  0  0  0  0
   22.4107   -3.4333  -17.7587 C   0  0  0  0  0  0  0  0  0  0  0  0
   23.4077   -3.2351  -16.8190 O   0  0  0  0  0  0  0  0  0  0  0  0
   22.2449   -2.5778  -18.6616 O   0  0  0  0  0  0  0  0  0  0  0  0
  2  9  1  0
  2  1  1  1
  3  2  1  0
  4  3  1  0
  5  4  2  0
  6  5  1  0
  6  7  1  0
  7  8  2  0
  8  4  1  0
  9 11  1  0
 10  9  2  0
 11 12  1  0
 12 13  1  1
 13 14  1  0
 14 19  1  0
 15 14  2  0
 15 16  1  0
 16 17  2  0
 17 18  1  0
 19 18  2  0
 20 21  2  0
 20 12  1  0
 22 20  1  0
 23 22  1  0
 24 23  1  0
 25 24  1  0
 26 24  2  0
M  END
$$$$
