HFG.pdb
     RDKit          3D

 26 27  0  0  1  0  0  0  0  0999 V2000
   29.3833  -37.6187   -7.4490 N   0  0  0  0  0  0  0  0  0  0  0  0
   28.6174  -36.9605   -6.3688 C   0  0  1  0  0  0  0  0  0  0  0  0
   27.5383  -37.8819   -5.9152 C   0  0  0  0  0  0  0  0  0  0  0  0
   26.4985  -38.0205   -6.9472 C   0  0  0  0  0  0  0  0  0  0  0  0
   25.6544  -37.0355   -7.3833 C   0  0  0  0  0  0  0  0  0  0  0  0
   24.8521  -37.6136   -8.3242 N   0  0  0  0  0  0  0  0  0  0  0  0
   25.1729  -38.8970   -8.4742 C   0  0  0  0  0  0  0  0  0  0  0  0
   26.1819  -39.1313   -7.6250 N   0  0  0  0  0  0  0  0  0  0  0  0
   29.5262  -36.6220   -5.2475 C   0  0  0  0  0  0  0  0  0  0  0  0
   30.4177  -37.3956   -4.8279 O   0  0  0  0  0  0  0  0  0  0  0  0
   29.4505  -35.3614   -4.5480 N   0  0  0  0  0  0  0  0  0  0  0  0
   30.3839  -35.0163   -3.4938 C   0  0  1  0  0  0  0  0  0  0  0  0
   31.1179  -33.7511   -3.8814 C   0  0  0  0  0  0  0  0  0  0  0  0
   32.0461  -33.9624   -5.0014 C   0  0  0  0  0  0  0  0  0  0  0  0
   31.7957  -33.3952   -6.2271 C   0  0  0  0  0  0  0  0  0  0  0  0
   32.6634  -33.5818   -7.3072 C   0  0  0  0  0  0  0  0  0  0  0  0
   33.7879  -34.3473   -7.1379 C   0  0  0  0  0  0  0  0  0  0  0  0
   34.0509  -34.9258   -5.9023 C   0  0  0  0  0  0  0  0  0  0  0  0
   33.1749  -34.7323   -4.8274 C   0  0  0  0  0  0  0  0  0  0  0  0
   29.6752  -34.7433   -2.2132 C   0  0  0  0  0  0  0  0  0  0  0  0
   28.6397  -34.0242   -2.1541 O   0  0  0  0  0  0  0  0  0  0  0  0
   30.1651  -35.2994   -1.0204 N   0  0  0  0  0  0  0  0  0  0  0  0
   29.5918  -34.9525    0.2437 C   0  0  0  0  0  0  0  0  0  0  0  0
   30.3451  -35.5513    1.3630 C   0  0  0  0  0  0  0  0  0  0  0  0
   30.0984  -35.2242    2.6854 O   0  0  0  0  0  0  0  0  0  0  0  0
   31.2421  -36.3882    1.0990 O   0  0  0  0  0  0  0  0  0  0  0  0
  2  9  1  0
  2  1  1  6
  3  2  1  0
  4  3  1  0
  5  4  2  0
  6  5  1  0
  6  7  1  0
  7  8  2  0
  8  4  1  0
  9 11  1  0
 10  9  2  0
 11 12  1  0
 12 13  1  6
 13 14  1  0
 14 19  1  0
 15 14  2  0
 15 16  1  0
 16 17  2  0
 17 18  1  0
 19 18  2  0
 20 21  2  0
 20 12  1  0
 22 20  1  0
 23 22  1  0
 24 23  1  0
 25 24  1  0
 26 24  2  0
M  END
$$$$
