HFG.pdb
     RDKit          3D

 26 27  0  0  1  0  0  0  0  0999 V2000
   20.0385  -11.8381  -16.6220 N   0  0  0  0  0  0  0  0  0  0  0  0
   19.2860  -10.6665  -17.1198 C   0  0  1  0  0  0  0  0  0  0  0  0
   17.8627  -11.0592  -17.3182 C   0  0  0  0  0  0  0  0  0  0  0  0
   17.7286  -11.9934  -18.4472 C   0  0  0  0  0  0  0  0  0  0  0  0
   17.3649  -13.3104  -18.3693 C   0  0  0  0  0  0  0  0  0  0  0  0
   17.3904  -13.7865  -19.6484 N   0  0  0  0  0  0  0  0  0  0  0  0
   17.7516  -12.8202  -20.4900 C   0  0  0  0  0  0  0  0  0  0  0  0
   17.9552  -11.7290  -19.7404 N   0  0  0  0  0  0  0  0  0  0  0  0
   19.3941   -9.5536  -16.1465 C   0  0  0  0  0  0  0  0  0  0  0  0
   18.9952   -9.6355  -14.9618 O   0  0  0  0  0  0  0  0  0  0  0  0
   19.9738   -8.2784  -16.4955 N   0  0  0  0  0  0  0  0  0  0  0  0
   20.0824   -7.2002  -15.5325 C   0  0  1  0  0  0  0  0  0  0  0  0
   21.5439   -6.9704  -15.2143 C   0  0  0  0  0  0  0  0  0  0  0  0
   22.1709   -8.1406  -14.5835 C   0  0  0  0  0  0  0  0  0  0  0  0
   21.9281   -8.4309  -13.2632 C   0  0  0  0  0  0  0  0  0  0  0  0
   22.5128   -9.5381  -12.6412 C   0  0  0  0  0  0  0  0  0  0  0  0
   23.3459  -10.3504  -13.3658 C   0  0  0  0  0  0  0  0  0  0  0  0
   23.5984  -10.0661  -14.7022 C   0  0  0  0  0  0  0  0  0  0  0  0
   23.0075   -8.9545  -15.3150 C   0  0  0  0  0  0  0  0  0  0  0  0
   19.5430   -5.9270  -16.0842 C   0  0  0  0  0  0  0  0  0  0  0  0
   19.9742   -5.4188  -17.1560 O   0  0  0  0  0  0  0  0  0  0  0  0
   18.5175   -5.2564  -15.3982 N   0  0  0  0  0  0  0  0  0  0  0  0
   18.0517   -3.9769  -15.8378 C   0  0  0  0  0  0  0  0  0  0  0  0
   16.9010   -3.5148  -15.0370 C   0  0  0  0  0  0  0  0  0  0  0  0
   16.2837   -4.3147  -14.0907 O   0  0  0  0  0  0  0  0  0  0  0  0
   16.4708   -2.3513  -15.2262 O   0  0  0  0  0  0  0  0  0  0  0  0
  2  9  1  0
  2  1  1  1
  3  2  1  0
  4  3  1  0
  5  4  2  0
  6  5  1  0
  6  7  1  0
  7  8  2  0
  8  4  1  0
  9 11  1  0
 10  9  2  0
 11 12  1  0
 12 13  1  6
 13 14  1  0
 14 19  1  0
 15 14  2  0
 15 16  1  0
 16 17  2  0
 17 18  1  0
 19 18  2  0
 20 21  2  0
 20 12  1  0
 22 20  1  0
 23 22  1  0
 24 23  1  0
 25 24  1  0
 26 24  2  0
M  END
$$$$
