HFG.pdb
     RDKit          3D

 26 27  0  0  1  0  0  0  0  0999 V2000
   27.4992  -23.2777  -19.9027 N   0  0  0  0  0  0  0  0  0  0  0  0
   27.9460  -24.6180  -20.3394 C   0  0  1  0  0  0  0  0  0  0  0  0
   29.2852  -24.4925  -20.9798 C   0  0  0  0  0  0  0  0  0  0  0  0
   29.1870  -23.7874  -22.2677 C   0  0  0  0  0  0  0  0  0  0  0  0
   29.7235  -22.5637  -22.5636 C   0  0  0  0  0  0  0  0  0  0  0  0
   29.3697  -22.2975  -23.8548 N   0  0  0  0  0  0  0  0  0  0  0  0
   28.6473  -23.3010  -24.3484 C   0  0  0  0  0  0  0  0  0  0  0  0
   28.5438  -24.2052  -23.3656 N   0  0  0  0  0  0  0  0  0  0  0  0
   28.0044  -25.5296  -19.1718 C   0  0  0  0  0  0  0  0  0  0  0  0
   28.6038  -25.2472  -18.1087 O   0  0  0  0  0  0  0  0  0  0  0  0
   27.3675  -26.8252  -19.1731 N   0  0  0  0  0  0  0  0  0  0  0  0
   27.3213  -27.6542  -17.9847 C   0  0  1  0  0  0  0  0  0  0  0  0
   25.8960  -27.7107  -17.4797 C   0  0  0  0  0  0  0  0  0  0  0  0
   25.3969  -26.3929  -17.0614 C   0  0  0  0  0  0  0  0  0  0  0  0
   25.6242  -25.9374  -15.7857 C   0  0  0  0  0  0  0  0  0  0  0  0
   25.1596  -24.6880  -15.3647 C   0  0  0  0  0  0  0  0  0  0  0  0
   24.4624  -23.9016  -16.2448 C   0  0  0  0  0  0  0  0  0  0  0  0
   24.2268  -24.3525  -17.5378 C   0  0  0  0  0  0  0  0  0  0  0  0
   24.6967  -25.6058  -17.9488 C   0  0  0  0  0  0  0  0  0  0  0  0
   27.7416  -29.0508  -18.2839 C   0  0  0  0  0  0  0  0  0  0  0  0
   27.6247  -29.5601  -19.4327 O   0  0  0  0  0  0  0  0  0  0  0  0
   28.2895  -29.8414  -17.2608 N   0  0  0  0  0  0  0  0  0  0  0  0
   28.7122  -31.1846  -17.5145 C   0  0  0  0  0  0  0  0  0  0  0  0
   29.3108  -31.8002  -16.3138 C   0  0  0  0  0  0  0  0  0  0  0  0
   29.8061  -33.0929  -16.3087 O   0  0  0  0  0  0  0  0  0  0  0  0
   29.3699  -31.1203  -15.2607 O   0  0  0  0  0  0  0  0  0  0  0  0
  2  9  1  0
  2  1  1  1
  3  2  1  0
  4  3  1  0
  5  4  2  0
  6  5  1  0
  6  7  1  0
  7  8  2  0
  8  4  1  0
  9 11  1  0
 10  9  2  0
 11 12  1  0
 12 13  1  6
 13 14  1  0
 14 19  1  0
 15 14  2  0
 15 16  1  0
 16 17  2  0
 17 18  1  0
 19 18  2  0
 20 21  2  0
 20 12  1  0
 22 20  1  0
 23 22  1  0
 24 23  1  0
 25 24  1  0
 26 24  2  0
M  END
$$$$
