HFG.pdb
     RDKit          3D

 26 27  0  0  1  0  0  0  0  0999 V2000
   26.3267  -37.5623   -8.7575 N   0  0  0  0  0  0  0  0  0  0  0  0
   26.2236  -36.7095   -7.5538 C   0  0  1  0  0  0  0  0  0  0  0  0
   25.0791  -37.1836   -6.7263 C   0  0  0  0  0  0  0  0  0  0  0  0
   23.7959  -36.8325   -7.3551 C   0  0  0  0  0  0  0  0  0  0  0  0
   23.5945  -35.8574   -8.2941 C   0  0  0  0  0  0  0  0  0  0  0  0
   22.2587  -35.8721   -8.5746 N   0  0  0  0  0  0  0  0  0  0  0  0
   21.6484  -36.8077   -7.8502 C   0  0  0  0  0  0  0  0  0  0  0  0
   22.6020  -37.3869   -7.1089 N   0  0  0  0  0  0  0  0  0  0  0  0
   27.4903  -36.7740   -6.7864 C   0  0  0  0  0  0  0  0  0  0  0  0
   28.1700  -37.8196   -6.6686 O   0  0  0  0  0  0  0  0  0  0  0  0
   28.0409  -35.6235   -6.1101 N   0  0  0  0  0  0  0  0  0  0  0  0
   29.2939  -35.6922   -5.3842 C   0  0  1  0  0  0  0  0  0  0  0  0
   30.0359  -34.3850   -5.5592 C   0  0  0  0  0  0  0  0  0  0  0  0
   31.4285  -34.4646   -5.0956 C   0  0  0  0  0  0  0  0  0  0  0  0
   32.4180  -34.9017   -5.9421 C   0  0  0  0  0  0  0  0  0  0  0  0
   33.7494  -34.9861   -5.5244 C   0  0  0  0  0  0  0  0  0  0  0  0
   34.0729  -34.6246   -4.2423 C   0  0  0  0  0  0  0  0  0  0  0  0
   33.0799  -34.1810   -3.3776 C   0  0  0  0  0  0  0  0  0  0  0  0
   31.7496  -34.1004   -3.8066 C   0  0  0  0  0  0  0  0  0  0  0  0
   29.0632  -35.8794   -3.9253 C   0  0  0  0  0  0  0  0  0  0  0  0
   28.3346  -35.1001   -3.2511 O   0  0  0  0  0  0  0  0  0  0  0  0
   29.6718  -36.9576   -3.2625 N   0  0  0  0  0  0  0  0  0  0  0  0
   29.4411  -37.1907   -1.8699 C   0  0  0  0  0  0  0  0  0  0  0  0
   30.2697  -36.3056   -1.0278 C   0  0  0  0  0  0  0  0  0  0  0  0
   30.4757  -34.9704   -1.3297 O   0  0  0  0  0  0  0  0  0  0  0  0
   30.8048  -36.7882   -0.0005 O   0  0  0  0  0  0  0  0  0  0  0  0
  2  9  1  0
  2  1  1  6
  3  2  1  0
  4  3  1  0
  5  4  2  0
  6  5  1  0
  6  7  1  0
  7  8  2  0
  8  4  1  0
  9 11  1  0
 10  9  2  0
 11 12  1  0
 12 13  1  1
 13 14  1  0
 14 19  1  0
 15 14  2  0
 15 16  1  0
 16 17  2  0
 17 18  1  0
 19 18  2  0
 20 21  2  0
 20 12  1  0
 22 20  1  0
 23 22  1  0
 24 23  1  0
 25 24  1  0
 26 24  2  0
M  END
$$$$
