HFG.pdb
     RDKit          3D

 26 27  0  0  1  0  0  0  0  0999 V2000
   32.4286  -36.3058   -2.5577 N   0  0  0  0  0  0  0  0  0  0  0  0
   31.1006  -36.6016   -1.9784 C   0  0  1  0  0  0  0  0  0  0  0  0
   30.9449  -38.0788   -1.8642 C   0  0  0  0  0  0  0  0  0  0  0  0
   30.7084  -38.6851   -3.1839 C   0  0  0  0  0  0  0  0  0  0  0  0
   31.6282  -38.8238   -4.1877 C   0  0  0  0  0  0  0  0  0  0  0  0
   30.9695  -39.4174   -5.2255 N   0  0  0  0  0  0  0  0  0  0  0  0
   29.6997  -39.6417   -4.8941 C   0  0  0  0  0  0  0  0  0  0  0  0
   29.5549  -39.1883   -3.6421 N   0  0  0  0  0  0  0  0  0  0  0  0
   30.9806  -35.9555   -0.6496 C   0  0  0  0  0  0  0  0  0  0  0  0
   31.9414  -35.8342    0.1450 O   0  0  0  0  0  0  0  0  0  0  0  0
   29.7332  -35.4118   -0.1671 N   0  0  0  0  0  0  0  0  0  0  0  0
   29.6343  -34.7565    1.1223 C   0  0  1  0  0  0  0  0  0  0  0  0
   28.8575  -33.4679    0.9607 C   0  0  0  0  0  0  0  0  0  0  0  0
   28.6161  -32.7942    2.2447 C   0  0  0  0  0  0  0  0  0  0  0  0
   27.3346  -32.6225    2.7083 C   0  0  0  0  0  0  0  0  0  0  0  0
   27.0797  -31.9851    3.9261 C   0  0  0  0  0  0  0  0  0  0  0  0
   28.1322  -31.5221    4.6724 C   0  0  0  0  0  0  0  0  0  0  0  0
   29.4326  -31.6904    4.2129 C   0  0  0  0  0  0  0  0  0  0  0  0
   29.6763  -32.3303    2.9916 C   0  0  0  0  0  0  0  0  0  0  0  0
   28.8953  -35.6000    2.1015 C   0  0  0  0  0  0  0  0  0  0  0  0
   27.8211  -36.1933    1.8068 O   0  0  0  0  0  0  0  0  0  0  0  0
   29.4000  -35.7500    3.4034 N   0  0  0  0  0  0  0  0  0  0  0  0
   28.7550  -36.6088    4.3487 C   0  0  0  0  0  0  0  0  0  0  0  0
   29.4699  -36.6271    5.6400 C   0  0  0  0  0  0  0  0  0  0  0  0
   28.9300  -37.1946    6.7814 O   0  0  0  0  0  0  0  0  0  0  0  0
   30.6102  -36.1066    5.6985 O   0  0  0  0  0  0  0  0  0  0  0  0
  2  9  1  0
  2  1  1  1
  3  2  1  0
  4  3  1  0
  5  4  2  0
  6  5  1  0
  6  7  1  0
  7  8  2  0
  8  4  1  0
  9 11  1  0
 10  9  2  0
 11 12  1  0
 12 13  1  6
 13 14  1  0
 14 19  1  0
 15 14  2  0
 15 16  1  0
 16 17  2  0
 17 18  1  0
 19 18  2  0
 20 21  2  0
 20 12  1  0
 22 20  1  0
 23 22  1  0
 24 23  1  0
 25 24  1  0
 26 24  2  0
M  END
$$$$
