HFG.pdb
     RDKit          3D

 26 27  0  0  1  0  0  0  0  0999 V2000
   37.9350  -25.4389    3.4523 N   0  0  0  0  0  0  0  0  0  0  0  0
   36.9493  -25.8533    4.4738 C   0  0  1  0  0  0  0  0  0  0  0  0
   37.4740  -27.0498    5.1896 C   0  0  0  0  0  0  0  0  0  0  0  0
   37.2655  -28.2703    4.3944 C   0  0  0  0  0  0  0  0  0  0  0  0
   36.6081  -28.3538    3.1970 C   0  0  0  0  0  0  0  0  0  0  0  0
   36.6413  -29.6703    2.8380 N   0  0  0  0  0  0  0  0  0  0  0  0
   37.2860  -30.3811    3.7609 C   0  0  0  0  0  0  0  0  0  0  0  0
   37.6620  -29.5107    4.7070 N   0  0  0  0  0  0  0  0  0  0  0  0
   36.7113  -24.7367    5.4195 C   0  0  0  0  0  0  0  0  0  0  0  0
   37.6205  -23.9806    5.8330 O   0  0  0  0  0  0  0  0  0  0  0  0
   35.3992  -24.4343    5.9401 N   0  0  0  0  0  0  0  0  0  0  0  0
   35.1770  -23.3341    6.8577 C   0  0  1  0  0  0  0  0  0  0  0  0
   33.7030  -22.9919    6.8675 C   0  0  0  0  0  0  0  0  0  0  0  0
   33.2786  -22.3064    5.6384 C   0  0  0  0  0  0  0  0  0  0  0  0
   33.1172  -23.0115    4.4707 C   0  0  0  0  0  0  0  0  0  0  0  0
   32.7145  -22.3820    3.2892 C   0  0  0  0  0  0  0  0  0  0  0  0
   32.4759  -21.0321    3.2978 C   0  0  0  0  0  0  0  0  0  0  0  0
   32.6361  -20.3091    4.4734 C   0  0  0  0  0  0  0  0  0  0  0  0
   33.0398  -20.9499    5.6510 C   0  0  0  0  0  0  0  0  0  0  0  0
   35.5552  -23.7063    8.2487 C   0  0  0  0  0  0  0  0  0  0  0  0
   35.3114  -24.8459    8.7331 O   0  0  0  0  0  0  0  0  0  0  0  0
   36.2073  -22.7656    9.0624 N   0  0  0  0  0  0  0  0  0  0  0  0
   36.6773  -23.1203   10.3664 C   0  0  0  0  0  0  0  0  0  0  0  0
   35.6476  -22.8818   11.3969 C   0  0  0  0  0  0  0  0  0  0  0  0
   35.8298  -21.9875   12.4378 O   0  0  0  0  0  0  0  0  0  0  0  0
   34.5683  -23.5173   11.3208 O   0  0  0  0  0  0  0  0  0  0  0  0
  2  9  1  0
  2  1  1  6
  3  2  1  0
  4  3  1  0
  5  4  2  0
  6  5  1  0
  6  7  1  0
  7  8  2  0
  8  4  1  0
  9 11  1  0
 10  9  2  0
 11 12  1  0
 12 13  1  1
 13 14  1  0
 14 19  1  0
 15 14  2  0
 15 16  1  0
 16 17  2  0
 17 18  1  0
 19 18  2  0
 20 21  2  0
 20 12  1  0
 22 20  1  0
 23 22  1  0
 24 23  1  0
 25 24  1  0
 26 24  2  0
M  END
$$$$
