HFG.pdb
     RDKit          3D

 26 27  0  0  1  0  0  0  0  0999 V2000
   28.4981  -36.0037   -7.9593 N   0  0  0  0  0  0  0  0  0  0  0  0
   28.9212  -34.8344   -7.1590 C   0  0  1  0  0  0  0  0  0  0  0  0
   27.7190  -34.2296   -6.5202 C   0  0  0  0  0  0  0  0  0  0  0  0
   26.9901  -33.3785   -7.4740 C   0  0  0  0  0  0  0  0  0  0  0  0
   27.3230  -33.1613   -8.7835 C   0  0  0  0  0  0  0  0  0  0  0  0
   26.3864  -32.2980   -9.2741 N   0  0  0  0  0  0  0  0  0  0  0  0
   25.5079  -31.9863   -8.3235 C   0  0  0  0  0  0  0  0  0  0  0  0
   25.8904  -32.6550   -7.2278 N   0  0  0  0  0  0  0  0  0  0  0  0
   29.9038  -35.2605   -6.1339 C   0  0  0  0  0  0  0  0  0  0  0  0
   29.9436  -36.4193   -5.6598 O   0  0  0  0  0  0  0  0  0  0  0  0
   30.8989  -34.3613   -5.5998 N   0  0  0  0  0  0  0  0  0  0  0  0
   31.8815  -34.8003   -4.6285 C   0  0  1  0  0  0  0  0  0  0  0  0
   33.1126  -33.9281   -4.7456 C   0  0  0  0  0  0  0  0  0  0  0  0
   33.7957  -34.0933   -6.0366 C   0  0  0  0  0  0  0  0  0  0  0  0
   33.6378  -33.1582   -7.0302 C   0  0  0  0  0  0  0  0  0  0  0  0
   34.2770  -33.2934   -8.2661 C   0  0  0  0  0  0  0  0  0  0  0  0
   35.0782  -34.3830   -8.4898 C   0  0  0  0  0  0  0  0  0  0  0  0
   35.2450  -35.3350   -7.4916 C   0  0  0  0  0  0  0  0  0  0  0  0
   34.6000  -35.1896   -6.2574 C   0  0  0  0  0  0  0  0  0  0  0  0
   31.3677  -34.6580   -3.2384 C   0  0  0  0  0  0  0  0  0  0  0  0
   30.5832  -33.7290   -2.9000 O   0  0  0  0  0  0  0  0  0  0  0  0
   31.7616  -35.5833   -2.2582 N   0  0  0  0  0  0  0  0  0  0  0  0
   31.3047  -35.4645   -0.9076 C   0  0  0  0  0  0  0  0  0  0  0  0
   30.0132  -36.1514   -0.7101 C   0  0  0  0  0  0  0  0  0  0  0  0
   29.3839  -36.2130    0.5215 O   0  0  0  0  0  0  0  0  0  0  0  0
   29.4702  -36.6983   -1.7004 O   0  0  0  0  0  0  0  0  0  0  0  0
  2  9  1  0
  2  1  1  1
  3  2  1  0
  4  3  1  0
  5  4  2  0
  6  5  1  0
  6  7  1  0
  7  8  2  0
  8  4  1  0
  9 11  1  0
 10  9  2  0
 11 12  1  0
 12 13  1  1
 13 14  1  0
 14 19  1  0
 15 14  2  0
 15 16  1  0
 16 17  2  0
 17 18  1  0
 19 18  2  0
 20 21  2  0
 20 12  1  0
 22 20  1  0
 23 22  1  0
 24 23  1  0
 25 24  1  0
 26 24  2  0
M  END
$$$$
