HFG.pdb
     RDKit          3D

 26 27  0  0  1  0  0  0  0  0999 V2000
   19.3719  -32.8601    1.7481 N   0  0  0  0  0  0  0  0  0  0  0  0
   20.4215  -33.0317    2.7755 C   0  0  1  0  0  0  0  0  0  0  0  0
   20.5793  -34.4849    3.0626 C   0  0  0  0  0  0  0  0  0  0  0  0
   19.4122  -35.0055    3.7922 C   0  0  0  0  0  0  0  0  0  0  0  0
   19.0201  -34.6471    5.0534 C   0  0  0  0  0  0  0  0  0  0  0  0
   17.9084  -35.3894    5.3295 N   0  0  0  0  0  0  0  0  0  0  0  0
   17.6140  -36.1757    4.2962 C   0  0  0  0  0  0  0  0  0  0  0  0
   18.5430  -35.9296    3.3632 N   0  0  0  0  0  0  0  0  0  0  0  0
   21.6955  -32.4499    2.2894 C   0  0  0  0  0  0  0  0  0  0  0  0
   22.1109  -32.5889    1.1159 O   0  0  0  0  0  0  0  0  0  0  0  0
   22.5617  -31.6710    3.1421 N   0  0  0  0  0  0  0  0  0  0  0  0
   23.7715  -31.0508    2.6388 C   0  0  1  0  0  0  0  0  0  0  0  0
   23.6864  -29.5561    2.8595 C   0  0  0  0  0  0  0  0  0  0  0  0
   22.6489  -28.9254    2.0310 C   0  0  0  0  0  0  0  0  0  0  0  0
   21.4544  -28.5399    2.5888 C   0  0  0  0  0  0  0  0  0  0  0  0
   20.4525  -27.9383    1.8216 C   0  0  0  0  0  0  0  0  0  0  0  0
   20.6683  -27.7291    0.4841 C   0  0  0  0  0  0  0  0  0  0  0  0
   21.8731  -28.1152   -0.0905 C   0  0  0  0  0  0  0  0  0  0  0  0
   22.8696  -28.7170    0.6875 C   0  0  0  0  0  0  0  0  0  0  0  0
   24.9731  -31.5394    3.3694 C   0  0  0  0  0  0  0  0  0  0  0  0
   25.0950  -31.4271    4.6206 O   0  0  0  0  0  0  0  0  0  0  0  0
   26.0162  -32.1492    2.6538 N   0  0  0  0  0  0  0  0  0  0  0  0
   27.1437  -32.7117    3.3316 C   0  0  0  0  0  0  0  0  0  0  0  0
   28.1011  -33.3140    2.3830 C   0  0  0  0  0  0  0  0  0  0  0  0
   29.3236  -33.8252    2.7836 O   0  0  0  0  0  0  0  0  0  0  0  0
   27.7887  -33.3613    1.1686 O   0  0  0  0  0  0  0  0  0  0  0  0
  2  9  1  0
  2  1  1  6
  3  2  1  0
  4  3  1  0
  5  4  2  0
  6  5  1  0
  6  7  1  0
  7  8  2  0
  8  4  1  0
  9 11  1  0
 10  9  2  0
 11 12  1  0
 12 13  1  1
 13 14  1  0
 14 19  1  0
 15 14  2  0
 15 16  1  0
 16 17  2  0
 17 18  1  0
 19 18  2  0
 20 21  2  0
 20 12  1  0
 22 20  1  0
 23 22  1  0
 24 23  1  0
 25 24  1  0
 26 24  2  0
M  END
$$$$
