HFG.pdb
     RDKit          3D

 26 27  0  0  1  0  0  0  0  0999 V2000
   21.6582  -12.6557  -17.5610 N   0  0  0  0  0  0  0  0  0  0  0  0
   20.4731  -11.7723  -17.6020 C   0  0  1  0  0  0  0  0  0  0  0  0
   19.2767  -12.5543  -17.1820 C   0  0  0  0  0  0  0  0  0  0  0  0
   18.9356  -13.5725  -18.1881 C   0  0  0  0  0  0  0  0  0  0  0  0
   19.5711  -13.7744  -19.3832 C   0  0  0  0  0  0  0  0  0  0  0  0
   18.9109  -14.8011  -19.9942 N   0  0  0  0  0  0  0  0  0  0  0  0
   17.9105  -15.2252  -19.2249 C   0  0  0  0  0  0  0  0  0  0  0  0
   17.9382  -14.4639  -18.1231 N   0  0  0  0  0  0  0  0  0  0  0  0
   20.6846  -10.6114  -16.7047 C   0  0  0  0  0  0  0  0  0  0  0  0
   21.0782  -10.7208  -15.5205 O   0  0  0  0  0  0  0  0  0  0  0  0
   20.4501   -9.2530  -17.1338 N   0  0  0  0  0  0  0  0  0  0  0  0
   20.5788   -8.1321  -16.2235 C   0  0  1  0  0  0  0  0  0  0  0  0
   21.0224   -6.9136  -17.0035 C   0  0  0  0  0  0  0  0  0  0  0  0
   21.1251   -5.7146  -16.1594 C   0  0  0  0  0  0  0  0  0  0  0  0
   22.2096   -5.5365  -15.3355 C   0  0  0  0  0  0  0  0  0  0  0  0
   22.3297   -4.4048  -14.5236 C   0  0  0  0  0  0  0  0  0  0  0  0
   21.3432   -3.4533  -14.5514 C   0  0  0  0  0  0  0  0  0  0  0  0
   20.2418   -3.6234  -15.3812 C   0  0  0  0  0  0  0  0  0  0  0  0
   20.1318   -4.7608  -16.1902 C   0  0  0  0  0  0  0  0  0  0  0  0
   19.2742   -7.8007  -15.5873 C   0  0  0  0  0  0  0  0  0  0  0  0
   18.1968   -7.7488  -16.2425 O   0  0  0  0  0  0  0  0  0  0  0  0
   19.2257   -7.5339  -14.2094 N   0  0  0  0  0  0  0  0  0  0  0  0
   18.0033   -7.1413  -13.5780 C   0  0  0  0  0  0  0  0  0  0  0  0
   17.3167   -8.2940  -12.9625 C   0  0  0  0  0  0  0  0  0  0  0  0
   17.6193   -8.7476  -11.6900 O   0  0  0  0  0  0  0  0  0  0  0  0
   16.4258   -8.8808  -13.6233 O   0  0  0  0  0  0  0  0  0  0  0  0
  2  9  1  0
  2  1  1  1
  3  2  1  0
  4  3  1  0
  5  4  2  0
  6  5  1  0
  6  7  1  0
  7  8  2  0
  8  4  1  0
  9 11  1  0
 10  9  2  0
 11 12  1  0
 12 13  1  6
 13 14  1  0
 14 19  1  0
 15 14  2  0
 15 16  1  0
 16 17  2  0
 17 18  1  0
 19 18  2  0
 20 21  2  0
 20 12  1  0
 22 20  1  0
 23 22  1  0
 24 23  1  0
 25 24  1  0
 26 24  2  0
M  END
$$$$
