HFG.pdb
     RDKit          3D

 26 27  0  0  1  0  0  0  0  0999 V2000
   34.2624  -26.2592  -19.5829 N   0  0  0  0  0  0  0  0  0  0  0  0
   33.5695  -27.5041  -19.9791 C   0  0  1  0  0  0  0  0  0  0  0  0
   33.5664  -27.5994  -21.4658 C   0  0  0  0  0  0  0  0  0  0  0  0
   32.5473  -26.7109  -22.0465 C   0  0  0  0  0  0  0  0  0  0  0  0
   31.3638  -26.3468  -21.4636 C   0  0  0  0  0  0  0  0  0  0  0  0
   30.7332  -25.5354  -22.3621 N   0  0  0  0  0  0  0  0  0  0  0  0
   31.4797  -25.3946  -23.4554 C   0  0  0  0  0  0  0  0  0  0  0  0
   32.5866  -26.1197  -23.2475 N   0  0  0  0  0  0  0  0  0  0  0  0
   34.2581  -28.6714  -19.3784 C   0  0  0  0  0  0  0  0  0  0  0  0
   35.5047  -28.7715  -19.3056 O   0  0  0  0  0  0  0  0  0  0  0  0
   33.5350  -29.7923  -18.8262 N   0  0  0  0  0  0  0  0  0  0  0  0
   34.2165  -30.8965  -18.1797 C   0  0  1  0  0  0  0  0  0  0  0  0
   33.7508  -30.9883  -16.7428 C   0  0  0  0  0  0  0  0  0  0  0  0
   32.2858  -30.9620  -16.6257 C   0  0  0  0  0  0  0  0  0  0  0  0
   31.5951  -32.1031  -16.2977 C   0  0  0  0  0  0  0  0  0  0  0  0
   30.2021  -32.1031  -16.1804 C   0  0  0  0  0  0  0  0  0  0  0  0
   29.5120  -30.9387  -16.3976 C   0  0  0  0  0  0  0  0  0  0  0  0
   30.2007  -29.7786  -16.7299 C   0  0  0  0  0  0  0  0  0  0  0  0
   31.5961  -29.7901  -16.8447 C   0  0  0  0  0  0  0  0  0  0  0  0
   33.8885  -32.1920  -18.8359 C   0  0  0  0  0  0  0  0  0  0  0  0
   32.8261  -32.3658  -19.4946 O   0  0  0  0  0  0  0  0  0  0  0  0
   34.7842  -33.2681  -18.7263 N   0  0  0  0  0  0  0  0  0  0  0  0
   34.5387  -34.5026  -19.4066 C   0  0  0  0  0  0  0  0  0  0  0  0
   33.4737  -35.2827  -18.7461 C   0  0  0  0  0  0  0  0  0  0  0  0
   33.5928  -36.6384  -18.4924 O   0  0  0  0  0  0  0  0  0  0  0  0
   32.4228  -34.6883  -18.4041 O   0  0  0  0  0  0  0  0  0  0  0  0
  2  9  1  0
  2  1  1  6
  3  2  1  0
  4  3  1  0
  5  4  2  0
  6  5  1  0
  6  7  1  0
  7  8  2  0
  8  4  1  0
  9 11  1  0
 10  9  2  0
 11 12  1  0
 12 13  1  1
 13 14  1  0
 14 19  1  0
 15 14  2  0
 15 16  1  0
 16 17  2  0
 17 18  1  0
 19 18  2  0
 20 21  2  0
 20 12  1  0
 22 20  1  0
 23 22  1  0
 24 23  1  0
 25 24  1  0
 26 24  2  0
M  END
$$$$
