HFG.pdb
     RDKit          3D

 26 27  0  0  1  0  0  0  0  0999 V2000
   27.8820  -20.8563  -14.4904 N   0  0  0  0  0  0  0  0  0  0  0  0
   26.9929  -19.9345  -13.7513 C   0  0  1  0  0  0  0  0  0  0  0  0
   26.1793  -19.1628  -14.7320 C   0  0  0  0  0  0  0  0  0  0  0  0
   27.0336  -18.2837  -15.5462 C   0  0  0  0  0  0  0  0  0  0  0  0
   28.3692  -18.0521  -15.3578 C   0  0  0  0  0  0  0  0  0  0  0  0
   28.7397  -17.1643  -16.3262 N   0  0  0  0  0  0  0  0  0  0  0  0
   27.6923  -16.8516  -17.0863 C   0  0  0  0  0  0  0  0  0  0  0  0
   26.6557  -17.5443  -16.5969 N   0  0  0  0  0  0  0  0  0  0  0  0
   26.1200  -20.7089  -12.8370 C   0  0  0  0  0  0  0  0  0  0  0  0
   25.7032  -21.8613  -13.0967 O   0  0  0  0  0  0  0  0  0  0  0  0
   25.6803  -20.1865  -11.5650 N   0  0  0  0  0  0  0  0  0  0  0  0
   24.8601  -20.9687  -10.6610 C   0  0  1  0  0  0  0  0  0  0  0  0
   25.1662  -20.5562   -9.2376 C   0  0  0  0  0  0  0  0  0  0  0  0
   26.6065  -20.5795   -8.9448 C   0  0  0  0  0  0  0  0  0  0  0  0
   27.4312  -21.4705   -9.5872 C   0  0  0  0  0  0  0  0  0  0  0  0
   28.8038  -21.5117   -9.3256 C   0  0  0  0  0  0  0  0  0  0  0  0
   29.3368  -20.6438   -8.4081 C   0  0  0  0  0  0  0  0  0  0  0  0
   28.5116  -19.7384   -7.7523 C   0  0  0  0  0  0  0  0  0  0  0  0
   27.1381  -19.7058   -8.0221 C   0  0  0  0  0  0  0  0  0  0  0  0
   23.4110  -20.7185  -10.8935 C   0  0  0  0  0  0  0  0  0  0  0  0
   22.5201  -21.1132  -10.0914 O   0  0  0  0  0  0  0  0  0  0  0  0
   23.0063  -20.0195  -12.0422 N   0  0  0  0  0  0  0  0  0  0  0  0
   21.6307  -19.6895  -12.2569 C   0  0  0  0  0  0  0  0  0  0  0  0
   20.8402  -20.8787  -12.6308 C   0  0  0  0  0  0  0  0  0  0  0  0
   21.1936  -21.7065  -13.6826 O   0  0  0  0  0  0  0  0  0  0  0  0
   19.8095  -21.1438  -11.9658 O   0  0  0  0  0  0  0  0  0  0  0  0
  2  9  1  0
  2  1  1  6
  3  2  1  0
  4  3  1  0
  5  4  2  0
  6  5  1  0
  6  7  1  0
  7  8  2  0
  8  4  1  0
  9 11  1  0
 10  9  2  0
 11 12  1  0
 12 13  1  1
 13 14  1  0
 14 19  1  0
 15 14  2  0
 15 16  1  0
 16 17  2  0
 17 18  1  0
 19 18  2  0
 20 21  2  0
 20 12  1  0
 22 20  1  0
 23 22  1  0
 24 23  1  0
 25 24  1  0
 26 24  2  0
M  END
$$$$
