GLY.pdb
     RDKit          3D

 25 25  0  0  1  0  0  0  0  0999 V2000
    9.1139  -20.4624   19.6234 N   0  0  0  0  0  0  0  0  0  0  0  0
    8.3061  -19.5692   20.4098 C   0  0  0  0  0  0  0  0  0  0  0  0
    8.9203  -18.1916   20.3372 C   0  0  0  0  0  0  0  0  0  0  0  0
   10.1403  -18.0817   20.0843 O   0  0  0  0  0  0  0  0  0  0  0  0
    8.4963  -12.8483   19.2338 C   0  0  0  0  0  0  0  0  0  0  0  0
    7.9364  -13.2691   20.5532 C   0  0  1  0  0  0  0  0  0  0  0  0
    6.5903  -12.5255   20.7612 C   0  0  0  0  0  0  0  0  0  0  0  0
    7.5726  -14.7213   20.5907 C   0  0  0  0  0  0  0  0  0  0  0  0
    8.7198  -15.7020   20.6583 C   0  0  2  0  0  0  0  0  0  0  0  0
    8.1455  -17.0437   20.5482 N   0  0  0  0  0  0  0  0  0  0  0  0
    9.4786  -15.5553   21.8838 C   0  0  0  0  0  0  0  0  0  0  0  0
   10.6075  -14.9557   21.8156 O   0  0  0  0  0  0  0  0  0  0  0  0
   11.2258  -14.4667   30.4844 O   0  0  0  0  0  0  0  0  0  0  0  0
   10.6577  -14.7735   29.2523 C   0  0  0  0  0  0  0  0  0  0  0  0
   10.1690  -13.7465   28.4562 C   0  0  0  0  0  0  0  0  0  0  0  0
    9.6025  -14.0257   27.2329 C   0  0  0  0  0  0  0  0  0  0  0  0
    9.4977  -15.3223   26.7521 C   0  0  0  0  0  0  0  0  0  0  0  0
    8.8866  -15.5811   25.4468 C   0  0  0  0  0  0  0  0  0  0  0  0
    9.8934  -15.6555   24.3040 C   0  0  2  0  0  0  0  0  0  0  0  0
    9.0730  -16.0102   23.1344 N   0  0  0  0  0  0  0  0  0  0  0  0
   10.8858  -16.7148   24.5314 C   0  0  0  0  0  0  0  0  0  0  0  0
   11.9863  -16.4289   25.0502 O   0  0  0  0  0  0  0  0  0  0  0  0
    9.9796  -16.3500   27.5342 C   0  0  0  0  0  0  0  0  0  0  0  0
   10.5503  -16.0592   28.7684 C   0  0  0  0  0  0  0  0  0  0  0  0
   10.6217  -18.0150   24.1826 O   0  0  0  0  0  0  0  0  0  0  0  0
  1  2  1  0
  3  4  2  0
  3  2  1  0
  6  5  1  6
  6  8  1  0
  7  6  1  0
  9  8  1  1
  9 10  1  0
 10  3  1  0
 11  9  1  0
 12 11  2  0
 13 14  1  0
 14 15  2  0
 15 16  1  0
 17 18  1  0
 17 16  2  0
 19 18  1  1
 19 21  1  0
 19 20  1  0
 20 11  1  0
 21 25  1  0
 22 21  2  0
 23 17  1  0
 24 23  2  0
 24 14  1  0
M  END
$$$$
