GLY.pdb
     RDKit          3D

 25 25  0  0  1  0  0  0  0  0999 V2000
   10.6879  -18.4311   17.9584 N   0  0  0  0  0  0  0  0  0  0  0  0
    9.5761  -18.3832   18.8697 C   0  0  0  0  0  0  0  0  0  0  0  0
    9.7332  -17.1594   19.7403 C   0  0  0  0  0  0  0  0  0  0  0  0
   10.8623  -16.8807   20.2005 O   0  0  0  0  0  0  0  0  0  0  0  0
    6.3008  -12.8478   19.0217 C   0  0  0  0  0  0  0  0  0  0  0  0
    7.5379  -13.6465   19.2725 C   0  0  1  0  0  0  0  0  0  0  0  0
    8.7419  -12.6678   19.3024 C   0  0  0  0  0  0  0  0  0  0  0  0
    7.5457  -14.2923   20.6236 C   0  0  0  0  0  0  0  0  0  0  0  0
    8.7221  -15.1873   20.9360 C   0  0  2  0  0  0  0  0  0  0  0  0
    8.6372  -16.3386   20.0364 N   0  0  0  0  0  0  0  0  0  0  0  0
    8.7239  -15.6050   22.3234 C   0  0  0  0  0  0  0  0  0  0  0  0
    8.0084  -16.6180   22.6400 O   0  0  0  0  0  0  0  0  0  0  0  0
   10.3709  -16.0381   31.0179 O   0  0  0  0  0  0  0  0  0  0  0  0
   10.3011  -15.6469   29.6850 C   0  0  0  0  0  0  0  0  0  0  0  0
   10.7899  -16.4968   28.7021 C   0  0  0  0  0  0  0  0  0  0  0  0
   10.7316  -16.1312   27.3761 C   0  0  0  0  0  0  0  0  0  0  0  0
   10.1914  -14.9193   26.9727 C   0  0  0  0  0  0  0  0  0  0  0  0
   10.1486  -14.5635   25.5529 C   0  0  0  0  0  0  0  0  0  0  0  0
    9.2785  -15.4940   24.7149 C   0  0  2  0  0  0  0  0  0  0  0  0
    9.4495  -14.9940   23.3412 N   0  0  0  0  0  0  0  0  0  0  0  0
    7.8621  -15.3868   25.0904 C   0  0  0  0  0  0  0  0  0  0  0  0
    7.1748  -14.4431   24.6443 O   0  0  0  0  0  0  0  0  0  0  0  0
    9.7031  -14.0673   27.9401 C   0  0  0  0  0  0  0  0  0  0  0  0
    9.7658  -14.4444   29.2769 C   0  0  0  0  0  0  0  0  0  0  0  0
    7.2820  -16.3089   25.9241 O   0  0  0  0  0  0  0  0  0  0  0  0
  1  2  1  0
  3  4  2  0
  3  2  1  0
  6  5  1  1
  6  8  1  0
  7  6  1  0
  9  8  1  1
  9 10  1  0
 10  3  1  0
 11  9  1  0
 12 11  2  0
 13 14  1  0
 14 15  2  0
 15 16  1  0
 17 18  1  0
 17 16  2  0
 19 18  1  1
 19 21  1  0
 19 20  1  0
 20 11  1  0
 21 25  1  0
 22 21  2  0
 23 17  1  0
 24 23  2  0
 24 14  1  0
M  END
$$$$
