GLY.pdb
     RDKit          3D

 25 25  0  0  1  0  0  0  0  0999 V2000
    7.2513  -19.3495   19.5653 N   0  0  0  0  0  0  0  0  0  0  0  0
    7.2544  -18.6655   20.8306 C   0  0  0  0  0  0  0  0  0  0  0  0
    8.3068  -17.5839   20.7786 C   0  0  0  0  0  0  0  0  0  0  0  0
    9.5027  -17.9060   20.6039 O   0  0  0  0  0  0  0  0  0  0  0  0
    6.6215  -12.4353   19.5278 C   0  0  0  0  0  0  0  0  0  0  0  0
    7.4292  -13.6916   19.5504 C   0  0  1  0  0  0  0  0  0  0  0  0
    8.5100  -13.5860   18.4418 C   0  0  0  0  0  0  0  0  0  0  0  0
    8.2079  -13.8562   20.8190 C   0  0  0  0  0  0  0  0  0  0  0  0
    8.9536  -15.1591   20.9879 C   0  0  2  0  0  0  0  0  0  0  0  0
    7.9621  -16.2337   20.9225 N   0  0  0  0  0  0  0  0  0  0  0  0
    9.6878  -15.1983   22.2363 C   0  0  0  0  0  0  0  0  0  0  0  0
   10.8847  -14.7446   22.2364 O   0  0  0  0  0  0  0  0  0  0  0  0
   11.1646  -15.0848   30.9626 O   0  0  0  0  0  0  0  0  0  0  0  0
   10.6298  -15.0814   29.6787 C   0  0  0  0  0  0  0  0  0  0  0  0
   10.2151  -16.2798   29.1134 C   0  0  0  0  0  0  0  0  0  0  0  0
    9.6826  -16.3012   27.8440 C   0  0  0  0  0  0  0  0  0  0  0  0
    9.5402  -15.1467   27.0890 C   0  0  0  0  0  0  0  0  0  0  0  0
    8.9715  -15.2087   25.7411 C   0  0  0  0  0  0  0  0  0  0  0  0
   10.0018  -15.4990   24.6551 C   0  0  2  0  0  0  0  0  0  0  0  0
    9.1908  -15.6856   23.4410 N   0  0  0  0  0  0  0  0  0  0  0  0
   10.7395  -16.7389   24.9331 C   0  0  0  0  0  0  0  0  0  0  0  0
   11.7652  -16.7004   25.6461 O   0  0  0  0  0  0  0  0  0  0  0  0
    9.9487  -13.9511   27.6401 C   0  0  0  0  0  0  0  0  0  0  0  0
   10.4854  -13.9383   28.9228 C   0  0  0  0  0  0  0  0  0  0  0  0
   10.3181  -17.9398   24.4213 O   0  0  0  0  0  0  0  0  0  0  0  0
  1  2  1  0
  3  4  2  0
  3  2  1  0
  6  5  1  1
  6  8  1  0
  7  6  1  0
  9  8  1  1
  9 10  1  0
 10  3  1  0
 11  9  1  0
 12 11  2  0
 13 14  1  0
 14 15  2  0
 15 16  1  0
 17 18  1  0
 17 16  2  0
 19 18  1  1
 19 21  1  0
 19 20  1  0
 20 11  1  0
 21 25  1  0
 22 21  2  0
 23 17  1  0
 24 23  2  0
 24 14  1  0
M  END
$$$$
