GLY.pdb
     RDKit          3D

 25 25  0  0  1  0  0  0  0  0999 V2000
    5.6921  -19.6439   23.3659 N   0  0  0  0  0  0  0  0  0  0  0  0
    6.1609  -18.9290   24.5226 C   0  0  0  0  0  0  0  0  0  0  0  0
    6.5470  -17.5348   24.0899 C   0  0  0  0  0  0  0  0  0  0  0  0
    6.8129  -17.3227   22.8863 O   0  0  0  0  0  0  0  0  0  0  0  0
    6.3114  -11.8820   26.5858 C   0  0  0  0  0  0  0  0  0  0  0  0
    6.3908  -12.7846   25.3983 C   0  0  1  0  0  0  0  0  0  0  0  0
    7.6461  -12.3863   24.5772 C   0  0  0  0  0  0  0  0  0  0  0  0
    6.6261  -14.2151   25.7734 C   0  0  0  0  0  0  0  0  0  0  0  0
    7.0691  -15.1389   24.6631 C   0  0  2  0  0  0  0  0  0  0  0  0
    6.6104  -16.4837   25.0139 N   0  0  0  0  0  0  0  0  0  0  0  0
    8.5060  -15.1061   24.4800 C   0  0  0  0  0  0  0  0  0  0  0  0
    9.0162  -14.0485   23.9706 O   0  0  0  0  0  0  0  0  0  0  0  0
   10.2734  -14.7011   30.9469 O   0  0  0  0  0  0  0  0  0  0  0  0
   10.5679  -15.2306   29.6948 C   0  0  0  0  0  0  0  0  0  0  0  0
   10.4863  -14.4126   28.5761 C   0  0  0  0  0  0  0  0  0  0  0  0
   10.7732  -14.9143   27.3266 C   0  0  0  0  0  0  0  0  0  0  0  0
   11.1494  -16.2354   27.1354 C   0  0  0  0  0  0  0  0  0  0  0  0
   11.4446  -16.7342   25.7908 C   0  0  0  0  0  0  0  0  0  0  0  0
   10.8245  -15.8966   24.6776 C   0  0  2  0  0  0  0  0  0  0  0  0
    9.3790  -16.1341   24.8216 N   0  0  0  0  0  0  0  0  0  0  0  0
   11.2563  -16.3615   23.3524 C   0  0  0  0  0  0  0  0  0  0  0  0
   12.4508  -16.2280   23.0102 O   0  0  0  0  0  0  0  0  0  0  0  0
   11.2336  -17.0569   28.2392 C   0  0  0  0  0  0  0  0  0  0  0  0
   10.9423  -16.5421   29.4975 C   0  0  0  0  0  0  0  0  0  0  0  0
   10.3663  -16.9412   22.4842 O   0  0  0  0  0  0  0  0  0  0  0  0
  1  2  1  0
  3  4  2  0
  3  2  1  0
  6  5  1  1
  6  8  1  0
  7  6  1  0
  9  8  1  1
  9 10  1  0
 10  3  1  0
 11  9  1  0
 12 11  2  0
 13 14  1  0
 14 15  2  0
 15 16  1  0
 17 18  1  0
 17 16  2  0
 19 18  1  1
 19 21  1  0
 19 20  1  0
 20 11  1  0
 21 25  1  0
 22 21  2  0
 23 17  1  0
 24 23  2  0
 24 14  1  0
M  END
$$$$
