GLY.pdb
     RDKit          3D

 25 25  0  0  1  0  0  0  0  0999 V2000
    8.5765  -20.6950   20.0870 N   0  0  0  0  0  0  0  0  0  0  0  0
    7.7635  -19.6488   20.6468 C   0  0  0  0  0  0  0  0  0  0  0  0
    8.5091  -18.3439   20.5007 C   0  0  0  0  0  0  0  0  0  0  0  0
    9.7249  -18.3670   20.2084 O   0  0  0  0  0  0  0  0  0  0  0  0
    8.5011  -13.0090   19.1295 C   0  0  0  0  0  0  0  0  0  0  0  0
    8.0380  -13.3449   20.5094 C   0  0  1  0  0  0  0  0  0  0  0  0
    6.8070  -12.4563   20.8308 C   0  0  0  0  0  0  0  0  0  0  0  0
    7.5276  -14.7482   20.6229 C   0  0  0  0  0  0  0  0  0  0  0  0
    8.5689  -15.8372   20.7340 C   0  0  2  0  0  0  0  0  0  0  0  0
    7.8598  -17.1166   20.6874 N   0  0  0  0  0  0  0  0  0  0  0  0
    9.3467  -15.7127   21.9500 C   0  0  0  0  0  0  0  0  0  0  0  0
   10.4744  -15.1118   21.8753 O   0  0  0  0  0  0  0  0  0  0  0  0
   10.9721  -14.4163   30.5351 O   0  0  0  0  0  0  0  0  0  0  0  0
   10.4254  -14.7606   29.3033 C   0  0  0  0  0  0  0  0  0  0  0  0
   10.0114  -13.7551   28.4401 C   0  0  0  0  0  0  0  0  0  0  0  0
    9.4675  -14.0716   27.2156 C   0  0  0  0  0  0  0  0  0  0  0  0
    9.3126  -15.3853   26.7995 C   0  0  0  0  0  0  0  0  0  0  0  0
    8.7275  -15.6836   25.4907 C   0  0  0  0  0  0  0  0  0  0  0  0
    9.7572  -15.7963   24.3716 C   0  0  2  0  0  0  0  0  0  0  0  0
    8.9605  -16.1904   23.1983 N   0  0  0  0  0  0  0  0  0  0  0  0
   10.7443  -16.8472   24.6547 C   0  0  0  0  0  0  0  0  0  0  0  0
   11.7112  -16.5996   25.4068 O   0  0  0  0  0  0  0  0  0  0  0  0
    9.7201  -16.3919   27.6485 C   0  0  0  0  0  0  0  0  0  0  0  0
   10.2685  -16.0636   28.8833 C   0  0  0  0  0  0  0  0  0  0  0  0
   10.6197  -18.0979   24.1051 O   0  0  0  0  0  0  0  0  0  0  0  0
  1  2  1  0
  3  4  2  0
  3  2  1  0
  6  5  1  6
  6  8  1  0
  7  6  1  0
  9  8  1  1
  9 10  1  0
 10  3  1  0
 11  9  1  0
 12 11  2  0
 13 14  1  0
 14 15  2  0
 15 16  1  0
 17 18  1  0
 17 16  2  0
 19 18  1  1
 19 21  1  0
 19 20  1  0
 20 11  1  0
 21 25  1  0
 22 21  2  0
 23 17  1  0
 24 23  2  0
 24 14  1  0
M  END
$$$$
