GLY.pdb
     RDKit          3D

 25 25  0  0  1  0  0  0  0  0999 V2000
    7.0252  -20.4177   19.8548 N   0  0  0  0  0  0  0  0  0  0  0  0
    6.4280  -19.3736   20.6435 C   0  0  0  0  0  0  0  0  0  0  0  0
    7.4131  -18.2330   20.7380 C   0  0  0  0  0  0  0  0  0  0  0  0
    8.6366  -18.4765   20.6486 O   0  0  0  0  0  0  0  0  0  0  0  0
    9.0709  -13.4304   19.4243 C   0  0  0  0  0  0  0  0  0  0  0  0
    8.0807  -13.3308   20.5382 C   0  0  1  0  0  0  0  0  0  0  0  0
    7.0897  -12.1862   20.1971 C   0  0  0  0  0  0  0  0  0  0  0  0
    7.2192  -14.5499   20.6573 C   0  0  0  0  0  0  0  0  0  0  0  0
    7.8884  -15.7997   21.1793 C   0  0  2  0  0  0  0  0  0  0  0  0
    6.9759  -16.9150   20.9234 N   0  0  0  0  0  0  0  0  0  0  0  0
    8.2007  -15.6909   22.5900 C   0  0  0  0  0  0  0  0  0  0  0  0
    7.2329  -15.7867   23.4221 O   0  0  0  0  0  0  0  0  0  0  0  0
    6.1266  -10.7794   26.9521 O   0  0  0  0  0  0  0  0  0  0  0  0
    6.6122  -12.0045   26.5072 C   0  0  0  0  0  0  0  0  0  0  0  0
    7.8905  -12.0728   25.9698 C   0  0  0  0  0  0  0  0  0  0  0  0
    8.3926  -13.2743   25.5229 C   0  0  0  0  0  0  0  0  0  0  0  0
    7.6557  -14.4472   25.5895 C   0  0  0  0  0  0  0  0  0  0  0  0
    8.2222  -15.7064   25.1020 C   0  0  0  0  0  0  0  0  0  0  0  0
    9.6464  -15.5726   24.5737 C   0  0  2  0  0  0  0  0  0  0  0  0
    9.4749  -15.4964   23.1138 N   0  0  0  0  0  0  0  0  0  0  0  0
   10.4529  -16.7567   24.8996 C   0  0  0  0  0  0  0  0  0  0  0  0
   10.9027  -16.8980   26.0571 O   0  0  0  0  0  0  0  0  0  0  0  0
    6.3852  -14.3913   26.1212 C   0  0  0  0  0  0  0  0  0  0  0  0
    5.8857  -13.1738   26.5702 C   0  0  0  0  0  0  0  0  0  0  0  0
   10.7195  -17.7110   23.9509 O   0  0  0  0  0  0  0  0  0  0  0  0
  1  2  1  0
  3  4  2  0
  3  2  1  0
  6  5  1  6
  6  8  1  0
  7  6  1  0
  9  8  1  1
  9 10  1  0
 10  3  1  0
 11  9  1  0
 12 11  2  0
 13 14  1  0
 14 15  2  0
 15 16  1  0
 17 18  1  0
 17 16  2  0
 19 18  1  1
 19 21  1  0
 19 20  1  0
 20 11  1  0
 21 25  1  0
 22 21  2  0
 23 17  1  0
 24 23  2  0
 24 14  1  0
M  END
$$$$
