GLY.pdb
     RDKit          3D

 25 25  0  0  1  0  0  0  0  0999 V2000
    5.5648  -19.2185   21.9212 N   0  0  0  0  0  0  0  0  0  0  0  0
    5.4338  -17.8106   22.1851 C   0  0  0  0  0  0  0  0  0  0  0  0
    6.7603  -17.1512   21.8919 C   0  0  0  0  0  0  0  0  0  0  0  0
    7.7680  -17.8679   21.7045 O   0  0  0  0  0  0  0  0  0  0  0  0
    6.9317  -12.3077   19.1730 C   0  0  0  0  0  0  0  0  0  0  0  0
    7.2605  -13.6877   19.6406 C   0  0  1  0  0  0  0  0  0  0  0  0
    8.4067  -14.2350   18.7489 C   0  0  0  0  0  0  0  0  0  0  0  0
    7.8218  -13.7100   21.0287 C   0  0  0  0  0  0  0  0  0  0  0  0
    8.1470  -15.0692   21.6025 C   0  0  2  0  0  0  0  0  0  0  0  0
    6.8746  -15.7565   21.8280 N   0  0  0  0  0  0  0  0  0  0  0  0
    8.9108  -14.9642   22.8292 C   0  0  0  0  0  0  0  0  0  0  0  0
    9.1351  -13.7917   23.2910 O   0  0  0  0  0  0  0  0  0  0  0  0
   10.8505  -14.8918   31.1389 O   0  0  0  0  0  0  0  0  0  0  0  0
   10.3987  -15.0770   29.8364 C   0  0  0  0  0  0  0  0  0  0  0  0
   10.2513  -13.9740   29.0063 C   0  0  0  0  0  0  0  0  0  0  0  0
    9.8057  -14.1326   27.7134 C   0  0  0  0  0  0  0  0  0  0  0  0
    9.4906  -15.3793   27.1941 C   0  0  0  0  0  0  0  0  0  0  0  0
    9.0172  -15.5088   25.8145 C   0  0  0  0  0  0  0  0  0  0  0  0
   10.1325  -15.7629   24.8063 C   0  0  2  0  0  0  0  0  0  0  0  0
    9.4160  -16.0410   23.5510 N   0  0  0  0  0  0  0  0  0  0  0  0
   10.9295  -16.9413   25.1735 C   0  0  0  0  0  0  0  0  0  0  0  0
   10.5166  -18.0830   24.8766 O   0  0  0  0  0  0  0  0  0  0  0  0
    9.6331  -16.4816   28.0094 C   0  0  0  0  0  0  0  0  0  0  0  0
   10.0838  -16.3126   29.3139 C   0  0  0  0  0  0  0  0  0  0  0  0
   12.1220  -16.8067   25.8381 O   0  0  0  0  0  0  0  0  0  0  0  0
  1  2  1  0
  3  4  2  0
  3  2  1  0
  6  5  1  6
  6  8  1  0
  7  6  1  0
  9  8  1  1
  9 10  1  0
 10  3  1  0
 11  9  1  0
 12 11  2  0
 13 14  1  0
 14 15  2  0
 15 16  1  0
 17 18  1  0
 17 16  2  0
 19 18  1  1
 19 21  1  0
 19 20  1  0
 20 11  1  0
 21 25  1  0
 22 21  2  0
 23 17  1  0
 24 23  2  0
 24 14  1  0
M  END
$$$$
