GLY.pdb
     RDKit          3D

 25 25  0  0  1  0  0  0  0  0999 V2000
    9.0450  -19.2260   18.3256 N   0  0  0  0  0  0  0  0  0  0  0  0
    8.1478  -18.5415   19.2175 C   0  0  0  0  0  0  0  0  0  0  0  0
    8.8698  -17.3413   19.7818 C   0  0  0  0  0  0  0  0  0  0  0  0
   10.1204  -17.3308   19.7882 O   0  0  0  0  0  0  0  0  0  0  0  0
    6.4447  -12.3729   19.8141 C   0  0  0  0  0  0  0  0  0  0  0  0
    7.5103  -13.4168   19.7365 C   0  0  1  0  0  0  0  0  0  0  0  0
    8.8241  -12.7270   19.2819 C   0  0  0  0  0  0  0  0  0  0  0  0
    7.8397  -14.0079   21.0724 C   0  0  0  0  0  0  0  0  0  0  0  0
    8.7912  -15.1814   21.0741 C   0  0  2  0  0  0  0  0  0  0  0  0
    8.1604  -16.2475   20.2946 N   0  0  0  0  0  0  0  0  0  0  0  0
    9.0932  -15.6243   22.4202 C   0  0  0  0  0  0  0  0  0  0  0  0
    8.1125  -15.9725   23.1653 O   0  0  0  0  0  0  0  0  0  0  0  0
    7.7026  -20.4226   28.4072 O   0  0  0  0  0  0  0  0  0  0  0  0
    8.3102  -19.7946   27.3250 C   0  0  0  0  0  0  0  0  0  0  0  0
    7.5209  -19.1326   26.3942 C   0  0  0  0  0  0  0  0  0  0  0  0
    8.0998  -18.5037   25.3150 C   0  0  0  0  0  0  0  0  0  0  0  0
    9.4721  -18.5046   25.1151 C   0  0  0  0  0  0  0  0  0  0  0  0
   10.0519  -17.8267   23.9539 C   0  0  0  0  0  0  0  0  0  0  0  0
   10.5335  -16.4104   24.2496 C   0  0  2  0  0  0  0  0  0  0  0  0
   10.3699  -15.7077   22.9666 N   0  0  0  0  0  0  0  0  0  0  0  0
   11.9536  -16.3945   24.6263 C   0  0  0  0  0  0  0  0  0  0  0  0
   12.8268  -16.2894   23.7384 O   0  0  0  0  0  0  0  0  0  0  0  0
   10.2656  -19.1588   26.0330 C   0  0  0  0  0  0  0  0  0  0  0  0
    9.6729  -19.7914   27.1202 C   0  0  0  0  0  0  0  0  0  0  0  0
   12.3355  -16.4928   25.9402 O   0  0  0  0  0  0  0  0  0  0  0  0
  1  2  1  0
  3  4  2  0
  3  2  1  0
  6  5  1  1
  6  8  1  0
  7  6  1  0
  9  8  1  1
  9 10  1  0
 10  3  1  0
 11  9  1  0
 12 11  2  0
 13 14  1  0
 14 15  2  0
 15 16  1  0
 17 18  1  0
 17 16  2  0
 19 18  1  6
 19 21  1  0
 19 20  1  0
 20 11  1  0
 21 25  1  0
 22 21  2  0
 23 17  1  0
 24 23  2  0
 24 14  1  0
M  END
$$$$
