GLY.pdb
     RDKit          3D

 25 25  0  0  1  0  0  0  0  0999 V2000
   11.7742  -18.3923   17.8514 N   0  0  0  0  0  0  0  0  0  0  0  0
   10.6767  -18.5988   18.7578 C   0  0  0  0  0  0  0  0  0  0  0  0
   10.5590  -17.3791   19.6403 C   0  0  0  0  0  0  0  0  0  0  0  0
   11.5983  -16.8618   20.1054 O   0  0  0  0  0  0  0  0  0  0  0  0
    8.3577  -12.5936   20.6383 C   0  0  0  0  0  0  0  0  0  0  0  0
    7.4955  -13.7190   21.1089 C   0  0  1  0  0  0  0  0  0  0  0  0
    6.0352  -13.4149   20.6806 C   0  0  0  0  0  0  0  0  0  0  0  0
    7.8209  -15.0173   20.4373 C   0  0  0  0  0  0  0  0  0  0  0  0
    9.1415  -15.6531   20.8035 C   0  0  2  0  0  0  0  0  0  0  0  0
    9.3085  -16.8244   19.9419 N   0  0  0  0  0  0  0  0  0  0  0  0
    9.1888  -16.0213   22.2040 C   0  0  0  0  0  0  0  0  0  0  0  0
    8.6300  -17.1200   22.5489 O   0  0  0  0  0  0  0  0  0  0  0  0
   10.7513  -15.6634   30.9555 O   0  0  0  0  0  0  0  0  0  0  0  0
   10.5769  -15.4248   29.5963 C   0  0  0  0  0  0  0  0  0  0  0  0
    9.9737  -14.2433   29.1869 C   0  0  0  0  0  0  0  0  0  0  0  0
    9.7905  -13.9853   27.8470 C   0  0  0  0  0  0  0  0  0  0  0  0
   10.1937  -14.8790   26.8663 C   0  0  0  0  0  0  0  0  0  0  0  0
    9.9800  -14.5712   25.4508 C   0  0  0  0  0  0  0  0  0  0  0  0
    9.7827  -15.8067   24.5790 C   0  0  2  0  0  0  0  0  0  0  0  0
    9.8015  -15.2759   23.2063 N   0  0  0  0  0  0  0  0  0  0  0  0
    8.4799  -16.4380   24.8301 C   0  0  0  0  0  0  0  0  0  0  0  0
    8.4281  -17.5202   25.4531 O   0  0  0  0  0  0  0  0  0  0  0  0
   10.7937  -16.0555   27.2613 C   0  0  0  0  0  0  0  0  0  0  0  0
   10.9749  -16.3083   28.6165 C   0  0  0  0  0  0  0  0  0  0  0  0
    7.3181  -15.8560   24.3907 O   0  0  0  0  0  0  0  0  0  0  0  0
  1  2  1  0
  3  4  2  0
  3  2  1  0
  6  5  1  6
  6  8  1  0
  7  6  1  0
  9  8  1  6
  9 10  1  0
 10  3  1  0
 11  9  1  0
 12 11  2  0
 13 14  1  0
 14 15  2  0
 15 16  1  0
 17 18  1  0
 17 16  2  0
 19 18  1  1
 19 21  1  0
 19 20  1  0
 20 11  1  0
 21 25  1  0
 22 21  2  0
 23 17  1  0
 24 23  2  0
 24 14  1  0
M  END
$$$$
