GLY.pdb
     RDKit          3D

 25 25  0  0  1  0  0  0  0  0999 V2000
    7.7376  -19.4345   19.6310 N   0  0  0  0  0  0  0  0  0  0  0  0
    7.4120  -18.7466   20.8515 C   0  0  0  0  0  0  0  0  0  0  0  0
    8.4327  -17.6540   21.0628 C   0  0  0  0  0  0  0  0  0  0  0  0
    9.6247  -17.8655   20.7487 O   0  0  0  0  0  0  0  0  0  0  0  0
    6.8085  -12.5856   20.3549 C   0  0  0  0  0  0  0  0  0  0  0  0
    7.5796  -13.8637   20.4126 C   0  0  1  0  0  0  0  0  0  0  0  0
    8.6962  -13.7982   19.3368 C   0  0  0  0  0  0  0  0  0  0  0  0
    8.3143  -14.0383   21.7058 C   0  0  0  0  0  0  0  0  0  0  0  0
    9.0269  -15.3558   21.9035 C   0  0  2  0  0  0  0  0  0  0  0  0
    8.0630  -16.4153   21.6027 N   0  0  0  0  0  0  0  0  0  0  0  0
    9.5471  -15.4868   23.2494 C   0  0  0  0  0  0  0  0  0  0  0  0
   10.5321  -14.7396   23.5811 O   0  0  0  0  0  0  0  0  0  0  0  0
    6.2112  -10.9911   26.3654 O   0  0  0  0  0  0  0  0  0  0  0  0
    6.7400  -12.2774   26.3857 C   0  0  0  0  0  0  0  0  0  0  0  0
    8.0353  -12.4712   26.8464 C   0  0  0  0  0  0  0  0  0  0  0  0
    8.5800  -13.7352   26.8757 C   0  0  0  0  0  0  0  0  0  0  0  0
    7.8705  -14.8495   26.4537 C   0  0  0  0  0  0  0  0  0  0  0  0
    8.4839  -16.1784   26.4973 C   0  0  0  0  0  0  0  0  0  0  0  0
    9.6702  -16.3359   25.5522 C   0  0  2  0  0  0  0  0  0  0  0  0
    9.0549  -16.3588   24.2153 N   0  0  0  0  0  0  0  0  0  0  0  0
   10.3710  -17.6073   25.7783 C   0  0  0  0  0  0  0  0  0  0  0  0
   10.2920  -18.5163   24.9243 O   0  0  0  0  0  0  0  0  0  0  0  0
    6.5835  -14.6690   25.9941 C   0  0  0  0  0  0  0  0  0  0  0  0
    6.0409  -13.3890   25.9678 C   0  0  0  0  0  0  0  0  0  0  0  0
   11.1123  -17.8114   26.9144 O   0  0  0  0  0  0  0  0  0  0  0  0
  1  2  1  0
  3  4  2  0
  3  2  1  0
  6  5  1  1
  6  8  1  0
  7  6  1  0
  9  8  1  1
  9 10  1  0
 10  3  1  0
 11  9  1  0
 12 11  2  0
 13 14  1  0
 14 15  2  0
 15 16  1  0
 17 18  1  0
 17 16  2  0
 19 18  1  1
 19 21  1  0
 19 20  1  0
 20 11  1  0
 21 25  1  0
 22 21  2  0
 23 17  1  0
 24 23  2  0
 24 14  1  0
M  END
$$$$
