VHI.pdb
     RDKit          3D

 26 26  0  0  1  0  0  0  0  0999 V2000
   27.9539  -32.1146  -14.4007 C   0  0  0  0  0  0  0  0  0  0  0  0
   27.6666  -31.8891  -15.8747 C   0  0  1  0  0  0  0  0  0  0  0  0
   28.9746  -31.8533  -16.6228 C   0  0  0  0  0  0  0  0  0  0  0  0
   26.8483  -33.0685  -16.3505 C   0  0  2  0  0  0  0  0  0  0  0  0
   26.4761  -32.9506  -17.7352 N   0  0  0  0  0  0  0  0  0  0  0  0
   25.6242  -33.2714  -15.5329 C   0  0  0  0  0  0  0  0  0  0  0  0
   24.4636  -33.1727  -16.0602 O   0  0  0  0  0  0  0  0  0  0  0  0
   25.6899  -33.5739  -14.1751 N   0  0  0  0  0  0  0  0  0  0  0  0
   24.4711  -34.1067  -13.4264 C   0  0  1  0  0  0  0  0  0  0  0  0
   24.0981  -35.3605  -14.1281 C   0  0  0  0  0  0  0  0  0  0  0  0
   23.0204  -36.1811  -13.5771 C   0  0  0  0  0  0  0  0  0  0  0  0
   22.1981  -35.9843  -12.4979 C   0  0  0  0  0  0  0  0  0  0  0  0
   21.2643  -36.9660  -12.4171 N   0  0  0  0  0  0  0  0  0  0  0  0
   21.5028  -37.7736  -13.4455 C   0  0  0  0  0  0  0  0  0  0  0  0
   22.5392  -37.3354  -14.1545 N   0  0  0  0  0  0  0  0  0  0  0  0
   25.0572  -34.3277  -12.0514 C   0  0  0  0  0  0  0  0  0  0  0  0
   26.2445  -34.8446  -12.0665 O   0  0  0  0  0  0  0  0  0  0  0  0
   24.8863  -30.6819   -8.1403 C   0  0  0  0  0  0  0  0  0  0  0  0
   25.2073  -31.8062   -9.0459 C   0  0  0  0  0  0  0  0  0  0  0  0
   24.9736  -33.1917   -8.6015 C   0  0  2  0  0  0  0  0  0  0  0  0
   25.5819  -33.4105   -7.2047 C   0  0  0  0  0  0  0  0  0  0  0  0
   25.1934  -34.3045   -9.5090 C   0  0  2  0  0  0  0  0  0  0  0  0
   24.4920  -34.0486  -10.8160 N   0  0  0  0  0  0  0  0  0  0  0  0
   25.1504  -35.6935   -9.1569 C   0  0  0  0  0  0  0  0  0  0  0  0
   24.0457  -36.3442   -9.2150 O   0  0  0  0  0  0  0  0  0  0  0  0
   26.2100  -36.4680   -8.7467 O   0  0  0  0  0  0  0  0  0  0  0  0
  2  4  1  0
  2  1  1  1
  3  2  1  0
  4  6  1  0
  4  5  1  6
  6  7  2  0
  8  6  1  0
  8  9  1  0
  9 16  1  0
  9 10  1  6
 10 11  1  0
 11 12  2  0
 12 13  1  0
 14 13  1  0
 15 11  1  0
 15 14  2  0
 16 17  2  0
 19 20  1  0
 19 18  1  0
 20 22  1  0
 20 21  1  1
 22 23  1  6
 22 24  1  0
 23 16  1  0
 24 25  2  0
 24 26  1  0
M  END
$$$$
