VHI.pdb
     RDKit          3D

 26 26  0  0  1  0  0  0  0  0999 V2000
   46.4782  -11.2202   -5.9538 C   0  0  0  0  0  0  0  0  0  0  0  0
   45.2853  -10.4027   -6.4172 C   0  0  1  0  0  0  0  0  0  0  0  0
   45.7789   -9.2803   -7.2939 C   0  0  0  0  0  0  0  0  0  0  0  0
   44.4067  -11.3260   -7.2311 C   0  0  2  0  0  0  0  0  0  0  0  0
   45.1111  -11.9114   -8.3405 N   0  0  0  0  0  0  0  0  0  0  0  0
   43.1864  -10.6436   -7.7347 C   0  0  0  0  0  0  0  0  0  0  0  0
   43.0278  -10.4291   -8.9851 O   0  0  0  0  0  0  0  0  0  0  0  0
   42.1776  -10.2148   -6.8757 N   0  0  0  0  0  0  0  0  0  0  0  0
   40.9060   -9.5656   -7.4154 C   0  0  1  0  0  0  0  0  0  0  0  0
   39.8003  -10.1415   -6.6097 C   0  0  0  0  0  0  0  0  0  0  0  0
   38.4656   -9.5552   -6.7261 C   0  0  0  0  0  0  0  0  0  0  0  0
   37.9690   -8.6052   -7.5806 C   0  0  0  0  0  0  0  0  0  0  0  0
   36.6347   -8.4390   -7.3950 N   0  0  0  0  0  0  0  0  0  0  0  0
   36.2990   -9.2855   -6.4268 C   0  0  0  0  0  0  0  0  0  0  0  0
   37.3636   -9.9638   -6.0079 N   0  0  0  0  0  0  0  0  0  0  0  0
   41.1831   -8.1100   -7.1195 C   0  0  0  0  0  0  0  0  0  0  0  0
   41.8310   -7.9156   -6.0151 O   0  0  0  0  0  0  0  0  0  0  0  0
   44.1963   -4.6482   -9.4849 C   0  0  0  0  0  0  0  0  0  0  0  0
   43.3270   -5.3412   -8.5095 C   0  0  0  0  0  0  0  0  0  0  0  0
   41.9402   -4.8832   -8.3127 C   0  0  2  0  0  0  0  0  0  0  0  0
   41.9047   -3.3530   -8.1512 C   0  0  0  0  0  0  0  0  0  0  0  0
   41.0555   -5.5822   -7.3968 C   0  0  2  0  0  0  0  0  0  0  0  0
   40.8386   -6.9949   -7.8688 N   0  0  0  0  0  0  0  0  0  0  0  0
   39.8675   -5.0420   -6.8036 C   0  0  0  0  0  0  0  0  0  0  0  0
   38.7552   -5.0621   -7.4436 O   0  0  0  0  0  0  0  0  0  0  0  0
   39.7594   -4.4766   -5.5547 O   0  0  0  0  0  0  0  0  0  0  0  0
  2  4  1  0
  2  1  1  6
  3  2  1  0
  4  6  1  0
  4  5  1  6
  6  7  2  0
  8  6  1  0
  8  9  1  0
  9 16  1  0
  9 10  1  1
 10 11  1  0
 11 12  2  0
 12 13  1  0
 14 13  1  0
 15 11  1  0
 15 14  2  0
 16 17  2  0
 19 20  1  0
 19 18  1  0
 20 22  1  0
 20 21  1  1
 22 23  1  6
 22 24  1  0
 23 16  1  0
 24 25  2  0
 24 26  1  0
M  END
$$$$
