VHI.pdb
     RDKit          3D

 26 26  0  0  1  0  0  0  0  0999 V2000
   28.9824  -19.7913  -13.3161 C   0  0  0  0  0  0  0  0  0  0  0  0
   28.6410  -18.8954  -14.4938 C   0  0  1  0  0  0  0  0  0  0  0  0
   29.6350  -19.1484  -15.5984 C   0  0  0  0  0  0  0  0  0  0  0  0
   27.2585  -19.2901  -14.9626 C   0  0  2  0  0  0  0  0  0  0  0  0
   26.8684  -18.5919  -16.1585 N   0  0  0  0  0  0  0  0  0  0  0  0
   26.2261  -19.0764  -13.9154 C   0  0  0  0  0  0  0  0  0  0  0  0
   25.7979  -17.9009  -13.6515 O   0  0  0  0  0  0  0  0  0  0  0  0
   25.6890  -20.1349  -13.1870 N   0  0  0  0  0  0  0  0  0  0  0  0
   24.6127  -19.8989  -12.1307 C   0  0  1  0  0  0  0  0  0  0  0  0
   23.4436  -20.6964  -12.5785 C   0  0  0  0  0  0  0  0  0  0  0  0
   22.2475  -20.7247  -11.7375 C   0  0  0  0  0  0  0  0  0  0  0  0
   21.9335  -20.0395  -10.5923 C   0  0  0  0  0  0  0  0  0  0  0  0
   20.6603  -20.3054  -10.2044 N   0  0  0  0  0  0  0  0  0  0  0  0
   20.1800  -21.1543  -11.1074 C   0  0  0  0  0  0  0  0  0  0  0  0
   21.0976  -21.4235  -12.0317 N   0  0  0  0  0  0  0  0  0  0  0  0
   25.2951  -20.4530  -10.9018 C   0  0  0  0  0  0  0  0  0  0  0  0
   25.9340  -21.5595  -11.1131 O   0  0  0  0  0  0  0  0  0  0  0  0
   28.7653  -19.7419   -6.0444 C   0  0  0  0  0  0  0  0  0  0  0  0
   27.6611  -20.5102   -6.6589 C   0  0  0  0  0  0  0  0  0  0  0  0
   26.9303  -19.9467   -7.8079 C   0  0  2  0  0  0  0  0  0  0  0  0
   26.5936  -18.4675   -7.5488 C   0  0  0  0  0  0  0  0  0  0  0  0
   25.8445  -20.6874   -8.4267 C   0  0  2  0  0  0  0  0  0  0  0  0
   25.3187  -19.9310   -9.6170 N   0  0  0  0  0  0  0  0  0  0  0  0
   24.7897  -21.3649   -7.7313 C   0  0  0  0  0  0  0  0  0  0  0  0
   25.0559  -22.3337   -6.9328 O   0  0  0  0  0  0  0  0  0  0  0  0
   23.4454  -21.0862   -7.8098 O   0  0  0  0  0  0  0  0  0  0  0  0
  2  4  1  0
  2  1  1  1
  3  2  1  0
  4  6  1  0
  4  5  1  6
  6  7  2  0
  8  6  1  0
  8  9  1  0
  9 16  1  0
  9 10  1  6
 10 11  1  0
 11 12  2  0
 12 13  1  0
 14 13  1  0
 15 11  1  0
 15 14  2  0
 16 17  2  0
 19 20  1  0
 19 18  1  0
 20 22  1  0
 20 21  1  1
 22 23  1  6
 22 24  1  0
 23 16  1  0
 24 25  2  0
 24 26  1  0
M  END
$$$$
