VHI.pdb
     RDKit          3D

 26 26  0  0  1  0  0  0  0  0999 V2000
   12.8118  -11.8379  -12.0245 C   0  0  0  0  0  0  0  0  0  0  0  0
   13.7121  -10.8476  -11.3069 C   0  0  1  0  0  0  0  0  0  0  0  0
   13.9989  -11.3695   -9.9223 C   0  0  0  0  0  0  0  0  0  0  0  0
   15.0021  -10.7739  -12.0927 C   0  0  2  0  0  0  0  0  0  0  0  0
   15.6111  -12.0660  -12.2633 N   0  0  0  0  0  0  0  0  0  0  0  0
   15.9870   -9.8494  -11.4733 C   0  0  0  0  0  0  0  0  0  0  0  0
   17.2099  -10.1959  -11.3355 O   0  0  0  0  0  0  0  0  0  0  0  0
   15.6228   -8.5829  -11.0230 N   0  0  0  0  0  0  0  0  0  0  0  0
   16.6592   -7.4730  -10.8689 C   0  0  1  0  0  0  0  0  0  0  0  0
   17.2338   -7.2833  -12.2245 C   0  0  0  0  0  0  0  0  0  0  0  0
   18.5900   -7.7631  -12.4871 C   0  0  0  0  0  0  0  0  0  0  0  0
   19.5115   -8.3582  -11.6649 C   0  0  0  0  0  0  0  0  0  0  0  0
   20.6119   -8.7341  -12.3651 N   0  0  0  0  0  0  0  0  0  0  0  0
   20.3765   -8.3752  -13.6231 C   0  0  0  0  0  0  0  0  0  0  0  0
   19.1840   -7.7960  -13.7295 N   0  0  0  0  0  0  0  0  0  0  0  0
   15.7842   -6.3294  -10.4112 C   0  0  0  0  0  0  0  0  0  0  0  0
   14.6004   -6.3347  -10.9363 O   0  0  0  0  0  0  0  0  0  0  0  0
   11.7665   -4.9050   -7.1081 C   0  0  0  0  0  0  0  0  0  0  0  0
   12.9239   -4.2029   -7.7035 C   0  0  0  0  0  0  0  0  0  0  0  0
   13.9738   -4.9769   -8.3893 C   0  0  2  0  0  0  0  0  0  0  0  0
   14.4115   -6.1666   -7.5165 C   0  0  0  0  0  0  0  0  0  0  0  0
   15.0810   -4.3006   -9.0429 C   0  0  2  0  0  0  0  0  0  0  0  0
   16.0897   -5.3099   -9.5218 N   0  0  0  0  0  0  0  0  0  0  0  0
   15.7195   -3.1024   -8.5829 C   0  0  0  0  0  0  0  0  0  0  0  0
   16.9560   -3.1163   -8.2395 O   0  0  0  0  0  0  0  0  0  0  0  0
   15.1418   -1.8603   -8.4626 O   0  0  0  0  0  0  0  0  0  0  0  0
  2  4  1  0
  2  1  1  6
  3  2  1  0
  4  6  1  0
  4  5  1  1
  6  7  2  0
  8  6  1  0
  8  9  1  0
  9 16  1  0
  9 10  1  6
 10 11  1  0
 11 12  2  0
 12 13  1  0
 14 13  1  0
 15 11  1  0
 15 14  2  0
 16 17  2  0
 19 20  1  0
 19 18  1  0
 20 22  1  0
 20 21  1  1
 22 23  1  1
 22 24  1  0
 23 16  1  0
 24 25  2  0
 24 26  1  0
M  END
$$$$
