VHI.pdb
     RDKit          3D

 26 26  0  0  1  0  0  0  0  0999 V2000
   19.0934  -15.7482  -18.7082 C   0  0  0  0  0  0  0  0  0  0  0  0
   19.7068  -14.7701  -17.7217 C   0  0  1  0  0  0  0  0  0  0  0  0
   18.9869  -14.8968  -16.4035 C   0  0  0  0  0  0  0  0  0  0  0  0
   21.1539  -15.1715  -17.5438 C   0  0  2  0  0  0  0  0  0  0  0  0
   21.2902  -16.5191  -17.0589 N   0  0  0  0  0  0  0  0  0  0  0  0
   21.8864  -14.2510  -16.6358 C   0  0  0  0  0  0  0  0  0  0  0  0
   22.7667  -14.6989  -15.8240 O   0  0  0  0  0  0  0  0  0  0  0  0
   21.6469  -12.8791  -16.6319 N   0  0  0  0  0  0  0  0  0  0  0  0
   22.5552  -11.9227  -15.8638 C   0  0  1  0  0  0  0  0  0  0  0  0
   23.8483  -11.9411  -16.5925 C   0  0  0  0  0  0  0  0  0  0  0  0
   24.8558  -12.9308  -16.2128 C   0  0  0  0  0  0  0  0  0  0  0  0
   25.0293  -13.6427  -15.0541 C   0  0  0  0  0  0  0  0  0  0  0  0
   26.0458  -14.5330  -15.1822 N   0  0  0  0  0  0  0  0  0  0  0  0
   26.5051  -14.3776  -16.4197 C   0  0  0  0  0  0  0  0  0  0  0  0
   25.8196  -13.4338  -17.0586 N   0  0  0  0  0  0  0  0  0  0  0  0
   21.7909  -10.6274  -16.0091 C   0  0  0  0  0  0  0  0  0  0  0  0
   21.5529  -10.2964  -17.2383 O   0  0  0  0  0  0  0  0  0  0  0  0
   17.0558   -9.8666  -15.7449 C   0  0  0  0  0  0  0  0  0  0  0  0
   18.4592   -9.5192  -16.0562 C   0  0  0  0  0  0  0  0  0  0  0  0
   19.2056   -8.6205  -15.1579 C   0  0  2  0  0  0  0  0  0  0  0  0
   18.4605   -7.2823  -15.0071 C   0  0  0  0  0  0  0  0  0  0  0  0
   20.6440   -8.4697  -15.2938 C   0  0  2  0  0  0  0  0  0  0  0  0
   21.3276   -9.7809  -15.0129 N   0  0  0  0  0  0  0  0  0  0  0  0
   21.4193   -7.3636  -14.8136 C   0  0  0  0  0  0  0  0  0  0  0  0
   21.3854   -6.2341  -15.4220 O   0  0  0  0  0  0  0  0  0  0  0  0
   22.2400   -7.3558  -13.7102 O   0  0  0  0  0  0  0  0  0  0  0  0
  2  4  1  0
  2  1  1  6
  3  2  1  0
  4  6  1  0
  4  5  1  1
  6  7  2  0
  8  6  1  0
  8  9  1  0
  9 16  1  0
  9 10  1  6
 10 11  1  0
 11 12  2  0
 12 13  1  0
 14 13  1  0
 15 11  1  0
 15 14  2  0
 16 17  2  0
 19 20  1  0
 19 18  1  0
 20 22  1  0
 20 21  1  6
 22 23  1  1
 22 24  1  0
 23 16  1  0
 24 25  2  0
 24 26  1  0
M  END
$$$$
