VHI.pdb
     RDKit          3D

 26 26  0  0  1  0  0  0  0  0999 V2000
   26.5978  -16.9097  -14.3701 C   0  0  0  0  0  0  0  0  0  0  0  0
   26.3926  -16.3354  -15.7608 C   0  0  1  0  0  0  0  0  0  0  0  0
   26.9158  -14.9220  -15.7828 C   0  0  0  0  0  0  0  0  0  0  0  0
   27.2028  -17.1855  -16.7135 C   0  0  2  0  0  0  0  0  0  0  0  0
   27.2456  -16.6286  -18.0394 N   0  0  0  0  0  0  0  0  0  0  0  0
   26.7012  -18.5822  -16.7882 C   0  0  0  0  0  0  0  0  0  0  0  0
   25.6886  -18.8741  -17.5122 O   0  0  0  0  0  0  0  0  0  0  0  0
   27.3061  -19.6183  -16.0810 N   0  0  0  0  0  0  0  0  0  0  0  0
   26.7681  -21.0447  -16.1585 C   0  0  1  0  0  0  0  0  0  0  0  0
   27.9688  -21.9099  -16.2743 C   0  0  0  0  0  0  0  0  0  0  0  0
   27.7944  -23.3617  -16.2531 C   0  0  0  0  0  0  0  0  0  0  0  0
   26.6619  -24.1341  -16.2329 C   0  0  0  0  0  0  0  0  0  0  0  0
   26.9747  -25.4518  -16.3234 N   0  0  0  0  0  0  0  0  0  0  0  0
   28.3006  -25.5014  -16.4013 C   0  0  0  0  0  0  0  0  0  0  0  0
   28.8180  -24.2768  -16.3625 N   0  0  0  0  0  0  0  0  0  0  0  0
   26.0625  -21.1544  -14.8270 C   0  0  0  0  0  0  0  0  0  0  0  0
   26.8473  -21.0122  -13.8066 O   0  0  0  0  0  0  0  0  0  0  0  0
   26.1523  -20.8966   -9.9661 C   0  0  0  0  0  0  0  0  0  0  0  0
   25.4827  -21.6681  -11.0355 C   0  0  0  0  0  0  0  0  0  0  0  0
   24.9168  -20.9635  -12.1995 C   0  0  2  0  0  0  0  0  0  0  0  0
   24.2310  -19.6613  -11.7495 C   0  0  0  0  0  0  0  0  0  0  0  0
   24.1697  -21.6912  -13.2108 C   0  0  2  0  0  0  0  0  0  0  0  0
   24.7168  -21.3797  -14.5780 N   0  0  0  0  0  0  0  0  0  0  0  0
   22.7461  -21.8562  -13.2435 C   0  0  0  0  0  0  0  0  0  0  0  0
   22.1028  -22.1598  -12.1753 O   0  0  0  0  0  0  0  0  0  0  0  0
   21.9297  -21.7139  -14.3409 O   0  0  0  0  0  0  0  0  0  0  0  0
  2  4  1  0
  2  1  1  1
  3  2  1  0
  4  6  1  0
  4  5  1  6
  6  7  2  0
  8  6  1  0
  8  9  1  0
  9 16  1  0
  9 10  1  1
 10 11  1  0
 11 12  2  0
 12 13  1  0
 14 13  1  0
 15 11  1  0
 15 14  2  0
 16 17  2  0
 19 20  1  0
 19 18  1  0
 20 22  1  0
 20 21  1  1
 22 23  1  6
 22 24  1  0
 23 16  1  0
 24 25  2  0
 24 26  1  0
M  END
$$$$
