VHI.pdb
     RDKit          3D

 26 26  0  0  1  0  0  0  0  0999 V2000
   29.0918  -19.2071  -16.2866 C   0  0  0  0  0  0  0  0  0  0  0  0
   27.8870  -18.9803  -15.3904 C   0  0  1  0  0  0  0  0  0  0  0  0
   26.6713  -19.5749  -16.0540 C   0  0  0  0  0  0  0  0  0  0  0  0
   28.1579  -19.7093  -14.0935 C   0  0  2  0  0  0  0  0  0  0  0  0
   28.2845  -21.1299  -14.2828 N   0  0  0  0  0  0  0  0  0  0  0  0
   27.1132  -19.4457  -13.0701 C   0  0  0  0  0  0  0  0  0  0  0  0
   26.8030  -18.2480  -12.7478 O   0  0  0  0  0  0  0  0  0  0  0  0
   26.4373  -20.4801  -12.4277 N   0  0  0  0  0  0  0  0  0  0  0  0
   25.2821  -20.1929  -11.4722 C   0  0  1  0  0  0  0  0  0  0  0  0
   24.1660  -21.0539  -11.9377 C   0  0  0  0  0  0  0  0  0  0  0  0
   23.2956  -20.5616  -13.0048 C   0  0  0  0  0  0  0  0  0  0  0  0
   23.3527  -19.4194  -13.7609 C   0  0  0  0  0  0  0  0  0  0  0  0
   22.3868  -19.4230  -14.7145 N   0  0  0  0  0  0  0  0  0  0  0  0
   21.7288  -20.5667  -14.5545 C   0  0  0  0  0  0  0  0  0  0  0  0
   22.2439  -21.2663  -13.5475 N   0  0  0  0  0  0  0  0  0  0  0  0
   25.8849  -20.6321  -10.1582 C   0  0  0  0  0  0  0  0  0  0  0  0
   26.6586  -21.6658  -10.2580 O   0  0  0  0  0  0  0  0  0  0  0  0
   29.0128  -18.7492   -6.4432 C   0  0  0  0  0  0  0  0  0  0  0  0
   28.1539  -19.6061   -7.2889 C   0  0  0  0  0  0  0  0  0  0  0  0
   26.8630  -20.0881   -6.7666 C   0  0  2  0  0  0  0  0  0  0  0  0
   27.0563  -20.7229   -5.3779 C   0  0  0  0  0  0  0  0  0  0  0  0
   25.9528  -20.8312   -7.6208 C   0  0  2  0  0  0  0  0  0  0  0  0
   25.7144  -20.0744   -8.8998 N   0  0  0  0  0  0  0  0  0  0  0  0
   24.7680  -21.5133   -7.1894 C   0  0  0  0  0  0  0  0  0  0  0  0
   23.6082  -21.0555   -7.4931 O   0  0  0  0  0  0  0  0  0  0  0  0
   24.7125  -22.6727   -6.4519 O   0  0  0  0  0  0  0  0  0  0  0  0
  2  4  1  0
  2  1  1  6
  3  2  1  0
  4  6  1  0
  4  5  1  6
  6  7  2  0
  8  6  1  0
  8  9  1  0
  9 16  1  0
  9 10  1  6
 10 11  1  0
 11 12  2  0
 12 13  1  0
 14 13  1  0
 15 11  1  0
 15 14  2  0
 16 17  2  0
 19 20  1  0
 19 18  1  0
 20 22  1  0
 20 21  1  1
 22 23  1  6
 22 24  1  0
 23 16  1  0
 24 25  2  0
 24 26  1  0
M  END
$$$$
