VHI.pdb
     RDKit          3D

 26 26  0  0  1  0  0  0  0  0999 V2000
   21.6711  -19.8146  -13.8057 C   0  0  0  0  0  0  0  0  0  0  0  0
   22.9689  -20.5033  -13.4215 C   0  0  1  0  0  0  0  0  0  0  0  0
   24.1082  -19.5379  -13.6263 C   0  0  0  0  0  0  0  0  0  0  0  0
   22.8653  -20.8534  -11.9541 C   0  0  2  0  0  0  0  0  0  0  0  0
   22.5026  -19.7188  -11.1472 N   0  0  0  0  0  0  0  0  0  0  0  0
   24.1221  -21.4446  -11.4258 C   0  0  0  0  0  0  0  0  0  0  0  0
   24.6280  -22.4889  -11.9627 O   0  0  0  0  0  0  0  0  0  0  0  0
   24.7926  -20.8922  -10.3373 N   0  0  0  0  0  0  0  0  0  0  0  0
   26.2115  -21.3282   -9.9816 C   0  0  1  0  0  0  0  0  0  0  0  0
   27.0344  -20.9888  -11.1695 C   0  0  0  0  0  0  0  0  0  0  0  0
   28.4789  -21.2094  -11.1110 C   0  0  0  0  0  0  0  0  0  0  0  0
   29.2685  -21.7607  -10.1353 C   0  0  0  0  0  0  0  0  0  0  0  0
   30.5557  -21.8594  -10.5545 N   0  0  0  0  0  0  0  0  0  0  0  0
   30.5689  -21.3716  -11.7908 C   0  0  0  0  0  0  0  0  0  0  0  0
   29.3510  -20.9772  -12.1516 N   0  0  0  0  0  0  0  0  0  0  0  0
   26.4841  -20.4537   -8.7800 C   0  0  0  0  0  0  0  0  0  0  0  0
   25.8539  -19.3226   -8.8033 O   0  0  0  0  0  0  0  0  0  0  0  0
   28.2057  -22.2969   -3.7338 C   0  0  0  0  0  0  0  0  0  0  0  0
   27.5205  -21.5884   -4.8365 C   0  0  0  0  0  0  0  0  0  0  0  0
   28.1466  -20.3992   -5.4410 C   0  0  2  0  0  0  0  0  0  0  0  0
   28.6191  -19.4315   -4.3415 C   0  0  0  0  0  0  0  0  0  0  0  0
   27.5237  -19.7315   -6.5708 C   0  0  2  0  0  0  0  0  0  0  0  0
   27.3012  -20.7133   -7.6898 N   0  0  0  0  0  0  0  0  0  0  0  0
   27.8737  -18.4360   -7.0751 C   0  0  0  0  0  0  0  0  0  0  0  0
   28.6705  -18.3219   -8.0747 O   0  0  0  0  0  0  0  0  0  0  0  0
   27.4305  -17.2243   -6.5994 O   0  0  0  0  0  0  0  0  0  0  0  0
  2  4  1  0
  2  1  1  1
  3  2  1  0
  4  6  1  0
  4  5  1  1
  6  7  2  0
  8  6  1  0
  8  9  1  0
  9 16  1  0
  9 10  1  6
 10 11  1  0
 11 12  2  0
 12 13  1  0
 14 13  1  0
 15 11  1  0
 15 14  2  0
 16 17  2  0
 19 20  1  0
 19 18  1  0
 20 22  1  0
 20 21  1  1
 22 23  1  6
 22 24  1  0
 23 16  1  0
 24 25  2  0
 24 26  1  0
M  END
$$$$
