VHI.pdb
     RDKit          3D

 26 26  0  0  1  0  0  0  0  0999 V2000
   30.4211  -21.3796  -18.0450 C   0  0  0  0  0  0  0  0  0  0  0  0
   29.8121  -22.7680  -18.1311 C   0  0  1  0  0  0  0  0  0  0  0  0
   30.9246  -23.7777  -18.2533 C   0  0  0  0  0  0  0  0  0  0  0  0
   29.0617  -23.0019  -16.8393 C   0  0  2  0  0  0  0  0  0  0  0  0
   28.5828  -24.3536  -16.7240 N   0  0  0  0  0  0  0  0  0  0  0  0
   27.9200  -22.0652  -16.6734 C   0  0  0  0  0  0  0  0  0  0  0  0
   28.1226  -20.8207  -16.4618 O   0  0  0  0  0  0  0  0  0  0  0  0
   26.5985  -22.4993  -16.7407 N   0  0  0  0  0  0  0  0  0  0  0  0
   25.4386  -21.5277  -16.5392 C   0  0  1  0  0  0  0  0  0  0  0  0
   24.3747  -21.9913  -17.4648 C   0  0  0  0  0  0  0  0  0  0  0  0
   23.0371  -21.4122  -17.3455 C   0  0  0  0  0  0  0  0  0  0  0  0
   22.5373  -20.4642  -16.4906 C   0  0  0  0  0  0  0  0  0  0  0  0
   21.2552  -20.1537  -16.8102 N   0  0  0  0  0  0  0  0  0  0  0  0
   20.9559  -20.9061  -17.8642 C   0  0  0  0  0  0  0  0  0  0  0  0
   21.9929  -21.6649  -18.2075 N   0  0  0  0  0  0  0  0  0  0  0  0
   25.1229  -21.7614  -15.0802 C   0  0  0  0  0  0  0  0  0  0  0  0
   25.3212  -22.9808  -14.6917 O   0  0  0  0  0  0  0  0  0  0  0  0
   26.7076  -21.0031   -9.6145 C   0  0  0  0  0  0  0  0  0  0  0  0
   25.6993  -21.5628  -10.5404 C   0  0  0  0  0  0  0  0  0  0  0  0
   25.6304  -21.0722  -11.9283 C   0  0  2  0  0  0  0  0  0  0  0  0
   26.2633  -19.6729  -12.0284 C   0  0  0  0  0  0  0  0  0  0  0  0
   24.4072  -21.2104  -12.6997 C   0  0  2  0  0  0  0  0  0  0  0  0
   24.6635  -20.8522  -14.1390 N   0  0  0  0  0  0  0  0  0  0  0  0
   23.1016  -20.7907  -12.2819 C   0  0  0  0  0  0  0  0  0  0  0  0
   22.5757  -19.7255  -12.7674 O   0  0  0  0  0  0  0  0  0  0  0  0
   22.2866  -21.4285  -11.3764 O   0  0  0  0  0  0  0  0  0  0  0  0
  2  4  1  0
  2  1  1  1
  3  2  1  0
  4  6  1  0
  4  5  1  6
  6  7  2  0
  8  6  1  0
  8  9  1  0
  9 16  1  0
  9 10  1  6
 10 11  1  0
 11 12  2  0
 12 13  1  0
 14 13  1  0
 15 11  1  0
 15 14  2  0
 16 17  2  0
 19 20  1  0
 19 18  1  0
 20 22  1  0
 20 21  1  1
 22 23  1  6
 22 24  1  0
 23 16  1  0
 24 25  2  0
 24 26  1  0
M  END
$$$$
