VHI.pdb
     RDKit          3D

 26 26  0  0  1  0  0  0  0  0999 V2000
   29.0264  -19.2598  -13.5097 C   0  0  0  0  0  0  0  0  0  0  0  0
   28.2983  -18.9572  -14.8075 C   0  0  1  0  0  0  0  0  0  0  0  0
   29.1925  -19.3296  -15.9624 C   0  0  0  0  0  0  0  0  0  0  0  0
   27.0599  -19.8246  -14.8316 C   0  0  2  0  0  0  0  0  0  0  0  0
   26.3455  -19.7206  -16.0761 N   0  0  0  0  0  0  0  0  0  0  0  0
   26.1337  -19.5156  -13.7114 C   0  0  0  0  0  0  0  0  0  0  0  0
   25.6056  -18.3563  -13.6021 O   0  0  0  0  0  0  0  0  0  0  0  0
   25.8067  -20.4647  -12.7461 N   0  0  0  0  0  0  0  0  0  0  0  0
   24.7751  -20.1633  -11.6622 C   0  0  1  0  0  0  0  0  0  0  0  0
   23.5816  -20.9688  -12.0232 C   0  0  0  0  0  0  0  0  0  0  0  0
   22.6600  -20.4476  -13.0319 C   0  0  0  0  0  0  0  0  0  0  0  0
   22.0375  -19.2312  -13.1427 C   0  0  0  0  0  0  0  0  0  0  0  0
   21.3439  -19.1480  -14.3064 N   0  0  0  0  0  0  0  0  0  0  0  0
   21.5345  -20.3106  -14.9216 C   0  0  0  0  0  0  0  0  0  0  0  0
   22.3120  -21.1049  -14.1913 N   0  0  0  0  0  0  0  0  0  0  0  0
   25.5000  -20.6626  -10.4340 C   0  0  0  0  0  0  0  0  0  0  0  0
   26.1104  -21.7911  -10.6104 O   0  0  0  0  0  0  0  0  0  0  0  0
   28.6627  -19.7001   -5.2987 C   0  0  0  0  0  0  0  0  0  0  0  0
   27.6953  -20.5419   -6.0354 C   0  0  0  0  0  0  0  0  0  0  0  0
   27.0186  -20.0031   -7.2285 C   0  0  2  0  0  0  0  0  0  0  0  0
   26.5476  -18.5617   -6.9657 C   0  0  0  0  0  0  0  0  0  0  0  0
   26.0479  -20.8062   -7.9517 C   0  0  2  0  0  0  0  0  0  0  0  0
   25.5873  -20.0719   -9.1822 N   0  0  0  0  0  0  0  0  0  0  0  0
   24.9798  -21.5600   -7.3634 C   0  0  0  0  0  0  0  0  0  0  0  0
   23.7577  -21.2595   -7.6148 O   0  0  0  0  0  0  0  0  0  0  0  0
   25.1059  -22.6367   -6.5172 O   0  0  0  0  0  0  0  0  0  0  0  0
  2  4  1  0
  2  1  1  1
  3  2  1  0
  4  6  1  0
  4  5  1  6
  6  7  2  0
  8  6  1  0
  8  9  1  0
  9 16  1  0
  9 10  1  6
 10 11  1  0
 11 12  2  0
 12 13  1  0
 14 13  1  0
 15 11  1  0
 15 14  2  0
 16 17  2  0
 19 20  1  0
 19 18  1  0
 20 22  1  0
 20 21  1  1
 22 23  1  6
 22 24  1  0
 23 16  1  0
 24 25  2  0
 24 26  1  0
M  END
$$$$
