VHI.pdb
     RDKit          3D

 26 26  0  0  1  0  0  0  0  0999 V2000
   27.7923  -15.7365  -16.8241 C   0  0  0  0  0  0  0  0  0  0  0  0
   27.5751  -17.1547  -17.3216 C   0  0  1  0  0  0  0  0  0  0  0  0
   28.6055  -17.4600  -18.3785 C   0  0  0  0  0  0  0  0  0  0  0  0
   27.7816  -18.0740  -16.1388 C   0  0  2  0  0  0  0  0  0  0  0  0
   28.0229  -19.4341  -16.5411 N   0  0  0  0  0  0  0  0  0  0  0  0
   26.6356  -18.0420  -15.1934 C   0  0  0  0  0  0  0  0  0  0  0  0
   26.1839  -16.9299  -14.7531 O   0  0  0  0  0  0  0  0  0  0  0  0
   26.0139  -19.2079  -14.7534 N   0  0  0  0  0  0  0  0  0  0  0  0
   24.8239  -19.1546  -13.7991 C   0  0  1  0  0  0  0  0  0  0  0  0
   23.7161  -19.8337  -14.5168 C   0  0  0  0  0  0  0  0  0  0  0  0
   22.4529  -20.0540  -13.8136 C   0  0  0  0  0  0  0  0  0  0  0  0
   22.0215  -19.6359  -12.5813 C   0  0  0  0  0  0  0  0  0  0  0  0
   20.7275  -19.9908  -12.3769 N   0  0  0  0  0  0  0  0  0  0  0  0
   20.3515  -20.6285  -13.4808 C   0  0  0  0  0  0  0  0  0  0  0  0
   21.3531  -20.6829  -14.3542 N   0  0  0  0  0  0  0  0  0  0  0  0
   25.3646  -19.9406  -12.6273 C   0  0  0  0  0  0  0  0  0  0  0  0
   26.2166  -20.8569  -12.9615 O   0  0  0  0  0  0  0  0  0  0  0  0
   27.7423  -18.1654   -8.2976 C   0  0  0  0  0  0  0  0  0  0  0  0
   27.2422  -19.0220   -9.3945 C   0  0  0  0  0  0  0  0  0  0  0  0
   26.1662  -19.9936   -9.1299 C   0  0  2  0  0  0  0  0  0  0  0  0
   26.5246  -20.8635   -7.9119 C   0  0  0  0  0  0  0  0  0  0  0  0
   25.5647  -20.7431  -10.2193 C   0  0  2  0  0  0  0  0  0  0  0  0
   25.0669  -19.7985  -11.2802 N   0  0  0  0  0  0  0  0  0  0  0  0
   24.6953  -21.8741  -10.0780 C   0  0  0  0  0  0  0  0  0  0  0  0
   23.4218  -21.7256  -10.1365 O   0  0  0  0  0  0  0  0  0  0  0  0
   25.0760  -23.1811   -9.8834 O   0  0  0  0  0  0  0  0  0  0  0  0
  2  4  1  0
  2  1  1  1
  3  2  1  0
  4  6  1  0
  4  5  1  6
  6  7  2  0
  8  6  1  0
  8  9  1  0
  9 16  1  0
  9 10  1  6
 10 11  1  0
 11 12  2  0
 12 13  1  0
 14 13  1  0
 15 11  1  0
 15 14  2  0
 16 17  2  0
 19 20  1  0
 19 18  1  0
 20 22  1  0
 20 21  1  1
 22 23  1  1
 22 24  1  0
 23 16  1  0
 24 25  2  0
 24 26  1  0
M  END
$$$$
