VHI.pdb
     RDKit          3D

 26 26  0  0  1  0  0  0  0  0999 V2000
   13.8801  -12.5540  -14.5695 C   0  0  0  0  0  0  0  0  0  0  0  0
   15.1913  -11.9211  -15.0009 C   0  0  1  0  0  0  0  0  0  0  0  0
   16.3286  -12.7019  -14.3935 C   0  0  0  0  0  0  0  0  0  0  0  0
   15.2581  -12.0273  -16.5079 C   0  0  2  0  0  0  0  0  0  0  0  0
   15.1642  -13.3888  -16.9632 N   0  0  0  0  0  0  0  0  0  0  0  0
   16.4924  -11.4127  -17.0619 C   0  0  0  0  0  0  0  0  0  0  0  0
   17.4675  -12.1431  -17.4497 O   0  0  0  0  0  0  0  0  0  0  0  0
   16.6362  -10.0325  -17.1800 N   0  0  0  0  0  0  0  0  0  0  0  0
   17.8906   -9.4208  -17.7981 C   0  0  1  0  0  0  0  0  0  0  0  0
   17.4080   -8.2765  -18.6112 C   0  0  0  0  0  0  0  0  0  0  0  0
   18.3891   -7.4435  -19.3055 C   0  0  0  0  0  0  0  0  0  0  0  0
   19.6921   -7.1425  -19.0034 C   0  0  0  0  0  0  0  0  0  0  0  0
   20.2595   -6.4068  -19.9929 N   0  0  0  0  0  0  0  0  0  0  0  0
   19.3121   -6.2502  -20.9119 C   0  0  0  0  0  0  0  0  0  0  0  0
   18.1890   -6.8542  -20.5343 N   0  0  0  0  0  0  0  0  0  0  0  0
   18.6478   -9.0111  -16.5563 C   0  0  0  0  0  0  0  0  0  0  0  0
   17.8846   -8.7198  -15.5514 O   0  0  0  0  0  0  0  0  0  0  0  0
   23.0320  -10.6062  -12.8084 C   0  0  0  0  0  0  0  0  0  0  0  0
   22.2963   -9.4499  -13.3644 C   0  0  0  0  0  0  0  0  0  0  0  0
   21.3973   -9.6416  -14.5162 C   0  0  2  0  0  0  0  0  0  0  0  0
   22.0856  -10.5047  -15.5885 C   0  0  0  0  0  0  0  0  0  0  0  0
   20.6527   -8.5216  -15.0652 C   0  0  2  0  0  0  0  0  0  0  0  0
   20.0192   -8.9163  -16.3723 N   0  0  0  0  0  0  0  0  0  0  0  0
   21.0892   -7.1563  -15.0882 C   0  0  0  0  0  0  0  0  0  0  0  0
   21.4627   -6.6124  -16.1889 O   0  0  0  0  0  0  0  0  0  0  0  0
   21.1555   -6.2990  -14.0149 O   0  0  0  0  0  0  0  0  0  0  0  0
  2  4  1  0
  2  1  1  1
  3  2  1  0
  4  6  1  0
  4  5  1  1
  6  7  2  0
  8  6  1  0
  8  9  1  0
  9 16  1  0
  9 10  1  6
 10 11  1  0
 11 12  2  0
 12 13  1  0
 14 13  1  0
 15 11  1  0
 15 14  2  0
 16 17  2  0
 19 20  1  0
 19 18  1  0
 20 22  1  0
 20 21  1  6
 22 23  1  6
 22 24  1  0
 23 16  1  0
 24 25  2  0
 24 26  1  0
M  END
$$$$
