VHI.pdb
     RDKit          3D

 26 26  0  0  1  0  0  0  0  0999 V2000
   16.0396  -13.2233  -14.5308 C   0  0  0  0  0  0  0  0  0  0  0  0
   16.0915  -11.7580  -14.1355 C   0  0  1  0  0  0  0  0  0  0  0  0
   15.8570  -10.9167  -15.3639 C   0  0  0  0  0  0  0  0  0  0  0  0
   14.9701  -11.5273  -13.1475 C   0  0  2  0  0  0  0  0  0  0  0  0
   13.6910  -11.9255  -13.6719 N   0  0  0  0  0  0  0  0  0  0  0  0
   14.8942  -10.1117  -12.7019 C   0  0  0  0  0  0  0  0  0  0  0  0
   14.0078   -9.3238  -13.1796 O   0  0  0  0  0  0  0  0  0  0  0  0
   15.7749   -9.5913  -11.7568 N   0  0  0  0  0  0  0  0  0  0  0  0
   15.6665   -8.1411  -11.2930 C   0  0  1  0  0  0  0  0  0  0  0  0
   15.1751   -8.2135   -9.8941 C   0  0  0  0  0  0  0  0  0  0  0  0
   15.0622   -6.9760   -9.1232 C   0  0  0  0  0  0  0  0  0  0  0  0
   15.7920   -6.5037   -8.0631 C   0  0  0  0  0  0  0  0  0  0  0  0
   15.3977   -5.2494   -7.7261 N   0  0  0  0  0  0  0  0  0  0  0  0
   14.4239   -4.9390   -8.5758 C   0  0  0  0  0  0  0  0  0  0  0  0
   14.2004   -5.9429   -9.4190 N   0  0  0  0  0  0  0  0  0  0  0  0
   17.1058   -7.6969  -11.4122 C   0  0  0  0  0  0  0  0  0  0  0  0
   17.9362   -8.4305  -10.7418 O   0  0  0  0  0  0  0  0  0  0  0  0
   21.9324   -8.6600  -13.5515 C   0  0  0  0  0  0  0  0  0  0  0  0
   21.2491   -7.4767  -12.9857 C   0  0  0  0  0  0  0  0  0  0  0  0
   19.7852   -7.4900  -12.8170 C   0  0  2  0  0  0  0  0  0  0  0  0
   19.1096   -8.0350  -14.0879 C   0  0  0  0  0  0  0  0  0  0  0  0
   19.0985   -6.3464  -12.2417 C   0  0  2  0  0  0  0  0  0  0  0  0
   17.6247   -6.6322  -12.1339 N   0  0  0  0  0  0  0  0  0  0  0  0
   19.3410   -4.9720  -12.5695 C   0  0  0  0  0  0  0  0  0  0  0  0
   20.5242   -4.4826  -12.4821 O   0  0  0  0  0  0  0  0  0  0  0  0
   18.4104   -4.0558  -13.0002 O   0  0  0  0  0  0  0  0  0  0  0  0
  2  4  1  0
  2  1  1  6
  3  2  1  0
  4  6  1  0
  4  5  1  6
  6  7  2  0
  8  6  1  0
  8  9  1  0
  9 16  1  0
  9 10  1  1
 10 11  1  0
 11 12  2  0
 12 13  1  0
 14 13  1  0
 15 11  1  0
 15 14  2  0
 16 17  2  0
 19 20  1  0
 19 18  1  0
 20 22  1  0
 20 21  1  6
 22 23  1  6
 22 24  1  0
 23 16  1  0
 24 25  2  0
 24 26  1  0
M  END
$$$$
