VHI.pdb
     RDKit          3D

 26 26  0  0  1  0  0  0  0  0999 V2000
   27.3214  -24.2801  -19.5526 C   0  0  0  0  0  0  0  0  0  0  0  0
   27.1527  -22.9451  -18.8488 C   0  0  1  0  0  0  0  0  0  0  0  0
   25.7163  -22.5074  -18.9790 C   0  0  0  0  0  0  0  0  0  0  0  0
   27.4782  -23.1711  -17.3894 C   0  0  2  0  0  0  0  0  0  0  0  0
   26.5945  -24.1259  -16.7752 N   0  0  0  0  0  0  0  0  0  0  0  0
   27.4531  -21.9095  -16.6046 C   0  0  0  0  0  0  0  0  0  0  0  0
   28.2127  -20.9303  -16.9189 O   0  0  0  0  0  0  0  0  0  0  0  0
   26.6112  -21.7439  -15.5076 N   0  0  0  0  0  0  0  0  0  0  0  0
   26.4438  -20.3809  -14.8413 C   0  0  1  0  0  0  0  0  0  0  0  0
   25.8064  -19.5191  -15.8682 C   0  0  0  0  0  0  0  0  0  0  0  0
   26.6309  -18.5397  -16.5749 C   0  0  0  0  0  0  0  0  0  0  0  0
   27.9702  -18.2590  -16.4903 C   0  0  0  0  0  0  0  0  0  0  0  0
   28.3288  -17.3331  -17.4158 N   0  0  0  0  0  0  0  0  0  0  0  0
   27.2148  -17.0375  -18.0779 C   0  0  0  0  0  0  0  0  0  0  0  0
   26.1882  -17.7372  -17.6032 N   0  0  0  0  0  0  0  0  0  0  0  0
   25.5308  -20.7376  -13.6914 C   0  0  0  0  0  0  0  0  0  0  0  0
   24.6741  -21.6669  -13.9734 O   0  0  0  0  0  0  0  0  0  0  0  0
   27.0519  -21.0587   -8.5397 C   0  0  0  0  0  0  0  0  0  0  0  0
   26.2880  -21.3251   -9.7778 C   0  0  0  0  0  0  0  0  0  0  0  0
   25.0589  -20.5613  -10.0562 C   0  0  2  0  0  0  0  0  0  0  0  0
   24.0343  -20.7751   -8.9278 C   0  0  0  0  0  0  0  0  0  0  0  0
   24.4684  -20.5720  -11.3834 C   0  0  2  0  0  0  0  0  0  0  0  0
   25.5056  -20.2055  -12.4108 N   0  0  0  0  0  0  0  0  0  0  0  0
   23.1807  -20.0468  -11.7315 C   0  0  0  0  0  0  0  0  0  0  0  0
   23.0719  -18.8653  -12.2206 O   0  0  0  0  0  0  0  0  0  0  0  0
   21.9722  -20.6912  -11.6078 O   0  0  0  0  0  0  0  0  0  0  0  0
  2  4  1  0
  2  1  1  6
  3  2  1  0
  4  6  1  0
  4  5  1  1
  6  7  2  0
  8  6  1  0
  8  9  1  0
  9 16  1  0
  9 10  1  6
 10 11  1  0
 11 12  2  0
 12 13  1  0
 14 13  1  0
 15 11  1  0
 15 14  2  0
 16 17  2  0
 19 20  1  0
 19 18  1  0
 20 22  1  0
 20 21  1  1
 22 23  1  6
 22 24  1  0
 23 16  1  0
 24 25  2  0
 24 26  1  0
M  END
$$$$
