ITE.pdb
     RDKit          3D

 25 24  0  0  1  0  0  0  0  0999 V2000
   21.9115  -12.5192  -20.8818 C   0  0  0  0  0  0  0  0  0  0  0  0
   21.5918  -12.6595  -19.4108 C   0  0  0  0  0  0  0  0  0  0  0  0
   21.1627  -11.3423  -18.8407 C   0  0  2  0  0  0  0  0  0  0  0  0
   22.2375  -10.3201  -19.1348 C   0  0  0  0  0  0  0  0  0  0  0  0
   20.8472  -11.4381  -17.3606 C   0  0  2  0  0  0  0  0  0  0  0  0
   19.8728  -12.5341  -17.2427 N   0  0  0  0  0  0  0  0  0  0  0  0
   20.2957  -10.1842  -16.8274 C   0  0  0  0  0  0  0  0  0  0  0  0
   19.4176   -9.6015  -17.5145 O   0  0  0  0  0  0  0  0  0  0  0  0
   18.2360   -9.5233  -13.9106 C   0  0  0  0  0  0  0  0  0  0  0  0
   19.4575   -8.6748  -13.7599 C   0  0  1  0  0  0  0  0  0  0  0  0
   20.3465   -9.2046  -12.8495 O   0  0  0  0  0  0  0  0  0  0  0  0
   20.0997   -8.3570  -15.0989 C   0  0  2  0  0  0  0  0  0  0  0  0
   20.6755   -9.5850  -15.6058 N   0  0  0  0  0  0  0  0  0  0  0  0
   21.1653   -7.3391  -14.9086 C   0  0  0  0  0  0  0  0  0  0  0  0
   22.3829   -7.6871  -15.0180 O   0  0  0  0  0  0  0  0  0  0  0  0
   20.8931   -5.9970  -14.6104 N   0  0  0  0  0  0  0  0  0  0  0  0
   21.9453   -4.9558  -14.4760 C   0  0  1  0  0  0  0  0  0  0  0  0
   21.8456   -4.1664  -15.7231 C   0  0  0  0  0  0  0  0  0  0  0  0
   22.6478   -2.9511  -15.9105 C   0  0  0  0  0  0  0  0  0  0  0  0
   22.2943   -2.0131  -16.9635 C   0  0  0  0  0  0  0  0  0  0  0  0
   21.4331   -2.3191  -17.8269 O   0  0  0  0  0  0  0  0  0  0  0  0
   21.6467   -4.2832  -13.2161 C   0  0  0  0  0  0  0  0  0  0  0  0
   20.5183   -4.3852  -12.6758 O   0  0  0  0  0  0  0  0  0  0  0  0
   22.8671   -0.7537  -17.0800 O   0  0  0  0  0  0  0  0  0  0  0  0
   22.5723   -3.5090  -12.5489 O   0  0  0  0  0  0  0  0  0  0  0  0
  2  1  1  0
  2  3  1  0
  3  5  1  0
  3  4  1  1
  5  7  1  0
  5  6  1  6
  7 13  1  0
  7  8  2  0
 10  9  1  6
 10 12  1  0
 10 11  1  0
 12 14  1  0
 12 13  1  1
 14 16  1  0
 15 14  2  0
 16 17  1  0
 17 22  1  0
 17 18  1  6
 18 19  1  0
 19 20  1  0
 20 21  2  0
 20 24  1  0
 22 25  1  0
 23 22  2  0
M  END
$$$$
