ITE.pdb
     RDKit          3D

 25 24  0  0  1  0  0  0  0  0999 V2000
   26.1073  -20.2268   -8.0353 C   0  0  0  0  0  0  0  0  0  0  0  0
   26.4083  -21.0238   -9.2843 C   0  0  0  0  0  0  0  0  0  0  0  0
   25.6755  -20.4520  -10.4591 C   0  0  2  0  0  0  0  0  0  0  0  0
   24.1918  -20.5093  -10.1723 C   0  0  0  0  0  0  0  0  0  0  0  0
   26.0402  -21.1524  -11.7536 C   0  0  2  0  0  0  0  0  0  0  0  0
   27.5090  -21.0994  -11.8218 N   0  0  0  0  0  0  0  0  0  0  0  0
   25.4353  -20.5041  -12.9261 C   0  0  0  0  0  0  0  0  0  0  0  0
   25.8799  -19.3739  -13.2541 O   0  0  0  0  0  0  0  0  0  0  0  0
   24.2189  -20.4587  -17.3660 C   0  0  0  0  0  0  0  0  0  0  0  0
   24.8484  -20.6410  -16.0224 C   0  0  1  0  0  0  0  0  0  0  0  0
   26.0009  -19.8974  -15.8856 O   0  0  0  0  0  0  0  0  0  0  0  0
   23.8586  -20.4128  -14.8934 C   0  0  2  0  0  0  0  0  0  0  0  0
   24.3958  -21.0517  -13.7103 N   0  0  0  0  0  0  0  0  0  0  0  0
   22.5515  -21.0233  -15.2491 C   0  0  0  0  0  0  0  0  0  0  0  0
   22.3689  -22.2640  -15.0418 O   0  0  0  0  0  0  0  0  0  0  0  0
   21.4955  -20.2916  -15.8090 N   0  0  0  0  0  0  0  0  0  0  0  0
   20.1579  -20.8710  -16.0993 C   0  0  1  0  0  0  0  0  0  0  0  0
   19.2033  -19.9266  -15.4785 C   0  0  0  0  0  0  0  0  0  0  0  0
   18.2254  -20.3890  -14.4859 C   0  0  0  0  0  0  0  0  0  0  0  0
   17.2886  -19.4407  -13.9056 C   0  0  0  0  0  0  0  0  0  0  0  0
   17.6952  -18.5311  -13.1388 O   0  0  0  0  0  0  0  0  0  0  0  0
   20.1231  -21.0226  -17.5501 C   0  0  0  0  0  0  0  0  0  0  0  0
   20.8173  -20.2909  -18.2973 O   0  0  0  0  0  0  0  0  0  0  0  0
   15.9231  -19.4757  -14.1545 O   0  0  0  0  0  0  0  0  0  0  0  0
   19.3407  -21.9669  -18.1805 O   0  0  0  0  0  0  0  0  0  0  0  0
  2  1  1  0
  2  3  1  0
  3  5  1  0
  3  4  1  1
  5  7  1  0
  5  6  1  6
  7 13  1  0
  7  8  2  0
 10  9  1  6
 10 12  1  0
 10 11  1  0
 12 14  1  0
 12 13  1  1
 14 16  1  0
 15 14  2  0
 16 17  1  0
 17 22  1  0
 17 18  1  6
 18 19  1  0
 19 20  1  0
 20 21  2  0
 20 24  1  0
 22 25  1  0
 23 22  2  0
M  END
$$$$
