ITE.pdb
     RDKit          3D

 25 24  0  0  1  0  0  0  0  0999 V2000
   27.4043  -18.7644   -7.2375 C   0  0  0  0  0  0  0  0  0  0  0  0
   26.4101  -19.8392   -7.6145 C   0  0  0  0  0  0  0  0  0  0  0  0
   26.2071  -19.8668   -9.0985 C   0  0  2  0  0  0  0  0  0  0  0  0
   25.7398  -18.4992   -9.5436 C   0  0  0  0  0  0  0  0  0  0  0  0
   25.2547  -20.9680   -9.5225 C   0  0  2  0  0  0  0  0  0  0  0  0
   25.8312  -22.2082   -8.9803 N   0  0  0  0  0  0  0  0  0  0  0  0
   25.1129  -21.0484  -10.9834 C   0  0  0  0  0  0  0  0  0  0  0  0
   26.1288  -21.3860  -11.6442 O   0  0  0  0  0  0  0  0  0  0  0  0
   23.2522  -23.3823  -12.9983 C   0  0  0  0  0  0  0  0  0  0  0  0
   22.7500  -22.0234  -13.3673 C   0  0  1  0  0  0  0  0  0  0  0  0
   21.5405  -21.7391  -12.7707 O   0  0  0  0  0  0  0  0  0  0  0  0
   23.7944  -20.9463  -13.1319 C   0  0  2  0  0  0  0  0  0  0  0  0
   23.9264  -20.7761  -11.7001 N   0  0  0  0  0  0  0  0  0  0  0  0
   23.3434  -19.6742  -13.7533 C   0  0  0  0  0  0  0  0  0  0  0  0
   22.7481  -18.8098  -13.0363 O   0  0  0  0  0  0  0  0  0  0  0  0
   23.5434  -19.3745  -15.1077 N   0  0  0  0  0  0  0  0  0  0  0  0
   23.1416  -18.0868  -15.7320 C   0  0  1  0  0  0  0  0  0  0  0  0
   23.9256  -18.0229  -16.9848 C   0  0  0  0  0  0  0  0  0  0  0  0
   23.2919  -18.2841  -18.2832 C   0  0  0  0  0  0  0  0  0  0  0  0
   24.1034  -18.2908  -19.4894 C   0  0  0  0  0  0  0  0  0  0  0  0
   24.6563  -19.3503  -19.8799 O   0  0  0  0  0  0  0  0  0  0  0  0
   21.6883  -18.1606  -15.8386 C   0  0  0  0  0  0  0  0  0  0  0  0
   21.0809  -19.2510  -15.7058 O   0  0  0  0  0  0  0  0  0  0  0  0
   24.3135  -17.1601  -20.2675 O   0  0  0  0  0  0  0  0  0  0  0  0
   20.9036  -17.0537  -16.0842 O   0  0  0  0  0  0  0  0  0  0  0  0
  2  1  1  0
  2  3  1  0
  3  5  1  0
  3  4  1  1
  5  7  1  0
  5  6  1  6
  7 13  1  0
  7  8  2  0
 10  9  1  1
 10 12  1  0
 10 11  1  0
 12 14  1  0
 12 13  1  1
 14 16  1  0
 15 14  2  0
 16 17  1  0
 17 22  1  0
 17 18  1  6
 18 19  1  0
 19 20  1  0
 20 21  2  0
 20 24  1  0
 22 25  1  0
 23 22  2  0
M  END
$$$$
