ITE.pdb
     RDKit          3D

 25 24  0  0  1  0  0  0  0  0999 V2000
   26.7037  -15.7107  -15.2125 C   0  0  0  0  0  0  0  0  0  0  0  0
   25.4058  -15.6974  -15.9878 C   0  0  0  0  0  0  0  0  0  0  0  0
   25.0053  -14.2911  -16.3134 C   0  0  2  0  0  0  0  0  0  0  0  0
   24.8640  -13.5215  -15.0194 C   0  0  0  0  0  0  0  0  0  0  0  0
   23.7459  -14.2384  -17.1563 C   0  0  2  0  0  0  0  0  0  0  0  0
   24.0462  -15.0422  -18.3514 N   0  0  0  0  0  0  0  0  0  0  0  0
   23.3809  -12.8631  -17.5253 C   0  0  0  0  0  0  0  0  0  0  0  0
   24.1879  -12.2268  -18.2509 O   0  0  0  0  0  0  0  0  0  0  0  0
   21.5059  -11.4044  -19.9017 C   0  0  0  0  0  0  0  0  0  0  0  0
   20.8792  -10.9014  -18.6411 C   0  0  1  0  0  0  0  0  0  0  0  0
   19.7319  -11.5951  -18.3211 O   0  0  0  0  0  0  0  0  0  0  0  0
   21.8736  -10.8402  -17.4950 C   0  0  2  0  0  0  0  0  0  0  0  0
   22.1967  -12.2032  -17.1282 N   0  0  0  0  0  0  0  0  0  0  0  0
   21.2565  -10.1380  -16.3401 C   0  0  0  0  0  0  0  0  0  0  0  0
   20.6035  -10.8104  -15.4815 O   0  0  0  0  0  0  0  0  0  0  0  0
   21.3588   -8.7538  -16.1463 N   0  0  0  0  0  0  0  0  0  0  0  0
   20.8315   -8.0511  -14.9474 C   0  0  1  0  0  0  0  0  0  0  0  0
   21.6925   -6.8560  -14.8109 C   0  0  0  0  0  0  0  0  0  0  0  0
   21.4505   -5.8716  -13.7488 C   0  0  0  0  0  0  0  0  0  0  0  0
   22.3202   -4.7124  -13.6331 C   0  0  0  0  0  0  0  0  0  0  0  0
   21.8331   -3.5593  -13.5155 O   0  0  0  0  0  0  0  0  0  0  0  0
   19.4148   -7.8439  -15.2285 C   0  0  0  0  0  0  0  0  0  0  0  0
   18.9924   -7.7505  -16.4068 O   0  0  0  0  0  0  0  0  0  0  0  0
   23.7058   -4.8008  -13.6429 O   0  0  0  0  0  0  0  0  0  0  0  0
   18.4661   -7.7434  -14.2329 O   0  0  0  0  0  0  0  0  0  0  0  0
  2  1  1  0
  2  3  1  0
  3  5  1  0
  3  4  1  1
  5  7  1  0
  5  6  1  6
  7 13  1  0
  7  8  2  0
 10  9  1  6
 10 12  1  0
 10 11  1  0
 12 14  1  0
 12 13  1  1
 14 16  1  0
 15 14  2  0
 16 17  1  0
 17 22  1  0
 17 18  1  6
 18 19  1  0
 19 20  1  0
 20 21  2  0
 20 24  1  0
 22 25  1  0
 23 22  2  0
M  END
$$$$
