ITE.pdb
     RDKit          3D

 25 24  0  0  1  0  0  0  0  0999 V2000
   15.3742  -15.2290  -16.6812 C   0  0  0  0  0  0  0  0  0  0  0  0
   16.8033  -15.2786  -17.1721 C   0  0  0  0  0  0  0  0  0  0  0  0
   17.6237  -14.2193  -16.5019 C   0  0  2  0  0  0  0  0  0  0  0  0
   16.9565  -12.8815  -16.7290 C   0  0  0  0  0  0  0  0  0  0  0  0
   19.0650  -14.2325  -16.9728 C   0  0  2  0  0  0  0  0  0  0  0  0
   19.5634  -15.5801  -16.6562 N   0  0  0  0  0  0  0  0  0  0  0  0
   19.8763  -13.2020  -16.3089 C   0  0  0  0  0  0  0  0  0  0  0  0
   20.0247  -13.2980  -15.0633 O   0  0  0  0  0  0  0  0  0  0  0  0
   22.6010  -10.8318  -18.3613 C   0  0  0  0  0  0  0  0  0  0  0  0
   22.6439  -11.0581  -16.8842 C   0  0  1  0  0  0  0  0  0  0  0  0
   23.4916  -10.1755  -16.2498 O   0  0  0  0  0  0  0  0  0  0  0  0
   21.2547  -11.0893  -16.2716 C   0  0  2  0  0  0  0  0  0  0  0  0
   20.5001  -12.1150  -16.9608 N   0  0  0  0  0  0  0  0  0  0  0  0
   20.6007   -9.7682  -16.4584 C   0  0  0  0  0  0  0  0  0  0  0  0
   19.7787   -9.6122  -17.4153 O   0  0  0  0  0  0  0  0  0  0  0  0
   20.8470   -8.6707  -15.6224 N   0  0  0  0  0  0  0  0  0  0  0  0
   20.1805   -7.3516  -15.7809 C   0  0  1  0  0  0  0  0  0  0  0  0
   18.7404   -7.6419  -15.6071 C   0  0  0  0  0  0  0  0  0  0  0  0
   17.7652   -6.5536  -15.4652 C   0  0  0  0  0  0  0  0  0  0  0  0
   16.3664   -6.8699  -15.2266 C   0  0  0  0  0  0  0  0  0  0  0  0
   15.9899   -8.0660  -15.1359 O   0  0  0  0  0  0  0  0  0  0  0  0
   20.8262   -6.4863  -14.7994 C   0  0  0  0  0  0  0  0  0  0  0  0
   20.5490   -5.2641  -14.7278 O   0  0  0  0  0  0  0  0  0  0  0  0
   15.3835   -5.8994  -15.0857 O   0  0  0  0  0  0  0  0  0  0  0  0
   21.7634   -6.9507  -13.9010 O   0  0  0  0  0  0  0  0  0  0  0  0
  2  1  1  0
  2  3  1  0
  3  5  1  0
  3  4  1  6
  5  7  1  0
  5  6  1  1
  7 13  1  0
  7  8  2  0
 10  9  1  6
 10 12  1  0
 10 11  1  0
 12 14  1  0
 12 13  1  6
 14 16  1  0
 15 14  2  0
 16 17  1  0
 17 22  1  0
 17 18  1  1
 18 19  1  0
 19 20  1  0
 20 21  2  0
 20 24  1  0
 22 25  1  0
 23 22  2  0
M  END
$$$$
