ITE.pdb
     RDKit          3D

 25 24  0  0  1  0  0  0  0  0999 V2000
   18.7302  -11.7830  -21.0998 C   0  0  0  0  0  0  0  0  0  0  0  0
   18.2979  -12.4791  -19.8292 C   0  0  0  0  0  0  0  0  0  0  0  0
   18.7322  -11.6947  -18.6291 C   0  0  2  0  0  0  0  0  0  0  0  0
   18.4055  -10.2373  -18.8655 C   0  0  0  0  0  0  0  0  0  0  0  0
   20.1978  -11.9124  -18.3065 C   0  0  2  0  0  0  0  0  0  0  0  0
   20.3499  -13.3685  -18.1607 N   0  0  0  0  0  0  0  0  0  0  0  0
   20.6063  -11.2151  -17.0786 C   0  0  0  0  0  0  0  0  0  0  0  0
   19.8835  -11.3681  -16.0603 O   0  0  0  0  0  0  0  0  0  0  0  0
   23.8054  -11.2775  -15.0040 C   0  0  0  0  0  0  0  0  0  0  0  0
   23.5424   -9.8788  -15.4619 C   0  0  1  0  0  0  0  0  0  0  0  0
   24.3662   -9.5121  -16.5044 O   0  0  0  0  0  0  0  0  0  0  0  0
   22.0717   -9.6428  -15.7576 C   0  0  2  0  0  0  0  0  0  0  0  0
   21.7452  -10.3886  -16.9549 N   0  0  0  0  0  0  0  0  0  0  0  0
   21.8382   -8.1930  -15.9850 C   0  0  0  0  0  0  0  0  0  0  0  0
   21.7947   -7.7505  -17.1758 O   0  0  0  0  0  0  0  0  0  0  0  0
   21.6611   -7.2763  -14.9399 N   0  0  0  0  0  0  0  0  0  0  0  0
   21.5016   -5.8134  -15.1488 C   0  0  1  0  0  0  0  0  0  0  0  0
   20.0561   -5.6322  -15.4061 C   0  0  0  0  0  0  0  0  0  0  0  0
   19.4623   -4.2902  -15.4512 C   0  0  0  0  0  0  0  0  0  0  0  0
   18.0308   -4.1456  -15.6599 C   0  0  0  0  0  0  0  0  0  0  0  0
   17.3053   -5.1588  -15.8261 O   0  0  0  0  0  0  0  0  0  0  0  0
   22.0640   -5.2010  -13.9499 C   0  0  0  0  0  0  0  0  0  0  0  0
   22.5136   -4.0291  -13.9678 O   0  0  0  0  0  0  0  0  0  0  0  0
   17.3897   -2.9143  -15.6870 O   0  0  0  0  0  0  0  0  0  0  0  0
   22.1321   -5.8597  -12.7404 O   0  0  0  0  0  0  0  0  0  0  0  0
  2  1  1  0
  2  3  1  0
  3  5  1  0
  3  4  1  6
  5  7  1  0
  5  6  1  1
  7 13  1  0
  7  8  2  0
 10  9  1  6
 10 12  1  0
 10 11  1  0
 12 14  1  0
 12 13  1  6
 14 16  1  0
 15 14  2  0
 16 17  1  0
 17 22  1  0
 17 18  1  1
 18 19  1  0
 19 20  1  0
 20 21  2  0
 20 24  1  0
 22 25  1  0
 23 22  2  0
M  END
$$$$
