ITE.pdb
     RDKit          3D

 25 24  0  0  1  0  0  0  0  0999 V2000
   19.7122  -18.6206  -17.9372 C   0  0  0  0  0  0  0  0  0  0  0  0
   18.9376  -17.9649  -16.8166 C   0  0  0  0  0  0  0  0  0  0  0  0
   18.5548  -16.5664  -17.1936 C   0  0  2  0  0  0  0  0  0  0  0  0
   19.8097  -15.8114  -17.5701 C   0  0  0  0  0  0  0  0  0  0  0  0
   17.7730  -15.8741  -16.0941 C   0  0  2  0  0  0  0  0  0  0  0  0
   16.6228  -16.7515  -15.8257 N   0  0  0  0  0  0  0  0  0  0  0  0
   17.3284  -14.5300  -16.4899 C   0  0  0  0  0  0  0  0  0  0  0  0
   16.9019  -14.3857  -17.6646 O   0  0  0  0  0  0  0  0  0  0  0  0
   15.9895  -11.8806  -13.7345 C   0  0  0  0  0  0  0  0  0  0  0  0
   15.6774  -11.7397  -15.1897 C   0  0  1  0  0  0  0  0  0  0  0  0
   15.1331  -10.5084  -15.4854 O   0  0  0  0  0  0  0  0  0  0  0  0
   16.8695  -12.0860  -16.0645 C   0  0  2  0  0  0  0  0  0  0  0  0
   17.3436  -13.3911  -15.6543 N   0  0  0  0  0  0  0  0  0  0  0  0
   17.9395  -11.0739  -15.8678 C   0  0  0  0  0  0  0  0  0  0  0  0
   19.0078  -11.4089  -15.2658 O   0  0  0  0  0  0  0  0  0  0  0  0
   17.8298   -9.7512  -16.3177 N   0  0  0  0  0  0  0  0  0  0  0  0
   18.8970   -8.7320  -16.1400 C   0  0  1  0  0  0  0  0  0  0  0  0
   19.6985   -8.8158  -17.3805 C   0  0  0  0  0  0  0  0  0  0  0  0
   19.2576   -8.1419  -18.6081 C   0  0  0  0  0  0  0  0  0  0  0  0
   20.0619   -8.2497  -19.8144 C   0  0  0  0  0  0  0  0  0  0  0  0
   19.5573   -8.6864  -20.8799 O   0  0  0  0  0  0  0  0  0  0  0  0
   18.1843   -7.4878  -15.8698 C   0  0  0  0  0  0  0  0  0  0  0  0
   18.7993   -6.4446  -15.5394 O   0  0  0  0  0  0  0  0  0  0  0  0
   21.4009   -7.8864  -19.8672 O   0  0  0  0  0  0  0  0  0  0  0  0
   16.8128   -7.3810  -15.9632 O   0  0  0  0  0  0  0  0  0  0  0  0
  2  1  1  0
  2  3  1  0
  3  5  1  0
  3  4  1  1
  5  7  1  0
  5  6  1  6
  7 13  1  0
  7  8  2  0
 10  9  1  1
 10 12  1  0
 10 11  1  0
 12 14  1  0
 12 13  1  1
 14 16  1  0
 15 14  2  0
 16 17  1  0
 17 22  1  0
 17 18  1  6
 18 19  1  0
 19 20  1  0
 20 21  2  0
 20 24  1  0
 22 25  1  0
 23 22  2  0
M  END
$$$$
