ITE.pdb
     RDKit          3D

 25 24  0  0  1  0  0  0  0  0999 V2000
   16.4710  -13.2370  -18.9069 C   0  0  0  0  0  0  0  0  0  0  0  0
   17.9392  -13.5030  -18.6631 C   0  0  0  0  0  0  0  0  0  0  0  0
   18.4808  -12.5504  -17.6415 C   0  0  2  0  0  0  0  0  0  0  0  0
   18.2319  -11.1388  -18.1234 C   0  0  0  0  0  0  0  0  0  0  0  0
   19.9449  -12.8082  -17.3425 C   0  0  2  0  0  0  0  0  0  0  0  0
   20.0127  -14.2179  -16.9268 N   0  0  0  0  0  0  0  0  0  0  0  0
   20.4612  -11.9233  -16.2883 C   0  0  0  0  0  0  0  0  0  0  0  0
   19.9154  -11.9938  -15.1570 O   0  0  0  0  0  0  0  0  0  0  0  0
   23.5588  -11.9288  -14.5258 C   0  0  0  0  0  0  0  0  0  0  0  0
   23.4590  -10.5604  -15.1196 C   0  0  1  0  0  0  0  0  0  0  0  0
   24.2692  -10.4158  -16.2253 O   0  0  0  0  0  0  0  0  0  0  0  0
   22.0189  -10.1571  -15.3835 C   0  0  2  0  0  0  0  0  0  0  0  0
   21.5203  -11.0022  -16.4482 N   0  0  0  0  0  0  0  0  0  0  0  0
   21.9721   -8.7327  -15.8039 C   0  0  0  0  0  0  0  0  0  0  0  0
   21.7807   -8.4530  -17.0290 O   0  0  0  0  0  0  0  0  0  0  0  0
   22.1302   -7.6675  -14.9069 N   0  0  0  0  0  0  0  0  0  0  0  0
   22.0340   -6.2384  -15.3038 C   0  0  1  0  0  0  0  0  0  0  0  0
   20.6843   -6.1091  -15.8955 C   0  0  0  0  0  0  0  0  0  0  0  0
   20.1294   -4.7898  -16.2226 C   0  0  0  0  0  0  0  0  0  0  0  0
   18.7524   -4.6830  -16.6768 C   0  0  0  0  0  0  0  0  0  0  0  0
   18.0376   -5.7109  -16.7918 O   0  0  0  0  0  0  0  0  0  0  0  0
   22.3192   -5.4915  -14.0833 C   0  0  0  0  0  0  0  0  0  0  0  0
   22.1841   -6.0181  -12.9519 O   0  0  0  0  0  0  0  0  0  0  0  0
   18.1537   -3.4733  -17.0023 O   0  0  0  0  0  0  0  0  0  0  0  0
   22.7521   -4.1823  -14.0966 O   0  0  0  0  0  0  0  0  0  0  0  0
  2  1  1  0
  2  3  1  0
  3  5  1  0
  3  4  1  6
  5  7  1  0
  5  6  1  1
  7 13  1  0
  7  8  2  0
 10  9  1  6
 10 12  1  0
 10 11  1  0
 12 14  1  0
 12 13  1  6
 14 16  1  0
 15 14  2  0
 16 17  1  0
 17 22  1  0
 17 18  1  1
 18 19  1  0
 19 20  1  0
 20 21  2  0
 20 24  1  0
 22 25  1  0
 23 22  2  0
M  END
$$$$
