ITE.pdb
     RDKit          3D

 25 24  0  0  1  0  0  0  0  0999 V2000
   26.4032  -15.2062  -15.3360 C   0  0  0  0  0  0  0  0  0  0  0  0
   24.8980  -15.2848  -15.4544 C   0  0  0  0  0  0  0  0  0  0  0  0
   24.3368  -13.9621  -15.8786 C   0  0  2  0  0  0  0  0  0  0  0  0
   24.7586  -12.9172  -14.8702 C   0  0  0  0  0  0  0  0  0  0  0  0
   22.8323  -14.0139  -16.0606 C   0  0  2  0  0  0  0  0  0  0  0  0
   22.5962  -15.1000  -17.0246 N   0  0  0  0  0  0  0  0  0  0  0  0
   22.2882  -12.7419  -16.5574 C   0  0  0  0  0  0  0  0  0  0  0  0
   22.7331  -12.3126  -17.6531 O   0  0  0  0  0  0  0  0  0  0  0  0
   19.4296  -11.6788  -18.1899 C   0  0  0  0  0  0  0  0  0  0  0  0
   19.4348  -10.8856  -16.9227 C   0  0  1  0  0  0  0  0  0  0  0  0
   18.5669  -11.4027  -15.9851 O   0  0  0  0  0  0  0  0  0  0  0  0
   20.8395  -10.6839  -16.3821 C   0  0  2  0  0  0  0  0  0  0  0  0
   21.3069  -11.9669  -15.9003 N   0  0  0  0  0  0  0  0  0  0  0  0
   20.8049   -9.7055  -15.2644 C   0  0  0  0  0  0  0  0  0  0  0  0
   20.7220  -10.1309  -14.0694 O   0  0  0  0  0  0  0  0  0  0  0  0
   20.8596   -8.3192  -15.4627 N   0  0  0  0  0  0  0  0  0  0  0  0
   20.8287   -7.3292  -14.3545 C   0  0  1  0  0  0  0  0  0  0  0  0
   21.5803   -6.1667  -14.8764 C   0  0  0  0  0  0  0  0  0  0  0  0
   21.6994   -4.9330  -14.0895 C   0  0  0  0  0  0  0  0  0  0  0  0
   22.2710   -3.7442  -14.7009 C   0  0  0  0  0  0  0  0  0  0  0  0
   22.7707   -3.7977  -15.8533 O   0  0  0  0  0  0  0  0  0  0  0  0
   19.4124   -7.1481  -14.0544 C   0  0  0  0  0  0  0  0  0  0  0  0
   19.0342   -6.7150  -12.9386 O   0  0  0  0  0  0  0  0  0  0  0  0
   22.2999   -2.5074  -14.0707 O   0  0  0  0  0  0  0  0  0  0  0  0
   18.4169   -7.4331  -14.9649 O   0  0  0  0  0  0  0  0  0  0  0  0
  2  1  1  0
  2  3  1  0
  3  5  1  0
  3  4  1  1
  5  7  1  0
  5  6  1  6
  7 13  1  0
  7  8  2  0
 10  9  1  6
 10 12  1  0
 10 11  1  0
 12 14  1  0
 12 13  1  1
 14 16  1  0
 15 14  2  0
 16 17  1  0
 17 22  1  0
 17 18  1  6
 18 19  1  0
 19 20  1  0
 20 21  2  0
 20 24  1  0
 22 25  1  0
 23 22  2  0
M  END
$$$$
