ITE.pdb
     RDKit          3D

 25 24  0  0  1  0  0  0  0  0999 V2000
   15.9906  -12.3003  -18.7090 C   0  0  0  0  0  0  0  0  0  0  0  0
   17.4126  -12.7331  -18.4328 C   0  0  0  0  0  0  0  0  0  0  0  0
   18.0531  -11.8186  -17.4339 C   0  0  2  0  0  0  0  0  0  0  0  0
   17.9071  -10.3957  -17.9246 C   0  0  0  0  0  0  0  0  0  0  0  0
   19.4984  -12.1909  -17.1659 C   0  0  2  0  0  0  0  0  0  0  0  0
   19.4621  -13.5966  -16.7330 N   0  0  0  0  0  0  0  0  0  0  0  0
   20.1103  -11.3389  -16.1361 C   0  0  0  0  0  0  0  0  0  0  0  0
   19.6262  -11.3972  -14.9764 O   0  0  0  0  0  0  0  0  0  0  0  0
   23.4553  -11.4763  -14.7434 C   0  0  0  0  0  0  0  0  0  0  0  0
   23.2774  -10.0754  -15.2341 C   0  0  1  0  0  0  0  0  0  0  0  0
   23.9498   -9.8519  -16.4164 O   0  0  0  0  0  0  0  0  0  0  0  0
   21.8137   -9.6761  -15.3004 C   0  0  2  0  0  0  0  0  0  0  0  0
   21.1971  -10.4619  -16.3487 N   0  0  0  0  0  0  0  0  0  0  0  0
   21.7085   -8.2297  -15.6236 C   0  0  0  0  0  0  0  0  0  0  0  0
   21.3146   -7.8790  -16.7802 O   0  0  0  0  0  0  0  0  0  0  0  0
   22.0257   -7.2185  -14.7065 N   0  0  0  0  0  0  0  0  0  0  0  0
   21.8694   -5.7690  -14.9955 C   0  0  1  0  0  0  0  0  0  0  0  0
   20.4286   -5.6034  -15.2871 C   0  0  0  0  0  0  0  0  0  0  0  0
   19.8382   -4.2666  -15.4280 C   0  0  0  0  0  0  0  0  0  0  0  0
   18.4196   -4.1356  -15.7179 C   0  0  0  0  0  0  0  0  0  0  0  0
   17.6956   -5.1569  -15.8332 O   0  0  0  0  0  0  0  0  0  0  0  0
   22.4107   -5.0932  -13.8211 C   0  0  0  0  0  0  0  0  0  0  0  0
   22.5159   -5.6867  -12.7200 O   0  0  0  0  0  0  0  0  0  0  0  0
   17.7896   -2.9089  -15.8800 O   0  0  0  0  0  0  0  0  0  0  0  0
   22.8375   -3.7823  -13.8482 O   0  0  0  0  0  0  0  0  0  0  0  0
  2  1  1  0
  2  3  1  0
  3  5  1  0
  3  4  1  6
  5  7  1  0
  5  6  1  1
  7 13  1  0
  7  8  2  0
 10  9  1  6
 10 12  1  0
 10 11  1  0
 12 14  1  0
 12 13  1  6
 14 16  1  0
 15 14  2  0
 16 17  1  0
 17 22  1  0
 17 18  1  1
 18 19  1  0
 19 20  1  0
 20 21  2  0
 20 24  1  0
 22 25  1  0
 23 22  2  0
M  END
$$$$
