ITE.pdb
     RDKit          3D

 25 24  0  0  1  0  0  0  0  0999 V2000
   15.7714  -12.5508  -18.0732 C   0  0  0  0  0  0  0  0  0  0  0  0
   17.2541  -12.8465  -18.0658 C   0  0  0  0  0  0  0  0  0  0  0  0
   17.9569  -11.9727  -17.0724 C   0  0  2  0  0  0  0  0  0  0  0  0
   17.6555  -10.5291  -17.4067 C   0  0  0  0  0  0  0  0  0  0  0  0
   19.4461  -12.2539  -17.0201 C   0  0  2  0  0  0  0  0  0  0  0  0
   19.5585  -13.6937  -16.7390 N   0  0  0  0  0  0  0  0  0  0  0  0
   20.1255  -11.4612  -15.9853 C   0  0  0  0  0  0  0  0  0  0  0  0
   19.7406  -11.6121  -14.7971 O   0  0  0  0  0  0  0  0  0  0  0  0
   23.5033  -11.4987  -14.6587 C   0  0  0  0  0  0  0  0  0  0  0  0
   23.2728  -10.1096  -15.1610 C   0  0  1  0  0  0  0  0  0  0  0  0
   23.9013   -9.8844  -16.3668 O   0  0  0  0  0  0  0  0  0  0  0  0
   21.7977   -9.7497  -15.1855 C   0  0  2  0  0  0  0  0  0  0  0  0
   21.1746  -10.5453  -16.2225 N   0  0  0  0  0  0  0  0  0  0  0  0
   21.6450   -8.3046  -15.4958 C   0  0  0  0  0  0  0  0  0  0  0  0
   21.1803   -7.9583  -16.6271 O   0  0  0  0  0  0  0  0  0  0  0  0
   21.9918   -7.2903  -14.5930 N   0  0  0  0  0  0  0  0  0  0  0  0
   21.7940   -5.8431  -14.8681 C   0  0  1  0  0  0  0  0  0  0  0  0
   20.3419   -5.7092  -15.1170 C   0  0  0  0  0  0  0  0  0  0  0  0
   19.7094   -4.3861  -15.1869 C   0  0  0  0  0  0  0  0  0  0  0  0
   18.2765   -4.2867  -15.4120 C   0  0  0  0  0  0  0  0  0  0  0  0
   17.7174   -3.1623  -15.4733 O   0  0  0  0  0  0  0  0  0  0  0  0
   22.3535   -5.1617  -13.7055 C   0  0  0  0  0  0  0  0  0  0  0  0
   22.4672   -5.7472  -12.6009 O   0  0  0  0  0  0  0  0  0  0  0  0
   17.4559   -5.3953  -15.5709 O   0  0  0  0  0  0  0  0  0  0  0  0
   22.7889   -3.8541  -13.7480 O   0  0  0  0  0  0  0  0  0  0  0  0
  2  1  1  0
  2  3  1  0
  3  5  1  0
  3  4  1  6
  5  7  1  0
  5  6  1  1
  7 13  1  0
  7  8  2  0
 10  9  1  6
 10 12  1  0
 10 11  1  0
 12 14  1  0
 12 13  1  6
 14 16  1  0
 15 14  2  0
 16 17  1  0
 17 22  1  0
 17 18  1  1
 18 19  1  0
 19 20  1  0
 20 21  2  0
 20 24  1  0
 22 25  1  0
 23 22  2  0
M  END
$$$$
