ITE.pdb
     RDKit          3D

 25 24  0  0  1  0  0  0  0  0999 V2000
   22.0400  -18.4863  -16.6674 C   0  0  0  0  0  0  0  0  0  0  0  0
   23.4956  -18.0776  -16.6687 C   0  0  0  0  0  0  0  0  0  0  0  0
   23.6509  -16.6934  -16.1170 C   0  0  2  0  0  0  0  0  0  0  0  0
   22.6579  -15.7875  -16.8098 C   0  0  0  0  0  0  0  0  0  0  0  0
   25.0754  -16.1883  -16.2391 C   0  0  2  0  0  0  0  0  0  0  0  0
   25.8936  -17.1521  -15.4865 N   0  0  0  0  0  0  0  0  0  0  0  0
   25.2320  -14.8303  -15.6988 C   0  0  0  0  0  0  0  0  0  0  0  0
   25.1363  -14.6905  -14.4521 O   0  0  0  0  0  0  0  0  0  0  0  0
   27.9515  -12.7282  -15.2566 C   0  0  0  0  0  0  0  0  0  0  0  0
   27.0133  -11.8843  -16.0582 C   0  0  1  0  0  0  0  0  0  0  0  0
   27.4127  -11.7722  -17.3727 O   0  0  0  0  0  0  0  0  0  0  0  0
   25.5718  -12.3397  -15.9138 C   0  0  2  0  0  0  0  0  0  0  0  0
   25.4807  -13.6733  -16.4702 N   0  0  0  0  0  0  0  0  0  0  0  0
   24.6825  -11.4161  -16.6649 C   0  0  0  0  0  0  0  0  0  0  0  0
   24.2787  -11.7483  -17.8235 O   0  0  0  0  0  0  0  0  0  0  0  0
   24.2604  -10.1810  -16.1546 N   0  0  0  0  0  0  0  0  0  0  0  0
   23.3635   -9.2516  -16.8902 C   0  0  1  0  0  0  0  0  0  0  0  0
   22.1215   -9.2235  -16.0871 C   0  0  0  0  0  0  0  0  0  0  0  0
   22.1262   -8.7093  -14.7119 C   0  0  0  0  0  0  0  0  0  0  0  0
   20.8795   -8.6406  -13.9672 C   0  0  0  0  0  0  0  0  0  0  0  0
   19.8865   -9.3252  -14.3220 O   0  0  0  0  0  0  0  0  0  0  0  0
   24.1265   -8.0139  -17.0119 C   0  0  0  0  0  0  0  0  0  0  0  0
   25.2045   -7.8505  -16.3898 O   0  0  0  0  0  0  0  0  0  0  0  0
   20.7095   -7.8384  -12.8467 O   0  0  0  0  0  0  0  0  0  0  0  0
   23.7194   -6.9647  -17.8085 O   0  0  0  0  0  0  0  0  0  0  0  0
  2  1  1  0
  2  3  1  0
  3  5  1  0
  3  4  1  6
  5  7  1  0
  5  6  1  1
  7 13  1  0
  7  8  2  0
 10  9  1  1
 10 12  1  0
 10 11  1  0
 12 14  1  0
 12 13  1  6
 14 16  1  0
 15 14  2  0
 16 17  1  0
 17 22  1  0
 17 18  1  1
 18 19  1  0
 19 20  1  0
 20 21  2  0
 20 24  1  0
 22 25  1  0
 23 22  2  0
M  END
$$$$
