ITE.pdb
     RDKit          3D

 25 24  0  0  1  0  0  0  0  0999 V2000
   24.6143  -16.7573  -14.8822 C   0  0  0  0  0  0  0  0  0  0  0  0
   24.8676  -16.4028  -16.3299 C   0  0  0  0  0  0  0  0  0  0  0  0
   24.5084  -14.9716  -16.5888 C   0  0  2  0  0  0  0  0  0  0  0  0
   25.3835  -14.0940  -15.7224 C   0  0  0  0  0  0  0  0  0  0  0  0
   23.0311  -14.7071  -16.3714 C   0  0  2  0  0  0  0  0  0  0  0  0
   22.3337  -15.6875  -17.2182 N   0  0  0  0  0  0  0  0  0  0  0  0
   22.6528  -13.3341  -16.7352 C   0  0  0  0  0  0  0  0  0  0  0  0
   23.2253  -12.8224  -17.7317 O   0  0  0  0  0  0  0  0  0  0  0  0
   19.6301  -12.0626  -18.0988 C   0  0  0  0  0  0  0  0  0  0  0  0
   19.8507  -11.2593  -16.8574 C   0  0  1  0  0  0  0  0  0  0  0  0
   19.0286  -11.6625  -15.8273 O   0  0  0  0  0  0  0  0  0  0  0  0
   21.3162  -11.2119  -16.4620 C   0  0  2  0  0  0  0  0  0  0  0  0
   21.6982  -12.5473  -16.0530 N   0  0  0  0  0  0  0  0  0  0  0  0
   21.4940  -10.2657  -15.3302 C   0  0  0  0  0  0  0  0  0  0  0  0
   21.5896  -10.7228  -14.1480 O   0  0  0  0  0  0  0  0  0  0  0  0
   21.5624   -8.8764  -15.5016 N   0  0  0  0  0  0  0  0  0  0  0  0
   21.6148   -7.9112  -14.3725 C   0  0  1  0  0  0  0  0  0  0  0  0
   22.1193   -6.6598  -14.9791 C   0  0  0  0  0  0  0  0  0  0  0  0
   22.0368   -5.3857  -14.2542 C   0  0  0  0  0  0  0  0  0  0  0  0
   22.4986   -4.1648  -14.8943 C   0  0  0  0  0  0  0  0  0  0  0  0
   22.3563   -3.0532  -14.3244 O   0  0  0  0  0  0  0  0  0  0  0  0
   20.2638   -7.9070  -13.8214 C   0  0  0  0  0  0  0  0  0  0  0  0
   19.2643   -8.1279  -14.5479 O   0  0  0  0  0  0  0  0  0  0  0  0
   23.1110   -4.1474  -16.1403 O   0  0  0  0  0  0  0  0  0  0  0  0
   20.0053   -7.6677  -12.4883 O   0  0  0  0  0  0  0  0  0  0  0  0
  2  1  1  0
  2  3  1  0
  3  5  1  0
  3  4  1  1
  5  7  1  0
  5  6  1  6
  7 13  1  0
  7  8  2  0
 10  9  1  6
 10 12  1  0
 10 11  1  0
 12 14  1  0
 12 13  1  1
 14 16  1  0
 15 14  2  0
 16 17  1  0
 17 22  1  0
 17 18  1  6
 18 19  1  0
 19 20  1  0
 20 21  2  0
 20 24  1  0
 22 25  1  0
 23 22  2  0
M  END
$$$$
