ITE.pdb
     RDKit          3D

 25 24  0  0  1  0  0  0  0  0999 V2000
   25.4687  -15.3391  -15.6339 C   0  0  0  0  0  0  0  0  0  0  0  0
   24.0181  -14.9652  -15.4298 C   0  0  0  0  0  0  0  0  0  0  0  0
   23.7751  -13.5534  -15.8682 C   0  0  2  0  0  0  0  0  0  0  0  0
   24.7219  -12.6477  -15.1133 C   0  0  0  0  0  0  0  0  0  0  0  0
   22.3250  -13.1451  -15.6950 C   0  0  2  0  0  0  0  0  0  0  0  0
   21.5458  -14.1772  -16.3966 N   0  0  0  0  0  0  0  0  0  0  0  0
   22.0528  -11.8117  -16.2507 C   0  0  0  0  0  0  0  0  0  0  0  0
   22.2748  -11.6412  -17.4772 O   0  0  0  0  0  0  0  0  0  0  0  0
   19.1332  -10.1192  -17.1345 C   0  0  0  0  0  0  0  0  0  0  0  0
   19.7850   -9.2307  -16.1242 C   0  0  1  0  0  0  0  0  0  0  0  0
   19.2048   -9.3494  -14.8797 O   0  0  0  0  0  0  0  0  0  0  0  0
   21.2926   -9.4111  -16.0947 C   0  0  2  0  0  0  0  0  0  0  0  0
   21.5624  -10.7101  -15.5147 N   0  0  0  0  0  0  0  0  0  0  0  0
   21.9031   -8.3464  -15.2572 C   0  0  0  0  0  0  0  0  0  0  0  0
   22.2508   -8.6171  -14.0649 O   0  0  0  0  0  0  0  0  0  0  0  0
   22.1179   -7.0413  -15.7205 N   0  0  0  0  0  0  0  0  0  0  0  0
   22.7960   -5.9872  -14.9215 C   0  0  1  0  0  0  0  0  0  0  0  0
   23.2783   -5.0145  -15.9263 C   0  0  0  0  0  0  0  0  0  0  0  0
   24.3935   -5.3476  -16.8212 C   0  0  0  0  0  0  0  0  0  0  0  0
   24.8480   -4.3696  -17.7962 C   0  0  0  0  0  0  0  0  0  0  0  0
   24.3223   -3.2287  -17.8472 O   0  0  0  0  0  0  0  0  0  0  0  0
   21.7903   -5.5387  -13.9643 C   0  0  0  0  0  0  0  0  0  0  0  0
   20.5692   -5.7616  -14.1514 O   0  0  0  0  0  0  0  0  0  0  0  0
   25.8643   -4.6240  -18.7074 O   0  0  0  0  0  0  0  0  0  0  0  0
   22.1137   -4.8562  -12.8107 O   0  0  0  0  0  0  0  0  0  0  0  0
  2  1  1  0
  2  3  1  0
  3  5  1  0
  3  4  1  1
  5  7  1  0
  5  6  1  6
  7 13  1  0
  7  8  2  0
 10  9  1  6
 10 12  1  0
 10 11  1  0
 12 14  1  0
 12 13  1  1
 14 16  1  0
 15 14  2  0
 16 17  1  0
 17 22  1  0
 17 18  1  6
 18 19  1  0
 19 20  1  0
 20 21  2  0
 20 24  1  0
 22 25  1  0
 23 22  2  0
M  END
$$$$
