ITE.pdb
     RDKit          3D

 25 24  0  0  1  0  0  0  0  0999 V2000
   16.7044  -12.9946  -19.1386 C   0  0  0  0  0  0  0  0  0  0  0  0
   18.1604  -13.3064  -18.8768 C   0  0  0  0  0  0  0  0  0  0  0  0
   18.7068  -12.4010  -17.8156 C   0  0  2  0  0  0  0  0  0  0  0  0
   18.4524  -10.9692  -18.2301 C   0  0  0  0  0  0  0  0  0  0  0  0
   20.1731  -12.6693  -17.5379 C   0  0  2  0  0  0  0  0  0  0  0  0
   20.2438  -14.0928  -17.1727 N   0  0  0  0  0  0  0  0  0  0  0  0
   20.6984  -11.8223  -16.4575 C   0  0  0  0  0  0  0  0  0  0  0  0
   20.1776  -11.9494  -15.3193 O   0  0  0  0  0  0  0  0  0  0  0  0
   23.8410  -11.8383  -14.7706 C   0  0  0  0  0  0  0  0  0  0  0  0
   23.6968  -10.4454  -15.2940 C   0  0  1  0  0  0  0  0  0  0  0  0
   24.4817  -10.2265  -16.4057 O   0  0  0  0  0  0  0  0  0  0  0  0
   22.2426  -10.0657  -15.5115 C   0  0  2  0  0  0  0  0  0  0  0  0
   21.7403  -10.8789  -16.5991 N   0  0  0  0  0  0  0  0  0  0  0  0
   22.1544   -8.6271  -15.8726 C   0  0  0  0  0  0  0  0  0  0  0  0
   22.0268   -8.3004  -17.0944 O   0  0  0  0  0  0  0  0  0  0  0  0
   22.2055   -7.5981  -14.9225 N   0  0  0  0  0  0  0  0  0  0  0  0
   22.0734   -6.1575  -15.2641 C   0  0  1  0  0  0  0  0  0  0  0  0
   20.7157   -6.0369  -15.8390 C   0  0  0  0  0  0  0  0  0  0  0  0
   19.5400   -5.9020  -14.9702 C   0  0  0  0  0  0  0  0  0  0  0  0
   18.2427   -5.6106  -15.5583 C   0  0  0  0  0  0  0  0  0  0  0  0
   18.0495   -4.5309  -16.1729 O   0  0  0  0  0  0  0  0  0  0  0  0
   22.3530   -5.4509  -14.0185 C   0  0  0  0  0  0  0  0  0  0  0  0
   22.4179   -6.0625  -12.9242 O   0  0  0  0  0  0  0  0  0  0  0  0
   17.1639   -6.4815  -15.4832 O   0  0  0  0  0  0  0  0  0  0  0  0
   22.5640   -4.0892  -13.9672 O   0  0  0  0  0  0  0  0  0  0  0  0
  2  1  1  0
  2  3  1  0
  3  5  1  0
  3  4  1  6
  5  7  1  0
  5  6  1  1
  7 13  1  0
  7  8  2  0
 10  9  1  6
 10 12  1  0
 10 11  1  0
 12 14  1  0
 12 13  1  6
 14 16  1  0
 15 14  2  0
 16 17  1  0
 17 22  1  0
 17 18  1  1
 18 19  1  0
 19 20  1  0
 20 21  2  0
 20 24  1  0
 22 25  1  0
 23 22  2  0
M  END
$$$$
