ITE.pdb
     RDKit          3D

 25 24  0  0  1  0  0  0  0  0999 V2000
   28.9599  -19.7660   -4.6735 C   0  0  0  0  0  0  0  0  0  0  0  0
   27.6086  -20.0200   -5.3022 C   0  0  0  0  0  0  0  0  0  0  0  0
   27.6419  -19.6932   -6.7638 C   0  0  2  0  0  0  0  0  0  0  0  0
   28.1495  -18.2782   -6.9268 C   0  0  0  0  0  0  0  0  0  0  0  0
   26.2932  -19.9020   -7.4247 C   0  0  2  0  0  0  0  0  0  0  0  0
   25.7551  -21.1334   -6.8257 N   0  0  0  0  0  0  0  0  0  0  0  0
   26.4037  -20.0319   -8.8848 C   0  0  0  0  0  0  0  0  0  0  0  0
   27.5082  -19.7350   -9.4087 O   0  0  0  0  0  0  0  0  0  0  0  0
   27.2171  -22.1316  -11.3509 C   0  0  0  0  0  0  0  0  0  0  0  0
   25.8088  -21.7685  -11.6968 C   0  0  1  0  0  0  0  0  0  0  0  0
   24.9138  -22.7443  -11.3139 O   0  0  0  0  0  0  0  0  0  0  0  0
   25.4343  -20.3880  -11.1866 C   0  0  2  0  0  0  0  0  0  0  0  0
   25.3671  -20.4632   -9.7422 N   0  0  0  0  0  0  0  0  0  0  0  0
   24.1093  -19.9992  -11.7353 C   0  0  0  0  0  0  0  0  0  0  0  0
   23.1155  -19.9033  -10.9486 O   0  0  0  0  0  0  0  0  0  0  0  0
   23.8962  -19.7293  -13.0939 N   0  0  0  0  0  0  0  0  0  0  0  0
   22.5968  -19.2631  -13.6448 C   0  0  1  0  0  0  0  0  0  0  0  0
   22.9430  -18.6653  -14.9529 C   0  0  0  0  0  0  0  0  0  0  0  0
   21.8944  -18.1917  -15.8648 C   0  0  0  0  0  0  0  0  0  0  0  0
   22.2632  -17.6485  -17.1620 C   0  0  0  0  0  0  0  0  0  0  0  0
   22.0079  -16.4509  -17.4474 O   0  0  0  0  0  0  0  0  0  0  0  0
   21.7424  -20.4459  -13.6389 C   0  0  0  0  0  0  0  0  0  0  0  0
   22.2253  -21.5976  -13.7653 O   0  0  0  0  0  0  0  0  0  0  0  0
   22.9043  -18.3950  -18.1415 O   0  0  0  0  0  0  0  0  0  0  0  0
   20.3733  -20.3734  -13.4925 O   0  0  0  0  0  0  0  0  0  0  0  0
  2  1  1  0
  2  3  1  0
  3  5  1  0
  3  4  1  1
  5  7  1  0
  5  6  1  1
  7 13  1  0
  7  8  2  0
 10  9  1  1
 10 12  1  0
 10 11  1  0
 12 14  1  0
 12 13  1  1
 14 16  1  0
 15 14  2  0
 16 17  1  0
 17 22  1  0
 17 18  1  6
 18 19  1  0
 19 20  1  0
 20 21  2  0
 20 24  1  0
 22 25  1  0
 23 22  2  0
M  END
$$$$
