LPY.pdb
     RDKit          3D

 28 29  0  0  1  0  0  0  0  0999 V2000
   24.9621  -12.9616  -15.0425 C   0  0  0  0  0  0  0  0  0  0  0  0
   24.9782  -13.8836  -16.2444 C   0  0  1  0  0  0  0  0  0  0  0  0
   26.1825  -13.5571  -17.0988 C   0  0  0  0  0  0  0  0  0  0  0  0
   25.0080  -15.3345  -15.8187 C   0  0  0  0  0  0  0  0  0  0  0  0
   24.9919  -16.2708  -16.9811 C   0  0  2  0  0  0  0  0  0  0  0  0
   23.6882  -16.2549  -17.6523 N   0  0  0  0  0  0  0  0  0  0  0  0
   25.3784  -17.6686  -16.6658 C   0  0  0  0  0  0  0  0  0  0  0  0
   24.4499  -18.5696  -16.5804 O   0  0  0  0  0  0  0  0  0  0  0  0
   26.6772  -18.1542  -16.4438 N   0  0  0  0  0  0  0  0  0  0  0  0
   27.9057  -17.3956  -16.5354 C   0  0  0  0  0  0  0  0  0  0  0  0
   29.0099  -18.4288  -16.7503 C   0  0  0  0  0  0  0  0  0  0  0  0
   28.2289  -19.6663  -17.0762 C   0  0  0  0  0  0  0  0  0  0  0  0
   27.0533  -19.5480  -16.1083 C   0  0  1  0  0  0  0  0  0  0  0  0
   27.4641  -19.5447  -14.6944 C   0  0  0  0  0  0  0  0  0  0  0  0
   28.0615  -18.5644  -14.1488 O   0  0  0  0  0  0  0  0  0  0  0  0
   22.2252  -21.1839   -8.2738 O   0  0  0  0  0  0  0  0  0  0  0  0
   23.1422  -20.7646   -9.2439 C   0  0  0  0  0  0  0  0  0  0  0  0
   22.7810  -20.6718  -10.5725 C   0  0  0  0  0  0  0  0  0  0  0  0
   23.6653  -20.2625  -11.5447 C   0  0  0  0  0  0  0  0  0  0  0  0
   24.9800  -19.9180  -11.2242 C   0  0  0  0  0  0  0  0  0  0  0  0
   25.9298  -19.4756  -12.2691 C   0  0  0  0  0  0  0  0  0  0  0  0
   27.0506  -20.4775  -12.4156 C   0  0  2  0  0  0  0  0  0  0  0  0
   27.2024  -20.6621  -13.8642 N   0  0  0  0  0  0  0  0  0  0  0  0
   26.7609  -21.7893  -11.8212 C   0  0  0  0  0  0  0  0  0  0  0  0
   25.9715  -22.7066  -12.4768 O   0  0  0  0  0  0  0  0  0  0  0  0
   25.3281  -20.0146   -9.8909 C   0  0  0  0  0  0  0  0  0  0  0  0
   24.4392  -20.4260   -8.9209 C   0  0  0  0  0  0  0  0  0  0  0  0
   27.2379  -22.0799  -10.7022 O   0  0  0  0  0  0  0  0  0  0  0  0
  2  1  1  1
  2  3  1  0
  4  5  1  0
  4  2  1  0
  5  6  1  1
  7  5  1  0
  7  8  2  0
  9  7  1  0
 10  9  1  0
 11 12  1  0
 11 10  1  0
 12 13  1  0
 13  9  1  0
 14 23  1  0
 13 14  1  1
 15 14  2  0
 16 17  1  0
 17 18  2  0
 18 19  1  0
 20 19  2  0
 20 21  1  0
 22 21  1  6
 22 23  1  0
 22 24  1  0
 24 25  1  0
 26 20  1  0
 27 17  1  0
 27 26  2  0
 28 24  2  0
M  END
$$$$
