LPY.pdb
     RDKit          3D

 28 29  0  0  1  0  0  0  0  0999 V2000
   26.5795  -16.5138  -15.0268 C   0  0  0  0  0  0  0  0  0  0  0  0
   26.5198  -17.3599  -16.2820 C   0  0  1  0  0  0  0  0  0  0  0  0
   27.1008  -16.5717  -17.4346 C   0  0  0  0  0  0  0  0  0  0  0  0
   27.2684  -18.6612  -16.0992 C   0  0  0  0  0  0  0  0  0  0  0  0
   27.0944  -19.5872  -17.2568 C   0  0  2  0  0  0  0  0  0  0  0  0
   26.9661  -18.8418  -18.5131 N   0  0  0  0  0  0  0  0  0  0  0  0
   25.9727  -20.5502  -17.1264 C   0  0  0  0  0  0  0  0  0  0  0  0
   24.9280  -20.3984  -17.8792 O   0  0  0  0  0  0  0  0  0  0  0  0
   25.9032  -21.6502  -16.2563 N   0  0  0  0  0  0  0  0  0  0  0  0
   26.9274  -22.0782  -15.3285 C   0  0  0  0  0  0  0  0  0  0  0  0
   26.6314  -23.5489  -15.0415 C   0  0  0  0  0  0  0  0  0  0  0  0
   25.6305  -23.8857  -16.1056 C   0  0  0  0  0  0  0  0  0  0  0  0
   24.7840  -22.6149  -16.1404 C   0  0  1  0  0  0  0  0  0  0  0  0
   24.1130  -22.3298  -14.8612 C   0  0  0  0  0  0  0  0  0  0  0  0
   24.4897  -22.8295  -13.7548 O   0  0  0  0  0  0  0  0  0  0  0  0
   27.6315  -21.3335  -10.0495 O   0  0  0  0  0  0  0  0  0  0  0  0
   26.4618  -21.0172  -10.7492 C   0  0  0  0  0  0  0  0  0  0  0  0
   26.5130  -20.3664  -11.9649 C   0  0  0  0  0  0  0  0  0  0  0  0
   25.3765  -20.0443  -12.6714 C   0  0  0  0  0  0  0  0  0  0  0  0
   24.1087  -20.3678  -12.1834 C   0  0  0  0  0  0  0  0  0  0  0  0
   22.8870  -20.0236  -12.9442 C   0  0  0  0  0  0  0  0  0  0  0  0
   22.2765  -21.2679  -13.5445 C   0  0  2  0  0  0  0  0  0  0  0  0
   22.9928  -21.4643  -14.8109 N   0  0  0  0  0  0  0  0  0  0  0  0
   20.8450  -21.1433  -13.8502 C   0  0  0  0  0  0  0  0  0  0  0  0
   19.9013  -21.1613  -12.8485 O   0  0  0  0  0  0  0  0  0  0  0  0
   24.0717  -21.0196  -10.9660 C   0  0  0  0  0  0  0  0  0  0  0  0
   25.2128  -21.3392  -10.2617 C   0  0  0  0  0  0  0  0  0  0  0  0
   20.4752  -21.0185  -15.0384 O   0  0  0  0  0  0  0  0  0  0  0  0
  2  1  1  1
  2  3  1  0
  4  5  1  0
  4  2  1  0
  5  6  1  6
  7  5  1  0
  7  8  2  0
  9  7  1  0
 10  9  1  0
 11 12  1  0
 11 10  1  0
 12 13  1  0
 13  9  1  0
 14 23  1  0
 13 14  1  1
 15 14  2  0
 16 17  1  0
 17 18  2  0
 18 19  1  0
 20 19  2  0
 20 21  1  0
 22 21  1  6
 22 23  1  0
 22 24  1  0
 24 25  1  0
 26 20  1  0
 27 17  1  0
 27 26  2  0
 28 24  2  0
M  END
$$$$
