LPY.pdb
     RDKit          3D

 28 29  0  0  1  0  0  0  0  0999 V2000
   23.6707  -18.7500  -21.1179 C   0  0  0  0  0  0  0  0  0  0  0  0
   25.0910  -18.5120  -20.6479 C   0  0  1  0  0  0  0  0  0  0  0  0
   25.3645  -17.0246  -20.6422 C   0  0  0  0  0  0  0  0  0  0  0  0
   25.3157  -19.0974  -19.2716 C   0  0  0  0  0  0  0  0  0  0  0  0
   26.7622  -19.1677  -18.9105 C   0  0  2  0  0  0  0  0  0  0  0  0
   27.5053  -19.9913  -19.8697 N   0  0  0  0  0  0  0  0  0  0  0  0
   27.0417  -19.6299  -17.5281 C   0  0  0  0  0  0  0  0  0  0  0  0
   27.6116  -20.7820  -17.3575 O   0  0  0  0  0  0  0  0  0  0  0  0
   26.7566  -18.9439  -16.3364 N   0  0  0  0  0  0  0  0  0  0  0  0
   26.1326  -17.6438  -16.2213 C   0  0  0  0  0  0  0  0  0  0  0  0
   26.5320  -17.1183  -14.8438 C   0  0  0  0  0  0  0  0  0  0  0  0
   27.6211  -18.0680  -14.4444 C   0  0  0  0  0  0  0  0  0  0  0  0
   27.0713  -19.3962  -14.9605 C   0  0  1  0  0  0  0  0  0  0  0  0
   25.7916  -19.7750  -14.3386 C   0  0  0  0  0  0  0  0  0  0  0  0
   24.6643  -19.3950  -14.7865 O   0  0  0  0  0  0  0  0  0  0  0  0
   27.4259  -19.5761   -7.2967 O   0  0  0  0  0  0  0  0  0  0  0  0
   26.7942  -20.2159   -8.3688 C   0  0  0  0  0  0  0  0  0  0  0  0
   27.5264  -20.8530   -9.3497 C   0  0  0  0  0  0  0  0  0  0  0  0
   26.9278  -21.4884  -10.4138 C   0  0  0  0  0  0  0  0  0  0  0  0
   25.5380  -21.5177  -10.5467 C   0  0  0  0  0  0  0  0  0  0  0  0
   24.8946  -22.2031  -11.6894 C   0  0  0  0  0  0  0  0  0  0  0  0
   24.4991  -21.1993  -12.7465 C   0  0  2  0  0  0  0  0  0  0  0  0
   25.7647  -20.6001  -13.1876 N   0  0  0  0  0  0  0  0  0  0  0  0
   23.6363  -20.1184  -12.2510 C   0  0  0  0  0  0  0  0  0  0  0  0
   22.2871  -20.3163  -12.0648 O   0  0  0  0  0  0  0  0  0  0  0  0
   24.8171  -20.8771   -9.5577 C   0  0  0  0  0  0  0  0  0  0  0  0
   25.4212  -20.2411   -8.4943 C   0  0  0  0  0  0  0  0  0  0  0  0
   24.1331  -18.9999  -11.9933 O   0  0  0  0  0  0  0  0  0  0  0  0
  2  1  1  1
  2  3  1  0
  4  5  1  0
  4  2  1  0
  5  6  1  6
  7  5  1  0
  7  8  2  0
  9  7  1  0
 10  9  1  0
 11 12  1  0
 11 10  1  0
 12 13  1  0
 13  9  1  0
 14 23  1  0
 13 14  1  1
 15 14  2  0
 16 17  1  0
 17 18  2  0
 18 19  1  0
 20 19  2  0
 20 21  1  0
 22 21  1  1
 22 23  1  0
 22 24  1  0
 24 25  1  0
 26 20  1  0
 27 17  1  0
 27 26  2  0
 28 24  2  0
M  END
$$$$
