LPY.pdb
     RDKit          3D

 28 29  0  0  1  0  0  0  0  0999 V2000
   26.8237  -16.3954  -16.5208 C   0  0  0  0  0  0  0  0  0  0  0  0
   27.5218  -17.6804  -16.1254 C   0  0  1  0  0  0  0  0  0  0  0  0
   28.5551  -17.3727  -15.0649 C   0  0  0  0  0  0  0  0  0  0  0  0
   26.5320  -18.7057  -15.6192 C   0  0  0  0  0  0  0  0  0  0  0  0
   27.1883  -19.9878  -15.2274 C   0  0  2  0  0  0  0  0  0  0  0  0
   27.7938  -20.6463  -16.3894 N   0  0  0  0  0  0  0  0  0  0  0  0
   26.3135  -20.9452  -14.5058 C   0  0  0  0  0  0  0  0  0  0  0  0
   25.8867  -21.9967  -15.1331 O   0  0  0  0  0  0  0  0  0  0  0  0
   25.8775  -20.8497  -13.1744 N   0  0  0  0  0  0  0  0  0  0  0  0
   26.3227  -19.8862  -12.1912 C   0  0  0  0  0  0  0  0  0  0  0  0
   26.0018  -20.5083  -10.8337 C   0  0  0  0  0  0  0  0  0  0  0  0
   25.6855  -21.9271  -11.2004 C   0  0  0  0  0  0  0  0  0  0  0  0
   24.9031  -21.7387  -12.4986 C   0  0  1  0  0  0  0  0  0  0  0  0
   23.6689  -20.9552  -12.3235 C   0  0  0  0  0  0  0  0  0  0  0  0
   23.6609  -19.7668  -11.8723 O   0  0  0  0  0  0  0  0  0  0  0  0
   18.4909  -17.5934  -18.1415 O   0  0  0  0  0  0  0  0  0  0  0  0
   19.3806  -18.2654  -17.2962 C   0  0  0  0  0  0  0  0  0  0  0  0
   20.0210  -17.6060  -16.2670 C   0  0  0  0  0  0  0  0  0  0  0  0
   20.9006  -18.2452  -15.4231 C   0  0  0  0  0  0  0  0  0  0  0  0
   21.1843  -19.6043  -15.5728 C   0  0  0  0  0  0  0  0  0  0  0  0
   22.1280  -20.2919  -14.6639 C   0  0  0  0  0  0  0  0  0  0  0  0
   21.4259  -20.6971  -13.3894 C   0  0  2  0  0  0  0  0  0  0  0  0
   22.4090  -21.5079  -12.6604 N   0  0  0  0  0  0  0  0  0  0  0  0
   20.2294  -21.5224  -13.6028 C   0  0  0  0  0  0  0  0  0  0  0  0
   20.3325  -22.8173  -14.0577 O   0  0  0  0  0  0  0  0  0  0  0  0
   20.5361  -20.2524  -16.6062 C   0  0  0  0  0  0  0  0  0  0  0  0
   19.6567  -19.6077  -17.4496 C   0  0  0  0  0  0  0  0  0  0  0  0
   19.0981  -21.0434  -13.3682 O   0  0  0  0  0  0  0  0  0  0  0  0
  2  1  1  1
  2  3  1  0
  4  5  1  0
  4  2  1  0
  5  6  1  6
  7  5  1  0
  7  8  2  0
  9  7  1  0
 10  9  1  0
 11 12  1  0
 11 10  1  0
 12 13  1  0
 13  9  1  0
 14 23  1  0
 13 14  1  1
 15 14  2  0
 16 17  1  0
 17 18  2  0
 18 19  1  0
 20 19  2  0
 20 21  1  0
 22 21  1  6
 22 23  1  0
 22 24  1  0
 24 25  1  0
 26 20  1  0
 27 17  1  0
 27 26  2  0
 28 24  2  0
M  END
$$$$
