LPY.pdb
     RDKit          3D

 28 29  0  0  1  0  0  0  0  0999 V2000
   23.2348  -16.5131  -15.2081 C   0  0  0  0  0  0  0  0  0  0  0  0
   23.5586  -17.2024  -16.5176 C   0  0  1  0  0  0  0  0  0  0  0  0
   23.1416  -16.3057  -17.6617 C   0  0  0  0  0  0  0  0  0  0  0  0
   25.0318  -17.5311  -16.6116 C   0  0  0  0  0  0  0  0  0  0  0  0
   25.2760  -18.9530  -16.9942 C   0  0  2  0  0  0  0  0  0  0  0  0
   24.2386  -19.4377  -17.9103 N   0  0  0  0  0  0  0  0  0  0  0  0
   25.4201  -19.8930  -15.8547 C   0  0  0  0  0  0  0  0  0  0  0  0
   24.4821  -20.7618  -15.6389 O   0  0  0  0  0  0  0  0  0  0  0  0
   26.4910  -19.9616  -14.9490 N   0  0  0  0  0  0  0  0  0  0  0  0
   27.6800  -19.1373  -14.9599 C   0  0  0  0  0  0  0  0  0  0  0  0
   28.7297  -19.9224  -14.1760 C   0  0  0  0  0  0  0  0  0  0  0  0
   28.0994  -21.2785  -14.0697 C   0  0  0  0  0  0  0  0  0  0  0  0
   26.6362  -20.9156  -13.8241 C   0  0  1  0  0  0  0  0  0  0  0  0
   26.4299  -20.1434  -12.5876 C   0  0  0  0  0  0  0  0  0  0  0  0
   26.6176  -18.8883  -12.5151 O   0  0  0  0  0  0  0  0  0  0  0  0
   19.8282  -22.2888  -11.7675 O   0  0  0  0  0  0  0  0  0  0  0  0
   20.9635  -21.5145  -11.5045 C   0  0  0  0  0  0  0  0  0  0  0  0
   21.6582  -20.8991  -12.5257 C   0  0  0  0  0  0  0  0  0  0  0  0
   22.7777  -20.1332  -12.2920 C   0  0  0  0  0  0  0  0  0  0  0  0
   23.2627  -19.9424  -10.9965 C   0  0  0  0  0  0  0  0  0  0  0  0
   24.4648  -19.1169  -10.7451 C   0  0  0  0  0  0  0  0  0  0  0  0
   25.5963  -19.9804  -10.2397 C   0  0  2  0  0  0  0  0  0  0  0  0
   26.0019  -20.7844  -11.3992 N   0  0  0  0  0  0  0  0  0  0  0  0
   25.2093  -20.9029   -9.1638 C   0  0  0  0  0  0  0  0  0  0  0  0
   25.1962  -22.2640   -9.3667 O   0  0  0  0  0  0  0  0  0  0  0  0
   22.5577  -20.5631   -9.9836 C   0  0  0  0  0  0  0  0  0  0  0  0
   21.4375  -21.3301  -10.2228 C   0  0  0  0  0  0  0  0  0  0  0  0
   24.8866  -20.4468   -8.0449 O   0  0  0  0  0  0  0  0  0  0  0  0
  2  1  1  1
  2  3  1  0
  4  5  1  0
  4  2  1  0
  5  6  1  6
  7  5  1  0
  7  8  2  0
  9  7  1  0
 10  9  1  0
 11 12  1  0
 11 10  1  0
 12 13  1  0
 13  9  1  0
 14 23  1  0
 13 14  1  1
 15 14  2  0
 16 17  1  0
 17 18  2  0
 18 19  1  0
 20 19  2  0
 20 21  1  0
 22 21  1  6
 22 23  1  0
 22 24  1  0
 24 25  1  0
 26 20  1  0
 27 17  1  0
 27 26  2  0
 28 24  2  0
M  END
$$$$
