LPY.pdb
     RDKit          3D

 28 29  0  0  1  0  0  0  0  0999 V2000
   24.3060  -20.0017  -20.9261 C   0  0  0  0  0  0  0  0  0  0  0  0
   25.5993  -19.3909  -20.4269 C   0  0  1  0  0  0  0  0  0  0  0  0
   25.4001  -17.9038  -20.2376 C   0  0  0  0  0  0  0  0  0  0  0  0
   26.0432  -20.0352  -19.1327 C   0  0  0  0  0  0  0  0  0  0  0  0
   27.3121  -19.4489  -18.6092 C   0  0  2  0  0  0  0  0  0  0  0  0
   28.4699  -19.9392  -19.3640 N   0  0  0  0  0  0  0  0  0  0  0  0
   27.5401  -19.6438  -17.1556 C   0  0  0  0  0  0  0  0  0  0  0  0
   28.4195  -20.5161  -16.7724 O   0  0  0  0  0  0  0  0  0  0  0  0
   26.8976  -18.9705  -16.1041 N   0  0  0  0  0  0  0  0  0  0  0  0
   25.7812  -18.0579  -16.2228 C   0  0  0  0  0  0  0  0  0  0  0  0
   25.8098  -17.2086  -14.9537 C   0  0  0  0  0  0  0  0  0  0  0  0
   27.1585  -17.5320  -14.3844 C   0  0  0  0  0  0  0  0  0  0  0  0
   27.2571  -19.0298  -14.6675 C   0  0  1  0  0  0  0  0  0  0  0  0
   26.2051  -19.8162  -14.0021 C   0  0  0  0  0  0  0  0  0  0  0  0
   25.0207  -19.9109  -14.4536 O   0  0  0  0  0  0  0  0  0  0  0  0
   26.9670  -18.3663   -6.8168 O   0  0  0  0  0  0  0  0  0  0  0  0
   26.7802  -19.2766   -7.8628 C   0  0  0  0  0  0  0  0  0  0  0  0
   25.5838  -19.9464   -8.0190 C   0  0  0  0  0  0  0  0  0  0  0  0
   25.3765  -20.8466   -9.0393 C   0  0  0  0  0  0  0  0  0  0  0  0
   26.3787  -21.1223   -9.9718 C   0  0  0  0  0  0  0  0  0  0  0  0
   26.1547  -22.0883  -11.0702 C   0  0  0  0  0  0  0  0  0  0  0  0
   25.4635  -21.4110  -12.2300 C   0  0  2  0  0  0  0  0  0  0  0  0
   26.4782  -20.5176  -12.8022 N   0  0  0  0  0  0  0  0  0  0  0  0
   24.3081  -20.5914  -11.8408 C   0  0  0  0  0  0  0  0  0  0  0  0
   24.4264  -19.2298  -11.6787 O   0  0  0  0  0  0  0  0  0  0  0  0
   27.5707  -20.4447   -9.8045 C   0  0  0  0  0  0  0  0  0  0  0  0
   27.7740  -19.5446   -8.7803 C   0  0  0  0  0  0  0  0  0  0  0  0
   23.1983  -21.1368  -11.6534 O   0  0  0  0  0  0  0  0  0  0  0  0
  2  1  1  1
  2  3  1  0
  4  5  1  0
  4  2  1  0
  5  6  1  6
  7  5  1  0
  7  8  2  0
  9  7  1  0
 10  9  1  0
 11 12  1  0
 11 10  1  0
 12 13  1  0
 13  9  1  0
 14 23  1  0
 13 14  1  1
 15 14  2  0
 16 17  1  0
 17 18  2  0
 18 19  1  0
 20 19  2  0
 20 21  1  0
 22 21  1  1
 22 23  1  0
 22 24  1  0
 24 25  1  0
 26 20  1  0
 27 17  1  0
 27 26  2  0
 28 24  2  0
M  END
$$$$
