LPY.pdb
     RDKit          3D

 28 29  0  0  1  0  0  0  0  0999 V2000
   26.8406  -26.4570  -19.3202 C   0  0  0  0  0  0  0  0  0  0  0  0
   26.9599  -25.9804  -17.8872 C   0  0  1  0  0  0  0  0  0  0  0  0
   25.7164  -26.3869  -17.1285 C   0  0  0  0  0  0  0  0  0  0  0  0
   28.1947  -26.5485  -17.2241 C   0  0  0  0  0  0  0  0  0  0  0  0
   29.3116  -25.5607  -17.1559 C   0  0  2  0  0  0  0  0  0  0  0  0
   30.4424  -26.0959  -16.3909 N   0  0  0  0  0  0  0  0  0  0  0  0
   28.9358  -24.2247  -16.6298 C   0  0  0  0  0  0  0  0  0  0  0  0
   29.2122  -23.9386  -15.3957 O   0  0  0  0  0  0  0  0  0  0  0  0
   28.2961  -23.1914  -17.3334 N   0  0  0  0  0  0  0  0  0  0  0  0
   28.0208  -23.1607  -18.7534 C   0  0  0  0  0  0  0  0  0  0  0  0
   27.8372  -21.6852  -19.1031 C   0  0  0  0  0  0  0  0  0  0  0  0
   28.3489  -21.0001  -17.8717 C   0  0  0  0  0  0  0  0  0  0  0  0
   27.8086  -21.9100  -16.7703 C   0  0  1  0  0  0  0  0  0  0  0  0
   26.3385  -21.9897  -16.7531 C   0  0  0  0  0  0  0  0  0  0  0  0
   25.6988  -23.0512  -17.0354 O   0  0  0  0  0  0  0  0  0  0  0  0
   19.2145  -22.5285  -12.1914 O   0  0  0  0  0  0  0  0  0  0  0  0
   20.4701  -22.3143  -12.7707 C   0  0  0  0  0  0  0  0  0  0  0  0
   21.0969  -23.3049  -13.4987 C   0  0  0  0  0  0  0  0  0  0  0  0
   22.3318  -23.1181  -14.0773 C   0  0  0  0  0  0  0  0  0  0  0  0
   23.0098  -21.9038  -13.9526 C   0  0  0  0  0  0  0  0  0  0  0  0
   24.3362  -21.7024  -14.5769 C   0  0  0  0  0  0  0  0  0  0  0  0
   24.1849  -21.0363  -15.9242 C   0  0  2  0  0  0  0  0  0  0  0  0
   25.5583  -20.8579  -16.4113 N   0  0  0  0  0  0  0  0  0  0  0  0
   23.5501  -19.7126  -15.8683 C   0  0  0  0  0  0  0  0  0  0  0  0
   22.1926  -19.5687  -16.0429 O   0  0  0  0  0  0  0  0  0  0  0  0
   22.3710  -20.9207  -13.2223 C   0  0  0  0  0  0  0  0  0  0  0  0
   21.1345  -21.1127  -12.6437 C   0  0  0  0  0  0  0  0  0  0  0  0
   24.2520  -18.6989  -15.6587 O   0  0  0  0  0  0  0  0  0  0  0  0
  2  1  1  6
  2  3  1  0
  4  5  1  0
  4  2  1  0
  5  6  1  1
  7  5  1  0
  7  8  2  0
  9  7  1  0
 10  9  1  0
 11 12  1  0
 11 10  1  0
 12 13  1  0
 13  9  1  0
 14 23  1  0
 13 14  1  6
 15 14  2  0
 16 17  1  0
 17 18  2  0
 18 19  1  0
 20 19  2  0
 20 21  1  0
 22 21  1  1
 22 23  1  0
 22 24  1  0
 24 25  1  0
 26 20  1  0
 27 17  1  0
 27 26  2  0
 28 24  2  0
M  END
$$$$
