LPY.pdb
     RDKit          3D

 28 29  0  0  1  0  0  0  0  0999 V2000
   23.3400  -20.8789  -18.3274 C   0  0  0  0  0  0  0  0  0  0  0  0
   24.7382  -21.3547  -17.9904 C   0  0  1  0  0  0  0  0  0  0  0  0
   24.9215  -22.7586  -18.5220 C   0  0  0  0  0  0  0  0  0  0  0  0
   25.7842  -20.4281  -18.5689 C   0  0  0  0  0  0  0  0  0  0  0  0
   27.1733  -20.8431  -18.2138 C   0  0  2  0  0  0  0  0  0  0  0  0
   27.5562  -22.0662  -18.9264 N   0  0  0  0  0  0  0  0  0  0  0  0
   27.4266  -21.0073  -16.7607 C   0  0  0  0  0  0  0  0  0  0  0  0
   27.8667  -22.1475  -16.3279 O   0  0  0  0  0  0  0  0  0  0  0  0
   27.2443  -20.0402  -15.7589 N   0  0  0  0  0  0  0  0  0  0  0  0
   26.6491  -18.7321  -15.9252 C   0  0  0  0  0  0  0  0  0  0  0  0
   27.1613  -17.8971  -14.7533 C   0  0  0  0  0  0  0  0  0  0  0  0
   28.2648  -18.7542  -14.2101 C   0  0  0  0  0  0  0  0  0  0  0  0
   27.6583  -20.1499  -14.3400 C   0  0  1  0  0  0  0  0  0  0  0  0
   26.4256  -20.3221  -13.5536 C   0  0  0  0  0  0  0  0  0  0  0  0
   25.2646  -20.1297  -14.0342 O   0  0  0  0  0  0  0  0  0  0  0  0
   28.1423  -18.5839   -6.5266 O   0  0  0  0  0  0  0  0  0  0  0  0
   27.5944  -19.4518   -7.4776 C   0  0  0  0  0  0  0  0  0  0  0  0
   26.2280  -19.5879   -7.6142 C   0  0  0  0  0  0  0  0  0  0  0  0
   25.6657  -20.4354   -8.5416 C   0  0  0  0  0  0  0  0  0  0  0  0
   26.4630  -21.2009   -9.3950 C   0  0  0  0  0  0  0  0  0  0  0  0
   25.8583  -22.1101  -10.3937 C   0  0  0  0  0  0  0  0  0  0  0  0
   25.3070  -21.3184  -11.5560 C   0  0  2  0  0  0  0  0  0  0  0  0
   26.4855  -20.7204  -12.1956 N   0  0  0  0  0  0  0  0  0  0  0  0
   24.4051  -20.2279  -11.1619 C   0  0  0  0  0  0  0  0  0  0  0  0
   23.0968  -20.4790  -10.8162 O   0  0  0  0  0  0  0  0  0  0  0  0
   27.8287  -21.0546   -9.2484 C   0  0  0  0  0  0  0  0  0  0  0  0
   28.3873  -20.2052   -8.3173 C   0  0  0  0  0  0  0  0  0  0  0  0
   24.8302  -19.0518  -11.1391 O   0  0  0  0  0  0  0  0  0  0  0  0
  2  1  1  6
  2  3  1  0
  4  5  1  0
  4  2  1  0
  5  6  1  6
  7  5  1  0
  7  8  2  0
  9  7  1  0
 10  9  1  0
 11 12  1  0
 11 10  1  0
 12 13  1  0
 13  9  1  0
 14 23  1  0
 13 14  1  1
 15 14  2  0
 16 17  1  0
 17 18  2  0
 18 19  1  0
 20 19  2  0
 20 21  1  0
 22 21  1  1
 22 23  1  0
 22 24  1  0
 24 25  1  0
 26 20  1  0
 27 17  1  0
 27 26  2  0
 28 24  2  0
M  END
$$$$
