LPY.pdb
     RDKit          3D

 28 29  0  0  1  0  0  0  0  0999 V2000
   16.1176  -26.0039    0.4282 C   0  0  0  0  0  0  0  0  0  0  0  0
   15.0213  -25.0141    0.0914 C   0  0  1  0  0  0  0  0  0  0  0  0
   13.6827  -25.6256    0.4394 C   0  0  0  0  0  0  0  0  0  0  0  0
   15.2170  -23.7102    0.8321 C   0  0  0  0  0  0  0  0  0  0  0  0
   14.2478  -22.6592    0.4031 C   0  0  2  0  0  0  0  0  0  0  0  0
   14.3138  -22.4414   -1.0456 N   0  0  0  0  0  0  0  0  0  0  0  0
   14.3746  -21.3620    1.1130 C   0  0  0  0  0  0  0  0  0  0  0  0
   14.5357  -20.2809    0.4155 O   0  0  0  0  0  0  0  0  0  0  0  0
   14.3362  -21.1539    2.5013 N   0  0  0  0  0  0  0  0  0  0  0  0
   14.1867  -22.1711    3.5191 C   0  0  0  0  0  0  0  0  0  0  0  0
   13.6663  -21.4403    4.7552 C   0  0  0  0  0  0  0  0  0  0  0  0
   13.2725  -20.1068    4.1944 C   0  0  0  0  0  0  0  0  0  0  0  0
   14.4032  -19.8488    3.2005 C   0  0  1  0  0  0  0  0  0  0  0  0
   15.7295  -19.7790    3.8361 C   0  0  0  0  0  0  0  0  0  0  0  0
   16.4621  -20.8006    4.0243 O   0  0  0  0  0  0  0  0  0  0  0  0
   17.8191  -12.2873    3.2347 O   0  0  0  0  0  0  0  0  0  0  0  0
   17.9750  -13.6748    3.3262 C   0  0  0  0  0  0  0  0  0  0  0  0
   18.1583  -14.2920    4.5467 C   0  0  0  0  0  0  0  0  0  0  0  0
   18.3144  -15.6547    4.6619 C   0  0  0  0  0  0  0  0  0  0  0  0
   18.2916  -16.4804    3.5361 C   0  0  0  0  0  0  0  0  0  0  0  0
   18.4569  -17.9457    3.6604 C   0  0  0  0  0  0  0  0  0  0  0  0
   17.6229  -18.4711    4.8049 C   0  0  2  0  0  0  0  0  0  0  0  0
   16.2560  -18.5389    4.2734 N   0  0  0  0  0  0  0  0  0  0  0  0
   17.6059  -17.5945    5.9836 C   0  0  0  0  0  0  0  0  0  0  0  0
   16.4914  -16.8512    6.2992 O   0  0  0  0  0  0  0  0  0  0  0  0
   18.1066  -15.8501    2.3210 C   0  0  0  0  0  0  0  0  0  0  0  0
   17.9517  -14.4847    2.2104 C   0  0  0  0  0  0  0  0  0  0  0  0
   18.6188  -17.5207    6.7137 O   0  0  0  0  0  0  0  0  0  0  0  0
  2  1  1  1
  2  3  1  0
  4  5  1  0
  4  2  1  0
  5  6  1  6
  7  5  1  0
  7  8  2  0
  9  7  1  0
 10  9  1  0
 11 12  1  0
 11 10  1  0
 12 13  1  0
 13  9  1  0
 14 23  1  0
 13 14  1  1
 15 14  2  0
 16 17  1  0
 17 18  2  0
 18 19  1  0
 20 19  2  0
 20 21  1  0
 22 21  1  6
 22 23  1  0
 22 24  1  0
 24 25  1  0
 26 20  1  0
 27 17  1  0
 27 26  2  0
 28 24  2  0
M  END
$$$$
