LPY.pdb
     RDKit          3D

 28 29  0  0  1  0  0  0  0  0999 V2000
   25.9496  -16.9582  -17.6155 C   0  0  0  0  0  0  0  0  0  0  0  0
   26.8909  -18.1382  -17.4884 C   0  0  1  0  0  0  0  0  0  0  0  0
   28.2918  -17.6255  -17.2405 C   0  0  0  0  0  0  0  0  0  0  0  0
   26.4595  -19.0626  -16.3719 C   0  0  0  0  0  0  0  0  0  0  0  0
   27.3583  -20.2460  -16.2313 C   0  0  2  0  0  0  0  0  0  0  0  0
   27.1833  -21.1764  -17.3512 N   0  0  0  0  0  0  0  0  0  0  0  0
   27.2355  -20.9774  -14.9457 C   0  0  0  0  0  0  0  0  0  0  0  0
   26.4206  -21.9834  -14.8744 O   0  0  0  0  0  0  0  0  0  0  0  0
   27.9232  -20.7049  -13.7521 N   0  0  0  0  0  0  0  0  0  0  0  0
   28.9855  -19.7392  -13.5735 C   0  0  0  0  0  0  0  0  0  0  0  0
   29.7418  -20.1885  -12.3249 C   0  0  0  0  0  0  0  0  0  0  0  0
   29.2019  -21.5697  -12.1054 C   0  0  0  0  0  0  0  0  0  0  0  0
   27.7254  -21.3770  -12.4460 C   0  0  1  0  0  0  0  0  0  0  0  0
   27.0502  -20.4052  -11.5701 C   0  0  0  0  0  0  0  0  0  0  0  0
   27.0359  -19.1557  -11.8030 O   0  0  0  0  0  0  0  0  0  0  0  0
   18.7737  -19.0756  -10.3606 O   0  0  0  0  0  0  0  0  0  0  0  0
   20.0982  -19.4672  -10.5845 C   0  0  0  0  0  0  0  0  0  0  0  0
   20.5953  -20.6375  -10.0485 C   0  0  0  0  0  0  0  0  0  0  0  0
   21.8943  -21.0432  -10.2542 C   0  0  0  0  0  0  0  0  0  0  0  0
   22.7742  -20.2802  -11.0246 C   0  0  0  0  0  0  0  0  0  0  0  0
   24.1701  -20.7178  -11.2477 C   0  0  0  0  0  0  0  0  0  0  0  0
   25.0427  -20.2946  -10.0897 C   0  0  2  0  0  0  0  0  0  0  0  0
   26.3712  -20.8348  -10.4036 N   0  0  0  0  0  0  0  0  0  0  0  0
   24.6253  -20.8470   -8.7940 C   0  0  0  0  0  0  0  0  0  0  0  0
   23.9224  -20.0832   -7.8903 O   0  0  0  0  0  0  0  0  0  0  0  0
   22.2638  -19.1117  -11.5558 C   0  0  0  0  0  0  0  0  0  0  0  0
   20.9622  -18.7090  -11.3461 C   0  0  0  0  0  0  0  0  0  0  0  0
   24.9117  -22.0297   -8.5051 O   0  0  0  0  0  0  0  0  0  0  0  0
  2  1  1  1
  2  3  1  0
  4  5  1  0
  4  2  1  0
  5  6  1  6
  7  5  1  0
  7  8  2  0
  9  7  1  0
 10  9  1  0
 11 12  1  0
 11 10  1  0
 12 13  1  0
 13  9  1  0
 14 23  1  0
 13 14  1  1
 15 14  2  0
 16 17  1  0
 17 18  2  0
 18 19  1  0
 20 19  2  0
 20 21  1  0
 22 21  1  6
 22 23  1  0
 22 24  1  0
 24 25  1  0
 26 20  1  0
 27 17  1  0
 27 26  2  0
 28 24  2  0
M  END
$$$$
