LPY.pdb
     RDKit          3D

 28 29  0  0  1  0  0  0  0  0999 V2000
   20.1701  -15.0030  -16.1610 C   0  0  0  0  0  0  0  0  0  0  0  0
   21.3265  -15.0148  -17.1396 C   0  0  1  0  0  0  0  0  0  0  0  0
   21.9577  -13.6409  -17.1717 C   0  0  0  0  0  0  0  0  0  0  0  0
   22.3516  -16.0602  -16.7604 C   0  0  0  0  0  0  0  0  0  0  0  0
   23.4600  -16.1597  -17.7550 C   0  0  2  0  0  0  0  0  0  0  0  0
   22.9379  -16.4070  -19.1029 N   0  0  0  0  0  0  0  0  0  0  0  0
   24.5067  -17.1604  -17.4295 C   0  0  0  0  0  0  0  0  0  0  0  0
   24.5816  -18.2408  -18.1426 O   0  0  0  0  0  0  0  0  0  0  0  0
   25.4649  -17.0753  -16.4066 N   0  0  0  0  0  0  0  0  0  0  0  0
   25.6385  -15.9773  -15.4807 C   0  0  0  0  0  0  0  0  0  0  0  0
   27.0725  -16.0963  -14.9684 C   0  0  0  0  0  0  0  0  0  0  0  0
   27.6687  -17.0904  -15.9191 C   0  0  0  0  0  0  0  0  0  0  0  0
   26.5139  -18.0747  -16.0941 C   0  0  1  0  0  0  0  0  0  0  0  0
   26.1126  -18.7275  -14.8369 C   0  0  0  0  0  0  0  0  0  0  0  0
   25.3124  -18.1955  -14.0047 O   0  0  0  0  0  0  0  0  0  0  0  0
   22.7563  -21.5977   -7.9450 O   0  0  0  0  0  0  0  0  0  0  0  0
   23.5732  -21.1431   -8.9860 C   0  0  0  0  0  0  0  0  0  0  0  0
   23.0319  -20.7127  -10.1801 C   0  0  0  0  0  0  0  0  0  0  0  0
   23.8148  -20.2618  -11.2185 C   0  0  0  0  0  0  0  0  0  0  0  0
   25.2059  -20.2182  -11.1060 C   0  0  0  0  0  0  0  0  0  0  0  0
   26.0473  -19.7311  -12.2216 C   0  0  0  0  0  0  0  0  0  0  0  0
   26.0498  -20.7334  -13.3516 C   0  0  2  0  0  0  0  0  0  0  0  0
   26.6141  -20.0076  -14.4962 N   0  0  0  0  0  0  0  0  0  0  0  0
   24.7126  -21.2077  -13.7325 C   0  0  0  0  0  0  0  0  0  0  0  0
   24.2048  -22.3816  -13.2245 O   0  0  0  0  0  0  0  0  0  0  0  0
   25.7346  -20.6510   -9.9055 C   0  0  0  0  0  0  0  0  0  0  0  0
   24.9465  -21.1027   -8.8686 C   0  0  0  0  0  0  0  0  0  0  0  0
   24.0227  -20.5360  -14.5307 O   0  0  0  0  0  0  0  0  0  0  0  0
  2  1  1  1
  2  3  1  0
  4  5  1  0
  4  2  1  0
  5  6  1  6
  7  5  1  0
  7  8  2  0
  9  7  1  0
 10  9  1  0
 11 12  1  0
 11 10  1  0
 12 13  1  0
 13  9  1  0
 14 23  1  0
 13 14  1  1
 15 14  2  0
 16 17  1  0
 17 18  2  0
 18 19  1  0
 20 19  2  0
 20 21  1  0
 22 21  1  1
 22 23  1  0
 22 24  1  0
 24 25  1  0
 26 20  1  0
 27 17  1  0
 27 26  2  0
 28 24  2  0
M  END
$$$$
