LPY.pdb
     RDKit          3D

 28 29  0  0  1  0  0  0  0  0999 V2000
   24.1521  -15.6182  -17.1318 C   0  0  0  0  0  0  0  0  0  0  0  0
   25.2642  -16.5444  -17.5794 C   0  0  1  0  0  0  0  0  0  0  0  0
   26.3613  -15.7228  -18.2186 C   0  0  0  0  0  0  0  0  0  0  0  0
   25.8095  -17.3438  -16.4172 C   0  0  0  0  0  0  0  0  0  0  0  0
   26.2994  -18.6915  -16.8315 C   0  0  2  0  0  0  0  0  0  0  0  0
   25.5769  -19.1747  -18.0125 N   0  0  0  0  0  0  0  0  0  0  0  0
   26.2696  -19.7244  -15.7661 C   0  0  0  0  0  0  0  0  0  0  0  0
   25.3227  -20.6101  -15.7806 O   0  0  0  0  0  0  0  0  0  0  0  0
   27.1786  -19.8673  -14.7053 N   0  0  0  0  0  0  0  0  0  0  0  0
   28.3479  -19.0516  -14.4595 C   0  0  0  0  0  0  0  0  0  0  0  0
   29.2606  -19.8998  -13.5761 C   0  0  0  0  0  0  0  0  0  0  0  0
   28.6303  -21.2563  -13.6768 C   0  0  0  0  0  0  0  0  0  0  0  0
   27.1443  -20.9044  -13.6470 C   0  0  1  0  0  0  0  0  0  0  0  0
   26.7336  -20.2266  -12.4061 C   0  0  0  0  0  0  0  0  0  0  0  0
   26.9406  -18.9911  -12.1905 O   0  0  0  0  0  0  0  0  0  0  0  0
   20.0473  -22.2603  -12.6873 O   0  0  0  0  0  0  0  0  0  0  0  0
   21.1480  -21.5348  -12.2184 C   0  0  0  0  0  0  0  0  0  0  0  0
   21.1374  -20.9540  -10.9667 C   0  0  0  0  0  0  0  0  0  0  0  0
   22.2075  -20.2354  -10.4840 C   0  0  0  0  0  0  0  0  0  0  0  0
   23.3635  -20.0632  -11.2481 C   0  0  0  0  0  0  0  0  0  0  0  0
   24.5149  -19.2927  -10.7280 C   0  0  0  0  0  0  0  0  0  0  0  0
   25.5735  -20.2293  -10.1952 C   0  0  2  0  0  0  0  0  0  0  0  0
   26.0735  -20.9421  -11.3773 N   0  0  0  0  0  0  0  0  0  0  0  0
   25.0643  -21.2291   -9.2469 C   0  0  0  0  0  0  0  0  0  0  0  0
   24.6125  -20.8594   -8.0006 O   0  0  0  0  0  0  0  0  0  0  0  0
   23.3613  -20.6502  -12.4985 C   0  0  0  0  0  0  0  0  0  0  0  0
   22.2866  -21.3682  -12.9781 C   0  0  0  0  0  0  0  0  0  0  0  0
   25.0396  -22.4358   -9.5748 O   0  0  0  0  0  0  0  0  0  0  0  0
  2  1  1  1
  2  3  1  0
  4  5  1  0
  4  2  1  0
  5  6  1  6
  7  5  1  0
  7  8  2  0
  9  7  1  0
 10  9  1  0
 11 12  1  0
 11 10  1  0
 12 13  1  0
 13  9  1  0
 14 23  1  0
 13 14  1  1
 15 14  2  0
 16 17  1  0
 17 18  2  0
 18 19  1  0
 20 19  2  0
 20 21  1  0
 22 21  1  6
 22 23  1  0
 22 24  1  0
 24 25  1  0
 26 20  1  0
 27 17  1  0
 27 26  2  0
 28 24  2  0
M  END
$$$$
