LPY.pdb
     RDKit          3D

 28 29  0  0  1  0  0  0  0  0999 V2000
   25.7705  -21.9709  -12.3678 C   0  0  0  0  0  0  0  0  0  0  0  0
   26.3169  -20.5622  -12.2591 C   0  0  1  0  0  0  0  0  0  0  0  0
   26.6422  -20.2712  -10.8111 C   0  0  0  0  0  0  0  0  0  0  0  0
   27.5448  -20.3849  -13.1240 C   0  0  0  0  0  0  0  0  0  0  0  0
   27.6632  -19.0008  -13.6701 C   0  0  2  0  0  0  0  0  0  0  0  0
   27.1098  -18.0163  -12.7347 N   0  0  0  0  0  0  0  0  0  0  0  0
   27.0696  -18.8049  -15.0162 C   0  0  0  0  0  0  0  0  0  0  0  0
   25.9944  -18.0887  -15.1268 O   0  0  0  0  0  0  0  0  0  0  0  0
   27.5506  -19.3170  -16.2320 N   0  0  0  0  0  0  0  0  0  0  0  0
   28.7224  -20.1463  -16.4117 C   0  0  0  0  0  0  0  0  0  0  0  0
   29.1207  -19.9804  -17.8769 C   0  0  0  0  0  0  0  0  0  0  0  0
   28.2944  -18.8032  -18.3001 C   0  0  0  0  0  0  0  0  0  0  0  0
   26.9773  -19.0805  -17.5781 C   0  0  1  0  0  0  0  0  0  0  0  0
   26.3428  -20.3425  -17.9934 C   0  0  0  0  0  0  0  0  0  0  0  0
   26.8868  -21.4792  -17.8268 O   0  0  0  0  0  0  0  0  0  0  0  0
   20.1089  -18.8321  -14.9717 O   0  0  0  0  0  0  0  0  0  0  0  0
   21.0828  -19.6361  -15.5742 C   0  0  0  0  0  0  0  0  0  0  0  0
   20.7495  -20.5377  -16.5642 C   0  0  0  0  0  0  0  0  0  0  0  0
   21.6894  -21.3394  -17.1710 C   0  0  0  0  0  0  0  0  0  0  0  0
   23.0361  -21.2725  -16.8080 C   0  0  0  0  0  0  0  0  0  0  0  0
   24.0469  -22.1328  -17.4622 C   0  0  0  0  0  0  0  0  0  0  0  0
   24.3655  -21.6087  -18.8426 C   0  0  2  0  0  0  0  0  0  0  0  0
   25.0676  -20.3405  -18.6100 N   0  0  0  0  0  0  0  0  0  0  0  0
   23.1799  -21.3247  -19.6623 C   0  0  0  0  0  0  0  0  0  0  0  0
   22.3750  -22.3420  -20.1222 O   0  0  0  0  0  0  0  0  0  0  0  0
   23.3563  -20.3656  -15.8165 C   0  0  0  0  0  0  0  0  0  0  0  0
   22.4112  -19.5654  -15.2109 C   0  0  0  0  0  0  0  0  0  0  0  0
   22.8950  -20.1409  -19.9479 O   0  0  0  0  0  0  0  0  0  0  0  0
  2  1  1  1
  2  3  1  0
  4  5  1  0
  4  2  1  0
  5  6  1  1
  7  5  1  0
  7  8  2  0
  9  7  1  0
 10  9  1  0
 11 12  1  0
 11 10  1  0
 12 13  1  0
 13  9  1  0
 14 23  1  0
 13 14  1  6
 15 14  2  0
 16 17  1  0
 17 18  2  0
 18 19  1  0
 20 19  2  0
 20 21  1  0
 22 21  1  1
 22 23  1  0
 22 24  1  0
 24 25  1  0
 26 20  1  0
 27 17  1  0
 27 26  2  0
 28 24  2  0
M  END
$$$$
