WAN.pdb
     RDKit          3D

 28 29  0  0  1  0  0  0  0  0999 V2000
    6.5981  -17.0576   24.4936 N   0  0  0  0  0  0  0  0  0  0  0  0
    6.9953  -15.7669   23.9221 C   0  0  1  0  0  0  0  0  0  0  0  0
    8.1576  -15.1971   24.7257 C   0  0  0  0  0  0  0  0  0  0  0  0
    7.5887  -14.6423   25.9792 C   0  0  0  0  0  0  0  0  0  0  0  0
    7.3632  -15.2827   27.1847 C   0  0  0  0  0  0  0  0  0  0  0  0
    6.8364  -14.4026   28.0390 N   0  0  0  0  0  0  0  0  0  0  0  0
    6.7077  -13.2003   27.4323 C   0  0  0  0  0  0  0  0  0  0  0  0
    6.2186  -11.9792   27.8941 C   0  0  0  0  0  0  0  0  0  0  0  0
    6.2109  -10.8974   27.0244 C   0  0  0  0  0  0  0  0  0  0  0  0
    6.6763  -11.0401   25.7447 C   0  0  0  0  0  0  0  0  0  0  0  0
    7.1634  -12.2676   25.2958 C   0  0  0  0  0  0  0  0  0  0  0  0
    7.1716  -13.3395   26.1552 C   0  0  0  0  0  0  0  0  0  0  0  0
    7.3598  -15.9991   22.5217 C   0  0  0  0  0  0  0  0  0  0  0  0
    7.6506  -17.1368   22.0774 O   0  0  0  0  0  0  0  0  0  0  0  0
    7.3529  -13.7416   19.5434 C   0  0  0  0  0  0  0  0  0  0  0  0
    7.7012  -15.0747   20.2040 C   0  0  2  0  0  0  0  0  0  0  0  0
    7.3931  -14.9084   21.6088 N   0  0  0  0  0  0  0  0  0  0  0  0
    9.1539  -15.2760   20.0598 C   0  0  0  0  0  0  0  0  0  0  0  0
    9.9116  -14.2796   20.1167 O   0  0  0  0  0  0  0  0  0  0  0  0
   13.3668  -17.4758   22.6164 N   0  0  0  0  0  0  0  0  0  0  0  0
   12.9778  -16.4848   21.6747 C   0  0  0  0  0  0  0  0  0  0  0  0
   13.8704  -15.8560   21.0900 O   0  0  0  0  0  0  0  0  0  0  0  0
   11.5608  -16.2474   21.4341 C   0  0  0  0  0  0  0  0  0  0  0  0
   11.1415  -16.7426   20.0860 C   0  0  2  0  0  0  0  0  0  0  0  0
    9.7218  -16.5518   19.8603 N   0  0  0  0  0  0  0  0  0  0  0  0
   11.4981  -18.1684   19.9366 C   0  0  0  0  0  0  0  0  0  0  0  0
   10.6902  -19.1053   20.6321 O   0  0  0  0  0  0  0  0  0  0  0  0
   12.4197  -18.6226   19.2736 O   0  0  0  0  0  0  0  0  0  0  0  0
  2  1  1  1
  3  2  1  0
  3  4  1  0
  4  5  2  0
  5  6  1  0
  7  6  1  0
  8  7  2  0
  9  8  1  0
 10 11  1  0
 10  9  2  0
 11 12  2  0
 12  4  1  0
 12  7  1  0
 13 17  1  0
 13  2  1  0
 14 13  2  0
 16 18  1  0
 16 15  1  6
 16 17  1  0
 18 25  1  0
 19 18  2  0
 20 21  1  0
 21 22  2  0
 23 21  1  0
 24 23  1  1
 24 26  1  0
 25 24  1  0
 26 28  2  0
 26 27  1  0
M  END
$$$$
