WAN.pdb
     RDKit          3D

 28 29  0  0  1  0  0  0  0  0999 V2000
    9.5187  -14.9935   23.0774 N   0  0  0  0  0  0  0  0  0  0  0  0
    9.7946  -15.6781   24.3446 C   0  0  1  0  0  0  0  0  0  0  0  0
    8.4805  -15.9498   25.0662 C   0  0  0  0  0  0  0  0  0  0  0  0
    7.6418  -14.7349   24.9141 C   0  0  0  0  0  0  0  0  0  0  0  0
    6.7883  -14.3969   23.8789 C   0  0  0  0  0  0  0  0  0  0  0  0
    6.2376  -13.2126   24.1546 N   0  0  0  0  0  0  0  0  0  0  0  0
    6.7028  -12.7594   25.3414 C   0  0  0  0  0  0  0  0  0  0  0  0
    6.4349  -11.5918   26.0546 C   0  0  0  0  0  0  0  0  0  0  0  0
    7.0757  -11.3969   27.2704 C   0  0  0  0  0  0  0  0  0  0  0  0
    7.9486  -12.3379   27.7467 C   0  0  0  0  0  0  0  0  0  0  0  0
    8.2071  -13.5020   27.0230 C   0  0  0  0  0  0  0  0  0  0  0  0
    7.5738  -13.6966   25.8194 C   0  0  0  0  0  0  0  0  0  0  0  0
   10.5118  -16.9165   24.0286 C   0  0  0  0  0  0  0  0  0  0  0  0
   10.8799  -17.7299   24.9115 O   0  0  0  0  0  0  0  0  0  0  0  0
   11.0773  -18.7691   20.8861 C   0  0  0  0  0  0  0  0  0  0  0  0
   11.5502  -18.4218   22.2969 C   0  0  2  0  0  0  0  0  0  0  0  0
   10.8155  -17.2330   22.6753 N   0  0  0  0  0  0  0  0  0  0  0  0
   12.9827  -18.0855   22.2154 C   0  0  0  0  0  0  0  0  0  0  0  0
   13.8027  -18.9928   21.9419 O   0  0  0  0  0  0  0  0  0  0  0  0
   17.1425  -13.7828   22.2163 N   0  0  0  0  0  0  0  0  0  0  0  0
   16.5523  -14.8883   21.5456 C   0  0  0  0  0  0  0  0  0  0  0  0
   17.2816  -15.5954   20.8370 O   0  0  0  0  0  0  0  0  0  0  0  0
   15.1285  -15.1466   21.7137 C   0  0  0  0  0  0  0  0  0  0  0  0
   14.8803  -16.5057   22.2878 C   0  0  2  0  0  0  0  0  0  0  0  0
   13.4635  -16.7775   22.4343 N   0  0  0  0  0  0  0  0  0  0  0  0
   15.5659  -16.6387   23.5896 C   0  0  0  0  0  0  0  0  0  0  0  0
   14.7545  -16.5515   24.7508 O   0  0  0  0  0  0  0  0  0  0  0  0
   16.7626  -16.8163   23.7673 O   0  0  0  0  0  0  0  0  0  0  0  0
  2  1  1  6
  3  2  1  0
  3  4  1  0
  4  5  2  0
  5  6  1  0
  7  6  1  0
  8  7  2  0
  9  8  1  0
 10 11  1  0
 10  9  2  0
 11 12  2  0
 12  4  1  0
 12  7  1  0
 13 17  1  0
 13  2  1  0
 14 13  2  0
 16 18  1  0
 16 15  1  6
 16 17  1  0
 18 25  1  0
 19 18  2  0
 20 21  1  0
 21 22  2  0
 23 21  1  0
 24 23  1  1
 24 26  1  0
 25 24  1  0
 26 28  2  0
 26 27  1  0
M  END
$$$$
