WAN.pdb
     RDKit          3D

 28 29  0  0  1  0  0  0  0  0999 V2000
    6.5749  -17.8341   25.1480 N   0  0  0  0  0  0  0  0  0  0  0  0
    6.9873  -16.4977   24.7072 C   0  0  1  0  0  0  0  0  0  0  0  0
    8.3499  -16.1690   25.3046 C   0  0  0  0  0  0  0  0  0  0  0  0
    8.1041  -15.5190   26.6159 C   0  0  0  0  0  0  0  0  0  0  0  0
    8.1866  -16.0685   27.8830 C   0  0  0  0  0  0  0  0  0  0  0  0
    7.8813  -15.1232   28.7745 N   0  0  0  0  0  0  0  0  0  0  0  0
    7.5999  -13.9660   28.1327 C   0  0  0  0  0  0  0  0  0  0  0  0
    7.2324  -12.7090   28.6110 C   0  0  0  0  0  0  0  0  0  0  0  0
    7.0042  -11.6924   27.6939 C   0  0  0  0  0  0  0  0  0  0  0  0
    7.1406  -11.9320   26.3529 C   0  0  0  0  0  0  0  0  0  0  0  0
    7.5094  -13.1944   25.8880 C   0  0  0  0  0  0  0  0  0  0  0  0
    7.7356  -14.2019   26.7943 C   0  0  0  0  0  0  0  0  0  0  0  0
    7.0201  -16.5081   23.2420 C   0  0  0  0  0  0  0  0  0  0  0  0
    6.9465  -17.5665   22.5706 O   0  0  0  0  0  0  0  0  0  0  0  0
    7.0351  -13.7394   20.7296 C   0  0  0  0  0  0  0  0  0  0  0  0
    7.1594  -15.2211   21.0817 C   0  0  2  0  0  0  0  0  0  0  0  0
    7.1396  -15.2835   22.5280 N   0  0  0  0  0  0  0  0  0  0  0  0
    8.4763  -15.6818   20.6072 C   0  0  0  0  0  0  0  0  0  0  0  0
    9.0567  -15.0315   19.7069 O   0  0  0  0  0  0  0  0  0  0  0  0
   13.4035  -16.0568   22.9500 N   0  0  0  0  0  0  0  0  0  0  0  0
   12.6497  -15.8559   21.7619 C   0  0  0  0  0  0  0  0  0  0  0  0
   13.2667  -15.7432   20.6939 O   0  0  0  0  0  0  0  0  0  0  0  0
   11.1966  -15.7906   21.8420 C   0  0  0  0  0  0  0  0  0  0  0  0
   10.5539  -16.9223   21.1041 C   0  0  2  0  0  0  0  0  0  0  0  0
    9.1070  -16.8297   21.1313 N   0  0  0  0  0  0  0  0  0  0  0  0
   10.9964  -18.2129   21.6707 C   0  0  0  0  0  0  0  0  0  0  0  0
   10.1968  -18.7641   22.7056 O   0  0  0  0  0  0  0  0  0  0  0  0
   11.9829  -18.8541   21.3375 O   0  0  0  0  0  0  0  0  0  0  0  0
  2  1  1  1
  3  2  1  0
  3  4  1  0
  4  5  2  0
  5  6  1  0
  7  6  1  0
  8  7  2  0
  9  8  1  0
 10 11  1  0
 10  9  2  0
 11 12  2  0
 12  4  1  0
 12  7  1  0
 13 17  1  0
 13  2  1  0
 14 13  2  0
 16 18  1  0
 16 15  1  1
 16 17  1  0
 18 25  1  0
 19 18  2  0
 20 21  1  0
 21 22  2  0
 23 21  1  0
 24 23  1  1
 24 26  1  0
 25 24  1  0
 26 28  2  0
 26 27  1  0
M  END
$$$$
