WAN.pdb
     RDKit          3D

 28 29  0  0  1  0  0  0  0  0999 V2000
    6.4902  -17.0578   23.2014 N   0  0  0  0  0  0  0  0  0  0  0  0
    7.0751  -15.7413   22.9272 C   0  0  1  0  0  0  0  0  0  0  0  0
    8.1430  -15.4379   23.9707 C   0  0  0  0  0  0  0  0  0  0  0  0
    7.4423  -14.9182   25.1713 C   0  0  0  0  0  0  0  0  0  0  0  0
    6.7171  -15.6170   26.1200 C   0  0  0  0  0  0  0  0  0  0  0  0
    6.2600  -14.7497   27.0260 N   0  0  0  0  0  0  0  0  0  0  0  0
    6.6624  -13.4992   26.7026 C   0  0  0  0  0  0  0  0  0  0  0  0
    6.4477  -12.2694   27.3232 C   0  0  0  0  0  0  0  0  0  0  0  0
    6.9974  -11.1323   26.7473 C   0  0  0  0  0  0  0  0  0  0  0  0
    7.7319  -11.2305   25.5961 C   0  0  0  0  0  0  0  0  0  0  0  0
    7.9393  -12.4675   24.9859 C   0  0  0  0  0  0  0  0  0  0  0  0
    7.3959  -13.5941   25.5544 C   0  0  0  0  0  0  0  0  0  0  0  0
    7.6301  -15.7800   21.5713 C   0  0  0  0  0  0  0  0  0  0  0  0
    7.8687  -16.8548   20.9677 O   0  0  0  0  0  0  0  0  0  0  0  0
    8.5192  -13.0541   19.1618 C   0  0  0  0  0  0  0  0  0  0  0  0
    8.4537  -14.5319   19.5447 C   0  0  2  0  0  0  0  0  0  0  0  0
    7.9190  -14.5651   20.8898 N   0  0  0  0  0  0  0  0  0  0  0  0
    9.8346  -15.0455   19.5728 C   0  0  0  0  0  0  0  0  0  0  0  0
   10.3478  -15.4606   18.5076 O   0  0  0  0  0  0  0  0  0  0  0  0
   12.8842  -12.5564   19.2929 N   0  0  0  0  0  0  0  0  0  0  0  0
   13.2298  -13.9184   19.5069 C   0  0  0  0  0  0  0  0  0  0  0  0
   13.7414  -14.5430   18.5677 O   0  0  0  0  0  0  0  0  0  0  0  0
   12.9730  -14.5231   20.8071 C   0  0  0  0  0  0  0  0  0  0  0  0
   11.9506  -15.6115   20.7149 C   0  0  2  0  0  0  0  0  0  0  0  0
   10.5998  -15.0860   20.7573 N   0  0  0  0  0  0  0  0  0  0  0  0
   12.1546  -16.5916   21.8014 C   0  0  0  0  0  0  0  0  0  0  0  0
   13.4145  -17.2434   21.8457 O   0  0  0  0  0  0  0  0  0  0  0  0
   11.3465  -16.8977   22.6666 O   0  0  0  0  0  0  0  0  0  0  0  0
  2  1  1  1
  3  2  1  0
  3  4  1  0
  4  5  2  0
  5  6  1  0
  7  6  1  0
  8  7  2  0
  9  8  1  0
 10 11  1  0
 10  9  2  0
 11 12  2  0
 12  4  1  0
 12  7  1  0
 13 17  1  0
 13  2  1  0
 14 13  2  0
 16 18  1  0
 16 15  1  1
 16 17  1  0
 18 25  1  0
 19 18  2  0
 20 21  1  0
 21 22  2  0
 23 21  1  0
 24 23  1  1
 24 26  1  0
 25 24  1  0
 26 28  2  0
 26 27  1  0
M  END
$$$$
