WAN.pdb
     RDKit          3D

 28 29  0  0  1  0  0  0  0  0999 V2000
    6.3311  -18.1344   24.1210 N   0  0  0  0  0  0  0  0  0  0  0  0
    6.6956  -16.7432   23.8342 C   0  0  1  0  0  0  0  0  0  0  0  0
    7.7546  -16.2852   24.8292 C   0  0  0  0  0  0  0  0  0  0  0  0
    7.0865  -15.3638   25.7817 C   0  0  0  0  0  0  0  0  0  0  0  0
    6.0965  -15.6442   26.7067 C   0  0  0  0  0  0  0  0  0  0  0  0
    5.7884  -14.5167   27.3513 N   0  0  0  0  0  0  0  0  0  0  0  0
    6.5463  -13.5006   26.8786 C   0  0  0  0  0  0  0  0  0  0  0  0
    6.6002  -12.1503   27.2215 C   0  0  0  0  0  0  0  0  0  0  0  0
    7.4974  -11.3318   26.5492 C   0  0  0  0  0  0  0  0  0  0  0  0
    8.3054  -11.8518   25.5739 C   0  0  0  0  0  0  0  0  0  0  0  0
    8.2414  -13.2048   25.2412 C   0  0  0  0  0  0  0  0  0  0  0  0
    7.3539  -14.0164   25.9054 C   0  0  0  0  0  0  0  0  0  0  0  0
    7.1835  -16.6918   22.4531 C   0  0  0  0  0  0  0  0  0  0  0  0
    7.4559  -17.7241   21.7924 O   0  0  0  0  0  0  0  0  0  0  0  0
    7.8386  -13.8140   20.1458 C   0  0  0  0  0  0  0  0  0  0  0  0
    7.7758  -15.3141   20.4298 C   0  0  2  0  0  0  0  0  0  0  0  0
    7.3643  -15.4345   21.8127 N   0  0  0  0  0  0  0  0  0  0  0  0
    9.1421  -15.8495   20.2954 C   0  0  0  0  0  0  0  0  0  0  0  0
    9.6928  -15.8275   19.1700 O   0  0  0  0  0  0  0  0  0  0  0  0
   12.0169  -15.3785   24.1797 N   0  0  0  0  0  0  0  0  0  0  0  0
   12.3710  -15.8129   22.8735 C   0  0  0  0  0  0  0  0  0  0  0  0
   13.0417  -15.0472   22.1679 O   0  0  0  0  0  0  0  0  0  0  0  0
   11.9374  -17.1267   22.4172 C   0  0  0  0  0  0  0  0  0  0  0  0
   11.1296  -17.0336   21.1614 C   0  0  2  0  0  0  0  0  0  0  0  0
    9.8525  -16.3860   21.3898 N   0  0  0  0  0  0  0  0  0  0  0  0
   10.9273  -18.3800   20.5881 C   0  0  0  0  0  0  0  0  0  0  0  0
    9.8933  -19.1680   21.1573 O   0  0  0  0  0  0  0  0  0  0  0  0
   11.5616  -18.8840   19.6721 O   0  0  0  0  0  0  0  0  0  0  0  0
  2  1  1  1
  3  2  1  0
  3  4  1  0
  4  5  2  0
  5  6  1  0
  7  6  1  0
  8  7  2  0
  9  8  1  0
 10 11  1  0
 10  9  2  0
 11 12  2  0
 12  4  1  0
 12  7  1  0
 13 17  1  0
 13  2  1  0
 14 13  2  0
 16 18  1  0
 16 15  1  1
 16 17  1  0
 18 25  1  0
 19 18  2  0
 20 21  1  0
 21 22  2  0
 23 21  1  0
 24 23  1  1
 24 26  1  0
 25 24  1  0
 26 28  2  0
 26 27  1  0
M  END
$$$$
