WAN.pdb
     RDKit          3D

 28 29  0  0  1  0  0  0  0  0999 V2000
    6.2116  -18.2298   24.0482 N   0  0  0  0  0  0  0  0  0  0  0  0
    6.6317  -16.8334   23.8935 C   0  0  1  0  0  0  0  0  0  0  0  0
    7.5336  -16.4471   25.0591 C   0  0  0  0  0  0  0  0  0  0  0  0
    6.8628  -15.3355   25.7779 C   0  0  0  0  0  0  0  0  0  0  0  0
    5.6895  -15.3623   26.5107 C   0  0  0  0  0  0  0  0  0  0  0  0
    5.4572  -14.1352   26.9819 N   0  0  0  0  0  0  0  0  0  0  0  0
    6.4429  -13.2996   26.5814 C   0  0  0  0  0  0  0  0  0  0  0  0
    6.6525  -11.9403   26.8098 C   0  0  0  0  0  0  0  0  0  0  0  0
    7.7774  -11.3421   26.2588 C   0  0  0  0  0  0  0  0  0  0  0  0
    8.6532  -12.0818   25.5105 C   0  0  0  0  0  0  0  0  0  0  0  0
    8.4316  -13.4412   25.2902 C   0  0  0  0  0  0  0  0  0  0  0  0
    7.3186  -14.0350   25.8346 C   0  0  0  0  0  0  0  0  0  0  0  0
    7.3231  -16.7218   22.6060 C   0  0  0  0  0  0  0  0  0  0  0  0
    7.8772  -17.7006   22.0479 O   0  0  0  0  0  0  0  0  0  0  0  0
    7.7160  -13.8605   20.2260 C   0  0  0  0  0  0  0  0  0  0  0  0
    8.0401  -15.2882   20.6635 C   0  0  2  0  0  0  0  0  0  0  0  0
    7.3832  -15.4654   21.9415 N   0  0  0  0  0  0  0  0  0  0  0  0
    9.4973  -15.3710   20.8661 C   0  0  0  0  0  0  0  0  0  0  0  0
   10.2550  -15.2231   19.8790 O   0  0  0  0  0  0  0  0  0  0  0  0
   10.4349  -17.0481   24.3412 N   0  0  0  0  0  0  0  0  0  0  0  0
   11.4076  -16.0651   24.6698 C   0  0  0  0  0  0  0  0  0  0  0  0
   11.7363  -15.9468   25.8580 O   0  0  0  0  0  0  0  0  0  0  0  0
   11.9757  -15.2424   23.6103 C   0  0  0  0  0  0  0  0  0  0  0  0
   11.5122  -15.6884   22.2595 C   0  0  2  0  0  0  0  0  0  0  0  0
   10.0697  -15.6109   22.1329 N   0  0  0  0  0  0  0  0  0  0  0  0
   11.9777  -17.0649   21.9931 C   0  0  0  0  0  0  0  0  0  0  0  0
   10.9766  -18.0469   21.7750 O   0  0  0  0  0  0  0  0  0  0  0  0
   13.1394  -17.4432   21.9417 O   0  0  0  0  0  0  0  0  0  0  0  0
  2  1  1  1
  3  2  1  0
  3  4  1  0
  4  5  2  0
  5  6  1  0
  7  6  1  0
  8  7  2  0
  9  8  1  0
 10 11  1  0
 10  9  2  0
 11 12  2  0
 12  4  1  0
 12  7  1  0
 13 17  1  0
 13  2  1  0
 14 13  2  0
 16 18  1  0
 16 15  1  1
 16 17  1  0
 18 25  1  0
 19 18  2  0
 20 21  1  0
 21 22  2  0
 23 21  1  0
 24 23  1  1
 24 26  1  0
 25 24  1  0
 26 28  2  0
 26 27  1  0
M  END
$$$$
