WAN.pdb
     RDKit          3D

 28 29  0  0  1  0  0  0  0  0999 V2000
    6.1197  -17.7139   23.8348 N   0  0  0  0  0  0  0  0  0  0  0  0
    6.6432  -16.3644   23.5996 C   0  0  1  0  0  0  0  0  0  0  0  0
    7.7196  -16.0551   24.6325 C   0  0  0  0  0  0  0  0  0  0  0  0
    7.1280  -15.1028   25.6050 C   0  0  0  0  0  0  0  0  0  0  0  0
    6.0580  -15.2935   26.4612 C   0  0  0  0  0  0  0  0  0  0  0  0
    5.8680  -14.1703   27.1570 N   0  0  0  0  0  0  0  0  0  0  0  0
    6.7814  -13.2443   26.7850 C   0  0  0  0  0  0  0  0  0  0  0  0
    6.9966  -11.9345   27.2115 C   0  0  0  0  0  0  0  0  0  0  0  0
    8.0327  -11.2125   26.6353 C   0  0  0  0  0  0  0  0  0  0  0  0
    8.8180  -11.7857   25.6714 C   0  0  0  0  0  0  0  0  0  0  0  0
    8.5918  -13.0974   25.2544 C   0  0  0  0  0  0  0  0  0  0  0  0
    7.5666  -13.8136   25.8234 C   0  0  0  0  0  0  0  0  0  0  0  0
    7.1701  -16.3287   22.2324 C   0  0  0  0  0  0  0  0  0  0  0  0
    7.4274  -17.3693   21.5786 O   0  0  0  0  0  0  0  0  0  0  0  0
    7.9343  -13.4901   19.9153 C   0  0  0  0  0  0  0  0  0  0  0  0
    8.0193  -14.9690   20.2900 C   0  0  2  0  0  0  0  0  0  0  0  0
    7.4084  -15.0778   21.5982 N   0  0  0  0  0  0  0  0  0  0  0  0
    9.4466  -15.3171   20.4050 C   0  0  0  0  0  0  0  0  0  0  0  0
   10.1449  -15.3594   19.3653 O   0  0  0  0  0  0  0  0  0  0  0  0
   14.4508  -14.6964   22.2976 N   0  0  0  0  0  0  0  0  0  0  0  0
   13.5320  -15.5332   22.9874 C   0  0  0  0  0  0  0  0  0  0  0  0
   13.9862  -16.4888   23.6312 O   0  0  0  0  0  0  0  0  0  0  0  0
   12.1069  -15.2404   22.9131 C   0  0  0  0  0  0  0  0  0  0  0  0
   11.4830  -15.8502   21.6977 C   0  0  2  0  0  0  0  0  0  0  0  0
   10.0549  -15.6042   21.6450 N   0  0  0  0  0  0  0  0  0  0  0  0
   11.7556  -17.3017   21.6623 C   0  0  0  0  0  0  0  0  0  0  0  0
   12.8720  -17.7235   20.8940 O   0  0  0  0  0  0  0  0  0  0  0  0
   11.1159  -18.1765   22.2285 O   0  0  0  0  0  0  0  0  0  0  0  0
  2  1  1  1
  3  2  1  0
  3  4  1  0
  4  5  2  0
  5  6  1  0
  7  6  1  0
  8  7  2  0
  9  8  1  0
 10 11  1  0
 10  9  2  0
 11 12  2  0
 12  4  1  0
 12  7  1  0
 13 17  1  0
 13  2  1  0
 14 13  2  0
 16 18  1  0
 16 15  1  1
 16 17  1  0
 18 25  1  0
 19 18  2  0
 20 21  1  0
 21 22  2  0
 23 21  1  0
 24 23  1  1
 24 26  1  0
 25 24  1  0
 26 28  2  0
 26 27  1  0
M  END
$$$$
