WAN.pdb
     RDKit          3D

 28 29  0  0  1  0  0  0  0  0999 V2000
    9.7036  -15.2834   22.6104 N   0  0  0  0  0  0  0  0  0  0  0  0
    9.3194  -15.8035   23.9266 C   0  0  1  0  0  0  0  0  0  0  0  0
    7.8003  -15.8852   24.0115 C   0  0  0  0  0  0  0  0  0  0  0  0
    7.2877  -14.4928   23.9793 C   0  0  0  0  0  0  0  0  0  0  0  0
    6.9100  -13.7350   22.8851 C   0  0  0  0  0  0  0  0  0  0  0  0
    6.5125  -12.5364   23.3178 N   0  0  0  0  0  0  0  0  0  0  0  0
    6.6170  -12.4813   24.6655 C   0  0  0  0  0  0  0  0  0  0  0  0
    6.3290  -11.4642   25.5745 C   0  0  0  0  0  0  0  0  0  0  0  0
    6.5411  -11.7037   26.9252 C   0  0  0  0  0  0  0  0  0  0  0  0
    7.0224  -12.9158   27.3418 C   0  0  0  0  0  0  0  0  0  0  0  0
    7.3059  -13.9249   26.4216 C   0  0  0  0  0  0  0  0  0  0  0  0
    7.0967  -13.6897   25.0842 C   0  0  0  0  0  0  0  0  0  0  0  0
    9.9477  -17.1185   24.0808 C   0  0  0  0  0  0  0  0  0  0  0  0
    9.8289  -17.8078   25.1235 O   0  0  0  0  0  0  0  0  0  0  0  0
   11.2671  -19.5841   21.7442 C   0  0  0  0  0  0  0  0  0  0  0  0
   11.4043  -18.9351   23.1207 C   0  0  2  0  0  0  0  0  0  0  0  0
   10.7288  -17.6583   23.0213 N   0  0  0  0  0  0  0  0  0  0  0  0
   12.8386  -18.6933   23.3572 C   0  0  0  0  0  0  0  0  0  0  0  0
   13.6135  -19.6752   23.4326 O   0  0  0  0  0  0  0  0  0  0  0  0
   15.0411  -17.4749   20.9580 N   0  0  0  0  0  0  0  0  0  0  0  0
   15.1298  -16.1768   21.5301 C   0  0  0  0  0  0  0  0  0  0  0  0
   15.0325  -15.2004   20.7743 O   0  0  0  0  0  0  0  0  0  0  0  0
   15.3295  -16.0431   22.9669 C   0  0  0  0  0  0  0  0  0  0  0  0
   14.7957  -17.2275   23.7087 C   0  0  2  0  0  0  0  0  0  0  0  0
   13.3702  -17.3946   23.5014 N   0  0  0  0  0  0  0  0  0  0  0  0
   15.0933  -17.0989   25.1500 C   0  0  0  0  0  0  0  0  0  0  0  0
   16.4614  -16.9949   25.5131 O   0  0  0  0  0  0  0  0  0  0  0  0
   14.2790  -17.0731   26.0619 O   0  0  0  0  0  0  0  0  0  0  0  0
  2  1  1  6
  3  2  1  0
  3  4  1  0
  4  5  2  0
  5  6  1  0
  7  6  1  0
  8  7  2  0
  9  8  1  0
 10 11  1  0
 10  9  2  0
 11 12  2  0
 12  4  1  0
 12  7  1  0
 13 17  1  0
 13  2  1  0
 14 13  2  0
 16 18  1  0
 16 15  1  6
 16 17  1  0
 18 25  1  0
 19 18  2  0
 20 21  1  0
 21 22  2  0
 23 21  1  0
 24 23  1  6
 24 26  1  0
 25 24  1  0
 26 28  2  0
 26 27  1  0
M  END
$$$$
