WAN.pdb
     RDKit          3D

 28 29  0  0  1  0  0  0  0  0999 V2000
    6.5324  -17.7915   24.4084 N   0  0  0  0  0  0  0  0  0  0  0  0
    7.3569  -16.8440   23.6514 C   0  0  1  0  0  0  0  0  0  0  0  0
    8.2270  -16.0501   24.6179 C   0  0  0  0  0  0  0  0  0  0  0  0
    7.3266  -15.1331   25.3602 C   0  0  0  0  0  0  0  0  0  0  0  0
    6.1982  -15.4395   26.0999 C   0  0  0  0  0  0  0  0  0  0  0  0
    5.6958  -14.3057   26.5938 N   0  0  0  0  0  0  0  0  0  0  0  0
    6.4597  -13.2603   26.2016 C   0  0  0  0  0  0  0  0  0  0  0  0
    6.3546  -11.8929   26.4522 C   0  0  0  0  0  0  0  0  0  0  0  0
    7.3069  -11.0443   25.9047 C   0  0  0  0  0  0  0  0  0  0  0  0
    8.3212  -11.5519   25.1380 C   0  0  0  0  0  0  0  0  0  0  0  0
    8.4147  -12.9223   24.8955 C   0  0  0  0  0  0  0  0  0  0  0  0
    7.4730  -13.7638   25.4366 C   0  0  0  0  0  0  0  0  0  0  0  0
    8.1605  -17.6201   22.7027 C   0  0  0  0  0  0  0  0  0  0  0  0
    8.6035  -18.7645   22.9680 O   0  0  0  0  0  0  0  0  0  0  0  0
    8.9421  -17.1280   19.0997 C   0  0  0  0  0  0  0  0  0  0  0  0
    9.2560  -17.7888   20.4412 C   0  0  2  0  0  0  0  0  0  0  0  0
    8.4648  -17.0776   21.4233 N   0  0  0  0  0  0  0  0  0  0  0  0
   10.6829  -17.5578   20.7275 C   0  0  0  0  0  0  0  0  0  0  0  0
   11.5426  -18.1711   20.0528 O   0  0  0  0  0  0  0  0  0  0  0  0
   14.2618  -16.4467   19.9143 N   0  0  0  0  0  0  0  0  0  0  0  0
   13.6907  -15.2782   20.4876 C   0  0  0  0  0  0  0  0  0  0  0  0
   13.6711  -14.2453   19.8045 O   0  0  0  0  0  0  0  0  0  0  0  0
   13.1558  -15.3368   21.8414 C   0  0  0  0  0  0  0  0  0  0  0  0
   12.5129  -16.6583   22.1218 C   0  0  2  0  0  0  0  0  0  0  0  0
   11.1155  -16.6698   21.7346 N   0  0  0  0  0  0  0  0  0  0  0  0
   12.6518  -16.9957   23.5533 C   0  0  0  0  0  0  0  0  0  0  0  0
   11.7908  -16.3186   24.4558 O   0  0  0  0  0  0  0  0  0  0  0  0
   13.4345  -17.8000   24.0390 O   0  0  0  0  0  0  0  0  0  0  0  0
  2  1  1  1
  3  2  1  0
  3  4  1  0
  4  5  2  0
  5  6  1  0
  7  6  1  0
  8  7  2  0
  9  8  1  0
 10 11  1  0
 10  9  2  0
 11 12  2  0
 12  4  1  0
 12  7  1  0
 13 17  1  0
 13  2  1  0
 14 13  2  0
 16 18  1  0
 16 15  1  6
 16 17  1  0
 18 25  1  0
 19 18  2  0
 20 21  1  0
 21 22  2  0
 23 21  1  0
 24 23  1  1
 24 26  1  0
 25 24  1  0
 26 28  2  0
 26 27  1  0
M  END
$$$$
