WAN.pdb
     RDKit          3D

 28 29  0  0  1  0  0  0  0  0999 V2000
    5.6339  -17.2371   23.9046 N   0  0  0  0  0  0  0  0  0  0  0  0
    6.6153  -16.3021   23.3451 C   0  0  1  0  0  0  0  0  0  0  0  0
    7.6443  -15.9537   24.4133 C   0  0  0  0  0  0  0  0  0  0  0  0
    6.9451  -15.1458   25.4433 C   0  0  0  0  0  0  0  0  0  0  0  0
    5.9522  -15.5379   26.3235 C   0  0  0  0  0  0  0  0  0  0  0  0
    5.6114  -14.4865   27.0720 N   0  0  0  0  0  0  0  0  0  0  0  0
    6.3504  -13.4122   26.7113 C   0  0  0  0  0  0  0  0  0  0  0  0
    6.3694  -12.1015   27.1860 C   0  0  0  0  0  0  0  0  0  0  0  0
    7.2544  -11.2011   26.6090 C   0  0  0  0  0  0  0  0  0  0  0  0
    8.0844  -11.6044   25.5977 C   0  0  0  0  0  0  0  0  0  0  0  0
    8.0553  -12.9191   25.1326 C   0  0  0  0  0  0  0  0  0  0  0  0
    7.1799  -13.8116   25.7024 C   0  0  0  0  0  0  0  0  0  0  0  0
    7.2300  -16.9519   22.1841 C   0  0  0  0  0  0  0  0  0  0  0  0
    6.6760  -17.8910   21.5616 O   0  0  0  0  0  0  0  0  0  0  0  0
    7.9266  -14.4035   20.8211 C   0  0  0  0  0  0  0  0  0  0  0  0
    8.6733  -15.7063   20.5384 C   0  0  2  0  0  0  0  0  0  0  0  0
    8.5051  -16.5200   21.7240 N   0  0  0  0  0  0  0  0  0  0  0  0
   10.1020  -15.3767   20.3908 C   0  0  0  0  0  0  0  0  0  0  0  0
   10.4757  -14.7458   19.3746 O   0  0  0  0  0  0  0  0  0  0  0  0
   12.9175  -14.6564   22.8357 N   0  0  0  0  0  0  0  0  0  0  0  0
   13.3033  -16.0007   23.0892 C   0  0  0  0  0  0  0  0  0  0  0  0
   13.8879  -16.2471   24.1529 O   0  0  0  0  0  0  0  0  0  0  0  0
   13.0011  -17.0275   22.1010 C   0  0  0  0  0  0  0  0  0  0  0  0
   12.2521  -16.4645   20.9347 C   0  0  2  0  0  0  0  0  0  0  0  0
   11.0642  -15.7463   21.3539 N   0  0  0  0  0  0  0  0  0  0  0  0
   11.8932  -17.5453   19.9936 C   0  0  0  0  0  0  0  0  0  0  0  0
   12.9668  -18.2195   19.3554 O   0  0  0  0  0  0  0  0  0  0  0  0
   10.7637  -17.9174   19.7091 O   0  0  0  0  0  0  0  0  0  0  0  0
  2  1  1  1
  3  2  1  0
  3  4  1  0
  4  5  2  0
  5  6  1  0
  7  6  1  0
  8  7  2  0
  9  8  1  0
 10 11  1  0
 10  9  2  0
 11 12  2  0
 12  4  1  0
 12  7  1  0
 13 17  1  0
 13  2  1  0
 14 13  2  0
 16 18  1  0
 16 15  1  1
 16 17  1  0
 18 25  1  0
 19 18  2  0
 20 21  1  0
 21 22  2  0
 23 21  1  0
 24 23  1  1
 24 26  1  0
 25 24  1  0
 26 28  2  0
 26 27  1  0
M  END
$$$$
