WAN.pdb
     RDKit          3D

 28 29  0  0  1  0  0  0  0  0999 V2000
    6.7636  -17.5091   24.2875 N   0  0  0  0  0  0  0  0  0  0  0  0
    7.8027  -16.5765   23.8392 C   0  0  1  0  0  0  0  0  0  0  0  0
    8.4786  -15.9541   25.0546 C   0  0  0  0  0  0  0  0  0  0  0  0
    7.4968  -15.0276   25.6711 C   0  0  0  0  0  0  0  0  0  0  0  0
    6.2948  -15.3259   26.2879 C   0  0  0  0  0  0  0  0  0  0  0  0
    5.7348  -14.1852   26.6967 N   0  0  0  0  0  0  0  0  0  0  0  0
    6.5323  -13.1431   26.3677 C   0  0  0  0  0  0  0  0  0  0  0  0
    6.3931  -11.7712   26.5735 C   0  0  0  0  0  0  0  0  0  0  0  0
    7.3960  -10.9279   26.1155 C   0  0  0  0  0  0  0  0  0  0  0  0
    8.4918  -11.4448   25.4780 C   0  0  0  0  0  0  0  0  0  0  0  0
    8.6186  -12.8196   25.2791 C   0  0  0  0  0  0  0  0  0  0  0  0
    7.6268  -13.6558   25.7316 C   0  0  0  0  0  0  0  0  0  0  0  0
    8.7485  -17.3343   23.0151 C   0  0  0  0  0  0  0  0  0  0  0  0
    8.9679  -18.5583   23.1882 O   0  0  0  0  0  0  0  0  0  0  0  0
   10.7031  -16.4331   19.9654 C   0  0  0  0  0  0  0  0  0  0  0  0
   10.4483  -17.3552   21.1569 C   0  0  2  0  0  0  0  0  0  0  0  0
    9.4592  -16.6802   21.9706 N   0  0  0  0  0  0  0  0  0  0  0  0
   11.7041  -17.4502   21.9220 C   0  0  0  0  0  0  0  0  0  0  0  0
   12.6834  -18.0386   21.4072 O   0  0  0  0  0  0  0  0  0  0  0  0
   14.0016  -14.0652   22.1648 N   0  0  0  0  0  0  0  0  0  0  0  0
   14.3831  -15.3126   22.7294 C   0  0  0  0  0  0  0  0  0  0  0  0
   15.1878  -16.0135   22.1008 O   0  0  0  0  0  0  0  0  0  0  0  0
   13.8208  -15.7167   24.0111 C   0  0  0  0  0  0  0  0  0  0  0  0
   13.1087  -17.0286   23.9098 C   0  0  2  0  0  0  0  0  0  0  0  0
   11.8428  -16.9013   23.2141 N   0  0  0  0  0  0  0  0  0  0  0  0
   12.8992  -17.5966   25.2574 C   0  0  0  0  0  0  0  0  0  0  0  0
   11.5606  -17.8917   25.6253 O   0  0  0  0  0  0  0  0  0  0  0  0
   13.7635  -17.8382   26.0879 O   0  0  0  0  0  0  0  0  0  0  0  0
  2  1  1  1
  3  2  1  0
  3  4  1  0
  4  5  2  0
  5  6  1  0
  7  6  1  0
  8  7  2  0
  9  8  1  0
 10 11  1  0
 10  9  2  0
 11 12  2  0
 12  4  1  0
 12  7  1  0
 13 17  1  0
 13  2  1  0
 14 13  2  0
 16 18  1  0
 16 15  1  6
 16 17  1  0
 18 25  1  0
 19 18  2  0
 20 21  1  0
 21 22  2  0
 23 21  1  0
 24 23  1  1
 24 26  1  0
 25 24  1  0
 26 28  2  0
 26 27  1  0
M  END
$$$$
