WAN.pdb
     RDKit          3D

 28 29  0  0  1  0  0  0  0  0999 V2000
    6.3121  -17.8682   23.9000 N   0  0  0  0  0  0  0  0  0  0  0  0
    6.8300  -16.5108   23.7005 C   0  0  1  0  0  0  0  0  0  0  0  0
    7.9581  -16.2519   24.6913 C   0  0  0  0  0  0  0  0  0  0  0  0
    7.4280  -15.3234   25.7206 C   0  0  0  0  0  0  0  0  0  0  0  0
    6.7429  -15.6223   26.8849 C   0  0  0  0  0  0  0  0  0  0  0  0
    6.4552  -14.4793   27.5114 N   0  0  0  0  0  0  0  0  0  0  0  0
    6.9304  -13.4351   26.7946 C   0  0  0  0  0  0  0  0  0  0  0  0
    6.8861  -12.0604   27.0226 C   0  0  0  0  0  0  0  0  0  0  0  0
    7.4724  -11.2153   26.0904 C   0  0  0  0  0  0  0  0  0  0  0  0
    8.0774  -11.7333   24.9769 C   0  0  0  0  0  0  0  0  0  0  0  0
    8.1150  -13.1109   24.7613 C   0  0  0  0  0  0  0  0  0  0  0  0
    7.5351  -13.9489   25.6828 C   0  0  0  0  0  0  0  0  0  0  0  0
    7.2883  -16.4142   22.3118 C   0  0  0  0  0  0  0  0  0  0  0  0
    7.6228  -17.4193   21.6377 O   0  0  0  0  0  0  0  0  0  0  0  0
    7.6059  -13.4988   19.9848 C   0  0  0  0  0  0  0  0  0  0  0  0
    7.8198  -14.9754   20.3142 C   0  0  2  0  0  0  0  0  0  0  0  0
    7.3664  -15.1425   21.6790 N   0  0  0  0  0  0  0  0  0  0  0  0
    9.2691  -15.2370   20.2628 C   0  0  0  0  0  0  0  0  0  0  0  0
    9.8578  -15.1683   19.1587 O   0  0  0  0  0  0  0  0  0  0  0  0
   12.5293  -15.7607   18.7447 N   0  0  0  0  0  0  0  0  0  0  0  0
   12.9193  -14.7274   19.6393 C   0  0  0  0  0  0  0  0  0  0  0  0
   13.9171  -14.0533   19.3496 O   0  0  0  0  0  0  0  0  0  0  0  0
   12.1411  -14.5014   20.8500 C   0  0  0  0  0  0  0  0  0  0  0  0
   11.4511  -15.7498   21.3011 C   0  0  2  0  0  0  0  0  0  0  0  0
   10.0177  -15.5617   21.4136 N   0  0  0  0  0  0  0  0  0  0  0  0
   12.0125  -16.2012   22.5909 C   0  0  0  0  0  0  0  0  0  0  0  0
   12.6729  -17.4574   22.5956 O   0  0  0  0  0  0  0  0  0  0  0  0
   11.9653  -15.6010   23.6552 O   0  0  0  0  0  0  0  0  0  0  0  0
  2  1  1  1
  3  2  1  0
  3  4  1  0
  4  5  2  0
  5  6  1  0
  7  6  1  0
  8  7  2  0
  9  8  1  0
 10 11  1  0
 10  9  2  0
 11 12  2  0
 12  4  1  0
 12  7  1  0
 13 17  1  0
 13  2  1  0
 14 13  2  0
 16 18  1  0
 16 15  1  1
 16 17  1  0
 18 25  1  0
 19 18  2  0
 20 21  1  0
 21 22  2  0
 23 21  1  0
 24 23  1  1
 24 26  1  0
 25 24  1  0
 26 28  2  0
 26 27  1  0
M  END
$$$$
