WAN.pdb
     RDKit          3D

 28 29  0  0  1  0  0  0  0  0999 V2000
    6.9194  -17.9671   24.1599 N   0  0  0  0  0  0  0  0  0  0  0  0
    7.3205  -16.7356   23.4721 C   0  0  1  0  0  0  0  0  0  0  0  0
    8.2871  -15.9575   24.3562 C   0  0  0  0  0  0  0  0  0  0  0  0
    7.4707  -15.2422   25.3683 C   0  0  0  0  0  0  0  0  0  0  0  0
    6.5108  -15.7531   26.2237 C   0  0  0  0  0  0  0  0  0  0  0  0
    6.0277  -14.7523   26.9632 N   0  0  0  0  0  0  0  0  0  0  0  0
    6.6409  -13.5961   26.6207 C   0  0  0  0  0  0  0  0  0  0  0  0
    6.4905  -12.2938   27.0953 C   0  0  0  0  0  0  0  0  0  0  0  0
    7.2748  -11.2921   26.5401 C   0  0  0  0  0  0  0  0  0  0  0  0
    8.1718  -11.5899   25.5498 C   0  0  0  0  0  0  0  0  0  0  0  0
    8.3124  -12.8974   25.0845 C   0  0  0  0  0  0  0  0  0  0  0  0
    7.5369  -13.8902   25.6327 C   0  0  0  0  0  0  0  0  0  0  0  0
    7.9341  -17.1226   22.1986 C   0  0  0  0  0  0  0  0  0  0  0  0
    8.4774  -18.2404   22.0208 O   0  0  0  0  0  0  0  0  0  0  0  0
    7.9472  -15.4815   18.8476 C   0  0  0  0  0  0  0  0  0  0  0  0
    8.4724  -16.5495   19.8060 C   0  0  2  0  0  0  0  0  0  0  0  0
    7.9271  -16.2134   21.1044 N   0  0  0  0  0  0  0  0  0  0  0  0
    9.9388  -16.4154   19.8606 C   0  0  0  0  0  0  0  0  0  0  0  0
   10.6202  -16.8204   18.8900 O   0  0  0  0  0  0  0  0  0  0  0  0
   12.3363  -13.3067   18.5009 N   0  0  0  0  0  0  0  0  0  0  0  0
   12.7451  -14.5068   19.1433 C   0  0  0  0  0  0  0  0  0  0  0  0
   13.1560  -15.4353   18.4340 O   0  0  0  0  0  0  0  0  0  0  0  0
   12.6670  -14.6006   20.5950 C   0  0  0  0  0  0  0  0  0  0  0  0
   12.0510  -15.8927   21.0301 C   0  0  2  0  0  0  0  0  0  0  0  0
   10.6030  -15.8465   20.9675 N   0  0  0  0  0  0  0  0  0  0  0  0
   12.4953  -16.2306   22.3979 C   0  0  0  0  0  0  0  0  0  0  0  0
   11.4797  -16.4201   23.3710 O   0  0  0  0  0  0  0  0  0  0  0  0
   13.6505  -16.3634   22.7760 O   0  0  0  0  0  0  0  0  0  0  0  0
  2  1  1  1
  3  2  1  0
  3  4  1  0
  4  5  2  0
  5  6  1  0
  7  6  1  0
  8  7  2  0
  9  8  1  0
 10 11  1  0
 10  9  2  0
 11 12  2  0
 12  4  1  0
 12  7  1  0
 13 17  1  0
 13  2  1  0
 14 13  2  0
 16 18  1  0
 16 15  1  6
 16 17  1  0
 18 25  1  0
 19 18  2  0
 20 21  1  0
 21 22  2  0
 23 21  1  0
 24 23  1  1
 24 26  1  0
 25 24  1  0
 26 28  2  0
 26 27  1  0
M  END
$$$$
