WAN.pdb
     RDKit          3D

 28 29  0  0  1  0  0  0  0  0999 V2000
    8.0879  -16.0920   26.2611 N   0  0  0  0  0  0  0  0  0  0  0  0
    7.5106  -17.0095   25.2735 C   0  0  1  0  0  0  0  0  0  0  0  0
    6.3926  -16.2995   24.5203 C   0  0  0  0  0  0  0  0  0  0  0  0
    6.8795  -14.9331   24.2064 C   0  0  0  0  0  0  0  0  0  0  0  0
    7.6185  -14.5070   23.1170 C   0  0  0  0  0  0  0  0  0  0  0  0
    7.8360  -13.1958   23.2405 N   0  0  0  0  0  0  0  0  0  0  0  0
    7.2621  -12.7444   24.3794 C   0  0  0  0  0  0  0  0  0  0  0  0
    7.2080  -11.4718   24.9460 C   0  0  0  0  0  0  0  0  0  0  0  0
    6.5325  -11.3103   26.1479 C   0  0  0  0  0  0  0  0  0  0  0  0
    5.9371  -12.3848   26.7522 C   0  0  0  0  0  0  0  0  0  0  0  0
    5.9986  -13.6527   26.1740 C   0  0  0  0  0  0  0  0  0  0  0  0
    6.6669  -13.8145   24.9846 C   0  0  0  0  0  0  0  0  0  0  0  0
    8.5923  -17.4302   24.3785 C   0  0  0  0  0  0  0  0  0  0  0  0
    8.4993  -18.4328   23.6285 O   0  0  0  0  0  0  0  0  0  0  0  0
   11.8154  -16.1909   23.1794 C   0  0  0  0  0  0  0  0  0  0  0  0
   11.0692  -17.2806   23.9478 C   0  0  2  0  0  0  0  0  0  0  0  0
    9.8066  -16.6900   24.3391 N   0  0  0  0  0  0  0  0  0  0  0  0
   11.8473  -17.5799   25.1630 C   0  0  0  0  0  0  0  0  0  0  0  0
   12.9572  -18.1498   25.0459 O   0  0  0  0  0  0  0  0  0  0  0  0
   10.0560  -15.5103   29.3687 N   0  0  0  0  0  0  0  0  0  0  0  0
   11.1247  -15.5805   28.4343 C   0  0  0  0  0  0  0  0  0  0  0  0
   11.1021  -14.8086   27.4659 O   0  0  0  0  0  0  0  0  0  0  0  0
   12.1948  -16.5459   28.6464 C   0  0  0  0  0  0  0  0  0  0  0  0
   12.1743  -17.6257   27.6110 C   0  0  2  0  0  0  0  0  0  0  0  0
   11.3865  -17.2469   26.4541 N   0  0  0  0  0  0  0  0  0  0  0  0
   11.6566  -18.8793   28.1966 C   0  0  0  0  0  0  0  0  0  0  0  0
   12.2941  -19.3446   29.3762 O   0  0  0  0  0  0  0  0  0  0  0  0
   10.7336  -19.5566   27.7669 O   0  0  0  0  0  0  0  0  0  0  0  0
  2  1  1  1
  3  2  1  0
  3  4  1  0
  4  5  2  0
  5  6  1  0
  7  6  1  0
  8  7  2  0
  9  8  1  0
 10 11  1  0
 10  9  2  0
 11 12  2  0
 12  4  1  0
 12  7  1  0
 13 17  1  0
 13  2  1  0
 14 13  2  0
 16 18  1  0
 16 15  1  6
 16 17  1  0
 18 25  1  0
 19 18  2  0
 20 21  1  0
 21 22  2  0
 23 21  1  0
 24 23  1  1
 24 26  1  0
 25 24  1  0
 26 28  2  0
 26 27  1  0
M  END
$$$$
