ERV.pdb
     RDKit          3D

 28 27  0  0  1  0  0  0  0  0999 V2000
   11.5625  -17.5240   20.2554 N   0  0  0  0  0  0  0  0  0  0  0  0
   12.6084  -16.7204   20.9232 C   0  0  1  0  0  0  0  0  0  0  0  0
   13.2832  -15.9691   19.8221 C   0  0  0  0  0  0  0  0  0  0  0  0
   14.4972  -15.1953   20.2260 C   0  0  0  0  0  0  0  0  0  0  0  0
   15.1595  -14.5676   19.0262 C   0  0  0  0  0  0  0  0  0  0  0  0
   14.6542  -14.7384   17.9069 O   0  0  0  0  0  0  0  0  0  0  0  0
   11.9805  -15.8894   21.9593 C   0  0  0  0  0  0  0  0  0  0  0  0
   12.6915  -15.1639   22.7049 O   0  0  0  0  0  0  0  0  0  0  0  0
   16.2969  -13.8265   19.1911 O   0  0  0  0  0  0  0  0  0  0  0  0
    7.5257  -15.2968   18.5131 N   0  0  0  0  0  0  0  0  0  0  0  0
    7.2297  -13.9198   18.6568 C   0  0  0  0  0  0  0  0  0  0  0  0
    7.5104  -13.0687   17.7007 N   0  0  0  0  0  0  0  0  0  0  0  0
    6.6161  -13.4592   19.8645 N   0  0  0  0  0  0  0  0  0  0  0  0
    6.8365  -14.1378   21.1035 C   0  0  0  0  0  0  0  0  0  0  0  0
    8.3364  -14.1501   21.4601 C   0  0  0  0  0  0  0  0  0  0  0  0
    8.5336  -14.8897   22.7203 C   0  0  0  0  0  0  0  0  0  0  0  0
    9.9481  -15.0511   23.2124 C   0  0  2  0  0  0  0  0  0  0  0  0
   10.6010  -15.8582   22.1658 N   0  0  0  0  0  0  0  0  0  0  0  0
   10.1234  -15.6160   24.5304 C   0  0  0  0  0  0  0  0  0  0  0  0
   10.2880  -16.8613   24.7705 O   0  0  0  0  0  0  0  0  0  0  0  0
    7.2576  -12.0682   17.8408 C   0  0  0  0  0  0  0  0  0  0  0  0
    8.9659  -13.4250   27.9452 C   0  0  2  0  0  0  0  0  0  0  0  0
   10.3117  -14.0859   27.9569 C   0  0  0  0  0  0  0  0  0  0  0  0
   10.6464  -14.4716   29.3709 C   0  0  1  0  0  0  0  0  0  0  0  0
   10.3276  -15.2720   27.0194 N   0  0  0  0  0  0  0  0  0  0  0  0
   10.1264  -14.7818   25.6755 C   0  0  0  0  0  0  0  0  0  0  0  0
    9.4132  -16.3355   27.4084 O   0  0  0  0  0  0  0  0  0  0  0  0
    8.2513  -16.4633   26.9467 O   0  0  0  0  0  0  0  0  0  0  0  0
  2  7  1  0
  2  1  1  6
  3  2  1  0
  4  5  1  0
  4  3  1  0
  5  6  2  0
  7  8  2  0
  9  5  1  0
 11 10  1  0
 11 12  2  0
 13 11  1  0
 14 15  1  0
 14 13  1  0
 17 16  1  6
 16 15  1  0
 18  7  1  0
 18 17  1  0
 19 17  1  0
 19 20  2  0
 22 21  1  1
 22 24  1  0
 23 22  1  0
 24 26  1  0
 24 25  1  6
 25 19  1  0
 26 28  1  0
 27 26  2  0
M  END
$$$$
