ERV.pdb
     RDKit          3D

 28 27  0  0  1  0  0  0  0  0999 V2000
   11.8654  -17.0809   19.8951 N   0  0  0  0  0  0  0  0  0  0  0  0
   12.7888  -16.6715   20.9746 C   0  0  1  0  0  0  0  0  0  0  0  0
   13.8696  -15.9003   20.2895 C   0  0  0  0  0  0  0  0  0  0  0  0
   13.4008  -14.7907   19.4036 C   0  0  0  0  0  0  0  0  0  0  0  0
   14.5688  -14.0450   18.8106 C   0  0  0  0  0  0  0  0  0  0  0  0
   14.3455  -13.1069   18.0312 O   0  0  0  0  0  0  0  0  0  0  0  0
   12.0322  -15.9275   21.9908 C   0  0  0  0  0  0  0  0  0  0  0  0
   12.6349  -15.3773   22.9509 O   0  0  0  0  0  0  0  0  0  0  0  0
   15.8443  -14.4125   19.1394 O   0  0  0  0  0  0  0  0  0  0  0  0
    8.1152  -12.4645   18.6994 N   0  0  0  0  0  0  0  0  0  0  0  0
    7.8217  -13.8441   18.5778 C   0  0  0  0  0  0  0  0  0  0  0  0
    8.1615  -14.5113   17.5023 N   0  0  0  0  0  0  0  0  0  0  0  0
    7.1450  -14.5115   19.6473 N   0  0  0  0  0  0  0  0  0  0  0  0
    6.8697  -13.8344   20.8761 C   0  0  0  0  0  0  0  0  0  0  0  0
    8.1568  -13.6685   21.7084 C   0  0  0  0  0  0  0  0  0  0  0  0
    8.4893  -14.9507   22.3561 C   0  0  0  0  0  0  0  0  0  0  0  0
    9.8586  -15.0797   22.9705 C   0  0  2  0  0  0  0  0  0  0  0  0
   10.6442  -15.7924   21.9469 N   0  0  0  0  0  0  0  0  0  0  0  0
    9.9390  -15.7153   24.2653 C   0  0  0  0  0  0  0  0  0  0  0  0
    9.9485  -16.9802   24.4536 O   0  0  0  0  0  0  0  0  0  0  0  0
    7.9370  -15.5274   17.4605 C   0  0  0  0  0  0  0  0  0  0  0  0
    8.9041  -13.6630   27.8075 C   0  0  2  0  0  0  0  0  0  0  0  0
   10.2306  -14.3602   27.7578 C   0  0  0  0  0  0  0  0  0  0  0  0
   10.5830  -14.8237   29.1439 C   0  0  1  0  0  0  0  0  0  0  0  0
   10.1937  -15.4990   26.7639 N   0  0  0  0  0  0  0  0  0  0  0  0
   10.0195  -14.9355   25.4453 C   0  0  0  0  0  0  0  0  0  0  0  0
    9.2295  -16.5362   27.1005 O   0  0  0  0  0  0  0  0  0  0  0  0
    8.0956  -16.6369   26.5681 O   0  0  0  0  0  0  0  0  0  0  0  0
  2  7  1  0
  2  1  1  6
  3  2  1  0
  4  5  1  0
  4  3  1  0
  5  6  2  0
  7  8  2  0
  9  5  1  0
 11 10  1  0
 11 12  2  0
 13 11  1  0
 14 15  1  0
 14 13  1  0
 17 16  1  6
 16 15  1  0
 18  7  1  0
 18 17  1  0
 19 17  1  0
 19 20  2  0
 22 21  1  1
 22 24  1  0
 23 22  1  0
 24 26  1  0
 24 25  1  6
 25 19  1  0
 26 28  1  0
 27 26  2  0
M  END
$$$$
