ERV.pdb
     RDKit          3D

 28 27  0  0  1  0  0  0  0  0999 V2000
    8.8423  -20.7026   19.3125 N   0  0  0  0  0  0  0  0  0  0  0  0
    7.8478  -20.0570   20.1955 C   0  0  1  0  0  0  0  0  0  0  0  0
    7.1654  -21.1835   20.9009 C   0  0  0  0  0  0  0  0  0  0  0  0
    7.9280  -22.4690   20.9406 C   0  0  0  0  0  0  0  0  0  0  0  0
    7.6746  -23.2058   22.2311 C   0  0  0  0  0  0  0  0  0  0  0  0
    7.0540  -22.6294   23.1365 O   0  0  0  0  0  0  0  0  0  0  0  0
    8.5381  -19.0956   21.0660 C   0  0  0  0  0  0  0  0  0  0  0  0
    9.6948  -19.3496   21.4965 O   0  0  0  0  0  0  0  0  0  0  0  0
    8.1296  -24.4867   22.3801 O   0  0  0  0  0  0  0  0  0  0  0  0
    8.6968  -11.2694   20.2449 N   0  0  0  0  0  0  0  0  0  0  0  0
    8.5477  -12.5041   19.5684 C   0  0  0  0  0  0  0  0  0  0  0  0
    9.5611  -13.0575   18.9486 N   0  0  0  0  0  0  0  0  0  0  0  0
    7.2709  -13.1498   19.5658 N   0  0  0  0  0  0  0  0  0  0  0  0
    6.9065  -14.0573   20.6088 C   0  0  0  0  0  0  0  0  0  0  0  0
    8.1614  -14.6336   21.2944 C   0  0  0  0  0  0  0  0  0  0  0  0
    7.7590  -15.6827   22.2491 C   0  0  0  0  0  0  0  0  0  0  0  0
    8.6300  -16.9087   22.3358 C   0  0  2  0  0  0  0  0  0  0  0  0
    7.9662  -17.8823   21.4501 N   0  0  0  0  0  0  0  0  0  0  0  0
    8.8773  -17.4455   23.6540 C   0  0  0  0  0  0  0  0  0  0  0  0
    7.9695  -17.8815   24.4423 O   0  0  0  0  0  0  0  0  0  0  0  0
    9.4021  -13.9573   18.4487 C   0  0  0  0  0  0  0  0  0  0  0  0
   12.8014  -18.5748   24.5051 C   0  0  2  0  0  0  0  0  0  0  0  0
   11.5940  -19.2091   25.1281 C   0  0  0  0  0  0  0  0  0  0  0  0
   12.0212  -19.9402   26.3704 C   0  0  1  0  0  0  0  0  0  0  0  0
   10.5348  -18.1678   25.4106 N   0  0  0  0  0  0  0  0  0  0  0  0
   10.1973  -17.5239   24.1623 C   0  0  0  0  0  0  0  0  0  0  0  0
   10.8931  -17.2459   26.4785 O   0  0  0  0  0  0  0  0  0  0  0  0
   11.1863  -16.0383   26.2914 O   0  0  0  0  0  0  0  0  0  0  0  0
  2  7  1  0
  2  1  1  6
  3  2  1  0
  4  5  1  0
  4  3  1  0
  5  6  2  0
  7  8  2  0
  9  5  1  0
 11 10  1  0
 11 12  2  0
 13 11  1  0
 14 15  1  0
 14 13  1  0
 17 16  1  1
 16 15  1  0
 18  7  1  0
 18 17  1  0
 19 17  1  0
 19 20  2  0
 22 21  1  6
 22 24  1  0
 23 22  1  0
 24 26  1  0
 24 25  1  6
 25 19  1  0
 26 28  1  0
 27 26  2  0
M  END
$$$$
