ERV.pdb
     RDKit          3D

 28 27  0  0  1  0  0  0  0  0999 V2000
    9.8247  -15.1720   19.1845 N   0  0  0  0  0  0  0  0  0  0  0  0
    8.8330  -14.0962   19.3954 C   0  0  1  0  0  0  0  0  0  0  0  0
    7.9659  -14.1234   18.1790 C   0  0  0  0  0  0  0  0  0  0  0  0
    8.5254  -14.8708   17.0111 C   0  0  0  0  0  0  0  0  0  0  0  0
    7.5293  -14.9281   15.8811 C   0  0  0  0  0  0  0  0  0  0  0  0
    6.4251  -14.3841   16.0296 O   0  0  0  0  0  0  0  0  0  0  0  0
    8.1387  -14.3323   20.6685 C   0  0  0  0  0  0  0  0  0  0  0  0
    7.2141  -13.5597   21.0373 O   0  0  0  0  0  0  0  0  0  0  0  0
    7.8576  -15.5737   14.7212 O   0  0  0  0  0  0  0  0  0  0  0  0
    6.2463  -21.7031   25.1511 N   0  0  0  0  0  0  0  0  0  0  0  0
    7.1204  -20.9192   25.9422 C   0  0  0  0  0  0  0  0  0  0  0  0
    7.3227  -21.2054   27.2049 N   0  0  0  0  0  0  0  0  0  0  0  0
    7.7879  -19.8017   25.3482 N   0  0  0  0  0  0  0  0  0  0  0  0
    7.3692  -19.2865   24.0819 C   0  0  0  0  0  0  0  0  0  0  0  0
    7.2248  -17.7525   24.1371 C   0  0  0  0  0  0  0  0  0  0  0  0
    7.7711  -17.1649   22.9002 C   0  0  0  0  0  0  0  0  0  0  0  0
    7.7672  -15.6626   22.7887 C   0  0  2  0  0  0  0  0  0  0  0  0
    8.4558  -15.3968   21.5128 N   0  0  0  0  0  0  0  0  0  0  0  0
    8.3425  -14.9221   23.8876 C   0  0  0  0  0  0  0  0  0  0  0  0
    9.5933  -14.7027   24.0392 O   0  0  0  0  0  0  0  0  0  0  0  0
    7.9560  -20.5885   27.7554 C   0  0  0  0  0  0  0  0  0  0  0  0
    5.6887  -12.7558   26.4076 C   0  0  2  0  0  0  0  0  0  0  0  0
    7.0740  -12.3168   26.0382 C   0  0  0  0  0  0  0  0  0  0  0  0
    7.5433  -11.3053   27.0466 C   0  0  1  0  0  0  0  0  0  0  0  0
    8.0005  -13.5081   25.9464 N   0  0  0  0  0  0  0  0  0  0  0  0
    7.5135  -14.3727   24.8966 C   0  0  0  0  0  0  0  0  0  0  0  0
    8.2150  -14.1800   27.2197 O   0  0  0  0  0  0  0  0  0  0  0  0
    7.7256  -15.3003   27.5110 O   0  0  0  0  0  0  0  0  0  0  0  0
  2  7  1  0
  2  1  1  6
  3  2  1  0
  4  5  1  0
  4  3  1  0
  5  6  2  0
  7  8  2  0
  9  5  1  0
 11 10  1  0
 11 12  2  0
 13 11  1  0
 14 15  1  0
 14 13  1  0
 17 16  1  1
 16 15  1  0
 18  7  1  0
 18 17  1  0
 19 17  1  0
 19 20  2  0
 22 21  1  6
 22 24  1  0
 23 22  1  0
 24 26  1  0
 24 25  1  6
 25 19  1  0
 26 28  1  0
 27 26  2  0
M  END
$$$$
