ERV.pdb
     RDKit          3D

 28 27  0  0  1  0  0  0  0  0999 V2000
   13.2934  -17.4422   22.8240 N   0  0  0  0  0  0  0  0  0  0  0  0
   11.8456  -17.7348   22.7629 C   0  0  1  0  0  0  0  0  0  0  0  0
   11.6279  -18.8276   23.7583 C   0  0  0  0  0  0  0  0  0  0  0  0
   11.9115  -18.4633   25.1805 C   0  0  0  0  0  0  0  0  0  0  0  0
   11.5415  -19.5913   26.1094 C   0  0  0  0  0  0  0  0  0  0  0  0
   10.9469  -20.5760   25.6467 O   0  0  0  0  0  0  0  0  0  0  0  0
   11.0988  -16.4952   23.0160 C   0  0  0  0  0  0  0  0  0  0  0  0
   11.5387  -15.6489   23.8395 O   0  0  0  0  0  0  0  0  0  0  0  0
   11.8651  -19.5103   27.4356 O   0  0  0  0  0  0  0  0  0  0  0  0
    8.0715  -12.5394   17.6258 N   0  0  0  0  0  0  0  0  0  0  0  0
    7.9760  -13.9453   17.7629 C   0  0  0  0  0  0  0  0  0  0  0  0
    8.4858  -14.7449   16.8584 N   0  0  0  0  0  0  0  0  0  0  0  0
    7.3127  -14.4925   18.9065 N   0  0  0  0  0  0  0  0  0  0  0  0
    6.7439  -13.6385   19.9021 C   0  0  0  0  0  0  0  0  0  0  0  0
    7.6698  -13.5401   21.1309 C   0  0  0  0  0  0  0  0  0  0  0  0
    8.1650  -14.8846   21.4792 C   0  0  0  0  0  0  0  0  0  0  0  0
    9.0927  -14.9943   22.6609 C   0  0  2  0  0  0  0  0  0  0  0  0
    9.8968  -16.1960   22.3740 N   0  0  0  0  0  0  0  0  0  0  0  0
    8.4840  -15.0409   23.9703 C   0  0  0  0  0  0  0  0  0  0  0  0
    8.1592  -16.1161   24.5818 O   0  0  0  0  0  0  0  0  0  0  0  0
    8.4333  -15.7721   17.0220 C   0  0  0  0  0  0  0  0  0  0  0  0
    5.8655  -12.1721   25.3372 C   0  0  2  0  0  0  0  0  0  0  0  0
    7.0532  -12.4235   26.2171 C   0  0  0  0  0  0  0  0  0  0  0  0
    6.6487  -12.1985   27.6475 C   0  0  1  0  0  0  0  0  0  0  0  0
    7.5980  -13.8149   25.9869 N   0  0  0  0  0  0  0  0  0  0  0  0
    8.2073  -13.8450   24.6775 C   0  0  0  0  0  0  0  0  0  0  0  0
    6.6203  -14.8693   26.2131 O   0  0  0  0  0  0  0  0  0  0  0  0
    6.4186  -15.4088   27.3300 O   0  0  0  0  0  0  0  0  0  0  0  0
  2  7  1  0
  2  1  1  1
  3  2  1  0
  4  5  1  0
  4  3  1  0
  5  6  2  0
  7  8  2  0
  9  5  1  0
 11 10  1  0
 11 12  2  0
 13 11  1  0
 14 15  1  0
 14 13  1  0
 17 16  1  6
 16 15  1  0
 18  7  1  0
 18 17  1  0
 19 17  1  0
 19 20  2  0
 22 21  1  6
 22 24  1  0
 23 22  1  0
 24 26  1  0
 24 25  1  6
 25 19  1  0
 26 28  1  0
 27 26  2  0
M  END
$$$$
