ERV.pdb
     RDKit          3D

 28 27  0  0  1  0  0  0  0  0999 V2000
   13.5665  -17.0842   20.3647 N   0  0  0  0  0  0  0  0  0  0  0  0
   12.4926  -17.6958   21.1759 C   0  0  1  0  0  0  0  0  0  0  0  0
   13.1109  -18.9115   21.7858 C   0  0  0  0  0  0  0  0  0  0  0  0
   14.5870  -18.8340   22.0111 C   0  0  0  0  0  0  0  0  0  0  0  0
   15.1048  -20.1068   22.6307 C   0  0  0  0  0  0  0  0  0  0  0  0
   14.5766  -20.5223   23.6726 O   0  0  0  0  0  0  0  0  0  0  0  0
   11.9914  -16.6982   22.1310 C   0  0  0  0  0  0  0  0  0  0  0  0
   12.7708  -15.8282   22.6039 O   0  0  0  0  0  0  0  0  0  0  0  0
   16.1397  -20.7762   22.0382 O   0  0  0  0  0  0  0  0  0  0  0  0
    7.6275  -12.2849   19.8617 N   0  0  0  0  0  0  0  0  0  0  0  0
    7.5202  -13.5019   19.1463 C   0  0  0  0  0  0  0  0  0  0  0  0
    7.9776  -13.6046   17.9225 N   0  0  0  0  0  0  0  0  0  0  0  0
    6.9033  -14.6298   19.7744 N   0  0  0  0  0  0  0  0  0  0  0  0
    7.0705  -14.8717   21.1735 C   0  0  0  0  0  0  0  0  0  0  0  0
    8.5660  -14.9116   21.5460 C   0  0  0  0  0  0  0  0  0  0  0  0
    8.7130  -15.4034   22.9281 C   0  0  0  0  0  0  0  0  0  0  0  0
   10.1135  -15.6189   23.4394 C   0  0  2  0  0  0  0  0  0  0  0  0
   10.6619  -16.6606   22.5522 N   0  0  0  0  0  0  0  0  0  0  0  0
   10.2567  -15.9569   24.8367 C   0  0  0  0  0  0  0  0  0  0  0  0
   10.2914  -17.1503   25.2950 O   0  0  0  0  0  0  0  0  0  0  0  0
    7.9057  -14.5273   17.4447 C   0  0  0  0  0  0  0  0  0  0  0  0
    9.3786  -13.0510   27.7794 C   0  0  2  0  0  0  0  0  0  0  0  0
   10.6215  -13.8738   27.9424 C   0  0  0  0  0  0  0  0  0  0  0  0
   10.8991  -14.0409   29.4105 C   0  0  1  0  0  0  0  0  0  0  0  0
   10.4760  -15.2001   27.2312 N   0  0  0  0  0  0  0  0  0  0  0  0
   10.3758  -14.9383   25.8141 C   0  0  0  0  0  0  0  0  0  0  0  0
    9.4048  -16.0315   27.7604 O   0  0  0  0  0  0  0  0  0  0  0  0
    8.2240  -16.0088   27.3309 O   0  0  0  0  0  0  0  0  0  0  0  0
  2  7  1  0
  2  1  1  6
  3  2  1  0
  4  5  1  0
  4  3  1  0
  5  6  2  0
  7  8  2  0
  9  5  1  0
 11 10  1  0
 11 12  2  0
 13 11  1  0
 14 15  1  0
 14 13  1  0
 17 16  1  6
 16 15  1  0
 18  7  1  0
 18 17  1  0
 19 17  1  0
 19 20  2  0
 22 21  1  6
 22 24  1  0
 23 22  1  0
 24 26  1  0
 24 25  1  6
 25 19  1  0
 26 28  1  0
 27 26  2  0
M  END
$$$$
