ERV.pdb
     RDKit          3D

 28 27  0  0  1  0  0  0  0  0999 V2000
   11.5994  -16.1099   19.2926 N   0  0  0  0  0  0  0  0  0  0  0  0
   11.3315  -16.9256   20.4960 C   0  0  1  0  0  0  0  0  0  0  0  0
   12.5858  -16.8494   21.3041 C   0  0  0  0  0  0  0  0  0  0  0  0
   13.8263  -17.3049   20.6044 C   0  0  0  0  0  0  0  0  0  0  0  0
   14.9544  -17.5050   21.5839 C   0  0  0  0  0  0  0  0  0  0  0  0
   15.6103  -16.5185   21.9499 O   0  0  0  0  0  0  0  0  0  0  0  0
   10.1242  -16.4136   21.1584 C   0  0  0  0  0  0  0  0  0  0  0  0
    9.9287  -15.1718   21.2447 O   0  0  0  0  0  0  0  0  0  0  0  0
   15.2332  -18.7606   22.0484 O   0  0  0  0  0  0  0  0  0  0  0  0
    2.4942  -20.5298   21.8013 N   0  0  0  0  0  0  0  0  0  0  0  0
    2.2922  -19.4497   22.6940 C   0  0  0  0  0  0  0  0  0  0  0  0
    1.0960  -19.1692   23.1499 N   0  0  0  0  0  0  0  0  0  0  0  0
    3.4136  -18.6587   23.0991 N   0  0  0  0  0  0  0  0  0  0  0  0
    4.6789  -18.7931   22.4471 C   0  0  0  0  0  0  0  0  0  0  0  0
    5.6842  -17.7561   22.9866 C   0  0  0  0  0  0  0  0  0  0  0  0
    6.9512  -17.8691   22.2411 C   0  0  0  0  0  0  0  0  0  0  0  0
    7.9593  -16.7644   22.4208 C   0  0  2  0  0  0  0  0  0  0  0  0
    9.1551  -17.2521   21.7101 N   0  0  0  0  0  0  0  0  0  0  0  0
    8.2535  -16.3592   23.7760 C   0  0  0  0  0  0  0  0  0  0  0  0
    8.9639  -17.0345   24.5975 O   0  0  0  0  0  0  0  0  0  0  0  0
    0.9789  -18.3168   23.7366 C   0  0  0  0  0  0  0  0  0  0  0  0
    5.8326  -13.4200   25.6671 C   0  0  2  0  0  0  0  0  0  0  0  0
    7.3238  -13.3300   25.7948 C   0  0  0  0  0  0  0  0  0  0  0  0
    7.6562  -12.6884   27.1132 C   0  0  1  0  0  0  0  0  0  0  0  0
    7.9517  -14.6975   25.6474 N   0  0  0  0  0  0  0  0  0  0  0  0
    7.7514  -15.1365   24.2859 C   0  0  0  0  0  0  0  0  0  0  0  0
    7.5105  -15.6534   26.6524 O   0  0  0  0  0  0  0  0  0  0  0  0
    6.4950  -16.3830   26.5263 O   0  0  0  0  0  0  0  0  0  0  0  0
  2  7  1  0
  2  1  1  6
  3  2  1  0
  4  5  1  0
  4  3  1  0
  5  6  2  0
  7  8  2  0
  9  5  1  0
 11 10  1  0
 11 12  2  0
 13 11  1  0
 14 15  1  0
 14 13  1  0
 17 16  1  1
 16 15  1  0
 18  7  1  0
 18 17  1  0
 19 17  1  0
 19 20  2  0
 22 21  1  6
 22 24  1  0
 23 22  1  0
 24 26  1  0
 24 25  1  6
 25 19  1  0
 26 28  1  0
 27 26  2  0
M  END
$$$$
