ERV.pdb
     RDKit          3D

 28 27  0  0  1  0  0  0  0  0999 V2000
    9.5110  -13.6476   19.3806 N   0  0  0  0  0  0  0  0  0  0  0  0
    8.1658  -13.3517   19.9177 C   0  0  1  0  0  0  0  0  0  0  0  0
    7.2193  -13.7346   18.8270 C   0  0  0  0  0  0  0  0  0  0  0  0
    7.7463  -13.5740   17.4369 C   0  0  0  0  0  0  0  0  0  0  0  0
    8.3098  -14.8735   16.9212 C   0  0  0  0  0  0  0  0  0  0  0  0
    7.7300  -15.9316   17.2068 O   0  0  0  0  0  0  0  0  0  0  0  0
    7.9906  -14.0738   21.1852 C   0  0  0  0  0  0  0  0  0  0  0  0
    6.8876  -14.0262   21.7927 O   0  0  0  0  0  0  0  0  0  0  0  0
    9.4415  -14.8635   16.1535 O   0  0  0  0  0  0  0  0  0  0  0  0
   10.5449  -19.8342   21.0202 N   0  0  0  0  0  0  0  0  0  0  0  0
    9.8438  -20.4716   22.0722 C   0  0  0  0  0  0  0  0  0  0  0  0
    9.0340  -21.4731   21.8301 N   0  0  0  0  0  0  0  0  0  0  0  0
   10.0270  -20.0106   23.4142 N   0  0  0  0  0  0  0  0  0  0  0  0
   10.7946  -18.8357   23.6871 C   0  0  0  0  0  0  0  0  0  0  0  0
    9.8737  -17.6546   24.0533 C   0  0  0  0  0  0  0  0  0  0  0  0
    9.7169  -16.7747   22.8806 C   0  0  0  0  0  0  0  0  0  0  0  0
    8.8663  -15.5431   23.0500 C   0  0  2  0  0  0  0  0  0  0  0  0
    9.0075  -14.8316   21.7667 N   0  0  0  0  0  0  0  0  0  0  0  0
    9.1582  -14.6952   24.1827 C   0  0  0  0  0  0  0  0  0  0  0  0
   10.2802  -14.1164   24.3860 O   0  0  0  0  0  0  0  0  0  0  0  0
    8.5568  -21.9278   22.6364 C   0  0  0  0  0  0  0  0  0  0  0  0
    7.1965  -11.7723   25.3907 C   0  0  2  0  0  0  0  0  0  0  0  0
    7.2752  -12.7149   26.5541 C   0  0  0  0  0  0  0  0  0  0  0  0
    5.9509  -13.4117   26.6994 C   0  0  2  0  0  0  0  0  0  0  0  0
    8.4185  -13.6873   26.3717 N   0  0  0  0  0  0  0  0  0  0  0  0
    8.1711  -14.4468   25.1681 C   0  0  0  0  0  0  0  0  0  0  0  0
    8.6831  -14.5038   27.5473 O   0  0  0  0  0  0  0  0  0  0  0  0
    8.5356  -15.7514   27.5805 O   0  0  0  0  0  0  0  0  0  0  0  0
  2  7  1  0
  2  1  1  6
  3  2  1  0
  4  5  1  0
  4  3  1  0
  5  6  2  0
  7  8  2  0
  9  5  1  0
 11 10  1  0
 11 12  2  0
 13 11  1  0
 14 15  1  0
 14 13  1  0
 17 16  1  6
 16 15  1  0
 18  7  1  0
 18 17  1  0
 19 17  1  0
 19 20  2  0
 22 21  1  1
 22 24  1  0
 23 22  1  0
 24 26  1  0
 24 25  1  1
 25 19  1  0
 26 28  1  0
 27 26  2  0
M  END
$$$$
