ERV.pdb
     RDKit          3D

 28 27  0  0  1  0  0  0  0  0999 V2000
    8.0876  -13.7160   18.7885 N   0  0  0  0  0  0  0  0  0  0  0  0
    8.5227  -14.9769   19.4259 C   0  0  1  0  0  0  0  0  0  0  0  0
   10.0059  -15.0096   19.2495 C   0  0  0  0  0  0  0  0  0  0  0  0
   10.7442  -13.8425   19.8226 C   0  0  0  0  0  0  0  0  0  0  0  0
   12.2328  -14.0780   19.7895 C   0  0  0  0  0  0  0  0  0  0  0  0
   12.6561  -15.1711   19.3857 O   0  0  0  0  0  0  0  0  0  0  0  0
    8.0541  -14.9924   20.8182 C   0  0  0  0  0  0  0  0  0  0  0  0
    7.4790  -13.9814   21.3031 O   0  0  0  0  0  0  0  0  0  0  0  0
   13.0839  -13.0902   20.2018 O   0  0  0  0  0  0  0  0  0  0  0  0
    7.1044  -20.8990   22.0204 N   0  0  0  0  0  0  0  0  0  0  0  0
    5.9087  -20.8726   22.7781 C   0  0  0  0  0  0  0  0  0  0  0  0
    4.7943  -21.3617   22.2923 N   0  0  0  0  0  0  0  0  0  0  0  0
    5.9254  -20.3030   24.0906 N   0  0  0  0  0  0  0  0  0  0  0  0
    7.1109  -19.6964   24.6111 C   0  0  0  0  0  0  0  0  0  0  0  0
    7.0185  -18.1595   24.5304 C   0  0  0  0  0  0  0  0  0  0  0  0
    7.5322  -17.7064   23.2248 C   0  0  0  0  0  0  0  0  0  0  0  0
    7.5794  -16.2210   22.9788 C   0  0  2  0  0  0  0  0  0  0  0  0
    8.2144  -16.0977   21.6543 N   0  0  0  0  0  0  0  0  0  0  0  0
    8.2352  -15.4111   23.9794 C   0  0  0  0  0  0  0  0  0  0  0  0
    9.4970  -15.3942   24.1867 O   0  0  0  0  0  0  0  0  0  0  0  0
    3.9593  -21.3986   22.9137 C   0  0  0  0  0  0  0  0  0  0  0  0
    7.6697  -11.8309   27.3550 C   0  0  1  0  0  0  0  0  0  0  0  0
    7.1078  -12.6730   26.2490 C   0  0  0  0  0  0  0  0  0  0  0  0
    6.8345  -11.7902   25.0631 C   0  0  1  0  0  0  0  0  0  0  0  0
    8.0506  -13.8069   25.9152 N   0  0  0  0  0  0  0  0  0  0  0  0
    7.4811  -14.5526   24.8169 C   0  0  0  0  0  0  0  0  0  0  0  0
    8.4120  -14.6228   27.0651 O   0  0  0  0  0  0  0  0  0  0  0  0
    7.7837  -15.6524   27.4179 O   0  0  0  0  0  0  0  0  0  0  0  0
  2  7  1  0
  2  1  1  1
  3  2  1  0
  4  5  1  0
  4  3  1  0
  5  6  2  0
  7  8  2  0
  9  5  1  0
 11 10  1  0
 11 12  2  0
 13 11  1  0
 14 15  1  0
 14 13  1  0
 17 16  1  1
 16 15  1  0
 18  7  1  0
 18 17  1  0
 19 17  1  0
 19 20  2  0
 22 21  1  1
 22 24  1  0
 23 22  1  0
 24 26  1  0
 24 25  1  1
 25 19  1  0
 26 28  1  0
 27 26  2  0
M  END
$$$$
