ERV.pdb
     RDKit          3D

 28 27  0  0  1  0  0  0  0  0999 V2000
   12.3085  -16.9497   20.1226 N   0  0  0  0  0  0  0  0  0  0  0  0
   11.3062  -17.3540   21.1313 C   0  0  1  0  0  0  0  0  0  0  0  0
   12.0819  -18.0854   22.1781 C   0  0  0  0  0  0  0  0  0  0  0  0
   11.2658  -18.6776   23.2822 C   0  0  0  0  0  0  0  0  0  0  0  0
   12.1516  -19.2499   24.3592 C   0  0  0  0  0  0  0  0  0  0  0  0
   12.8795  -18.4818   25.0052 O   0  0  0  0  0  0  0  0  0  0  0  0
   10.5920  -16.1580   21.5981 C   0  0  0  0  0  0  0  0  0  0  0  0
   11.2334  -15.1163   21.9003 O   0  0  0  0  0  0  0  0  0  0  0  0
   12.1375  -20.5954   24.6035 O   0  0  0  0  0  0  0  0  0  0  0  0
    8.0178  -15.4730   17.6685 N   0  0  0  0  0  0  0  0  0  0  0  0
    8.2039  -14.0964   17.3955 C   0  0  0  0  0  0  0  0  0  0  0  0
    8.1806  -13.6462   16.1650 N   0  0  0  0  0  0  0  0  0  0  0  0
    8.4196  -13.1912   18.4824 N   0  0  0  0  0  0  0  0  0  0  0  0
    7.6470  -13.2885   19.6814 C   0  0  0  0  0  0  0  0  0  0  0  0
    7.2773  -14.7562   19.9753 C   0  0  0  0  0  0  0  0  0  0  0  0
    7.1806  -14.9538   21.4332 C   0  0  0  0  0  0  0  0  0  0  0  0
    8.4653  -14.9356   22.2195 C   0  0  2  0  0  0  0  0  0  0  0  0
    9.2035  -16.1123   21.7260 N   0  0  0  0  0  0  0  0  0  0  0  0
    8.3525  -14.9229   23.6597 C   0  0  0  0  0  0  0  0  0  0  0  0
    8.5187  -15.9452   24.4099 O   0  0  0  0  0  0  0  0  0  0  0  0
    8.3376  -12.6285   16.0089 C   0  0  0  0  0  0  0  0  0  0  0  0
    5.7005  -12.5194   25.7314 C   0  0  1  0  0  0  0  0  0  0  0  0
    7.1452  -12.3716   26.1045 C   0  0  0  0  0  0  0  0  0  0  0  0
    7.2315  -12.0092   27.5610 C   0  0  1  0  0  0  0  0  0  0  0  0
    7.9078  -13.6366   25.7817 N   0  0  0  0  0  0  0  0  0  0  0  0
    8.0425  -13.7229   24.3460 C   0  0  0  0  0  0  0  0  0  0  0  0
    7.3478  -14.8294   26.4000 O   0  0  0  0  0  0  0  0  0  0  0  0
    6.3645  -15.4613   25.9381 O   0  0  0  0  0  0  0  0  0  0  0  0
  2  7  1  0
  2  1  1  6
  3  2  1  0
  4  5  1  0
  4  3  1  0
  5  6  2  0
  7  8  2  0
  9  5  1  0
 11 10  1  0
 11 12  2  0
 13 11  1  0
 14 15  1  0
 14 13  1  0
 17 16  1  6
 16 15  1  0
 18  7  1  0
 18 17  1  0
 19 17  1  0
 19 20  2  0
 22 21  1  6
 22 24  1  0
 23 22  1  0
 24 26  1  0
 24 25  1  6
 25 19  1  0
 26 28  1  0
 27 26  2  0
M  END
$$$$
