ERV.pdb
     RDKit          3D

 28 27  0  0  1  0  0  0  0  0999 V2000
    9.7680  -20.8373   24.5018 N   0  0  0  0  0  0  0  0  0  0  0  0
    8.6181  -20.0782   25.0376 C   0  0  1  0  0  0  0  0  0  0  0  0
    8.5703  -20.4204   26.4912 C   0  0  0  0  0  0  0  0  0  0  0  0
    8.1097  -21.8074   26.8072 C   0  0  0  0  0  0  0  0  0  0  0  0
    8.0354  -22.0238   28.2971 C   0  0  0  0  0  0  0  0  0  0  0  0
    7.0502  -21.5942   28.9151 O   0  0  0  0  0  0  0  0  0  0  0  0
    8.8052  -18.6533   24.7324 C   0  0  0  0  0  0  0  0  0  0  0  0
    9.8936  -18.0841   25.0137 O   0  0  0  0  0  0  0  0  0  0  0  0
    9.0474  -22.6849   28.9366 O   0  0  0  0  0  0  0  0  0  0  0  0
    9.5405  -13.3799   19.4589 N   0  0  0  0  0  0  0  0  0  0  0  0
    8.1977  -13.2901   19.0192 C   0  0  0  0  0  0  0  0  0  0  0  0
    7.9167  -12.9939   17.7740 N   0  0  0  0  0  0  0  0  0  0  0  0
    7.1394  -13.5271   19.9525 N   0  0  0  0  0  0  0  0  0  0  0  0
    6.9628  -14.8145   20.5488 C   0  0  0  0  0  0  0  0  0  0  0  0
    7.5246  -14.8332   21.9844 C   0  0  0  0  0  0  0  0  0  0  0  0
    7.4302  -16.2001   22.5290 C   0  0  0  0  0  0  0  0  0  0  0  0
    7.9244  -16.4192   23.9350 C   0  0  2  0  0  0  0  0  0  0  0  0
    7.8157  -17.8763   24.1293 N   0  0  0  0  0  0  0  0  0  0  0  0
    7.2673  -15.6749   24.9845 C   0  0  0  0  0  0  0  0  0  0  0  0
    6.0963  -15.9294   25.4310 O   0  0  0  0  0  0  0  0  0  0  0  0
    6.9168  -12.9839   17.4828 C   0  0  0  0  0  0  0  0  0  0  0  0
    9.3984  -14.0211   27.9238 C   0  0  2  0  0  0  0  0  0  0  0  0
    8.4080  -13.0413   27.3695 C   0  0  0  0  0  0  0  0  0  0  0  0
    9.1384  -12.0619   26.4934 C   0  0  2  0  0  0  0  0  0  0  0  0
    7.3062  -13.7639   26.6280 N   0  0  0  0  0  0  0  0  0  0  0  0
    7.9171  -14.5787   25.6036 C   0  0  0  0  0  0  0  0  0  0  0  0
    6.2557  -12.8823   26.1401 O   0  0  0  0  0  0  0  0  0  0  0  0
    6.0336  -12.6654   24.9224 O   0  0  0  0  0  0  0  0  0  0  0  0
  2  7  1  0
  2  1  1  1
  3  2  1  0
  4  5  1  0
  4  3  1  0
  5  6  2  0
  7  8  2  0
  9  5  1  0
 11 10  1  0
 11 12  2  0
 13 11  1  0
 14 15  1  0
 14 13  1  0
 17 16  1  6
 16 15  1  0
 18  7  1  0
 18 17  1  0
 19 17  1  0
 19 20  2  0
 22 21  1  1
 22 24  1  0
 23 22  1  0
 24 26  1  0
 24 25  1  1
 25 19  1  0
 26 28  1  0
 27 26  2  0
M  END
$$$$
