ERV.pdb
     RDKit          3D

 28 27  0  0  1  0  0  0  0  0999 V2000
   12.7647  -17.4308   19.9735 N   0  0  0  0  0  0  0  0  0  0  0  0
   12.0687  -18.0714   21.1096 C   0  0  1  0  0  0  0  0  0  0  0  0
   13.0711  -19.0086   21.7006 C   0  0  0  0  0  0  0  0  0  0  0  0
   14.1046  -18.3724   22.5740 C   0  0  0  0  0  0  0  0  0  0  0  0
   15.0868  -19.3976   23.0804 C   0  0  0  0  0  0  0  0  0  0  0  0
   14.9520  -20.5790   22.7293 O   0  0  0  0  0  0  0  0  0  0  0  0
   11.5747  -17.0254   22.0154 C   0  0  0  0  0  0  0  0  0  0  0  0
   12.2583  -15.9854   22.2128 O   0  0  0  0  0  0  0  0  0  0  0  0
   16.1015  -19.0106   23.9114 O   0  0  0  0  0  0  0  0  0  0  0  0
    7.7389  -11.8591   20.1922 N   0  0  0  0  0  0  0  0  0  0  0  0
    7.7088  -13.0225   19.3860 C   0  0  0  0  0  0  0  0  0  0  0  0
    7.6659  -12.9337   18.0792 N   0  0  0  0  0  0  0  0  0  0  0  0
    7.7256  -14.3082   20.0135 N   0  0  0  0  0  0  0  0  0  0  0  0
    8.0633  -14.4445   21.3961 C   0  0  0  0  0  0  0  0  0  0  0  0
    7.9818  -15.9201   21.8353 C   0  0  0  0  0  0  0  0  0  0  0  0
    8.3567  -16.0288   23.2571 C   0  0  0  0  0  0  0  0  0  0  0  0
    9.8267  -16.0803   23.5820 C   0  0  2  0  0  0  0  0  0  0  0  0
   10.3548  -17.1242   22.6852 N   0  0  0  0  0  0  0  0  0  0  0  0
   10.1855  -16.3096   24.9625 C   0  0  0  0  0  0  0  0  0  0  0  0
   10.5228  -17.4445   25.4459 O   0  0  0  0  0  0  0  0  0  0  0  0
    7.6937  -13.8142   17.5236 C   0  0  0  0  0  0  0  0  0  0  0  0
    9.0998  -13.3931   27.7859 C   0  0  2  0  0  0  0  0  0  0  0  0
   10.4418  -14.0421   27.9468 C   0  0  0  0  0  0  0  0  0  0  0  0
   10.7764  -14.0993   29.4114 C   0  0  1  0  0  0  0  0  0  0  0  0
   10.4496  -15.4098   27.3025 N   0  0  0  0  0  0  0  0  0  0  0  0
   10.1863  -15.2406   25.8922 C   0  0  0  0  0  0  0  0  0  0  0  0
    9.5754  -16.3697   27.9605 O   0  0  0  0  0  0  0  0  0  0  0  0
    8.3874  -16.5872   27.6131 O   0  0  0  0  0  0  0  0  0  0  0  0
  2  7  1  0
  2  1  1  6
  3  2  1  0
  4  5  1  0
  4  3  1  0
  5  6  2  0
  7  8  2  0
  9  5  1  0
 11 10  1  0
 11 12  2  0
 13 11  1  0
 14 15  1  0
 14 13  1  0
 17 16  1  1
 16 15  1  0
 18  7  1  0
 18 17  1  0
 19 17  1  0
 19 20  2  0
 22 21  1  6
 22 24  1  0
 23 22  1  0
 24 26  1  0
 24 25  1  6
 25 19  1  0
 26 28  1  0
 27 26  2  0
M  END
$$$$
