QIP.pdb
     RDKit          3D

 25 25  0  0  1  0  0  0  0  0999 V2000
    2.9524  -18.1146   21.5052 N   0  0  0  0  0  0  0  0  0  0  0  0
    4.2875  -18.1610   22.0128 C   0  0  0  0  0  0  0  0  0  0  0  0
    4.5123  -18.3789   23.2182 O   0  0  0  0  0  0  0  0  0  0  0  0
    5.4114  -17.9468   21.0906 C   0  0  0  0  0  0  0  0  0  0  0  0
    6.6107  -17.4165   21.8367 C   0  0  0  0  0  0  0  0  0  0  0  0
    6.6391  -15.9185   21.6579 C   0  0  2  0  0  0  0  0  0  0  0  0
    6.9434  -15.6441   20.2724 N   0  0  0  0  0  0  0  0  0  0  0  0
    7.6699  -15.3245   22.5672 C   0  0  0  0  0  0  0  0  0  0  0  0
    8.8699  -15.2655   22.2532 O   0  0  0  0  0  0  0  0  0  0  0  0
    5.8064  -11.6189   26.0087 C   0  0  0  0  0  0  0  0  0  0  0  0
    6.6897  -12.3606   24.9949 C   0  0  0  0  0  0  0  0  0  0  0  0
    7.3225  -13.4795   25.7078 C   0  0  2  0  0  0  0  0  0  0  0  0
    8.0204  -13.0649   26.9895 C   0  0  0  0  0  0  0  0  0  0  0  0
    8.2081  -14.3990   24.8639 C   0  0  2  0  0  0  0  0  0  0  0  0
    7.2403  -14.8275   23.8042 N   0  0  0  0  0  0  0  0  0  0  0  0
    8.5889  -15.6401   25.5544 C   0  0  0  0  0  0  0  0  0  0  0  0
    7.7108  -16.1909   26.3309 O   0  0  0  0  0  0  0  0  0  0  0  0
    9.8273  -16.3224   25.4667 N   0  0  0  0  0  0  0  0  0  0  0  0
   10.9454  -15.7723   24.6679 C   0  0  0  0  0  0  0  0  0  0  0  0
   12.1678  -16.3248   25.3693 C   0  0  0  0  0  0  0  0  0  0  0  0
   11.7221  -17.7161   25.6745 C   0  0  0  0  0  0  0  0  0  0  0  0
   10.2518  -17.5375   26.0954 C   0  0  1  0  0  0  0  0  0  0  0  0
   10.3076  -17.4160   27.5797 C   0  0  0  0  0  0  0  0  0  0  0  0
   10.5428  -18.6012   28.2891 O   0  0  0  0  0  0  0  0  0  0  0  0
   10.1666  -16.3768   28.2305 O   0  0  0  0  0  0  0  0  0  0  0  0
  1  2  1  0
  2  4  1  0
  3  2  2  0
  4  5  1  0
  6  5  1  0
  6  7  1  6
  8  6  1  0
  8  9  2  0
 10 11  1  0
 12 11  1  0
 12 13  1  1
 14 15  1  6
 14 12  1  0
 15  8  1  0
 16 17  2  0
 16 14  1  0
 18 16  1  0
 19 20  1  0
 19 18  1  0
 21 20  1  0
 22 21  1  0
 22 18  1  0
 22 23  1  1
 24 23  1  0
 25 23  2  0
M  END
$$$$
