QIP.pdb
     RDKit          3D

 25 25  0  0  1  0  0  0  0  0999 V2000
   11.3037  -17.0285   18.8705 N   0  0  0  0  0  0  0  0  0  0  0  0
   10.1290  -17.8389   18.9479 C   0  0  0  0  0  0  0  0  0  0  0  0
    9.8369  -18.6400   18.0403 O   0  0  0  0  0  0  0  0  0  0  0  0
    9.2540  -17.7200   20.1225 C   0  0  0  0  0  0  0  0  0  0  0  0
    9.7969  -16.6891   21.0811 C   0  0  0  0  0  0  0  0  0  0  0  0
    8.6229  -16.0335   21.7659 C   0  0  2  0  0  0  0  0  0  0  0  0
    7.9402  -15.2172   20.7887 N   0  0  0  0  0  0  0  0  0  0  0  0
    9.1106  -15.2080   22.9161 C   0  0  0  0  0  0  0  0  0  0  0  0
   10.1443  -14.5236   22.8442 O   0  0  0  0  0  0  0  0  0  0  0  0
    5.5728  -12.3923   25.6035 C   0  0  0  0  0  0  0  0  0  0  0  0
    6.8911  -12.8316   24.9500 C   0  0  0  0  0  0  0  0  0  0  0  0
    7.4584  -13.8957   25.7905 C   0  0  2  0  0  0  0  0  0  0  0  0
    7.4957  -13.5475   27.2667 C   0  0  0  0  0  0  0  0  0  0  0  0
    8.7924  -14.4820   25.3229 C   0  0  2  0  0  0  0  0  0  0  0  0
    8.3589  -15.2265   24.0977 N   0  0  0  0  0  0  0  0  0  0  0  0
    9.3267  -15.5134   26.2246 C   0  0  0  0  0  0  0  0  0  0  0  0
    8.8429  -16.7105   26.1239 O   0  0  0  0  0  0  0  0  0  0  0  0
   10.3323  -15.3512   27.2091 N   0  0  0  0  0  0  0  0  0  0  0  0
   10.8624  -14.0103   27.5431 C   0  0  0  0  0  0  0  0  0  0  0  0
   11.2943  -14.1655   28.9856 C   0  0  0  0  0  0  0  0  0  0  0  0
   11.9080  -15.5257   28.9591 C   0  0  0  0  0  0  0  0  0  0  0  0
   10.9626  -16.3279   28.0462 C   0  0  1  0  0  0  0  0  0  0  0  0
   10.0018  -16.9702   28.9870 C   0  0  0  0  0  0  0  0  0  0  0  0
   10.4969  -18.0432   29.7400 O   0  0  0  0  0  0  0  0  0  0  0  0
    8.8238  -16.6444   29.1590 O   0  0  0  0  0  0  0  0  0  0  0  0
  1  2  1  0
  2  4  1  0
  3  2  2  0
  4  5  1  0
  6  5  1  0
  6  7  1  6
  8  6  1  0
  8  9  2  0
 10 11  1  0
 12 11  1  0
 12 13  1  1
 14 15  1  6
 14 12  1  0
 15  8  1  0
 16 17  2  0
 16 14  1  0
 18 16  1  0
 19 20  1  0
 19 18  1  0
 21 20  1  0
 22 21  1  0
 22 18  1  0
 22 23  1  1
 24 23  1  0
 25 23  2  0
M  END
$$$$
