QIP.pdb
     RDKit          3D

 25 25  0  0  1  0  0  0  0  0999 V2000
   10.8642  -19.6828   21.6685 N   0  0  0  0  0  0  0  0  0  0  0  0
    9.7137  -19.5436   20.8320 C   0  0  0  0  0  0  0  0  0  0  0  0
    9.2786  -20.5033   20.1683 O   0  0  0  0  0  0  0  0  0  0  0  0
    9.0362  -18.2417   20.7581 C   0  0  0  0  0  0  0  0  0  0  0  0
    9.6649  -17.2658   21.7218 C   0  0  0  0  0  0  0  0  0  0  0  0
    8.8761  -15.9810   21.6566 C   0  0  2  0  0  0  0  0  0  0  0  0
    9.1897  -15.3326   20.4042 N   0  0  0  0  0  0  0  0  0  0  0  0
    9.2360  -15.1122   22.8219 C   0  0  0  0  0  0  0  0  0  0  0  0
   10.2245  -14.3608   22.8028 O   0  0  0  0  0  0  0  0  0  0  0  0
    5.5174  -12.3675   25.5712 C   0  0  0  0  0  0  0  0  0  0  0  0
    6.7894  -12.8319   24.8471 C   0  0  0  0  0  0  0  0  0  0  0  0
    7.3564  -13.9375   25.6323 C   0  0  2  0  0  0  0  0  0  0  0  0
    7.2809  -13.7178   27.1315 C   0  0  0  0  0  0  0  0  0  0  0  0
    8.7463  -14.4184   25.2093 C   0  0  2  0  0  0  0  0  0  0  0  0
    8.4156  -15.1682   23.9556 N   0  0  0  0  0  0  0  0  0  0  0  0
    9.3176  -15.4262   26.1148 C   0  0  0  0  0  0  0  0  0  0  0  0
    8.9519  -16.6580   25.9524 O   0  0  0  0  0  0  0  0  0  0  0  0
   10.2437  -15.2065   27.1640 N   0  0  0  0  0  0  0  0  0  0  0  0
   10.6016  -13.8348   27.5896 C   0  0  0  0  0  0  0  0  0  0  0  0
   10.9689  -14.0164   29.0469 C   0  0  0  0  0  0  0  0  0  0  0  0
   11.7315  -15.2983   28.9954 C   0  0  0  0  0  0  0  0  0  0  0  0
   10.9329  -16.1506   27.9921 C   0  0  1  0  0  0  0  0  0  0  0  0
   10.0003  -16.9417   28.8436 C   0  0  0  0  0  0  0  0  0  0  0  0
   10.5739  -17.9789   29.5910 O   0  0  0  0  0  0  0  0  0  0  0  0
    8.7830  -16.7659   28.9471 O   0  0  0  0  0  0  0  0  0  0  0  0
  1  2  1  0
  2  4  1  0
  3  2  2  0
  4  5  1  0
  6  5  1  0
  6  7  1  6
  8  6  1  0
  8  9  2  0
 10 11  1  0
 12 11  1  0
 12 13  1  1
 14 15  1  6
 14 12  1  0
 15  8  1  0
 16 17  2  0
 16 14  1  0
 18 16  1  0
 19 20  1  0
 19 18  1  0
 21 20  1  0
 22 21  1  0
 22 18  1  0
 22 23  1  1
 24 23  1  0
 25 23  2  0
M  END
$$$$
