QIP.pdb
     RDKit          3D

 25 25  0  0  1  0  0  0  0  0999 V2000
   11.7663  -17.3842   19.2299 N   0  0  0  0  0  0  0  0  0  0  0  0
   10.6267  -18.2466   19.2180 C   0  0  0  0  0  0  0  0  0  0  0  0
   10.4513  -19.0715   18.3017 O   0  0  0  0  0  0  0  0  0  0  0  0
    9.6475  -18.1534   20.3098 C   0  0  0  0  0  0  0  0  0  0  0  0
   10.1305  -17.1942   21.3695 C   0  0  0  0  0  0  0  0  0  0  0  0
    9.0469  -16.1676   21.5901 C   0  0  2  0  0  0  0  0  0  0  0  0
    8.9586  -15.3546   20.3991 N   0  0  0  0  0  0  0  0  0  0  0  0
    9.3805  -15.3365   22.7902 C   0  0  0  0  0  0  0  0  0  0  0  0
   10.3783  -14.5981   22.8233 O   0  0  0  0  0  0  0  0  0  0  0  0
    5.5643  -12.4867   25.4832 C   0  0  0  0  0  0  0  0  0  0  0  0
    6.8591  -12.9236   24.7826 C   0  0  0  0  0  0  0  0  0  0  0  0
    7.3177  -14.1525   25.4459 C   0  0  2  0  0  0  0  0  0  0  0  0
    7.0527  -14.1707   26.9395 C   0  0  0  0  0  0  0  0  0  0  0  0
    8.7485  -14.5932   25.1288 C   0  0  2  0  0  0  0  0  0  0  0  0
    8.5241  -15.4133   23.8958 N   0  0  0  0  0  0  0  0  0  0  0  0
    9.3033  -15.5333   26.1141 C   0  0  0  0  0  0  0  0  0  0  0  0
    9.0155  -16.7886   25.9772 O   0  0  0  0  0  0  0  0  0  0  0  0
   10.1366  -15.2234   27.2170 N   0  0  0  0  0  0  0  0  0  0  0  0
   10.2813  -13.8301   27.6950 C   0  0  0  0  0  0  0  0  0  0  0  0
   10.5963  -14.0064   29.1651 C   0  0  0  0  0  0  0  0  0  0  0  0
   11.5288  -15.1710   29.1236 C   0  0  0  0  0  0  0  0  0  0  0  0
   10.9059  -16.0913   28.0579 C   0  0  1  0  0  0  0  0  0  0  0  0
   10.0487  -17.0280   28.8379 C   0  0  0  0  0  0  0  0  0  0  0  0
    8.6672  -16.8035   28.7713 O   0  0  0  0  0  0  0  0  0  0  0  0
   10.4434  -17.9717   29.5285 O   0  0  0  0  0  0  0  0  0  0  0  0
  1  2  1  0
  2  4  1  0
  3  2  2  0
  4  5  1  0
  6  5  1  0
  6  7  1  6
  8  6  1  0
  8  9  2  0
 10 11  1  0
 12 11  1  0
 12 13  1  1
 14 15  1  6
 14 12  1  0
 15  8  1  0
 16 17  2  0
 16 14  1  0
 18 16  1  0
 19 20  1  0
 19 18  1  0
 21 20  1  0
 22 21  1  0
 22 18  1  0
 22 23  1  1
 24 23  1  0
 25 23  2  0
M  END
$$$$
