QIP.pdb
     RDKit          3D

 25 25  0  0  1  0  0  0  0  0999 V2000
   11.9050  -18.2158   18.3741 N   0  0  0  0  0  0  0  0  0  0  0  0
   10.9700  -18.4588   19.4273 C   0  0  0  0  0  0  0  0  0  0  0  0
    9.9948  -19.2155   19.2624 O   0  0  0  0  0  0  0  0  0  0  0  0
   11.1685  -17.8008   20.7262 C   0  0  0  0  0  0  0  0  0  0  0  0
   10.5625  -16.4191   20.7143 C   0  0  0  0  0  0  0  0  0  0  0  0
    9.3827  -16.4253   21.6549 C   0  0  2  0  0  0  0  0  0  0  0  0
    8.2036  -16.0958   20.8878 N   0  0  0  0  0  0  0  0  0  0  0  0
    9.6109  -15.4319   22.7518 C   0  0  0  0  0  0  0  0  0  0  0  0
   10.5608  -14.6323   22.7293 O   0  0  0  0  0  0  0  0  0  0  0  0
    5.7941  -12.6601   26.3037 C   0  0  0  0  0  0  0  0  0  0  0  0
    7.2938  -12.9833   26.2380 C   0  0  0  0  0  0  0  0  0  0  0  0
    7.4659  -14.0419   25.2329 C   0  0  2  0  0  0  0  0  0  0  0  0
    6.5067  -15.2044   25.4063 C   0  0  0  0  0  0  0  0  0  0  0  0
    8.8989  -14.5307   25.0106 C   0  0  2  0  0  0  0  0  0  0  0  0
    8.7104  -15.4257   23.8246 N   0  0  0  0  0  0  0  0  0  0  0  0
    9.3883  -15.4145   26.0791 C   0  0  0  0  0  0  0  0  0  0  0  0
    9.1095  -16.6762   25.9919 O   0  0  0  0  0  0  0  0  0  0  0  0
   10.1484  -15.0430   27.2153 N   0  0  0  0  0  0  0  0  0  0  0  0
   10.3108  -13.6208   27.5917 C   0  0  0  0  0  0  0  0  0  0  0  0
   10.5083  -13.6868   29.0911 C   0  0  0  0  0  0  0  0  0  0  0  0
   11.3958  -14.8805   29.2136 C   0  0  0  0  0  0  0  0  0  0  0  0
   10.8190  -15.8639   28.1788 C   0  0  1  0  0  0  0  0  0  0  0  0
    9.8707  -16.7056   28.9616 C   0  0  0  0  0  0  0  0  0  0  0  0
   10.4459  -17.6060   29.8682 O   0  0  0  0  0  0  0  0  0  0  0  0
    8.6392  -16.6798   28.8828 O   0  0  0  0  0  0  0  0  0  0  0  0
  1  2  1  0
  2  4  1  0
  3  2  2  0
  4  5  1  0
  6  5  1  0
  6  7  1  6
  8  6  1  0
  8  9  2  0
 10 11  1  0
 12 11  1  0
 12 13  1  1
 14 15  1  6
 14 12  1  0
 15  8  1  0
 16 17  2  0
 16 14  1  0
 18 16  1  0
 19 20  1  0
 19 18  1  0
 21 20  1  0
 22 21  1  0
 22 18  1  0
 22 23  1  1
 24 23  1  0
 25 23  2  0
M  END
$$$$
