QIP.pdb
     RDKit          3D

 25 25  0  0  1  0  0  0  0  0999 V2000
    9.9317  -20.4633   21.1289 N   0  0  0  0  0  0  0  0  0  0  0  0
   10.2850  -19.1100   20.8350 C   0  0  0  0  0  0  0  0  0  0  0  0
   11.4756  -18.7467   20.8015 O   0  0  0  0  0  0  0  0  0  0  0  0
    9.2191  -18.1342   20.5684 C   0  0  0  0  0  0  0  0  0  0  0  0
    8.6896  -17.5665   21.8621 C   0  0  0  0  0  0  0  0  0  0  0  0
    8.4225  -16.0973   21.6453 C   0  0  2  0  0  0  0  0  0  0  0  0
    9.0678  -15.7075   20.4129 N   0  0  0  0  0  0  0  0  0  0  0  0
    8.9533  -15.3146   22.8063 C   0  0  0  0  0  0  0  0  0  0  0  0
   10.0684  -14.7690   22.7782 O   0  0  0  0  0  0  0  0  0  0  0  0
    5.3795  -12.2961   25.5363 C   0  0  0  0  0  0  0  0  0  0  0  0
    6.6784  -12.7350   24.8447 C   0  0  0  0  0  0  0  0  0  0  0  0
    7.2182  -13.8657   25.6131 C   0  0  2  0  0  0  0  0  0  0  0  0
    7.2061  -13.6405   27.1133 C   0  0  0  0  0  0  0  0  0  0  0  0
    8.5675  -14.4141   25.1433 C   0  0  2  0  0  0  0  0  0  0  0  0
    8.1467  -15.2105   23.9467 N   0  0  0  0  0  0  0  0  0  0  0  0
    9.1533  -15.3972   26.0666 C   0  0  0  0  0  0  0  0  0  0  0  0
    8.7667  -16.6287   25.9597 O   0  0  0  0  0  0  0  0  0  0  0  0
   10.1141  -15.1535   27.0787 N   0  0  0  0  0  0  0  0  0  0  0  0
   10.4982  -13.7726   27.4480 C   0  0  0  0  0  0  0  0  0  0  0  0
   10.9097  -13.9110   28.8982 C   0  0  0  0  0  0  0  0  0  0  0  0
   11.6580  -15.2019   28.8647 C   0  0  0  0  0  0  0  0  0  0  0  0
   10.8201  -16.0776   27.9151 C   0  0  1  0  0  0  0  0  0  0  0  0
    9.9073  -16.8309   28.8207 C   0  0  0  0  0  0  0  0  0  0  0  0
    8.5701  -16.4124   28.8392 O   0  0  0  0  0  0  0  0  0  0  0  0
   10.2214  -17.7786   29.5464 O   0  0  0  0  0  0  0  0  0  0  0  0
  1  2  1  0
  2  4  1  0
  3  2  2  0
  4  5  1  0
  6  5  1  0
  6  7  1  6
  8  6  1  0
  8  9  2  0
 10 11  1  0
 12 11  1  0
 12 13  1  1
 14 15  1  6
 14 12  1  0
 15  8  1  0
 16 17  2  0
 16 14  1  0
 18 16  1  0
 19 20  1  0
 19 18  1  0
 21 20  1  0
 22 21  1  0
 22 18  1  0
 22 23  1  1
 24 23  1  0
 25 23  2  0
M  END
$$$$
