QIP.pdb
     RDKit          3D

 25 25  0  0  1  0  0  0  0  0999 V2000
   10.1223  -20.2828   24.2008 N   0  0  0  0  0  0  0  0  0  0  0  0
    9.2631  -20.1520   23.0663 C   0  0  0  0  0  0  0  0  0  0  0  0
    9.6654  -20.4183   21.9182 O   0  0  0  0  0  0  0  0  0  0  0  0
    7.8807  -19.6946   23.2646 C   0  0  0  0  0  0  0  0  0  0  0  0
    7.6157  -19.4392   24.7278 C   0  0  0  0  0  0  0  0  0  0  0  0
    6.2236  -18.8703   24.8513 C   0  0  2  0  0  0  0  0  0  0  0  0
    5.3100  -19.7959   24.2220 N   0  0  0  0  0  0  0  0  0  0  0  0
    6.1714  -17.5258   24.1942 C   0  0  0  0  0  0  0  0  0  0  0  0
    5.5857  -17.3426   23.1146 O   0  0  0  0  0  0  0  0  0  0  0  0
    6.8728  -12.2713   26.8715 C   0  0  0  0  0  0  0  0  0  0  0  0
    6.8757  -12.8112   25.4339 C   0  0  0  0  0  0  0  0  0  0  0  0
    7.1574  -14.2516   25.5121 C   0  0  2  0  0  0  0  0  0  0  0  0
    8.5560  -14.5702   26.0061 C   0  0  0  0  0  0  0  0  0  0  0  0
    6.8049  -15.0735   24.2702 C   0  0  2  0  0  0  0  0  0  0  0  0
    6.8111  -16.4593   24.8383 N   0  0  0  0  0  0  0  0  0  0  0  0
    7.8641  -15.0767   23.2503 C   0  0  0  0  0  0  0  0  0  0  0  0
    8.8933  -15.8362   23.4534 O   0  0  0  0  0  0  0  0  0  0  0  0
    7.8920  -14.3349   22.0437 N   0  0  0  0  0  0  0  0  0  0  0  0
    6.8943  -13.2744   21.7781 C   0  0  0  0  0  0  0  0  0  0  0  0
    7.6398  -12.3292   20.8603 C   0  0  0  0  0  0  0  0  0  0  0  0
    8.3620  -13.2922   19.9779 C   0  0  0  0  0  0  0  0  0  0  0  0
    8.8131  -14.3989   20.9486 C   0  0  1  0  0  0  0  0  0  0  0  0
   10.1923  -13.9981   21.3462 C   0  0  0  0  0  0  0  0  0  0  0  0
   11.1948  -14.1959   20.3874 O   0  0  0  0  0  0  0  0  0  0  0  0
   10.5248  -13.5136   22.4316 O   0  0  0  0  0  0  0  0  0  0  0  0
  1  2  1  0
  2  4  1  0
  3  2  2  0
  4  5  1  0
  6  5  1  0
  6  7  1  6
  8  6  1  0
  8  9  2  0
 10 11  1  0
 12 11  1  0
 12 13  1  6
 14 15  1  1
 14 12  1  0
 15  8  1  0
 16 17  2  0
 16 14  1  0
 18 16  1  0
 19 20  1  0
 19 18  1  0
 21 20  1  0
 22 21  1  0
 22 18  1  0
 22 23  1  1
 24 23  1  0
 25 23  2  0
M  END
$$$$
