QIP.pdb
     RDKit          3D

 25 25  0  0  1  0  0  0  0  0999 V2000
   12.1688  -14.5300   21.1475 N   0  0  0  0  0  0  0  0  0  0  0  0
   12.1908  -14.4332   19.7217 C   0  0  0  0  0  0  0  0  0  0  0  0
   13.2327  -14.6530   19.0761 O   0  0  0  0  0  0  0  0  0  0  0  0
   10.9580  -14.0672   19.0104 C   0  0  0  0  0  0  0  0  0  0  0  0
    9.8257  -13.8688   19.9876 C   0  0  0  0  0  0  0  0  0  0  0  0
    9.1889  -15.2144   20.2341 C   0  0  2  0  0  0  0  0  0  0  0  0
    8.5459  -15.6306   19.0091 N   0  0  0  0  0  0  0  0  0  0  0  0
    8.2014  -15.1039   21.3543 C   0  0  0  0  0  0  0  0  0  0  0  0
    7.1346  -14.4799   21.2328 O   0  0  0  0  0  0  0  0  0  0  0  0
    5.9687  -19.0131   23.0950 C   0  0  0  0  0  0  0  0  0  0  0  0
    6.2499  -17.5276   22.8265 C   0  0  0  0  0  0  0  0  0  0  0  0
    7.1294  -17.0510   23.9034 C   0  0  2  0  0  0  0  0  0  0  0  0
    6.5855  -17.3193   25.2941 C   0  0  0  0  0  0  0  0  0  0  0  0
    7.6348  -15.6126   23.7711 C   0  0  2  0  0  0  0  0  0  0  0  0
    8.5153  -15.7331   22.5656 N   0  0  0  0  0  0  0  0  0  0  0  0
    8.5357  -15.2063   24.8600 C   0  0  0  0  0  0  0  0  0  0  0  0
    9.5545  -15.9647   25.1132 O   0  0  0  0  0  0  0  0  0  0  0  0
    8.4219  -14.0571   25.6804 N   0  0  0  0  0  0  0  0  0  0  0  0
    7.3736  -13.0427   25.4297 C   0  0  0  0  0  0  0  0  0  0  0  0
    7.1331  -12.4561   26.8043 C   0  0  0  0  0  0  0  0  0  0  0  0
    8.5271  -12.3715   27.3308 C   0  0  0  0  0  0  0  0  0  0  0  0
    9.1766  -13.6773   26.8372 C   0  0  1  0  0  0  0  0  0  0  0  0
    8.9928  -14.6290   27.9691 C   0  0  0  0  0  0  0  0  0  0  0  0
    9.8980  -14.5086   29.0320 O   0  0  0  0  0  0  0  0  0  0  0  0
    8.1247  -15.5025   28.0518 O   0  0  0  0  0  0  0  0  0  0  0  0
  1  2  1  0
  2  4  1  0
  3  2  2  0
  4  5  1  0
  6  5  1  0
  6  7  1  6
  8  6  1  0
  8  9  2  0
 10 11  1  0
 12 11  1  0
 12 13  1  1
 14 15  1  6
 14 12  1  0
 15  8  1  0
 16 17  2  0
 16 14  1  0
 18 16  1  0
 19 20  1  0
 19 18  1  0
 21 20  1  0
 22 21  1  0
 22 18  1  0
 22 23  1  1
 24 23  1  0
 25 23  2  0
M  END
$$$$
