QIP.pdb
     RDKit          3D

 25 25  0  0  1  0  0  0  0  0999 V2000
    9.1499  -19.9472   21.9057 N   0  0  0  0  0  0  0  0  0  0  0  0
   10.0772  -19.1918   21.1234 C   0  0  0  0  0  0  0  0  0  0  0  0
   11.0346  -19.7424   20.5480 O   0  0  0  0  0  0  0  0  0  0  0  0
    9.8922  -17.7393   20.9996 C   0  0  0  0  0  0  0  0  0  0  0  0
    8.7148  -17.2863   21.8271 C   0  0  0  0  0  0  0  0  0  0  0  0
    8.5612  -15.7977   21.6335 C   0  0  2  0  0  0  0  0  0  0  0  0
    9.3324  -15.4208   20.4714 N   0  0  0  0  0  0  0  0  0  0  0  0
    9.0402  -15.0809   22.8578 C   0  0  0  0  0  0  0  0  0  0  0  0
   10.1753  -14.5821   22.9273 O   0  0  0  0  0  0  0  0  0  0  0  0
    5.4284  -12.1172   25.7993 C   0  0  0  0  0  0  0  0  0  0  0  0
    6.6823  -12.5625   25.0329 C   0  0  0  0  0  0  0  0  0  0  0  0
    7.1805  -13.7810   25.6868 C   0  0  2  0  0  0  0  0  0  0  0  0
    7.1061  -13.7303   27.2012 C   0  0  0  0  0  0  0  0  0  0  0  0
    8.5444  -14.2882   25.2130 C   0  0  2  0  0  0  0  0  0  0  0  0
    8.1608  -14.9844   23.9437 N   0  0  0  0  0  0  0  0  0  0  0  0
    9.1065  -15.3429   26.0696 C   0  0  0  0  0  0  0  0  0  0  0  0
    8.6308  -16.5406   25.9406 O   0  0  0  0  0  0  0  0  0  0  0  0
   10.1315  -15.2032   27.0373 N   0  0  0  0  0  0  0  0  0  0  0  0
   10.6150  -13.8658   27.4475 C   0  0  0  0  0  0  0  0  0  0  0  0
   11.0927  -14.0975   28.8651 C   0  0  0  0  0  0  0  0  0  0  0  0
   11.7610  -15.4253   28.7318 C   0  0  0  0  0  0  0  0  0  0  0  0
   10.8246  -16.2052   27.7908 C   0  0  1  0  0  0  0  0  0  0  0  0
    9.9175  -16.9491   28.7099 C   0  0  0  0  0  0  0  0  0  0  0  0
   10.4881  -18.0218   29.4080 O   0  0  0  0  0  0  0  0  0  0  0  0
    8.7236  -16.7066   28.9078 O   0  0  0  0  0  0  0  0  0  0  0  0
  1  2  1  0
  2  4  1  0
  3  2  2  0
  4  5  1  0
  6  5  1  0
  6  7  1  6
  8  6  1  0
  8  9  2  0
 10 11  1  0
 12 11  1  0
 12 13  1  1
 14 15  1  6
 14 12  1  0
 15  8  1  0
 16 17  2  0
 16 14  1  0
 18 16  1  0
 19 20  1  0
 19 18  1  0
 21 20  1  0
 22 21  1  0
 22 18  1  0
 22 23  1  1
 24 23  1  0
 25 23  2  0
M  END
$$$$
