QIP.pdb
     RDKit          3D

 25 25  0  0  1  0  0  0  0  0999 V2000
   12.4741  -18.7779   20.9872 N   0  0  0  0  0  0  0  0  0  0  0  0
   11.2037  -19.3470   21.3110 C   0  0  0  0  0  0  0  0  0  0  0  0
   11.0709  -20.5734   21.4818 O   0  0  0  0  0  0  0  0  0  0  0  0
   10.0368  -18.4637   21.4436 C   0  0  0  0  0  0  0  0  0  0  0  0
   10.4214  -17.0355   21.1457 C   0  0  0  0  0  0  0  0  0  0  0  0
    9.1904  -16.1807   21.3215 C   0  0  2  0  0  0  0  0  0  0  0  0
    8.9237  -15.5248   20.0622 N   0  0  0  0  0  0  0  0  0  0  0  0
    9.4246  -15.1832   22.4135 C   0  0  0  0  0  0  0  0  0  0  0  0
   10.2766  -14.2853   22.3138 O   0  0  0  0  0  0  0  0  0  0  0  0
    5.8028  -12.4036   25.9775 C   0  0  0  0  0  0  0  0  0  0  0  0
    7.3028  -12.7071   25.8506 C   0  0  0  0  0  0  0  0  0  0  0  0
    7.4332  -13.9052   25.0092 C   0  0  2  0  0  0  0  0  0  0  0  0
    6.5251  -15.0448   25.4315 C   0  0  0  0  0  0  0  0  0  0  0  0
    8.8604  -14.3955   24.7549 C   0  0  2  0  0  0  0  0  0  0  0  0
    8.6449  -15.2888   23.5722 N   0  0  0  0  0  0  0  0  0  0  0  0
    9.3720  -15.2811   25.8113 C   0  0  0  0  0  0  0  0  0  0  0  0
    9.1833  -16.5549   25.6730 O   0  0  0  0  0  0  0  0  0  0  0  0
   10.0655  -14.8993   26.9861 N   0  0  0  0  0  0  0  0  0  0  0  0
   10.1159  -13.4836   27.4150 C   0  0  0  0  0  0  0  0  0  0  0  0
   10.2665  -13.5892   28.9176 C   0  0  0  0  0  0  0  0  0  0  0  0
   11.2298  -14.7233   29.0328 C   0  0  0  0  0  0  0  0  0  0  0  0
   10.7582  -15.7063   27.9457 C   0  0  1  0  0  0  0  0  0  0  0  0
    9.8444  -16.6380   28.6652 C   0  0  0  0  0  0  0  0  0  0  0  0
   10.4513  -17.5408   29.5484 O   0  0  0  0  0  0  0  0  0  0  0  0
    8.6161  -16.6837   28.5532 O   0  0  0  0  0  0  0  0  0  0  0  0
  1  2  1  0
  2  4  1  0
  3  2  2  0
  4  5  1  0
  6  5  1  0
  6  7  1  6
  8  6  1  0
  8  9  2  0
 10 11  1  0
 12 11  1  0
 12 13  1  1
 14 15  1  6
 14 12  1  0
 15  8  1  0
 16 17  2  0
 16 14  1  0
 18 16  1  0
 19 20  1  0
 19 18  1  0
 21 20  1  0
 22 21  1  0
 22 18  1  0
 22 23  1  1
 24 23  1  0
 25 23  2  0
M  END
$$$$
