KEH.pdb
     RDKit          3D

 29 29  0  0  1  0  0  0  0  0999 V2000
    6.2491  -16.9616   21.1284 N   0  0  0  0  0  0  0  0  0  0  0  0
    7.6502  -17.0170   20.9214 C   0  0  1  0  0  0  0  0  0  0  0  0
    8.2604  -15.9211   20.1147 C   0  0  0  0  0  0  0  0  0  0  0  0
    7.5506  -14.6218   20.1036 C   0  0  0  0  0  0  0  0  0  0  0  0
    8.2254  -13.5437   19.3363 C   0  0  0  0  0  0  0  0  0  0  0  0
    7.4143  -12.2899   19.2458 C   0  0  0  0  0  0  0  0  0  0  0  0
    7.9989  -11.2539   18.4661 N   0  0  0  0  0  0  0  0  0  0  0  0
    8.3742  -17.1339   22.2450 C   0  0  0  0  0  0  0  0  0  0  0  0
    7.6710  -17.3775   23.2355 O   0  0  0  0  0  0  0  0  0  0  0  0
    9.7572  -16.9776   22.3653 N   0  0  0  0  0  0  0  0  0  0  0  0
   10.5843  -17.1291   23.5174 C   0  0  1  0  0  0  0  0  0  0  0  0
   12.0166  -17.4913   23.2737 C   0  0  0  0  0  0  0  0  0  0  0  0
   12.3490  -17.8124   21.8388 C   0  0  0  0  0  0  0  0  0  0  0  0
   13.8161  -17.6809   21.6616 C   0  0  0  0  0  0  0  0  0  0  0  0
   14.2672  -16.8233   20.8892 O   0  0  0  0  0  0  0  0  0  0  0  0
   10.4558  -16.0907   24.5359 C   0  0  0  0  0  0  0  0  0  0  0  0
   10.0029  -14.9426   24.1723 O   0  0  0  0  0  0  0  0  0  0  0  0
   14.6611  -18.5087   22.3530 O   0  0  0  0  0  0  0  0  0  0  0  0
   10.8140  -16.3371   25.8751 N   0  0  0  0  0  0  0  0  0  0  0  0
    9.8432  -16.0140   26.9203 C   0  0  1  0  0  0  0  0  0  0  0  0
    8.4819  -16.3349   26.2961 C   0  0  0  0  0  0  0  0  0  0  0  0
    7.6453  -15.1180   26.1833 C   0  0  0  0  0  0  0  0  0  0  0  0
    8.0620  -13.8243   26.4633 C   0  0  0  0  0  0  0  0  0  0  0  0
    7.0391  -12.9846   26.2469 N   0  0  0  0  0  0  0  0  0  0  0  0
    5.9779  -13.7057   25.8359 C   0  0  0  0  0  0  0  0  0  0  0  0
    6.3607  -15.0026   25.8016 N   0  0  0  0  0  0  0  0  0  0  0  0
   10.0941  -16.9609   28.0410 C   0  0  0  0  0  0  0  0  0  0  0  0
   10.2806  -18.3024   27.8637 O   0  0  0  0  0  0  0  0  0  0  0  0
   10.1415  -16.5208   29.2393 O   0  0  0  0  0  0  0  0  0  0  0  0
  2  8  1  0
  2  1  1  1
  3  2  1  0
  4  3  1  0
  4  5  1  0
  6  5  1  0
  7  6  1  0
  8  9  2  0
 10 11  1  0
 10  8  1  0
 11 12  1  6
 13 14  1  0
 13 12  1  0
 14 18  1  0
 15 14  2  0
 16 17  2  0
 16 11  1  0
 19 16  1  0
 20 19  1  0
 20 21  1  6
 22 26  1  0
 22 21  1  0
 23 22  2  0
 24 23  1  0
 24 25  1  0
 25 26  2  0
 27 20  1  0
 27 28  1  0
 29 27  2  0
M  END
$$$$
