KEH.pdb
     RDKit          3D

 29 29  0  0  1  0  0  0  0  0999 V2000
    8.7731  -19.7454   18.7382 N   0  0  0  0  0  0  0  0  0  0  0  0
    8.4379  -18.5450   19.4133 C   0  0  1  0  0  0  0  0  0  0  0  0
    7.0539  -18.4371   19.9582 C   0  0  0  0  0  0  0  0  0  0  0  0
    6.1621  -19.6020   19.7586 C   0  0  0  0  0  0  0  0  0  0  0  0
    4.8834  -19.3030   19.0643 C   0  0  0  0  0  0  0  0  0  0  0  0
    4.0007  -20.5014   18.9151 C   0  0  0  0  0  0  0  0  0  0  0  0
    2.7564  -20.2521   18.2727 N   0  0  0  0  0  0  0  0  0  0  0  0
    9.4378  -18.2621   20.5132 C   0  0  0  0  0  0  0  0  0  0  0  0
    9.3623  -18.9788   21.5210 O   0  0  0  0  0  0  0  0  0  0  0  0
   10.3992  -17.2530   20.4182 N   0  0  0  0  0  0  0  0  0  0  0  0
   11.3538  -16.8239   21.3872 C   0  0  1  0  0  0  0  0  0  0  0  0
   12.3753  -15.8292   20.9299 C   0  0  0  0  0  0  0  0  0  0  0  0
   13.4709  -15.5490   21.9267 C   0  0  0  0  0  0  0  0  0  0  0  0
   14.4767  -14.6731   21.2770 C   0  0  0  0  0  0  0  0  0  0  0  0
   14.3113  -14.3138   20.1026 O   0  0  0  0  0  0  0  0  0  0  0  0
   10.8186  -16.4823   22.7022 C   0  0  0  0  0  0  0  0  0  0  0  0
   10.2537  -15.3350   22.8435 O   0  0  0  0  0  0  0  0  0  0  0  0
   15.5809  -14.2683   21.9800 O   0  0  0  0  0  0  0  0  0  0  0  0
   10.9151  -17.3803   23.7824 N   0  0  0  0  0  0  0  0  0  0  0  0
   10.3779  -16.9632   25.0772 C   0  0  1  0  0  0  0  0  0  0  0  0
    9.2072  -17.9164   25.3353 C   0  0  0  0  0  0  0  0  0  0  0  0
    8.0293  -17.5507   24.5154 C   0  0  0  0  0  0  0  0  0  0  0  0
    7.9672  -16.4920   23.6205 C   0  0  0  0  0  0  0  0  0  0  0  0
    6.7486  -16.4699   23.0612 N   0  0  0  0  0  0  0  0  0  0  0  0
    6.0280  -17.4863   23.5740 C   0  0  0  0  0  0  0  0  0  0  0  0
    6.8196  -18.1359   24.4578 N   0  0  0  0  0  0  0  0  0  0  0  0
   11.4429  -17.2252   26.0837 C   0  0  0  0  0  0  0  0  0  0  0  0
   12.6801  -17.7055   25.7607 O   0  0  0  0  0  0  0  0  0  0  0  0
   11.2120  -16.9976   27.3192 O   0  0  0  0  0  0  0  0  0  0  0  0
  2  8  1  0
  2  1  1  1
  3  2  1  0
  4  3  1  0
  4  5  1  0
  6  5  1  0
  7  6  1  0
  8  9  2  0
 10 11  1  0
 10  8  1  0
 11 12  1  6
 13 14  1  0
 13 12  1  0
 14 18  1  0
 15 14  2  0
 16 17  2  0
 16 11  1  0
 19 16  1  0
 20 19  1  0
 20 21  1  1
 22 26  1  0
 22 21  1  0
 23 22  2  0
 24 23  1  0
 24 25  1  0
 25 26  2  0
 27 20  1  0
 27 28  1  0
 29 27  2  0
M  END
$$$$
