KEH.pdb
     RDKit          3D

 29 29  0  0  1  0  0  0  0  0999 V2000
    5.7742  -16.6627   21.9066 N   0  0  0  0  0  0  0  0  0  0  0  0
    7.1671  -16.8236   21.6999 C   0  0  1  0  0  0  0  0  0  0  0  0
    7.8187  -15.9038   20.7235 C   0  0  0  0  0  0  0  0  0  0  0  0
    7.8973  -14.4738   21.0993 C   0  0  0  0  0  0  0  0  0  0  0  0
    8.4269  -13.5745   20.0423 C   0  0  0  0  0  0  0  0  0  0  0  0
    8.4230  -12.1325   20.4404 C   0  0  0  0  0  0  0  0  0  0  0  0
    8.8559  -11.2311   19.4290 N   0  0  0  0  0  0  0  0  0  0  0  0
    7.9057  -16.7660   23.0193 C   0  0  0  0  0  0  0  0  0  0  0  0
    7.2849  -16.2799   23.9749 O   0  0  0  0  0  0  0  0  0  0  0  0
    9.2152  -17.2281   23.1722 N   0  0  0  0  0  0  0  0  0  0  0  0
    9.9876  -17.3694   24.3629 C   0  0  1  0  0  0  0  0  0  0  0  0
   11.3312  -18.0147   24.2201 C   0  0  0  0  0  0  0  0  0  0  0  0
   12.0444  -18.2775   25.5219 C   0  0  0  0  0  0  0  0  0  0  0  0
   13.3632  -18.8837   25.2145 C   0  0  0  0  0  0  0  0  0  0  0  0
   13.4338  -20.0865   24.9250 O   0  0  0  0  0  0  0  0  0  0  0  0
   10.0416  -16.1965   25.2311 C   0  0  0  0  0  0  0  0  0  0  0  0
   10.5850  -15.1270   24.7661 O   0  0  0  0  0  0  0  0  0  0  0  0
   14.4928  -18.1093   25.2533 O   0  0  0  0  0  0  0  0  0  0  0  0
    9.5142  -16.2326   26.5361 N   0  0  0  0  0  0  0  0  0  0  0  0
    9.7345  -15.0748   27.4022 C   0  0  1  0  0  0  0  0  0  0  0  0
    8.3430  -14.7204   27.9352 C   0  0  0  0  0  0  0  0  0  0  0  0
    7.5747  -13.9340   26.9429 C   0  0  0  0  0  0  0  0  0  0  0  0
    8.0333  -13.5463   25.6918 C   0  0  0  0  0  0  0  0  0  0  0  0
    7.0667  -12.8524   25.0734 N   0  0  0  0  0  0  0  0  0  0  0  0
    6.0009  -12.7850   25.8948 C   0  0  0  0  0  0  0  0  0  0  0  0
    6.3238  -13.4474   27.0292 N   0  0  0  0  0  0  0  0  0  0  0  0
   10.5782  -15.5454   28.5347 C   0  0  0  0  0  0  0  0  0  0  0  0
   11.0665  -16.8175   28.6297 O   0  0  0  0  0  0  0  0  0  0  0  0
   10.8742  -14.7370   29.4784 O   0  0  0  0  0  0  0  0  0  0  0  0
  2  8  1  0
  2  1  1  1
  3  2  1  0
  4  3  1  0
  4  5  1  0
  6  5  1  0
  7  6  1  0
  8  9  2  0
 10 11  1  0
 10  8  1  0
 11 12  1  6
 13 14  1  0
 13 12  1  0
 14 18  1  0
 15 14  2  0
 16 17  2  0
 16 11  1  0
 19 16  1  0
 20 19  1  0
 20 21  1  1
 22 26  1  0
 22 21  1  0
 23 22  2  0
 24 23  1  0
 24 25  1  0
 25 26  2  0
 27 20  1  0
 27 28  1  0
 29 27  2  0
M  END
$$$$
