KEH.pdb
     RDKit          3D

 29 29  0  0  1  0  0  0  0  0999 V2000
    8.5839  -16.4629   15.9701 N   0  0  0  0  0  0  0  0  0  0  0  0
    9.1840  -15.2491   16.3889 C   0  0  1  0  0  0  0  0  0  0  0  0
    8.2703  -14.1105   16.6936 C   0  0  0  0  0  0  0  0  0  0  0  0
    7.2225  -13.8056   15.6929 C   0  0  0  0  0  0  0  0  0  0  0  0
    7.7281  -13.3542   14.3711 C   0  0  0  0  0  0  0  0  0  0  0  0
    6.6359  -12.9787   13.4204 C   0  0  0  0  0  0  0  0  0  0  0  0
    7.0787  -12.4058   12.1962 N   0  0  0  0  0  0  0  0  0  0  0  0
   10.0986  -15.4932   17.5693 C   0  0  0  0  0  0  0  0  0  0  0  0
    9.7287  -16.3524   18.3817 O   0  0  0  0  0  0  0  0  0  0  0  0
   11.2966  -14.7983   17.7525 N   0  0  0  0  0  0  0  0  0  0  0  0
   12.3379  -15.0315   18.6989 C   0  0  1  0  0  0  0  0  0  0  0  0
   13.6632  -14.3972   18.4102 C   0  0  0  0  0  0  0  0  0  0  0  0
   14.7526  -14.7404   19.3941 C   0  0  0  0  0  0  0  0  0  0  0  0
   16.0352  -14.2097   18.8703 C   0  0  0  0  0  0  0  0  0  0  0  0
   16.2116  -12.9850   18.8032 O   0  0  0  0  0  0  0  0  0  0  0  0
   11.9664  -14.8899   20.1040 C   0  0  0  0  0  0  0  0  0  0  0  0
   11.8932  -13.7014   20.5912 O   0  0  0  0  0  0  0  0  0  0  0  0
   17.0147  -15.0775   18.4645 O   0  0  0  0  0  0  0  0  0  0  0  0
   11.6944  -16.0179   20.9016 N   0  0  0  0  0  0  0  0  0  0  0  0
   11.5063  -15.8186   22.3383 C   0  0  1  0  0  0  0  0  0  0  0  0
   10.1293  -16.4200   22.6350 C   0  0  0  0  0  0  0  0  0  0  0  0
    9.0554  -15.4190   22.4401 C   0  0  0  0  0  0  0  0  0  0  0  0
    9.2455  -14.0924   22.0795 C   0  0  0  0  0  0  0  0  0  0  0  0
    8.0495  -13.4919   21.9955 N   0  0  0  0  0  0  0  0  0  0  0  0
    7.0978  -14.3982   22.2928 C   0  0  0  0  0  0  0  0  0  0  0  0
    7.7240  -15.5667   22.5614 N   0  0  0  0  0  0  0  0  0  0  0  0
   12.5460  -16.6365   23.0207 C   0  0  0  0  0  0  0  0  0  0  0  0
   13.4451  -17.4182   22.3527 O   0  0  0  0  0  0  0  0  0  0  0  0
   12.6212  -16.6238   24.2958 O   0  0  0  0  0  0  0  0  0  0  0  0
  2  8  1  0
  2  1  1  1
  3  2  1  0
  4  3  1  0
  4  5  1  0
  6  5  1  0
  7  6  1  0
  8  9  2  0
 10 11  1  0
 10  8  1  0
 11 12  1  6
 13 14  1  0
 13 12  1  0
 14 18  1  0
 15 14  2  0
 16 17  2  0
 16 11  1  0
 19 16  1  0
 20 19  1  0
 20 21  1  1
 22 26  1  0
 22 21  1  0
 23 22  2  0
 24 23  1  0
 24 25  1  0
 25 26  2  0
 27 20  1  0
 27 28  1  0
 29 27  2  0
M  END
$$$$
