KEH.pdb
     RDKit          3D

 29 29  0  0  1  0  0  0  0  0999 V2000
   10.0009  -14.3979   19.6663 N   0  0  0  0  0  0  0  0  0  0  0  0
    8.7479  -14.0239   20.2132 C   0  0  1  0  0  0  0  0  0  0  0  0
    7.6163  -13.8478   19.2579 C   0  0  0  0  0  0  0  0  0  0  0  0
    7.9539  -13.3590   17.9017 C   0  0  0  0  0  0  0  0  0  0  0  0
    7.6156  -14.2909   16.7956 C   0  0  0  0  0  0  0  0  0  0  0  0
    7.9594  -13.7494   15.4442 C   0  0  0  0  0  0  0  0  0  0  0  0
    7.5414  -14.5580   14.3513 N   0  0  0  0  0  0  0  0  0  0  0  0
    8.3412  -14.9878   21.3064 C   0  0  0  0  0  0  0  0  0  0  0  0
    7.2400  -15.5390   21.1704 O   0  0  0  0  0  0  0  0  0  0  0  0
    9.1470  -15.2541   22.4162 N   0  0  0  0  0  0  0  0  0  0  0  0
    9.1022  -16.3582   23.3181 C   0  0  1  0  0  0  0  0  0  0  0  0
    8.9082  -17.7136   22.7122 C   0  0  0  0  0  0  0  0  0  0  0  0
    9.9492  -18.1021   21.6933 C   0  0  0  0  0  0  0  0  0  0  0  0
    9.6525  -19.4795   21.2286 C   0  0  0  0  0  0  0  0  0  0  0  0
    8.9415  -19.6505   20.2282 O   0  0  0  0  0  0  0  0  0  0  0  0
   10.1264  -16.3737   24.3588 C   0  0  0  0  0  0  0  0  0  0  0  0
   10.8738  -17.4166   24.4533 O   0  0  0  0  0  0  0  0  0  0  0  0
   10.1666  -20.5519   21.9089 O   0  0  0  0  0  0  0  0  0  0  0  0
   10.2934  -15.2812   25.2312 N   0  0  0  0  0  0  0  0  0  0  0  0
    9.5781  -15.3004   26.5068 C   0  0  1  0  0  0  0  0  0  0  0  0
    8.0990  -15.3897   26.1193 C   0  0  0  0  0  0  0  0  0  0  0  0
    7.4252  -14.0802   26.2767 C   0  0  0  0  0  0  0  0  0  0  0  0
    8.0384  -12.9008   26.6750 C   0  0  0  0  0  0  0  0  0  0  0  0
    7.1197  -11.9242   26.7026 N   0  0  0  0  0  0  0  0  0  0  0  0
    5.9341  -12.4466   26.3327 C   0  0  0  0  0  0  0  0  0  0  0  0
    6.1344  -13.7595   26.0764 N   0  0  0  0  0  0  0  0  0  0  0  0
    9.9720  -16.5596   27.1962 C   0  0  0  0  0  0  0  0  0  0  0  0
   10.3037  -16.6193   28.5198 O   0  0  0  0  0  0  0  0  0  0  0  0
   10.0095  -17.6534   26.5375 O   0  0  0  0  0  0  0  0  0  0  0  0
  2  8  1  0
  2  1  1  6
  3  2  1  0
  4  3  1  0
  4  5  1  0
  6  5  1  0
  7  6  1  0
  8  9  2  0
 10 11  1  0
 10  8  1  0
 11 12  1  6
 13 14  1  0
 13 12  1  0
 14 18  1  0
 15 14  2  0
 16 17  2  0
 16 11  1  0
 19 16  1  0
 20 19  1  0
 20 21  1  6
 22 26  1  0
 22 21  1  0
 23 22  2  0
 24 23  1  0
 24 25  1  0
 25 26  2  0
 27 20  1  0
 27 28  1  0
 29 27  2  0
M  END
$$$$
