KEH.pdb
     RDKit          3D

 29 29  0  0  1  0  0  0  0  0999 V2000
    6.5617  -16.6152   19.9318 N   0  0  0  0  0  0  0  0  0  0  0  0
    7.7908  -16.0229   20.3157 C   0  0  1  0  0  0  0  0  0  0  0  0
    7.8148  -14.5379   20.4513 C   0  0  0  0  0  0  0  0  0  0  0  0
    7.3110  -13.7516   19.3024 C   0  0  0  0  0  0  0  0  0  0  0  0
    8.3333  -13.4033   18.2826 C   0  0  0  0  0  0  0  0  0  0  0  0
    7.7858  -12.5852   17.1562 C   0  0  0  0  0  0  0  0  0  0  0  0
    8.7212  -12.2783   16.1296 N   0  0  0  0  0  0  0  0  0  0  0  0
    8.3052  -16.6554   21.5904 C   0  0  0  0  0  0  0  0  0  0  0  0
    7.4474  -17.0280   22.4030 O   0  0  0  0  0  0  0  0  0  0  0  0
    9.6670  -16.8180   21.8563 N   0  0  0  0  0  0  0  0  0  0  0  0
   10.2987  -17.5102   22.9315 C   0  0  1  0  0  0  0  0  0  0  0  0
   11.5582  -18.2517   22.6059 C   0  0  0  0  0  0  0  0  0  0  0  0
   11.3940  -19.3561   21.5931 C   0  0  0  0  0  0  0  0  0  0  0  0
   12.7131  -20.0063   21.3973 C   0  0  0  0  0  0  0  0  0  0  0  0
   12.8162  -21.2353   21.5175 O   0  0  0  0  0  0  0  0  0  0  0  0
   10.4167  -16.7701   24.1848 C   0  0  0  0  0  0  0  0  0  0  0  0
   11.1803  -15.7348   24.2038 O   0  0  0  0  0  0  0  0  0  0  0  0
   13.8074  -19.2430   21.0852 O   0  0  0  0  0  0  0  0  0  0  0  0
    9.7156  -17.1744   25.3370 N   0  0  0  0  0  0  0  0  0  0  0  0
    9.8491  -16.3633   26.5467 C   0  0  1  0  0  0  0  0  0  0  0  0
    8.4152  -16.1908   27.0567 C   0  0  0  0  0  0  0  0  0  0  0  0
    7.7233  -15.0916   26.3450 C   0  0  0  0  0  0  0  0  0  0  0  0
    8.2892  -14.2780   25.3737 C   0  0  0  0  0  0  0  0  0  0  0  0
    7.3666  -13.3997   24.9546 N   0  0  0  0  0  0  0  0  0  0  0  0
    6.2244  -13.6288   25.6315 C   0  0  0  0  0  0  0  0  0  0  0  0
    6.4556  -14.6612   26.4744 N   0  0  0  0  0  0  0  0  0  0  0  0
   10.6130  -17.1834   27.5264 C   0  0  0  0  0  0  0  0  0  0  0  0
   10.9431  -16.7452   28.7773 O   0  0  0  0  0  0  0  0  0  0  0  0
   10.9907  -18.3604   27.2041 O   0  0  0  0  0  0  0  0  0  0  0  0
  2  8  1  0
  2  1  1  1
  3  2  1  0
  4  3  1  0
  4  5  1  0
  6  5  1  0
  7  6  1  0
  8  9  2  0
 10 11  1  0
 10  8  1  0
 11 12  1  6
 13 14  1  0
 13 12  1  0
 14 18  1  0
 15 14  2  0
 16 17  2  0
 16 11  1  0
 19 16  1  0
 20 19  1  0
 20 21  1  1
 22 26  1  0
 22 21  1  0
 23 22  2  0
 24 23  1  0
 24 25  1  0
 25 26  2  0
 27 20  1  0
 27 28  1  0
 29 27  2  0
M  END
$$$$
