KEH.pdb
     RDKit          3D

 29 29  0  0  1  0  0  0  0  0999 V2000
    9.8500  -12.9281   17.1652 N   0  0  0  0  0  0  0  0  0  0  0  0
    9.4484  -14.2776   17.3286 C   0  0  1  0  0  0  0  0  0  0  0  0
    9.0693  -15.0263   16.0958 C   0  0  0  0  0  0  0  0  0  0  0  0
    8.2810  -14.2911   15.0808 C   0  0  0  0  0  0  0  0  0  0  0  0
    7.0031  -14.9385   14.6876 C   0  0  0  0  0  0  0  0  0  0  0  0
    6.2471  -14.1674   13.6524 C   0  0  0  0  0  0  0  0  0  0  0  0
    4.9860  -14.7204   13.2966 N   0  0  0  0  0  0  0  0  0  0  0  0
   10.5034  -15.0532   18.0868 C   0  0  0  0  0  0  0  0  0  0  0  0
   10.2233  -16.2260   18.3719 O   0  0  0  0  0  0  0  0  0  0  0  0
   11.7304  -14.4964   18.4558 N   0  0  0  0  0  0  0  0  0  0  0  0
   12.8358  -15.1094   19.1166 C   0  0  1  0  0  0  0  0  0  0  0  0
   14.1986  -14.6051   18.7556 C   0  0  0  0  0  0  0  0  0  0  0  0
   14.5406  -14.7098   17.2911 C   0  0  0  0  0  0  0  0  0  0  0  0
   15.9568  -14.3040   17.1150 C   0  0  0  0  0  0  0  0  0  0  0  0
   16.4689  -13.5012   17.9079 O   0  0  0  0  0  0  0  0  0  0  0  0
   12.6937  -15.2963   20.5579 C   0  0  0  0  0  0  0  0  0  0  0  0
   12.8002  -14.2603   21.3133 O   0  0  0  0  0  0  0  0  0  0  0  0
   16.6875  -14.8198   16.0771 O   0  0  0  0  0  0  0  0  0  0  0  0
   12.4457  -16.5696   21.1052 N   0  0  0  0  0  0  0  0  0  0  0  0
   12.2067  -16.6679   22.5448 C   0  0  1  0  0  0  0  0  0  0  0  0
   11.1256  -17.7437   22.6847 C   0  0  0  0  0  0  0  0  0  0  0  0
   10.8775  -18.0704   24.1078 C   0  0  0  0  0  0  0  0  0  0  0  0
   10.9388  -17.1721   25.1637 C   0  0  0  0  0  0  0  0  0  0  0  0
   10.6546  -17.8226   26.3014 N   0  0  0  0  0  0  0  0  0  0  0  0
   10.4129  -19.1140   26.0027 C   0  0  0  0  0  0  0  0  0  0  0  0
   10.5521  -19.2510   24.6642 N   0  0  0  0  0  0  0  0  0  0  0  0
   13.4689  -17.1720   23.1519 C   0  0  0  0  0  0  0  0  0  0  0  0
   13.7548  -17.0705   24.4837 O   0  0  0  0  0  0  0  0  0  0  0  0
   14.3453  -17.7317   22.4101 O   0  0  0  0  0  0  0  0  0  0  0  0
  2  8  1  0
  2  1  1  6
  3  2  1  0
  4  3  1  0
  4  5  1  0
  6  5  1  0
  7  6  1  0
  8  9  2  0
 10 11  1  0
 10  8  1  0
 11 12  1  1
 13 14  1  0
 13 12  1  0
 14 18  1  0
 15 14  2  0
 16 17  2  0
 16 11  1  0
 19 16  1  0
 20 19  1  0
 20 21  1  6
 22 26  1  0
 22 21  1  0
 23 22  2  0
 24 23  1  0
 24 25  1  0
 25 26  2  0
 27 20  1  0
 27 28  1  0
 29 27  2  0
M  END
$$$$
