KEH.pdb
     RDKit          3D

 29 29  0  0  1  0  0  0  0  0999 V2000
    9.0415  -18.4819   17.2022 N   0  0  0  0  0  0  0  0  0  0  0  0
    9.9742  -17.5745   17.7641 C   0  0  1  0  0  0  0  0  0  0  0  0
    9.7036  -16.1201   17.5753 C   0  0  0  0  0  0  0  0  0  0  0  0
    8.7902  -15.7459   16.4717 C   0  0  0  0  0  0  0  0  0  0  0  0
    8.5523  -14.2876   16.3200 C   0  0  0  0  0  0  0  0  0  0  0  0
    7.6254  -13.9567   15.1934 C   0  0  0  0  0  0  0  0  0  0  0  0
    7.3965  -12.5671   14.9950 N   0  0  0  0  0  0  0  0  0  0  0  0
   10.1712  -17.8652   19.2359 C   0  0  0  0  0  0  0  0  0  0  0  0
    9.1578  -18.1859   19.8724 O   0  0  0  0  0  0  0  0  0  0  0  0
   11.4174  -17.7809   19.8618 N   0  0  0  0  0  0  0  0  0  0  0  0
   11.7613  -18.0352   21.2225 C   0  0  1  0  0  0  0  0  0  0  0  0
   13.1418  -18.5539   21.4812 C   0  0  0  0  0  0  0  0  0  0  0  0
   13.4219  -19.9155   20.8978 C   0  0  0  0  0  0  0  0  0  0  0  0
   14.8829  -20.0298   20.6665 C   0  0  0  0  0  0  0  0  0  0  0  0
   15.5483  -20.8385   21.3288 O   0  0  0  0  0  0  0  0  0  0  0  0
   11.3859  -16.9984   22.1798 C   0  0  0  0  0  0  0  0  0  0  0  0
   11.9517  -15.8476   22.0745 O   0  0  0  0  0  0  0  0  0  0  0  0
   15.4854  -19.2403   19.7225 O   0  0  0  0  0  0  0  0  0  0  0  0
   10.4332  -17.2479   23.1861 N   0  0  0  0  0  0  0  0  0  0  0  0
   10.1030  -16.1624   24.1089 C   0  0  1  0  0  0  0  0  0  0  0  0
    8.5963  -15.9506   23.9334 C   0  0  0  0  0  0  0  0  0  0  0  0
    8.3045  -15.1808   22.7022 C   0  0  0  0  0  0  0  0  0  0  0  0
    9.2506  -14.7080   21.8038 C   0  0  0  0  0  0  0  0  0  0  0  0
    8.6199  -14.0606   20.8131 N   0  0  0  0  0  0  0  0  0  0  0  0
    7.2948  -14.1059   21.0528 C   0  0  0  0  0  0  0  0  0  0  0  0
    7.1170  -14.7906   22.2057 N   0  0  0  0  0  0  0  0  0  0  0  0
   10.3599  -16.6782   25.4814 C   0  0  0  0  0  0  0  0  0  0  0  0
   10.2507  -15.9098   26.6054 O   0  0  0  0  0  0  0  0  0  0  0  0
   10.7017  -17.8984   25.6423 O   0  0  0  0  0  0  0  0  0  0  0  0
  2  8  1  0
  2  1  1  1
  3  2  1  0
  4  3  1  0
  4  5  1  0
  6  5  1  0
  7  6  1  0
  8  9  2  0
 10 11  1  0
 10  8  1  0
 11 12  1  6
 13 14  1  0
 13 12  1  0
 14 18  1  0
 15 14  2  0
 16 17  2  0
 16 11  1  0
 19 16  1  0
 20 19  1  0
 20 21  1  1
 22 26  1  0
 22 21  1  0
 23 22  2  0
 24 23  1  0
 24 25  1  0
 25 26  2  0
 27 20  1  0
 27 28  1  0
 29 27  2  0
M  END
$$$$
