KEH.pdb
     RDKit          3D

 29 29  0  0  1  0  0  0  0  0999 V2000
   13.1238  -21.0179   13.8601 N   0  0  0  0  0  0  0  0  0  0  0  0
   13.1804  -19.7984   14.5801 C   0  0  1  0  0  0  0  0  0  0  0  0
   11.9133  -19.0206   14.6973 C   0  0  0  0  0  0  0  0  0  0  0  0
   10.9585  -19.1209   13.5702 C   0  0  0  0  0  0  0  0  0  0  0  0
    9.7330  -18.2931   13.7093 C   0  0  0  0  0  0  0  0  0  0  0  0
    8.8553  -18.3333   12.4985 C   0  0  0  0  0  0  0  0  0  0  0  0
    7.6966  -17.5118   12.5716 N   0  0  0  0  0  0  0  0  0  0  0  0
   13.7630  -20.0263   15.9578 C   0  0  0  0  0  0  0  0  0  0  0  0
   13.3097  -20.9887   16.5930 O   0  0  0  0  0  0  0  0  0  0  0  0
   14.7559  -19.2082   16.5024 N   0  0  0  0  0  0  0  0  0  0  0  0
   15.3811  -19.2804   17.7823 C   0  0  1  0  0  0  0  0  0  0  0  0
   16.6808  -18.5532   17.9376 C   0  0  0  0  0  0  0  0  0  0  0  0
   17.7671  -18.9975   16.9915 C   0  0  0  0  0  0  0  0  0  0  0  0
   18.9663  -18.1585   17.2349 C   0  0  0  0  0  0  0  0  0  0  0  0
   19.1325  -17.1197   16.5801 O   0  0  0  0  0  0  0  0  0  0  0  0
   14.5057  -19.0729   18.9325 C   0  0  0  0  0  0  0  0  0  0  0  0
   13.8108  -17.9909   18.9735 O   0  0  0  0  0  0  0  0  0  0  0  0
   19.8810  -18.5387   18.1816 O   0  0  0  0  0  0  0  0  0  0  0  0
   14.4221  -20.0272   19.9645 N   0  0  0  0  0  0  0  0  0  0  0  0
   13.4417  -19.8102   21.0278 C   0  0  1  0  0  0  0  0  0  0  0  0
   13.2676  -21.1852   21.6797 C   0  0  0  0  0  0  0  0  0  0  0  0
   12.2370  -21.1463   22.7426 C   0  0  0  0  0  0  0  0  0  0  0  0
   11.1060  -20.3423   22.7400 C   0  0  0  0  0  0  0  0  0  0  0  0
   10.4061  -20.5775   23.8594 N   0  0  0  0  0  0  0  0  0  0  0  0
   11.0585  -21.5109   24.5794 C   0  0  0  0  0  0  0  0  0  0  0  0
   12.1712  -21.8483   23.8881 N   0  0  0  0  0  0  0  0  0  0  0  0
   14.0763  -18.8889   22.0098 C   0  0  0  0  0  0  0  0  0  0  0  0
   15.4284  -18.7499   22.1444 O   0  0  0  0  0  0  0  0  0  0  0  0
   13.3399  -18.1816   22.7774 O   0  0  0  0  0  0  0  0  0  0  0  0
  2  8  1  0
  2  1  1  1
  3  2  1  0
  4  3  1  0
  4  5  1  0
  6  5  1  0
  7  6  1  0
  8  9  2  0
 10 11  1  0
 10  8  1  0
 11 12  1  6
 13 14  1  0
 13 12  1  0
 14 18  1  0
 15 14  2  0
 16 17  2  0
 16 11  1  0
 19 16  1  0
 20 19  1  0
 20 21  1  1
 22 26  1  0
 22 21  1  0
 23 22  2  0
 24 23  1  0
 24 25  1  0
 25 26  2  0
 27 20  1  0
 27 28  1  0
 29 27  2  0
M  END
$$$$
