KEH.pdb
     RDKit          3D

 29 29  0  0  1  0  0  0  0  0999 V2000
    9.1026  -17.1134   16.7381 N   0  0  0  0  0  0  0  0  0  0  0  0
   10.5146  -16.9951   16.7062 C   0  0  1  0  0  0  0  0  0  0  0  0
   11.1096  -16.2858   15.5370 C   0  0  0  0  0  0  0  0  0  0  0  0
   11.5941  -17.1265   14.4186 C   0  0  0  0  0  0  0  0  0  0  0  0
   13.0387  -17.4685   14.4695 C   0  0  0  0  0  0  0  0  0  0  0  0
   13.5012  -18.2471   13.2789 C   0  0  0  0  0  0  0  0  0  0  0  0
   14.8591  -18.6675   13.3293 N   0  0  0  0  0  0  0  0  0  0  0  0
   11.0201  -16.3693   17.9878 C   0  0  0  0  0  0  0  0  0  0  0  0
   11.0179  -15.1312   18.0320 O   0  0  0  0  0  0  0  0  0  0  0  0
   11.4701  -17.1272   19.0716 N   0  0  0  0  0  0  0  0  0  0  0  0
   11.9837  -16.6873   20.3274 C   0  0  1  0  0  0  0  0  0  0  0  0
   11.3288  -17.2434   21.5537 C   0  0  0  0  0  0  0  0  0  0  0  0
   10.1998  -18.2050   21.2827 C   0  0  0  0  0  0  0  0  0  0  0  0
    9.6510  -18.6555   22.5854 C   0  0  0  0  0  0  0  0  0  0  0  0
   10.1598  -18.2493   23.6398 O   0  0  0  0  0  0  0  0  0  0  0  0
   13.4386  -16.6729   20.4519 C   0  0  0  0  0  0  0  0  0  0  0  0
   14.1310  -17.1634   19.4847 O   0  0  0  0  0  0  0  0  0  0  0  0
    8.5862  -19.5173   22.6129 O   0  0  0  0  0  0  0  0  0  0  0  0
   14.0658  -16.1376   21.5932 N   0  0  0  0  0  0  0  0  0  0  0  0
   15.4359  -15.6433   21.4604 C   0  0  1  0  0  0  0  0  0  0  0  0
   15.2891  -14.2711   20.7960 C   0  0  0  0  0  0  0  0  0  0  0  0
   15.6782  -14.3241   19.3680 C   0  0  0  0  0  0  0  0  0  0  0  0
   15.4524  -13.3237   18.4332 C   0  0  0  0  0  0  0  0  0  0  0  0
   15.9412  -13.7205   17.2492 N   0  0  0  0  0  0  0  0  0  0  0  0
   16.4742  -14.9487   17.4003 C   0  0  0  0  0  0  0  0  0  0  0  0
   16.3072  -15.3040   18.6947 N   0  0  0  0  0  0  0  0  0  0  0  0
   15.9561  -15.4558   22.8424 C   0  0  0  0  0  0  0  0  0  0  0  0
   17.2831  -15.3119   23.1325 O   0  0  0  0  0  0  0  0  0  0  0  0
   15.1396  -15.4248   23.8243 O   0  0  0  0  0  0  0  0  0  0  0  0
  2  8  1  0
  2  1  1  6
  3  2  1  0
  4  3  1  0
  4  5  1  0
  6  5  1  0
  7  6  1  0
  8  9  2  0
 10 11  1  0
 10  8  1  0
 11 12  1  1
 13 14  1  0
 13 12  1  0
 14 18  1  0
 15 14  2  0
 16 17  2  0
 16 11  1  0
 19 16  1  0
 20 19  1  0
 20 21  1  1
 22 26  1  0
 22 21  1  0
 23 22  2  0
 24 23  1  0
 24 25  1  0
 25 26  2  0
 27 20  1  0
 27 28  1  0
 29 27  2  0
M  END
$$$$
