KEH.pdb
     RDKit          3D

 29 29  0  0  1  0  0  0  0  0999 V2000
    8.2724  -16.4850   18.4202 N   0  0  0  0  0  0  0  0  0  0  0  0
    8.9302  -15.4793   19.1718 C   0  0  1  0  0  0  0  0  0  0  0  0
    8.2180  -14.1792   19.3345 C   0  0  0  0  0  0  0  0  0  0  0  0
    7.9697  -13.3924   18.1050 C   0  0  0  0  0  0  0  0  0  0  0  0
    7.6618  -14.1975   16.8952 C   0  0  0  0  0  0  0  0  0  0  0  0
    7.5017  -13.3673   15.6611 C   0  0  0  0  0  0  0  0  0  0  0  0
    7.1770  -14.0990   14.4855 N   0  0  0  0  0  0  0  0  0  0  0  0
    9.3268  -16.0121   20.5313 C   0  0  0  0  0  0  0  0  0  0  0  0
    8.4156  -16.1273   21.3628 O   0  0  0  0  0  0  0  0  0  0  0  0
   10.6416  -16.3591   20.8520 N   0  0  0  0  0  0  0  0  0  0  0  0
   11.1659  -16.8685   22.0767 C   0  0  1  0  0  0  0  0  0  0  0  0
   12.5599  -17.4134   22.0361 C   0  0  0  0  0  0  0  0  0  0  0  0
   13.0743  -17.9245   23.3578 C   0  0  0  0  0  0  0  0  0  0  0  0
   14.4668  -18.3977   23.1623 C   0  0  0  0  0  0  0  0  0  0  0  0
   15.3918  -17.5756   23.0989 O   0  0  0  0  0  0  0  0  0  0  0  0
   10.9441  -16.0405   23.2589 C   0  0  0  0  0  0  0  0  0  0  0  0
   11.3545  -14.8215   23.2265 O   0  0  0  0  0  0  0  0  0  0  0  0
   14.7195  -19.7399   23.0533 O   0  0  0  0  0  0  0  0  0  0  0  0
   10.2997  -16.5578   24.3988 N   0  0  0  0  0  0  0  0  0  0  0  0
    9.8271  -15.6153   25.4124 C   0  0  1  0  0  0  0  0  0  0  0  0
    8.4409  -15.1848   24.9236 C   0  0  0  0  0  0  0  0  0  0  0  0
    7.8400  -14.1834   25.8344 C   0  0  0  0  0  0  0  0  0  0  0  0
    8.4698  -13.6093   26.9296 C   0  0  0  0  0  0  0  0  0  0  0  0
    7.6225  -12.7493   27.5135 N   0  0  0  0  0  0  0  0  0  0  0  0
    6.4664  -12.7571   26.8217 C   0  0  0  0  0  0  0  0  0  0  0  0
    6.6125  -13.6343   25.8024 N   0  0  0  0  0  0  0  0  0  0  0  0
    9.6734  -16.3896   26.6744 C   0  0  0  0  0  0  0  0  0  0  0  0
    9.4879  -15.8066   27.8956 O   0  0  0  0  0  0  0  0  0  0  0  0
    9.7139  -17.6659   26.6396 O   0  0  0  0  0  0  0  0  0  0  0  0
  2  8  1  0
  2  1  1  1
  3  2  1  0
  4  3  1  0
  4  5  1  0
  6  5  1  0
  7  6  1  0
  8  9  2  0
 10 11  1  0
 10  8  1  0
 11 12  1  6
 13 14  1  0
 13 12  1  0
 14 18  1  0
 15 14  2  0
 16 17  2  0
 16 11  1  0
 19 16  1  0
 20 19  1  0
 20 21  1  6
 22 26  1  0
 22 21  1  0
 23 22  2  0
 24 23  1  0
 24 25  1  0
 25 26  2  0
 27 20  1  0
 27 28  1  0
 29 27  2  0
M  END
$$$$
