KEH.pdb
     RDKit          3D

 29 29  0  0  1  0  0  0  0  0999 V2000
    7.7532  -17.8344   20.1763 N   0  0  0  0  0  0  0  0  0  0  0  0
    8.8473  -16.9927   20.4977 C   0  0  1  0  0  0  0  0  0  0  0  0
    8.5326  -15.5827   20.8677 C   0  0  0  0  0  0  0  0  0  0  0  0
    8.7210  -14.5561   19.8175 C   0  0  0  0  0  0  0  0  0  0  0  0
    8.3566  -13.1729   20.2183 C   0  0  0  0  0  0  0  0  0  0  0  0
    8.4381  -12.1930   19.0909 C   0  0  0  0  0  0  0  0  0  0  0  0
    8.0206  -10.8724   19.4144 N   0  0  0  0  0  0  0  0  0  0  0  0
    9.6960  -17.6222   21.5808 C   0  0  0  0  0  0  0  0  0  0  0  0
    9.0925  -18.0310   22.5827 O   0  0  0  0  0  0  0  0  0  0  0  0
   11.0839  -17.7437   21.4774 N   0  0  0  0  0  0  0  0  0  0  0  0
   12.0325  -18.1171   22.4749 C   0  0  1  0  0  0  0  0  0  0  0  0
   13.4114  -18.4543   21.9985 C   0  0  0  0  0  0  0  0  0  0  0  0
   14.3652  -18.8820   23.0848 C   0  0  0  0  0  0  0  0  0  0  0  0
   15.6723  -19.1965   22.4574 C   0  0  0  0  0  0  0  0  0  0  0  0
   16.6753  -18.5364   22.7636 O   0  0  0  0  0  0  0  0  0  0  0  0
   12.0642  -17.2792   23.6705 C   0  0  0  0  0  0  0  0  0  0  0  0
   12.6908  -16.1575   23.6038 O   0  0  0  0  0  0  0  0  0  0  0  0
   15.7606  -20.2141   21.5442 O   0  0  0  0  0  0  0  0  0  0  0  0
   11.4277  -17.6840   24.8594 N   0  0  0  0  0  0  0  0  0  0  0  0
   11.4817  -16.7853   26.0120 C   0  0  1  0  0  0  0  0  0  0  0  0
   10.0595  -16.2309   26.1370 C   0  0  0  0  0  0  0  0  0  0  0  0
    9.9372  -15.3317   27.3074 C   0  0  0  0  0  0  0  0  0  0  0  0
   10.9471  -15.0495   28.2164 C   0  0  0  0  0  0  0  0  0  0  0  0
   10.4738  -14.1973   29.1373 N   0  0  0  0  0  0  0  0  0  0  0  0
    9.1874  -13.9259   28.8428 C   0  0  0  0  0  0  0  0  0  0  0  0
    8.8737  -14.6229   27.7268 N   0  0  0  0  0  0  0  0  0  0  0  0
   11.7737  -17.6340   27.1996 C   0  0  0  0  0  0  0  0  0  0  0  0
   12.1609  -17.1279   28.4077 O   0  0  0  0  0  0  0  0  0  0  0  0
   11.6639  -18.9034   27.1092 O   0  0  0  0  0  0  0  0  0  0  0  0
  2  8  1  0
  2  1  1  1
  3  2  1  0
  4  3  1  0
  4  5  1  0
  6  5  1  0
  7  6  1  0
  8  9  2  0
 10 11  1  0
 10  8  1  0
 11 12  1  6
 13 14  1  0
 13 12  1  0
 14 18  1  0
 15 14  2  0
 16 17  2  0
 16 11  1  0
 19 16  1  0
 20 19  1  0
 20 21  1  1
 22 26  1  0
 22 21  1  0
 23 22  2  0
 24 23  1  0
 24 25  1  0
 25 26  2  0
 27 20  1  0
 27 28  1  0
 29 27  2  0
M  END
$$$$
