KEH.pdb
     RDKit          3D

 29 29  0  0  1  0  0  0  0  0999 V2000
    6.9664  -16.5759   19.0210 N   0  0  0  0  0  0  0  0  0  0  0  0
    8.0778  -15.7810   19.3976 C   0  0  1  0  0  0  0  0  0  0  0  0
    7.9044  -14.3010   19.3377 C   0  0  0  0  0  0  0  0  0  0  0  0
    7.4830  -13.7274   18.0395 C   0  0  0  0  0  0  0  0  0  0  0  0
    8.3807  -14.0333   16.8962 C   0  0  0  0  0  0  0  0  0  0  0  0
    7.9593  -13.3698   15.6234 C   0  0  0  0  0  0  0  0  0  0  0  0
    8.8254  -13.5922   14.5173 N   0  0  0  0  0  0  0  0  0  0  0  0
    8.5673  -16.1774   20.7734 C   0  0  0  0  0  0  0  0  0  0  0  0
    7.7196  -16.1829   21.6769 O   0  0  0  0  0  0  0  0  0  0  0  0
    9.8968  -16.5200   21.0319 N   0  0  0  0  0  0  0  0  0  0  0  0
   10.4985  -16.9350   22.2567 C   0  0  1  0  0  0  0  0  0  0  0  0
   11.8537  -17.5643   22.1606 C   0  0  0  0  0  0  0  0  0  0  0  0
   12.4055  -18.0726   23.4682 C   0  0  0  0  0  0  0  0  0  0  0  0
   13.7172  -18.7124   23.2011 C   0  0  0  0  0  0  0  0  0  0  0  0
   14.1259  -19.6114   23.9496 O   0  0  0  0  0  0  0  0  0  0  0  0
   10.4233  -15.9811   23.3598 C   0  0  0  0  0  0  0  0  0  0  0  0
   10.7723  -14.7644   23.1291 O   0  0  0  0  0  0  0  0  0  0  0  0
   14.4667  -18.3044   22.1291 O   0  0  0  0  0  0  0  0  0  0  0  0
    9.9808  -16.3783   24.6361 N   0  0  0  0  0  0  0  0  0  0  0  0
    9.5510  -15.3399   25.5720 C   0  0  1  0  0  0  0  0  0  0  0  0
    8.1351  -14.9723   25.1181 C   0  0  0  0  0  0  0  0  0  0  0  0
    7.5493  -13.9267   25.9882 C   0  0  0  0  0  0  0  0  0  0  0  0
    8.2097  -13.2720   27.0183 C   0  0  0  0  0  0  0  0  0  0  0  0
    7.3678  -12.3931   27.5813 N   0  0  0  0  0  0  0  0  0  0  0  0
    6.1854  -12.4671   26.9395 C   0  0  0  0  0  0  0  0  0  0  0  0
    6.3099  -13.4044   25.9722 N   0  0  0  0  0  0  0  0  0  0  0  0
    9.4752  -15.9813   26.9132 C   0  0  0  0  0  0  0  0  0  0  0  0
    9.6099  -15.2915   28.0844 O   0  0  0  0  0  0  0  0  0  0  0  0
    9.2750  -17.2399   26.9994 O   0  0  0  0  0  0  0  0  0  0  0  0
  2  8  1  0
  2  1  1  1
  3  2  1  0
  4  3  1  0
  4  5  1  0
  6  5  1  0
  7  6  1  0
  8  9  2  0
 10 11  1  0
 10  8  1  0
 11 12  1  6
 13 14  1  0
 13 12  1  0
 14 18  1  0
 15 14  2  0
 16 17  2  0
 16 11  1  0
 19 16  1  0
 20 19  1  0
 20 21  1  6
 22 26  1  0
 22 21  1  0
 23 22  2  0
 24 23  1  0
 24 25  1  0
 25 26  2  0
 27 20  1  0
 27 28  1  0
 29 27  2  0
M  END
$$$$
