FCV.pdb
     RDKit          3D

 25 25  0  0  1  0  0  0  0  0999 V2000
   27.1577  -18.2857   -7.7640 N   0  0  0  0  0  0  0  0  0  0  0  0
   27.3520  -19.6855   -8.1887 C   0  0  1  0  0  0  0  0  0  0  0  0
   27.0119  -20.5827   -7.0314 C   0  0  0  0  0  0  0  0  0  0  0  0
   27.9682  -20.3782   -5.9297 C   0  0  0  0  0  0  0  0  0  0  0  0
   27.5120  -19.8146   -4.7487 C   0  0  0  0  0  0  0  0  0  0  0  0
   28.3624  -19.6099   -3.6805 C   0  0  0  0  0  0  0  0  0  0  0  0
   29.6701  -19.9859   -3.8373 C   0  0  0  0  0  0  0  0  0  0  0  0
   30.1647  -20.5513   -4.9987 C   0  0  0  0  0  0  0  0  0  0  0  0
   29.2886  -20.7488   -6.0643 C   0  0  0  0  0  0  0  0  0  0  0  0
   26.5674  -19.9566   -9.4139 C   0  0  0  0  0  0  0  0  0  0  0  0
   25.3769  -19.5902   -9.5673 O   0  0  0  0  0  0  0  0  0  0  0  0
   27.1467  -20.6715  -10.5161 N   0  0  0  0  0  0  0  0  0  0  0  0
   26.5416  -20.6954  -11.8196 C   0  0  1  0  0  0  0  0  0  0  0  0
   27.4978  -21.3395  -12.8051 C   0  0  0  0  0  0  0  0  0  0  0  0
   26.7302  -21.6336  -14.4051 S   0  0  0  0  0  0  0  0  0  0  0  0
   25.2267  -21.3854  -11.8073 C   0  0  0  0  0  0  0  0  0  0  0  0
   25.0917  -22.5057  -11.2067 O   0  0  0  0  0  0  0  0  0  0  0  0
   20.4358  -21.2537  -12.1553 C   0  0  0  0  0  0  0  0  0  0  0  0
   21.7261  -20.4885  -12.1208 C   0  0  1  0  0  0  0  0  0  0  0  0
   21.9312  -19.9450  -10.7131 C   0  0  0  0  0  0  0  0  0  0  0  0
   22.8612  -21.4570  -12.4776 C   0  0  2  0  0  0  0  0  0  0  0  0
   24.1314  -20.7721  -12.4758 N   0  0  0  0  0  0  0  0  0  0  0  0
   22.5701  -21.9442  -13.8417 C   0  0  0  0  0  0  0  0  0  0  0  0
   22.8313  -21.1100  -14.9113 O   0  0  0  0  0  0  0  0  0  0  0  0
   22.0959  -23.0790  -14.0935 O   0  0  0  0  0  0  0  0  0  0  0  0
  2 10  1  0
  2  1  1  1
  3  2  1  0
  4  3  1  0
  5  4  2  0
  6  5  1  0
  7  8  1  0
  7  6  2  0
  8  9  2  0
  9  4  1  0
 10 11  2  0
 12 10  1  0
 12 13  1  0
 13 14  1  6
 14 15  1  0
 16 17  2  0
 16 13  1  0
 19 18  1  1
 19 20  1  0
 19 21  1  0
 21 22  1  6
 22 16  1  0
 23 24  1  0
 23 21  1  0
 25 23  2  0
M  END
$$$$
