FCV.pdb
     RDKit          3D

 25 25  0  0  1  0  0  0  0  0999 V2000
   22.9893  -12.8585  -17.4958 N   0  0  0  0  0  0  0  0  0  0  0  0
   22.8909  -11.5137  -18.0954 C   0  0  1  0  0  0  0  0  0  0  0  0
   22.7279  -11.6691  -19.5817 C   0  0  0  0  0  0  0  0  0  0  0  0
   23.9177  -12.3172  -20.1600 C   0  0  0  0  0  0  0  0  0  0  0  0
   23.8797  -13.6806  -20.4051 C   0  0  0  0  0  0  0  0  0  0  0  0
   24.9624  -14.3372  -20.9554 C   0  0  0  0  0  0  0  0  0  0  0  0
   26.0704  -13.5869  -21.2473 C   0  0  0  0  0  0  0  0  0  0  0  0
   26.1484  -12.2251  -21.0183 C   0  0  0  0  0  0  0  0  0  0  0  0
   25.0438  -11.5827  -20.4621 C   0  0  0  0  0  0  0  0  0  0  0  0
   21.8041  -10.7478  -17.4455 C   0  0  0  0  0  0  0  0  0  0  0  0
   20.6512  -11.2071  -17.2584 O   0  0  0  0  0  0  0  0  0  0  0  0
   22.0227   -9.4054  -16.9852 N   0  0  0  0  0  0  0  0  0  0  0  0
   20.9928   -8.6364  -16.3420 C   0  0  1  0  0  0  0  0  0  0  0  0
   20.9238   -9.0172  -14.8755 C   0  0  0  0  0  0  0  0  0  0  0  0
   22.5197   -8.8711  -14.0586 S   0  0  0  0  0  0  0  0  0  0  0  0
   21.2016   -7.1764  -16.5156 C   0  0  0  0  0  0  0  0  0  0  0  0
   22.3672   -6.6703  -16.3760 O   0  0  0  0  0  0  0  0  0  0  0  0
   20.7207   -5.1997  -19.4795 C   0  0  0  0  0  0  0  0  0  0  0  0
   19.8111   -4.5603  -18.4718 C   0  0  1  0  0  0  0  0  0  0  0  0
   18.3974   -5.0811  -18.6938 C   0  0  0  0  0  0  0  0  0  0  0  0
   20.3004   -4.9567  -17.0727 C   0  0  2  0  0  0  0  0  0  0  0  0
   20.0802   -6.3635  -16.8383 N   0  0  0  0  0  0  0  0  0  0  0  0
   19.4930   -4.1694  -16.1183 C   0  0  0  0  0  0  0  0  0  0  0  0
   19.8186   -2.8426  -15.9139 O   0  0  0  0  0  0  0  0  0  0  0  0
   18.5202   -4.6336  -15.4746 O   0  0  0  0  0  0  0  0  0  0  0  0
  2 10  1  0
  2  1  1  1
  3  2  1  0
  4  3  1  0
  5  4  2  0
  6  5  1  0
  7  8  1  0
  7  6  2  0
  8  9  2  0
  9  4  1  0
 10 11  2  0
 12 10  1  0
 12 13  1  0
 13 14  1  1
 14 15  1  0
 16 17  2  0
 16 13  1  0
 19 18  1  6
 19 20  1  0
 19 21  1  0
 21 22  1  1
 22 16  1  0
 23 24  1  0
 23 21  1  0
 25 23  2  0
M  END
$$$$
