FCV.pdb
     RDKit          3D

 25 25  0  0  1  0  0  0  0  0999 V2000
   28.2071  -19.5532  -15.7228 N   0  0  0  0  0  0  0  0  0  0  0  0
   27.2558  -19.0077  -14.7354 C   0  0  1  0  0  0  0  0  0  0  0  0
   26.2529  -18.1575  -15.4641 C   0  0  0  0  0  0  0  0  0  0  0  0
   26.8821  -16.9068  -15.9224 C   0  0  0  0  0  0  0  0  0  0  0  0
   27.2725  -16.8053  -17.2481 C   0  0  0  0  0  0  0  0  0  0  0  0
   27.8574  -15.6527  -17.7336 C   0  0  0  0  0  0  0  0  0  0  0  0
   28.0345  -14.6189  -16.8529 C   0  0  0  0  0  0  0  0  0  0  0  0
   27.6590  -14.6801  -15.5230 C   0  0  0  0  0  0  0  0  0  0  0  0
   27.0704  -15.8531  -15.0545 C   0  0  0  0  0  0  0  0  0  0  0  0
   26.6561  -20.1083  -13.9484 C   0  0  0  0  0  0  0  0  0  0  0  0
   26.3037  -21.2038  -14.4493 O   0  0  0  0  0  0  0  0  0  0  0  0
   26.4428  -19.9717  -12.5351 N   0  0  0  0  0  0  0  0  0  0  0  0
   25.5178  -20.8022  -11.8138 C   0  0  1  0  0  0  0  0  0  0  0  0
   25.7043  -20.5849  -10.3243 C   0  0  0  0  0  0  0  0  0  0  0  0
   24.4435  -21.4213   -9.3514 S   0  0  0  0  0  0  0  0  0  0  0  0
   24.1131  -20.5557  -12.2276 C   0  0  0  0  0  0  0  0  0  0  0  0
   23.6857  -19.3607  -12.3801 O   0  0  0  0  0  0  0  0  0  0  0  0
   20.1566  -21.9776  -14.5073 C   0  0  0  0  0  0  0  0  0  0  0  0
   21.5997  -22.2036  -14.1637 C   0  0  1  0  0  0  0  0  0  0  0  0
   22.4592  -21.6744  -15.3040 C   0  0  0  0  0  0  0  0  0  0  0  0
   21.9070  -21.4299  -12.8751 C   0  0  2  0  0  0  0  0  0  0  0  0
   23.2635  -21.6748  -12.4479 N   0  0  0  0  0  0  0  0  0  0  0  0
   20.9719  -21.9464  -11.8545 C   0  0  0  0  0  0  0  0  0  0  0  0
   19.8282  -21.2224  -11.5791 O   0  0  0  0  0  0  0  0  0  0  0  0
   21.1519  -23.0117  -11.2151 O   0  0  0  0  0  0  0  0  0  0  0  0
  2 10  1  0
  2  1  1  6
  3  2  1  0
  4  3  1  0
  5  4  2  0
  6  5  1  0
  7  8  1  0
  7  6  2  0
  8  9  2  0
  9  4  1  0
 10 11  2  0
 12 10  1  0
 12 13  1  0
 13 14  1  1
 14 15  1  0
 16 17  2  0
 16 13  1  0
 19 18  1  6
 19 20  1  0
 19 21  1  0
 21 22  1  1
 22 16  1  0
 23 24  1  0
 23 21  1  0
 25 23  2  0
M  END
$$$$
