FCV.pdb
     RDKit          3D

 25 25  0  0  1  0  0  0  0  0999 V2000
   24.8033  -11.7730  -18.3242 N   0  0  0  0  0  0  0  0  0  0  0  0
   24.6363  -10.9646  -17.1009 C   0  0  1  0  0  0  0  0  0  0  0  0
   25.9571  -10.3268  -16.7713 C   0  0  0  0  0  0  0  0  0  0  0  0
   26.9720  -11.3621  -16.5101 C   0  0  0  0  0  0  0  0  0  0  0  0
   27.8911  -11.6586  -17.5040 C   0  0  0  0  0  0  0  0  0  0  0  0
   28.8700  -12.6125  -17.3092 C   0  0  0  0  0  0  0  0  0  0  0  0
   28.8938  -13.2502  -16.0974 C   0  0  0  0  0  0  0  0  0  0  0  0
   27.9953  -12.9836  -15.0801 C   0  0  0  0  0  0  0  0  0  0  0  0
   27.0155  -12.0169  -15.2984 C   0  0  0  0  0  0  0  0  0  0  0  0
   23.5277  -10.0004  -17.2784 C   0  0  0  0  0  0  0  0  0  0  0  0
   23.3515   -9.3355  -18.3282 O   0  0  0  0  0  0  0  0  0  0  0  0
   22.5743   -9.7732  -16.2291 N   0  0  0  0  0  0  0  0  0  0  0  0
   21.4926   -8.8364  -16.3634 C   0  0  1  0  0  0  0  0  0  0  0  0
   20.1762   -9.5895  -16.3858 C   0  0  0  0  0  0  0  0  0  0  0  0
   18.7602   -8.4893  -16.2438 S   0  0  0  0  0  0  0  0  0  0  0  0
   21.5133   -7.8090  -15.2913 C   0  0  0  0  0  0  0  0  0  0  0  0
   21.7491   -8.1447  -14.0806 O   0  0  0  0  0  0  0  0  0  0  0  0
   21.8517   -3.7243  -16.2469 C   0  0  0  0  0  0  0  0  0  0  0  0
   22.2874   -4.3404  -14.9498 C   0  0  1  0  0  0  0  0  0  0  0  0
   22.2617   -3.2676  -13.8695 C   0  0  0  0  0  0  0  0  0  0  0  0
   21.2969   -5.4585  -14.5998 C   0  0  2  0  0  0  0  0  0  0  0  0
   21.2659   -6.4537  -15.6444 N   0  0  0  0  0  0  0  0  0  0  0  0
   19.9712   -4.8142  -14.4985 C   0  0  0  0  0  0  0  0  0  0  0  0
   19.6931   -4.0458  -13.3847 O   0  0  0  0  0  0  0  0  0  0  0  0
   19.0724   -4.9212  -15.3684 O   0  0  0  0  0  0  0  0  0  0  0  0
  2 10  1  0
  2  1  1  6
  3  2  1  0
  4  3  1  0
  5  4  2  0
  6  5  1  0
  7  8  1  0
  7  6  2  0
  8  9  2  0
  9  4  1  0
 10 11  2  0
 12 10  1  0
 12 13  1  0
 13 14  1  1
 14 15  1  0
 16 17  2  0
 16 13  1  0
 19 18  1  6
 19 20  1  0
 19 21  1  0
 21 22  1  6
 22 16  1  0
 23 24  1  0
 23 21  1  0
 25 23  2  0
M  END
$$$$
