FCV.pdb
     RDKit          3D

 25 25  0  0  1  0  0  0  0  0999 V2000
   23.6281  -12.3128  -17.5201 N   0  0  0  0  0  0  0  0  0  0  0  0
   22.7211  -11.3447  -18.1664 C   0  0  1  0  0  0  0  0  0  0  0  0
   21.5408  -12.0961  -18.7161 C   0  0  0  0  0  0  0  0  0  0  0  0
   21.9818  -13.0608  -19.7383 C   0  0  0  0  0  0  0  0  0  0  0  0
   21.7544  -14.4105  -19.5216 C   0  0  0  0  0  0  0  0  0  0  0  0
   22.1376  -15.3571  -20.4507 C   0  0  0  0  0  0  0  0  0  0  0  0
   22.7493  -14.9071  -21.5906 C   0  0  0  0  0  0  0  0  0  0  0  0
   22.9944  -13.5697  -21.8447 C   0  0  0  0  0  0  0  0  0  0  0  0
   22.5992  -12.6316  -20.8931 C   0  0  0  0  0  0  0  0  0  0  0  0
   22.3627  -10.2716  -17.2123 C   0  0  0  0  0  0  0  0  0  0  0  0
   21.8853  -10.4913  -16.0726 O   0  0  0  0  0  0  0  0  0  0  0  0
   22.5492   -8.8896  -17.5544 N   0  0  0  0  0  0  0  0  0  0  0  0
   22.1547   -7.8211  -16.6779 C   0  0  1  0  0  0  0  0  0  0  0  0
   23.3885   -7.0703  -16.2148 C   0  0  0  0  0  0  0  0  0  0  0  0
   22.9755   -5.6349  -15.2125 S   0  0  0  0  0  0  0  0  0  0  0  0
   21.1734   -6.9108  -17.3210 C   0  0  0  0  0  0  0  0  0  0  0  0
   21.3265   -6.5539  -18.5389 O   0  0  0  0  0  0  0  0  0  0  0  0
   16.8118   -4.9237  -17.5759 C   0  0  0  0  0  0  0  0  0  0  0  0
   17.7089   -5.9816  -17.0033 C   0  0  1  0  0  0  0  0  0  0  0  0
   17.4982   -7.2720  -17.7839 C   0  0  0  0  0  0  0  0  0  0  0  0
   19.1597   -5.5077  -17.1585 C   0  0  2  0  0  0  0  0  0  0  0  0
   20.0687   -6.4506  -16.5525 N   0  0  0  0  0  0  0  0  0  0  0  0
   19.2473   -4.2166  -16.4457 C   0  0  0  0  0  0  0  0  0  0  0  0
   18.8977   -3.0635  -17.1213 O   0  0  0  0  0  0  0  0  0  0  0  0
   19.6227   -4.0990  -15.2536 O   0  0  0  0  0  0  0  0  0  0  0  0
  2 10  1  0
  2  1  1  1
  3  2  1  0
  4  3  1  0
  5  4  2  0
  6  5  1  0
  7  8  1  0
  7  6  2  0
  8  9  2  0
  9  4  1  0
 10 11  2  0
 12 10  1  0
 12 13  1  0
 13 14  1  6
 14 15  1  0
 16 17  2  0
 16 13  1  0
 19 18  1  6
 19 20  1  0
 19 21  1  0
 21 22  1  1
 22 16  1  0
 23 24  1  0
 23 21  1  0
 25 23  2  0
M  END
$$$$
