FCV.pdb
     RDKit          3D

 25 25  0  0  1  0  0  0  0  0999 V2000
   25.0926  -19.9988  -15.7541 N   0  0  0  0  0  0  0  0  0  0  0  0
   23.8085  -19.3434  -15.4391 C   0  0  1  0  0  0  0  0  0  0  0  0
   23.5527  -18.2824  -16.4729 C   0  0  0  0  0  0  0  0  0  0  0  0
   24.5990  -17.2473  -16.4107 C   0  0  0  0  0  0  0  0  0  0  0  0
   25.5467  -17.1976  -17.4205 C   0  0  0  0  0  0  0  0  0  0  0  0
   26.5432  -16.2420  -17.4178 C   0  0  0  0  0  0  0  0  0  0  0  0
   26.5550  -15.3494  -16.3790 C   0  0  0  0  0  0  0  0  0  0  0  0
   25.6280  -15.3651  -15.3524 C   0  0  0  0  0  0  0  0  0  0  0  0
   24.6309  -16.3384  -15.3754 C   0  0  0  0  0  0  0  0  0  0  0  0
   22.7348  -20.3566  -15.3351 C   0  0  0  0  0  0  0  0  0  0  0  0
   22.6485  -21.3524  -16.0941 O   0  0  0  0  0  0  0  0  0  0  0  0
   21.7123  -20.2457  -14.3333 N   0  0  0  0  0  0  0  0  0  0  0  0
   20.6582  -21.2138  -14.2009 C   0  0  1  0  0  0  0  0  0  0  0  0
   20.5392  -21.6306  -12.7474 C   0  0  0  0  0  0  0  0  0  0  0  0
   20.8142  -20.2559  -11.6204 S   0  0  0  0  0  0  0  0  0  0  0  0
   19.3673  -20.7025  -14.7274 C   0  0  0  0  0  0  0  0  0  0  0  0
   19.1451  -19.4448  -14.7808 O   0  0  0  0  0  0  0  0  0  0  0  0
   16.6232  -23.2648  -16.8014 C   0  0  0  0  0  0  0  0  0  0  0  0
   16.8249  -21.7971  -17.0397 C   0  0  1  0  0  0  0  0  0  0  0  0
   15.5369  -21.2155  -17.6070 C   0  0  0  0  0  0  0  0  0  0  0  0
   17.1470  -21.1380  -15.6923 C   0  0  2  0  0  0  0  0  0  0  0  0
   18.3933  -21.6411  -15.1669 N   0  0  0  0  0  0  0  0  0  0  0  0
   16.0458  -21.5105  -14.7805 C   0  0  0  0  0  0  0  0  0  0  0  0
   14.8606  -20.8047  -14.8525 O   0  0  0  0  0  0  0  0  0  0  0  0
   16.1189  -22.4367  -13.9362 O   0  0  0  0  0  0  0  0  0  0  0  0
  2 10  1  0
  2  1  1  6
  3  2  1  0
  4  3  1  0
  5  4  2  0
  6  5  1  0
  7  8  1  0
  7  6  2  0
  8  9  2  0
  9  4  1  0
 10 11  2  0
 12 10  1  0
 12 13  1  0
 13 14  1  1
 14 15  1  0
 16 17  2  0
 16 13  1  0
 19 18  1  1
 19 20  1  0
 19 21  1  0
 21 22  1  1
 22 16  1  0
 23 24  1  0
 23 21  1  0
 25 23  2  0
M  END
$$$$
