FCV.pdb
     RDKit          3D

 25 25  0  0  1  0  0  0  0  0999 V2000
   22.6576  -21.6682  -13.7976 N   0  0  0  0  0  0  0  0  0  0  0  0
   23.5913  -20.5926  -13.4116 C   0  0  1  0  0  0  0  0  0  0  0  0
   22.7858  -19.4001  -12.9772 C   0  0  0  0  0  0  0  0  0  0  0  0
   22.3970  -18.5939  -14.1472 C   0  0  0  0  0  0  0  0  0  0  0  0
   21.0520  -18.4826  -14.4614 C   0  0  0  0  0  0  0  0  0  0  0  0
   20.6308  -17.7315  -15.5406 C   0  0  0  0  0  0  0  0  0  0  0  0
   21.5950  -17.1039  -16.2840 C   0  0  0  0  0  0  0  0  0  0  0  0
   22.9468  -17.1896  -16.0039 C   0  0  0  0  0  0  0  0  0  0  0  0
   23.3493  -17.9532  -14.9099 C   0  0  0  0  0  0  0  0  0  0  0  0
   24.5382  -21.0873  -12.3875 C   0  0  0  0  0  0  0  0  0  0  0  0
   24.2109  -21.8746  -11.4665 O   0  0  0  0  0  0  0  0  0  0  0  0
   25.9147  -20.6790  -12.3989 N   0  0  0  0  0  0  0  0  0  0  0  0
   26.8590  -21.1328  -11.4149 C   0  0  1  0  0  0  0  0  0  0  0  0
   28.2519  -21.1253  -12.0151 C   0  0  0  0  0  0  0  0  0  0  0  0
   29.5046  -21.6463  -10.8341 S   0  0  0  0  0  0  0  0  0  0  0  0
   26.7976  -20.3215  -10.1727 C   0  0  0  0  0  0  0  0  0  0  0  0
   26.6621  -19.0520  -10.2373 O   0  0  0  0  0  0  0  0  0  0  0  0
   26.8757  -20.1853   -5.2671 C   0  0  0  0  0  0  0  0  0  0  0  0
   26.7681  -21.0666   -6.4768 C   0  0  1  0  0  0  0  0  0  0  0  0
   25.3870  -21.7079   -6.4896 C   0  0  0  0  0  0  0  0  0  0  0  0
   26.9476  -20.1874   -7.7213 C   0  0  2  0  0  0  0  0  0  0  0  0
   26.8928  -20.9886   -8.9203 N   0  0  0  0  0  0  0  0  0  0  0  0
   28.2877  -19.5770   -7.6016 C   0  0  0  0  0  0  0  0  0  0  0  0
   28.4070  -18.3679   -6.9443 O   0  0  0  0  0  0  0  0  0  0  0  0
   29.3354  -20.0919   -8.0635 O   0  0  0  0  0  0  0  0  0  0  0  0
  2 10  1  0
  2  1  1  1
  3  2  1  0
  4  3  1  0
  5  4  2  0
  6  5  1  0
  7  8  1  0
  7  6  2  0
  8  9  2  0
  9  4  1  0
 10 11  2  0
 12 10  1  0
 12 13  1  0
 13 14  1  6
 14 15  1  0
 16 17  2  0
 16 13  1  0
 19 18  1  1
 19 20  1  0
 19 21  1  0
 21 22  1  6
 22 16  1  0
 23 24  1  0
 23 21  1  0
 25 23  2  0
M  END
$$$$
