LAK.pdb
     RDKit          3D

 23 22  0  0  1  0  0  0  0  0999 V2000
   21.4877  -15.3430  -20.8890 C   0  0  0  0  0  0  0  0  0  0  0  0
   20.0973  -15.1428  -20.3700 C   0  0  2  0  0  0  0  0  0  0  0  0
   19.0764  -14.9109  -21.4536 C   0  0  0  0  0  0  0  0  0  0  0  0
   20.1237  -14.0165  -19.3595 C   0  0  0  0  0  0  0  0  0  0  0  0
   20.8851  -14.5060  -18.1469 C   0  0  2  0  0  0  0  0  0  0  0  0
   20.2534  -15.6951  -17.6377 N   0  0  0  0  0  0  0  0  0  0  0  0
   20.9598  -13.4370  -17.0979 C   0  0  0  0  0  0  0  0  0  0  0  0
   19.9504  -12.7915  -16.7387 O   0  0  0  0  0  0  0  0  0  0  0  0
   23.8838  -12.1001  -15.0400 C   0  0  0  0  0  0  0  0  0  0  0  0
   22.4439  -12.1176  -15.5467 C   0  0  2  0  0  0  0  0  0  0  0  0
   22.2143  -13.1540  -16.4989 N   0  0  0  0  0  0  0  0  0  0  0  0
   22.1834  -10.7575  -16.1092 C   0  0  0  0  0  0  0  0  0  0  0  0
   22.5522  -10.4916  -17.2820 O   0  0  0  0  0  0  0  0  0  0  0  0
   21.5366   -9.7413  -15.3839 N   0  0  0  0  0  0  0  0  0  0  0  0
   21.2718   -8.4097  -15.8934 C   0  0  1  0  0  0  0  0  0  0  0  0
   19.8466   -8.4035  -16.3737 C   0  0  0  0  0  0  0  0  0  0  0  0
   19.3567   -7.1030  -16.8786 C   0  0  0  0  0  0  0  0  0  0  0  0
   17.9626   -7.0404  -17.3802 C   0  0  0  0  0  0  0  0  0  0  0  0
   17.5365   -5.7149  -17.9485 C   0  0  0  0  0  0  0  0  0  0  0  0
   16.2709   -5.7766  -18.6410 N   0  0  0  0  0  0  0  0  0  0  0  0
   21.5397   -7.4421  -14.8328 C   0  0  0  0  0  0  0  0  0  0  0  0
   21.8378   -6.1034  -15.0494 O   0  0  0  0  0  0  0  0  0  0  0  0
   21.5080   -7.8051  -13.6309 O   0  0  0  0  0  0  0  0  0  0  0  0
  2  1  1  6
  2  3  1  0
  4  2  1  0
  5  4  1  0
  5  7  1  0
  5  6  1  1
  7  8  2  0
  7 11  1  0
 10  9  1  6
 11 10  1  0
 12 10  1  0
 12 14  1  0
 13 12  2  0
 15 14  1  0
 15 21  1  0
 15 16  1  1
 17 18  1  0
 17 16  1  0
 19 18  1  0
 20 19  1  0
 21 22  1  0
 23 21  2  0
M  END
$$$$
