LAK.pdb
     RDKit          3D

 23 22  0  0  1  0  0  0  0  0999 V2000
   25.4560  -11.5293  -16.7921 C   0  0  0  0  0  0  0  0  0  0  0  0
   26.1249  -10.3725  -16.1162 C   0  0  2  0  0  0  0  0  0  0  0  0
   27.4753  -10.7094  -15.5391 C   0  0  0  0  0  0  0  0  0  0  0  0
   25.1793   -9.8195  -15.0719 C   0  0  0  0  0  0  0  0  0  0  0  0
   23.9280   -9.3562  -15.7856 C   0  0  2  0  0  0  0  0  0  0  0  0
   24.2994   -8.6159  -16.9629 N   0  0  0  0  0  0  0  0  0  0  0  0
   23.0684   -8.5332  -14.8731 C   0  0  0  0  0  0  0  0  0  0  0  0
   22.5915   -8.9997  -13.8150 O   0  0  0  0  0  0  0  0  0  0  0  0
   22.4878   -4.8431  -14.5624 C   0  0  0  0  0  0  0  0  0  0  0  0
   22.0093   -6.2877  -14.4424 C   0  0  2  0  0  0  0  0  0  0  0  0
   22.7915   -7.1872  -15.2252 N   0  0  0  0  0  0  0  0  0  0  0  0
   20.5696   -6.2848  -14.8443 C   0  0  0  0  0  0  0  0  0  0  0  0
   19.7469   -5.5899  -14.1944 O   0  0  0  0  0  0  0  0  0  0  0  0
   20.0775   -7.0309  -15.9297 N   0  0  0  0  0  0  0  0  0  0  0  0
   18.6880   -7.0599  -16.3437 C   0  0  1  0  0  0  0  0  0  0  0  0
   18.6404   -6.5149  -17.7446 C   0  0  0  0  0  0  0  0  0  0  0  0
   17.7614   -5.3414  -17.9355 C   0  0  0  0  0  0  0  0  0  0  0  0
   17.6692   -4.7650  -19.2987 C   0  0  0  0  0  0  0  0  0  0  0  0
   16.8667   -3.4985  -19.4146 C   0  0  0  0  0  0  0  0  0  0  0  0
   16.7791   -3.0061  -20.7693 N   0  0  0  0  0  0  0  0  0  0  0  0
   18.1948   -8.4297  -16.2279 C   0  0  0  0  0  0  0  0  0  0  0  0
   19.0057   -9.5566  -16.2130 O   0  0  0  0  0  0  0  0  0  0  0  0
   16.9611   -8.6455  -16.1334 O   0  0  0  0  0  0  0  0  0  0  0  0
  2  1  1  1
  2  3  1  0
  4  2  1  0
  5  4  1  0
  5  7  1  0
  5  6  1  6
  7  8  2  0
  7 11  1  0
 10  9  1  6
 11 10  1  0
 12 10  1  0
 12 14  1  0
 13 12  2  0
 15 14  1  0
 15 21  1  0
 15 16  1  6
 17 18  1  0
 17 16  1  0
 19 18  1  0
 20 19  1  0
 21 22  1  0
 23 21  2  0
M  END
$$$$
