LAK.pdb
     RDKit          3D

 23 22  0  0  1  0  0  0  0  0999 V2000
   17.1693  -14.2236  -17.8613 C   0  0  0  0  0  0  0  0  0  0  0  0
   18.4469  -14.7100  -17.2498 C   0  0  2  0  0  0  0  0  0  0  0  0
   18.3575  -16.1094  -16.6986 C   0  0  0  0  0  0  0  0  0  0  0  0
   18.8840  -13.7099  -16.2014 C   0  0  0  0  0  0  0  0  0  0  0  0
   18.9696  -12.3542  -16.8682 C   0  0  2  0  0  0  0  0  0  0  0  0
   20.0521  -12.3594  -17.8172 N   0  0  0  0  0  0  0  0  0  0  0  0
   19.1447  -11.2692  -15.8479 C   0  0  0  0  0  0  0  0  0  0  0  0
   18.3572  -11.1330  -14.8858 O   0  0  0  0  0  0  0  0  0  0  0  0
   21.8121   -8.5749  -15.4279 C   0  0  0  0  0  0  0  0  0  0  0  0
   20.4712   -9.2463  -15.1425 C   0  0  2  0  0  0  0  0  0  0  0  0
   20.2372  -10.3743  -15.9830 N   0  0  0  0  0  0  0  0  0  0  0  0
   19.4307   -8.1858  -15.3073 C   0  0  0  0  0  0  0  0  0  0  0  0
   18.8751   -8.0322  -16.4252 O   0  0  0  0  0  0  0  0  0  0  0  0
   19.0331   -7.3358  -14.2602 N   0  0  0  0  0  0  0  0  0  0  0  0
   17.9968   -6.3272  -14.3696 C   0  0  1  0  0  0  0  0  0  0  0  0
   17.4950   -6.0666  -12.9760 C   0  0  0  0  0  0  0  0  0  0  0  0
   16.7794   -7.1945  -12.3419 C   0  0  0  0  0  0  0  0  0  0  0  0
   16.2486   -6.9900  -10.9724 C   0  0  0  0  0  0  0  0  0  0  0  0
   15.4197   -8.1180  -10.4229 C   0  0  0  0  0  0  0  0  0  0  0  0
   15.8246   -8.5244   -9.0977 N   0  0  0  0  0  0  0  0  0  0  0  0
   18.5597   -5.1483  -15.0226 C   0  0  0  0  0  0  0  0  0  0  0  0
   17.8098   -4.1848  -15.6837 O   0  0  0  0  0  0  0  0  0  0  0  0
   19.8008   -4.9565  -15.0077 O   0  0  0  0  0  0  0  0  0  0  0  0
  2  1  1  1
  2  3  1  0
  4  2  1  0
  5  4  1  0
  5  7  1  0
  5  6  1  6
  7  8  2  0
  7 11  1  0
 10  9  1  6
 11 10  1  0
 12 10  1  0
 12 14  1  0
 13 12  2  0
 15 14  1  0
 15 21  1  0
 15 16  1  1
 17 18  1  0
 17 16  1  0
 19 18  1  0
 20 19  1  0
 21 22  1  0
 23 21  2  0
M  END
$$$$
