LAK.pdb
     RDKit          3D

 23 22  0  0  1  0  0  0  0  0999 V2000
   28.9220  -18.1063  -15.1501 C   0  0  0  0  0  0  0  0  0  0  0  0
   27.9398  -18.5689  -16.1818 C   0  0  2  0  0  0  0  0  0  0  0  0
   27.4223  -17.4607  -17.0617 C   0  0  0  0  0  0  0  0  0  0  0  0
   26.8226  -19.3083  -15.4779 C   0  0  0  0  0  0  0  0  0  0  0  0
   27.4484  -20.4274  -14.6742 C   0  0  2  0  0  0  0  0  0  0  0  0
   28.0500  -21.3780  -15.5723 N   0  0  0  0  0  0  0  0  0  0  0  0
   26.4293  -21.0824  -13.7903 C   0  0  0  0  0  0  0  0  0  0  0  0
   25.5492  -21.8443  -14.2479 O   0  0  0  0  0  0  0  0  0  0  0  0
   25.7655  -20.7637  -10.0445 C   0  0  0  0  0  0  0  0  0  0  0  0
   25.4055  -21.1062  -11.4879 C   0  0  2  0  0  0  0  0  0  0  0  0
   26.4695  -20.8268  -12.3954 N   0  0  0  0  0  0  0  0  0  0  0  0
   24.1672  -20.3309  -11.8039 C   0  0  0  0  0  0  0  0  0  0  0  0
   24.2666  -19.1470  -12.2171 O   0  0  0  0  0  0  0  0  0  0  0  0
   22.8741  -20.8643  -11.6611 N   0  0  0  0  0  0  0  0  0  0  0  0
   21.6929  -20.3425  -12.3211 C   0  0  1  0  0  0  0  0  0  0  0  0
   21.9539  -20.4145  -13.8004 C   0  0  0  0  0  0  0  0  0  0  0  0
   20.8416  -19.9567  -14.6603 C   0  0  0  0  0  0  0  0  0  0  0  0
   21.0370  -20.0180  -16.1291 C   0  0  0  0  0  0  0  0  0  0  0  0
   19.8763  -19.5420  -16.9583 C   0  0  0  0  0  0  0  0  0  0  0  0
   20.1194  -19.6354  -18.3786 N   0  0  0  0  0  0  0  0  0  0  0  0
   20.5347  -21.1203  -11.8891 C   0  0  0  0  0  0  0  0  0  0  0  0
   19.2881  -20.5789  -11.6051 O   0  0  0  0  0  0  0  0  0  0  0  0
   20.6313  -22.3651  -11.7534 O   0  0  0  0  0  0  0  0  0  0  0  0
  2  1  1  1
  2  3  1  0
  4  2  1  0
  5  4  1  0
  5  7  1  0
  5  6  1  6
  7  8  2  0
  7 11  1  0
 10  9  1  1
 11 10  1  0
 12 10  1  0
 12 14  1  0
 13 12  2  0
 15 14  1  0
 15 21  1  0
 15 16  1  6
 17 18  1  0
 17 16  1  0
 19 18  1  0
 20 19  1  0
 21 22  1  0
 23 21  2  0
M  END
$$$$
