LAK.pdb
     RDKit          3D

 23 22  0  0  1  0  0  0  0  0999 V2000
   21.5079  -11.8472  -21.0590 C   0  0  0  0  0  0  0  0  0  0  0  0
   20.0706  -11.6730  -20.6763 C   0  0  2  0  0  0  0  0  0  0  0  0
   19.2474  -10.9726  -21.7260 C   0  0  0  0  0  0  0  0  0  0  0  0
   20.0161  -10.9637  -19.3405 C   0  0  0  0  0  0  0  0  0  0  0  0
   20.8199  -11.7821  -18.3536 C   0  0  2  0  0  0  0  0  0  0  0  0
   20.1072  -12.9958  -18.0516 N   0  0  0  0  0  0  0  0  0  0  0  0
   21.1009  -10.9917  -17.1105 C   0  0  0  0  0  0  0  0  0  0  0  0
   20.1904  -10.4223  -16.4692 O   0  0  0  0  0  0  0  0  0  0  0  0
   24.3301  -10.3350  -15.1887 C   0  0  0  0  0  0  0  0  0  0  0  0
   22.8579  -10.1186  -15.5294 C   0  0  2  0  0  0  0  0  0  0  0  0
   22.4400  -10.8903  -16.6534 N   0  0  0  0  0  0  0  0  0  0  0  0
   22.6932   -8.6498  -15.7523 C   0  0  0  0  0  0  0  0  0  0  0  0
   22.7972   -8.1848  -16.9164 O   0  0  0  0  0  0  0  0  0  0  0  0
   22.4233   -7.7442  -14.7111 N   0  0  0  0  0  0  0  0  0  0  0  0
   22.2088   -6.3218  -14.8947 C   0  0  1  0  0  0  0  0  0  0  0  0
   20.9033   -6.1699  -15.6259 C   0  0  0  0  0  0  0  0  0  0  0  0
   20.4311   -4.7786  -15.7915 C   0  0  0  0  0  0  0  0  0  0  0  0
   19.1554   -4.5666  -16.5172 C   0  0  0  0  0  0  0  0  0  0  0  0
   18.7064   -3.1362  -16.6356 C   0  0  0  0  0  0  0  0  0  0  0  0
   17.4739   -2.9892  -17.3734 N   0  0  0  0  0  0  0  0  0  0  0  0
   22.2293   -5.6737  -13.5861 C   0  0  0  0  0  0  0  0  0  0  0  0
   22.5619   -4.3422  -13.3754 O   0  0  0  0  0  0  0  0  0  0  0  0
   21.9326   -6.3300  -12.5572 O   0  0  0  0  0  0  0  0  0  0  0  0
  2  1  1  6
  2  3  1  0
  4  2  1  0
  5  4  1  0
  5  7  1  0
  5  6  1  1
  7  8  2  0
  7 11  1  0
 10  9  1  6
 11 10  1  0
 12 10  1  0
 12 14  1  0
 13 12  2  0
 15 14  1  0
 15 21  1  0
 15 16  1  1
 17 18  1  0
 17 16  1  0
 19 18  1  0
 20 19  1  0
 21 22  1  0
 23 21  2  0
M  END
$$$$
