LAK.pdb
     RDKit          3D

 23 22  0  0  1  0  0  0  0  0999 V2000
   30.8194  -19.8208  -12.2257 C   0  0  0  0  0  0  0  0  0  0  0  0
   30.0629  -20.7354  -13.1388 C   0  0  2  0  0  0  0  0  0  0  0  0
   29.6259  -20.0797  -14.4230 C   0  0  0  0  0  0  0  0  0  0  0  0
   28.8972  -21.3186  -12.3698 C   0  0  0  0  0  0  0  0  0  0  0  0
   27.6716  -20.4947  -12.7000 C   0  0  2  0  0  0  0  0  0  0  0  0
   27.8044  -19.1886  -12.1094 N   0  0  0  0  0  0  0  0  0  0  0  0
   26.4251  -21.1819  -12.2281 C   0  0  0  0  0  0  0  0  0  0  0  0
   26.0892  -22.3086  -12.6551 O   0  0  0  0  0  0  0  0  0  0  0  0
   24.1341  -20.6919   -9.3122 C   0  0  0  0  0  0  0  0  0  0  0  0
   24.3677  -21.0389  -10.7803 C   0  0  2  0  0  0  0  0  0  0  0  0
   25.6070  -20.5305  -11.2695 N   0  0  0  0  0  0  0  0  0  0  0  0
   23.1929  -20.4967  -11.5288 C   0  0  0  0  0  0  0  0  0  0  0  0
   22.6745  -19.4101  -11.1644 O   0  0  0  0  0  0  0  0  0  0  0  0
   22.6264  -21.1486  -12.6384 N   0  0  0  0  0  0  0  0  0  0  0  0
   21.6241  -20.5660  -13.5097 C   0  0  1  0  0  0  0  0  0  0  0  0
   22.1665  -20.6454  -14.9102 C   0  0  0  0  0  0  0  0  0  0  0  0
   22.9643  -19.4789  -15.3448 C   0  0  0  0  0  0  0  0  0  0  0  0
   23.4934  -19.4846  -16.7301 C   0  0  0  0  0  0  0  0  0  0  0  0
   24.2711  -18.2620  -17.1325 C   0  0  0  0  0  0  0  0  0  0  0  0
   24.7474  -18.3171  -18.4946 N   0  0  0  0  0  0  0  0  0  0  0  0
   20.3676  -21.2868  -13.3234 C   0  0  0  0  0  0  0  0  0  0  0  0
   19.1137  -20.6906  -13.3251 O   0  0  0  0  0  0  0  0  0  0  0  0
   20.3788  -22.5302  -13.1467 O   0  0  0  0  0  0  0  0  0  0  0  0
  2  1  1  1
  2  3  1  0
  4  2  1  0
  5  4  1  0
  5  7  1  0
  5  6  1  1
  7  8  2  0
  7 11  1  0
 10  9  1  1
 11 10  1  0
 12 10  1  0
 12 14  1  0
 13 12  2  0
 15 14  1  0
 15 21  1  0
 15 16  1  6
 17 18  1  0
 17 16  1  0
 19 18  1  0
 20 19  1  0
 21 22  1  0
 23 21  2  0
M  END
$$$$
