LAK.pdb
     RDKit          3D

 23 22  0  0  1  0  0  0  0  0999 V2000
   18.6687  -23.4941   -9.8032 C   0  0  0  0  0  0  0  0  0  0  0  0
   18.5282  -24.4365  -10.9586 C   0  0  2  0  0  0  0  0  0  0  0  0
   18.9462  -25.8485  -10.6398 C   0  0  0  0  0  0  0  0  0  0  0  0
   19.2923  -23.8661  -12.1339 C   0  0  0  0  0  0  0  0  0  0  0  0
   18.7085  -22.5048  -12.4435 C   0  0  2  0  0  0  0  0  0  0  0  0
   17.2908  -22.6338  -12.6576 N   0  0  0  0  0  0  0  0  0  0  0  0
   19.3858  -21.8932  -13.6334 C   0  0  0  0  0  0  0  0  0  0  0  0
   19.3435  -22.4257  -14.7644 O   0  0  0  0  0  0  0  0  0  0  0  0
   21.6287  -18.8226  -13.9526 C   0  0  0  0  0  0  0  0  0  0  0  0
   20.8924  -20.0552  -14.4710 C   0  0  2  0  0  0  0  0  0  0  0  0
   20.0933  -20.6751  -13.4656 N   0  0  0  0  0  0  0  0  0  0  0  0
   21.9426  -20.9716  -15.0110 C   0  0  0  0  0  0  0  0  0  0  0  0
   22.6126  -21.6812  -14.2175 O   0  0  0  0  0  0  0  0  0  0  0  0
   22.2264  -21.0843  -16.3835 N   0  0  0  0  0  0  0  0  0  0  0  0
   23.1860  -22.0123  -16.9503 C   0  0  1  0  0  0  0  0  0  0  0  0
   22.7773  -23.3883  -16.5016 C   0  0  0  0  0  0  0  0  0  0  0  0
   23.5587  -24.5000  -17.0844 C   0  0  0  0  0  0  0  0  0  0  0  0
   23.1496  -25.8832  -16.7405 C   0  0  0  0  0  0  0  0  0  0  0  0
   23.9120  -26.9771  -17.4360 C   0  0  0  0  0  0  0  0  0  0  0  0
   23.3675  -28.2915  -17.1892 N   0  0  0  0  0  0  0  0  0  0  0  0
   23.1964  -21.8451  -18.4012 C   0  0  0  0  0  0  0  0  0  0  0  0
   24.1952  -22.3234  -19.2386 O   0  0  0  0  0  0  0  0  0  0  0  0
   22.2572  -21.2337  -18.9681 O   0  0  0  0  0  0  0  0  0  0  0  0
  2  1  1  1
  2  3  1  0
  4  2  1  0
  5  4  1  0
  5  7  1  0
  5  6  1  6
  7  8  2  0
  7 11  1  0
 10  9  1  1
 11 10  1  0
 12 10  1  0
 12 14  1  0
 13 12  2  0
 15 14  1  0
 15 21  1  0
 15 16  1  6
 17 18  1  0
 17 16  1  0
 19 18  1  0
 20 19  1  0
 21 22  1  0
 23 21  2  0
M  END
$$$$
