LAK.pdb
     RDKit          3D

 23 22  0  0  1  0  0  0  0  0999 V2000
   20.9959   -8.9455  -18.0214 C   0  0  0  0  0  0  0  0  0  0  0  0
   20.6417  -10.2715  -17.4223 C   0  0  2  0  0  0  0  0  0  0  0  0
   19.6339  -11.0482  -18.2292 C   0  0  0  0  0  0  0  0  0  0  0  0
   20.1803  -10.0432  -15.9992 C   0  0  0  0  0  0  0  0  0  0  0  0
   21.2901   -9.3201  -15.2676 C   0  0  2  0  0  0  0  0  0  0  0  0
   22.3838  -10.2295  -15.0459 N   0  0  0  0  0  0  0  0  0  0  0  0
   20.7899   -8.7445  -13.9764 C   0  0  0  0  0  0  0  0  0  0  0  0
   20.1761   -9.4392  -13.1366 O   0  0  0  0  0  0  0  0  0  0  0  0
   21.1320   -5.2655  -12.4485 C   0  0  0  0  0  0  0  0  0  0  0  0
   20.6056   -6.6966  -12.5198 C   0  0  2  0  0  0  0  0  0  0  0  0
   21.0225   -7.3717  -13.7048 N   0  0  0  0  0  0  0  0  0  0  0  0
   19.1179   -6.5993  -12.4116 C   0  0  0  0  0  0  0  0  0  0  0  0
   18.4290   -6.4618  -13.4549 O   0  0  0  0  0  0  0  0  0  0  0  0
   18.4357   -6.6543  -11.1834 N   0  0  0  0  0  0  0  0  0  0  0  0
   16.9996   -6.5178  -11.0347 C   0  0  1  0  0  0  0  0  0  0  0  0
   16.6233   -7.2374   -9.7689 C   0  0  0  0  0  0  0  0  0  0  0  0
   15.1871   -7.1917   -9.4204 C   0  0  0  0  0  0  0  0  0  0  0  0
   14.7561   -7.8899   -8.1851 C   0  0  0  0  0  0  0  0  0  0  0  0
   13.2959   -7.7676   -7.8467 C   0  0  0  0  0  0  0  0  0  0  0  0
   12.9141   -8.5520   -6.6961 N   0  0  0  0  0  0  0  0  0  0  0  0
   16.6642   -5.0964  -11.0257 C   0  0  0  0  0  0  0  0  0  0  0  0
   15.4919   -4.5639  -11.5453 O   0  0  0  0  0  0  0  0  0  0  0  0
   17.4629   -4.2674  -10.5235 O   0  0  0  0  0  0  0  0  0  0  0  0
  2  1  1  6
  2  3  1  0
  4  2  1  0
  5  4  1  0
  5  7  1  0
  5  6  1  1
  7  8  2  0
  7 11  1  0
 10  9  1  6
 11 10  1  0
 12 10  1  0
 12 14  1  0
 13 12  2  0
 15 14  1  0
 15 21  1  0
 15 16  1  1
 17 18  1  0
 17 16  1  0
 19 18  1  0
 20 19  1  0
 21 22  1  0
 23 21  2  0
M  END
$$$$
