LAK.pdb
     RDKit          3D

 23 22  0  0  1  0  0  0  0  0999 V2000
   22.8348  -21.2045  -18.2717 C   0  0  0  0  0  0  0  0  0  0  0  0
   23.6958  -20.1829  -17.5952 C   0  0  2  0  0  0  0  0  0  0  0  0
   25.1306  -20.2037  -18.0545 C   0  0  0  0  0  0  0  0  0  0  0  0
   23.5722  -20.3718  -16.0987 C   0  0  0  0  0  0  0  0  0  0  0  0
   22.0977  -20.3968  -15.7597 C   0  0  2  0  0  0  0  0  0  0  0  0
   21.4977  -19.1505  -16.1587 N   0  0  0  0  0  0  0  0  0  0  0  0
   21.8919  -20.6570  -14.2973 C   0  0  0  0  0  0  0  0  0  0  0  0
   22.4725  -21.5928  -13.7042 O   0  0  0  0  0  0  0  0  0  0  0  0
   20.1063  -18.6824  -11.5895 C   0  0  0  0  0  0  0  0  0  0  0  0
   20.7244  -19.9470  -12.1801 C   0  0  2  0  0  0  0  0  0  0  0  0
   21.0121  -19.8142  -13.5706 N   0  0  0  0  0  0  0  0  0  0  0  0
   19.7587  -21.0530  -11.9000 C   0  0  0  0  0  0  0  0  0  0  0  0
   18.9794  -21.4393  -12.8086 O   0  0  0  0  0  0  0  0  0  0  0  0
   19.6738  -21.6959  -10.6524 N   0  0  0  0  0  0  0  0  0  0  0  0
   18.8216  -22.8353  -10.3719 C   0  0  1  0  0  0  0  0  0  0  0  0
   19.2123  -23.3460   -9.0124 C   0  0  0  0  0  0  0  0  0  0  0  0
   18.4480  -24.5185   -8.5354 C   0  0  0  0  0  0  0  0  0  0  0  0
   18.7796  -25.0567   -7.1940 C   0  0  0  0  0  0  0  0  0  0  0  0
   17.9887  -26.2617   -6.7649 C   0  0  0  0  0  0  0  0  0  0  0  0
   18.3440  -26.7317   -5.4466 N   0  0  0  0  0  0  0  0  0  0  0  0
   17.4276  -22.4091  -10.4624 C   0  0  0  0  0  0  0  0  0  0  0  0
   16.3851  -23.2217  -10.8877 O   0  0  0  0  0  0  0  0  0  0  0  0
   17.1087  -21.2370  -10.1432 O   0  0  0  0  0  0  0  0  0  0  0  0
  2  1  1  6
  2  3  1  0
  4  2  1  0
  5  4  1  0
  5  7  1  0
  5  6  1  1
  7  8  2  0
  7 11  1  0
 10  9  1  6
 11 10  1  0
 12 10  1  0
 12 14  1  0
 13 12  2  0
 15 14  1  0
 15 21  1  0
 15 16  1  1
 17 18  1  0
 17 16  1  0
 19 18  1  0
 20 19  1  0
 21 22  1  0
 23 21  2  0
M  END
$$$$
