LAK.pdb
     RDKit          3D

 23 22  0  0  1  0  0  0  0  0999 V2000
   20.9177  -15.3383  -20.0293 C   0  0  0  0  0  0  0  0  0  0  0  0
   21.7537  -16.0078  -18.9827 C   0  0  2  0  0  0  0  0  0  0  0  0
   21.3318  -17.4239  -18.6883 C   0  0  0  0  0  0  0  0  0  0  0  0
   21.7485  -15.1407  -17.7424 C   0  0  0  0  0  0  0  0  0  0  0  0
   22.2626  -13.7731  -18.1366 C   0  0  2  0  0  0  0  0  0  0  0  0
   23.6233  -13.8905  -18.5917 N   0  0  0  0  0  0  0  0  0  0  0  0
   22.1523  -12.8122  -16.9907 C   0  0  0  0  0  0  0  0  0  0  0  0
   21.0823  -12.6516  -16.3631 O   0  0  0  0  0  0  0  0  0  0  0  0
   24.7414  -10.6294  -15.2412 C   0  0  0  0  0  0  0  0  0  0  0  0
   23.3243  -11.0907  -15.5721 C   0  0  2  0  0  0  0  0  0  0  0  0
   23.2981  -12.0664  -16.6117 N   0  0  0  0  0  0  0  0  0  0  0  0
   22.5568   -9.8580  -15.9265 C   0  0  0  0  0  0  0  0  0  0  0  0
   22.7018   -9.3445  -17.0655 O   0  0  0  0  0  0  0  0  0  0  0  0
   21.6655   -9.2308  -15.0381 N   0  0  0  0  0  0  0  0  0  0  0  0
   20.8550   -8.0743  -15.3680 C   0  0  1  0  0  0  0  0  0  0  0  0
   19.4250   -8.4546  -15.0990 C   0  0  0  0  0  0  0  0  0  0  0  0
   18.8958   -9.5520  -15.9369 C   0  0  0  0  0  0  0  0  0  0  0  0
   17.5113  -10.0129  -15.6732 C   0  0  0  0  0  0  0  0  0  0  0  0
   16.9843  -11.0574  -16.6182 C   0  0  0  0  0  0  0  0  0  0  0  0
   15.6546  -11.5076  -16.2797 N   0  0  0  0  0  0  0  0  0  0  0  0
   21.3202   -6.9374  -14.5779 C   0  0  0  0  0  0  0  0  0  0  0  0
   22.2610   -7.0221  -13.5603 O   0  0  0  0  0  0  0  0  0  0  0  0
   20.8633   -5.7893  -14.8027 O   0  0  0  0  0  0  0  0  0  0  0  0
  2  1  1  6
  2  3  1  0
  4  2  1  0
  5  4  1  0
  5  7  1  0
  5  6  1  1
  7  8  2  0
  7 11  1  0
 10  9  1  6
 11 10  1  0
 12 10  1  0
 12 14  1  0
 13 12  2  0
 15 14  1  0
 15 21  1  0
 15 16  1  1
 17 18  1  0
 17 16  1  0
 19 18  1  0
 20 19  1  0
 21 22  1  0
 23 21  2  0
M  END
$$$$
