LAK.pdb
     RDKit          3D

 23 22  0  0  1  0  0  0  0  0999 V2000
   20.3473  -17.5672  -15.4256 C   0  0  0  0  0  0  0  0  0  0  0  0
   20.3231  -18.8387  -16.2165 C   0  0  2  0  0  0  0  0  0  0  0  0
   19.1796  -18.9194  -17.1942 C   0  0  0  0  0  0  0  0  0  0  0  0
   20.3301  -20.0018  -15.2483 C   0  0  0  0  0  0  0  0  0  0  0  0
   21.5487  -19.8548  -14.3634 C   0  0  2  0  0  0  0  0  0  0  0  0
   22.7335  -20.1074  -15.1411 N   0  0  0  0  0  0  0  0  0  0  0  0
   21.4645  -20.7768  -13.1837 C   0  0  0  0  0  0  0  0  0  0  0  0
   21.7037  -22.0005  -13.2827 O   0  0  0  0  0  0  0  0  0  0  0  0
   20.8334  -20.1135   -9.4847 C   0  0  0  0  0  0  0  0  0  0  0  0
   20.9907  -20.9980  -10.7188 C   0  0  2  0  0  0  0  0  0  0  0  0
   21.1028  -20.2399  -11.9214 N   0  0  0  0  0  0  0  0  0  0  0  0
   19.8090  -21.9134  -10.7289 C   0  0  0  0  0  0  0  0  0  0  0  0
   18.7731  -21.5799  -11.3595 O   0  0  0  0  0  0  0  0  0  0  0  0
   19.7939  -23.1494  -10.0587 N   0  0  0  0  0  0  0  0  0  0  0  0
   18.6587  -24.0512  -10.0245 C   0  0  1  0  0  0  0  0  0  0  0  0
   19.1933  -25.4095   -9.6626 C   0  0  0  0  0  0  0  0  0  0  0  0
   18.1849  -26.4892   -9.6036 C   0  0  0  0  0  0  0  0  0  0  0  0
   18.6401  -27.8333   -9.1731 C   0  0  0  0  0  0  0  0  0  0  0  0
   17.6112  -28.9263   -9.2633 C   0  0  0  0  0  0  0  0  0  0  0  0
   18.0622  -30.1761   -8.6979 N   0  0  0  0  0  0  0  0  0  0  0  0
   17.6785  -23.5321   -9.0743 C   0  0  0  0  0  0  0  0  0  0  0  0
   16.3058  -23.7051   -9.1904 O   0  0  0  0  0  0  0  0  0  0  0  0
   18.0621  -22.8802   -8.0717 O   0  0  0  0  0  0  0  0  0  0  0  0
  2  1  1  1
  2  3  1  0
  4  2  1  0
  5  4  1  0
  5  7  1  0
  5  6  1  6
  7  8  2  0
  7 11  1  0
 10  9  1  1
 11 10  1  0
 12 10  1  0
 12 14  1  0
 13 12  2  0
 15 14  1  0
 15 21  1  0
 15 16  1  1
 17 18  1  0
 17 16  1  0
 19 18  1  0
 20 19  1  0
 21 22  1  0
 23 21  2  0
M  END
$$$$
