EQN.pdb
     RDKit          3D

 27 26  0  0  1  0  0  0  0  0999 V2000
    9.7052  -15.3390   19.3661 N   0  0  0  0  0  0  0  0  0  0  0  0
    8.5992  -14.3554   19.3666 C   0  0  1  0  0  0  0  0  0  0  0  0
    7.7919  -14.6843   18.1572 C   0  0  0  0  0  0  0  0  0  0  0  0
    8.3752  -15.6791   17.2208 C   0  0  0  0  0  0  0  0  0  0  0  0
    7.3720  -15.9069   16.1186 C   0  0  0  0  0  0  0  0  0  0  0  0
    6.3991  -16.6806   16.2920 O   0  0  0  0  0  0  0  0  0  0  0  0
    7.9121  -14.4670   20.6494 C   0  0  0  0  0  0  0  0  0  0  0  0
    6.8141  -13.8420   20.8391 O   0  0  0  0  0  0  0  0  0  0  0  0
    7.4933  -15.2744   14.8922 O   0  0  0  0  0  0  0  0  0  0  0  0
    3.9641  -17.3071   22.6646 N   0  0  0  0  0  0  0  0  0  0  0  0
    5.1498  -18.0663   22.4841 C   0  0  0  0  0  0  0  0  0  0  0  0
    5.0477  -19.2924   22.2521 O   0  0  0  0  0  0  0  0  0  0  0  0
    6.4826  -17.4366   22.5655 C   0  0  0  0  0  0  0  0  0  0  0  0
    6.3206  -15.9672   22.7753 C   0  0  0  0  0  0  0  0  0  0  0  0
    7.6751  -15.2880   23.0188 C   0  0  2  0  0  0  0  0  0  0  0  0
    8.3745  -15.2403   21.7451 N   0  0  0  0  0  0  0  0  0  0  0  0
    8.4916  -16.1083   23.9488 C   0  0  0  0  0  0  0  0  0  0  0  0
    8.1326  -17.2705   24.3099 O   0  0  0  0  0  0  0  0  0  0  0  0
    8.1406  -12.9839   28.2554 N   0  0  0  0  0  0  0  0  0  0  0  0
    9.2032  -13.7440   27.6957 C   0  0  0  0  0  0  0  0  0  0  0  0
   10.1441  -14.0615   28.4420 O   0  0  0  0  0  0  0  0  0  0  0  0
    9.0975  -14.0951   26.2614 C   0  0  0  0  0  0  0  0  0  0  0  0
    9.8866  -15.3217   25.8991 C   0  0  2  0  0  0  0  0  0  0  0  0
    9.7270  -15.6483   24.4958 N   0  0  0  0  0  0  0  0  0  0  0  0
    9.5637  -16.4802   26.7712 C   0  0  0  0  0  0  0  0  0  0  0  0
    8.3262  -17.1073   26.7384 O   0  0  0  0  0  0  0  0  0  0  0  0
   10.4095  -16.9409   27.5809 O   0  0  0  0  0  0  0  0  0  0  0  0
  2  1  1  1
  2  7  1  0
  3  2  1  0
  3  4  1  0
  4  5  1  0
  5  9  1  0
  6  5  2  0
  7  8  2  0
 11 10  1  0
 11 13  1  0
 12 11  2  0
 14 13  1  0
 15 14  1  6
 15 17  1  0
 16  7  1  0
 16 15  1  0
 17 18  2  0
 19 20  1  0
 20 21  2  0
 20 22  1  0
 23 22  1  1
 23 25  1  0
 24 17  1  0
 24 23  1  0
 25 27  2  0
 25 26  1  0
M  END
$$$$
