EQN.pdb
     RDKit          3D

 27 26  0  0  1  0  0  0  0  0999 V2000
   10.1564  -18.0350   19.4452 N   0  0  0  0  0  0  0  0  0  0  0  0
   10.6212  -18.4236   20.7956 C   0  0  1  0  0  0  0  0  0  0  0  0
   11.9226  -19.1150   20.5699 C   0  0  0  0  0  0  0  0  0  0  0  0
   12.7220  -18.6597   19.4036 C   0  0  0  0  0  0  0  0  0  0  0  0
   14.1327  -18.4290   19.8830 C   0  0  0  0  0  0  0  0  0  0  0  0
   14.6917  -19.2579   20.6417 O   0  0  0  0  0  0  0  0  0  0  0  0
   10.6678  -17.2133   21.6098 C   0  0  0  0  0  0  0  0  0  0  0  0
   11.7279  -16.5005   21.6293 O   0  0  0  0  0  0  0  0  0  0  0  0
   14.8477  -17.3048   19.5035 O   0  0  0  0  0  0  0  0  0  0  0  0
    7.0947  -16.5515   21.5865 N   0  0  0  0  0  0  0  0  0  0  0  0
    7.1210  -15.1499   21.3641 C   0  0  0  0  0  0  0  0  0  0  0  0
    6.5321  -14.6907   20.3591 O   0  0  0  0  0  0  0  0  0  0  0  0
    7.8243  -14.2402   22.2900 C   0  0  0  0  0  0  0  0  0  0  0  0
    8.2959  -15.0141   23.4766 C   0  0  0  0  0  0  0  0  0  0  0  0
    9.7120  -15.5628   23.2550 C   0  0  2  0  0  0  0  0  0  0  0  0
    9.5964  -16.7407   22.4107 N   0  0  0  0  0  0  0  0  0  0  0  0
   10.2948  -15.9947   24.5505 C   0  0  0  0  0  0  0  0  0  0  0  0
   11.0286  -15.2272   25.2451 O   0  0  0  0  0  0  0  0  0  0  0  0
   11.7449  -18.7042   28.6376 N   0  0  0  0  0  0  0  0  0  0  0  0
   10.5956  -19.3976   28.1703 C   0  0  0  0  0  0  0  0  0  0  0  0
   10.1786  -20.3512   28.8486 O   0  0  0  0  0  0  0  0  0  0  0  0
    9.9891  -18.9213   26.9066 C   0  0  0  0  0  0  0  0  0  0  0  0
   10.7225  -17.7539   26.3086 C   0  0  2  0  0  0  0  0  0  0  0  0
   10.0706  -17.2934   25.0985 N   0  0  0  0  0  0  0  0  0  0  0  0
   12.1606  -18.0471   26.0784 C   0  0  0  0  0  0  0  0  0  0  0  0
   13.1142  -17.8958   27.0750 O   0  0  0  0  0  0  0  0  0  0  0  0
   12.5718  -18.4479   24.9588 O   0  0  0  0  0  0  0  0  0  0  0  0
  2  1  1  6
  2  7  1  0
  3  2  1  0
  3  4  1  0
  4  5  1  0
  5  9  1  0
  6  5  2  0
  7  8  2  0
 11 10  1  0
 11 13  1  0
 12 11  2  0
 14 13  1  0
 15 14  1  1
 15 17  1  0
 16  7  1  0
 16 15  1  0
 17 18  2  0
 19 20  1  0
 20 21  2  0
 20 22  1  0
 23 22  1  6
 23 25  1  0
 24 17  1  0
 24 23  1  0
 25 27  2  0
 25 26  1  0
M  END
$$$$
