EQN.pdb
     RDKit          3D

 27 26  0  0  1  0  0  0  0  0999 V2000
   13.8437  -19.4900   14.5728 N   0  0  0  0  0  0  0  0  0  0  0  0
   14.5128  -19.4968   15.8930 C   0  0  1  0  0  0  0  0  0  0  0  0
   15.3143  -18.2401   15.9240 C   0  0  0  0  0  0  0  0  0  0  0  0
   16.5218  -18.2020   15.0597 C   0  0  0  0  0  0  0  0  0  0  0  0
   17.7013  -17.8810   15.9423 C   0  0  0  0  0  0  0  0  0  0  0  0
   18.6270  -18.7141   16.0971 O   0  0  0  0  0  0  0  0  0  0  0  0
   13.4750  -19.6240   16.9112 C   0  0  0  0  0  0  0  0  0  0  0  0
   12.2716  -19.2936   16.6374 O   0  0  0  0  0  0  0  0  0  0  0  0
   17.7973  -16.6671   16.6029 O   0  0  0  0  0  0  0  0  0  0  0  0
   10.4179  -23.0735   18.8009 N   0  0  0  0  0  0  0  0  0  0  0  0
   10.3389  -22.3089   19.9940 C   0  0  0  0  0  0  0  0  0  0  0  0
    9.2090  -21.9834   20.4244 O   0  0  0  0  0  0  0  0  0  0  0  0
   11.5552  -21.8986   20.7232 C   0  0  0  0  0  0  0  0  0  0  0  0
   12.6588  -21.6627   19.7456 C   0  0  0  0  0  0  0  0  0  0  0  0
   12.6238  -20.2273   19.2038 C   0  0  2  0  0  0  0  0  0  0  0  0
   13.6948  -20.1028   18.2284 N   0  0  0  0  0  0  0  0  0  0  0  0
   12.9020  -19.2663   20.3009 C   0  0  0  0  0  0  0  0  0  0  0  0
   14.0791  -19.0539   20.7243 O   0  0  0  0  0  0  0  0  0  0  0  0
   10.8578  -14.9790   23.7085 N   0  0  0  0  0  0  0  0  0  0  0  0
   11.0883  -16.3642   23.9281 C   0  0  0  0  0  0  0  0  0  0  0  0
   11.4589  -16.7176   25.0599 O   0  0  0  0  0  0  0  0  0  0  0  0
   10.8655  -17.2741   22.7817 C   0  0  0  0  0  0  0  0  0  0  0  0
   12.1345  -17.6243   22.0569 C   0  0  2  0  0  0  0  0  0  0  0  0
   11.8713  -18.5215   20.9491 N   0  0  0  0  0  0  0  0  0  0  0  0
   13.1743  -18.1688   22.9675 C   0  0  0  0  0  0  0  0  0  0  0  0
   14.2659  -17.4160   23.3766 O   0  0  0  0  0  0  0  0  0  0  0  0
   13.1031  -19.3459   23.4066 O   0  0  0  0  0  0  0  0  0  0  0  0
  2  1  1  6
  2  7  1  0
  3  2  1  0
  3  4  1  0
  4  5  1  0
  5  9  1  0
  6  5  2  0
  7  8  2  0
 11 10  1  0
 11 13  1  0
 12 11  2  0
 14 13  1  0
 15 14  1  1
 15 17  1  0
 16  7  1  0
 16 15  1  0
 17 18  2  0
 19 20  1  0
 20 21  2  0
 20 22  1  0
 23 22  1  1
 23 25  1  0
 24 17  1  0
 24 23  1  0
 25 27  2  0
 25 26  1  0
M  END
$$$$
