EQN.pdb
     RDKit          3D

 27 26  0  0  1  0  0  0  0  0999 V2000
   12.5282  -17.4566   21.0563 N   0  0  0  0  0  0  0  0  0  0  0  0
   12.6737  -16.2594   21.9144 C   0  0  1  0  0  0  0  0  0  0  0  0
   12.9110  -15.1336   20.9663 C   0  0  0  0  0  0  0  0  0  0  0  0
   12.0452  -15.0887   19.7600 C   0  0  0  0  0  0  0  0  0  0  0  0
   12.3595  -13.8111   19.0237 C   0  0  0  0  0  0  0  0  0  0  0  0
   13.5237  -13.5801   18.6160 O   0  0  0  0  0  0  0  0  0  0  0  0
   11.4751  -16.1630   22.7415 C   0  0  0  0  0  0  0  0  0  0  0  0
   11.3132  -15.1565   23.5115 O   0  0  0  0  0  0  0  0  0  0  0  0
   11.3806  -12.8623   18.7774 O   0  0  0  0  0  0  0  0  0  0  0  0
    6.2381  -19.5270   22.1193 N   0  0  0  0  0  0  0  0  0  0  0  0
    5.9559  -18.7996   23.3050 C   0  0  0  0  0  0  0  0  0  0  0  0
    4.8027  -18.8641   23.7884 O   0  0  0  0  0  0  0  0  0  0  0  0
    6.9907  -17.9797   23.9656 C   0  0  0  0  0  0  0  0  0  0  0  0
    8.2683  -18.0899   23.2006 C   0  0  0  0  0  0  0  0  0  0  0  0
    9.2496  -16.9776   23.5946 C   0  0  2  0  0  0  0  0  0  0  0  0
   10.4336  -17.1260   22.7640 N   0  0  0  0  0  0  0  0  0  0  0  0
    9.6685  -17.1511   25.0084 C   0  0  0  0  0  0  0  0  0  0  0  0
   10.4978  -18.0457   25.3575 O   0  0  0  0  0  0  0  0  0  0  0  0
    9.0182  -12.9720   27.7737 N   0  0  0  0  0  0  0  0  0  0  0  0
    9.8042  -14.1345   27.9996 C   0  0  0  0  0  0  0  0  0  0  0  0
   11.0391  -14.0226   27.9249 O   0  0  0  0  0  0  0  0  0  0  0  0
    9.0793  -15.3884   28.3068 C   0  0  0  0  0  0  0  0  0  0  0  0
    9.5207  -16.5439   27.4535 C   0  0  2  0  0  0  0  0  0  0  0  0
    9.1702  -16.3289   26.0633 N   0  0  0  0  0  0  0  0  0  0  0  0
    9.0061  -17.8450   27.9530 C   0  0  0  0  0  0  0  0  0  0  0  0
    8.2029  -18.6688   27.1772 O   0  0  0  0  0  0  0  0  0  0  0  0
    9.2826  -18.2528   29.1108 O   0  0  0  0  0  0  0  0  0  0  0  0
  2  1  1  6
  2  7  1  0
  3  2  1  0
  3  4  1  0
  4  5  1  0
  5  9  1  0
  6  5  2  0
  7  8  2  0
 11 10  1  0
 11 13  1  0
 12 11  2  0
 14 13  1  0
 15 14  1  6
 15 17  1  0
 16  7  1  0
 16 15  1  0
 17 18  2  0
 19 20  1  0
 20 21  2  0
 20 22  1  0
 23 22  1  1
 23 25  1  0
 24 17  1  0
 24 23  1  0
 25 27  2  0
 25 26  1  0
M  END
$$$$
