EQN.pdb
     RDKit          3D

 27 26  0  0  1  0  0  0  0  0999 V2000
   11.2755  -16.1361   13.8390 N   0  0  0  0  0  0  0  0  0  0  0  0
   10.3007  -16.5153   14.8862 C   0  0  1  0  0  0  0  0  0  0  0  0
   10.4449  -17.9923   15.0287 C   0  0  0  0  0  0  0  0  0  0  0  0
   11.6747  -18.4764   15.7068 C   0  0  0  0  0  0  0  0  0  0  0  0
   11.6144  -19.9826   15.7342 C   0  0  0  0  0  0  0  0  0  0  0  0
   10.5567  -20.5840   15.4265 O   0  0  0  0  0  0  0  0  0  0  0  0
   10.6002  -15.7216   16.0738 C   0  0  0  0  0  0  0  0  0  0  0  0
   11.8036  -15.3664   16.3144 O   0  0  0  0  0  0  0  0  0  0  0  0
   12.7156  -20.7411   16.0966 O   0  0  0  0  0  0  0  0  0  0  0  0
    7.1679  -13.8025   21.7456 N   0  0  0  0  0  0  0  0  0  0  0  0
    7.6377  -12.9295   20.7299 C   0  0  0  0  0  0  0  0  0  0  0  0
    6.9479  -11.9275   20.4336 O   0  0  0  0  0  0  0  0  0  0  0  0
    8.9115  -13.1850   20.0288 C   0  0  0  0  0  0  0  0  0  0  0  0
    8.6663  -14.1139   18.8859 C   0  0  0  0  0  0  0  0  0  0  0  0
    9.9754  -14.4696   18.1682 C   0  0  2  0  0  0  0  0  0  0  0  0
    9.6336  -15.2923   17.0192 N   0  0  0  0  0  0  0  0  0  0  0  0
   10.8367  -15.2837   19.0627 C   0  0  0  0  0  0  0  0  0  0  0  0
   10.6343  -16.5232   19.2432 O   0  0  0  0  0  0  0  0  0  0  0  0
   15.0558  -14.0404   18.7503 N   0  0  0  0  0  0  0  0  0  0  0  0
   14.8613  -15.1915   19.5611 C   0  0  0  0  0  0  0  0  0  0  0  0
   15.3228  -16.2709   19.1550 O   0  0  0  0  0  0  0  0  0  0  0  0
   14.1203  -15.0048   20.8291 C   0  0  0  0  0  0  0  0  0  0  0  0
   12.6992  -15.4877   20.7533 C   0  0  2  0  0  0  0  0  0  0  0  0
   11.9431  -14.7308   19.7750 N   0  0  0  0  0  0  0  0  0  0  0  0
   12.0308  -15.4893   22.0801 C   0  0  0  0  0  0  0  0  0  0  0  0
   12.5678  -16.1481   23.1770 O   0  0  0  0  0  0  0  0  0  0  0  0
   10.9409  -14.8869   22.2604 O   0  0  0  0  0  0  0  0  0  0  0  0
  2  1  1  6
  2  7  1  0
  3  2  1  0
  3  4  1  0
  4  5  1  0
  5  9  1  0
  6  5  2  0
  7  8  2  0
 11 10  1  0
 11 13  1  0
 12 11  2  0
 14 13  1  0
 15 14  1  1
 15 17  1  0
 16  7  1  0
 16 15  1  0
 17 18  2  0
 19 20  1  0
 20 21  2  0
 20 22  1  0
 23 22  1  1
 23 25  1  0
 24 17  1  0
 24 23  1  0
 25 27  2  0
 25 26  1  0
M  END
$$$$
