EQN.pdb
     RDKit          3D

 27 26  0  0  1  0  0  0  0  0999 V2000
   15.8236  -19.7173   19.6544 N   0  0  0  0  0  0  0  0  0  0  0  0
   16.0382  -18.2805   19.3715 C   0  0  1  0  0  0  0  0  0  0  0  0
   16.0791  -18.1836   17.8843 C   0  0  0  0  0  0  0  0  0  0  0  0
   14.8089  -18.4628   17.1663 C   0  0  0  0  0  0  0  0  0  0  0  0
   15.0879  -18.3461   15.6893 C   0  0  0  0  0  0  0  0  0  0  0  0
   15.8585  -17.4560   15.2545 O   0  0  0  0  0  0  0  0  0  0  0  0
   14.9723  -17.5375   20.0361 C   0  0  0  0  0  0  0  0  0  0  0  0
   14.9535  -16.2614   19.9757 O   0  0  0  0  0  0  0  0  0  0  0  0
   14.5069  -19.2105   14.7760 O   0  0  0  0  0  0  0  0  0  0  0  0
    9.2114  -19.0810   20.2937 N   0  0  0  0  0  0  0  0  0  0  0  0
    9.9030  -18.2839   19.3445 C   0  0  0  0  0  0  0  0  0  0  0  0
    9.4354  -18.1879   18.1870 O   0  0  0  0  0  0  0  0  0  0  0  0
   11.1491  -17.5768   19.7005 C   0  0  0  0  0  0  0  0  0  0  0  0
   11.5346  -17.9328   21.0984 C   0  0  0  0  0  0  0  0  0  0  0  0
   12.9055  -17.3469   21.4631 C   0  0  2  0  0  0  0  0  0  0  0  0
   13.9139  -18.1321   20.7700 N   0  0  0  0  0  0  0  0  0  0  0  0
   13.1460  -17.4937   22.9208 C   0  0  0  0  0  0  0  0  0  0  0  0
   13.1998  -18.6311   23.4807 O   0  0  0  0  0  0  0  0  0  0  0  0
   16.6262  -15.3095   24.1868 N   0  0  0  0  0  0  0  0  0  0  0  0
   15.9607  -16.2424   25.0276 C   0  0  0  0  0  0  0  0  0  0  0  0
   16.4593  -17.3739   25.1464 O   0  0  0  0  0  0  0  0  0  0  0  0
   14.7214  -15.7831   25.6948 C   0  0  0  0  0  0  0  0  0  0  0  0
   13.4959  -16.5111   25.2188 C   0  0  2  0  0  0  0  0  0  0  0  0
   13.3317  -16.3731   23.7851 N   0  0  0  0  0  0  0  0  0  0  0  0
   12.2719  -16.0980   25.9524 C   0  0  0  0  0  0  0  0  0  0  0  0
   12.1530  -16.2365   27.3281 O   0  0  0  0  0  0  0  0  0  0  0  0
   11.2868  -15.6017   25.3471 O   0  0  0  0  0  0  0  0  0  0  0  0
  2  1  1  6
  2  7  1  0
  3  2  1  0
  3  4  1  0
  4  5  1  0
  5  9  1  0
  6  5  2  0
  7  8  2  0
 11 10  1  0
 11 13  1  0
 12 11  2  0
 14 13  1  0
 15 14  1  1
 15 17  1  0
 16  7  1  0
 16 15  1  0
 17 18  2  0
 19 20  1  0
 20 21  2  0
 20 22  1  0
 23 22  1  1
 23 25  1  0
 24 17  1  0
 24 23  1  0
 25 27  2  0
 25 26  1  0
M  END
$$$$
