EQN.pdb
     RDKit          3D

 27 26  0  0  1  0  0  0  0  0999 V2000
   10.0313  -16.3901   20.1491 N   0  0  0  0  0  0  0  0  0  0  0  0
    8.8070  -15.5658   20.0385 C   0  0  1  0  0  0  0  0  0  0  0  0
    8.0892  -16.1018   18.8468 C   0  0  0  0  0  0  0  0  0  0  0  0
    8.0142  -17.5805   18.7273 C   0  0  0  0  0  0  0  0  0  0  0  0
    7.1503  -17.8957   17.5326 C   0  0  0  0  0  0  0  0  0  0  0  0
    6.7961  -16.9856   16.7442 O   0  0  0  0  0  0  0  0  0  0  0  0
    8.0990  -15.6570   21.3115 C   0  0  0  0  0  0  0  0  0  0  0  0
    7.0042  -15.0197   21.4774 O   0  0  0  0  0  0  0  0  0  0  0  0
    6.7254  -19.1882   17.2718 O   0  0  0  0  0  0  0  0  0  0  0  0
    7.8024  -20.5891   24.9202 N   0  0  0  0  0  0  0  0  0  0  0  0
    6.5656  -20.0387   24.4937 C   0  0  0  0  0  0  0  0  0  0  0  0
    5.5524  -20.7742   24.4858 O   0  0  0  0  0  0  0  0  0  0  0  0
    6.4609  -18.6298   24.0653 C   0  0  0  0  0  0  0  0  0  0  0  0
    7.8171  -18.0057   24.0913 C   0  0  0  0  0  0  0  0  0  0  0  0
    7.7618  -16.5377   23.6471 C   0  0  2  0  0  0  0  0  0  0  0  0
    8.5369  -16.4227   22.4225 N   0  0  0  0  0  0  0  0  0  0  0  0
    8.4073  -15.6759   24.6695 C   0  0  0  0  0  0  0  0  0  0  0  0
    9.6570  -15.4566   24.6698 O   0  0  0  0  0  0  0  0  0  0  0  0
    5.4884  -11.9094   26.2918 N   0  0  0  0  0  0  0  0  0  0  0  0
    6.8677  -12.2513   26.2636 C   0  0  0  0  0  0  0  0  0  0  0  0
    7.5769  -11.7265   25.3891 O   0  0  0  0  0  0  0  0  0  0  0  0
    7.3450  -13.2101   27.2857 C   0  0  0  0  0  0  0  0  0  0  0  0
    8.3041  -14.2263   26.7326 C   0  0  2  0  0  0  0  0  0  0  0  0
    7.6708  -15.0402   25.7138 N   0  0  0  0  0  0  0  0  0  0  0  0
    8.9194  -15.0611   27.7964 C   0  0  0  0  0  0  0  0  0  0  0  0
    9.7148  -14.5171   28.7950 O   0  0  0  0  0  0  0  0  0  0  0  0
    8.7402  -16.3060   27.8318 O   0  0  0  0  0  0  0  0  0  0  0  0
  2  1  1  1
  2  7  1  0
  3  2  1  0
  3  4  1  0
  4  5  1  0
  5  9  1  0
  6  5  2  0
  7  8  2  0
 11 10  1  0
 11 13  1  0
 12 11  2  0
 14 13  1  0
 15 14  1  1
 15 17  1  0
 16  7  1  0
 16 15  1  0
 17 18  2  0
 19 20  1  0
 20 21  2  0
 20 22  1  0
 23 22  1  1
 23 25  1  0
 24 17  1  0
 24 23  1  0
 25 27  2  0
 25 26  1  0
M  END
$$$$
