EQN.pdb
     RDKit          3D

 27 26  0  0  1  0  0  0  0  0999 V2000
   10.2808  -18.2493   15.1167 N   0  0  0  0  0  0  0  0  0  0  0  0
   11.4914  -17.4300   14.8842 C   0  0  1  0  0  0  0  0  0  0  0  0
   11.4133  -17.0271   13.4510 C   0  0  0  0  0  0  0  0  0  0  0  0
   10.1367  -16.4137   13.0030 C   0  0  0  0  0  0  0  0  0  0  0  0
   10.3277  -15.9584   11.5785 C   0  0  0  0  0  0  0  0  0  0  0  0
   11.1246  -16.5602   10.8183 O   0  0  0  0  0  0  0  0  0  0  0  0
   11.4816  -16.3445   15.8598 C   0  0  0  0  0  0  0  0  0  0  0  0
   12.4452  -15.5061   15.8878 O   0  0  0  0  0  0  0  0  0  0  0  0
    9.6351  -14.8714   11.0707 O   0  0  0  0  0  0  0  0  0  0  0  0
    7.6083  -12.1595   19.8032 N   0  0  0  0  0  0  0  0  0  0  0  0
    7.8646  -13.5541   19.8665 C   0  0  0  0  0  0  0  0  0  0  0  0
    6.9036  -14.3325   20.0618 O   0  0  0  0  0  0  0  0  0  0  0  0
    9.2309  -14.0900   19.7072 C   0  0  0  0  0  0  0  0  0  0  0  0
    9.2308  -15.1258   18.6318 C   0  0  0  0  0  0  0  0  0  0  0  0
   10.5618  -15.1335   17.8677 C   0  0  2  0  0  0  0  0  0  0  0  0
   10.4548  -16.1305   16.8149 N   0  0  0  0  0  0  0  0  0  0  0  0
   11.6615  -15.5530   18.7728 C   0  0  0  0  0  0  0  0  0  0  0  0
   11.8662  -16.7719   19.0598 O   0  0  0  0  0  0  0  0  0  0  0  0
   15.5797  -15.6493   18.3919 N   0  0  0  0  0  0  0  0  0  0  0  0
   15.4892  -14.3285   18.9092 C   0  0  0  0  0  0  0  0  0  0  0  0
   15.9923  -13.4092   18.2422 O   0  0  0  0  0  0  0  0  0  0  0  0
   14.7982  -14.1596   20.2076 C   0  0  0  0  0  0  0  0  0  0  0  0
   13.5709  -15.0176   20.3337 C   0  0  2  0  0  0  0  0  0  0  0  0
   12.5566  -14.6200   19.3773 N   0  0  0  0  0  0  0  0  0  0  0  0
   13.0371  -15.0412   21.7199 C   0  0  0  0  0  0  0  0  0  0  0  0
   11.7516  -14.6162   22.0239 O   0  0  0  0  0  0  0  0  0  0  0  0
   13.7386  -15.4520   22.6803 O   0  0  0  0  0  0  0  0  0  0  0  0
  2  1  1  1
  2  7  1  0
  3  2  1  0
  3  4  1  0
  4  5  1  0
  5  9  1  0
  6  5  2  0
  7  8  2  0
 11 10  1  0
 11 13  1  0
 12 11  2  0
 14 13  1  0
 15 14  1  1
 15 17  1  0
 16  7  1  0
 16 15  1  0
 17 18  2  0
 19 20  1  0
 20 21  2  0
 20 22  1  0
 23 22  1  1
 23 25  1  0
 24 17  1  0
 24 23  1  0
 25 27  2  0
 25 26  1  0
M  END
$$$$
