EQN.pdb
     RDKit          3D

 27 26  0  0  1  0  0  0  0  0999 V2000
    9.2374  -15.8482   19.3964 N   0  0  0  0  0  0  0  0  0  0  0  0
    9.0316  -16.6470   20.6253 C   0  0  1  0  0  0  0  0  0  0  0  0
    9.9429  -17.8179   20.4795 C   0  0  0  0  0  0  0  0  0  0  0  0
   11.3648  -17.6020   20.8513 C   0  0  0  0  0  0  0  0  0  0  0  0
   12.0945  -18.9023   20.6276 C   0  0  0  0  0  0  0  0  0  0  0  0
   12.4695  -19.2329   19.4765 O   0  0  0  0  0  0  0  0  0  0  0  0
    9.2845  -15.7722   21.7658 C   0  0  0  0  0  0  0  0  0  0  0  0
   10.2822  -14.9744   21.7464 O   0  0  0  0  0  0  0  0  0  0  0  0
   12.3702  -19.7633   21.6772 O   0  0  0  0  0  0  0  0  0  0  0  0
    4.9494  -13.4851   25.5294 N   0  0  0  0  0  0  0  0  0  0  0  0
    6.1247  -12.8704   26.0349 C   0  0  0  0  0  0  0  0  0  0  0  0
    6.0054  -11.9139   26.8340 O   0  0  0  0  0  0  0  0  0  0  0  0
    7.4666  -13.3386   25.6356 C   0  0  0  0  0  0  0  0  0  0  0  0
    7.3348  -14.3002   24.5010 C   0  0  0  0  0  0  0  0  0  0  0  0
    8.7105  -14.7601   23.9998 C   0  0  2  0  0  0  0  0  0  0  0  0
    8.4869  -15.7280   22.9382 N   0  0  0  0  0  0  0  0  0  0  0  0
    9.4405  -15.4524   25.0918 C   0  0  0  0  0  0  0  0  0  0  0  0
    9.9314  -16.6125   24.9403 O   0  0  0  0  0  0  0  0  0  0  0  0
   11.9503  -16.4730   29.4415 N   0  0  0  0  0  0  0  0  0  0  0  0
   11.4568  -15.1574   29.6550 C   0  0  0  0  0  0  0  0  0  0  0  0
   11.7240  -14.6066   30.7360 O   0  0  0  0  0  0  0  0  0  0  0  0
   10.6608  -14.5512   28.5638 C   0  0  0  0  0  0  0  0  0  0  0  0
   10.4549  -15.4823   27.4024 C   0  0  2  0  0  0  0  0  0  0  0  0
    9.6380  -14.8637   26.3769 N   0  0  0  0  0  0  0  0  0  0  0  0
    9.9045  -16.7969   27.8219 C   0  0  0  0  0  0  0  0  0  0  0  0
    8.7005  -17.2837   27.3331 O   0  0  0  0  0  0  0  0  0  0  0  0
   10.5164  -17.5257   28.6451 O   0  0  0  0  0  0  0  0  0  0  0  0
  2  1  1  6
  2  7  1  0
  3  2  1  0
  3  4  1  0
  4  5  1  0
  5  9  1  0
  6  5  2  0
  7  8  2  0
 11 10  1  0
 11 13  1  0
 12 11  2  0
 14 13  1  0
 15 14  1  1
 15 17  1  0
 16  7  1  0
 16 15  1  0
 17 18  2  0
 19 20  1  0
 20 21  2  0
 20 22  1  0
 23 22  1  1
 23 25  1  0
 24 17  1  0
 24 23  1  0
 25 27  2  0
 25 26  1  0
M  END
$$$$
