EQN.pdb
     RDKit          3D

 27 26  0  0  1  0  0  0  0  0999 V2000
   10.1622  -16.3954   19.7346 N   0  0  0  0  0  0  0  0  0  0  0  0
    9.0430  -16.6819   20.6598 C   0  0  1  0  0  0  0  0  0  0  0  0
    8.8353  -18.1553   20.5668 C   0  0  0  0  0  0  0  0  0  0  0  0
    9.9895  -19.0128   20.9398 C   0  0  0  0  0  0  0  0  0  0  0  0
    9.5638  -20.4483   20.7627 C   0  0  0  0  0  0  0  0  0  0  0  0
    8.3864  -20.7276   20.4301 O   0  0  0  0  0  0  0  0  0  0  0  0
    9.4152  -16.1658   21.9733 C   0  0  0  0  0  0  0  0  0  0  0  0
   10.6486  -16.0212   22.2736 O   0  0  0  0  0  0  0  0  0  0  0  0
   10.4523  -21.4926   20.9603 O   0  0  0  0  0  0  0  0  0  0  0  0
    5.7981  -12.7393   25.7973 N   0  0  0  0  0  0  0  0  0  0  0  0
    7.0993  -12.6377   26.3550 C   0  0  0  0  0  0  0  0  0  0  0  0
    7.3336  -11.7141   27.1672 O   0  0  0  0  0  0  0  0  0  0  0  0
    8.1645  -13.5942   25.9942 C   0  0  0  0  0  0  0  0  0  0  0  0
    7.7739  -14.3185   24.7483 C   0  0  0  0  0  0  0  0  0  0  0  0
    8.9083  -15.2268   24.2549 C   0  0  2  0  0  0  0  0  0  0  0  0
    8.4908  -15.7948   22.9834 N   0  0  0  0  0  0  0  0  0  0  0  0
    9.1055  -16.3504   25.2052 C   0  0  0  0  0  0  0  0  0  0  0  0
    8.2266  -17.2503   25.3718 O   0  0  0  0  0  0  0  0  0  0  0  0
   11.2703  -19.5807   24.8287 N   0  0  0  0  0  0  0  0  0  0  0  0
   12.1914  -18.6561   25.3917 C   0  0  0  0  0  0  0  0  0  0  0  0
   13.1770  -18.3315   24.7088 O   0  0  0  0  0  0  0  0  0  0  0  0
   11.8957  -18.1552   26.7531 C   0  0  0  0  0  0  0  0  0  0  0  0
   10.5008  -17.6124   26.8872 C   0  0  2  0  0  0  0  0  0  0  0  0
   10.2887  -16.4933   25.9905 N   0  0  0  0  0  0  0  0  0  0  0  0
   10.1629  -17.2613   28.2906 C   0  0  0  0  0  0  0  0  0  0  0  0
   10.2014  -18.1958   29.3157 O   0  0  0  0  0  0  0  0  0  0  0  0
    9.8256  -16.0907   28.6053 O   0  0  0  0  0  0  0  0  0  0  0  0
  2  1  1  6
  2  7  1  0
  3  2  1  0
  3  4  1  0
  4  5  1  0
  5  9  1  0
  6  5  2  0
  7  8  2  0
 11 10  1  0
 11 13  1  0
 12 11  2  0
 14 13  1  0
 15 14  1  1
 15 17  1  0
 16  7  1  0
 16 15  1  0
 17 18  2  0
 19 20  1  0
 20 21  2  0
 20 22  1  0
 23 22  1  1
 23 25  1  0
 24 17  1  0
 24 23  1  0
 25 27  2  0
 25 26  1  0
M  END
$$$$
