EQN.pdb
     RDKit          3D

 27 26  0  0  1  0  0  0  0  0999 V2000
   13.3564  -13.9990   16.1964 N   0  0  0  0  0  0  0  0  0  0  0  0
   12.8809  -15.1430   17.0062 C   0  0  1  0  0  0  0  0  0  0  0  0
   14.0143  -16.1115   17.0060 C   0  0  0  0  0  0  0  0  0  0  0  0
   14.3007  -16.7970   15.7196 C   0  0  0  0  0  0  0  0  0  0  0  0
   15.4256  -17.7703   15.9652 C   0  0  0  0  0  0  0  0  0  0  0  0
   15.1832  -18.9803   16.1938 O   0  0  0  0  0  0  0  0  0  0  0  0
   12.4789  -14.6224   18.3091 C   0  0  0  0  0  0  0  0  0  0  0  0
   13.2774  -13.8745   18.9689 O   0  0  0  0  0  0  0  0  0  0  0  0
   16.7490  -17.3613   15.9460 O   0  0  0  0  0  0  0  0  0  0  0  0
    7.0356  -14.3884   18.9262 N   0  0  0  0  0  0  0  0  0  0  0  0
    7.8461  -13.3515   18.3947 C   0  0  0  0  0  0  0  0  0  0  0  0
    7.4330  -12.7189   17.3963 O   0  0  0  0  0  0  0  0  0  0  0  0
    9.1516  -13.0148   18.9963 C   0  0  0  0  0  0  0  0  0  0  0  0
    9.4017  -13.9123   20.1632 C   0  0  0  0  0  0  0  0  0  0  0  0
   10.8742  -14.3397   20.2298 C   0  0  2  0  0  0  0  0  0  0  0  0
   11.2300  -14.8834   18.9292 N   0  0  0  0  0  0  0  0  0  0  0  0
   11.0407  -15.4239   21.2304 C   0  0  0  0  0  0  0  0  0  0  0  0
   10.4409  -16.5366   21.1199 O   0  0  0  0  0  0  0  0  0  0  0  0
   14.5985  -17.0839   22.0219 N   0  0  0  0  0  0  0  0  0  0  0  0
   14.5478  -16.1303   23.0746 C   0  0  0  0  0  0  0  0  0  0  0  0
   15.4538  -15.2825   23.1326 O   0  0  0  0  0  0  0  0  0  0  0  0
   13.4118  -16.2293   24.0188 C   0  0  0  0  0  0  0  0  0  0  0  0
   12.0849  -16.3647   23.3264 C   0  0  2  0  0  0  0  0  0  0  0  0
   11.8808  -15.2890   22.3763 N   0  0  0  0  0  0  0  0  0  0  0  0
   10.9548  -16.4706   24.2849 C   0  0  0  0  0  0  0  0  0  0  0  0
    9.8936  -15.5765   24.2776 O   0  0  0  0  0  0  0  0  0  0  0  0
   10.9175  -17.3851   25.1483 O   0  0  0  0  0  0  0  0  0  0  0  0
  2  1  1  6
  2  7  1  0
  3  2  1  0
  3  4  1  0
  4  5  1  0
  5  9  1  0
  6  5  2  0
  7  8  2  0
 11 10  1  0
 11 13  1  0
 12 11  2  0
 14 13  1  0
 15 14  1  6
 15 17  1  0
 16  7  1  0
 16 15  1  0
 17 18  2  0
 19 20  1  0
 20 21  2  0
 20 22  1  0
 23 22  1  1
 23 25  1  0
 24 17  1  0
 24 23  1  0
 25 27  2  0
 25 26  1  0
M  END
$$$$
