EQN.pdb
     RDKit          3D

 27 26  0  0  1  0  0  0  0  0999 V2000
    8.8889  -19.2296   17.9451 N   0  0  0  0  0  0  0  0  0  0  0  0
   10.1570  -18.5540   17.5900 C   0  0  1  0  0  0  0  0  0  0  0  0
   10.0191  -18.2127   16.1453 C   0  0  0  0  0  0  0  0  0  0  0  0
    8.9176  -17.2832   15.7855 C   0  0  0  0  0  0  0  0  0  0  0  0
    8.9342  -17.1189   14.2869 C   0  0  0  0  0  0  0  0  0  0  0  0
    8.7163  -18.1002   13.5355 O   0  0  0  0  0  0  0  0  0  0  0  0
   10.3267  -17.4289   18.5041 C   0  0  0  0  0  0  0  0  0  0  0  0
   11.3839  -16.7141   18.4433 O   0  0  0  0  0  0  0  0  0  0  0  0
    9.1884  -15.8901   13.6999 O   0  0  0  0  0  0  0  0  0  0  0  0
    6.1292  -13.5818   20.7327 N   0  0  0  0  0  0  0  0  0  0  0  0
    7.2560  -13.2068   21.5100 C   0  0  0  0  0  0  0  0  0  0  0  0
    7.1630  -12.2075   22.2585 O   0  0  0  0  0  0  0  0  0  0  0  0
    8.5183  -13.9699   21.4473 C   0  0  0  0  0  0  0  0  0  0  0  0
    8.3636  -15.0983   20.4818 C   0  0  0  0  0  0  0  0  0  0  0  0
    9.6303  -15.9633   20.4305 C   0  0  2  0  0  0  0  0  0  0  0  0
    9.3826  -17.0445   19.4907 N   0  0  0  0  0  0  0  0  0  0  0  0
    9.8797  -16.5734   21.7610 C   0  0  0  0  0  0  0  0  0  0  0  0
    9.3171  -17.6524   22.1203 O   0  0  0  0  0  0  0  0  0  0  0  0
   13.5893  -18.9235   24.2983 N   0  0  0  0  0  0  0  0  0  0  0  0
   13.7891  -17.5172   24.3484 C   0  0  0  0  0  0  0  0  0  0  0  0
   14.6175  -17.0783   25.1634 O   0  0  0  0  0  0  0  0  0  0  0  0
   12.9877  -16.6895   23.4186 C   0  0  0  0  0  0  0  0  0  0  0  0
   11.5101  -16.7842   23.6757 C   0  0  2  0  0  0  0  0  0  0  0  0
   10.7629  -15.9914   22.7193 N   0  0  0  0  0  0  0  0  0  0  0  0
   11.1555  -16.4319   25.0747 C   0  0  0  0  0  0  0  0  0  0  0  0
   10.2495  -15.4250   25.3761 O   0  0  0  0  0  0  0  0  0  0  0  0
   11.6693  -17.0402   26.0490 O   0  0  0  0  0  0  0  0  0  0  0  0
  2  1  1  1
  2  7  1  0
  3  2  1  0
  3  4  1  0
  4  5  1  0
  5  9  1  0
  6  5  2  0
  7  8  2  0
 11 10  1  0
 11 13  1  0
 12 11  2  0
 14 13  1  0
 15 14  1  1
 15 17  1  0
 16  7  1  0
 16 15  1  0
 17 18  2  0
 19 20  1  0
 20 21  2  0
 20 22  1  0
 23 22  1  1
 23 25  1  0
 24 17  1  0
 24 23  1  0
 25 27  2  0
 25 26  1  0
M  END
$$$$
