EQN.pdb
     RDKit          3D

 27 26  0  0  1  0  0  0  0  0999 V2000
   10.2559  -18.2706   18.2464 N   0  0  0  0  0  0  0  0  0  0  0  0
   11.4240  -18.5144   19.1220 C   0  0  1  0  0  0  0  0  0  0  0  0
   12.5982  -18.5201   18.2034 C   0  0  0  0  0  0  0  0  0  0  0  0
   12.3268  -18.8558   16.7820 C   0  0  0  0  0  0  0  0  0  0  0  0
   13.6501  -18.8740   16.0598 C   0  0  0  0  0  0  0  0  0  0  0  0
   14.0351  -17.8723   15.4091 O   0  0  0  0  0  0  0  0  0  0  0  0
   11.4206  -17.4849   20.1564 C   0  0  0  0  0  0  0  0  0  0  0  0
   12.4211  -17.3702   20.9426 O   0  0  0  0  0  0  0  0  0  0  0  0
   14.4733  -19.9877   16.0926 O   0  0  0  0  0  0  0  0  0  0  0  0
    7.3599  -12.7088   20.6395 N   0  0  0  0  0  0  0  0  0  0  0  0
    6.9795  -14.0726   20.7397 C   0  0  0  0  0  0  0  0  0  0  0  0
    5.7649  -14.3645   20.6544 O   0  0  0  0  0  0  0  0  0  0  0  0
    7.9841  -15.1356   20.9405 C   0  0  0  0  0  0  0  0  0  0  0  0
    9.3314  -14.5140   21.1073 C   0  0  0  0  0  0  0  0  0  0  0  0
   10.3946  -15.5716   21.4335 C   0  0  2  0  0  0  0  0  0  0  0  0
   10.3631  -16.5641   20.3716 N   0  0  0  0  0  0  0  0  0  0  0  0
   10.0489  -16.2608   22.7024 C   0  0  0  0  0  0  0  0  0  0  0  0
    9.1526  -17.1572   22.7563 O   0  0  0  0  0  0  0  0  0  0  0  0
   10.8523  -19.8893   24.2088 N   0  0  0  0  0  0  0  0  0  0  0  0
   11.0007  -19.1574   25.4181 C   0  0  0  0  0  0  0  0  0  0  0  0
   10.6649  -19.7136   26.4769 O   0  0  0  0  0  0  0  0  0  0  0  0
   11.5464  -17.7852   25.3123 C   0  0  0  0  0  0  0  0  0  0  0  0
   10.4783  -16.7418   25.1423 C   0  0  2  0  0  0  0  0  0  0  0  0
   10.6970  -15.9636   23.9389 N   0  0  0  0  0  0  0  0  0  0  0  0
   10.3410  -15.8725   26.3391 C   0  0  0  0  0  0  0  0  0  0  0  0
    9.7099  -16.3042   27.4972 O   0  0  0  0  0  0  0  0  0  0  0  0
   10.7968  -14.6998   26.3473 O   0  0  0  0  0  0  0  0  0  0  0  0
  2  1  1  6
  2  7  1  0
  3  2  1  0
  3  4  1  0
  4  5  1  0
  5  9  1  0
  6  5  2  0
  7  8  2  0
 11 10  1  0
 11 13  1  0
 12 11  2  0
 14 13  1  0
 15 14  1  6
 15 17  1  0
 16  7  1  0
 16 15  1  0
 17 18  2  0
 19 20  1  0
 20 21  2  0
 20 22  1  0
 23 22  1  1
 23 25  1  0
 24 17  1  0
 24 23  1  0
 25 27  2  0
 25 26  1  0
M  END
$$$$
