EQN.pdb
     RDKit          3D

 27 26  0  0  1  0  0  0  0  0999 V2000
    7.8861  -19.3405   17.1601 N   0  0  0  0  0  0  0  0  0  0  0  0
    9.3604  -19.2157   17.1992 C   0  0  1  0  0  0  0  0  0  0  0  0
    9.7564  -18.8982   15.7974 C   0  0  0  0  0  0  0  0  0  0  0  0
    9.4401  -17.5302   15.3124 C   0  0  0  0  0  0  0  0  0  0  0  0
    9.9759  -17.4118   13.9081 C   0  0  0  0  0  0  0  0  0  0  0  0
   11.1174  -16.9337   13.6996 O   0  0  0  0  0  0  0  0  0  0  0  0
    9.6901  -18.2107   18.2048 C   0  0  0  0  0  0  0  0  0  0  0  0
   10.8621  -18.1795   18.7122 O   0  0  0  0  0  0  0  0  0  0  0  0
    9.2304  -17.8236   12.8156 O   0  0  0  0  0  0  0  0  0  0  0  0
    6.8020  -12.7608   19.1905 N   0  0  0  0  0  0  0  0  0  0  0  0
    7.7172  -12.7930   20.2749 C   0  0  0  0  0  0  0  0  0  0  0  0
    7.8281  -11.7762   20.9970 O   0  0  0  0  0  0  0  0  0  0  0  0
    8.5284  -13.9937   20.5574 C   0  0  0  0  0  0  0  0  0  0  0  0
    8.2518  -15.0300   19.5187 C   0  0  0  0  0  0  0  0  0  0  0  0
    9.1590  -16.2545   19.7000 C   0  0  2  0  0  0  0  0  0  0  0  0
    8.7879  -17.2267   18.6846 N   0  0  0  0  0  0  0  0  0  0  0  0
    8.9119  -16.8743   21.0264 C   0  0  0  0  0  0  0  0  0  0  0  0
    8.2946  -17.9762   21.1475 O   0  0  0  0  0  0  0  0  0  0  0  0
   11.9017  -18.2880   24.8469 N   0  0  0  0  0  0  0  0  0  0  0  0
   12.4340  -17.9738   23.5670 C   0  0  0  0  0  0  0  0  0  0  0  0
   13.5986  -18.3290   23.3206 O   0  0  0  0  0  0  0  0  0  0  0  0
   11.5493  -17.2449   22.6301 C   0  0  0  0  0  0  0  0  0  0  0  0
   10.1863  -16.9745   23.2023 C   0  0  2  0  0  0  0  0  0  0  0  0
    9.3489  -16.2766   22.2466 N   0  0  0  0  0  0  0  0  0  0  0  0
   10.2503  -16.2563   24.5012 C   0  0  0  0  0  0  0  0  0  0  0  0
   10.6119  -16.8927   25.6802 O   0  0  0  0  0  0  0  0  0  0  0  0
    9.9762  -15.0309   24.5815 O   0  0  0  0  0  0  0  0  0  0  0  0
  2  1  1  6
  2  7  1  0
  3  2  1  0
  3  4  1  0
  4  5  1  0
  5  9  1  0
  6  5  2  0
  7  8  2  0
 11 10  1  0
 11 13  1  0
 12 11  2  0
 14 13  1  0
 15 14  1  6
 15 17  1  0
 16  7  1  0
 16 15  1  0
 17 18  2  0
 19 20  1  0
 20 21  2  0
 20 22  1  0
 23 22  1  6
 23 25  1  0
 24 17  1  0
 24 23  1  0
 25 27  2  0
 25 26  1  0
M  END
$$$$
