EQN.pdb
     RDKit          3D

 27 26  0  0  1  0  0  0  0  0999 V2000
    7.8158  -17.3747   21.1960 N   0  0  0  0  0  0  0  0  0  0  0  0
    9.2049  -16.8921   21.0283 C   0  0  1  0  0  0  0  0  0  0  0  0
    9.3005  -16.4865   19.5969 C   0  0  0  0  0  0  0  0  0  0  0  0
    8.2893  -17.0643   18.6747 C   0  0  0  0  0  0  0  0  0  0  0  0
    8.5396  -16.4837   17.3061 C   0  0  0  0  0  0  0  0  0  0  0  0
    9.5732  -16.7893   16.6631 O   0  0  0  0  0  0  0  0  0  0  0  0
    9.4258  -15.8374   22.0126 C   0  0  0  0  0  0  0  0  0  0  0  0
   10.5195  -15.1772   22.0025 O   0  0  0  0  0  0  0  0  0  0  0  0
    7.6436  -15.6030   16.7224 O   0  0  0  0  0  0  0  0  0  0  0  0
    5.3323  -12.8215   25.7103 N   0  0  0  0  0  0  0  0  0  0  0  0
    6.5873  -12.3408   26.1669 C   0  0  0  0  0  0  0  0  0  0  0  0
    6.6063  -11.3731   26.9611 O   0  0  0  0  0  0  0  0  0  0  0  0
    7.8522  -12.9592   25.7229 C   0  0  0  0  0  0  0  0  0  0  0  0
    7.5669  -13.9273   24.6226 C   0  0  0  0  0  0  0  0  0  0  0  0
    8.8524  -14.6102   24.1362 C   0  0  2  0  0  0  0  0  0  0  0  0
    8.4950  -15.4664   23.0168 N   0  0  0  0  0  0  0  0  0  0  0  0
    9.3998  -15.4789   25.2086 C   0  0  0  0  0  0  0  0  0  0  0  0
    9.6941  -15.0237   26.3559 O   0  0  0  0  0  0  0  0  0  0  0  0
    6.8819  -18.9219   26.2229 N   0  0  0  0  0  0  0  0  0  0  0  0
    8.0927  -18.7765   26.9529 C   0  0  0  0  0  0  0  0  0  0  0  0
    8.0114  -18.4878   28.1584 O   0  0  0  0  0  0  0  0  0  0  0  0
    9.3563  -18.9830   26.2095 C   0  0  0  0  0  0  0  0  0  0  0  0
   10.1653  -17.7244   26.0691 C   0  0  2  0  0  0  0  0  0  0  0  0
    9.6305  -16.8751   25.0231 N   0  0  0  0  0  0  0  0  0  0  0  0
   11.6106  -18.0008   25.8647 C   0  0  0  0  0  0  0  0  0  0  0  0
   12.5136  -18.0287   26.9181 O   0  0  0  0  0  0  0  0  0  0  0  0
   12.0747  -18.2222   24.7164 O   0  0  0  0  0  0  0  0  0  0  0  0
  2  1  1  6
  2  7  1  0
  3  2  1  0
  3  4  1  0
  4  5  1  0
  5  9  1  0
  6  5  2  0
  7  8  2  0
 11 10  1  0
 11 13  1  0
 12 11  2  0
 14 13  1  0
 15 14  1  1
 15 17  1  0
 16  7  1  0
 16 15  1  0
 17 18  2  0
 19 20  1  0
 20 21  2  0
 20 22  1  0
 23 22  1  6
 23 25  1  0
 24 17  1  0
 24 23  1  0
 25 27  2  0
 25 26  1  0
M  END
$$$$
