EQN.pdb
     RDKit          3D

 27 26  0  0  1  0  0  0  0  0999 V2000
   13.3822  -17.4830   15.6232 N   0  0  0  0  0  0  0  0  0  0  0  0
   13.4099  -18.4352   16.7560 C   0  0  1  0  0  0  0  0  0  0  0  0
   14.8354  -18.8567   16.8689 C   0  0  0  0  0  0  0  0  0  0  0  0
   15.8243  -17.7838   17.1474 C   0  0  0  0  0  0  0  0  0  0  0  0
   17.1893  -18.4232   17.1828 C   0  0  0  0  0  0  0  0  0  0  0  0
   17.8116  -18.5379   18.2666 O   0  0  0  0  0  0  0  0  0  0  0  0
   12.8460  -17.7537   17.9170 C   0  0  0  0  0  0  0  0  0  0  0  0
   13.1983  -16.5550   18.1838 O   0  0  0  0  0  0  0  0  0  0  0  0
   17.7918  -18.8991   16.0297 O   0  0  0  0  0  0  0  0  0  0  0  0
    7.6041  -19.4189   20.8226 N   0  0  0  0  0  0  0  0  0  0  0  0
    7.7260  -18.7204   19.5931 C   0  0  0  0  0  0  0  0  0  0  0  0
    6.7181  -18.6211   18.8568 O   0  0  0  0  0  0  0  0  0  0  0  0
    9.0083  -18.1182   19.1778 C   0  0  0  0  0  0  0  0  0  0  0  0
   10.0001  -18.2608   20.2848 C   0  0  0  0  0  0  0  0  0  0  0  0
   11.3341  -17.5926   19.9251 C   0  0  2  0  0  0  0  0  0  0  0  0
   11.9034  -18.3284   18.8078 N   0  0  0  0  0  0  0  0  0  0  0  0
   12.2790  -17.7054   21.0648 C   0  0  0  0  0  0  0  0  0  0  0  0
   12.8212  -18.8083   21.3802 O   0  0  0  0  0  0  0  0  0  0  0  0
   15.3411  -16.4561   21.1486 N   0  0  0  0  0  0  0  0  0  0  0  0
   15.3203  -15.4108   22.1115 C   0  0  0  0  0  0  0  0  0  0  0  0
   16.0949  -14.4541   21.9450 O   0  0  0  0  0  0  0  0  0  0  0  0
   14.3708  -15.5521   23.2386 C   0  0  0  0  0  0  0  0  0  0  0  0
   13.4408  -16.7216   23.0776 C   0  0  2  0  0  0  0  0  0  0  0  0
   12.6391  -16.5884   21.8771 N   0  0  0  0  0  0  0  0  0  0  0  0
   12.5953  -16.9416   24.2791 C   0  0  0  0  0  0  0  0  0  0  0  0
   13.1210  -17.4010   25.4784 O   0  0  0  0  0  0  0  0  0  0  0  0
   11.3575  -16.7171   24.2538 O   0  0  0  0  0  0  0  0  0  0  0  0
  2  1  1  6
  2  7  1  0
  3  2  1  0
  3  4  1  0
  4  5  1  0
  5  9  1  0
  6  5  2  0
  7  8  2  0
 11 10  1  0
 11 13  1  0
 12 11  2  0
 14 13  1  0
 15 14  1  1
 15 17  1  0
 16  7  1  0
 16 15  1  0
 17 18  2  0
 19 20  1  0
 20 21  2  0
 20 22  1  0
 23 22  1  1
 23 25  1  0
 24 17  1  0
 24 23  1  0
 25 27  2  0
 25 26  1  0
M  END
$$$$
