YNA.pdb
     RDKit          3D

 26 26  0  0  1  0  0  0  0  0999 V2000
   30.8146  -12.3145  -16.8171 O   0  0  0  0  0  0  0  0  0  0  0  0
   29.6076  -11.6314  -17.0285 C   0  0  0  0  0  0  0  0  0  0  0  0
   28.3904  -12.2732  -17.0816 C   0  0  0  0  0  0  0  0  0  0  0  0
   27.2295  -11.5593  -17.2922 C   0  0  0  0  0  0  0  0  0  0  0  0
   27.2114  -10.1935  -17.4585 C   0  0  0  0  0  0  0  0  0  0  0  0
   25.9491   -9.4413  -17.6837 C   0  0  0  0  0  0  0  0  0  0  0  0
   25.2841   -9.8207  -19.0081 C   0  0  2  0  0  0  0  0  0  0  0  0
   26.1650   -9.3947  -20.0522 N   0  0  0  0  0  0  0  0  0  0  0  0
   23.9833   -9.1022  -19.0268 C   0  0  0  0  0  0  0  0  0  0  0  0
   23.9628   -7.9098  -19.4241 O   0  0  0  0  0  0  0  0  0  0  0  0
   28.4326   -9.5370  -17.4074 C   0  0  0  0  0  0  0  0  0  0  0  0
   29.5926  -10.2529  -17.1967 C   0  0  0  0  0  0  0  0  0  0  0  0
   18.5157   -9.5134  -20.7679 N   0  0  0  0  0  0  0  0  0  0  0  0
   19.1989   -9.4677  -19.5464 C   0  0  0  0  0  0  0  0  0  0  0  0
   18.6552   -8.8969  -18.5561 O   0  0  0  0  0  0  0  0  0  0  0  0
   20.5305  -10.0532  -19.3546 C   0  0  0  0  0  0  0  0  0  0  0  0
   21.4646   -9.0092  -18.7695 C   0  0  2  0  0  0  0  0  0  0  0  0
   22.7695   -9.6846  -18.6233 N   0  0  0  0  0  0  0  0  0  0  0  0
   21.0347   -8.4990  -17.4472 C   0  0  0  0  0  0  0  0  0  0  0  0
   21.1304   -9.2932  -16.4571 O   0  0  0  0  0  0  0  0  0  0  0  0
   18.9704   -7.6186  -15.3539 C   0  0  0  0  0  0  0  0  0  0  0  0
   20.1502   -6.8258  -15.7990 C   0  0  2  0  0  0  0  0  0  0  0  0
   20.5296   -7.2113  -17.1779 N   0  0  0  0  0  0  0  0  0  0  0  0
   21.2540   -7.0222  -14.8535 C   0  0  0  0  0  0  0  0  0  0  0  0
   21.1903   -6.6206  -13.5376 O   0  0  0  0  0  0  0  0  0  0  0  0
   22.2965   -7.5787  -15.2650 O   0  0  0  0  0  0  0  0  0  0  0  0
  2 12  2  0
  2  1  1  0
  3  2  1  0
  4  5  1  0
  4  3  2  0
  5 11  2  0
  6  5  1  0
  7  6  1  0
  7  9  1  0
  7  8  1  6
  9 18  1  0
  9 10  2  0
 11 12  1  0
 14 13  1  0
 14 15  2  0
 16 14  1  0
 17 16  1  1
 18 17  1  0
 19 23  1  0
 19 17  1  0
 20 19  2  0
 22 21  1  1
 22 24  1  0
 22 23  1  0
 24 25  1  0
 26 24  2  0
M  END
$$$$
