YNA.pdb
     RDKit          3D

 26 26  0  0  1  0  0  0  0  0999 V2000
   28.6994  -19.8358   -3.6520 O   0  0  0  0  0  0  0  0  0  0  0  0
   28.2358  -19.7402   -4.9726 C   0  0  0  0  0  0  0  0  0  0  0  0
   28.9547  -19.1180   -5.9689 C   0  0  0  0  0  0  0  0  0  0  0  0
   28.4580  -19.0482   -7.2534 C   0  0  0  0  0  0  0  0  0  0  0  0
   27.2425  -19.5822   -7.6151 C   0  0  0  0  0  0  0  0  0  0  0  0
   26.7243  -19.4976   -9.0059 C   0  0  0  0  0  0  0  0  0  0  0  0
   26.6985  -20.8645   -9.6922 C   0  0  2  0  0  0  0  0  0  0  0  0
   28.0599  -21.2345   -9.9321 N   0  0  0  0  0  0  0  0  0  0  0  0
   25.9272  -20.6711  -10.9477 C   0  0  0  0  0  0  0  0  0  0  0  0
   26.4415  -19.9861  -11.8677 O   0  0  0  0  0  0  0  0  0  0  0  0
   26.5097  -20.2109   -6.6187 C   0  0  0  0  0  0  0  0  0  0  0  0
   27.0084  -20.2797   -5.3345 C   0  0  0  0  0  0  0  0  0  0  0  0
   25.6702  -23.9648  -13.5988 N   0  0  0  0  0  0  0  0  0  0  0  0
   25.0404  -22.7206  -13.7258 C   0  0  0  0  0  0  0  0  0  0  0  0
   25.5713  -21.8315  -14.4536 O   0  0  0  0  0  0  0  0  0  0  0  0
   23.7818  -22.3906  -13.0479 C   0  0  0  0  0  0  0  0  0  0  0  0
   23.8912  -21.0146  -12.4158 C   0  0  2  0  0  0  0  0  0  0  0  0
   24.6491  -21.2141  -11.1644 N   0  0  0  0  0  0  0  0  0  0  0  0
   22.5823  -20.4006  -12.0944 C   0  0  0  0  0  0  0  0  0  0  0  0
   21.9506  -20.8665  -11.0924 O   0  0  0  0  0  0  0  0  0  0  0  0
   20.2176  -17.7163  -13.2603 C   0  0  0  0  0  0  0  0  0  0  0  0
   20.6340  -18.8450  -12.3819 C   0  0  2  0  0  0  0  0  0  0  0  0
   21.9669  -19.3430  -12.7933 N   0  0  0  0  0  0  0  0  0  0  0  0
   19.6173  -19.9008  -12.4305 C   0  0  0  0  0  0  0  0  0  0  0  0
   18.5424  -19.9426  -11.5704 O   0  0  0  0  0  0  0  0  0  0  0  0
   19.7362  -20.8005  -13.2921 O   0  0  0  0  0  0  0  0  0  0  0  0
  2 12  2  0
  2  1  1  0
  3  2  1  0
  4  5  1  0
  4  3  2  0
  5 11  2  0
  6  5  1  0
  7  6  1  0
  7  9  1  0
  7  8  1  6
  9 18  1  0
  9 10  2  0
 11 12  1  0
 14 13  1  0
 14 15  2  0
 16 14  1  0
 17 16  1  1
 18 17  1  0
 19 23  1  0
 19 17  1  0
 20 19  2  0
 22 21  1  6
 22 24  1  0
 22 23  1  0
 24 25  1  0
 26 24  2  0
M  END
$$$$
