YNA.pdb
     RDKit          3D

 26 26  0  0  1  0  0  0  0  0999 V2000
   29.8758  -11.3550  -16.8034 O   0  0  0  0  0  0  0  0  0  0  0  0
   28.5094  -11.0439  -16.8690 C   0  0  0  0  0  0  0  0  0  0  0  0
   27.5662  -11.9349  -17.3304 C   0  0  0  0  0  0  0  0  0  0  0  0
   26.2334  -11.5842  -17.3768 C   0  0  0  0  0  0  0  0  0  0  0  0
   25.7699  -10.3524  -16.9752 C   0  0  0  0  0  0  0  0  0  0  0  0
   24.3285   -9.9931  -17.0320 C   0  0  0  0  0  0  0  0  0  0  0  0
   23.6048  -10.3178  -15.7240 C   0  0  2  0  0  0  0  0  0  0  0  0
   23.7733  -11.7199  -15.4931 N   0  0  0  0  0  0  0  0  0  0  0  0
   22.1845   -9.9396  -15.9441 C   0  0  0  0  0  0  0  0  0  0  0  0
   21.3569  -10.8474  -16.2108 O   0  0  0  0  0  0  0  0  0  0  0  0
   26.7121   -9.4468  -16.5091 C   0  0  0  0  0  0  0  0  0  0  0  0
   28.0448   -9.7997  -16.4634 C   0  0  0  0  0  0  0  0  0  0  0  0
   18.6580  -10.3574  -16.7312 N   0  0  0  0  0  0  0  0  0  0  0  0
   18.7133  -10.0105  -15.3757 C   0  0  0  0  0  0  0  0  0  0  0  0
   17.9875  -10.6359  -14.5484 O   0  0  0  0  0  0  0  0  0  0  0  0
   19.5790   -8.9443  -14.8596 C   0  0  0  0  0  0  0  0  0  0  0  0
   20.2877   -8.2616  -16.0157 C   0  0  2  0  0  0  0  0  0  0  0  0
   21.7134   -8.6175  -15.8702 N   0  0  0  0  0  0  0  0  0  0  0  0
   20.1557   -6.7864  -16.0081 C   0  0  0  0  0  0  0  0  0  0  0  0
   20.6753   -6.1599  -15.0296 O   0  0  0  0  0  0  0  0  0  0  0  0
   18.6026   -4.2456  -15.5703 C   0  0  0  0  0  0  0  0  0  0  0  0
   19.3728   -4.5411  -16.8106 C   0  0  2  0  0  0  0  0  0  0  0  0
   19.5088   -6.0055  -16.9866 N   0  0  0  0  0  0  0  0  0  0  0  0
   20.6779   -3.8753  -16.7439 C   0  0  0  0  0  0  0  0  0  0  0  0
   21.8693   -4.5662  -16.7404 O   0  0  0  0  0  0  0  0  0  0  0  0
   20.7047   -2.6255  -16.6873 O   0  0  0  0  0  0  0  0  0  0  0  0
  2 12  2  0
  2  1  1  0
  3  2  1  0
  4  5  1  0
  4  3  2  0
  5 11  2  0
  6  5  1  0
  7  6  1  0
  7  9  1  0
  7  8  1  6
  9 18  1  0
  9 10  2  0
 11 12  1  0
 14 13  1  0
 14 15  2  0
 16 14  1  0
 17 16  1  1
 18 17  1  0
 19 23  1  0
 19 17  1  0
 20 19  2  0
 22 21  1  1
 22 24  1  0
 22 23  1  0
 24 25  1  0
 26 24  2  0
M  END
$$$$
