YNA.pdb
     RDKit          3D

 26 26  0  0  1  0  0  0  0  0999 V2000
   27.4604  -36.0776  -13.3453 O   0  0  0  0  0  0  0  0  0  0  0  0
   27.0517  -35.3107  -12.2440 C   0  0  0  0  0  0  0  0  0  0  0  0
   26.4377  -34.0855  -12.3790 C   0  0  0  0  0  0  0  0  0  0  0  0
   26.0535  -33.3669  -11.2665 C   0  0  0  0  0  0  0  0  0  0  0  0
   26.2530  -33.8156   -9.9810 C   0  0  0  0  0  0  0  0  0  0  0  0
   25.8309  -33.0266   -8.7939 C   0  0  0  0  0  0  0  0  0  0  0  0
   24.5096  -33.5310   -8.2106 C   0  0  2  0  0  0  0  0  0  0  0  0
   23.4673  -32.7585   -8.8143 N   0  0  0  0  0  0  0  0  0  0  0  0
   24.6075  -33.3146   -6.7436 C   0  0  0  0  0  0  0  0  0  0  0  0
   24.5578  -32.1369   -6.3068 O   0  0  0  0  0  0  0  0  0  0  0  0
   26.8715  -35.0488   -9.8337 C   0  0  0  0  0  0  0  0  0  0  0  0
   27.2549  -35.7659  -10.9478 C   0  0  0  0  0  0  0  0  0  0  0  0
   24.1056  -33.1185   -1.8878 N   0  0  0  0  0  0  0  0  0  0  0  0
   23.1255  -33.8499   -2.5699 C   0  0  0  0  0  0  0  0  0  0  0  0
   21.9867  -34.0014   -2.0384 O   0  0  0  0  0  0  0  0  0  0  0  0
   23.3553  -34.4590   -3.8848 C   0  0  0  0  0  0  0  0  0  0  0  0
   24.7636  -34.1394   -4.3532 C   0  0  2  0  0  0  0  0  0  0  0  0
   24.7531  -34.3582   -5.8135 N   0  0  0  0  0  0  0  0  0  0  0  0
   25.8039  -34.9998   -3.7441 C   0  0  0  0  0  0  0  0  0  0  0  0
   25.7279  -36.2510   -3.9650 O   0  0  0  0  0  0  0  0  0  0  0  0
   29.0151  -34.8242   -1.8081 C   0  0  0  0  0  0  0  0  0  0  0  0
   27.8392  -35.5390   -2.3784 C   0  0  2  0  0  0  0  0  0  0  0  0
   26.8769  -34.5639   -2.9413 N   0  0  0  0  0  0  0  0  0  0  0  0
   27.2265  -36.3743   -1.3402 C   0  0  0  0  0  0  0  0  0  0  0  0
   27.8508  -37.4799   -0.8066 O   0  0  0  0  0  0  0  0  0  0  0  0
   26.0871  -36.0654   -0.9252 O   0  0  0  0  0  0  0  0  0  0  0  0
  2 12  2  0
  2  1  1  0
  3  2  1  0
  4  5  1  0
  4  3  2  0
  5 11  2  0
  6  5  1  0
  7  6  1  0
  7  9  1  0
  7  8  1  6
  9 18  1  0
  9 10  2  0
 11 12  1  0
 14 13  1  0
 14 15  2  0
 16 14  1  0
 17 16  1  1
 18 17  1  0
 19 23  1  0
 19 17  1  0
 20 19  2  0
 22 21  1  1
 22 24  1  0
 22 23  1  0
 24 25  1  0
 26 24  2  0
M  END
$$$$
