YNA.pdb
     RDKit          3D

 26 26  0  0  1  0  0  0  0  0999 V2000
   26.8873  -20.7299   -7.8349 O   0  0  0  0  0  0  0  0  0  0  0  0
   26.6226  -20.5944   -9.2059 C   0  0  0  0  0  0  0  0  0  0  0  0
   25.3642  -20.7621   -9.7395 C   0  0  0  0  0  0  0  0  0  0  0  0
   25.1520  -20.6191  -11.0945 C   0  0  0  0  0  0  0  0  0  0  0  0
   26.1579  -20.3071  -11.9800 C   0  0  0  0  0  0  0  0  0  0  0  0
   25.9091  -20.1562  -13.4379 C   0  0  0  0  0  0  0  0  0  0  0  0
   25.4103  -21.4561  -14.0719 C   0  0  2  0  0  0  0  0  0  0  0  0
   26.5567  -22.2903  -14.2654 N   0  0  0  0  0  0  0  0  0  0  0  0
   24.7670  -21.0600  -15.3516 C   0  0  0  0  0  0  0  0  0  0  0  0
   25.4997  -20.8520  -16.3516 O   0  0  0  0  0  0  0  0  0  0  0  0
   27.4300  -20.1366  -11.4530 C   0  0  0  0  0  0  0  0  0  0  0  0
   27.6401  -20.2801  -10.0973 C   0  0  0  0  0  0  0  0  0  0  0  0
   21.5460  -21.9449  -19.5771 N   0  0  0  0  0  0  0  0  0  0  0  0
   21.0761  -21.5198  -18.3284 C   0  0  0  0  0  0  0  0  0  0  0  0
   19.9765  -20.8963  -18.2623 O   0  0  0  0  0  0  0  0  0  0  0  0
   21.8038  -21.7616  -17.0776 C   0  0  0  0  0  0  0  0  0  0  0  0
   22.7425  -20.6002  -16.8037 C   0  0  2  0  0  0  0  0  0  0  0  0
   23.3787  -20.9044  -15.5064 N   0  0  0  0  0  0  0  0  0  0  0  0
   22.0579  -19.2901  -16.7098 C   0  0  0  0  0  0  0  0  0  0  0  0
   21.5443  -18.9803  -15.5872 O   0  0  0  0  0  0  0  0  0  0  0  0
   21.9556  -15.9507  -18.1702 C   0  0  0  0  0  0  0  0  0  0  0  0
   21.2181  -17.0659  -17.5134 C   0  0  2  0  0  0  0  0  0  0  0  0
   21.9222  -18.3477  -17.7485 N   0  0  0  0  0  0  0  0  0  0  0  0
   19.8399  -17.0998  -18.0137 C   0  0  0  0  0  0  0  0  0  0  0  0
   18.8588  -16.2476  -17.5575 O   0  0  0  0  0  0  0  0  0  0  0  0
   19.5477  -17.9413  -18.8925 O   0  0  0  0  0  0  0  0  0  0  0  0
  2 12  2  0
  2  1  1  0
  3  2  1  0
  4  5  1  0
  4  3  2  0
  5 11  2  0
  6  5  1  0
  7  6  1  0
  7  9  1  0
  7  8  1  6
  9 18  1  0
  9 10  2  0
 11 12  1  0
 14 13  1  0
 14 15  2  0
 16 14  1  0
 17 16  1  1
 18 17  1  0
 19 23  1  0
 19 17  1  0
 20 19  2  0
 22 21  1  6
 22 24  1  0
 22 23  1  0
 24 25  1  0
 26 24  2  0
M  END
$$$$
