YNA.pdb
     RDKit          3D

 26 26  0  0  1  0  0  0  0  0999 V2000
   25.0894  -11.7871  -21.4174 O   0  0  0  0  0  0  0  0  0  0  0  0
   24.5742  -12.9514  -20.8283 C   0  0  0  0  0  0  0  0  0  0  0  0
   24.0044  -12.9599  -19.5746 C   0  0  0  0  0  0  0  0  0  0  0  0
   23.5113  -14.1297  -19.0361 C   0  0  0  0  0  0  0  0  0  0  0  0
   23.5548  -15.3347  -19.6990 C   0  0  0  0  0  0  0  0  0  0  0  0
   23.0170  -16.5854  -19.1019 C   0  0  0  0  0  0  0  0  0  0  0  0
   23.9022  -17.1061  -17.9681 C   0  0  2  0  0  0  0  0  0  0  0  0
   25.1064  -17.5906  -18.5705 N   0  0  0  0  0  0  0  0  0  0  0  0
   23.1191  -18.1819  -17.3064 C   0  0  0  0  0  0  0  0  0  0  0  0
   23.1903  -19.3477  -17.7712 O   0  0  0  0  0  0  0  0  0  0  0  0
   24.1275  -15.3375  -20.9628 C   0  0  0  0  0  0  0  0  0  0  0  0
   24.6200  -14.1663  -21.4997 C   0  0  0  0  0  0  0  0  0  0  0  0
   21.6368  -21.1703  -13.0692 N   0  0  0  0  0  0  0  0  0  0  0  0
   21.2138  -19.8413  -13.1934 C   0  0  0  0  0  0  0  0  0  0  0  0
   20.1660  -19.4680  -12.5892 O   0  0  0  0  0  0  0  0  0  0  0  0
   21.9311  -18.8477  -14.0001 C   0  0  0  0  0  0  0  0  0  0  0  0
   21.6121  -19.0604  -15.4691 C   0  0  2  0  0  0  0  0  0  0  0  0
   22.2998  -17.9672  -16.1848 N   0  0  0  0  0  0  0  0  0  0  0  0
   20.1648  -19.0042  -15.7788 C   0  0  0  0  0  0  0  0  0  0  0  0
   19.6481  -17.8524  -15.9417 O   0  0  0  0  0  0  0  0  0  0  0  0
   17.4356  -20.6043  -17.3970 C   0  0  0  0  0  0  0  0  0  0  0  0
   17.8524  -19.9067  -16.1486 C   0  0  2  0  0  0  0  0  0  0  0  0
   19.3008  -20.1091  -15.9136 N   0  0  0  0  0  0  0  0  0  0  0  0
   17.0436  -20.3925  -15.0258 C   0  0  0  0  0  0  0  0  0  0  0  0
   15.7272  -20.0313  -14.8425 O   0  0  0  0  0  0  0  0  0  0  0  0
   17.5771  -21.1680  -14.2014 O   0  0  0  0  0  0  0  0  0  0  0  0
  2 12  2  0
  2  1  1  0
  3  2  1  0
  4  5  1  0
  4  3  2  0
  5 11  2  0
  6  5  1  0
  7  6  1  0
  7  9  1  0
  7  8  1  6
  9 18  1  0
  9 10  2  0
 11 12  1  0
 14 13  1  0
 14 15  2  0
 16 14  1  0
 17 16  1  1
 18 17  1  0
 19 23  1  0
 19 17  1  0
 20 19  2  0
 22 21  1  6
 22 24  1  0
 22 23  1  0
 24 25  1  0
 26 24  2  0
M  END
$$$$
