YNA.pdb
     RDKit          3D

 26 26  0  0  1  0  0  0  0  0999 V2000
   28.2725  -23.9651  -17.5023 O   0  0  0  0  0  0  0  0  0  0  0  0
   27.1301  -24.1216  -16.7032 C   0  0  0  0  0  0  0  0  0  0  0  0
   26.3263  -23.0635  -16.3413 C   0  0  0  0  0  0  0  0  0  0  0  0
   25.2128  -23.2659  -15.5534 C   0  0  0  0  0  0  0  0  0  0  0  0
   24.8408  -24.5066  -15.0891 C   0  0  0  0  0  0  0  0  0  0  0  0
   23.6358  -24.7048  -14.2413 C   0  0  0  0  0  0  0  0  0  0  0  0
   22.6758  -25.7339  -14.8410 C   0  0  2  0  0  0  0  0  0  0  0  0
   22.3977  -25.3116  -16.1796 N   0  0  0  0  0  0  0  0  0  0  0  0
   21.4704  -25.7156  -13.9719 C   0  0  0  0  0  0  0  0  0  0  0  0
   21.6170  -25.9151  -12.7394 O   0  0  0  0  0  0  0  0  0  0  0  0
   25.6441  -25.5796  -15.4475 C   0  0  0  0  0  0  0  0  0  0  0  0
   26.7575  -25.3750  -16.2356 C   0  0  0  0  0  0  0  0  0  0  0  0
   18.9906  -22.9648  -11.7198 N   0  0  0  0  0  0  0  0  0  0  0  0
   18.9968  -22.9992  -13.1196 C   0  0  0  0  0  0  0  0  0  0  0  0
   19.5873  -22.0788  -13.7571 O   0  0  0  0  0  0  0  0  0  0  0  0
   18.3436  -24.0601  -13.8945 C   0  0  0  0  0  0  0  0  0  0  0  0
   18.9893  -25.3956  -13.5717 C   0  0  2  0  0  0  0  0  0  0  0  0
   20.1701  -25.4866  -14.4536 N   0  0  0  0  0  0  0  0  0  0  0  0
   18.1087  -26.5596  -13.8232 C   0  0  0  0  0  0  0  0  0  0  0  0
   17.9297  -26.9037  -15.0356 O   0  0  0  0  0  0  0  0  0  0  0  0
   16.0685  -29.1567  -12.0210 C   0  0  0  0  0  0  0  0  0  0  0  0
   16.6176  -28.4907  -13.2350 C   0  0  2  0  0  0  0  0  0  0  0  0
   17.4484  -27.3284  -12.8441 N   0  0  0  0  0  0  0  0  0  0  0  0
   15.5135  -28.1008  -14.1182 C   0  0  0  0  0  0  0  0  0  0  0  0
   14.9486  -26.8449  -14.0976 O   0  0  0  0  0  0  0  0  0  0  0  0
   15.0689  -28.9495  -14.9231 O   0  0  0  0  0  0  0  0  0  0  0  0
  2 12  2  0
  2  1  1  0
  3  2  1  0
  4  5  1  0
  4  3  2  0
  5 11  2  0
  6  5  1  0
  7  6  1  0
  7  9  1  0
  7  8  1  6
  9 18  1  0
  9 10  2  0
 11 12  1  0
 14 13  1  0
 14 15  2  0
 16 14  1  0
 17 16  1  6
 18 17  1  0
 19 23  1  0
 19 17  1  0
 20 19  2  0
 22 21  1  1
 22 24  1  0
 22 23  1  0
 24 25  1  0
 26 24  2  0
M  END
$$$$
