YNA.pdb
     RDKit          3D

 26 26  0  0  1  0  0  0  0  0999 V2000
   25.5727  -20.3448   -7.7236 O   0  0  0  0  0  0  0  0  0  0  0  0
   25.2200  -20.2951   -9.0806 C   0  0  0  0  0  0  0  0  0  0  0  0
   23.9110  -20.2596   -9.5069 C   0  0  0  0  0  0  0  0  0  0  0  0
   23.6125  -20.2115  -10.8523 C   0  0  0  0  0  0  0  0  0  0  0  0
   24.5783  -20.1960  -11.8324 C   0  0  0  0  0  0  0  0  0  0  0  0
   24.2364  -20.1431  -13.2782 C   0  0  0  0  0  0  0  0  0  0  0  0
   23.9122  -21.5280  -13.8417 C   0  0  2  0  0  0  0  0  0  0  0  0
   25.1448  -22.0857  -14.3076 N   0  0  0  0  0  0  0  0  0  0  0  0
   22.9358  -21.2988  -14.9383 C   0  0  0  0  0  0  0  0  0  0  0  0
   23.3716  -20.9619  -16.0682 O   0  0  0  0  0  0  0  0  0  0  0  0
   25.9005  -20.2322  -11.4137 C   0  0  0  0  0  0  0  0  0  0  0  0
   26.1969  -20.2802  -10.0675 C   0  0  0  0  0  0  0  0  0  0  0  0
   20.8059  -23.3700  -18.6363 N   0  0  0  0  0  0  0  0  0  0  0  0
   21.1409  -23.2369  -17.2832 C   0  0  0  0  0  0  0  0  0  0  0  0
   22.2991  -23.5726  -16.8983 O   0  0  0  0  0  0  0  0  0  0  0  0
   20.2053  -22.7238  -16.2763 C   0  0  0  0  0  0  0  0  0  0  0  0
   20.5921  -21.3046  -15.9005 C   0  0  2  0  0  0  0  0  0  0  0  0
   21.5461  -21.4387  -14.7814 N   0  0  0  0  0  0  0  0  0  0  0  0
   19.4486  -20.4715  -15.4622 C   0  0  0  0  0  0  0  0  0  0  0  0
   19.0753  -20.5854  -14.2507 O   0  0  0  0  0  0  0  0  0  0  0  0
   17.0099  -17.9033  -16.7297 C   0  0  0  0  0  0  0  0  0  0  0  0
   17.5274  -18.8793  -15.7304 C   0  0  2  0  0  0  0  0  0  0  0  0
   18.7320  -19.5583  -16.2611 N   0  0  0  0  0  0  0  0  0  0  0  0
   16.4680  -19.8341  -15.3882 C   0  0  0  0  0  0  0  0  0  0  0  0
   15.5250  -19.5862  -14.4155 O   0  0  0  0  0  0  0  0  0  0  0  0
   16.4236  -20.9195  -16.0093 O   0  0  0  0  0  0  0  0  0  0  0  0
  2 12  2  0
  2  1  1  0
  3  2  1  0
  4  5  1  0
  4  3  2  0
  5 11  2  0
  6  5  1  0
  7  6  1  0
  7  9  1  0
  7  8  1  6
  9 18  1  0
  9 10  2  0
 11 12  1  0
 14 13  1  0
 14 15  2  0
 16 14  1  0
 17 16  1  1
 18 17  1  0
 19 23  1  0
 19 17  1  0
 20 19  2  0
 22 21  1  6
 22 24  1  0
 22 23  1  0
 24 25  1  0
 26 24  2  0
M  END
$$$$
