YNA.pdb
     RDKit          3D

 26 26  0  0  1  0  0  0  0  0999 V2000
   23.4561  -34.3353  -14.8910 O   0  0  0  0  0  0  0  0  0  0  0  0
   24.0664  -34.2560  -13.6303 C   0  0  0  0  0  0  0  0  0  0  0  0
   23.5411  -34.8630  -12.5113 C   0  0  0  0  0  0  0  0  0  0  0  0
   24.1767  -34.7572  -11.2922 C   0  0  0  0  0  0  0  0  0  0  0  0
   25.3479  -34.0562  -11.1179 C   0  0  0  0  0  0  0  0  0  0  0  0
   26.0189  -33.9543   -9.7952 C   0  0  0  0  0  0  0  0  0  0  0  0
   25.1515  -33.2256   -8.7671 C   0  0  2  0  0  0  0  0  0  0  0  0
   25.0928  -31.8540   -9.1707 N   0  0  0  0  0  0  0  0  0  0  0  0
   25.8344  -33.4098   -7.4601 C   0  0  0  0  0  0  0  0  0  0  0  0
   26.4183  -32.4232   -6.9445 O   0  0  0  0  0  0  0  0  0  0  0  0
   25.8855  -33.4402  -12.2388 C   0  0  0  0  0  0  0  0  0  0  0  0
   25.2481  -33.5473  -13.4574 C   0  0  0  0  0  0  0  0  0  0  0  0
   27.3006  -32.0266   -4.0448 N   0  0  0  0  0  0  0  0  0  0  0  0
   26.4936  -33.0933   -3.6305 C   0  0  0  0  0  0  0  0  0  0  0  0
   26.5299  -33.4608   -2.4198 O   0  0  0  0  0  0  0  0  0  0  0  0
   25.5988  -33.8171   -4.5404 C   0  0  0  0  0  0  0  0  0  0  0  0
   26.4108  -34.7685   -5.4008 C   0  0  2  0  0  0  0  0  0  0  0  0
   25.8637  -34.6314   -6.7655 N   0  0  0  0  0  0  0  0  0  0  0  0
   26.3100  -36.1853   -4.9810 C   0  0  0  0  0  0  0  0  0  0  0  0
   25.1413  -36.6669   -4.8314 O   0  0  0  0  0  0  0  0  0  0  0  0
   28.4123  -39.2194   -4.2852 C   0  0  0  0  0  0  0  0  0  0  0  0
   27.1460  -38.4358   -4.2498 C   0  0  2  0  0  0  0  0  0  0  0  0
   27.3891  -37.0566   -4.7322 N   0  0  0  0  0  0  0  0  0  0  0  0
   26.6020  -38.4504   -2.8879 C   0  0  0  0  0  0  0  0  0  0  0  0
   25.9762  -39.5509   -2.3456 O   0  0  0  0  0  0  0  0  0  0  0  0
   26.7133  -37.4158   -2.1929 O   0  0  0  0  0  0  0  0  0  0  0  0
  2 12  2  0
  2  1  1  0
  3  2  1  0
  4  5  1  0
  4  3  2  0
  5 11  2  0
  6  5  1  0
  7  6  1  0
  7  9  1  0
  7  8  1  6
  9 18  1  0
  9 10  2  0
 11 12  1  0
 14 13  1  0
 14 15  2  0
 16 14  1  0
 17 16  1  1
 18 17  1  0
 19 23  1  0
 19 17  1  0
 20 19  2  0
 22 21  1  1
 22 24  1  0
 22 23  1  0
 24 25  1  0
 26 24  2  0
M  END
$$$$
