YNA.pdb
     RDKit          3D

 26 26  0  0  1  0  0  0  0  0999 V2000
   20.1521  -10.7498  -22.7735 O   0  0  0  0  0  0  0  0  0  0  0  0
   19.5337  -11.5265  -21.7823 C   0  0  0  0  0  0  0  0  0  0  0  0
   20.0594  -12.7192  -21.3379 C   0  0  0  0  0  0  0  0  0  0  0  0
   19.4154  -13.4489  -20.3609 C   0  0  0  0  0  0  0  0  0  0  0  0
   18.2354  -13.0436  -19.7805 C   0  0  0  0  0  0  0  0  0  0  0  0
   17.5564  -13.8440  -18.7278 C   0  0  0  0  0  0  0  0  0  0  0  0
   18.1250  -13.5606  -17.3361 C   0  0  2  0  0  0  0  0  0  0  0  0
   17.6472  -14.5973  -16.4733 N   0  0  0  0  0  0  0  0  0  0  0  0
   17.6133  -12.2178  -16.9570 C   0  0  0  0  0  0  0  0  0  0  0  0
   16.4594  -11.8884  -17.3315 O   0  0  0  0  0  0  0  0  0  0  0  0
   17.6968  -11.8434  -20.2216 C   0  0  0  0  0  0  0  0  0  0  0  0
   18.3426  -11.1151  -21.1988 C   0  0  0  0  0  0  0  0  0  0  0  0
   16.5470   -7.6169  -15.2110 N   0  0  0  0  0  0  0  0  0  0  0  0
   15.9405   -8.8313  -14.8672 C   0  0  0  0  0  0  0  0  0  0  0  0
   14.8159   -8.8169  -14.2865 O   0  0  0  0  0  0  0  0  0  0  0  0
   16.5512  -10.1356  -15.1473 C   0  0  0  0  0  0  0  0  0  0  0  0
   17.8610   -9.9343  -15.8880 C   0  0  2  0  0  0  0  0  0  0  0  0
   18.3511  -11.2919  -16.1995 N   0  0  0  0  0  0  0  0  0  0  0  0
   18.8894   -9.2201  -15.0968 C   0  0  0  0  0  0  0  0  0  0  0  0
   18.5947   -8.0564  -14.6736 O   0  0  0  0  0  0  0  0  0  0  0  0
   22.3684   -9.6251  -13.7255 C   0  0  0  0  0  0  0  0  0  0  0  0
   21.1383   -8.8488  -14.0465 C   0  0  2  0  0  0  0  0  0  0  0  0
   20.1685   -9.7086  -14.7636 N   0  0  0  0  0  0  0  0  0  0  0  0
   21.5010   -7.6633  -14.8300 C   0  0  0  0  0  0  0  0  0  0  0  0
   21.0922   -7.4746  -16.1316 O   0  0  0  0  0  0  0  0  0  0  0  0
   22.2133   -6.7886  -14.2882 O   0  0  0  0  0  0  0  0  0  0  0  0
  2 12  2  0
  2  1  1  0
  3  2  1  0
  4  5  1  0
  4  3  2  0
  5 11  2  0
  6  5  1  0
  7  6  1  0
  7  9  1  0
  7  8  1  1
  9 18  1  0
  9 10  2  0
 11 12  1  0
 14 13  1  0
 14 15  2  0
 16 14  1  0
 17 16  1  1
 18 17  1  0
 19 23  1  0
 19 17  1  0
 20 19  2  0
 22 21  1  6
 22 24  1  0
 22 23  1  0
 24 25  1  0
 26 24  2  0
M  END
$$$$
