YNA.pdb
     RDKit          3D

 26 26  0  0  1  0  0  0  0  0999 V2000
   16.9501  -21.0949  -15.8578 O   0  0  0  0  0  0  0  0  0  0  0  0
   17.6409  -22.0033  -15.0418 C   0  0  0  0  0  0  0  0  0  0  0  0
   18.2578  -21.6278  -13.8693 C   0  0  0  0  0  0  0  0  0  0  0  0
   18.9259  -22.5565  -13.0995 C   0  0  0  0  0  0  0  0  0  0  0  0
   19.0176  -23.8858  -13.4433 C   0  0  0  0  0  0  0  0  0  0  0  0
   19.7418  -24.8725  -12.5995 C   0  0  0  0  0  0  0  0  0  0  0  0
   18.7901  -25.6726  -11.7083 C   0  0  2  0  0  0  0  0  0  0  0  0
   18.3403  -24.7857  -10.6794 N   0  0  0  0  0  0  0  0  0  0  0  0
   19.5914  -26.8064  -11.1780 C   0  0  0  0  0  0  0  0  0  0  0  0
   20.1257  -26.6853  -10.0467 O   0  0  0  0  0  0  0  0  0  0  0  0
   18.4000  -24.2747  -14.6233 C   0  0  0  0  0  0  0  0  0  0  0  0
   17.7322  -23.3441  -15.3918 C   0  0  0  0  0  0  0  0  0  0  0  0
   21.4599  -31.3109   -9.8550 N   0  0  0  0  0  0  0  0  0  0  0  0
   20.3247  -30.6596   -9.3571 C   0  0  0  0  0  0  0  0  0  0  0  0
   19.8391  -31.0272   -8.2475 O   0  0  0  0  0  0  0  0  0  0  0  0
   19.6601  -29.5605  -10.0663 C   0  0  0  0  0  0  0  0  0  0  0  0
   20.4760  -29.1778  -11.2881 C   0  0  2  0  0  0  0  0  0  0  0  0
   19.7856  -28.0117  -11.8744 N   0  0  0  0  0  0  0  0  0  0  0  0
   20.5622  -30.2496  -12.3067 C   0  0  0  0  0  0  0  0  0  0  0  0
   19.4672  -30.6902  -12.7829 O   0  0  0  0  0  0  0  0  0  0  0  0
   23.0616  -31.9153  -14.5403 C   0  0  0  0  0  0  0  0  0  0  0  0
   21.7013  -31.7633  -13.9527 C   0  0  2  0  0  0  0  0  0  0  0  0
   21.7463  -30.8297  -12.8038 N   0  0  0  0  0  0  0  0  0  0  0  0
   21.1877  -33.0815  -13.5658 C   0  0  0  0  0  0  0  0  0  0  0  0
   20.8766  -34.0604  -14.4834 O   0  0  0  0  0  0  0  0  0  0  0  0
   21.0266  -33.3221  -12.3485 O   0  0  0  0  0  0  0  0  0  0  0  0
  2 12  2  0
  2  1  1  0
  3  2  1  0
  4  5  1  0
  4  3  2  0
  5 11  2  0
  6  5  1  0
  7  6  1  0
  7  9  1  0
  7  8  1  1
  9 18  1  0
  9 10  2  0
 11 12  1  0
 14 13  1  0
 14 15  2  0
 16 14  1  0
 17 16  1  1
 18 17  1  0
 19 23  1  0
 19 17  1  0
 20 19  2  0
 22 21  1  1
 22 24  1  0
 22 23  1  0
 24 25  1  0
 26 24  2  0
M  END
$$$$
