YNA.pdb
     RDKit          3D

 26 26  0  0  1  0  0  0  0  0999 V2000
   29.2749  -19.2933   -3.6941 O   0  0  0  0  0  0  0  0  0  0  0  0
   28.8261  -19.6302   -4.9799 C   0  0  0  0  0  0  0  0  0  0  0  0
   27.7600  -19.0008   -5.5830 C   0  0  0  0  0  0  0  0  0  0  0  0
   27.3543  -19.3664   -6.8492 C   0  0  0  0  0  0  0  0  0  0  0  0
   27.9724  -20.3587   -7.5750 C   0  0  0  0  0  0  0  0  0  0  0  0
   27.5208  -20.7382   -8.9396 C   0  0  0  0  0  0  0  0  0  0  0  0
   26.1385  -20.1692   -9.2649 C   0  0  2  0  0  0  0  0  0  0  0  0
   25.1766  -21.0944   -8.7489 N   0  0  0  0  0  0  0  0  0  0  0  0
   26.0874  -20.0552  -10.7457 C   0  0  0  0  0  0  0  0  0  0  0  0
   26.9144  -19.3008  -11.3177 O   0  0  0  0  0  0  0  0  0  0  0  0
   29.0474  -20.9998   -6.9763 C   0  0  0  0  0  0  0  0  0  0  0  0
   29.4516  -20.6325   -5.7098 C   0  0  0  0  0  0  0  0  0  0  0  0
   27.3048  -19.5494  -14.2751 N   0  0  0  0  0  0  0  0  0  0  0  0
   27.2228  -20.9426  -14.1600 C   0  0  0  0  0  0  0  0  0  0  0  0
   28.1794  -21.6543  -14.5848 O   0  0  0  0  0  0  0  0  0  0  0  0
   26.0689  -21.6276  -13.5668 C   0  0  0  0  0  0  0  0  0  0  0  0
   25.0979  -20.6001  -13.0134 C   0  0  2  0  0  0  0  0  0  0  0  0
   25.1617  -20.7471  -11.5455 N   0  0  0  0  0  0  0  0  0  0  0  0
   23.6995  -20.8017  -13.4580 C   0  0  0  0  0  0  0  0  0  0  0  0
   23.1520  -21.9147  -13.1723 O   0  0  0  0  0  0  0  0  0  0  0  0
   21.6604  -21.4102  -15.5818 C   0  0  0  0  0  0  0  0  0  0  0  0
   21.5638  -20.2486  -14.6543 C   0  0  2  0  0  0  0  0  0  0  0  0
   22.9119  -19.8739  -14.1684 N   0  0  0  0  0  0  0  0  0  0  0  0
   20.6578  -20.5809  -13.5500 C   0  0  0  0  0  0  0  0  0  0  0  0
   20.6345  -19.8780  -12.3658 O   0  0  0  0  0  0  0  0  0  0  0  0
   19.8744  -21.5459  -13.6946 O   0  0  0  0  0  0  0  0  0  0  0  0
  2 12  2  0
  2  1  1  0
  3  2  1  0
  4  5  1  0
  4  3  2  0
  5 11  2  0
  6  5  1  0
  7  6  1  0
  7  9  1  0
  7  8  1  6
  9 18  1  0
  9 10  2  0
 11 12  1  0
 14 13  1  0
 14 15  2  0
 16 14  1  0
 17 16  1  6
 18 17  1  0
 19 23  1  0
 19 17  1  0
 20 19  2  0
 22 21  1  6
 22 24  1  0
 22 23  1  0
 24 25  1  0
 26 24  2  0
M  END
$$$$
