CHA.pdb
     RDKit          3D

 22 22  0  0  1  0  0  0  0  0999 V2000
    7.7430  -13.5463   16.9040 N   0  0  0  0  0  0  0  0  0  0  0  0
    8.4302  -13.2098   18.1278 C   0  0  1  0  0  0  0  0  0  0  0  0
    7.4106  -12.7728   19.1465 C   0  0  0  0  0  0  0  0  0  0  0  0
    8.3291  -12.3786   20.6766 S   0  0  0  0  0  0  0  0  0  0  0  0
    9.2623  -14.3449   18.6062 C   0  0  0  0  0  0  0  0  0  0  0  0
    8.7723  -15.4923   18.5709 O   0  0  0  0  0  0  0  0  0  0  0  0
   10.5835  -14.1720   19.0979 N   0  0  0  0  0  0  0  0  0  0  0  0
   11.3449  -15.2913   19.5928 C   0  0  1  0  0  0  0  0  0  0  0  0
   12.7993  -15.2103   19.1564 C   0  0  0  0  0  0  0  0  0  0  0  0
   13.0768  -15.9306   17.9222 C   0  0  0  0  0  0  0  0  0  0  0  0
   12.1676  -16.3097   16.9599 C   0  0  0  0  0  0  0  0  0  0  0  0
   12.8264  -16.9644   15.9586 N   0  0  0  0  0  0  0  0  0  0  0  0
   14.1180  -16.9915   16.2921 C   0  0  0  0  0  0  0  0  0  0  0  0
   14.2701  -16.3584   17.4942 N   0  0  0  0  0  0  0  0  0  0  0  0
   11.3745  -15.2868   21.1006 C   0  0  0  0  0  0  0  0  0  0  0  0
   11.7753  -14.2627   21.7109 O   0  0  0  0  0  0  0  0  0  0  0  0
    9.7947  -16.9351   23.8707 C   0  0  0  0  0  0  0  0  0  0  0  0
   11.0911  -16.3845   23.2852 C   0  0  2  0  0  0  0  0  0  0  0  0
   10.9598  -16.4144   21.8598 N   0  0  0  0  0  0  0  0  0  0  0  0
   12.2364  -17.1824   23.7730 C   0  0  0  0  0  0  0  0  0  0  0  0
   12.8602  -17.9722   23.0217 O   0  0  0  0  0  0  0  0  0  0  0  0
   12.6520  -17.0741   25.0888 O   0  0  0  0  0  0  0  0  0  0  0  0
  2  1  1  6
  2  5  1  0
  2  3  1  0
  3  4  1  0
  5  7  1  0
  6  5  2  0
  7  8  1  0
  8 15  1  0
  9 10  1  0
  8  9  1  6
 10 11  2  0
 12 11  1  0
 13 12  1  0
 14 13  2  0
 14 10  1  0
 15 16  2  0
 15 19  1  0
 18 17  1  1
 18 20  1  0
 19 18  1  0
 20 22  1  0
 21 20  2  0
M  END
$$$$
