CHA.pdb
     RDKit          3D

 22 22  0  0  1  0  0  0  0  0999 V2000
    6.5717  -19.8807   18.4877 N   0  0  0  0  0  0  0  0  0  0  0  0
    6.6620  -19.1556   19.7324 C   0  0  1  0  0  0  0  0  0  0  0  0
    6.6608  -20.1466   20.8666 C   0  0  0  0  0  0  0  0  0  0  0  0
    6.8524  -19.1841   22.4083 S   0  0  0  0  0  0  0  0  0  0  0  0
    7.8551  -18.2692   19.7525 C   0  0  0  0  0  0  0  0  0  0  0  0
    8.9325  -18.7192   19.3114 O   0  0  0  0  0  0  0  0  0  0  0  0
    7.8133  -16.9400   20.2513 N   0  0  0  0  0  0  0  0  0  0  0  0
    8.9665  -16.0792   20.1703 C   0  0  1  0  0  0  0  0  0  0  0  0
    8.5688  -14.6461   19.8528 C   0  0  0  0  0  0  0  0  0  0  0  0
    8.2907  -14.4192   18.4421 C   0  0  0  0  0  0  0  0  0  0  0  0
    8.4368  -15.3208   17.4115 C   0  0  0  0  0  0  0  0  0  0  0  0
    8.0713  -14.7210   16.2403 N   0  0  0  0  0  0  0  0  0  0  0  0
    7.7057  -13.4726   16.5371 C   0  0  0  0  0  0  0  0  0  0  0  0
    7.8404  -13.2890   17.8852 N   0  0  0  0  0  0  0  0  0  0  0  0
    9.6754  -16.0166   21.4999 C   0  0  0  0  0  0  0  0  0  0  0  0
    9.0689  -15.5692   22.5068 O   0  0  0  0  0  0  0  0  0  0  0  0
   11.6331  -17.7747   23.5343 C   0  0  0  0  0  0  0  0  0  0  0  0
   11.6406  -16.3704   22.9390 C   0  0  2  0  0  0  0  0  0  0  0  0
   11.0199  -16.4516   21.6513 N   0  0  0  0  0  0  0  0  0  0  0  0
   13.0280  -15.8631   22.8766 C   0  0  0  0  0  0  0  0  0  0  0  0
   13.6202  -15.6893   21.7827 O   0  0  0  0  0  0  0  0  0  0  0  0
   13.7145  -15.5642   24.0406 O   0  0  0  0  0  0  0  0  0  0  0  0
  2  1  1  6
  2  5  1  0
  2  3  1  0
  3  4  1  0
  5  7  1  0
  6  5  2  0
  7  8  1  0
  8 15  1  0
  9 10  1  0
  8  9  1  1
 10 11  2  0
 12 11  1  0
 13 12  1  0
 14 13  2  0
 14 10  1  0
 15 16  2  0
 15 19  1  0
 18 17  1  6
 18 20  1  0
 19 18  1  0
 20 22  1  0
 21 20  2  0
M  END
$$$$
