CHA.pdb
     RDKit          3D

 22 22  0  0  1  0  0  0  0  0999 V2000
    8.2686  -14.6811   16.7060 N   0  0  0  0  0  0  0  0  0  0  0  0
    9.0859  -14.4856   17.8794 C   0  0  1  0  0  0  0  0  0  0  0  0
    9.2349  -13.0063   18.1198 C   0  0  0  0  0  0  0  0  0  0  0  0
    7.6428  -12.4191   18.7982 S   0  0  0  0  0  0  0  0  0  0  0  0
    8.5189  -15.1987   19.0540 C   0  0  0  0  0  0  0  0  0  0  0  0
    7.2882  -15.4045   19.0822 O   0  0  0  0  0  0  0  0  0  0  0  0
    9.3206  -15.6504   20.1359 N   0  0  0  0  0  0  0  0  0  0  0  0
    8.7502  -16.4192   21.2134 C   0  0  1  0  0  0  0  0  0  0  0  0
    9.2911  -17.8404   21.2288 C   0  0  0  0  0  0  0  0  0  0  0  0
    8.6456  -18.7185   20.2638 C   0  0  0  0  0  0  0  0  0  0  0  0
    7.2940  -18.9345   20.1122 C   0  0  0  0  0  0  0  0  0  0  0  0
    7.0972  -19.8275   19.0978 N   0  0  0  0  0  0  0  0  0  0  0  0
    8.3015  -20.1593   18.6290 C   0  0  0  0  0  0  0  0  0  0  0  0
    9.2486  -19.4799   19.3435 N   0  0  0  0  0  0  0  0  0  0  0  0
    9.1318  -15.8271   22.5468 C   0  0  0  0  0  0  0  0  0  0  0  0
   10.3405  -15.5837   22.7953 O   0  0  0  0  0  0  0  0  0  0  0  0
    7.3399  -14.3061   25.4099 C   0  0  0  0  0  0  0  0  0  0  0  0
    8.5754  -14.9321   24.7710 C   0  0  2  0  0  0  0  0  0  0  0  0
    8.1588  -15.5330   23.5401 N   0  0  0  0  0  0  0  0  0  0  0  0
    9.1826  -15.9026   25.7069 C   0  0  0  0  0  0  0  0  0  0  0  0
    9.1383  -17.1401   25.4975 O   0  0  0  0  0  0  0  0  0  0  0  0
    9.8228  -15.4608   26.8518 O   0  0  0  0  0  0  0  0  0  0  0  0
  2  1  1  6
  2  5  1  0
  2  3  1  0
  3  4  1  0
  5  7  1  0
  6  5  2  0
  7  8  1  0
  8 15  1  0
  9 10  1  0
  8  9  1  1
 10 11  2  0
 12 11  1  0
 13 12  1  0
 14 13  2  0
 14 10  1  0
 15 16  2  0
 15 19  1  0
 18 17  1  1
 18 20  1  0
 19 18  1  0
 20 22  1  0
 21 20  2  0
M  END
$$$$
