CHA.pdb
     RDKit          3D

 22 22  0  0  1  0  0  0  0  0999 V2000
   10.9912  -17.5355   16.4412 N   0  0  0  0  0  0  0  0  0  0  0  0
   10.3527  -18.2188   17.5406 C   0  0  1  0  0  0  0  0  0  0  0  0
   10.9425  -19.5998   17.6552 C   0  0  0  0  0  0  0  0  0  0  0  0
   10.0232  -20.6647   16.4886 S   0  0  0  0  0  0  0  0  0  0  0  0
   10.4761  -17.4408   18.8012 C   0  0  0  0  0  0  0  0  0  0  0  0
   11.5193  -16.7815   18.9884 O   0  0  0  0  0  0  0  0  0  0  0  0
    9.4584  -17.4210   19.7917 N   0  0  0  0  0  0  0  0  0  0  0  0
    9.5765  -16.5882   20.9622 C   0  0  1  0  0  0  0  0  0  0  0  0
    8.2912  -15.8208   21.2298 C   0  0  0  0  0  0  0  0  0  0  0  0
    7.9861  -14.8253   20.2125 C   0  0  0  0  0  0  0  0  0  0  0  0
    8.3161  -13.4886   20.2337 C   0  0  0  0  0  0  0  0  0  0  0  0
    7.8497  -12.8970   19.0945 N   0  0  0  0  0  0  0  0  0  0  0  0
    7.2426  -13.8466   18.3805 C   0  0  0  0  0  0  0  0  0  0  0  0
    7.3267  -15.0266   19.0658 N   0  0  0  0  0  0  0  0  0  0  0  0
    9.8072  -17.4312   22.1912 C   0  0  0  0  0  0  0  0  0  0  0  0
    9.1424  -18.4864   22.3544 O   0  0  0  0  0  0  0  0  0  0  0  0
   12.3458  -17.6085   24.8729 C   0  0  0  0  0  0  0  0  0  0  0  0
   10.9667  -17.9277   24.3047 C   0  0  2  0  0  0  0  0  0  0  0  0
   10.7612  -17.0666   23.1794 N   0  0  0  0  0  0  0  0  0  0  0  0
    9.9420  -17.7527   25.3561 C   0  0  0  0  0  0  0  0  0  0  0  0
    9.0899  -16.8315   25.3026 O   0  0  0  0  0  0  0  0  0  0  0  0
    9.8992  -18.6138   26.4388 O   0  0  0  0  0  0  0  0  0  0  0  0
  2  1  1  6
  2  5  1  0
  2  3  1  0
  3  4  1  0
  5  7  1  0
  6  5  2  0
  7  8  1  0
  8 15  1  0
  9 10  1  0
  8  9  1  1
 10 11  2  0
 12 11  1  0
 13 12  1  0
 14 13  2  0
 14 10  1  0
 15 16  2  0
 15 19  1  0
 18 17  1  1
 18 20  1  0
 19 18  1  0
 20 22  1  0
 21 20  2  0
M  END
$$$$
