CHA.pdb
     RDKit          3D

 22 22  0  0  1  0  0  0  0  0999 V2000
    7.8378  -14.6183   16.1675 N   0  0  0  0  0  0  0  0  0  0  0  0
    8.4291  -14.1498   17.3979 C   0  0  1  0  0  0  0  0  0  0  0  0
    7.6673  -12.9377   17.8658 C   0  0  0  0  0  0  0  0  0  0  0  0
    8.3438  -12.4891   19.5032 S   0  0  0  0  0  0  0  0  0  0  0  0
    8.4668  -15.2280   18.4206 C   0  0  0  0  0  0  0  0  0  0  0  0
    7.5050  -16.0215   18.4777 O   0  0  0  0  0  0  0  0  0  0  0  0
    9.5486  -15.3861   19.3272 N   0  0  0  0  0  0  0  0  0  0  0  0
    9.5431  -16.4356   20.3151 C   0  0  1  0  0  0  0  0  0  0  0  0
   10.7417  -17.3573   20.1532 C   0  0  0  0  0  0  0  0  0  0  0  0
   10.7378  -18.4834   21.0757 C   0  0  0  0  0  0  0  0  0  0  0  0
    9.8123  -18.7463   22.0609 C   0  0  0  0  0  0  0  0  0  0  0  0
   10.1646  -19.8969   22.7068 N   0  0  0  0  0  0  0  0  0  0  0  0
   11.2857  -20.3396   22.1346 C   0  0  0  0  0  0  0  0  0  0  0  0
   11.6356  -19.4736   21.1363 N   0  0  0  0  0  0  0  0  0  0  0  0
    9.6623  -15.8576   21.7029 C   0  0  0  0  0  0  0  0  0  0  0  0
   10.6122  -15.0783   21.9717 O   0  0  0  0  0  0  0  0  0  0  0  0
    7.4844  -15.1610   24.4903 C   0  0  0  0  0  0  0  0  0  0  0  0
    8.8755  -15.5703   24.0173 C   0  0  2  0  0  0  0  0  0  0  0  0
    8.7258  -16.1692   22.7255 N   0  0  0  0  0  0  0  0  0  0  0  0
    9.4893  -16.4830   25.0055 C   0  0  0  0  0  0  0  0  0  0  0  0
    9.6364  -17.7083   24.7722 O   0  0  0  0  0  0  0  0  0  0  0  0
    9.9215  -15.9988   26.2280 O   0  0  0  0  0  0  0  0  0  0  0  0
  2  1  1  6
  2  5  1  0
  2  3  1  0
  3  4  1  0
  5  7  1  0
  6  5  2  0
  7  8  1  0
  8 15  1  0
  9 10  1  0
  8  9  1  6
 10 11  2  0
 12 11  1  0
 13 12  1  0
 14 13  2  0
 14 10  1  0
 15 16  2  0
 15 19  1  0
 18 17  1  1
 18 20  1  0
 19 18  1  0
 20 22  1  0
 21 20  2  0
M  END
$$$$
