CHA.pdb
     RDKit          3D

 22 22  0  0  1  0  0  0  0  0999 V2000
    7.1898  -15.6302   19.1065 N   0  0  0  0  0  0  0  0  0  0  0  0
    7.7358  -14.7512   20.1126 C   0  0  1  0  0  0  0  0  0  0  0  0
    7.3509  -13.3352   19.7733 C   0  0  0  0  0  0  0  0  0  0  0  0
    8.6108  -12.7115   18.6054 S   0  0  0  0  0  0  0  0  0  0  0  0
    7.2915  -15.1510   21.4737 C   0  0  0  0  0  0  0  0  0  0  0  0
    6.0846  -15.4187   21.6460 O   0  0  0  0  0  0  0  0  0  0  0  0
    8.1834  -15.2386   22.5755 N   0  0  0  0  0  0  0  0  0  0  0  0
    7.7064  -15.5771   23.8928 C   0  0  1  0  0  0  0  0  0  0  0  0
    8.2481  -16.9220   24.3513 C   0  0  0  0  0  0  0  0  0  0  0  0
    7.6467  -18.0557   23.6642 C   0  0  0  0  0  0  0  0  0  0  0  0
    6.4897  -18.7175   24.0100 C   0  0  0  0  0  0  0  0  0  0  0  0
    6.2669  -19.7228   23.1128 N   0  0  0  0  0  0  0  0  0  0  0  0
    7.2648  -19.6862   22.2280 C   0  0  0  0  0  0  0  0  0  0  0  0
    8.1088  -18.6653   22.5665 N   0  0  0  0  0  0  0  0  0  0  0  0
    8.1983  -14.5761   24.9079 C   0  0  0  0  0  0  0  0  0  0  0  0
    9.4190  -14.2752   24.9426 O   0  0  0  0  0  0  0  0  0  0  0  0
    6.7232  -12.0939   27.1950 C   0  0  0  0  0  0  0  0  0  0  0  0
    7.8480  -13.0475   26.8049 C   0  0  2  0  0  0  0  0  0  0  0  0
    7.3167  -13.9566   25.8348 N   0  0  0  0  0  0  0  0  0  0  0  0
    8.3623  -13.7310   28.0110 C   0  0  0  0  0  0  0  0  0  0  0  0
    8.8721  -13.0938   28.9656 O   0  0  0  0  0  0  0  0  0  0  0  0
    8.2918  -15.1094   28.1151 O   0  0  0  0  0  0  0  0  0  0  0  0
  2  1  1  6
  2  5  1  0
  2  3  1  0
  3  4  1  0
  5  7  1  0
  6  5  2  0
  7  8  1  0
  8 15  1  0
  9 10  1  0
  8  9  1  1
 10 11  2  0
 12 11  1  0
 13 12  1  0
 14 13  2  0
 14 10  1  0
 15 16  2  0
 15 19  1  0
 18 17  1  1
 18 20  1  0
 19 18  1  0
 20 22  1  0
 21 20  2  0
M  END
$$$$
