CHA.pdb
     RDKit          3D

 22 22  0  0  1  0  0  0  0  0999 V2000
    7.0681  -15.9496   19.6936 N   0  0  0  0  0  0  0  0  0  0  0  0
    7.7966  -15.1127   20.6168 C   0  0  1  0  0  0  0  0  0  0  0  0
    7.5647  -13.6719   20.2443 C   0  0  0  0  0  0  0  0  0  0  0  0
    8.6179  -12.6657   21.3481 S   0  0  0  0  0  0  0  0  0  0  0  0
    7.4148  -15.4054   22.0233 C   0  0  0  0  0  0  0  0  0  0  0  0
    6.2287  -15.2192   22.3642 O   0  0  0  0  0  0  0  0  0  0  0  0
    8.3435  -15.8852   22.9848 N   0  0  0  0  0  0  0  0  0  0  0  0
    7.9457  -16.1191   24.3503 C   0  0  1  0  0  0  0  0  0  0  0  0
    8.0052  -17.5977   24.7007 C   0  0  0  0  0  0  0  0  0  0  0  0
    6.9646  -18.3891   24.0606 C   0  0  0  0  0  0  0  0  0  0  0  0
    5.9191  -17.9224   23.2954 C   0  0  0  0  0  0  0  0  0  0  0  0
    5.1651  -18.9821   22.8785 N   0  0  0  0  0  0  0  0  0  0  0  0
    5.7304  -20.0841   23.3745 C   0  0  0  0  0  0  0  0  0  0  0  0
    6.8319  -19.7199   24.0979 N   0  0  0  0  0  0  0  0  0  0  0  0
    8.8966  -15.4394   25.3032 C   0  0  0  0  0  0  0  0  0  0  0  0
   10.1357  -15.5071   25.0980 O   0  0  0  0  0  0  0  0  0  0  0  0
    8.6562  -13.1107   28.1788 C   0  0  0  0  0  0  0  0  0  0  0  0
    9.3826  -14.1684   27.3541 C   0  0  2  0  0  0  0  0  0  0  0  0
    8.4314  -14.7182   26.4360 N   0  0  0  0  0  0  0  0  0  0  0  0
    9.9671  -15.1864   28.2532 C   0  0  0  0  0  0  0  0  0  0  0  0
    9.5275  -16.3621   28.2957 O   0  0  0  0  0  0  0  0  0  0  0  0
   11.0280  -14.8601   29.0801 O   0  0  0  0  0  0  0  0  0  0  0  0
  2  1  1  6
  2  5  1  0
  2  3  1  0
  3  4  1  0
  5  7  1  0
  6  5  2  0
  7  8  1  0
  8 15  1  0
  9 10  1  0
  8  9  1  1
 10 11  2  0
 12 11  1  0
 13 12  1  0
 14 13  2  0
 14 10  1  0
 15 16  2  0
 15 19  1  0
 18 17  1  1
 18 20  1  0
 19 18  1  0
 20 22  1  0
 21 20  2  0
M  END
$$$$
