CHA.pdb
     RDKit          3D

 22 22  0  0  1  0  0  0  0  0999 V2000
    5.2297  -13.1632   25.8009 N   0  0  0  0  0  0  0  0  0  0  0  0
    6.6334  -12.9874   25.5149 C   0  0  1  0  0  0  0  0  0  0  0  0
    7.3517  -12.6843   26.8035 C   0  0  0  0  0  0  0  0  0  0  0  0
    6.8763  -10.9869   27.2859 S   0  0  0  0  0  0  0  0  0  0  0  0
    7.1924  -14.1752   24.8175 C   0  0  0  0  0  0  0  0  0  0  0  0
    6.6455  -15.2814   25.0046 O   0  0  0  0  0  0  0  0  0  0  0  0
    8.3168  -14.0971   23.9534 N   0  0  0  0  0  0  0  0  0  0  0  0
    8.7958  -15.2602   23.2498 C   0  0  1  0  0  0  0  0  0  0  0  0
    9.3286  -14.8963   21.8728 C   0  0  0  0  0  0  0  0  0  0  0  0
    8.3124  -14.3584   20.9800 C   0  0  0  0  0  0  0  0  0  0  0  0
    8.2542  -13.0846   20.4600 C   0  0  0  0  0  0  0  0  0  0  0  0
    7.1468  -12.9775   19.6678 N   0  0  0  0  0  0  0  0  0  0  0  0
    6.5300  -14.1603   19.6951 C   0  0  0  0  0  0  0  0  0  0  0  0
    7.2443  -15.0048   20.4986 N   0  0  0  0  0  0  0  0  0  0  0  0
    9.9591  -15.8808   23.9821 C   0  0  0  0  0  0  0  0  0  0  0  0
   10.9278  -15.1597   24.3335 O   0  0  0  0  0  0  0  0  0  0  0  0
   10.7774  -19.2316   25.3866 C   0  0  0  0  0  0  0  0  0  0  0  0
   11.1245  -17.8004   24.9894 C   0  0  2  0  0  0  0  0  0  0  0  0
    9.9945  -17.2678   24.2899 N   0  0  0  0  0  0  0  0  0  0  0  0
   12.3586  -17.7947   24.1751 C   0  0  0  0  0  0  0  0  0  0  0  0
   13.4985  -17.8284   24.7013 O   0  0  0  0  0  0  0  0  0  0  0  0
   12.2827  -17.7515   22.7937 O   0  0  0  0  0  0  0  0  0  0  0  0
  2  1  1  1
  2  5  1  0
  2  3  1  0
  3  4  1  0
  5  7  1  0
  6  5  2  0
  7  8  1  0
  8 15  1  0
  9 10  1  0
  8  9  1  6
 10 11  2  0
 12 11  1  0
 13 12  1  0
 14 13  2  0
 14 10  1  0
 15 16  2  0
 15 19  1  0
 18 17  1  6
 18 20  1  0
 19 18  1  0
 20 22  1  0
 21 20  2  0
M  END
$$$$
