CHA.pdb
     RDKit          3D

 22 22  0  0  1  0  0  0  0  0999 V2000
    8.1902  -13.7265   16.9410 N   0  0  0  0  0  0  0  0  0  0  0  0
    8.7591  -13.3544   18.2142 C   0  0  1  0  0  0  0  0  0  0  0  0
    7.6380  -13.0069   19.1579 C   0  0  0  0  0  0  0  0  0  0  0  0
    8.4018  -12.6728   20.7843 S   0  0  0  0  0  0  0  0  0  0  0  0
    9.6371  -14.4301   18.7452 C   0  0  0  0  0  0  0  0  0  0  0  0
    9.2943  -15.6162   18.5624 O   0  0  0  0  0  0  0  0  0  0  0  0
   10.8415  -14.1587   19.4472 N   0  0  0  0  0  0  0  0  0  0  0  0
   11.7562  -15.2182   19.7911 C   0  0  1  0  0  0  0  0  0  0  0  0
   13.2028  -14.7729   19.6440 C   0  0  0  0  0  0  0  0  0  0  0  0
   13.7222  -14.9219   18.2924 C   0  0  0  0  0  0  0  0  0  0  0  0
   13.6143  -16.0276   17.4787 C   0  0  0  0  0  0  0  0  0  0  0  0
   14.2334  -15.7672   16.2896 N   0  0  0  0  0  0  0  0  0  0  0  0
   14.7159  -14.5254   16.3630 C   0  0  0  0  0  0  0  0  0  0  0  0
   14.4024  -14.0090   17.5894 N   0  0  0  0  0  0  0  0  0  0  0  0
   11.5979  -15.6054   21.2400 C   0  0  0  0  0  0  0  0  0  0  0  0
   11.6840  -14.7227   22.1318 O   0  0  0  0  0  0  0  0  0  0  0  0
   10.4999  -18.6273   23.0914 C   0  0  0  0  0  0  0  0  0  0  0  0
   11.1443  -17.2468   23.0171 C   0  0  2  0  0  0  0  0  0  0  0  0
   11.3523  -16.9492   21.6321 N   0  0  0  0  0  0  0  0  0  0  0  0
   12.3983  -17.2395   23.8005 C   0  0  0  0  0  0  0  0  0  0  0  0
   13.5237  -17.1733   23.2469 O   0  0  0  0  0  0  0  0  0  0  0  0
   12.3579  -17.3067   25.1824 O   0  0  0  0  0  0  0  0  0  0  0  0
  2  1  1  6
  2  5  1  0
  2  3  1  0
  3  4  1  0
  5  7  1  0
  6  5  2  0
  7  8  1  0
  8 15  1  0
  9 10  1  0
  8  9  1  1
 10 11  2  0
 12 11  1  0
 13 12  1  0
 14 13  2  0
 14 10  1  0
 15 16  2  0
 15 19  1  0
 18 17  1  6
 18 20  1  0
 19 18  1  0
 20 22  1  0
 21 20  2  0
M  END
$$$$
