CHA.pdb
     RDKit          3D

 22 22  0  0  1  0  0  0  0  0999 V2000
    7.8987  -13.9845   16.9548 N   0  0  0  0  0  0  0  0  0  0  0  0
    8.9012  -14.2725   17.9524 C   0  0  1  0  0  0  0  0  0  0  0  0
    9.4597  -12.9699   18.4621 C   0  0  0  0  0  0  0  0  0  0  0  0
    8.1186  -12.1497   19.3942 S   0  0  0  0  0  0  0  0  0  0  0  0
    8.3475  -15.1192   19.0416 C   0  0  0  0  0  0  0  0  0  0  0  0
    7.1094  -15.1464   19.1969 O   0  0  0  0  0  0  0  0  0  0  0  0
    9.1698  -15.8918   19.9042 N   0  0  0  0  0  0  0  0  0  0  0  0
    8.5968  -16.6947   20.9551 C   0  0  1  0  0  0  0  0  0  0  0  0
    9.1894  -18.0952   20.9701 C   0  0  0  0  0  0  0  0  0  0  0  0
    8.5972  -18.9661   21.9749 C   0  0  0  0  0  0  0  0  0  0  0  0
    7.5950  -18.6467   22.8638 C   0  0  0  0  0  0  0  0  0  0  0  0
    7.3228  -19.7381   23.6384 N   0  0  0  0  0  0  0  0  0  0  0  0
    8.1389  -20.7151   23.2390 C   0  0  0  0  0  0  0  0  0  0  0  0
    8.9185  -20.2415   22.2207 N   0  0  0  0  0  0  0  0  0  0  0  0
    8.9169  -16.1061   22.3062 C   0  0  0  0  0  0  0  0  0  0  0  0
   10.1010  -15.7800   22.5770 O   0  0  0  0  0  0  0  0  0  0  0  0
    6.9188  -14.5780   25.0003 C   0  0  0  0  0  0  0  0  0  0  0  0
    8.2270  -15.1551   24.4689 C   0  0  2  0  0  0  0  0  0  0  0  0
    7.9124  -15.9066   23.2916 N   0  0  0  0  0  0  0  0  0  0  0  0
    8.8725  -15.9739   25.5173 C   0  0  0  0  0  0  0  0  0  0  0  0
    9.2721  -15.4713   26.5967 O   0  0  0  0  0  0  0  0  0  0  0  0
    9.0530  -17.3331   25.3284 O   0  0  0  0  0  0  0  0  0  0  0  0
  2  1  1  6
  2  5  1  0
  2  3  1  0
  3  4  1  0
  5  7  1  0
  6  5  2  0
  7  8  1  0
  8 15  1  0
  9 10  1  0
  8  9  1  1
 10 11  2  0
 12 11  1  0
 13 12  1  0
 14 13  2  0
 14 10  1  0
 15 16  2  0
 15 19  1  0
 18 17  1  1
 18 20  1  0
 19 18  1  0
 20 22  1  0
 21 20  2  0
M  END
$$$$
