CHA.pdb
     RDKit          3D

 22 22  0  0  1  0  0  0  0  0999 V2000
   11.5288  -16.2880   19.9211 N   0  0  0  0  0  0  0  0  0  0  0  0
   11.6451  -16.7791   21.2733 C   0  0  1  0  0  0  0  0  0  0  0  0
   13.1065  -16.9181   21.6097 C   0  0  0  0  0  0  0  0  0  0  0  0
   13.1961  -17.7012   23.2586 S   0  0  0  0  0  0  0  0  0  0  0  0
   10.9225  -15.8987   22.2286 C   0  0  0  0  0  0  0  0  0  0  0  0
   10.9594  -14.6656   22.0389 O   0  0  0  0  0  0  0  0  0  0  0  0
   10.1979  -16.4061   23.3397 N   0  0  0  0  0  0  0  0  0  0  0  0
    9.4805  -15.5234   24.2250 C   0  0  1  0  0  0  0  0  0  0  0  0
    7.9967  -15.8550   24.2577 C   0  0  0  0  0  0  0  0  0  0  0  0
    7.3101  -15.5713   23.0058 C   0  0  0  0  0  0  0  0  0  0  0  0
    7.2379  -14.3602   22.3545 C   0  0  0  0  0  0  0  0  0  0  0  0
    6.5024  -14.5116   21.2137 N   0  0  0  0  0  0  0  0  0  0  0  0
    6.1255  -15.7903   21.1576 C   0  0  0  0  0  0  0  0  0  0  0  0
    6.6205  -16.4380   22.2552 N   0  0  0  0  0  0  0  0  0  0  0  0
    9.9629  -15.6894   25.6442 C   0  0  0  0  0  0  0  0  0  0  0  0
   10.5233  -16.7615   25.9884 O   0  0  0  0  0  0  0  0  0  0  0  0
   10.0111  -13.5997   28.7344 C   0  0  0  0  0  0  0  0  0  0  0  0
   10.3930  -14.8232   27.9075 C   0  0  2  0  0  0  0  0  0  0  0  0
    9.8024  -14.6622   26.6132 N   0  0  0  0  0  0  0  0  0  0  0  0
    9.9406  -16.0509   28.5962 C   0  0  0  0  0  0  0  0  0  0  0  0
    8.9355  -16.6956   28.2069 O   0  0  0  0  0  0  0  0  0  0  0  0
   10.6260  -16.5233   29.7020 O   0  0  0  0  0  0  0  0  0  0  0  0
  2  1  1  6
  2  5  1  0
  2  3  1  0
  3  4  1  0
  5  7  1  0
  6  5  2  0
  7  8  1  0
  8 15  1  0
  9 10  1  0
  8  9  1  1
 10 11  2  0
 12 11  1  0
 13 12  1  0
 14 13  2  0
 14 10  1  0
 15 16  2  0
 15 19  1  0
 18 17  1  1
 18 20  1  0
 19 18  1  0
 20 22  1  0
 21 20  2  0
M  END
$$$$
