CHA.pdb
     RDKit          3D

 22 22  0  0  1  0  0  0  0  0999 V2000
    7.5450  -15.2030   16.8203 N   0  0  0  0  0  0  0  0  0  0  0  0
    8.6368  -14.7586   17.6531 C   0  0  1  0  0  0  0  0  0  0  0  0
    8.1539  -13.6174   18.5093 C   0  0  0  0  0  0  0  0  0  0  0  0
    7.8626  -12.2036   17.3884 S   0  0  0  0  0  0  0  0  0  0  0  0
    9.1894  -15.8796   18.4579 C   0  0  0  0  0  0  0  0  0  0  0  0
    8.4001  -16.7512   18.8764 O   0  0  0  0  0  0  0  0  0  0  0  0
   10.5714  -15.9933   18.7651 N   0  0  0  0  0  0  0  0  0  0  0  0
   11.0714  -17.0988   19.5431 C   0  0  1  0  0  0  0  0  0  0  0  0
   12.4145  -17.5836   19.0202 C   0  0  0  0  0  0  0  0  0  0  0  0
   12.9823  -18.6742   19.7995 C   0  0  0  0  0  0  0  0  0  0  0  0
   14.1430  -18.6487   20.5402 C   0  0  0  0  0  0  0  0  0  0  0  0
   14.3269  -19.8710   21.1212 N   0  0  0  0  0  0  0  0  0  0  0  0
   13.3018  -20.6396   20.7492 C   0  0  0  0  0  0  0  0  0  0  0  0
   12.4794  -19.9060   19.9401 N   0  0  0  0  0  0  0  0  0  0  0  0
   11.3222  -16.6734   20.9681 C   0  0  0  0  0  0  0  0  0  0  0  0
   12.0034  -15.6413   21.1974 O   0  0  0  0  0  0  0  0  0  0  0  0
    9.8419  -17.0175   24.2109 C   0  0  0  0  0  0  0  0  0  0  0  0
   11.1341  -16.9961   23.4008 C   0  0  2  0  0  0  0  0  0  0  0  0
   10.8078  -17.4096   22.0695 N   0  0  0  0  0  0  0  0  0  0  0  0
   12.1393  -17.8698   24.0431 C   0  0  0  0  0  0  0  0  0  0  0  0
   12.4914  -18.9610   23.5306 O   0  0  0  0  0  0  0  0  0  0  0  0
   12.7228  -17.4978   25.2418 O   0  0  0  0  0  0  0  0  0  0  0  0
  2  1  1  1
  2  5  1  0
  2  3  1  0
  3  4  1  0
  5  7  1  0
  6  5  2  0
  7  8  1  0
  8 15  1  0
  9 10  1  0
  8  9  1  6
 10 11  2  0
 12 11  1  0
 13 12  1  0
 14 13  2  0
 14 10  1  0
 15 16  2  0
 15 19  1  0
 18 17  1  1
 18 20  1  0
 19 18  1  0
 20 22  1  0
 21 20  2  0
M  END
$$$$
