YYI.pdb
     RDKit          3D

 33 34  0  0  1  0  0  0  0  0999 V2000
   30.7183  -19.9383  -21.8101 O   0  0  0  0  0  0  0  0  0  0  0  0
   29.7959  -20.1555  -20.7792 C   0  0  0  0  0  0  0  0  0  0  0  0
   30.0849  -19.7278  -19.4844 C   0  0  0  0  0  0  0  0  0  0  0  0
   29.1749  -19.9374  -18.4462 C   0  0  0  0  0  0  0  0  0  0  0  0
   27.9863  -20.5718  -18.7125 C   0  0  0  0  0  0  0  0  0  0  0  0
   26.9884  -20.8171  -17.6444 C   0  0  0  0  0  0  0  0  0  0  0  0
   27.5112  -21.9495  -16.7926 C   0  0  2  0  0  0  0  0  0  0  0  0
   27.4028  -23.1727  -17.5394 N   0  0  0  0  0  0  0  0  0  0  0  0
   26.7448  -22.0912  -15.5191 C   0  0  0  0  0  0  0  0  0  0  0  0
   25.6684  -22.7043  -15.5167 O   0  0  0  0  0  0  0  0  0  0  0  0
   27.7209  -20.9877  -20.0056 C   0  0  0  0  0  0  0  0  0  0  0  0
   28.6106  -20.7859  -21.0347 C   0  0  0  0  0  0  0  0  0  0  0  0
   23.9852  -20.2681   -7.3742 O   0  0  0  0  0  0  0  0  0  0  0  0
   24.7660  -20.3915   -8.5127 C   0  0  0  0  0  0  0  0  0  0  0  0
   26.0819  -19.9615   -8.5037 C   0  0  0  0  0  0  0  0  0  0  0  0
   26.8632  -20.0795   -9.6262 C   0  0  0  0  0  0  0  0  0  0  0  0
   26.2937  -20.6383  -10.7561 C   0  0  0  0  0  0  0  0  0  0  0  0
   27.1750  -20.7509  -11.9602 C   0  0  0  0  0  0  0  0  0  0  0  0
   26.4673  -21.3804  -13.1147 C   0  0  2  0  0  0  0  0  0  0  0  0
   27.2336  -21.5298  -14.3000 N   0  0  0  0  0  0  0  0  0  0  0  0
   25.1885  -20.6129  -13.3231 C   0  0  0  0  0  0  0  0  0  0  0  0
   25.2751  -19.3930  -13.5961 O   0  0  0  0  0  0  0  0  0  0  0  0
   24.9814  -21.0643  -10.7567 C   0  0  0  0  0  0  0  0  0  0  0  0
   24.1951  -20.9454   -9.6267 C   0  0  0  0  0  0  0  0  0  0  0  0
   22.3015  -20.7799  -17.1648 C   0  0  0  0  0  0  0  0  0  0  0  0
   22.8516  -20.4629  -15.8252 C   0  0  0  0  0  0  0  0  0  0  0  0
   22.0104  -20.7237  -14.6451 C   0  0  2  0  0  0  0  0  0  0  0  0
   20.5608  -20.3303  -14.7728 C   0  0  0  0  0  0  0  0  0  0  0  0
   22.6574  -20.4291  -13.3486 C   0  0  2  0  0  0  0  0  0  0  0  0
   23.9248  -21.1923  -13.2274 N   0  0  0  0  0  0  0  0  0  0  0  0
   21.9097  -20.6632  -12.1247 C   0  0  0  0  0  0  0  0  0  0  0  0
   21.3738  -19.5678  -11.4152 O   0  0  0  0  0  0  0  0  0  0  0  0
   21.6713  -21.7762  -11.5967 O   0  0  0  0  0  0  0  0  0  0  0  0
  2  3  2  0
  2  1  1  0
  4  3  1  0
  5  4  2  0
  6  5  1  0
  7  6  1  0
  7  8  1  6
  9 10  2  0
  9  7  1  0
 11  5  1  0
 11 12  2  0
 12  2  1  0
 14 13  1  0
 15 14  2  0
 16 15  1  0
 17 23  1  0
 17 16  2  0
 18 17  1  0
 19 18  1  1
 19 20  1  0
 20  9  1  0
 21 30  1  0
 21 19  1  0
 22 21  2  0
 23 24  2  0
 24 14  1  0
 26 27  1  0
 26 25  1  0
 27 28  1  6
 27 29  1  0
 29 30  1  1
 29 31  1  0
 31 32  1  0
 33 31  2  0
M  END
$$$$
