YYI.pdb
     RDKit          3D

 33 34  0  0  1  0  0  0  0  0999 V2000
   30.5972  -18.8913  -18.8240 O   0  0  0  0  0  0  0  0  0  0  0  0
   29.9036  -18.7241  -17.6191 C   0  0  0  0  0  0  0  0  0  0  0  0
   28.9541  -17.7110  -17.4968 C   0  0  0  0  0  0  0  0  0  0  0  0
   28.2545  -17.5321  -16.3016 C   0  0  0  0  0  0  0  0  0  0  0  0
   28.5110  -18.3670  -15.2417 C   0  0  0  0  0  0  0  0  0  0  0  0
   27.7946  -18.2172  -13.9528 C   0  0  0  0  0  0  0  0  0  0  0  0
   26.9589  -19.4598  -13.7561 C   0  0  2  0  0  0  0  0  0  0  0  0
   25.9858  -19.5295  -14.8115 N   0  0  0  0  0  0  0  0  0  0  0  0
   26.2483  -19.4536  -12.4430 C   0  0  0  0  0  0  0  0  0  0  0  0
   25.4731  -18.5268  -12.1701 O   0  0  0  0  0  0  0  0  0  0  0  0
   29.4580  -19.3659  -15.3862 C   0  0  0  0  0  0  0  0  0  0  0  0
   30.1521  -19.5500  -16.5590 C   0  0  0  0  0  0  0  0  0  0  0  0
   20.0683  -19.9114  -12.6117 O   0  0  0  0  0  0  0  0  0  0  0  0
   21.2318  -20.3149  -11.9756 C   0  0  0  0  0  0  0  0  0  0  0  0
   21.5207  -19.8606  -10.7002 C   0  0  0  0  0  0  0  0  0  0  0  0
   22.6705  -20.2546  -10.0620 C   0  0  0  0  0  0  0  0  0  0  0  0
   23.5219  -21.1137  -10.7328 C   0  0  0  0  0  0  0  0  0  0  0  0
   24.7650  -21.5216  -10.0063 C   0  0  0  0  0  0  0  0  0  0  0  0
   25.8725  -20.5381  -10.1966 C   0  0  2  0  0  0  0  0  0  0  0  0
   26.4482  -20.5018  -11.4935 N   0  0  0  0  0  0  0  0  0  0  0  0
   26.8782  -20.7854   -9.1035 C   0  0  0  0  0  0  0  0  0  0  0  0
   27.7044  -21.7134   -9.2664 O   0  0  0  0  0  0  0  0  0  0  0  0
   23.2265  -21.5618  -12.0038 C   0  0  0  0  0  0  0  0  0  0  0  0
   22.0692  -21.1652  -12.6461 C   0  0  0  0  0  0  0  0  0  0  0  0
   29.8217  -18.4457   -4.2230 C   0  0  0  0  0  0  0  0  0  0  0  0
   29.1893  -19.5777   -4.9415 C   0  0  0  0  0  0  0  0  0  0  0  0
   28.4131  -19.2866   -6.1585 C   0  0  2  0  0  0  0  0  0  0  0  0
   27.6734  -17.9731   -6.1661 C   0  0  0  0  0  0  0  0  0  0  0  0
   27.6928  -20.4476   -6.7237 C   0  0  2  0  0  0  0  0  0  0  0  0
   26.9317  -20.0360   -7.9298 N   0  0  0  0  0  0  0  0  0  0  0  0
   26.7671  -21.1775   -5.8740 C   0  0  0  0  0  0  0  0  0  0  0  0
   27.2653  -21.9539   -4.8065 O   0  0  0  0  0  0  0  0  0  0  0  0
   25.5170  -21.2021   -5.9801 O   0  0  0  0  0  0  0  0  0  0  0  0
  2  3  2  0
  2  1  1  0
  4  3  1  0
  5  4  2  0
  6  5  1  0
  7  6  1  0
  7  8  1  6
  9 10  2  0
  9  7  1  0
 11  5  1  0
 11 12  2  0
 12  2  1  0
 14 13  1  0
 15 14  2  0
 16 15  1  0
 17 23  1  0
 17 16  2  0
 18 17  1  0
 19 18  1  6
 19 20  1  0
 20  9  1  0
 21 30  1  0
 21 19  1  0
 22 21  2  0
 23 24  2  0
 24 14  1  0
 26 27  1  0
 26 25  1  0
 27 28  1  1
 27 29  1  0
 29 30  1  6
 29 31  1  0
 31 32  1  0
 33 31  2  0
M  END
$$$$
