YYI.pdb
     RDKit          3D

 33 34  0  0  1  0  0  0  0  0999 V2000
   24.9609  -33.4453  -14.1829 O   0  0  0  0  0  0  0  0  0  0  0  0
   25.4146  -33.8025  -12.9073 C   0  0  0  0  0  0  0  0  0  0  0  0
   26.6519  -33.3465  -12.4551 C   0  0  0  0  0  0  0  0  0  0  0  0
   27.1176  -33.6945  -11.1855 C   0  0  0  0  0  0  0  0  0  0  0  0
   26.3427  -34.4939  -10.3814 C   0  0  0  0  0  0  0  0  0  0  0  0
   26.7934  -34.8903   -9.0262 C   0  0  0  0  0  0  0  0  0  0  0  0
   27.9264  -35.8739   -9.1993 C   0  0  2  0  0  0  0  0  0  0  0  0
   27.3797  -37.1316   -9.6293 N   0  0  0  0  0  0  0  0  0  0  0  0
   28.6829  -36.0845   -7.9295 C   0  0  0  0  0  0  0  0  0  0  0  0
   28.2867  -36.9273   -7.1127 O   0  0  0  0  0  0  0  0  0  0  0  0
   25.1178  -34.9347  -10.8515 C   0  0  0  0  0  0  0  0  0  0  0  0
   24.6505  -34.5975  -12.1001 C   0  0  0  0  0  0  0  0  0  0  0  0
   35.0345  -36.3050   -1.9882 O   0  0  0  0  0  0  0  0  0  0  0  0
   34.3143  -36.0400   -3.1423 C   0  0  0  0  0  0  0  0  0  0  0  0
   34.1250  -37.0335   -4.0878 C   0  0  0  0  0  0  0  0  0  0  0  0
   33.4131  -36.7807   -5.2340 C   0  0  0  0  0  0  0  0  0  0  0  0
   32.8965  -35.5096   -5.4086 C   0  0  0  0  0  0  0  0  0  0  0  0
   32.1265  -35.2708   -6.6694 C   0  0  0  0  0  0  0  0  0  0  0  0
   30.6619  -35.4935   -6.4811 C   0  0  2  0  0  0  0  0  0  0  0  0
   29.8595  -35.3279   -7.6401 N   0  0  0  0  0  0  0  0  0  0  0  0
   30.2270  -34.6314   -5.3255 C   0  0  0  0  0  0  0  0  0  0  0  0
   30.4928  -33.4078   -5.3748 O   0  0  0  0  0  0  0  0  0  0  0  0
   33.0897  -34.5251   -4.4615 C   0  0  0  0  0  0  0  0  0  0  0  0
   33.8063  -34.7797   -3.3078 C   0  0  0  0  0  0  0  0  0  0  0  0
   25.2572  -35.3785   -3.1186 C   0  0  0  0  0  0  0  0  0  0  0  0
   26.7388  -35.4188   -3.0880 C   0  0  0  0  0  0  0  0  0  0  0  0
   27.4775  -34.1779   -3.3758 C   0  0  2  0  0  0  0  0  0  0  0  0
   27.0201  -33.4087   -4.5889 C   0  0  0  0  0  0  0  0  0  0  0  0
   28.9389  -34.2674   -3.1694 C   0  0  2  0  0  0  0  0  0  0  0  0
   29.5485  -35.1277   -4.2142 N   0  0  0  0  0  0  0  0  0  0  0  0
   29.4364  -34.7462   -1.8907 C   0  0  0  0  0  0  0  0  0  0  0  0
   30.1153  -35.9812   -1.8253 O   0  0  0  0  0  0  0  0  0  0  0  0
   29.3299  -34.1656   -0.7834 O   0  0  0  0  0  0  0  0  0  0  0  0
  2  3  2  0
  2  1  1  0
  4  3  1  0
  5  4  2  0
  6  5  1  0
  7  6  1  0
  7  8  1  1
  9 10  2  0
  9  7  1  0
 11  5  1  0
 11 12  2  0
 12  2  1  0
 14 13  1  0
 15 14  2  0
 16 15  1  0
 17 23  1  0
 17 16  2  0
 18 17  1  0
 19 18  1  6
 19 20  1  0
 20  9  1  0
 21 30  1  0
 21 19  1  0
 22 21  2  0
 23 24  2  0
 24 14  1  0
 26 27  1  0
 26 25  1  0
 27 28  1  6
 27 29  1  0
 29 30  1  6
 29 31  1  0
 31 32  1  0
 33 31  2  0
M  END
$$$$
