YYI.pdb
     RDKit          3D

 33 34  0  0  1  0  0  0  0  0999 V2000
   25.5688  -13.0509  -21.3168 O   0  0  0  0  0  0  0  0  0  0  0  0
   25.3150  -14.2111  -20.5749 C   0  0  0  0  0  0  0  0  0  0  0  0
   25.4780  -14.2021  -19.1905 C   0  0  0  0  0  0  0  0  0  0  0  0
   25.2288  -15.3514  -18.4375 C   0  0  0  0  0  0  0  0  0  0  0  0
   24.8195  -16.4968  -19.0752 C   0  0  0  0  0  0  0  0  0  0  0  0
   24.5425  -17.7415  -18.3197 C   0  0  0  0  0  0  0  0  0  0  0  0
   25.8696  -18.4135  -18.0586 C   0  0  2  0  0  0  0  0  0  0  0  0
   26.2026  -19.2275  -19.1953 N   0  0  0  0  0  0  0  0  0  0  0  0
   25.8294  -19.2766  -16.8411 C   0  0  0  0  0  0  0  0  0  0  0  0
   25.2219  -20.3556  -16.8746 O   0  0  0  0  0  0  0  0  0  0  0  0
   24.6644  -16.4821  -20.4505 C   0  0  0  0  0  0  0  0  0  0  0  0
   24.9074  -15.3555  -21.2007 C   0  0  0  0  0  0  0  0  0  0  0  0
   25.7214  -21.1538   -8.3034 O   0  0  0  0  0  0  0  0  0  0  0  0
   26.0788  -20.6174   -9.5304 C   0  0  0  0  0  0  0  0  0  0  0  0
   26.8908  -21.3339  -10.3929 C   0  0  0  0  0  0  0  0  0  0  0  0
   27.2503  -20.8111  -11.6102 C   0  0  0  0  0  0  0  0  0  0  0  0
   26.7765  -19.5545  -11.9410 C   0  0  0  0  0  0  0  0  0  0  0  0
   27.1887  -19.0171  -13.2754 C   0  0  0  0  0  0  0  0  0  0  0  0
   26.2989  -19.5010  -14.3727 C   0  0  2  0  0  0  0  0  0  0  0  0
   26.4817  -18.8775  -15.6346 N   0  0  0  0  0  0  0  0  0  0  0  0
   24.8835  -19.4181  -13.8652 C   0  0  0  0  0  0  0  0  0  0  0  0
   24.3464  -18.2873  -13.8090 O   0  0  0  0  0  0  0  0  0  0  0  0
   25.9677  -18.8470  -11.0757 C   0  0  0  0  0  0  0  0  0  0  0  0
   25.6059  -19.3733   -9.8504 C   0  0  0  0  0  0  0  0  0  0  0  0
   20.7666  -20.2064  -16.0786 C   0  0  0  0  0  0  0  0  0  0  0  0
   21.7373  -19.9032  -15.0000 C   0  0  0  0  0  0  0  0  0  0  0  0
   21.7617  -20.7783  -13.8159 C   0  0  2  0  0  0  0  0  0  0  0  0
   20.4156  -21.1659  -13.2589 C   0  0  0  0  0  0  0  0  0  0  0  0
   22.8101  -20.4491  -12.8266 C   0  0  2  0  0  0  0  0  0  0  0  0
   24.1504  -20.5315  -13.4590 N   0  0  0  0  0  0  0  0  0  0  0  0
   22.8793  -21.2218  -11.5978 C   0  0  0  0  0  0  0  0  0  0  0  0
   22.1111  -20.8271  -10.4822 O   0  0  0  0  0  0  0  0  0  0  0  0
   23.5738  -22.2478  -11.3991 O   0  0  0  0  0  0  0  0  0  0  0  0
  2  3  2  0
  2  1  1  0
  4  3  1  0
  5  4  2  0
  6  5  1  0
  7  6  1  0
  7  8  1  6
  9 10  2  0
  9  7  1  0
 11  5  1  0
 11 12  2  0
 12  2  1  0
 14 13  1  0
 15 14  2  0
 16 15  1  0
 17 23  1  0
 17 16  2  0
 18 17  1  0
 19 18  1  1
 19 20  1  0
 20  9  1  0
 21 30  1  0
 21 19  1  0
 22 21  2  0
 23 24  2  0
 24 14  1  0
 26 27  1  0
 26 25  1  0
 27 28  1  1
 27 29  1  0
 29 30  1  6
 29 31  1  0
 31 32  1  0
 33 31  2  0
M  END
$$$$
