YYI.pdb
     RDKit          3D

 33 34  0  0  1  0  0  0  0  0999 V2000
   49.4916   -8.2824   -6.2904 O   0  0  0  0  0  0  0  0  0  0  0  0
   48.1754   -8.7589   -6.2545 C   0  0  0  0  0  0  0  0  0  0  0  0
   47.8012   -9.7001   -5.2967 C   0  0  0  0  0  0  0  0  0  0  0  0
   46.4924  -10.1844   -5.2486 C   0  0  0  0  0  0  0  0  0  0  0  0
   45.5717   -9.7236   -6.1576 C   0  0  0  0  0  0  0  0  0  0  0  0
   44.1708  -10.2073   -6.1469 C   0  0  0  0  0  0  0  0  0  0  0  0
   43.3221   -9.1132   -5.5437 C   0  0  2  0  0  0  0  0  0  0  0  0
   43.4442   -9.1747   -4.1130 N   0  0  0  0  0  0  0  0  0  0  0  0
   41.8824   -9.2548   -5.9126 C   0  0  0  0  0  0  0  0  0  0  0  0
   41.1938  -10.1298   -5.3697 O   0  0  0  0  0  0  0  0  0  0  0  0
   45.9660   -8.7892   -7.0994 C   0  0  0  0  0  0  0  0  0  0  0  0
   47.2524   -8.3062   -7.1548 C   0  0  0  0  0  0  0  0  0  0  0  0
   40.3529   -2.2356   -8.1936 O   0  0  0  0  0  0  0  0  0  0  0  0
   40.0122   -3.5295   -7.8318 C   0  0  0  0  0  0  0  0  0  0  0  0
   40.7265   -4.1867   -6.8447 C   0  0  0  0  0  0  0  0  0  0  0  0
   40.3967   -5.4682   -6.4794 C   0  0  0  0  0  0  0  0  0  0  0  0
   39.3350   -6.0735   -7.1271 C   0  0  0  0  0  0  0  0  0  0  0  0
   39.0045   -7.4700   -6.7029 C   0  0  0  0  0  0  0  0  0  0  0  0
   39.9315   -8.4726   -7.3075 C   0  0  2  0  0  0  0  0  0  0  0  0
   41.2840   -8.3953   -6.8840 N   0  0  0  0  0  0  0  0  0  0  0  0
   39.7677   -8.3838   -8.8018 C   0  0  0  0  0  0  0  0  0  0  0  0
   40.5838   -7.6787   -9.4399 O   0  0  0  0  0  0  0  0  0  0  0  0
   38.6283   -5.4115   -8.1099 C   0  0  0  0  0  0  0  0  0  0  0  0
   38.9604   -4.1216   -8.4775 C   0  0  0  0  0  0  0  0  0  0  0  0
   36.0680  -11.7525  -11.8297 C   0  0  0  0  0  0  0  0  0  0  0  0
   36.6709  -10.5151  -11.2795 C   0  0  0  0  0  0  0  0  0  0  0  0
   38.1121  -10.2906  -11.4813 C   0  0  2  0  0  0  0  0  0  0  0  0
   39.0011  -11.4853  -11.2466 C   0  0  0  0  0  0  0  0  0  0  0  0
   38.6114   -8.9934  -10.9772 C   0  0  2  0  0  0  0  0  0  0  0  0
   38.7592   -9.0439   -9.5011 N   0  0  0  0  0  0  0  0  0  0  0  0
   37.8581   -7.7884  -11.2810 C   0  0  0  0  0  0  0  0  0  0  0  0
   37.7938   -7.3237  -12.6116 O   0  0  0  0  0  0  0  0  0  0  0  0
   37.2271   -7.0762  -10.4630 O   0  0  0  0  0  0  0  0  0  0  0  0
  2  3  2  0
  2  1  1  0
  4  3  1  0
  5  4  2  0
  6  5  1  0
  7  6  1  0
  7  8  1  1
  9 10  2  0
  9  7  1  0
 11  5  1  0
 11 12  2  0
 12  2  1  0
 14 13  1  0
 15 14  2  0
 16 15  1  0
 17 23  1  0
 17 16  2  0
 18 17  1  0
 19 18  1  1
 19 20  1  0
 20  9  1  0
 21 30  1  0
 21 19  1  0
 22 21  2  0
 23 24  2  0
 24 14  1  0
 26 27  1  0
 26 25  1  0
 27 28  1  1
 27 29  1  0
 29 30  1  1
 29 31  1  0
 31 32  1  0
 33 31  2  0
M  END
$$$$
