YYI.pdb
     RDKit          3D

 33 34  0  0  1  0  0  0  0  0999 V2000
   26.1656  -41.5081  -14.5642 O   0  0  0  0  0  0  0  0  0  0  0  0
   26.2157  -40.6684  -13.4448 C   0  0  0  0  0  0  0  0  0  0  0  0
   26.2856  -41.2169  -12.1652 C   0  0  0  0  0  0  0  0  0  0  0  0
   26.3362  -40.3922  -11.0395 C   0  0  0  0  0  0  0  0  0  0  0  0
   26.3162  -39.0288  -11.2041 C   0  0  0  0  0  0  0  0  0  0  0  0
   26.3679  -38.1122  -10.0405 C   0  0  0  0  0  0  0  0  0  0  0  0
   27.8246  -37.8570   -9.7338 C   0  0  2  0  0  0  0  0  0  0  0  0
   28.3755  -39.0318   -9.1159 N   0  0  0  0  0  0  0  0  0  0  0  0
   28.0071  -36.6958   -8.8132 C   0  0  0  0  0  0  0  0  0  0  0  0
   27.5838  -35.5795   -9.1435 O   0  0  0  0  0  0  0  0  0  0  0  0
   26.2465  -38.5068  -12.4840 C   0  0  0  0  0  0  0  0  0  0  0  0
   26.1964  -39.3106  -13.5987 C   0  0  0  0  0  0  0  0  0  0  0  0
   25.0942  -31.9602   -9.9264 O   0  0  0  0  0  0  0  0  0  0  0  0
   25.6813  -32.7820   -8.9772 C   0  0  0  0  0  0  0  0  0  0  0  0
   26.7879  -32.3461   -8.2685 C   0  0  0  0  0  0  0  0  0  0  0  0
   27.3763  -33.1527   -7.3264 C   0  0  0  0  0  0  0  0  0  0  0  0
   26.8290  -34.4048   -7.1126 C   0  0  0  0  0  0  0  0  0  0  0  0
   27.4965  -35.2560   -6.0785 C   0  0  0  0  0  0  0  0  0  0  0  0
   28.7823  -35.8324   -6.5733 C   0  0  2  0  0  0  0  0  0  0  0  0
   28.6637  -36.8514   -7.5542 N   0  0  0  0  0  0  0  0  0  0  0  0
   29.5728  -36.2568   -5.3639 C   0  0  0  0  0  0  0  0  0  0  0  0
   29.4657  -37.4452   -4.9814 O   0  0  0  0  0  0  0  0  0  0  0  0
   25.7261  -34.8316   -7.8232 C   0  0  0  0  0  0  0  0  0  0  0  0
   25.1338  -34.0196   -8.7715 C   0  0  0  0  0  0  0  0  0  0  0  0
   34.6968  -35.5530   -4.8120 C   0  0  0  0  0  0  0  0  0  0  0  0
   33.2633  -35.8982   -4.6588 C   0  0  0  0  0  0  0  0  0  0  0  0
   32.5390  -35.3715   -3.4899 C   0  0  2  0  0  0  0  0  0  0  0  0
   33.3057  -35.3638   -2.1920 C   0  0  0  0  0  0  0  0  0  0  0  0
   31.1191  -35.7763   -3.4097 C   0  0  2  0  0  0  0  0  0  0  0  0
   30.4104  -35.3960   -4.6573 N   0  0  0  0  0  0  0  0  0  0  0  0
   30.3133  -35.2851   -2.3046 C   0  0  0  0  0  0  0  0  0  0  0  0
   30.3771  -35.9339   -1.0534 O   0  0  0  0  0  0  0  0  0  0  0  0
   29.5291  -34.3059   -2.3299 O   0  0  0  0  0  0  0  0  0  0  0  0
  2  3  2  0
  2  1  1  0
  4  3  1  0
  5  4  2  0
  6  5  1  0
  7  6  1  0
  7  8  1  1
  9 10  2  0
  9  7  1  0
 11  5  1  0
 11 12  2  0
 12  2  1  0
 14 13  1  0
 15 14  2  0
 16 15  1  0
 17 23  1  0
 17 16  2  0
 18 17  1  0
 19 18  1  1
 19 20  1  0
 20  9  1  0
 21 30  1  0
 21 19  1  0
 22 21  2  0
 23 24  2  0
 24 14  1  0
 26 27  1  0
 26 25  1  0
 27 28  1  1
 27 29  1  0
 29 30  1  6
 29 31  1  0
 31 32  1  0
 33 31  2  0
M  END
$$$$
