YYI.pdb
     RDKit          3D

 33 34  0  0  1  0  0  0  0  0999 V2000
   24.8741  -13.6546  -24.6482 O   0  0  0  0  0  0  0  0  0  0  0  0
   23.9852  -13.6256  -23.5666 C   0  0  0  0  0  0  0  0  0  0  0  0
   24.3275  -12.9405  -22.4019 C   0  0  0  0  0  0  0  0  0  0  0  0
   23.4514  -12.9029  -21.3152 C   0  0  0  0  0  0  0  0  0  0  0  0
   22.2432  -13.5498  -21.4036 C   0  0  0  0  0  0  0  0  0  0  0  0
   21.2797  -13.5387  -20.2773 C   0  0  0  0  0  0  0  0  0  0  0  0
   20.2423  -12.4846  -20.5838 C   0  0  2  0  0  0  0  0  0  0  0  0
   20.7608  -11.2032  -20.1903 N   0  0  0  0  0  0  0  0  0  0  0  0
   18.9621  -12.7321  -19.8566 C   0  0  0  0  0  0  0  0  0  0  0  0
   18.7254  -12.1193  -18.8064 O   0  0  0  0  0  0  0  0  0  0  0  0
   21.9248  -14.2236  -22.5699 C   0  0  0  0  0  0  0  0  0  0  0  0
   22.7808  -14.2664  -23.6454 C   0  0  0  0  0  0  0  0  0  0  0  0
   16.1413  -10.5080  -25.0785 O   0  0  0  0  0  0  0  0  0  0  0  0
   16.0425  -11.0686  -23.8148 C   0  0  0  0  0  0  0  0  0  0  0  0
   15.3698  -12.2652  -23.6353 C   0  0  0  0  0  0  0  0  0  0  0  0
   15.2666  -12.8283  -22.3877 C   0  0  0  0  0  0  0  0  0  0  0  0
   15.8534  -12.1634  -21.3262 C   0  0  0  0  0  0  0  0  0  0  0  0
   15.7207  -12.8068  -19.9817 C   0  0  0  0  0  0  0  0  0  0  0  0
   16.7243  -13.8941  -19.7803 C   0  0  2  0  0  0  0  0  0  0  0  0
   18.0027  -13.6666  -20.3534 N   0  0  0  0  0  0  0  0  0  0  0  0
   16.0849  -15.1785  -20.2377 C   0  0  0  0  0  0  0  0  0  0  0  0
   16.1675  -15.4739  -21.4527 O   0  0  0  0  0  0  0  0  0  0  0  0
   16.5220  -10.9712  -21.5137 C   0  0  0  0  0  0  0  0  0  0  0  0
   16.6258  -10.4045  -22.7696 C   0  0  0  0  0  0  0  0  0  0  0  0
   16.3773  -20.0463  -17.6813 C   0  0  0  0  0  0  0  0  0  0  0  0
   16.0661  -19.1657  -18.8326 C   0  0  0  0  0  0  0  0  0  0  0  0
   14.8572  -18.3278  -18.7644 C   0  0  2  0  0  0  0  0  0  0  0  0
   13.5808  -19.0458  -18.4072 C   0  0  0  0  0  0  0  0  0  0  0  0
   14.7571  -17.3013  -19.8240 C   0  0  2  0  0  0  0  0  0  0  0  0
   15.4117  -16.0456  -19.3793 N   0  0  0  0  0  0  0  0  0  0  0  0
   13.4413  -16.9342  -20.3198 C   0  0  0  0  0  0  0  0  0  0  0  0
   12.8274  -15.7512  -19.8569 O   0  0  0  0  0  0  0  0  0  0  0  0
   12.7513  -17.5734  -21.1502 O   0  0  0  0  0  0  0  0  0  0  0  0
  2  3  2  0
  2  1  1  0
  4  3  1  0
  5  4  2  0
  6  5  1  0
  7  6  1  0
  7  8  1  1
  9 10  2  0
  9  7  1  0
 11  5  1  0
 11 12  2  0
 12  2  1  0
 14 13  1  0
 15 14  2  0
 16 15  1  0
 17 23  1  0
 17 16  2  0
 18 17  1  0
 19 18  1  6
 19 20  1  0
 20  9  1  0
 21 30  1  0
 21 19  1  0
 22 21  2  0
 23 24  2  0
 24 14  1  0
 26 27  1  0
 26 25  1  0
 27 28  1  6
 27 29  1  0
 29 30  1  1
 29 31  1  0
 31 32  1  0
 33 31  2  0
M  END
$$$$
