YYI.pdb
     RDKit          3D

 33 34  0  0  1  0  0  0  0  0999 V2000
   33.2991  -27.5008  -17.7805 O   0  0  0  0  0  0  0  0  0  0  0  0
   32.5103  -26.4350  -17.3305 C   0  0  0  0  0  0  0  0  0  0  0  0
   33.1156  -25.2780  -16.8425 C   0  0  0  0  0  0  0  0  0  0  0  0
   32.3421  -24.2070  -16.3902 C   0  0  0  0  0  0  0  0  0  0  0  0
   30.9727  -24.3032  -16.4303 C   0  0  0  0  0  0  0  0  0  0  0  0
   30.1090  -23.1935  -15.9618 C   0  0  0  0  0  0  0  0  0  0  0  0
   29.2939  -22.7281  -17.1451 C   0  0  2  0  0  0  0  0  0  0  0  0
   30.1674  -22.0552  -18.0670 N   0  0  0  0  0  0  0  0  0  0  0  0
   28.2045  -21.7911  -16.7397 C   0  0  0  0  0  0  0  0  0  0  0  0
   28.4704  -20.6020  -16.5167 O   0  0  0  0  0  0  0  0  0  0  0  0
   30.3939  -25.4616  -16.9190 C   0  0  0  0  0  0  0  0  0  0  0  0
   31.1470  -26.5216  -17.3665 C   0  0  0  0  0  0  0  0  0  0  0  0
   20.5286  -18.0362  -15.2382 O   0  0  0  0  0  0  0  0  0  0  0  0
   21.5290  -18.8771  -15.6999 C   0  0  0  0  0  0  0  0  0  0  0  0
   22.6112  -18.3576  -16.3895 C   0  0  0  0  0  0  0  0  0  0  0  0
   23.6070  -19.1823  -16.8507 C   0  0  0  0  0  0  0  0  0  0  0  0
   23.4912  -20.5384  -16.6040 C   0  0  0  0  0  0  0  0  0  0  0  0
   24.5951  -21.4062  -17.1213 C   0  0  0  0  0  0  0  0  0  0  0  0
   25.7675  -21.4309  -16.1967 C   0  0  2  0  0  0  0  0  0  0  0  0
   26.8567  -22.2445  -16.6045 N   0  0  0  0  0  0  0  0  0  0  0  0
   25.2451  -21.7750  -14.8269 C   0  0  0  0  0  0  0  0  0  0  0  0
   24.9437  -22.9695  -14.5977 O   0  0  0  0  0  0  0  0  0  0  0  0
   22.4094  -21.0480  -15.9159 C   0  0  0  0  0  0  0  0  0  0  0  0
   21.4072  -20.2178  -15.4518 C   0  0  0  0  0  0  0  0  0  0  0  0
   26.1001  -20.5041   -8.9667 C   0  0  0  0  0  0  0  0  0  0  0  0
   25.2174  -21.0093  -10.0452 C   0  0  0  0  0  0  0  0  0  0  0  0
   25.6081  -20.7586  -11.4426 C   0  0  2  0  0  0  0  0  0  0  0  0
   26.3175  -19.4539  -11.7013 C   0  0  0  0  0  0  0  0  0  0  0  0
   24.6039  -21.1687  -12.4474 C   0  0  2  0  0  0  0  0  0  0  0  0
   25.0833  -20.8341  -13.8118 N   0  0  0  0  0  0  0  0  0  0  0  0
   23.2523  -20.6459  -12.3391 C   0  0  0  0  0  0  0  0  0  0  0  0
   22.3623  -21.2046  -11.3977 O   0  0  0  0  0  0  0  0  0  0  0  0
   22.7567  -19.7119  -13.0148 O   0  0  0  0  0  0  0  0  0  0  0  0
  2  3  2  0
  2  1  1  0
  4  3  1  0
  5  4  2  0
  6  5  1  0
  7  6  1  0
  7  8  1  6
  9 10  2  0
  9  7  1  0
 11  5  1  0
 11 12  2  0
 12  2  1  0
 14 13  1  0
 15 14  2  0
 16 15  1  0
 17 23  1  0
 17 16  2  0
 18 17  1  0
 19 18  1  6
 19 20  1  0
 20  9  1  0
 21 30  1  0
 21 19  1  0
 22 21  2  0
 23 24  2  0
 24 14  1  0
 26 27  1  0
 26 25  1  0
 27 28  1  1
 27 29  1  0
 29 30  1  6
 29 31  1  0
 31 32  1  0
 33 31  2  0
M  END
$$$$
