YYI.pdb
     RDKit          3D

 33 34  0  0  1  0  0  0  0  0999 V2000
   24.7251  -12.8988  -22.2896 O   0  0  0  0  0  0  0  0  0  0  0  0
   24.6142  -13.9839  -21.4115 C   0  0  0  0  0  0  0  0  0  0  0  0
   24.8860  -13.8127  -20.0550 C   0  0  0  0  0  0  0  0  0  0  0  0
   24.7797  -14.8854  -19.1673 C   0  0  0  0  0  0  0  0  0  0  0  0
   24.4032  -16.1171  -19.6440 C   0  0  0  0  0  0  0  0  0  0  0  0
   24.2763  -17.2860  -18.7415 C   0  0  0  0  0  0  0  0  0  0  0  0
   25.6706  -17.8024  -18.4762 C   0  0  2  0  0  0  0  0  0  0  0  0
   26.1662  -18.4205  -19.6754 N   0  0  0  0  0  0  0  0  0  0  0  0
   25.6945  -18.8049  -17.3702 C   0  0  0  0  0  0  0  0  0  0  0  0
   25.1086  -19.8871  -17.5112 O   0  0  0  0  0  0  0  0  0  0  0  0
   24.1384  -16.2634  -20.9946 C   0  0  0  0  0  0  0  0  0  0  0  0
   24.2403  -15.2132  -21.8766 C   0  0  0  0  0  0  0  0  0  0  0  0
   25.8154  -21.5780   -9.0649 O   0  0  0  0  0  0  0  0  0  0  0  0
   26.1318  -20.9138  -10.2395 C   0  0  0  0  0  0  0  0  0  0  0  0
   25.7440  -19.5971  -10.4203 C   0  0  0  0  0  0  0  0  0  0  0  0
   26.0527  -18.9309  -11.5801 C   0  0  0  0  0  0  0  0  0  0  0  0
   26.7584  -19.6160  -12.5526 C   0  0  0  0  0  0  0  0  0  0  0  0
   27.0770  -18.8580  -13.8030 C   0  0  0  0  0  0  0  0  0  0  0  0
   26.1762  -19.2373  -14.9320 C   0  0  2  0  0  0  0  0  0  0  0  0
   26.3839  -18.5359  -16.1484 N   0  0  0  0  0  0  0  0  0  0  0  0
   24.7623  -19.1431  -14.4224 C   0  0  0  0  0  0  0  0  0  0  0  0
   24.2566  -18.0027  -14.3047 O   0  0  0  0  0  0  0  0  0  0  0  0
   27.1411  -20.9281  -12.3645 C   0  0  0  0  0  0  0  0  0  0  0  0
   26.8304  -21.5986  -11.1971 C   0  0  0  0  0  0  0  0  0  0  0  0
   19.2332  -20.3799  -15.4613 C   0  0  0  0  0  0  0  0  0  0  0  0
   20.2370  -20.2250  -14.3815 C   0  0  0  0  0  0  0  0  0  0  0  0
   21.6634  -20.2369  -14.7468 C   0  0  2  0  0  0  0  0  0  0  0  0
   22.0454  -21.1683  -15.8690 C   0  0  0  0  0  0  0  0  0  0  0  0
   22.5949  -20.1761  -13.6001 C   0  0  2  0  0  0  0  0  0  0  0  0
   23.9975  -20.2563  -14.0792 N   0  0  0  0  0  0  0  0  0  0  0  0
   22.4595  -21.1569  -12.5364 C   0  0  0  0  0  0  0  0  0  0  0  0
   23.1434  -22.3872  -12.6319 O   0  0  0  0  0  0  0  0  0  0  0  0
   21.7742  -21.0362  -11.4923 O   0  0  0  0  0  0  0  0  0  0  0  0
  2  3  2  0
  2  1  1  0
  4  3  1  0
  5  4  2  0
  6  5  1  0
  7  6  1  0
  7  8  1  6
  9 10  2  0
  9  7  1  0
 11  5  1  0
 11 12  2  0
 12  2  1  0
 14 13  1  0
 15 14  2  0
 16 15  1  0
 17 23  1  0
 17 16  2  0
 18 17  1  0
 19 18  1  1
 19 20  1  0
 20  9  1  0
 21 30  1  0
 21 19  1  0
 22 21  2  0
 23 24  2  0
 24 14  1  0
 26 27  1  0
 26 25  1  0
 27 28  1  1
 27 29  1  0
 29 30  1  6
 29 31  1  0
 31 32  1  0
 33 31  2  0
M  END
$$$$
