YYI.pdb
     RDKit          3D

 33 34  0  0  1  0  0  0  0  0999 V2000
   18.0117  -26.1514  -12.3442 O   0  0  0  0  0  0  0  0  0  0  0  0
   18.6083  -24.9154  -12.6219 C   0  0  0  0  0  0  0  0  0  0  0  0
   19.6772  -24.8427  -13.5138 C   0  0  0  0  0  0  0  0  0  0  0  0
   20.2823  -23.6173  -13.8006 C   0  0  0  0  0  0  0  0  0  0  0  0
   19.8133  -22.4781  -13.1936 C   0  0  0  0  0  0  0  0  0  0  0  0
   20.4222  -21.1544  -13.4656 C   0  0  0  0  0  0  0  0  0  0  0  0
   21.7510  -21.1152  -12.7486 C   0  0  2  0  0  0  0  0  0  0  0  0
   21.5074  -21.1031  -11.3323 N   0  0  0  0  0  0  0  0  0  0  0  0
   22.5471  -19.9058  -13.1126 C   0  0  0  0  0  0  0  0  0  0  0  0
   22.6992  -18.9994  -12.2820 O   0  0  0  0  0  0  0  0  0  0  0  0
   18.7510  -22.5745  -12.3116 C   0  0  0  0  0  0  0  0  0  0  0  0
   18.1486  -23.7765  -12.0228 C   0  0  0  0  0  0  0  0  0  0  0  0
   28.2276  -14.4855  -16.7839 O   0  0  0  0  0  0  0  0  0  0  0  0
   27.5340  -15.5762  -16.2837 C   0  0  0  0  0  0  0  0  0  0  0  0
   26.9234  -15.5031  -15.0434 C   0  0  0  0  0  0  0  0  0  0  0  0
   26.2342  -16.5781  -14.5394 C   0  0  0  0  0  0  0  0  0  0  0  0
   26.1723  -17.7261  -15.3083 C   0  0  0  0  0  0  0  0  0  0  0  0
   25.4128  -18.8771  -14.7271 C   0  0  0  0  0  0  0  0  0  0  0  0
   23.9359  -18.6790  -14.8243 C   0  0  2  0  0  0  0  0  0  0  0  0
   23.1382  -19.7761  -14.4065 N   0  0  0  0  0  0  0  0  0  0  0  0
   23.6404  -18.2270  -16.2301 C   0  0  0  0  0  0  0  0  0  0  0  0
   23.6432  -19.0921  -17.1365 O   0  0  0  0  0  0  0  0  0  0  0  0
   26.7836  -17.7908  -16.5435 C   0  0  0  0  0  0  0  0  0  0  0  0
   27.4773  -16.7087  -17.0506 C   0  0  0  0  0  0  0  0  0  0  0  0
   19.2051  -15.9176  -17.2409 C   0  0  0  0  0  0  0  0  0  0  0  0
   20.5150  -16.5790  -17.4516 C   0  0  0  0  0  0  0  0  0  0  0  0
   21.6618  -15.7463  -17.8510 C   0  0  2  0  0  0  0  0  0  0  0  0
   21.3949  -14.7433  -18.9443 C   0  0  0  0  0  0  0  0  0  0  0  0
   22.9518  -16.4655  -17.9223 C   0  0  2  0  0  0  0  0  0  0  0  0
   23.3663  -16.9025  -16.5657 N   0  0  0  0  0  0  0  0  0  0  0  0
   24.0962  -15.7919  -18.5126 C   0  0  0  0  0  0  0  0  0  0  0  0
   24.8818  -14.9287  -17.7199 O   0  0  0  0  0  0  0  0  0  0  0  0
   24.4894  -15.8898  -19.7001 O   0  0  0  0  0  0  0  0  0  0  0  0
  2  3  2  0
  2  1  1  0
  4  3  1  0
  5  4  2  0
  6  5  1  0
  7  6  1  0
  7  8  1  1
  9 10  2  0
  9  7  1  0
 11  5  1  0
 11 12  2  0
 12  2  1  0
 14 13  1  0
 15 14  2  0
 16 15  1  0
 17 23  1  0
 17 16  2  0
 18 17  1  0
 19 18  1  6
 19 20  1  0
 20  9  1  0
 21 30  1  0
 21 19  1  0
 22 21  2  0
 23 24  2  0
 24 14  1  0
 26 27  1  0
 26 25  1  0
 27 28  1  6
 27 29  1  0
 29 30  1  1
 29 31  1  0
 31 32  1  0
 33 31  2  0
M  END
$$$$
