YYI.pdb
     RDKit          3D

 33 34  0  0  1  0  0  0  0  0999 V2000
   31.1975  -17.9386  -18.8141 O   0  0  0  0  0  0  0  0  0  0  0  0
   30.1465  -17.8433  -17.8938 C   0  0  0  0  0  0  0  0  0  0  0  0
   29.4990  -16.6241  -17.7000 C   0  0  0  0  0  0  0  0  0  0  0  0
   28.4493  -16.5137  -16.7857 C   0  0  0  0  0  0  0  0  0  0  0  0
   28.0578  -17.6218  -16.0752 C   0  0  0  0  0  0  0  0  0  0  0  0
   26.9491  -17.5549  -15.0937 C   0  0  0  0  0  0  0  0  0  0  0  0
   26.2179  -18.8752  -15.1510 C   0  0  2  0  0  0  0  0  0  0  0  0
   25.4170  -18.9041  -16.3440 N   0  0  0  0  0  0  0  0  0  0  0  0
   25.3298  -19.0743  -13.9675 C   0  0  0  0  0  0  0  0  0  0  0  0
   24.5076  -18.1989  -13.6642 O   0  0  0  0  0  0  0  0  0  0  0  0
   28.7152  -18.8217  -16.2843 C   0  0  0  0  0  0  0  0  0  0  0  0
   29.7500  -18.9405  -17.1823 C   0  0  0  0  0  0  0  0  0  0  0  0
   19.1677  -19.5699  -14.9608 O   0  0  0  0  0  0  0  0  0  0  0  0
   20.2546  -20.0455  -14.2443 C   0  0  0  0  0  0  0  0  0  0  0  0
   21.2589  -20.7480  -14.8882 C   0  0  0  0  0  0  0  0  0  0  0  0
   22.3393  -21.2230  -14.1872 C   0  0  0  0  0  0  0  0  0  0  0  0
   22.3881  -20.9768  -12.8270 C   0  0  0  0  0  0  0  0  0  0  0  0
   23.5802  -21.5095  -12.0959 C   0  0  0  0  0  0  0  0  0  0  0  0
   24.6707  -20.4948  -11.9897 C   0  0  2  0  0  0  0  0  0  0  0  0
   25.4128  -20.2611  -13.1769 N   0  0  0  0  0  0  0  0  0  0  0  0
   25.5293  -20.8872  -10.8165 C   0  0  0  0  0  0  0  0  0  0  0  0
   26.2939  -21.8706  -10.9529 O   0  0  0  0  0  0  0  0  0  0  0  0
   21.3831  -20.2759  -12.1929 C   0  0  0  0  0  0  0  0  0  0  0  0
   20.2956  -19.7978  -12.8986 C   0  0  0  0  0  0  0  0  0  0  0  0
   28.7361  -18.9493   -6.0432 C   0  0  0  0  0  0  0  0  0  0  0  0
   27.8693  -19.9815   -6.6603 C   0  0  0  0  0  0  0  0  0  0  0  0
   27.1521  -19.6411   -7.9005 C   0  0  2  0  0  0  0  0  0  0  0  0
   26.6690  -18.2173   -8.0091 C   0  0  0  0  0  0  0  0  0  0  0  0
   26.2247  -20.6863   -8.3840 C   0  0  2  0  0  0  0  0  0  0  0  0
   25.5124  -20.2128   -9.5972 N   0  0  0  0  0  0  0  0  0  0  0  0
   25.2110  -21.1962   -7.4762 C   0  0  0  0  0  0  0  0  0  0  0  0
   23.8506  -20.9144   -7.7216 O   0  0  0  0  0  0  0  0  0  0  0  0
   25.4090  -21.8906   -6.4500 O   0  0  0  0  0  0  0  0  0  0  0  0
  2  3  2  0
  2  1  1  0
  4  3  1  0
  5  4  2  0
  6  5  1  0
  7  6  1  0
  7  8  1  6
  9 10  2  0
  9  7  1  0
 11  5  1  0
 11 12  2  0
 12  2  1  0
 14 13  1  0
 15 14  2  0
 16 15  1  0
 17 23  1  0
 17 16  2  0
 18 17  1  0
 19 18  1  6
 19 20  1  0
 20  9  1  0
 21 30  1  0
 21 19  1  0
 22 21  2  0
 23 24  2  0
 24 14  1  0
 26 27  1  0
 26 25  1  0
 27 28  1  1
 27 29  1  0
 29 30  1  6
 29 31  1  0
 31 32  1  0
 33 31  2  0
M  END
$$$$
