YYI.pdb
     RDKit          3D

 33 34  0  0  1  0  0  0  0  0999 V2000
   26.4213  -13.3302  -17.6875 O   0  0  0  0  0  0  0  0  0  0  0  0
   25.9448  -14.2992  -16.7960 C   0  0  0  0  0  0  0  0  0  0  0  0
   26.5863  -14.4971  -15.5743 C   0  0  0  0  0  0  0  0  0  0  0  0
   26.1227  -15.4596  -14.6751 C   0  0  0  0  0  0  0  0  0  0  0  0
   25.0235  -16.2137  -15.0057 C   0  0  0  0  0  0  0  0  0  0  0  0
   24.4938  -17.2473  -14.0849 C   0  0  0  0  0  0  0  0  0  0  0  0
   25.4532  -18.4132  -14.1183 C   0  0  2  0  0  0  0  0  0  0  0  0
   25.4383  -18.9814  -15.4383 N   0  0  0  0  0  0  0  0  0  0  0  0
   25.0819  -19.4712  -13.1324 C   0  0  0  0  0  0  0  0  0  0  0  0
   23.9619  -19.9973  -13.1907 O   0  0  0  0  0  0  0  0  0  0  0  0
   24.4028  -15.9996  -16.2241 C   0  0  0  0  0  0  0  0  0  0  0  0
   24.8518  -15.0543  -17.1163 C   0  0  0  0  0  0  0  0  0  0  0  0
   28.8403  -22.0218  -16.6832 O   0  0  0  0  0  0  0  0  0  0  0  0
   28.1856  -22.0932  -15.4636 C   0  0  0  0  0  0  0  0  0  0  0  0
   26.8767  -22.5399  -15.4018 C   0  0  0  0  0  0  0  0  0  0  0  0
   26.2199  -22.6141  -14.1986 C   0  0  0  0  0  0  0  0  0  0  0  0
   26.9065  -22.2301  -13.0610 C   0  0  0  0  0  0  0  0  0  0  0  0
   26.1590  -22.3244  -11.7681 C   0  0  0  0  0  0  0  0  0  0  0  0
   25.7877  -20.9789  -11.2371 C   0  0  2  0  0  0  0  0  0  0  0  0
   25.9995  -19.8881  -12.1201 N   0  0  0  0  0  0  0  0  0  0  0  0
   26.4835  -20.8177   -9.9113 C   0  0  0  0  0  0  0  0  0  0  0  0
   27.7278  -20.6696   -9.9167 O   0  0  0  0  0  0  0  0  0  0  0  0
   28.2109  -21.7861  -13.1313 C   0  0  0  0  0  0  0  0  0  0  0  0
   28.8719  -21.7114  -14.3424 C   0  0  0  0  0  0  0  0  0  0  0  0
   28.9899  -18.7118   -5.5156 C   0  0  0  0  0  0  0  0  0  0  0  0
   28.1299  -19.8659   -5.8707 C   0  0  0  0  0  0  0  0  0  0  0  0
   27.4059  -19.8293   -7.1525 C   0  0  2  0  0  0  0  0  0  0  0  0
   26.9032  -18.4750   -7.5835 C   0  0  0  0  0  0  0  0  0  0  0  0
   26.4920  -20.9696   -7.3780 C   0  0  2  0  0  0  0  0  0  0  0  0
   25.8127  -20.8254   -8.6899 N   0  0  0  0  0  0  0  0  0  0  0  0
   25.4542  -21.2386   -6.3970 C   0  0  0  0  0  0  0  0  0  0  0  0
   24.1071  -21.3115   -6.8098 O   0  0  0  0  0  0  0  0  0  0  0  0
   25.6194  -21.4229   -5.1669 O   0  0  0  0  0  0  0  0  0  0  0  0
  2  3  2  0
  2  1  1  0
  4  3  1  0
  5  4  2  0
  6  5  1  0
  7  6  1  0
  7  8  1  6
  9 10  2  0
  9  7  1  0
 11  5  1  0
 11 12  2  0
 12  2  1  0
 14 13  1  0
 15 14  2  0
 16 15  1  0
 17 23  1  0
 17 16  2  0
 18 17  1  0
 19 18  1  6
 19 20  1  0
 20  9  1  0
 21 30  1  0
 21 19  1  0
 22 21  2  0
 23 24  2  0
 24 14  1  0
 26 27  1  0
 26 25  1  0
 27 28  1  1
 27 29  1  0
 29 30  1  6
 29 31  1  0
 31 32  1  0
 33 31  2  0
M  END
$$$$
