YYI.pdb
     RDKit          3D

 33 34  0  0  1  0  0  0  0  0999 V2000
   17.2921  -19.4493  -16.5714 O   0  0  0  0  0  0  0  0  0  0  0  0
   17.1359  -20.4101  -15.5649 C   0  0  0  0  0  0  0  0  0  0  0  0
   18.0730  -20.5005  -14.5368 C   0  0  0  0  0  0  0  0  0  0  0  0
   17.9305  -21.4535  -13.5262 C   0  0  0  0  0  0  0  0  0  0  0  0
   16.8538  -22.3057  -13.5533 C   0  0  0  0  0  0  0  0  0  0  0  0
   16.6591  -23.3337  -12.5035 C   0  0  0  0  0  0  0  0  0  0  0  0
   17.7428  -24.3702  -12.6829 C   0  0  2  0  0  0  0  0  0  0  0  0
   17.5433  -25.0282  -13.9450 N   0  0  0  0  0  0  0  0  0  0  0  0
   17.7233  -25.3935  -11.5959 C   0  0  0  0  0  0  0  0  0  0  0  0
   16.7887  -26.2042  -11.5341 O   0  0  0  0  0  0  0  0  0  0  0  0
   15.9363  -22.1975  -14.5838 C   0  0  0  0  0  0  0  0  0  0  0  0
   16.0679  -21.2624  -15.5835 C   0  0  0  0  0  0  0  0  0  0  0  0
   20.9345  -30.4279  -13.8434 O   0  0  0  0  0  0  0  0  0  0  0  0
   20.7073  -29.6279  -12.7347 C   0  0  0  0  0  0  0  0  0  0  0  0
   21.2167  -28.3414  -12.6891 C   0  0  0  0  0  0  0  0  0  0  0  0
   20.9970  -27.5414  -11.5954 C   0  0  0  0  0  0  0  0  0  0  0  0
   20.2554  -28.0621  -10.5504 C   0  0  0  0  0  0  0  0  0  0  0  0
   20.0364  -27.1616   -9.3754 C   0  0  0  0  0  0  0  0  0  0  0  0
   18.7939  -26.3458   -9.5197 C   0  0  2  0  0  0  0  0  0  0  0  0
   18.7675  -25.4532  -10.6230 N   0  0  0  0  0  0  0  0  0  0  0  0
   18.5524  -25.6675   -8.1971 C   0  0  0  0  0  0  0  0  0  0  0  0
   19.1068  -24.5620   -7.9956 O   0  0  0  0  0  0  0  0  0  0  0  0
   19.7513  -29.3452  -10.6038 C   0  0  0  0  0  0  0  0  0  0  0  0
   19.9725  -30.1504  -11.7047 C   0  0  0  0  0  0  0  0  0  0  0  0
   14.2026  -24.6202   -4.1085 C   0  0  0  0  0  0  0  0  0  0  0  0
   15.6418  -24.8473   -4.3816 C   0  0  0  0  0  0  0  0  0  0  0  0
   16.0297  -25.3534   -5.7089 C   0  0  2  0  0  0  0  0  0  0  0  0
   15.1399  -26.4234   -6.2886 C   0  0  0  0  0  0  0  0  0  0  0  0
   17.4845  -25.5374   -5.8985 C   0  0  2  0  0  0  0  0  0  0  0  0
   17.7476  -26.2083   -7.1962 N   0  0  0  0  0  0  0  0  0  0  0  0
   18.2342  -26.2679   -4.8905 C   0  0  0  0  0  0  0  0  0  0  0  0
   18.6142  -27.6041   -5.1368 O   0  0  0  0  0  0  0  0  0  0  0  0
   18.6024  -25.8328   -3.7726 O   0  0  0  0  0  0  0  0  0  0  0  0
  2  3  2  0
  2  1  1  0
  4  3  1  0
  5  4  2  0
  6  5  1  0
  7  6  1  0
  7  8  1  6
  9 10  2  0
  9  7  1  0
 11  5  1  0
 11 12  2  0
 12  2  1  0
 14 13  1  0
 15 14  2  0
 16 15  1  0
 17 23  1  0
 17 16  2  0
 18 17  1  0
 19 18  1  1
 19 20  1  0
 20  9  1  0
 21 30  1  0
 21 19  1  0
 22 21  2  0
 23 24  2  0
 24 14  1  0
 26 27  1  0
 26 25  1  0
 27 28  1  1
 27 29  1  0
 29 30  1  6
 29 31  1  0
 31 32  1  0
 33 31  2  0
M  END
$$$$
