QYP.pdb
     RDKit          3D

 29 30  0  0  1  0  0  0  0  0999 V2000
    8.8834  -13.2738   17.0241 N   0  0  0  0  0  0  0  0  0  0  0  0
    8.6784  -14.6904   16.8764 C   0  0  0  0  0  0  0  0  0  0  0  0
    8.0819  -15.0387   15.8348 O   0  0  0  0  0  0  0  0  0  0  0  0
    9.1784  -15.5760   17.9349 C   0  0  0  0  0  0  0  0  0  0  0  0
    9.8537  -14.9122   19.0853 C   0  0  0  0  0  0  0  0  0  0  0  0
   10.2468  -15.7832   20.2211 C   0  0  2  0  0  0  0  0  0  0  0  0
    9.6686  -17.0991   20.2283 N   0  0  0  0  0  0  0  0  0  0  0  0
   10.0037  -15.1023   21.5473 C   0  0  0  0  0  0  0  0  0  0  0  0
   10.5216  -13.9820   21.7845 O   0  0  0  0  0  0  0  0  0  0  0  0
    5.8671  -11.4295   28.1724 O   0  0  0  0  0  0  0  0  0  0  0  0
    6.2393  -12.2575   27.1177 C   0  0  0  0  0  0  0  0  0  0  0  0
    6.8070  -11.7155   25.9828 C   0  0  0  0  0  0  0  0  0  0  0  0
    7.1834  -12.5191   24.9248 C   0  0  0  0  0  0  0  0  0  0  0  0
    7.0044  -13.9011   24.9645 C   0  0  0  0  0  0  0  0  0  0  0  0
    7.4107  -14.7614   23.8246 C   0  0  0  0  0  0  0  0  0  0  0  0
    8.8993  -15.0046   23.8078 C   0  0  2  0  0  0  0  0  0  0  0  0
    9.2040  -15.6891   22.5427 N   0  0  0  0  0  0  0  0  0  0  0  0
    9.3725  -15.8112   24.9277 C   0  0  0  0  0  0  0  0  0  0  0  0
    9.5458  -17.0556   24.7297 O   0  0  0  0  0  0  0  0  0  0  0  0
    6.4338  -14.3985   26.1178 C   0  0  0  0  0  0  0  0  0  0  0  0
    6.0520  -13.6182   27.1817 C   0  0  0  0  0  0  0  0  0  0  0  0
    9.6570  -15.3192   26.2258 N   0  0  0  0  0  0  0  0  0  0  0  0
    9.3561  -14.0188   26.7981 C   0  0  0  0  0  0  0  0  0  0  0  0
   10.6740  -13.7581   27.5432 C   0  0  0  0  0  0  0  0  0  0  0  0
   10.7755  -15.0615   28.3083 C   0  0  0  0  0  0  0  0  0  0  0  0
   10.3278  -16.0584   27.2792 C   0  0  1  0  0  0  0  0  0  0  0  0
    9.4307  -17.0436   27.9188 C   0  0  0  0  0  0  0  0  0  0  0  0
    9.8991  -17.9399   28.8555 O   0  0  0  0  0  0  0  0  0  0  0  0
    8.2234  -17.0640   27.6035 O   0  0  0  0  0  0  0  0  0  0  0  0
  1  2  1  0
  2  3  2  0
  2  4  1  0
  4  5  1  0
  6  5  1  0
  6  7  1  1
  8  9  2  0
  8  6  1  0
 10 11  1  0
 11 21  2  0
 11 12  1  0
 12 13  2  0
 13 14  1  0
 14 15  1  0
 16 15  1  1
 16 17  1  0
 17  8  1  0
 18 16  1  0
 18 19  2  0
 20 14  2  0
 21 20  1  0
 22 18  1  0
 23 22  1  0
 24 25  1  0
 24 23  1  0
 25 26  1  0
 26 22  1  0
 26 27  1  1
 27 29  2  0
 27 28  1  0
M  END
$$$$
