QYP.pdb
     RDKit          3D

 29 30  0  0  1  0  0  0  0  0999 V2000
    9.5711  -21.2220   21.5721 N   0  0  0  0  0  0  0  0  0  0  0  0
    9.7645  -21.2649   20.1468 C   0  0  0  0  0  0  0  0  0  0  0  0
   10.7188  -21.9719   19.7577 O   0  0  0  0  0  0  0  0  0  0  0  0
    8.8445  -20.4957   19.3002 C   0  0  0  0  0  0  0  0  0  0  0  0
    7.7643  -19.7517   20.0071 C   0  0  0  0  0  0  0  0  0  0  0  0
    7.5584  -18.3367   19.6092 C   0  0  2  0  0  0  0  0  0  0  0  0
    8.1030  -17.9611   18.3331 N   0  0  0  0  0  0  0  0  0  0  0  0
    8.0423  -17.3872   20.6797 C   0  0  0  0  0  0  0  0  0  0  0  0
    9.2081  -16.9206   20.6276 O   0  0  0  0  0  0  0  0  0  0  0  0
    7.6835  -11.8824   27.6432 O   0  0  0  0  0  0  0  0  0  0  0  0
    7.3849  -12.7204   26.5731 C   0  0  0  0  0  0  0  0  0  0  0  0
    6.9913  -14.0223   26.8059 C   0  0  0  0  0  0  0  0  0  0  0  0
    6.6905  -14.8705   25.7585 C   0  0  0  0  0  0  0  0  0  0  0  0
    6.7731  -14.4443   24.4338 C   0  0  0  0  0  0  0  0  0  0  0  0
    6.4487  -15.3597   23.3106 C   0  0  0  0  0  0  0  0  0  0  0  0
    7.6748  -16.0703   22.7938 C   0  0  2  0  0  0  0  0  0  0  0  0
    7.2188  -17.0010   21.7508 N   0  0  0  0  0  0  0  0  0  0  0  0
    8.4016  -16.8058   23.8231 C   0  0  0  0  0  0  0  0  0  0  0  0
    7.9089  -17.9081   24.2228 O   0  0  0  0  0  0  0  0  0  0  0  0
    7.1704  -13.1362   24.2487 C   0  0  0  0  0  0  0  0  0  0  0  0
    7.4743  -12.2756   25.2751 C   0  0  0  0  0  0  0  0  0  0  0  0
    9.6191  -16.3907   24.4176 N   0  0  0  0  0  0  0  0  0  0  0  0
   10.3339  -15.1363   24.2598 C   0  0  0  0  0  0  0  0  0  0  0  0
   11.7704  -15.6726   24.1658 C   0  0  0  0  0  0  0  0  0  0  0  0
   11.7779  -16.5479   25.4021 C   0  0  0  0  0  0  0  0  0  0  0  0
   10.4149  -17.1741   25.3445 C   0  0  1  0  0  0  0  0  0  0  0  0
    9.8298  -17.1843   26.7016 C   0  0  0  0  0  0  0  0  0  0  0  0
    8.6601  -16.5123   26.9849 O   0  0  0  0  0  0  0  0  0  0  0  0
   10.4077  -17.8151   27.6103 O   0  0  0  0  0  0  0  0  0  0  0  0
  1  2  1  0
  2  3  2  0
  2  4  1  0
  4  5  1  0
  6  5  1  0
  6  7  1  6
  8  9  2  0
  8  6  1  0
 10 11  1  0
 11 21  2  0
 11 12  1  0
 12 13  2  0
 13 14  1  0
 14 15  1  0
 16 15  1  1
 16 17  1  0
 17  8  1  0
 18 16  1  0
 18 19  2  0
 20 14  2  0
 21 20  1  0
 22 18  1  0
 23 22  1  0
 24 25  1  0
 24 23  1  0
 25 26  1  0
 26 22  1  0
 26 27  1  1
 27 29  2  0
 27 28  1  0
M  END
$$$$
