QYP.pdb
     RDKit          3D

 29 30  0  0  1  0  0  0  0  0999 V2000
    6.0147  -19.4438   20.1634 N   0  0  0  0  0  0  0  0  0  0  0  0
    5.9126  -18.7787   21.4353 C   0  0  0  0  0  0  0  0  0  0  0  0
    5.2505  -19.3856   22.3045 O   0  0  0  0  0  0  0  0  0  0  0  0
    6.5808  -17.4813   21.5934 C   0  0  0  0  0  0  0  0  0  0  0  0
    7.3244  -16.9739   20.4061 C   0  0  0  0  0  0  0  0  0  0  0  0
    8.0276  -15.6764   20.5638 C   0  0  2  0  0  0  0  0  0  0  0  0
    8.8275  -15.2593   19.4448 N   0  0  0  0  0  0  0  0  0  0  0  0
    8.8507  -15.6461   21.8300 C   0  0  0  0  0  0  0  0  0  0  0  0
   10.0727  -15.9374   21.7940 O   0  0  0  0  0  0  0  0  0  0  0  0
   10.7975  -14.5505   30.4351 O   0  0  0  0  0  0  0  0  0  0  0  0
   10.2073  -14.5096   29.1756 C   0  0  0  0  0  0  0  0  0  0  0  0
    9.2658  -15.4553   28.8242 C   0  0  0  0  0  0  0  0  0  0  0  0
    8.6680  -15.4327   27.5797 C   0  0  0  0  0  0  0  0  0  0  0  0
    8.9923  -14.4583   26.6370 C   0  0  0  0  0  0  0  0  0  0  0  0
    8.3470  -14.4379   25.3000 C   0  0  0  0  0  0  0  0  0  0  0  0
    9.0574  -15.3384   24.3203 C   0  0  2  0  0  0  0  0  0  0  0  0
    8.2866  -15.2971   23.0689 N   0  0  0  0  0  0  0  0  0  0  0  0
    9.1776  -16.7190   24.7764 C   0  0  0  0  0  0  0  0  0  0  0  0
    8.1306  -17.4411   24.7610 O   0  0  0  0  0  0  0  0  0  0  0  0
    9.9376  -13.5341   27.0314 C   0  0  0  0  0  0  0  0  0  0  0  0
   10.5447  -13.5375   28.2634 C   0  0  0  0  0  0  0  0  0  0  0  0
   10.3723  -17.3256   25.2378 N   0  0  0  0  0  0  0  0  0  0  0  0
   11.7076  -16.7625   25.3317 C   0  0  0  0  0  0  0  0  0  0  0  0
   12.5249  -17.9612   24.8266 C   0  0  0  0  0  0  0  0  0  0  0  0
   11.9505  -19.0358   25.7265 C   0  0  0  0  0  0  0  0  0  0  0  0
   10.4911  -18.6847   25.7327 C   0  0  1  0  0  0  0  0  0  0  0  0
    9.9675  -18.8183   27.1083 C   0  0  0  0  0  0  0  0  0  0  0  0
    9.8740  -20.0475   27.7253 O   0  0  0  0  0  0  0  0  0  0  0  0
    9.6023  -17.7960   27.7240 O   0  0  0  0  0  0  0  0  0  0  0  0
  1  2  1  0
  2  3  2  0
  2  4  1  0
  4  5  1  0
  6  5  1  0
  6  7  1  6
  8  9  2  0
  8  6  1  0
 10 11  1  0
 11 21  2  0
 11 12  1  0
 12 13  2  0
 13 14  1  0
 14 15  1  0
 16 15  1  1
 16 17  1  0
 17  8  1  0
 18 16  1  0
 18 19  2  0
 20 14  2  0
 21 20  1  0
 22 18  1  0
 23 22  1  0
 24 25  1  0
 24 23  1  0
 25 26  1  0
 26 22  1  0
 26 27  1  1
 27 29  2  0
 27 28  1  0
M  END
$$$$
