QYP.pdb
     RDKit          3D

 29 30  0  0  1  0  0  0  0  0999 V2000
   13.5403  -19.8226   19.4294 N   0  0  0  0  0  0  0  0  0  0  0  0
   13.0209  -20.4053   20.6383 C   0  0  0  0  0  0  0  0  0  0  0  0
   13.5797  -21.4610   21.0061 O   0  0  0  0  0  0  0  0  0  0  0  0
   11.9112  -19.7224   21.3144 C   0  0  0  0  0  0  0  0  0  0  0  0
   12.1903  -18.3466   21.8137 C   0  0  0  0  0  0  0  0  0  0  0  0
   11.2914  -17.2675   21.3335 C   0  0  2  0  0  0  0  0  0  0  0  0
   11.7768  -16.4999   20.2193 N   0  0  0  0  0  0  0  0  0  0  0  0
   10.8847  -16.3470   22.4599 C   0  0  0  0  0  0  0  0  0  0  0  0
   11.7038  -15.5102   22.9165 O   0  0  0  0  0  0  0  0  0  0  0  0
    5.6538  -11.7577   27.9320 O   0  0  0  0  0  0  0  0  0  0  0  0
    6.1599  -12.5951   26.9425 C   0  0  0  0  0  0  0  0  0  0  0  0
    6.8299  -12.0590   25.8618 C   0  0  0  0  0  0  0  0  0  0  0  0
    7.3398  -12.8720   24.8689 C   0  0  0  0  0  0  0  0  0  0  0  0
    7.1970  -14.2577   24.9219 C   0  0  0  0  0  0  0  0  0  0  0  0
    7.7470  -15.1280   23.8520 C   0  0  0  0  0  0  0  0  0  0  0  0
    9.1866  -15.4956   24.1123 C   0  0  2  0  0  0  0  0  0  0  0  0
    9.5990  -16.3952   23.0249 N   0  0  0  0  0  0  0  0  0  0  0  0
    9.3991  -16.1516   25.3980 C   0  0  0  0  0  0  0  0  0  0  0  0
    9.4222  -17.4232   25.4175 O   0  0  0  0  0  0  0  0  0  0  0  0
    6.5209  -14.7490   26.0194 C   0  0  0  0  0  0  0  0  0  0  0  0
    6.0056  -13.9593   27.0181 C   0  0  0  0  0  0  0  0  0  0  0  0
    9.5833  -15.4846   26.6346 N   0  0  0  0  0  0  0  0  0  0  0  0
    9.2413  -14.1209   26.9989 C   0  0  0  0  0  0  0  0  0  0  0  0
   10.4982  -13.7493   27.8003 C   0  0  0  0  0  0  0  0  0  0  0  0
   10.5380  -14.9351   28.7420 C   0  0  0  0  0  0  0  0  0  0  0  0
   10.1694  -16.0671   27.8277 C   0  0  1  0  0  0  0  0  0  0  0  0
    9.2240  -16.9637   28.5252 C   0  0  0  0  0  0  0  0  0  0  0  0
    9.6117  -17.7044   29.6211 O   0  0  0  0  0  0  0  0  0  0  0  0
    8.0494  -17.0515   28.1125 O   0  0  0  0  0  0  0  0  0  0  0  0
  1  2  1  0
  2  3  2  0
  2  4  1  0
  4  5  1  0
  6  5  1  0
  6  7  1  6
  8  9  2  0
  8  6  1  0
 10 11  1  0
 11 21  2  0
 11 12  1  0
 12 13  2  0
 13 14  1  0
 14 15  1  0
 16 15  1  6
 16 17  1  0
 17  8  1  0
 18 16  1  0
 18 19  2  0
 20 14  2  0
 21 20  1  0
 22 18  1  0
 23 22  1  0
 24 25  1  0
 24 23  1  0
 25 26  1  0
 26 22  1  0
 26 27  1  1
 27 29  2  0
 27 28  1  0
M  END
$$$$
