QYP.pdb
     RDKit          3D

 29 30  0  0  1  0  0  0  0  0999 V2000
    4.3769  -19.2858   19.8210 N   0  0  0  0  0  0  0  0  0  0  0  0
    5.4484  -19.1914   18.8652 C   0  0  0  0  0  0  0  0  0  0  0  0
    5.1428  -19.4828   17.6888 O   0  0  0  0  0  0  0  0  0  0  0  0
    6.7695  -18.7694   19.3461 C   0  0  0  0  0  0  0  0  0  0  0  0
    6.8346  -18.2842   20.7534 C   0  0  0  0  0  0  0  0  0  0  0  0
    7.5580  -17.0093   20.9866 C   0  0  2  0  0  0  0  0  0  0  0  0
    8.9097  -16.9601   20.5003 N   0  0  0  0  0  0  0  0  0  0  0  0
    7.5155  -16.6101   22.4428 C   0  0  0  0  0  0  0  0  0  0  0  0
    6.4125  -16.5132   23.0374 O   0  0  0  0  0  0  0  0  0  0  0  0
   10.0974  -15.0825   30.7583 O   0  0  0  0  0  0  0  0  0  0  0  0
   10.0551  -15.3849   29.4006 C   0  0  0  0  0  0  0  0  0  0  0  0
    9.8495  -16.6862   28.9901 C   0  0  0  0  0  0  0  0  0  0  0  0
    9.8040  -17.0078   27.6480 C   0  0  0  0  0  0  0  0  0  0  0  0
    9.9633  -16.0340   26.6633 C   0  0  0  0  0  0  0  0  0  0  0  0
    9.9136  -16.3844   25.2212 C   0  0  0  0  0  0  0  0  0  0  0  0
    8.6566  -15.8731   24.5625 C   0  0  2  0  0  0  0  0  0  0  0  0
    8.6880  -16.3384   23.1681 N   0  0  0  0  0  0  0  0  0  0  0  0
    8.5313  -14.4198   24.5914 C   0  0  0  0  0  0  0  0  0  0  0  0
    9.2977  -13.7440   23.8340 O   0  0  0  0  0  0  0  0  0  0  0  0
   10.1662  -14.7480   27.1194 C   0  0  0  0  0  0  0  0  0  0  0  0
   10.2151  -14.4056   28.4487 C   0  0  0  0  0  0  0  0  0  0  0  0
    7.6199  -13.6946   25.3986 N   0  0  0  0  0  0  0  0  0  0  0  0
    6.5897  -14.1948   26.2917 C   0  0  0  0  0  0  0  0  0  0  0  0
    5.4603  -13.2099   25.9534 C   0  0  0  0  0  0  0  0  0  0  0  0
    6.2216  -11.9107   26.1176 C   0  0  0  0  0  0  0  0  0  0  0  0
    7.5451  -12.2484   25.4949 C   0  0  1  0  0  0  0  0  0  0  0  0
    8.6291  -11.6947   26.3331 C   0  0  0  0  0  0  0  0  0  0  0  0
    9.5212  -12.5159   26.9888 O   0  0  0  0  0  0  0  0  0  0  0  0
    8.7386  -10.4570   26.4493 O   0  0  0  0  0  0  0  0  0  0  0  0
  1  2  1  0
  2  3  2  0
  2  4  1  0
  4  5  1  0
  6  5  1  0
  6  7  1  1
  8  9  2  0
  8  6  1  0
 10 11  1  0
 11 21  2  0
 11 12  1  0
 12 13  2  0
 13 14  1  0
 14 15  1  0
 16 15  1  6
 16 17  1  0
 17  8  1  0
 18 16  1  0
 18 19  2  0
 20 14  2  0
 21 20  1  0
 22 18  1  0
 23 22  1  0
 24 25  1  0
 24 23  1  0
 25 26  1  0
 26 22  1  0
 26 27  1  1
 27 29  2  0
 27 28  1  0
M  END
$$$$
