QYP.pdb
     RDKit          3D

 29 30  0  0  1  0  0  0  0  0999 V2000
    6.8563  -21.7126   21.3077 N   0  0  0  0  0  0  0  0  0  0  0  0
    6.9376  -21.0629   20.0264 C   0  0  0  0  0  0  0  0  0  0  0  0
    7.1358  -21.8220   19.0535 O   0  0  0  0  0  0  0  0  0  0  0  0
    6.7818  -19.6040   19.9791 C   0  0  0  0  0  0  0  0  0  0  0  0
    6.5031  -18.9286   21.2776 C   0  0  0  0  0  0  0  0  0  0  0  0
    7.1623  -17.6179   21.5027 C   0  0  2  0  0  0  0  0  0  0  0  0
    8.5793  -17.5823   21.2643 N   0  0  0  0  0  0  0  0  0  0  0  0
    6.8536  -17.0748   22.8780 C   0  0  0  0  0  0  0  0  0  0  0  0
    5.6608  -16.8973   23.2320 O   0  0  0  0  0  0  0  0  0  0  0  0
    6.4039  -22.3500   26.4646 O   0  0  0  0  0  0  0  0  0  0  0  0
    6.8972  -21.0523   26.3697 C   0  0  0  0  0  0  0  0  0  0  0  0
    6.2428  -20.0176   27.0063 C   0  0  0  0  0  0  0  0  0  0  0  0
    6.7154  -18.7227   26.9251 C   0  0  0  0  0  0  0  0  0  0  0  0
    7.8657  -18.4149   26.2002 C   0  0  0  0  0  0  0  0  0  0  0  0
    8.3703  -17.0210   26.1156 C   0  0  0  0  0  0  0  0  0  0  0  0
    7.5865  -16.1999   25.1221 C   0  0  2  0  0  0  0  0  0  0  0  0
    7.8727  -16.7558   23.7914 N   0  0  0  0  0  0  0  0  0  0  0  0
    7.9225  -14.7803   25.1427 C   0  0  0  0  0  0  0  0  0  0  0  0
    8.8177  -14.3717   24.3368 O   0  0  0  0  0  0  0  0  0  0  0  0
    8.4866  -19.4797   25.5808 C   0  0  0  0  0  0  0  0  0  0  0  0
    8.0344  -20.7748   25.6482 C   0  0  0  0  0  0  0  0  0  0  0  0
    7.3296  -13.8130   25.9918 N   0  0  0  0  0  0  0  0  0  0  0  0
    6.0638  -13.8707   26.7015 C   0  0  0  0  0  0  0  0  0  0  0  0
    5.5688  -12.4376   26.4548 C   0  0  0  0  0  0  0  0  0  0  0  0
    6.8022  -11.6805   26.9021 C   0  0  0  0  0  0  0  0  0  0  0  0
    7.9051  -12.5253   26.3338 C   0  0  1  0  0  0  0  0  0  0  0  0
    8.9830  -12.6520   27.3370 C   0  0  0  0  0  0  0  0  0  0  0  0
    9.8109  -11.5922   27.6398 O   0  0  0  0  0  0  0  0  0  0  0  0
    9.1467  -13.7422   27.9221 O   0  0  0  0  0  0  0  0  0  0  0  0
  1  2  1  0
  2  3  2  0
  2  4  1  0
  4  5  1  0
  6  5  1  0
  6  7  1  1
  8  9  2  0
  8  6  1  0
 10 11  1  0
 11 21  2  0
 11 12  1  0
 12 13  2  0
 13 14  1  0
 14 15  1  0
 16 15  1  1
 16 17  1  0
 17  8  1  0
 18 16  1  0
 18 19  2  0
 20 14  2  0
 21 20  1  0
 22 18  1  0
 23 22  1  0
 24 25  1  0
 24 23  1  0
 25 26  1  0
 26 22  1  0
 26 27  1  1
 27 29  2  0
 27 28  1  0
M  END
$$$$
