QYP.pdb
     RDKit          3D

 29 30  0  0  1  0  0  0  0  0999 V2000
   10.1113  -18.9365   17.1152 N   0  0  0  0  0  0  0  0  0  0  0  0
    8.9816  -19.8170   17.2531 C   0  0  0  0  0  0  0  0  0  0  0  0
    8.7505  -20.5488   16.2666 O   0  0  0  0  0  0  0  0  0  0  0  0
    8.2236  -19.7786   18.5095 C   0  0  0  0  0  0  0  0  0  0  0  0
    8.7474  -18.8699   19.5678 C   0  0  0  0  0  0  0  0  0  0  0  0
    8.3948  -17.4331   19.4480 C   0  0  2  0  0  0  0  0  0  0  0  0
    8.9267  -16.7532   18.2987 N   0  0  0  0  0  0  0  0  0  0  0  0
    8.7416  -16.6738   20.7068 C   0  0  0  0  0  0  0  0  0  0  0  0
    9.9447  -16.4879   21.0190 O   0  0  0  0  0  0  0  0  0  0  0  0
    7.6605  -11.4456   27.7957 O   0  0  0  0  0  0  0  0  0  0  0  0
    7.4544  -12.2311   26.6657 C   0  0  0  0  0  0  0  0  0  0  0  0
    7.7829  -11.7432   25.4174 C   0  0  0  0  0  0  0  0  0  0  0  0
    7.5865  -12.5062   24.2833 C   0  0  0  0  0  0  0  0  0  0  0  0
    7.0516  -13.7913   24.3578 C   0  0  0  0  0  0  0  0  0  0  0  0
    6.8421  -14.6082   23.1356 C   0  0  0  0  0  0  0  0  0  0  0  0
    8.0718  -15.4042   22.7752 C   0  0  2  0  0  0  0  0  0  0  0  0
    7.7472  -16.1590   21.5559 N   0  0  0  0  0  0  0  0  0  0  0  0
    8.4994  -16.3256   23.8225 C   0  0  0  0  0  0  0  0  0  0  0  0
    7.8565  -17.4155   23.9513 O   0  0  0  0  0  0  0  0  0  0  0  0
    6.7382  -14.2376   25.6249 C   0  0  0  0  0  0  0  0  0  0  0  0
    6.9250  -13.4962   26.7660 C   0  0  0  0  0  0  0  0  0  0  0  0
    9.5790  -16.1049   24.7135 N   0  0  0  0  0  0  0  0  0  0  0  0
   10.3629  -14.9000   24.9210 C   0  0  0  0  0  0  0  0  0  0  0  0
   11.7627  -15.5234   25.0296 C   0  0  0  0  0  0  0  0  0  0  0  0
   11.4706  -16.5818   26.0731 C   0  0  0  0  0  0  0  0  0  0  0  0
   10.1260  -17.0843   25.6342 C   0  0  1  0  0  0  0  0  0  0  0  0
    9.2659  -17.2649   26.8224 C   0  0  0  0  0  0  0  0  0  0  0  0
    8.1359  -16.4991   27.0145 O   0  0  0  0  0  0  0  0  0  0  0  0
    9.5697  -18.1294   27.6696 O   0  0  0  0  0  0  0  0  0  0  0  0
  1  2  1  0
  2  3  2  0
  2  4  1  0
  4  5  1  0
  6  5  1  0
  6  7  1  6
  8  9  2  0
  8  6  1  0
 10 11  1  0
 11 21  2  0
 11 12  1  0
 12 13  2  0
 13 14  1  0
 14 15  1  0
 16 15  1  1
 16 17  1  0
 17  8  1  0
 18 16  1  0
 18 19  2  0
 20 14  2  0
 21 20  1  0
 22 18  1  0
 23 22  1  0
 24 25  1  0
 24 23  1  0
 25 26  1  0
 26 22  1  0
 26 27  1  1
 27 29  2  0
 27 28  1  0
M  END
$$$$
