QYP.pdb
     RDKit          3D

 29 30  0  0  1  0  0  0  0  0999 V2000
   11.7411  -18.2590   17.1155 N   0  0  0  0  0  0  0  0  0  0  0  0
   10.4357  -17.7877   17.4954 C   0  0  0  0  0  0  0  0  0  0  0  0
    9.4990  -18.5916   17.2994 O   0  0  0  0  0  0  0  0  0  0  0  0
   10.3257  -16.4401   18.0668 C   0  0  0  0  0  0  0  0  0  0  0  0
    9.6291  -16.3358   19.3798 C   0  0  0  0  0  0  0  0  0  0  0  0
   10.3435  -16.8844   20.5595 C   0  0  2  0  0  0  0  0  0  0  0  0
   10.0153  -18.2380   20.9146 N   0  0  0  0  0  0  0  0  0  0  0  0
   10.1957  -15.9821   21.7619 C   0  0  0  0  0  0  0  0  0  0  0  0
   10.7414  -14.8500   21.7706 O   0  0  0  0  0  0  0  0  0  0  0  0
    5.8518  -11.3105   27.6389 O   0  0  0  0  0  0  0  0  0  0  0  0
    6.2879  -12.2344   26.6941 C   0  0  0  0  0  0  0  0  0  0  0  0
    6.9521  -11.8037   25.5639 C   0  0  0  0  0  0  0  0  0  0  0  0
    7.3932  -12.7037   24.6141 C   0  0  0  0  0  0  0  0  0  0  0  0
    7.1845  -14.0741   24.7617 C   0  0  0  0  0  0  0  0  0  0  0  0
    7.6606  -15.0383   23.7377 C   0  0  0  0  0  0  0  0  0  0  0  0
    9.1009  -15.4274   23.9601 C   0  0  2  0  0  0  0  0  0  0  0  0
    9.4559  -16.3723   22.8910 N   0  0  0  0  0  0  0  0  0  0  0  0
    9.3461  -16.0434   25.2598 C   0  0  0  0  0  0  0  0  0  0  0  0
    9.2683  -17.3105   25.3388 O   0  0  0  0  0  0  0  0  0  0  0  0
    6.5168  -14.4588   25.9059 C   0  0  0  0  0  0  0  0  0  0  0  0
    6.0695  -13.5814   26.8632 C   0  0  0  0  0  0  0  0  0  0  0  0
    9.6659  -15.3419   26.4487 N   0  0  0  0  0  0  0  0  0  0  0  0
    9.4217  -13.9501   26.7841 C   0  0  0  0  0  0  0  0  0  0  0  0
   10.7582  -13.6143   27.4632 C   0  0  0  0  0  0  0  0  0  0  0  0
   10.8205  -14.7653   28.4460 C   0  0  0  0  0  0  0  0  0  0  0  0
   10.3220  -15.9096   27.6121 C   0  0  1  0  0  0  0  0  0  0  0  0
    9.3969  -16.7304   28.4212 C   0  0  0  0  0  0  0  0  0  0  0  0
    9.8450  -17.4733   29.4924 O   0  0  0  0  0  0  0  0  0  0  0  0
    8.1841  -16.7511   28.1277 O   0  0  0  0  0  0  0  0  0  0  0  0
  1  2  1  0
  2  3  2  0
  2  4  1  0
  4  5  1  0
  6  5  1  0
  6  7  1  1
  8  9  2  0
  8  6  1  0
 10 11  1  0
 11 21  2  0
 11 12  1  0
 12 13  2  0
 13 14  1  0
 14 15  1  0
 16 15  1  1
 16 17  1  0
 17  8  1  0
 18 16  1  0
 18 19  2  0
 20 14  2  0
 21 20  1  0
 22 18  1  0
 23 22  1  0
 24 25  1  0
 24 23  1  0
 25 26  1  0
 26 22  1  0
 26 27  1  1
 27 29  2  0
 27 28  1  0
M  END
$$$$
