QYP.pdb
     RDKit          3D

 29 30  0  0  1  0  0  0  0  0999 V2000
    9.1900  -20.6507   20.1041 N   0  0  0  0  0  0  0  0  0  0  0  0
    8.1488  -21.6057   19.8314 C   0  0  0  0  0  0  0  0  0  0  0  0
    8.5405  -22.7290   19.4480 O   0  0  0  0  0  0  0  0  0  0  0  0
    6.7559  -21.1853   20.0259 C   0  0  0  0  0  0  0  0  0  0  0  0
    6.5460  -19.7665   20.4295 C   0  0  0  0  0  0  0  0  0  0  0  0
    5.5952  -19.5234   21.5431 C   0  0  2  0  0  0  0  0  0  0  0  0
    4.2245  -19.8672   21.2803 N   0  0  0  0  0  0  0  0  0  0  0  0
    5.6866  -18.1017   22.0452 C   0  0  0  0  0  0  0  0  0  0  0  0
    5.1702  -17.1658   21.3842 O   0  0  0  0  0  0  0  0  0  0  0  0
    7.5891  -11.0892   27.0858 O   0  0  0  0  0  0  0  0  0  0  0  0
    7.3704  -12.3781   26.6092 C   0  0  0  0  0  0  0  0  0  0  0  0
    8.4397  -13.1641   26.2309 C   0  0  0  0  0  0  0  0  0  0  0  0
    8.2449  -14.4458   25.7554 C   0  0  0  0  0  0  0  0  0  0  0  0
    6.9666  -14.9900   25.6406 C   0  0  0  0  0  0  0  0  0  0  0  0
    6.7618  -16.3687   25.1288 C   0  0  0  0  0  0  0  0  0  0  0  0
    6.6599  -16.3992   23.6241 C   0  0  2  0  0  0  0  0  0  0  0  0
    6.3409  -17.7843   23.2476 N   0  0  0  0  0  0  0  0  0  0  0  0
    7.8810  -15.9763   22.9468 C   0  0  0  0  0  0  0  0  0  0  0  0
    8.8645  -16.7829   22.9405 O   0  0  0  0  0  0  0  0  0  0  0  0
    5.9286  -14.1691   26.0299 C   0  0  0  0  0  0  0  0  0  0  0  0
    6.0991  -12.8919   26.5055 C   0  0  0  0  0  0  0  0  0  0  0  0
    8.0626  -14.7333   22.2911 N   0  0  0  0  0  0  0  0  0  0  0  0
    7.2445  -13.5352   22.3577 C   0  0  0  0  0  0  0  0  0  0  0  0
    7.2565  -13.1366   20.8741 C   0  0  0  0  0  0  0  0  0  0  0  0
    8.7510  -13.1773   20.6298 C   0  0  0  0  0  0  0  0  0  0  0  0
    9.1544  -14.4054   21.3930 C   0  0  1  0  0  0  0  0  0  0  0  0
   10.4075  -14.1291   22.1262 C   0  0  0  0  0  0  0  0  0  0  0  0
   10.4495  -14.1322   23.5040 O   0  0  0  0  0  0  0  0  0  0  0  0
   11.4498  -13.8877   21.4834 O   0  0  0  0  0  0  0  0  0  0  0  0
  1  2  1  0
  2  3  2  0
  2  4  1  0
  4  5  1  0
  6  5  1  0
  6  7  1  6
  8  9  2  0
  8  6  1  0
 10 11  1  0
 11 21  2  0
 11 12  1  0
 12 13  2  0
 13 14  1  0
 14 15  1  0
 16 15  1  1
 16 17  1  0
 17  8  1  0
 18 16  1  0
 18 19  2  0
 20 14  2  0
 21 20  1  0
 22 18  1  0
 23 22  1  0
 24 25  1  0
 24 23  1  0
 25 26  1  0
 26 22  1  0
 26 27  1  1
 27 29  2  0
 27 28  1  0
M  END
$$$$
