QYP.pdb
     RDKit          3D

 29 30  0  0  1  0  0  0  0  0999 V2000
    9.5484  -12.7988   19.5886 N   0  0  0  0  0  0  0  0  0  0  0  0
    8.9110  -13.3271   18.4117 C   0  0  0  0  0  0  0  0  0  0  0  0
    9.5081  -13.1076   17.3359 O   0  0  0  0  0  0  0  0  0  0  0  0
    7.6500  -14.0600   18.5776 C   0  0  0  0  0  0  0  0  0  0  0  0
    7.1972  -14.2838   19.9793 C   0  0  0  0  0  0  0  0  0  0  0  0
    7.5563  -15.5850   20.5966 C   0  0  2  0  0  0  0  0  0  0  0  0
    7.1110  -16.7553   19.8906 N   0  0  0  0  0  0  0  0  0  0  0  0
    7.1155  -15.6506   22.0399 C   0  0  0  0  0  0  0  0  0  0  0  0
    5.8986  -15.5370   22.3326 O   0  0  0  0  0  0  0  0  0  0  0  0
    4.8660  -21.2252   22.2427 O   0  0  0  0  0  0  0  0  0  0  0  0
    5.6011  -20.2583   22.9218 C   0  0  0  0  0  0  0  0  0  0  0  0
    6.9343  -20.0682   22.6208 C   0  0  0  0  0  0  0  0  0  0  0  0
    7.6819  -19.1143   23.2827 C   0  0  0  0  0  0  0  0  0  0  0  0
    7.1196  -18.3122   24.2746 C   0  0  0  0  0  0  0  0  0  0  0  0
    7.9273  -17.2878   24.9836 C   0  0  0  0  0  0  0  0  0  0  0  0
    7.6207  -15.8942   24.4943 C   0  0  2  0  0  0  0  0  0  0  0  0
    8.0361  -15.8376   23.0850 N   0  0  0  0  0  0  0  0  0  0  0  0
    8.3015  -14.8469   25.2482 C   0  0  0  0  0  0  0  0  0  0  0  0
    9.5109  -14.5919   24.9479 O   0  0  0  0  0  0  0  0  0  0  0  0
    5.7851  -18.5371   24.5421 C   0  0  0  0  0  0  0  0  0  0  0  0
    5.0227  -19.4798   23.8966 C   0  0  0  0  0  0  0  0  0  0  0  0
    7.7227  -14.0856   26.2938 N   0  0  0  0  0  0  0  0  0  0  0  0
    6.3427  -14.0509   26.7450 C   0  0  0  0  0  0  0  0  0  0  0  0
    6.1845  -12.5384   26.9624 C   0  0  0  0  0  0  0  0  0  0  0  0
    7.4056  -12.2939   27.8247 C   0  0  0  0  0  0  0  0  0  0  0  0
    8.4336  -13.1591   27.1553 C   0  0  1  0  0  0  0  0  0  0  0  0
    9.2217  -13.8617   28.1895 C   0  0  0  0  0  0  0  0  0  0  0  0
    9.1276  -15.2262   28.3611 O   0  0  0  0  0  0  0  0  0  0  0  0
    9.9886  -13.2048   28.9230 O   0  0  0  0  0  0  0  0  0  0  0  0
  1  2  1  0
  2  3  2  0
  2  4  1  0
  4  5  1  0
  6  5  1  0
  6  7  1  6
  8  9  2  0
  8  6  1  0
 10 11  1  0
 11 21  2  0
 11 12  1  0
 12 13  2  0
 13 14  1  0
 14 15  1  0
 16 15  1  1
 16 17  1  0
 17  8  1  0
 18 16  1  0
 18 19  2  0
 20 14  2  0
 21 20  1  0
 22 18  1  0
 23 22  1  0
 24 25  1  0
 24 23  1  0
 25 26  1  0
 26 22  1  0
 26 27  1  1
 27 29  2  0
 27 28  1  0
M  END
$$$$
