QYP.pdb
     RDKit          3D

 29 30  0  0  1  0  0  0  0  0999 V2000
   12.3321  -18.8002   17.3530 N   0  0  0  0  0  0  0  0  0  0  0  0
   11.7642  -17.5045   17.6157 C   0  0  0  0  0  0  0  0  0  0  0  0
   12.0039  -16.6310   16.7544 O   0  0  0  0  0  0  0  0  0  0  0  0
   10.9724  -17.3311   18.8395 C   0  0  0  0  0  0  0  0  0  0  0  0
   11.7401  -17.0726   20.0900 C   0  0  0  0  0  0  0  0  0  0  0  0
   11.2241  -17.7014   21.3316 C   0  0  2  0  0  0  0  0  0  0  0  0
   10.1555  -18.6464   21.1555 N   0  0  0  0  0  0  0  0  0  0  0  0
   10.8336  -16.6611   22.3549 C   0  0  0  0  0  0  0  0  0  0  0  0
   11.6530  -15.7694   22.6908 O   0  0  0  0  0  0  0  0  0  0  0  0
    5.8411  -11.3696   27.3512 O   0  0  0  0  0  0  0  0  0  0  0  0
    6.3015  -12.3562   26.4846 C   0  0  0  0  0  0  0  0  0  0  0  0
    6.1086  -13.6878   26.7908 C   0  0  0  0  0  0  0  0  0  0  0  0
    6.5576  -14.6826   25.9448 C   0  0  0  0  0  0  0  0  0  0  0  0
    7.2192  -14.3792   24.7558 C   0  0  0  0  0  0  0  0  0  0  0  0
    7.7002  -15.4521   23.8490 C   0  0  0  0  0  0  0  0  0  0  0  0
    9.1858  -15.6765   23.9840 C   0  0  2  0  0  0  0  0  0  0  0  0
    9.5628  -16.6564   22.9547 N   0  0  0  0  0  0  0  0  0  0  0  0
    9.5857  -16.1679   25.2982 C   0  0  0  0  0  0  0  0  0  0  0  0
    9.7885  -17.4170   25.4270 O   0  0  0  0  0  0  0  0  0  0  0  0
    7.3896  -13.0362   24.4906 C   0  0  0  0  0  0  0  0  0  0  0  0
    6.9515  -12.0306   25.3174 C   0  0  0  0  0  0  0  0  0  0  0  0
    9.7683  -15.3631   26.4502 N   0  0  0  0  0  0  0  0  0  0  0  0
    9.4069  -13.9726   26.6619 C   0  0  0  0  0  0  0  0  0  0  0  0
   10.6634  -13.4938   27.4048 C   0  0  0  0  0  0  0  0  0  0  0  0
   10.7296  -14.5653   28.4735 C   0  0  0  0  0  0  0  0  0  0  0  0
   10.3726  -15.7986   27.6957 C   0  0  1  0  0  0  0  0  0  0  0  0
    9.4472  -16.6253   28.4983 C   0  0  0  0  0  0  0  0  0  0  0  0
    8.1266  -16.7833   28.1359 O   0  0  0  0  0  0  0  0  0  0  0  0
    9.8710  -17.1923   29.5261 O   0  0  0  0  0  0  0  0  0  0  0  0
  1  2  1  0
  2  3  2  0
  2  4  1  0
  4  5  1  0
  6  5  1  0
  6  7  1  6
  8  9  2  0
  8  6  1  0
 10 11  1  0
 11 21  2  0
 11 12  1  0
 12 13  2  0
 13 14  1  0
 14 15  1  0
 16 15  1  1
 16 17  1  0
 17  8  1  0
 18 16  1  0
 18 19  2  0
 20 14  2  0
 21 20  1  0
 22 18  1  0
 23 22  1  0
 24 25  1  0
 24 23  1  0
 25 26  1  0
 26 22  1  0
 26 27  1  1
 27 29  2  0
 27 28  1  0
M  END
$$$$
