KVE.pdb
     RDKit          3D

 26 25  0  0  1  0  0  0  0  0999 V2000
   16.6940  -13.0256  -17.2831 N   0  0  0  0  0  0  0  0  0  0  0  0
   17.5881  -12.4907  -16.2841 C   0  0  1  0  0  0  0  0  0  0  0  0
   18.8810  -13.2233  -16.3164 C   0  0  0  0  0  0  0  0  0  0  0  0
   18.6334  -14.6893  -16.0651 C   0  0  0  0  0  0  0  0  0  0  0  0
   19.8766  -15.5237  -16.0103 C   0  0  0  0  0  0  0  0  0  0  0  0
   19.5314  -17.0078  -15.8216 C   0  0  0  0  0  0  0  0  0  0  0  0
   20.7692  -17.7314  -15.6915 N   0  0  0  0  0  0  0  0  0  0  0  0
   17.7202  -11.0317  -16.4402 C   0  0  0  0  0  0  0  0  0  0  0  0
   17.5912  -10.5387  -17.5864 O   0  0  0  0  0  0  0  0  0  0  0  0
   16.9510   -6.6031  -14.7050 C   0  0  0  0  0  0  0  0  0  0  0  0
   16.8343   -8.0827  -14.9580 C   0  0  1  0  0  0  0  0  0  0  0  0
   15.5282   -8.3601  -15.6249 C   0  0  0  0  0  0  0  0  0  0  0  0
   18.0444   -8.6593  -15.6183 C   0  0  2  0  0  0  0  0  0  0  0  0
   17.9861  -10.1240  -15.3811 N   0  0  0  0  0  0  0  0  0  0  0  0
   19.3300   -8.1342  -15.1237 C   0  0  0  0  0  0  0  0  0  0  0  0
   19.6950   -8.3101  -13.9124 O   0  0  0  0  0  0  0  0  0  0  0  0
   20.2505   -7.4103  -15.9213 N   0  0  0  0  0  0  0  0  0  0  0  0
   21.4910   -6.8925  -15.4333 C   0  0  1  0  0  0  0  0  0  0  0  0
   22.3954   -6.3038  -16.4435 C   0  0  0  0  0  0  0  0  0  0  0  0
   22.5526   -4.8377  -16.4372 C   0  0  0  0  0  0  0  0  0  0  0  0
   23.0747   -4.2822  -17.6944 C   0  0  0  0  0  0  0  0  0  0  0  0
   23.4536   -4.9274  -18.6854 O   0  0  0  0  0  0  0  0  0  0  0  0
   21.2951   -6.0160  -14.2422 C   0  0  0  0  0  0  0  0  0  0  0  0
   22.2408   -6.0601  -13.2360 O   0  0  0  0  0  0  0  0  0  0  0  0
   23.1442   -2.8744  -17.7617 O   0  0  0  0  0  0  0  0  0  0  0  0
   20.3179   -5.2449  -14.1109 O   0  0  0  0  0  0  0  0  0  0  0  0
  2  3  1  0
  2  1  1  6
  4  3  1  0
  5  4  1  0
  5  6  1  0
  7  6  1  0
  8  9  2  0
  8  2  1  0
 11 10  1  6
 11 12  1  0
 11 13  1  0
 13 14  1  1
 14  8  1  0
 15 16  2  0
 15 13  1  0
 17 15  1  0
 18 19  1  6
 18 17  1  0
 20 19  1  0
 20 21  1  0
 21 25  1  0
 22 21  2  0
 23 18  1  0
 24 23  1  0
 26 23  2  0
M  END
$$$$
