KVE.pdb
     RDKit          3D

 26 25  0  0  1  0  0  0  0  0999 V2000
   22.0947  -14.5763  -17.8874 N   0  0  0  0  0  0  0  0  0  0  0  0
   22.4805  -13.4572  -18.7134 C   0  0  1  0  0  0  0  0  0  0  0  0
   22.6544  -13.9020  -20.1210 C   0  0  0  0  0  0  0  0  0  0  0  0
   23.8259  -14.8474  -20.2073 C   0  0  0  0  0  0  0  0  0  0  0  0
   23.4472  -16.2967  -20.2381 C   0  0  0  0  0  0  0  0  0  0  0  0
   24.6858  -17.1816  -20.4386 C   0  0  0  0  0  0  0  0  0  0  0  0
   24.2431  -18.5509  -20.4775 N   0  0  0  0  0  0  0  0  0  0  0  0
   21.5296  -12.3440  -18.5482 C   0  0  0  0  0  0  0  0  0  0  0  0
   20.5645  -12.2586  -19.3448 O   0  0  0  0  0  0  0  0  0  0  0  0
   18.2297  -10.4649  -16.2826 C   0  0  0  0  0  0  0  0  0  0  0  0
   19.2954  -11.2138  -17.0378 C   0  0  1  0  0  0  0  0  0  0  0  0
   18.6757  -11.8789  -18.2215 C   0  0  0  0  0  0  0  0  0  0  0  0
   20.5090  -10.3857  -17.3104 C   0  0  2  0  0  0  0  0  0  0  0  0
   21.6191  -11.3438  -17.5442 N   0  0  0  0  0  0  0  0  0  0  0  0
   20.8829   -9.4584  -16.2271 C   0  0  0  0  0  0  0  0  0  0  0  0
   21.2220   -9.8900  -15.0738 O   0  0  0  0  0  0  0  0  0  0  0  0
   20.9013   -8.0480  -16.3616 N   0  0  0  0  0  0  0  0  0  0  0  0
   21.3577   -7.1573  -15.3402 C   0  0  1  0  0  0  0  0  0  0  0  0
   21.6956   -5.7850  -15.7737 C   0  0  0  0  0  0  0  0  0  0  0  0
   22.1629   -4.8449  -14.7384 C   0  0  0  0  0  0  0  0  0  0  0  0
   22.4596   -3.4950  -15.2397 C   0  0  0  0  0  0  0  0  0  0  0  0
   22.4469   -3.1290  -16.4262 O   0  0  0  0  0  0  0  0  0  0  0  0
   20.4717   -7.1898  -14.1404 C   0  0  0  0  0  0  0  0  0  0  0  0
   21.0624   -7.2731  -12.8943 O   0  0  0  0  0  0  0  0  0  0  0  0
   22.7892   -2.5346  -14.2598 O   0  0  0  0  0  0  0  0  0  0  0  0
   19.2227   -7.1458  -14.2083 O   0  0  0  0  0  0  0  0  0  0  0  0
  2  3  1  0
  2  1  1  1
  4  3  1  0
  5  4  1  0
  5  6  1  0
  7  6  1  0
  8  9  2  0
  8  2  1  0
 11 10  1  6
 11 12  1  0
 11 13  1  0
 13 14  1  1
 14  8  1  0
 15 16  2  0
 15 13  1  0
 17 15  1  0
 18 19  1  6
 18 17  1  0
 20 19  1  0
 20 21  1  0
 21 25  1  0
 22 21  2  0
 23 18  1  0
 24 23  1  0
 26 23  2  0
M  END
$$$$
