KVE.pdb
     RDKit          3D

 26 25  0  0  1  0  0  0  0  0999 V2000
   20.7699  -20.6870  -10.9331 N   0  0  0  0  0  0  0  0  0  0  0  0
   21.5452  -19.6293  -11.5363 C   0  0  1  0  0  0  0  0  0  0  0  0
   22.8079  -19.4303  -10.7778 C   0  0  0  0  0  0  0  0  0  0  0  0
   23.0252  -20.5988   -9.8499 C   0  0  0  0  0  0  0  0  0  0  0  0
   22.1414  -20.5977   -8.6401 C   0  0  0  0  0  0  0  0  0  0  0  0
   22.4220  -21.8215   -7.7565 C   0  0  0  0  0  0  0  0  0  0  0  0
   21.5333  -21.7574   -6.6257 N   0  0  0  0  0  0  0  0  0  0  0  0
   21.7420  -19.8907  -12.9728 C   0  0  0  0  0  0  0  0  0  0  0  0
   21.8245  -21.0816  -13.3581 O   0  0  0  0  0  0  0  0  0  0  0  0
   20.8230  -18.5176  -17.5593 C   0  0  0  0  0  0  0  0  0  0  0  0
   20.7600  -18.4992  -16.0551 C   0  0  1  0  0  0  0  0  0  0  0  0
   19.3876  -18.8944  -15.6215 C   0  0  0  0  0  0  0  0  0  0  0  0
   21.8895  -19.2385  -15.4144 C   0  0  2  0  0  0  0  0  0  0  0  0
   21.8477  -18.8876  -13.9721 N   0  0  0  0  0  0  0  0  0  0  0  0
   23.2236  -18.9228  -15.9565 C   0  0  0  0  0  0  0  0  0  0  0  0
   23.7939  -17.8081  -15.7043 O   0  0  0  0  0  0  0  0  0  0  0  0
   23.9728  -19.7996  -16.7796 N   0  0  0  0  0  0  0  0  0  0  0  0
   25.3116  -19.5381  -17.2091 C   0  0  1  0  0  0  0  0  0  0  0  0
   26.2035  -20.7120  -17.3173 C   0  0  0  0  0  0  0  0  0  0  0  0
   26.8010  -21.2241  -16.0704 C   0  0  0  0  0  0  0  0  0  0  0  0
   27.7098  -22.3639  -16.2613 C   0  0  0  0  0  0  0  0  0  0  0  0
   27.4873  -23.5454  -15.9509 O   0  0  0  0  0  0  0  0  0  0  0  0
   25.3449  -18.6650  -18.4182 C   0  0  0  0  0  0  0  0  0  0  0  0
   26.5215  -18.0044  -18.7146 O   0  0  0  0  0  0  0  0  0  0  0  0
   28.9530  -22.0649  -16.8580 O   0  0  0  0  0  0  0  0  0  0  0  0
   24.3610  -18.5025  -19.1746 O   0  0  0  0  0  0  0  0  0  0  0  0
  2  3  1  0
  2  1  1  1
  4  3  1  0
  5  4  1  0
  5  6  1  0
  7  6  1  0
  8  9  2  0
  8  2  1  0
 11 10  1  6
 11 12  1  0
 11 13  1  0
 13 14  1  1
 14  8  1  0
 15 16  2  0
 15 13  1  0
 17 15  1  0
 18 19  1  6
 18 17  1  0
 20 19  1  0
 20 21  1  0
 21 25  1  0
 22 21  2  0
 23 18  1  0
 24 23  1  0
 26 23  2  0
M  END
$$$$
