KVE.pdb
     RDKit          3D

 26 25  0  0  1  0  0  0  0  0999 V2000
   18.8467  -14.0737  -17.4792 N   0  0  0  0  0  0  0  0  0  0  0  0
   19.5027  -13.1254  -16.6108 C   0  0  1  0  0  0  0  0  0  0  0  0
   20.9063  -12.9186  -17.0540 C   0  0  0  0  0  0  0  0  0  0  0  0
   21.7237  -14.1403  -16.7179 C   0  0  0  0  0  0  0  0  0  0  0  0
   21.8946  -15.0996  -17.8560 C   0  0  0  0  0  0  0  0  0  0  0  0
   22.7976  -16.2734  -17.4511 C   0  0  0  0  0  0  0  0  0  0  0  0
   22.7864  -17.2262  -18.5303 N   0  0  0  0  0  0  0  0  0  0  0  0
   18.7139  -11.8847  -16.5148 C   0  0  0  0  0  0  0  0  0  0  0  0
   18.5026  -11.2278  -17.5623 O   0  0  0  0  0  0  0  0  0  0  0  0
   15.0381   -9.4224  -14.6127 C   0  0  0  0  0  0  0  0  0  0  0  0
   15.9475  -10.5727  -14.9544 C   0  0  1  0  0  0  0  0  0  0  0  0
   15.2607  -11.4590  -15.9394 C   0  0  0  0  0  0  0  0  0  0  0  0
   17.3301  -10.1363  -15.3162 C   0  0  2  0  0  0  0  0  0  0  0  0
   18.1651  -11.3642  -15.3131 N   0  0  0  0  0  0  0  0  0  0  0  0
   17.9231   -9.1388  -14.4070 C   0  0  0  0  0  0  0  0  0  0  0  0
   18.0391   -9.3695  -13.1561 O   0  0  0  0  0  0  0  0  0  0  0  0
   18.4050   -7.8733  -14.8239 N   0  0  0  0  0  0  0  0  0  0  0  0
   18.9923   -6.9148  -13.9398 C   0  0  1  0  0  0  0  0  0  0  0  0
   20.1504   -6.1632  -14.4679 C   0  0  0  0  0  0  0  0  0  0  0  0
   21.1874   -6.9322  -15.1803 C   0  0  0  0  0  0  0  0  0  0  0  0
   22.2664   -6.1090  -15.7455 C   0  0  0  0  0  0  0  0  0  0  0  0
   22.3938   -4.8791  -15.6312 O   0  0  0  0  0  0  0  0  0  0  0  0
   17.9627   -6.0370  -13.3116 C   0  0  0  0  0  0  0  0  0  0  0  0
   18.3019   -5.3530  -12.1602 O   0  0  0  0  0  0  0  0  0  0  0  0
   23.2445   -6.8041  -16.4881 O   0  0  0  0  0  0  0  0  0  0  0  0
   16.8095   -5.8910  -13.7760 O   0  0  0  0  0  0  0  0  0  0  0  0
  2  3  1  0
  2  1  1  6
  4  3  1  0
  5  4  1  0
  5  6  1  0
  7  6  1  0
  8  9  2  0
  8  2  1  0
 11 10  1  6
 11 12  1  0
 11 13  1  0
 13 14  1  1
 14  8  1  0
 15 16  2  0
 15 13  1  0
 17 15  1  0
 18 19  1  6
 18 17  1  0
 20 19  1  0
 20 21  1  0
 21 25  1  0
 22 21  2  0
 23 18  1  0
 24 23  1  0
 26 23  2  0
M  END
$$$$
