KVE.pdb
     RDKit          3D

 26 25  0  0  1  0  0  0  0  0999 V2000
   24.5127  -18.8999  -15.3206 N   0  0  0  0  0  0  0  0  0  0  0  0
   24.1308  -18.7942  -16.7086 C   0  0  1  0  0  0  0  0  0  0  0  0
   24.8629  -19.8061  -17.5144 C   0  0  0  0  0  0  0  0  0  0  0  0
   25.9697  -19.1300  -18.2834 C   0  0  0  0  0  0  0  0  0  0  0  0
   26.8338  -18.2285  -17.4554 C   0  0  0  0  0  0  0  0  0  0  0  0
   27.9701  -17.6335  -18.2992 C   0  0  0  0  0  0  0  0  0  0  0  0
   28.7884  -16.8317  -17.4273 N   0  0  0  0  0  0  0  0  0  0  0  0
   22.6655  -18.8626  -16.8456 C   0  0  0  0  0  0  0  0  0  0  0  0
   22.1661  -18.7505  -17.9908 O   0  0  0  0  0  0  0  0  0  0  0  0
   18.3129  -20.4886  -15.4481 C   0  0  0  0  0  0  0  0  0  0  0  0
   19.8119  -20.4044  -15.5602 C   0  0  1  0  0  0  0  0  0  0  0  0
   20.3050  -21.5625  -16.3621 C   0  0  0  0  0  0  0  0  0  0  0  0
   20.2903  -19.0560  -15.9914 C   0  0  2  0  0  0  0  0  0  0  0  0
   21.7585  -19.0479  -15.7689 N   0  0  0  0  0  0  0  0  0  0  0  0
   19.6802  -17.9228  -15.2724 C   0  0  0  0  0  0  0  0  0  0  0  0
   19.8474  -17.7688  -14.0156 O   0  0  0  0  0  0  0  0  0  0  0  0
   18.8790  -16.9307  -15.8902 N   0  0  0  0  0  0  0  0  0  0  0  0
   18.2533  -15.8581  -15.1810 C   0  0  1  0  0  0  0  0  0  0  0  0
   18.0867  -14.5922  -15.9259 C   0  0  0  0  0  0  0  0  0  0  0  0
   19.1367  -13.5696  -15.7641 C   0  0  0  0  0  0  0  0  0  0  0  0
   18.9133  -12.3470  -16.5495 C   0  0  0  0  0  0  0  0  0  0  0  0
   18.6343  -12.2866  -17.7580 O   0  0  0  0  0  0  0  0  0  0  0  0
   17.0050  -16.3013  -14.4949 C   0  0  0  0  0  0  0  0  0  0  0  0
   16.2411  -17.2819  -15.0979 O   0  0  0  0  0  0  0  0  0  0  0  0
   19.0322  -11.1321  -15.8417 O   0  0  0  0  0  0  0  0  0  0  0  0
   16.6174  -15.8287  -13.4026 O   0  0  0  0  0  0  0  0  0  0  0  0
  2  3  1  0
  2  1  1  1
  4  3  1  0
  5  4  1  0
  5  6  1  0
  7  6  1  0
  8  9  2  0
  8  2  1  0
 11 10  1  6
 11 12  1  0
 11 13  1  0
 13 14  1  1
 14  8  1  0
 15 16  2  0
 15 13  1  0
 17 15  1  0
 18 19  1  6
 18 17  1  0
 20 19  1  0
 20 21  1  0
 21 25  1  0
 22 21  2  0
 23 18  1  0
 24 23  1  0
 26 23  2  0
M  END
$$$$
