KVE.pdb
     RDKit          3D

 26 25  0  0  1  0  0  0  0  0999 V2000
   25.9280  -21.7363  -11.7029 N   0  0  0  0  0  0  0  0  0  0  0  0
   25.0640  -21.3857  -12.8047 C   0  0  1  0  0  0  0  0  0  0  0  0
   23.6441  -21.6106  -12.4270 C   0  0  0  0  0  0  0  0  0  0  0  0
   22.9494  -22.3799  -13.5221 C   0  0  0  0  0  0  0  0  0  0  0  0
   23.4049  -23.8004  -13.6615 C   0  0  0  0  0  0  0  0  0  0  0  0
   22.8196  -24.4407  -14.9283 C   0  0  0  0  0  0  0  0  0  0  0  0
   23.4701  -25.7112  -15.1165 N   0  0  0  0  0  0  0  0  0  0  0  0
   25.3526  -20.0179  -13.2698 C   0  0  0  0  0  0  0  0  0  0  0  0
   25.4020  -19.0956  -12.4210 O   0  0  0  0  0  0  0  0  0  0  0  0
   27.4476  -16.9224  -16.3805 C   0  0  0  0  0  0  0  0  0  0  0  0
   27.1768  -18.2045  -15.6390 C   0  0  1  0  0  0  0  0  0  0  0  0
   28.3279  -18.4951  -14.7346 C   0  0  0  0  0  0  0  0  0  0  0  0
   25.8219  -18.2399  -15.0097 C   0  0  2  0  0  0  0  0  0  0  0  0
   25.5829  -19.6535  -14.6227 N   0  0  0  0  0  0  0  0  0  0  0  0
   24.7233  -17.7775  -15.8771 C   0  0  0  0  0  0  0  0  0  0  0  0
   24.3337  -18.4692  -16.8776 O   0  0  0  0  0  0  0  0  0  0  0  0
   24.0198  -16.5625  -15.6859 N   0  0  0  0  0  0  0  0  0  0  0  0
   22.9059  -16.1540  -16.4844 C   0  0  1  0  0  0  0  0  0  0  0  0
   21.8166  -15.4509  -15.7744 C   0  0  0  0  0  0  0  0  0  0  0  0
   20.6792  -14.9753  -16.5833 C   0  0  0  0  0  0  0  0  0  0  0  0
   19.6357  -14.2864  -15.8097 C   0  0  0  0  0  0  0  0  0  0  0  0
   19.1501  -14.6596  -14.7295 O   0  0  0  0  0  0  0  0  0  0  0  0
   23.3424  -15.4526  -17.7266 C   0  0  0  0  0  0  0  0  0  0  0  0
   22.6980  -15.7580  -18.9099 O   0  0  0  0  0  0  0  0  0  0  0  0
   19.1513  -13.0839  -16.3667 O   0  0  0  0  0  0  0  0  0  0  0  0
   24.2618  -14.6035  -17.7482 O   0  0  0  0  0  0  0  0  0  0  0  0
  2  3  1  0
  2  1  1  1
  4  3  1  0
  5  4  1  0
  5  6  1  0
  7  6  1  0
  8  9  2  0
  8  2  1  0
 11 10  1  1
 11 12  1  0
 11 13  1  0
 13 14  1  6
 14  8  1  0
 15 16  2  0
 15 13  1  0
 17 15  1  0
 18 19  1  1
 18 17  1  0
 20 19  1  0
 20 21  1  0
 21 25  1  0
 22 21  2  0
 23 18  1  0
 24 23  1  0
 26 23  2  0
M  END
$$$$
