KVE.pdb
     RDKit          3D

 26 25  0  0  1  0  0  0  0  0999 V2000
   20.7288  -13.2807  -17.9689 N   0  0  0  0  0  0  0  0  0  0  0  0
   20.6310  -11.8415  -18.0181 C   0  0  1  0  0  0  0  0  0  0  0  0
   19.3132  -11.4416  -18.5774 C   0  0  0  0  0  0  0  0  0  0  0  0
   19.2005  -11.9350  -19.9978 C   0  0  0  0  0  0  0  0  0  0  0  0
   17.9646  -11.4797  -20.7120 C   0  0  0  0  0  0  0  0  0  0  0  0
   17.8859  -12.0960  -22.1161 C   0  0  0  0  0  0  0  0  0  0  0  0
   19.1800  -11.9514  -22.7301 N   0  0  0  0  0  0  0  0  0  0  0  0
   20.9239  -11.2605  -16.6962 C   0  0  0  0  0  0  0  0  0  0  0  0
   21.0004  -12.0299  -15.7085 O   0  0  0  0  0  0  0  0  0  0  0  0
   22.6615  -11.6749  -14.9325 C   0  0  0  0  0  0  0  0  0  0  0  0
   22.8814  -10.1872  -14.8621 C   0  0  1  0  0  0  0  0  0  0  0  0
   24.0775   -9.8335  -15.6818 C   0  0  0  0  0  0  0  0  0  0  0  0
   21.6412   -9.4000  -15.1365 C   0  0  2  0  0  0  0  0  0  0  0  0
   21.1298   -9.8780  -16.4460 N   0  0  0  0  0  0  0  0  0  0  0  0
   21.8332   -7.9393  -15.1896 C   0  0  0  0  0  0  0  0  0  0  0  0
   22.5497   -7.3984  -16.0981 O   0  0  0  0  0  0  0  0  0  0  0  0
   21.2577   -7.0299  -14.2681 N   0  0  0  0  0  0  0  0  0  0  0  0
   21.4009   -5.6098  -14.3568 C   0  0  1  0  0  0  0  0  0  0  0  0
   20.1757   -4.8491  -14.6816 C   0  0  0  0  0  0  0  0  0  0  0  0
   19.4434   -5.2361  -15.9015 C   0  0  0  0  0  0  0  0  0  0  0  0
   18.2233   -4.4530  -16.1459 C   0  0  0  0  0  0  0  0  0  0  0  0
   17.7332   -3.5957  -15.3931 O   0  0  0  0  0  0  0  0  0  0  0  0
   22.1417   -5.0536  -13.1876 C   0  0  0  0  0  0  0  0  0  0  0  0
   22.6026   -3.7535  -13.2646 O   0  0  0  0  0  0  0  0  0  0  0  0
   17.5578   -4.7163  -17.3620 O   0  0  0  0  0  0  0  0  0  0  0  0
   22.3654   -5.7063  -12.1432 O   0  0  0  0  0  0  0  0  0  0  0  0
  2  3  1  0
  2  1  1  1
  4  3  1  0
  5  4  1  0
  5  6  1  0
  7  6  1  0
  8  9  2  0
  8  2  1  0
 11 10  1  6
 11 12  1  0
 11 13  1  0
 13 14  1  6
 14  8  1  0
 15 16  2  0
 15 13  1  0
 17 15  1  0
 18 19  1  1
 18 17  1  0
 20 19  1  0
 20 21  1  0
 21 25  1  0
 22 21  2  0
 23 18  1  0
 24 23  1  0
 26 23  2  0
M  END
$$$$
