KVE.pdb
     RDKit          3D

 26 25  0  0  1  0  0  0  0  0999 V2000
   13.1986  -11.7394  -11.6149 N   0  0  0  0  0  0  0  0  0  0  0  0
   14.5773  -11.3375  -11.4690 C   0  0  1  0  0  0  0  0  0  0  0  0
   15.3603  -11.7716  -12.6555 C   0  0  0  0  0  0  0  0  0  0  0  0
   15.0776  -13.2254  -12.9386 C   0  0  0  0  0  0  0  0  0  0  0  0
   15.9577  -13.8311  -13.9890 C   0  0  0  0  0  0  0  0  0  0  0  0
   15.6893  -15.3367  -14.1260 C   0  0  0  0  0  0  0  0  0  0  0  0
   16.5548  -15.8428  -15.1592 N   0  0  0  0  0  0  0  0  0  0  0  0
   14.6652   -9.8942  -11.1864 C   0  0  0  0  0  0  0  0  0  0  0  0
   13.8917   -9.1173  -11.7959 O   0  0  0  0  0  0  0  0  0  0  0  0
   15.7370   -6.1716   -8.2283 C   0  0  0  0  0  0  0  0  0  0  0  0
   15.3308   -7.5539   -8.6656 C   0  0  1  0  0  0  0  0  0  0  0  0
   13.9205   -7.8018   -8.2447 C   0  0  0  0  0  0  0  0  0  0  0  0
   15.6459   -7.8285  -10.1003 C   0  0  2  0  0  0  0  0  0  0  0  0
   15.5693   -9.3023  -10.2653 N   0  0  0  0  0  0  0  0  0  0  0  0
   16.9686   -7.3543  -10.5461 C   0  0  0  0  0  0  0  0  0  0  0  0
   18.0223   -8.0483  -10.3476 O   0  0  0  0  0  0  0  0  0  0  0  0
   17.1857   -6.1247  -11.2160 N   0  0  0  0  0  0  0  0  0  0  0  0
   18.3913   -5.8008  -11.9136 C   0  0  1  0  0  0  0  0  0  0  0  0
   18.9500   -6.8612  -12.7788 C   0  0  0  0  0  0  0  0  0  0  0  0
   20.2089   -6.5629  -13.4862 C   0  0  0  0  0  0  0  0  0  0  0  0
   20.7117   -7.6691  -14.3140 C   0  0  0  0  0  0  0  0  0  0  0  0
   20.1307   -8.7420  -14.5442 O   0  0  0  0  0  0  0  0  0  0  0  0
   18.2978   -4.4778  -12.5965 C   0  0  0  0  0  0  0  0  0  0  0  0
   17.0478   -4.0210  -12.9673 O   0  0  0  0  0  0  0  0  0  0  0  0
   21.9822   -7.4725  -14.8957 O   0  0  0  0  0  0  0  0  0  0  0  0
   19.2945   -3.7640  -12.8493 O   0  0  0  0  0  0  0  0  0  0  0  0
  2  3  1  0
  2  1  1  6
  4  3  1  0
  5  4  1  0
  5  6  1  0
  7  6  1  0
  8  9  2  0
  8  2  1  0
 11 10  1  6
 11 12  1  0
 11 13  1  0
 13 14  1  1
 14  8  1  0
 15 16  2  0
 15 13  1  0
 17 15  1  0
 18 19  1  6
 18 17  1  0
 20 19  1  0
 20 21  1  0
 21 25  1  0
 22 21  2  0
 23 18  1  0
 24 23  1  0
 26 23  2  0
M  END
$$$$
