KVE.pdb
     RDKit          3D

 26 25  0  0  1  0  0  0  0  0999 V2000
   19.8213  -11.5464  -18.2058 N   0  0  0  0  0  0  0  0  0  0  0  0
   18.9705  -11.0452  -17.1530 C   0  0  1  0  0  0  0  0  0  0  0  0
   18.0818  -12.1297  -16.6596 C   0  0  0  0  0  0  0  0  0  0  0  0
   17.6697  -13.0055  -17.8158 C   0  0  0  0  0  0  0  0  0  0  0  0
   16.7042  -14.0920  -17.4523 C   0  0  0  0  0  0  0  0  0  0  0  0
   16.3357  -14.9310  -18.6842 C   0  0  0  0  0  0  0  0  0  0  0  0
   15.4081  -15.9469  -18.2596 N   0  0  0  0  0  0  0  0  0  0  0  0
   19.7780  -10.4045  -16.1003 C   0  0  0  0  0  0  0  0  0  0  0  0
   19.1999  -10.0133  -15.0580 O   0  0  0  0  0  0  0  0  0  0  0  0
   23.0725  -11.7741  -14.6987 C   0  0  0  0  0  0  0  0  0  0  0  0
   23.2299  -10.3004  -14.9639 C   0  0  1  0  0  0  0  0  0  0  0  0
   24.1539  -10.1109  -16.1205 C   0  0  0  0  0  0  0  0  0  0  0  0
   21.9239   -9.5784  -15.0415 C   0  0  2  0  0  0  0  0  0  0  0  0
   21.1799  -10.1905  -16.1714 N   0  0  0  0  0  0  0  0  0  0  0  0
   22.0316   -8.1240  -15.2571 C   0  0  0  0  0  0  0  0  0  0  0  0
   22.0425   -7.6282  -16.4342 O   0  0  0  0  0  0  0  0  0  0  0  0
   22.1283   -7.1725  -14.2117 N   0  0  0  0  0  0  0  0  0  0  0  0
   21.9280   -5.7682  -14.3931 C   0  0  1  0  0  0  0  0  0  0  0  0
   20.7327   -5.3739  -15.1684 C   0  0  0  0  0  0  0  0  0  0  0  0
   20.4875   -3.9307  -15.3452 C   0  0  0  0  0  0  0  0  0  0  0  0
   19.2640   -3.6149  -16.0968 C   0  0  0  0  0  0  0  0  0  0  0  0
   18.7077   -4.3383  -16.9389 O   0  0  0  0  0  0  0  0  0  0  0  0
   22.0666   -5.0186  -13.1108 C   0  0  0  0  0  0  0  0  0  0  0  0
   22.2390   -3.6492  -13.1700 O   0  0  0  0  0  0  0  0  0  0  0  0
   18.6793   -2.3610  -15.8195 O   0  0  0  0  0  0  0  0  0  0  0  0
   22.0345   -5.5693  -11.9872 O   0  0  0  0  0  0  0  0  0  0  0  0
  2  3  1  0
  2  1  1  6
  4  3  1  0
  5  4  1  0
  5  6  1  0
  7  6  1  0
  8  9  2  0
  8  2  1  0
 11 10  1  6
 11 12  1  0
 11 13  1  0
 13 14  1  6
 14  8  1  0
 15 16  2  0
 15 13  1  0
 17 15  1  0
 18 19  1  1
 18 17  1  0
 20 19  1  0
 20 21  1  0
 21 25  1  0
 22 21  2  0
 23 18  1  0
 24 23  1  0
 26 23  2  0
M  END
$$$$
