KVE.pdb
     RDKit          3D

 26 25  0  0  1  0  0  0  0  0999 V2000
   26.4862  -19.0646  -18.3037 N   0  0  0  0  0  0  0  0  0  0  0  0
   26.4993  -18.3957  -17.0246 C   0  0  1  0  0  0  0  0  0  0  0  0
   25.3264  -17.4894  -16.9143 C   0  0  0  0  0  0  0  0  0  0  0  0
   25.3711  -16.4732  -18.0273 C   0  0  0  0  0  0  0  0  0  0  0  0
   24.4120  -16.7426  -19.1465 C   0  0  0  0  0  0  0  0  0  0  0  0
   24.4161  -15.5891  -20.1599 C   0  0  0  0  0  0  0  0  0  0  0  0
   23.5031  -14.5839  -19.6817 N   0  0  0  0  0  0  0  0  0  0  0  0
   26.6047  -19.3779  -15.9315 C   0  0  0  0  0  0  0  0  0  0  0  0
   25.9723  -20.4564  -16.0336 O   0  0  0  0  0  0  0  0  0  0  0  0
   28.8692  -21.0400  -11.8452 C   0  0  0  0  0  0  0  0  0  0  0  0
   28.7580  -20.2469  -13.1201 C   0  0  1  0  0  0  0  0  0  0  0  0
   29.8223  -20.6952  -14.0655 C   0  0  0  0  0  0  0  0  0  0  0  0
   27.3674  -20.2109  -13.6659 C   0  0  2  0  0  0  0  0  0  0  0  0
   27.3763  -19.1994  -14.7530 N   0  0  0  0  0  0  0  0  0  0  0  0
   26.3247  -19.8642  -12.6832 C   0  0  0  0  0  0  0  0  0  0  0  0
   26.1959  -18.6704  -12.2478 O   0  0  0  0  0  0  0  0  0  0  0  0
   25.3977  -20.7934  -12.1495 N   0  0  0  0  0  0  0  0  0  0  0  0
   24.4050  -20.4574  -11.1765 C   0  0  1  0  0  0  0  0  0  0  0  0
   23.0047  -20.7595  -11.5412 C   0  0  0  0  0  0  0  0  0  0  0  0
   21.9486  -19.9733  -10.8773 C   0  0  0  0  0  0  0  0  0  0  0  0
   20.5811  -20.3873  -11.2238 C   0  0  0  0  0  0  0  0  0  0  0  0
   20.2611  -21.3221  -11.9758 O   0  0  0  0  0  0  0  0  0  0  0  0
   24.7738  -20.9477   -9.8167 C   0  0  0  0  0  0  0  0  0  0  0  0
   24.1319  -20.3934   -8.7261 O   0  0  0  0  0  0  0  0  0  0  0  0
   19.5435  -19.6353  -10.6331 O   0  0  0  0  0  0  0  0  0  0  0  0
   25.6345  -21.8343   -9.6170 O   0  0  0  0  0  0  0  0  0  0  0  0
  2  3  1  0
  2  1  1  6
  4  3  1  0
  5  4  1  0
  5  6  1  0
  7  6  1  0
  8  9  2  0
  8  2  1  0
 11 10  1  1
 11 12  1  0
 11 13  1  0
 13 14  1  6
 14  8  1  0
 15 16  2  0
 15 13  1  0
 17 15  1  0
 18 19  1  6
 18 17  1  0
 20 19  1  0
 20 21  1  0
 21 25  1  0
 22 21  2  0
 23 18  1  0
 24 23  1  0
 26 23  2  0
M  END
$$$$
