YKI.pdb
     RDKit          3D

 30 30  0  0  1  0  0  0  0  0999 V2000
   16.8903  -15.2870   18.1502 O   0  0  0  0  0  0  0  0  0  0  0  0
   15.6337  -14.9745   18.6320 C   0  0  0  0  0  0  0  0  0  0  0  0
   14.9699  -13.8187   18.2750 C   0  0  0  0  0  0  0  0  0  0  0  0
   13.7202  -13.5419   18.7750 C   0  0  0  0  0  0  0  0  0  0  0  0
   13.0840  -14.3923   19.6412 C   0  0  0  0  0  0  0  0  0  0  0  0
   11.7174  -14.0667   20.1833 C   0  0  0  0  0  0  0  0  0  0  0  0
   10.7173  -15.0941   19.6280 C   0  0  2  0  0  0  0  0  0  0  0  0
   10.1418  -14.5278   18.4449 N   0  0  0  0  0  0  0  0  0  0  0  0
    9.6853  -15.3881   20.6536 C   0  0  0  0  0  0  0  0  0  0  0  0
    8.7644  -14.5274   20.8128 O   0  0  0  0  0  0  0  0  0  0  0  0
   13.7360  -15.5471   20.0042 C   0  0  0  0  0  0  0  0  0  0  0  0
   14.9939  -15.8262   19.5012 C   0  0  0  0  0  0  0  0  0  0  0  0
    9.7325  -16.5828   21.4170 N   0  0  0  0  0  0  0  0  0  0  0  0
    8.7467  -16.8884   22.4073 C   0  0  1  0  0  0  0  0  0  0  0  0
    8.6928  -18.3840   22.7054 C   0  0  0  0  0  0  0  0  0  0  0  0
    7.7339  -18.6933   23.8172 C   0  0  0  0  0  0  0  0  0  0  0  0
    7.6655  -20.2004   23.9809 C   0  0  0  0  0  0  0  0  0  0  0  0
    6.5647  -20.5832   24.9601 C   0  0  0  0  0  0  0  0  0  0  0  0
    6.5250  -22.0117   25.0880 N   0  0  0  0  0  0  0  0  0  0  0  0
    8.9228  -16.1424   23.6627 C   0  0  0  0  0  0  0  0  0  0  0  0
   10.0958  -15.9919   24.1382 O   0  0  0  0  0  0  0  0  0  0  0  0
    6.4694  -11.7789   27.2243 C   0  0  0  0  0  0  0  0  0  0  0  0
    7.5281  -12.8075   26.9910 C   0  0  0  0  0  0  0  0  0  0  0  0
    7.1375  -13.6715   25.8096 C   0  0  2  0  0  0  0  0  0  0  0  0
    5.8484  -14.4081   26.0537 C   0  0  0  0  0  0  0  0  0  0  0  0
    8.2180  -14.7347   25.5696 C   0  0  2  0  0  0  0  0  0  0  0  0
    7.8807  -15.5499   24.4253 N   0  0  0  0  0  0  0  0  0  0  0  0
    8.2346  -15.5935   26.7702 C   0  0  0  0  0  0  0  0  0  0  0  0
    7.6182  -16.6996   26.8202 O   0  0  0  0  0  0  0  0  0  0  0  0
    8.9453  -15.1849   27.8846 O   0  0  0  0  0  0  0  0  0  0  0  0
  2  1  1  0
  3  2  2  0
  4  3  1  0
  5 11  1  0
  5  4  2  0
  6  5  1  0
  7  6  1  0
  7  8  1  6
  9  7  1  0
 10  9  2  0
 11 12  2  0
 12  2  1  0
 13  9  1  0
 14 13  1  0
 14 15  1  1
 16 15  1  0
 17 16  1  0
 18 17  1  0
 19 18  1  0
 20 14  1  0
 20 27  1  0
 21 20  2  0
 22 23  1  0
 23 24  1  0
 24 25  1  1
 26 27  1  6
 26 24  1  0
 26 28  1  0
 28 29  2  0
 28 30  1  0
M  END
$$$$
