YKI.pdb
     RDKit          3D

 30 30  0  0  1  0  0  0  0  0999 V2000
    7.4834  -12.0344   16.4332 O   0  0  0  0  0  0  0  0  0  0  0  0
    7.5226  -12.6235   17.6823 C   0  0  0  0  0  0  0  0  0  0  0  0
    8.5885  -12.4628   18.5438 C   0  0  0  0  0  0  0  0  0  0  0  0
    8.5917  -13.0648   19.7792 C   0  0  0  0  0  0  0  0  0  0  0  0
    7.5477  -13.8432   20.2063 C   0  0  0  0  0  0  0  0  0  0  0  0
    7.5742  -14.4998   21.5611 C   0  0  0  0  0  0  0  0  0  0  0  0
    8.4060  -15.7889   21.4598 C   0  0  2  0  0  0  0  0  0  0  0  0
    7.6839  -16.6935   20.6162 N   0  0  0  0  0  0  0  0  0  0  0  0
    8.6160  -16.3531   22.8166 C   0  0  0  0  0  0  0  0  0  0  0  0
    7.7032  -16.1498   23.6767 O   0  0  0  0  0  0  0  0  0  0  0  0
    6.4801  -14.0106   19.3561 C   0  0  0  0  0  0  0  0  0  0  0  0
    6.4764  -13.4048   18.1126 C   0  0  0  0  0  0  0  0  0  0  0  0
    9.7881  -17.0884   23.1296 N   0  0  0  0  0  0  0  0  0  0  0  0
   10.0274  -17.6111   24.4393 C   0  0  1  0  0  0  0  0  0  0  0  0
   11.0967  -18.6995   24.4245 C   0  0  0  0  0  0  0  0  0  0  0  0
   10.8325  -19.7216   23.3582 C   0  0  0  0  0  0  0  0  0  0  0  0
   11.9218  -20.7757   23.4293 C   0  0  0  0  0  0  0  0  0  0  0  0
   11.6660  -21.8793   22.4124 C   0  0  0  0  0  0  0  0  0  0  0  0
   12.6666  -22.8968   22.5612 N   0  0  0  0  0  0  0  0  0  0  0  0
   10.3864  -16.5819   25.4270 C   0  0  0  0  0  0  0  0  0  0  0  0
   11.3256  -15.7628   25.1593 O   0  0  0  0  0  0  0  0  0  0  0  0
    7.2120  -13.0927   27.2416 C   0  0  0  0  0  0  0  0  0  0  0  0
    8.4631  -13.7942   26.8225 C   0  0  0  0  0  0  0  0  0  0  0  0
    9.0929  -14.4616   28.0277 C   0  0  2  0  0  0  0  0  0  0  0  0
    9.6719  -13.4579   28.9875 C   0  0  0  0  0  0  0  0  0  0  0  0
   10.2508  -15.3600   27.5725 C   0  0  2  0  0  0  0  0  0  0  0  0
    9.7689  -16.4007   26.6937 N   0  0  0  0  0  0  0  0  0  0  0  0
   10.7969  -15.9892   28.7912 C   0  0  0  0  0  0  0  0  0  0  0  0
   11.4285  -15.3290   29.6693 O   0  0  0  0  0  0  0  0  0  0  0  0
   10.6176  -17.3464   28.9905 O   0  0  0  0  0  0  0  0  0  0  0  0
  2  1  1  0
  3  2  2  0
  4  3  1  0
  5 11  1  0
  5  4  2  0
  6  5  1  0
  7  6  1  0
  7  8  1  6
  9  7  1  0
 10  9  2  0
 11 12  2  0
 12  2  1  0
 13  9  1  0
 14 13  1  0
 14 15  1  6
 16 15  1  0
 17 16  1  0
 18 17  1  0
 19 18  1  0
 20 14  1  0
 20 27  1  0
 21 20  2  0
 22 23  1  0
 23 24  1  0
 24 25  1  1
 26 27  1  6
 26 24  1  0
 26 28  1  0
 28 29  2  0
 28 30  1  0
M  END
$$$$
