YKI.pdb
     RDKit          3D

 30 30  0  0  1  0  0  0  0  0999 V2000
   11.8371  -12.2328   19.4632 O   0  0  0  0  0  0  0  0  0  0  0  0
   10.6121  -12.8623   19.5730 C   0  0  0  0  0  0  0  0  0  0  0  0
    9.9457  -13.3813   18.4819 C   0  0  0  0  0  0  0  0  0  0  0  0
    8.7281  -14.0010   18.6304 C   0  0  0  0  0  0  0  0  0  0  0  0
    8.1278  -14.1299   19.8557 C   0  0  0  0  0  0  0  0  0  0  0  0
    6.7897  -14.8062   19.9957 C   0  0  0  0  0  0  0  0  0  0  0  0
    7.0234  -16.3179   20.1506 C   0  0  2  0  0  0  0  0  0  0  0  0
    5.9197  -16.9831   19.5255 N   0  0  0  0  0  0  0  0  0  0  0  0
    7.1259  -16.6603   21.5913 C   0  0  0  0  0  0  0  0  0  0  0  0
    6.0493  -16.6567   22.2660 O   0  0  0  0  0  0  0  0  0  0  0  0
    8.7826  -13.6163   20.9502 C   0  0  0  0  0  0  0  0  0  0  0  0
   10.0081  -12.9925   20.8012 C   0  0  0  0  0  0  0  0  0  0  0  0
    8.3765  -16.9785   22.1803 N   0  0  0  0  0  0  0  0  0  0  0  0
    8.5017  -17.2903   23.5706 C   0  0  1  0  0  0  0  0  0  0  0  0
    9.3939  -18.5074   23.7966 C   0  0  0  0  0  0  0  0  0  0  0  0
    8.7302  -19.7735   23.3403 C   0  0  0  0  0  0  0  0  0  0  0  0
    9.7244  -20.9107   23.4857 C   0  0  0  0  0  0  0  0  0  0  0  0
    9.0767  -22.2383   23.1177 C   0  0  0  0  0  0  0  0  0  0  0  0
   10.0223  -23.2968   23.3275 N   0  0  0  0  0  0  0  0  0  0  0  0
    8.9881  -16.1657   24.3844 C   0  0  0  0  0  0  0  0  0  0  0  0
   10.1399  -15.6756   24.1441 O   0  0  0  0  0  0  0  0  0  0  0  0
    6.1515  -11.9593   26.2375 C   0  0  0  0  0  0  0  0  0  0  0  0
    7.2025  -12.8654   25.6830 C   0  0  0  0  0  0  0  0  0  0  0  0
    7.9272  -13.5510   26.8229 C   0  0  2  0  0  0  0  0  0  0  0  0
    8.7012  -12.5739   27.6655 C   0  0  0  0  0  0  0  0  0  0  0  0
    8.9433  -14.5532   26.2585 C   0  0  2  0  0  0  0  0  0  0  0  0
    8.2777  -15.5469   25.4480 N   0  0  0  0  0  0  0  0  0  0  0  0
    9.5562  -15.2274   27.4201 C   0  0  0  0  0  0  0  0  0  0  0  0
    9.0585  -16.2720   27.9369 O   0  0  0  0  0  0  0  0  0  0  0  0
   10.7143  -14.7081   27.9704 O   0  0  0  0  0  0  0  0  0  0  0  0
  2  1  1  0
  3  2  2  0
  4  3  1  0
  5 11  1  0
  5  4  2  0
  6  5  1  0
  7  6  1  0
  7  8  1  1
  9  7  1  0
 10  9  2  0
 11 12  2  0
 12  2  1  0
 13  9  1  0
 14 13  1  0
 14 15  1  6
 16 15  1  0
 17 16  1  0
 18 17  1  0
 19 18  1  0
 20 14  1  0
 20 27  1  0
 21 20  2  0
 22 23  1  0
 23 24  1  0
 24 25  1  6
 26 27  1  6
 26 24  1  0
 26 28  1  0
 28 29  2  0
 28 30  1  0
M  END
$$$$
