YKI.pdb
     RDKit          3D

 30 30  0  0  1  0  0  0  0  0999 V2000
    8.2814  -13.3503   14.8082 O   0  0  0  0  0  0  0  0  0  0  0  0
    8.1704  -13.6539   16.1515 C   0  0  0  0  0  0  0  0  0  0  0  0
    8.9361  -14.6297   16.7561 C   0  0  0  0  0  0  0  0  0  0  0  0
    8.7975  -14.9036   18.0956 C   0  0  0  0  0  0  0  0  0  0  0  0
    7.9022  -14.2271   18.8824 C   0  0  0  0  0  0  0  0  0  0  0  0
    7.7608  -14.5477   20.3469 C   0  0  0  0  0  0  0  0  0  0  0  0
    7.4654  -16.0499   20.4889 C   0  0  2  0  0  0  0  0  0  0  0  0
    6.1266  -16.2635   20.0269 N   0  0  0  0  0  0  0  0  0  0  0  0
    7.6279  -16.4567   21.9072 C   0  0  0  0  0  0  0  0  0  0  0  0
    6.6855  -16.1618   22.7066 O   0  0  0  0  0  0  0  0  0  0  0  0
    7.1336  -13.2526   18.2907 C   0  0  0  0  0  0  0  0  0  0  0  0
    7.2728  -12.9765   16.9426 C   0  0  0  0  0  0  0  0  0  0  0  0
    8.7886  -17.1469   22.3416 N   0  0  0  0  0  0  0  0  0  0  0  0
    9.0096  -17.4657   23.7184 C   0  0  1  0  0  0  0  0  0  0  0  0
   10.1359  -18.4813   23.8874 C   0  0  0  0  0  0  0  0  0  0  0  0
   10.3457  -18.8415   25.3288 C   0  0  0  0  0  0  0  0  0  0  0  0
   11.4994  -19.8238   25.4106 C   0  0  0  0  0  0  0  0  0  0  0  0
   11.7437  -20.2439   26.8532 C   0  0  0  0  0  0  0  0  0  0  0  0
   12.8023  -21.2117   26.8882 N   0  0  0  0  0  0  0  0  0  0  0  0
    9.2778  -16.2890   24.5591 C   0  0  0  0  0  0  0  0  0  0  0  0
   10.3711  -15.6516   24.4077 O   0  0  0  0  0  0  0  0  0  0  0  0
    7.0602  -11.3228   27.1161 C   0  0  0  0  0  0  0  0  0  0  0  0
    8.1470  -12.3484   27.1202 C   0  0  0  0  0  0  0  0  0  0  0  0
    7.7217  -13.5345   26.2793 C   0  0  2  0  0  0  0  0  0  0  0  0
    6.4654  -14.1744   26.8047 C   0  0  0  0  0  0  0  0  0  0  0  0
    8.8161  -14.6098   26.3147 C   0  0  2  0  0  0  0  0  0  0  0  0
    8.4094  -15.7711   25.5574 N   0  0  0  0  0  0  0  0  0  0  0  0
    8.9725  -15.0020   27.7293 C   0  0  0  0  0  0  0  0  0  0  0  0
    8.5102  -16.0902   28.1854 O   0  0  0  0  0  0  0  0  0  0  0  0
    9.6459  -14.1586   28.5948 O   0  0  0  0  0  0  0  0  0  0  0  0
  2  1  1  0
  3  2  2  0
  4  3  1  0
  5 11  1  0
  5  4  2  0
  6  5  1  0
  7  6  1  0
  7  8  1  1
  9  7  1  0
 10  9  2  0
 11 12  2  0
 12  2  1  0
 13  9  1  0
 14 13  1  0
 14 15  1  6
 16 15  1  0
 17 16  1  0
 18 17  1  0
 19 18  1  0
 20 14  1  0
 20 27  1  0
 21 20  2  0
 22 23  1  0
 23 24  1  0
 24 25  1  1
 26 27  1  6
 26 24  1  0
 26 28  1  0
 28 29  2  0
 28 30  1  0
M  END
$$$$
