YKI.pdb
     RDKit          3D

 30 30  0  0  1  0  0  0  0  0999 V2000
   11.9057  -22.4215   29.8147 O   0  0  0  0  0  0  0  0  0  0  0  0
   11.9724  -21.2429   29.0969 C   0  0  0  0  0  0  0  0  0  0  0  0
   13.0908  -20.4347   29.1023 C   0  0  0  0  0  0  0  0  0  0  0  0
   13.1201  -19.2690   28.3752 C   0  0  0  0  0  0  0  0  0  0  0  0
   12.0514  -18.8614   27.6202 C   0  0  0  0  0  0  0  0  0  0  0  0
   12.1013  -17.5767   26.8363 C   0  0  0  0  0  0  0  0  0  0  0  0
   12.2653  -17.9225   25.3472 C   0  0  2  0  0  0  0  0  0  0  0  0
   13.6611  -18.1448   25.1155 N   0  0  0  0  0  0  0  0  0  0  0  0
   11.7421  -16.8085   24.5174 C   0  0  0  0  0  0  0  0  0  0  0  0
   12.3516  -15.6960   24.5895 O   0  0  0  0  0  0  0  0  0  0  0  0
   10.9313  -19.6588   27.6073 C   0  0  0  0  0  0  0  0  0  0  0  0
   10.9014  -20.8322   28.3389 C   0  0  0  0  0  0  0  0  0  0  0  0
   10.6104  -16.9884   23.6811 N   0  0  0  0  0  0  0  0  0  0  0  0
    9.8298  -15.8843   23.2147 C   0  0  1  0  0  0  0  0  0  0  0  0
    9.1143  -16.2129   21.9076 C   0  0  0  0  0  0  0  0  0  0  0  0
    8.3888  -15.0200   21.3579 C   0  0  0  0  0  0  0  0  0  0  0  0
    7.9894  -15.3245   19.9259 C   0  0  0  0  0  0  0  0  0  0  0  0
    7.4157  -14.0844   19.2549 C   0  0  0  0  0  0  0  0  0  0  0  0
    6.9973  -14.4209   17.9244 N   0  0  0  0  0  0  0  0  0  0  0  0
    8.8538  -15.3956   24.2007 C   0  0  0  0  0  0  0  0  0  0  0  0
    8.2986  -16.2265   24.9918 O   0  0  0  0  0  0  0  0  0  0  0  0
    6.3569  -10.3651   26.8120 C   0  0  0  0  0  0  0  0  0  0  0  0
    6.3641  -11.8459   26.6116 C   0  0  0  0  0  0  0  0  0  0  0  0
    7.2696  -12.1909   25.4472 C   0  0  2  0  0  0  0  0  0  0  0  0
    6.6136  -11.9103   24.1226 C   0  0  0  0  0  0  0  0  0  0  0  0
    7.5935  -13.6909   25.4735 C   0  0  2  0  0  0  0  0  0  0  0  0
    8.4545  -14.0423   24.3677 N   0  0  0  0  0  0  0  0  0  0  0  0
    6.3086  -14.3997   25.3127 C   0  0  0  0  0  0  0  0  0  0  0  0
    5.9263  -14.8641   24.1973 O   0  0  0  0  0  0  0  0  0  0  0  0
    5.4863  -14.5679   26.4125 O   0  0  0  0  0  0  0  0  0  0  0  0
  2  1  1  0
  3  2  2  0
  4  3  1  0
  5 11  1  0
  5  4  2  0
  6  5  1  0
  7  6  1  0
  7  8  1  1
  9  7  1  0
 10  9  2  0
 11 12  2  0
 12  2  1  0
 13  9  1  0
 14 13  1  0
 14 15  1  6
 16 15  1  0
 17 16  1  0
 18 17  1  0
 19 18  1  0
 20 14  1  0
 20 27  1  0
 21 20  2  0
 22 23  1  0
 23 24  1  0
 24 25  1  6
 26 27  1  6
 26 24  1  0
 26 28  1  0
 28 29  2  0
 28 30  1  0
M  END
$$$$
