YKI.pdb
     RDKit          3D

 30 30  0  0  1  0  0  0  0  0999 V2000
    8.0798  -13.4913   15.1666 O   0  0  0  0  0  0  0  0  0  0  0  0
    7.7483  -13.8456   16.4602 C   0  0  0  0  0  0  0  0  0  0  0  0
    7.1362  -15.0438   16.7662 C   0  0  0  0  0  0  0  0  0  0  0  0
    6.8215  -15.3616   18.0656 C   0  0  0  0  0  0  0  0  0  0  0  0
    7.0986  -14.5118   19.1045 C   0  0  0  0  0  0  0  0  0  0  0  0
    6.7390  -14.8761   20.5206 C   0  0  0  0  0  0  0  0  0  0  0  0
    8.0164  -15.3338   21.2437 C   0  0  2  0  0  0  0  0  0  0  0  0
    8.5725  -16.4102   20.4799 N   0  0  0  0  0  0  0  0  0  0  0  0
    7.6805  -15.7580   22.6259 C   0  0  0  0  0  0  0  0  0  0  0  0
    7.1148  -14.9009   23.3741 O   0  0  0  0  0  0  0  0  0  0  0  0
    7.7083  -13.3148   18.8115 C   0  0  0  0  0  0  0  0  0  0  0  0
    8.0253  -12.9945   17.5038 C   0  0  0  0  0  0  0  0  0  0  0  0
    7.9805  -17.0671   23.0824 N   0  0  0  0  0  0  0  0  0  0  0  0
    7.7891  -17.4566   24.4453 C   0  0  1  0  0  0  0  0  0  0  0  0
    7.9751  -18.9595   24.6329 C   0  0  0  0  0  0  0  0  0  0  0  0
    7.8814  -19.3536   26.0777 C   0  0  0  0  0  0  0  0  0  0  0  0
    7.9529  -20.8669   26.1636 C   0  0  0  0  0  0  0  0  0  0  0  0
    7.9027  -21.3238   27.6148 C   0  0  0  0  0  0  0  0  0  0  0  0
    6.6196  -20.9960   28.1668 N   0  0  0  0  0  0  0  0  0  0  0  0
    8.6520  -16.7322   25.3910 C   0  0  0  0  0  0  0  0  0  0  0  0
    9.9176  -16.7982   25.2553 O   0  0  0  0  0  0  0  0  0  0  0  0
    7.3816  -11.7694   26.6136 C   0  0  0  0  0  0  0  0  0  0  0  0
    8.0661  -13.0504   26.2621 C   0  0  0  0  0  0  0  0  0  0  0  0
    8.5108  -13.7472   27.5315 C   0  0  2  0  0  0  0  0  0  0  0  0
    9.5536  -12.9548   28.2719 C   0  0  0  0  0  0  0  0  0  0  0  0
    9.1464  -15.0995   27.1811 C   0  0  2  0  0  0  0  0  0  0  0  0
    8.2012  -15.9362   26.4782 N   0  0  0  0  0  0  0  0  0  0  0  0
    9.4855  -15.7477   28.4633 C   0  0  0  0  0  0  0  0  0  0  0  0
    8.7803  -16.6761   28.9601 O   0  0  0  0  0  0  0  0  0  0  0  0
   10.6106  -15.3342   29.1539 O   0  0  0  0  0  0  0  0  0  0  0  0
  2  1  1  0
  3  2  2  0
  4  3  1  0
  5 11  1  0
  5  4  2  0
  6  5  1  0
  7  6  1  0
  7  8  1  6
  9  7  1  0
 10  9  2  0
 11 12  2  0
 12  2  1  0
 13  9  1  0
 14 13  1  0
 14 15  1  6
 16 15  1  0
 17 16  1  0
 18 17  1  0
 19 18  1  0
 20 14  1  0
 20 27  1  0
 21 20  2  0
 22 23  1  0
 23 24  1  0
 24 25  1  6
 26 27  1  1
 26 24  1  0
 26 28  1  0
 28 29  2  0
 28 30  1  0
M  END
$$$$
