YKI.pdb
     RDKit          3D

 30 30  0  0  1  0  0  0  0  0999 V2000
    9.3073  -13.7745   15.7493 O   0  0  0  0  0  0  0  0  0  0  0  0
    8.7386  -14.0263   16.9830 C   0  0  0  0  0  0  0  0  0  0  0  0
    7.8381  -13.1634   17.5735 C   0  0  0  0  0  0  0  0  0  0  0  0
    7.2930  -13.4479   18.8025 C   0  0  0  0  0  0  0  0  0  0  0  0
    7.6159  -14.5891   19.4893 C   0  0  0  0  0  0  0  0  0  0  0  0
    7.0126  -14.8786   20.8382 C   0  0  0  0  0  0  0  0  0  0  0  0
    6.7182  -16.3852   20.9254 C   0  0  2  0  0  0  0  0  0  0  0  0
    5.6056  -16.6496   20.0631 N   0  0  0  0  0  0  0  0  0  0  0  0
    6.4215  -16.7533   22.3324 C   0  0  0  0  0  0  0  0  0  0  0  0
    5.3066  -16.3731   22.8085 O   0  0  0  0  0  0  0  0  0  0  0  0
    8.5124  -15.4564   18.9107 C   0  0  0  0  0  0  0  0  0  0  0  0
    9.0612  -15.1705   17.6737 C   0  0  0  0  0  0  0  0  0  0  0  0
    7.3486  -17.4998   23.1041 N   0  0  0  0  0  0  0  0  0  0  0  0
    7.3138  -17.5046   24.5340 C   0  0  1  0  0  0  0  0  0  0  0  0
    7.7211  -18.8607   25.1027 C   0  0  0  0  0  0  0  0  0  0  0  0
    7.7072  -18.8594   26.6031 C   0  0  0  0  0  0  0  0  0  0  0  0
    8.2286  -20.2006   27.0849 C   0  0  0  0  0  0  0  0  0  0  0  0
    8.2469  -20.2528   28.6061 C   0  0  0  0  0  0  0  0  0  0  0  0
    8.6312  -21.5696   29.0268 N   0  0  0  0  0  0  0  0  0  0  0  0
    8.1338  -16.4479   25.1461 C   0  0  0  0  0  0  0  0  0  0  0  0
    9.4009  -16.4881   25.0142 O   0  0  0  0  0  0  0  0  0  0  0  0
    6.1082  -11.5619   27.0108 C   0  0  0  0  0  0  0  0  0  0  0  0
    6.6432  -12.9558   27.0718 C   0  0  0  0  0  0  0  0  0  0  0  0
    8.0231  -12.9922   26.4480 C   0  0  2  0  0  0  0  0  0  0  0  0
    7.9961  -12.5859   24.9996 C   0  0  0  0  0  0  0  0  0  0  0  0
    8.5731  -14.4241   26.4974 C   0  0  2  0  0  0  0  0  0  0  0  0
    7.6384  -15.3465   25.8946 N   0  0  0  0  0  0  0  0  0  0  0  0
    8.7184  -14.7680   27.9256 C   0  0  0  0  0  0  0  0  0  0  0  0
    8.0098  -15.6585   28.4832 O   0  0  0  0  0  0  0  0  0  0  0  0
    9.6583  -14.1004   28.6901 O   0  0  0  0  0  0  0  0  0  0  0  0
  2  1  1  0
  3  2  2  0
  4  3  1  0
  5 11  1  0
  5  4  2  0
  6  5  1  0
  7  6  1  0
  7  8  1  6
  9  7  1  0
 10  9  2  0
 11 12  2  0
 12  2  1  0
 13  9  1  0
 14 13  1  0
 14 15  1  1
 16 15  1  0
 17 16  1  0
 18 17  1  0
 19 18  1  0
 20 14  1  0
 20 27  1  0
 21 20  2  0
 22 23  1  0
 23 24  1  0
 24 25  1  6
 26 27  1  1
 26 24  1  0
 26 28  1  0
 28 29  2  0
 28 30  1  0
M  END
$$$$
