YKI.pdb
     RDKit          3D

 30 30  0  0  1  0  0  0  0  0999 V2000
    9.1045  -14.0047   15.4553 O   0  0  0  0  0  0  0  0  0  0  0  0
    8.6274  -14.2276   16.7326 C   0  0  0  0  0  0  0  0  0  0  0  0
    8.9741  -15.3420   17.4687 C   0  0  0  0  0  0  0  0  0  0  0  0
    8.4792  -15.5296   18.7369 C   0  0  0  0  0  0  0  0  0  0  0  0
    7.6282  -14.6280   19.3210 C   0  0  0  0  0  0  0  0  0  0  0  0
    7.0915  -14.8559   20.7093 C   0  0  0  0  0  0  0  0  0  0  0  0
    6.7163  -16.3406   20.8472 C   0  0  2  0  0  0  0  0  0  0  0  0
    5.5033  -16.5407   20.1123 N   0  0  0  0  0  0  0  0  0  0  0  0
    6.5505  -16.6804   22.2826 C   0  0  0  0  0  0  0  0  0  0  0  0
    5.4840  -16.2892   22.8516 O   0  0  0  0  0  0  0  0  0  0  0  0
    7.2755  -13.5137   18.5967 C   0  0  0  0  0  0  0  0  0  0  0  0
    7.7735  -13.3244   17.3203 C   0  0  0  0  0  0  0  0  0  0  0  0
    7.5450  -17.4129   22.9803 N   0  0  0  0  0  0  0  0  0  0  0  0
    7.5579  -17.5028   24.4078 C   0  0  1  0  0  0  0  0  0  0  0  0
    8.0517  -18.8667   24.8816 C   0  0  0  0  0  0  0  0  0  0  0  0
    8.1289  -18.9389   26.3783 C   0  0  0  0  0  0  0  0  0  0  0  0
    8.6118  -20.3250   26.7634 C   0  0  0  0  0  0  0  0  0  0  0  0
    8.7332  -20.4486   28.2758 C   0  0  0  0  0  0  0  0  0  0  0  0
    9.1589  -21.7783   28.6062 N   0  0  0  0  0  0  0  0  0  0  0  0
    8.3435  -16.4423   25.0570 C   0  0  0  0  0  0  0  0  0  0  0  0
    9.6088  -16.4222   24.9039 O   0  0  0  0  0  0  0  0  0  0  0  0
    6.0336  -11.8393   27.3004 C   0  0  0  0  0  0  0  0  0  0  0  0
    6.7090  -13.1706   27.2350 C   0  0  0  0  0  0  0  0  0  0  0  0
    8.0123  -13.0360   26.4747 C   0  0  2  0  0  0  0  0  0  0  0  0
    7.7917  -12.5851   25.0563 C   0  0  0  0  0  0  0  0  0  0  0  0
    8.7104  -14.4009   26.4034 C   0  0  2  0  0  0  0  0  0  0  0  0
    7.8157  -15.3995   25.8650 N   0  0  0  0  0  0  0  0  0  0  0  0
    9.0481  -14.7717   27.7918 C   0  0  0  0  0  0  0  0  0  0  0  0
    8.4980  -15.7471   28.3852 O   0  0  0  0  0  0  0  0  0  0  0  0
    9.9972  -14.0346   28.4773 O   0  0  0  0  0  0  0  0  0  0  0  0
  2  1  1  0
  3  2  2  0
  4  3  1  0
  5 11  1  0
  5  4  2  0
  6  5  1  0
  7  6  1  0
  7  8  1  6
  9  7  1  0
 10  9  2  0
 11 12  2  0
 12  2  1  0
 13  9  1  0
 14 13  1  0
 14 15  1  6
 16 15  1  0
 17 16  1  0
 18 17  1  0
 19 18  1  0
 20 14  1  0
 20 27  1  0
 21 20  2  0
 22 23  1  0
 23 24  1  0
 24 25  1  6
 26 27  1  1
 26 24  1  0
 26 28  1  0
 28 29  2  0
 28 30  1  0
M  END
$$$$
