YKI.pdb
     RDKit          3D

 30 30  0  0  1  0  0  0  0  0999 V2000
   11.5917  -12.7842   19.6687 O   0  0  0  0  0  0  0  0  0  0  0  0
   10.3801  -13.4309   19.5183 C   0  0  0  0  0  0  0  0  0  0  0  0
    9.1801  -12.8466   19.8686 C   0  0  0  0  0  0  0  0  0  0  0  0
    7.9943  -13.5214   19.7043 C   0  0  0  0  0  0  0  0  0  0  0  0
    7.9509  -14.7913   19.1906 C   0  0  0  0  0  0  0  0  0  0  0  0
    6.6415  -15.5160   19.0254 C   0  0  0  0  0  0  0  0  0  0  0  0
    6.8073  -16.9472   19.5623 C   0  0  2  0  0  0  0  0  0  0  0  0
    5.6471  -17.6861   19.1632 N   0  0  0  0  0  0  0  0  0  0  0  0
    6.9534  -16.9105   21.0390 C   0  0  0  0  0  0  0  0  0  0  0  0
    5.9022  -16.6983   21.7205 O   0  0  0  0  0  0  0  0  0  0  0  0
    9.1406  -15.3837   18.8382 C   0  0  0  0  0  0  0  0  0  0  0  0
   10.3344  -14.7049   19.0033 C   0  0  0  0  0  0  0  0  0  0  0  0
    8.2164  -17.1072   21.6541 N   0  0  0  0  0  0  0  0  0  0  0  0
    8.3504  -17.2962   23.0656 C   0  0  1  0  0  0  0  0  0  0  0  0
    9.4143  -18.3392   23.3955 C   0  0  0  0  0  0  0  0  0  0  0  0
    9.5580  -18.5351   24.8761 C   0  0  0  0  0  0  0  0  0  0  0  0
   10.5536  -19.6556   25.1133 C   0  0  0  0  0  0  0  0  0  0  0  0
   10.7636  -19.8785   26.6044 C   0  0  0  0  0  0  0  0  0  0  0  0
   10.5546  -21.2655   26.9065 N   0  0  0  0  0  0  0  0  0  0  0  0
    8.6339  -16.0545   23.8012 C   0  0  0  0  0  0  0  0  0  0  0  0
    9.6138  -15.3250   23.4374 O   0  0  0  0  0  0  0  0  0  0  0  0
    6.5481  -11.4838   27.2704 C   0  0  0  0  0  0  0  0  0  0  0  0
    7.7021  -12.3331   26.8460 C   0  0  0  0  0  0  0  0  0  0  0  0
    7.1866  -13.5381   26.0865 C   0  0  2  0  0  0  0  0  0  0  0  0
    6.3269  -14.4211   26.9497 C   0  0  0  0  0  0  0  0  0  0  0  0
    8.3697  -14.3944   25.6148 C   0  0  2  0  0  0  0  0  0  0  0  0
    7.8984  -15.5674   24.9151 N   0  0  0  0  0  0  0  0  0  0  0  0
    9.0843  -14.8280   26.8315 C   0  0  0  0  0  0  0  0  0  0  0  0
    8.9858  -16.0047   27.2915 O   0  0  0  0  0  0  0  0  0  0  0  0
    9.8922  -13.9254   27.4997 O   0  0  0  0  0  0  0  0  0  0  0  0
  2  1  1  0
  3  2  2  0
  4  3  1  0
  5 11  1  0
  5  4  2  0
  6  5  1  0
  7  6  1  0
  7  8  1  1
  9  7  1  0
 10  9  2  0
 11 12  2  0
 12  2  1  0
 13  9  1  0
 14 13  1  0
 14 15  1  6
 16 15  1  0
 17 16  1  0
 18 17  1  0
 19 18  1  0
 20 14  1  0
 20 27  1  0
 21 20  2  0
 22 23  1  0
 23 24  1  0
 24 25  1  1
 26 27  1  1
 26 24  1  0
 26 28  1  0
 28 29  2  0
 28 30  1  0
M  END
$$$$
