YKI.pdb
     RDKit          3D

 30 30  0  0  1  0  0  0  0  0999 V2000
    8.9078  -13.5626   15.8738 O   0  0  0  0  0  0  0  0  0  0  0  0
    8.5336  -13.8823   17.1648 C   0  0  0  0  0  0  0  0  0  0  0  0
    9.0314  -14.9847   17.8287 C   0  0  0  0  0  0  0  0  0  0  0  0
    8.6356  -15.2706   19.1133 C   0  0  0  0  0  0  0  0  0  0  0  0
    7.7384  -14.4821   19.7852 C   0  0  0  0  0  0  0  0  0  0  0  0
    7.3122  -14.8171   21.1900 C   0  0  0  0  0  0  0  0  0  0  0  0
    6.7158  -16.2342   21.1917 C   0  0  2  0  0  0  0  0  0  0  0  0
    5.4727  -16.1710   20.4831 N   0  0  0  0  0  0  0  0  0  0  0  0
    6.5270  -16.6926   22.5908 C   0  0  0  0  0  0  0  0  0  0  0  0
    5.6626  -16.0783   23.2907 O   0  0  0  0  0  0  0  0  0  0  0  0
    7.2354  -13.3808   19.1334 C   0  0  0  0  0  0  0  0  0  0  0  0
    7.6336  -13.0926   17.8405 C   0  0  0  0  0  0  0  0  0  0  0  0
    7.2827  -17.7728   23.1147 N   0  0  0  0  0  0  0  0  0  0  0  0
    7.4376  -17.9769   24.5220 C   0  0  1  0  0  0  0  0  0  0  0  0
    7.9788  -19.3693   24.8328 C   0  0  0  0  0  0  0  0  0  0  0  0
    8.2549  -19.5424   26.2975 C   0  0  0  0  0  0  0  0  0  0  0  0
    7.3696  -20.6588   26.8198 C   0  0  0  0  0  0  0  0  0  0  0  0
    7.4780  -20.7639   28.3345 C   0  0  0  0  0  0  0  0  0  0  0  0
    6.6158  -21.8137   28.7959 N   0  0  0  0  0  0  0  0  0  0  0  0
    8.2816  -16.9640   25.1740 C   0  0  0  0  0  0  0  0  0  0  0  0
    9.4976  -16.8402   24.8124 O   0  0  0  0  0  0  0  0  0  0  0  0
    6.7898  -11.9917   26.1580 C   0  0  0  0  0  0  0  0  0  0  0  0
    7.5816  -13.2131   25.8201 C   0  0  0  0  0  0  0  0  0  0  0  0
    8.1475  -13.8126   27.0910 C   0  0  2  0  0  0  0  0  0  0  0  0
    9.2023  -12.9335   27.7060 C   0  0  0  0  0  0  0  0  0  0  0  0
    8.8189  -15.1555   26.7725 C   0  0  2  0  0  0  0  0  0  0  0  0
    7.8632  -16.0765   26.2017 N   0  0  0  0  0  0  0  0  0  0  0  0
    9.2896  -15.7040   28.0597 C   0  0  0  0  0  0  0  0  0  0  0  0
    8.6677  -16.6227   28.6722 O   0  0  0  0  0  0  0  0  0  0  0  0
   10.4494  -15.2042   28.6246 O   0  0  0  0  0  0  0  0  0  0  0  0
  2  1  1  0
  3  2  2  0
  4  3  1  0
  5 11  1  0
  5  4  2  0
  6  5  1  0
  7  6  1  0
  7  8  1  1
  9  7  1  0
 10  9  2  0
 11 12  2  0
 12  2  1  0
 13  9  1  0
 14 13  1  0
 14 15  1  6
 16 15  1  0
 17 16  1  0
 18 17  1  0
 19 18  1  0
 20 14  1  0
 20 27  1  0
 21 20  2  0
 22 23  1  0
 23 24  1  0
 24 25  1  6
 26 27  1  1
 26 24  1  0
 26 28  1  0
 28 29  2  0
 28 30  1  0
M  END
$$$$
