YKI.pdb
     RDKit          3D

 30 30  0  0  1  0  0  0  0  0999 V2000
    4.9393  -10.6371   28.3987 O   0  0  0  0  0  0  0  0  0  0  0  0
    5.6163  -11.5825   27.6525 C   0  0  0  0  0  0  0  0  0  0  0  0
    5.2221  -11.9430   26.3803 C   0  0  0  0  0  0  0  0  0  0  0  0
    5.9211  -12.8879   25.6682 C   0  0  0  0  0  0  0  0  0  0  0  0
    7.0292  -13.5077   26.1842 C   0  0  0  0  0  0  0  0  0  0  0  0
    7.7769  -14.5458   25.3901 C   0  0  0  0  0  0  0  0  0  0  0  0
    6.7537  -15.5042   24.7587 C   0  0  2  0  0  0  0  0  0  0  0  0
    6.4618  -16.5131   25.7325 N   0  0  0  0  0  0  0  0  0  0  0  0
    7.3195  -16.0877   23.5166 C   0  0  0  0  0  0  0  0  0  0  0  0
    8.0146  -17.1444   23.6368 O   0  0  0  0  0  0  0  0  0  0  0  0
    7.4313  -13.1565   27.4513 C   0  0  0  0  0  0  0  0  0  0  0  0
    6.7281  -12.2055   28.1684 C   0  0  0  0  0  0  0  0  0  0  0  0
    7.0868  -15.4853   22.2536 N   0  0  0  0  0  0  0  0  0  0  0  0
    8.0447  -15.5538   21.1936 C   0  0  1  0  0  0  0  0  0  0  0  0
    7.8807  -14.3979   20.2109 C   0  0  0  0  0  0  0  0  0  0  0  0
    8.7915  -14.5432   19.0274 C   0  0  0  0  0  0  0  0  0  0  0  0
    8.1552  -13.8322   17.8474 C   0  0  0  0  0  0  0  0  0  0  0  0
    8.8988  -14.1602   16.5602 C   0  0  0  0  0  0  0  0  0  0  0  0
    8.2358  -13.5231   15.4589 N   0  0  0  0  0  0  0  0  0  0  0  0
    9.4380  -15.6074   21.6622 C   0  0  0  0  0  0  0  0  0  0  0  0
    9.8361  -14.7626   22.5297 O   0  0  0  0  0  0  0  0  0  0  0  0
   13.0363  -19.1819   24.4240 C   0  0  0  0  0  0  0  0  0  0  0  0
   13.0519  -18.0211   23.4830 C   0  0  0  0  0  0  0  0  0  0  0  0
   11.6689  -17.8329   22.8944 C   0  0  2  0  0  0  0  0  0  0  0  0
   11.2363  -19.0240   22.0832 C   0  0  0  0  0  0  0  0  0  0  0  0
   11.6729  -16.6269   21.9452 C   0  0  2  0  0  0  0  0  0  0  0  0
   10.4195  -16.5401   21.2317 N   0  0  0  0  0  0  0  0  0  0  0  0
   12.7542  -16.8658   20.9689 C   0  0  0  0  0  0  0  0  0  0  0  0
   12.5259  -17.2823   19.7940 O   0  0  0  0  0  0  0  0  0  0  0  0
   14.0657  -16.6294   21.3404 O   0  0  0  0  0  0  0  0  0  0  0  0
  2  1  1  0
  3  2  2  0
  4  3  1  0
  5 11  1  0
  5  4  2  0
  6  5  1  0
  7  6  1  0
  7  8  1  1
  9  7  1  0
 10  9  2  0
 11 12  2  0
 12  2  1  0
 13  9  1  0
 14 13  1  0
 14 15  1  6
 16 15  1  0
 17 16  1  0
 18 17  1  0
 19 18  1  0
 20 14  1  0
 20 27  1  0
 21 20  2  0
 22 23  1  0
 23 24  1  0
 24 25  1  6
 26 27  1  6
 26 24  1  0
 26 28  1  0
 28 29  2  0
 28 30  1  0
M  END
$$$$
