SHR.pdb
     RDKit          3D

 28 28  0  0  1  0  0  0  0  0999 V2000
    4.7299  -19.1150   23.5330 O   0  0  0  0  0  0  0  0  0  0  0  0
    3.5486  -18.5099   23.1132 C   0  0  0  0  0  0  0  0  0  0  0  0
    3.5715  -18.2882   21.5937 C   0  0  2  0  0  0  0  0  0  0  0  0
    3.3120  -19.5438   20.9220 N   0  0  0  0  0  0  0  0  0  0  0  0
    4.9401  -17.7955   21.2282 C   0  0  0  0  0  0  0  0  0  0  0  0
    5.9058  -18.5809   21.0003 O   0  0  0  0  0  0  0  0  0  0  0  0
    5.1400  -16.3996   21.1409 N   0  0  0  0  0  0  0  0  0  0  0  0
    6.4153  -15.7936   20.8506 C   0  0  1  0  0  0  0  0  0  0  0  0
    6.2602  -14.3369   20.4281 C   0  0  0  0  0  0  0  0  0  0  0  0
    7.5341  -13.7695   19.9372 C   0  0  0  0  0  0  0  0  0  0  0  0
    7.7409  -13.2908   18.6689 C   0  0  0  0  0  0  0  0  0  0  0  0
    9.0020  -12.8456   18.5410 N   0  0  0  0  0  0  0  0  0  0  0  0
    9.5890  -13.0452   19.7324 C   0  0  0  0  0  0  0  0  0  0  0  0
    8.6888  -13.6117   20.5885 N   0  0  0  0  0  0  0  0  0  0  0  0
    7.2836  -15.9090   22.0441 C   0  0  0  0  0  0  0  0  0  0  0  0
    6.7504  -16.1066   23.1907 O   0  0  0  0  0  0  0  0  0  0  0  0
   12.8453  -20.4978   22.9680 N   0  0  0  0  0  0  0  0  0  0  0  0
   12.1893  -21.2361   23.9827 C   0  0  0  0  0  0  0  0  0  0  0  0
   12.8100  -22.1788   24.6060 N   0  0  0  0  0  0  0  0  0  0  0  0
   10.8377  -20.9849   24.3642 N   0  0  0  0  0  0  0  0  0  0  0  0
   10.0194  -20.1244   23.5538 C   0  0  0  0  0  0  0  0  0  0  0  0
   10.3124  -18.6535   23.7985 C   0  0  0  0  0  0  0  0  0  0  0  0
    9.3760  -17.8845   22.9049 C   0  0  0  0  0  0  0  0  0  0  0  0
    9.5670  -16.3947   22.9291 C   0  0  2  0  0  0  0  0  0  0  0  0
    8.6916  -15.8034   21.9230 N   0  0  0  0  0  0  0  0  0  0  0  0
   10.9684  -16.0134   22.6569 C   0  0  0  0  0  0  0  0  0  0  0  0
   11.7838  -15.7715   23.5720 O   0  0  0  0  0  0  0  0  0  0  0  0
   11.3854  -15.9235   21.3212 O   0  0  0  0  0  0  0  0  0  0  0  0
  2  3  1  0
  2  1  1  0
  3  4  1  6
  5  6  2  0
  5  3  1  0
  7  5  1  0
  8  7  1  0
  9 10  1  0
  8  9  1  1
 10 14  1  0
 11 12  1  0
 11 10  2  0
 12 13  1  0
 13 14  2  0
 15 25  1  0
 15  8  1  0
 16 15  2  0
 18 20  1  0
 18 17  1  0
 19 18  2  0
 21 22  1  0
 21 20  1  0
 22 23  1  0
 24 23  1  6
 24 25  1  0
 26 24  1  0
 27 26  2  0
 28 26  1  0
M  END
$$$$
