SHR.pdb
     RDKit          3D

 28 28  0  0  1  0  0  0  0  0999 V2000
   10.2319  -19.2374   17.8669 O   0  0  0  0  0  0  0  0  0  0  0  0
    8.8537  -19.0942   18.0007 C   0  0  0  0  0  0  0  0  0  0  0  0
    8.4442  -17.6301   17.7834 C   0  0  2  0  0  0  0  0  0  0  0  0
    9.0823  -17.1265   16.5858 N   0  0  0  0  0  0  0  0  0  0  0  0
    8.9154  -16.8465   18.9722 C   0  0  0  0  0  0  0  0  0  0  0  0
    9.9251  -16.0852   18.9263 O   0  0  0  0  0  0  0  0  0  0  0  0
    8.1933  -16.9765   20.1796 N   0  0  0  0  0  0  0  0  0  0  0  0
    8.5038  -16.2373   21.3776 C   0  0  1  0  0  0  0  0  0  0  0  0
    7.4738  -15.1455   21.6452 C   0  0  0  0  0  0  0  0  0  0  0  0
    7.5405  -14.0688   20.6343 C   0  0  0  0  0  0  0  0  0  0  0  0
    6.6374  -13.8921   19.6177 C   0  0  0  0  0  0  0  0  0  0  0  0
    6.9788  -12.8268   18.8738 N   0  0  0  0  0  0  0  0  0  0  0  0
    8.0997  -12.3329   19.4248 C   0  0  0  0  0  0  0  0  0  0  0  0
    8.4441  -13.0945   20.5043 N   0  0  0  0  0  0  0  0  0  0  0  0
    8.5830  -17.1807   22.5159 C   0  0  0  0  0  0  0  0  0  0  0  0
    7.9902  -18.3121   22.4350 O   0  0  0  0  0  0  0  0  0  0  0  0
   14.6555  -20.3794   20.0868 N   0  0  0  0  0  0  0  0  0  0  0  0
   14.6940  -21.0143   21.3520 C   0  0  0  0  0  0  0  0  0  0  0  0
   15.3394  -22.1198   21.5057 N   0  0  0  0  0  0  0  0  0  0  0  0
   14.0377  -20.4797   22.5004 N   0  0  0  0  0  0  0  0  0  0  0  0
   13.2207  -19.3041   22.3683 C   0  0  0  0  0  0  0  0  0  0  0  0
   12.3699  -19.0527   23.6021 C   0  0  0  0  0  0  0  0  0  0  0  0
   11.3077  -18.0699   23.1866 C   0  0  0  0  0  0  0  0  0  0  0  0
   10.2866  -17.7644   24.2451 C   0  0  2  0  0  0  0  0  0  0  0  0
    9.3076  -16.8392   23.6849 N   0  0  0  0  0  0  0  0  0  0  0  0
   10.9014  -17.1704   25.4502 C   0  0  0  0  0  0  0  0  0  0  0  0
   11.0256  -15.9358   25.5963 O   0  0  0  0  0  0  0  0  0  0  0  0
   11.3570  -18.0325   26.4578 O   0  0  0  0  0  0  0  0  0  0  0  0
  2  3  1  0
  2  1  1  0
  3  4  1  6
  5  6  2  0
  5  3  1  0
  7  5  1  0
  8  7  1  0
  9 10  1  0
  8  9  1  1
 10 14  1  0
 11 12  1  0
 11 10  2  0
 12 13  1  0
 13 14  2  0
 15 25  1  0
 15  8  1  0
 16 15  2  0
 18 20  1  0
 18 17  1  0
 19 18  2  0
 21 22  1  0
 21 20  1  0
 22 23  1  0
 24 23  1  6
 24 25  1  0
 26 24  1  0
 27 26  2  0
 28 26  1  0
M  END
$$$$
