SHR.pdb
     RDKit          3D

 28 28  0  0  1  0  0  0  0  0999 V2000
   10.1547  -18.7155   12.7771 O   0  0  0  0  0  0  0  0  0  0  0  0
    9.8985  -18.0339   13.9635 C   0  0  0  0  0  0  0  0  0  0  0  0
    9.2225  -16.6863   13.6713 C   0  0  2  0  0  0  0  0  0  0  0  0
    9.7779  -16.1244   12.4585 N   0  0  0  0  0  0  0  0  0  0  0  0
    9.5112  -15.7745   14.8265 C   0  0  0  0  0  0  0  0  0  0  0  0
   10.5395  -15.0382   14.8695 O   0  0  0  0  0  0  0  0  0  0  0  0
    8.5903  -15.7507   15.8977 N   0  0  0  0  0  0  0  0  0  0  0  0
    8.7719  -14.9575   17.0876 C   0  0  1  0  0  0  0  0  0  0  0  0
    7.4995  -14.9054   17.9259 C   0  0  0  0  0  0  0  0  0  0  0  0
    7.6950  -14.1352   19.1726 C   0  0  0  0  0  0  0  0  0  0  0  0
    7.6497  -12.7677   19.2634 C   0  0  0  0  0  0  0  0  0  0  0  0
    7.8666  -12.3796   20.5312 N   0  0  0  0  0  0  0  0  0  0  0  0
    8.0486  -13.5066   21.2386 C   0  0  0  0  0  0  0  0  0  0  0  0
    7.9434  -14.5831   20.4055 N   0  0  0  0  0  0  0  0  0  0  0  0
    9.8981  -15.5167   17.8691 C   0  0  0  0  0  0  0  0  0  0  0  0
   10.1198  -16.7768   17.8357 O   0  0  0  0  0  0  0  0  0  0  0  0
   17.6159  -12.4409   17.1638 N   0  0  0  0  0  0  0  0  0  0  0  0
   17.8459  -13.5173   18.0547 C   0  0  0  0  0  0  0  0  0  0  0  0
   19.0461  -13.9324   18.2774 N   0  0  0  0  0  0  0  0  0  0  0  0
   16.7889  -14.1868   18.7401 N   0  0  0  0  0  0  0  0  0  0  0  0
   15.4240  -13.8336   18.4584 C   0  0  0  0  0  0  0  0  0  0  0  0
   14.4408  -14.5899   19.3361 C   0  0  0  0  0  0  0  0  0  0  0  0
   13.0667  -14.1868   18.8710 C   0  0  0  0  0  0  0  0  0  0  0  0
   11.9784  -15.1671   19.2044 C   0  0  2  0  0  0  0  0  0  0  0  0
   10.7256  -14.6692   18.6471 N   0  0  0  0  0  0  0  0  0  0  0  0
   11.8347  -15.3575   20.6626 C   0  0  0  0  0  0  0  0  0  0  0  0
   12.7545  -15.8228   21.3686 O   0  0  0  0  0  0  0  0  0  0  0  0
   10.6192  -14.9996   21.2632 O   0  0  0  0  0  0  0  0  0  0  0  0
  2  3  1  0
  2  1  1  0
  3  4  1  6
  5  6  2  0
  5  3  1  0
  7  5  1  0
  8  7  1  0
  9 10  1  0
  8  9  1  1
 10 14  1  0
 11 12  1  0
 11 10  2  0
 12 13  1  0
 13 14  2  0
 15 25  1  0
 15  8  1  0
 16 15  2  0
 18 20  1  0
 18 17  1  0
 19 18  2  0
 21 22  1  0
 21 20  1  0
 22 23  1  0
 24 23  1  1
 24 25  1  0
 26 24  1  0
 27 26  2  0
 28 26  1  0
M  END
$$$$
