SHR.pdb
     RDKit          3D

 28 28  0  0  1  0  0  0  0  0999 V2000
    9.1074  -17.7829   15.0320 O   0  0  0  0  0  0  0  0  0  0  0  0
   10.2696  -18.5294   14.8592 C   0  0  0  0  0  0  0  0  0  0  0  0
   10.0190  -20.0010   15.2197 C   0  0  2  0  0  0  0  0  0  0  0  0
    8.8282  -20.4650   14.5401 N   0  0  0  0  0  0  0  0  0  0  0  0
    9.8129  -20.0753   16.7034 C   0  0  0  0  0  0  0  0  0  0  0  0
    8.8137  -19.5517   17.2769 O   0  0  0  0  0  0  0  0  0  0  0  0
   10.7808  -20.7585   17.4731 N   0  0  0  0  0  0  0  0  0  0  0  0
   10.7656  -20.8055   18.9138 C   0  0  1  0  0  0  0  0  0  0  0  0
   11.7988  -21.7883   19.4533 C   0  0  0  0  0  0  0  0  0  0  0  0
   11.6844  -21.9556   20.9178 C   0  0  0  0  0  0  0  0  0  0  0  0
   10.6173  -22.5302   21.5592 C   0  0  0  0  0  0  0  0  0  0  0  0
   10.8198  -22.5309   22.8873 N   0  0  0  0  0  0  0  0  0  0  0  0
   12.0178  -21.9551   23.0806 C   0  0  0  0  0  0  0  0  0  0  0  0
   12.5479  -21.6024   21.8729 N   0  0  0  0  0  0  0  0  0  0  0  0
   11.0056  -19.4429   19.4404 C   0  0  0  0  0  0  0  0  0  0  0  0
   11.8188  -18.6678   18.8271 O   0  0  0  0  0  0  0  0  0  0  0  0
    8.1993  -12.4321   20.3245 N   0  0  0  0  0  0  0  0  0  0  0  0
    7.5264  -13.3859   19.5227 C   0  0  0  0  0  0  0  0  0  0  0  0
    7.1508  -13.0820   18.3273 N   0  0  0  0  0  0  0  0  0  0  0  0
    7.2337  -14.7050   19.9804 N   0  0  0  0  0  0  0  0  0  0  0  0
    7.6150  -15.0962   21.3102 C   0  0  0  0  0  0  0  0  0  0  0  0
    9.0710  -15.5237   21.3894 C   0  0  0  0  0  0  0  0  0  0  0  0
    9.1018  -16.9813   21.0136 C   0  0  0  0  0  0  0  0  0  0  0  0
   10.4658  -17.6095   21.0469 C   0  0  2  0  0  0  0  0  0  0  0  0
   10.3432  -18.9963   20.6110 N   0  0  0  0  0  0  0  0  0  0  0  0
   11.0626  -17.5624   22.3978 C   0  0  0  0  0  0  0  0  0  0  0  0
   10.9510  -18.5055   23.2097 O   0  0  0  0  0  0  0  0  0  0  0  0
   11.7766  -16.4143   22.7695 O   0  0  0  0  0  0  0  0  0  0  0  0
  2  3  1  0
  2  1  1  0
  3  4  1  6
  5  6  2  0
  5  3  1  0
  7  5  1  0
  8  7  1  0
  9 10  1  0
  8  9  1  1
 10 14  1  0
 11 12  1  0
 11 10  2  0
 12 13  1  0
 13 14  2  0
 15 25  1  0
 15  8  1  0
 16 15  2  0
 18 20  1  0
 18 17  1  0
 19 18  2  0
 21 22  1  0
 21 20  1  0
 22 23  1  0
 24 23  1  1
 24 25  1  0
 26 24  1  0
 27 26  2  0
 28 26  1  0
M  END
$$$$
