SHR.pdb
     RDKit          3D

 28 28  0  0  1  0  0  0  0  0999 V2000
    8.4594  -21.3297   19.5569 O   0  0  0  0  0  0  0  0  0  0  0  0
    7.1404  -20.8856   19.5894 C   0  0  0  0  0  0  0  0  0  0  0  0
    6.7991  -20.1272   18.2985 C   0  0  2  0  0  0  0  0  0  0  0  0
    7.1135  -20.9589   17.1564 N   0  0  0  0  0  0  0  0  0  0  0  0
    7.6421  -18.8871   18.2651 C   0  0  0  0  0  0  0  0  0  0  0  0
    8.5803  -18.7264   17.4313 O   0  0  0  0  0  0  0  0  0  0  0  0
    7.3643  -17.8719   19.2076 N   0  0  0  0  0  0  0  0  0  0  0  0
    8.0448  -16.6014   19.2347 C   0  0  1  0  0  0  0  0  0  0  0  0
    7.2107  -15.5338   19.9339 C   0  0  0  0  0  0  0  0  0  0  0  0
    7.8340  -14.1970   19.8325 C   0  0  0  0  0  0  0  0  0  0  0  0
    9.0018  -13.9260   19.1668 C   0  0  0  0  0  0  0  0  0  0  0  0
    9.2975  -12.6190   19.2621 N   0  0  0  0  0  0  0  0  0  0  0  0
    8.3125  -12.0675   19.9897 C   0  0  0  0  0  0  0  0  0  0  0  0
    7.4151  -13.0351   20.3394 N   0  0  0  0  0  0  0  0  0  0  0  0
    9.3539  -16.7731   19.9043 C   0  0  0  0  0  0  0  0  0  0  0  0
    9.4131  -17.4138   21.0106 O   0  0  0  0  0  0  0  0  0  0  0  0
   17.0325  -12.1405   17.7283 N   0  0  0  0  0  0  0  0  0  0  0  0
   16.5270  -13.4628   17.7605 C   0  0  0  0  0  0  0  0  0  0  0  0
   16.9090  -14.3269   16.8831 N   0  0  0  0  0  0  0  0  0  0  0  0
   15.5897  -13.9036   18.7416 N   0  0  0  0  0  0  0  0  0  0  0  0
   15.1763  -15.2804   18.7607 C   0  0  0  0  0  0  0  0  0  0  0  0
   14.2104  -15.5758   19.8959 C   0  0  0  0  0  0  0  0  0  0  0  0
   12.8312  -15.5440   19.2929 C   0  0  0  0  0  0  0  0  0  0  0  0
   11.8242  -16.4198   19.9823 C   0  0  2  0  0  0  0  0  0  0  0  0
   10.5326  -16.2359   19.3295 N   0  0  0  0  0  0  0  0  0  0  0  0
   11.7064  -16.0996   21.4199 C   0  0  0  0  0  0  0  0  0  0  0  0
   10.8413  -15.3125   21.8594 O   0  0  0  0  0  0  0  0  0  0  0  0
   12.6021  -16.7065   22.3118 O   0  0  0  0  0  0  0  0  0  0  0  0
  2  3  1  0
  2  1  1  0
  3  4  1  6
  5  6  2  0
  5  3  1  0
  7  5  1  0
  8  7  1  0
  9 10  1  0
  8  9  1  1
 10 14  1  0
 11 12  1  0
 11 10  2  0
 12 13  1  0
 13 14  2  0
 15 25  1  0
 15  8  1  0
 16 15  2  0
 18 20  1  0
 18 17  1  0
 19 18  2  0
 21 22  1  0
 21 20  1  0
 22 23  1  0
 24 23  1  6
 24 25  1  0
 26 24  1  0
 27 26  2  0
 28 26  1  0
M  END
$$$$
