SHR.pdb
     RDKit          3D

 28 28  0  0  1  0  0  0  0  0999 V2000
    8.2768  -18.0388   20.0724 O   0  0  0  0  0  0  0  0  0  0  0  0
    7.3695  -17.1064   19.5772 C   0  0  0  0  0  0  0  0  0  0  0  0
    7.9928  -15.7029   19.5733 C   0  0  2  0  0  0  0  0  0  0  0  0
    9.1770  -15.7066   18.7410 N   0  0  0  0  0  0  0  0  0  0  0  0
    8.3718  -15.3713   20.9860 C   0  0  0  0  0  0  0  0  0  0  0  0
    9.5546  -15.4954   21.4183 O   0  0  0  0  0  0  0  0  0  0  0  0
    7.3572  -14.9055   21.8519 N   0  0  0  0  0  0  0  0  0  0  0  0
    7.5898  -14.5343   23.2253 C   0  0  1  0  0  0  0  0  0  0  0  0
    6.3240  -13.9946   23.8818 C   0  0  0  0  0  0  0  0  0  0  0  0
    6.5862  -13.4900   25.2465 C   0  0  0  0  0  0  0  0  0  0  0  0
    7.7955  -13.5619   25.8890 C   0  0  0  0  0  0  0  0  0  0  0  0
    7.7036  -13.0161   27.1131 N   0  0  0  0  0  0  0  0  0  0  0  0
    6.4329  -12.6002   27.2399 C   0  0  0  0  0  0  0  0  0  0  0  0
    5.7477  -12.8909   26.0953 N   0  0  0  0  0  0  0  0  0  0  0  0
    8.1060  -15.7118   23.9593 C   0  0  0  0  0  0  0  0  0  0  0  0
    7.4876  -16.8286   23.8673 O   0  0  0  0  0  0  0  0  0  0  0  0
   14.7900  -20.2086   23.1021 N   0  0  0  0  0  0  0  0  0  0  0  0
   14.4254  -20.6562   24.3951 C   0  0  0  0  0  0  0  0  0  0  0  0
   14.9232  -21.7464   24.8706 N   0  0  0  0  0  0  0  0  0  0  0  0
   13.5096  -19.9437   25.2251 N   0  0  0  0  0  0  0  0  0  0  0  0
   12.8426  -18.7790   24.7098 C   0  0  0  0  0  0  0  0  0  0  0  0
   11.8712  -18.1806   25.7135 C   0  0  0  0  0  0  0  0  0  0  0  0
   11.1791  -17.0473   25.0038 C   0  0  0  0  0  0  0  0  0  0  0  0
    9.7811  -16.7700   25.4783 C   0  0  2  0  0  0  0  0  0  0  0  0
    9.2733  -15.6086   24.7561 N   0  0  0  0  0  0  0  0  0  0  0  0
    9.7324  -16.5133   26.9326 C   0  0  0  0  0  0  0  0  0  0  0  0
    9.7750  -15.3587   27.4081 O   0  0  0  0  0  0  0  0  0  0  0  0
    9.6348  -17.6117   27.7987 O   0  0  0  0  0  0  0  0  0  0  0  0
  2  3  1  0
  2  1  1  0
  3  4  1  6
  5  6  2  0
  5  3  1  0
  7  5  1  0
  8  7  1  0
  9 10  1  0
  8  9  1  1
 10 14  1  0
 11 12  1  0
 11 10  2  0
 12 13  1  0
 13 14  2  0
 15 25  1  0
 15  8  1  0
 16 15  2  0
 18 20  1  0
 18 17  1  0
 19 18  2  0
 21 22  1  0
 21 20  1  0
 22 23  1  0
 24 23  1  6
 24 25  1  0
 26 24  1  0
 27 26  2  0
 28 26  1  0
M  END
$$$$
