SHR.pdb
     RDKit          3D

 28 28  0  0  1  0  0  0  0  0999 V2000
    8.1402  -18.0635   16.2399 O   0  0  0  0  0  0  0  0  0  0  0  0
    9.4140  -18.0651   16.8015 C   0  0  0  0  0  0  0  0  0  0  0  0
    9.3421  -18.4348   18.2903 C   0  0  2  0  0  0  0  0  0  0  0  0
    7.9846  -18.8077   18.6266 N   0  0  0  0  0  0  0  0  0  0  0  0
    9.7408  -17.2225   19.0781 C   0  0  0  0  0  0  0  0  0  0  0  0
   10.8668  -16.6622   18.9380 O   0  0  0  0  0  0  0  0  0  0  0  0
    8.8125  -16.7013   20.0068 N   0  0  0  0  0  0  0  0  0  0  0  0
    9.0553  -15.5231   20.8010 C   0  0  1  0  0  0  0  0  0  0  0  0
    7.8587  -14.5784   20.7825 C   0  0  0  0  0  0  0  0  0  0  0  0
    7.6035  -14.0429   19.4284 C   0  0  0  0  0  0  0  0  0  0  0  0
    7.9292  -12.7774   19.0126 C   0  0  0  0  0  0  0  0  0  0  0  0
    7.5659  -12.6022   17.7312 N   0  0  0  0  0  0  0  0  0  0  0  0
    7.0103  -13.7611   17.3409 C   0  0  0  0  0  0  0  0  0  0  0  0
    7.0334  -14.6444   18.3817 N   0  0  0  0  0  0  0  0  0  0  0  0
    9.3820  -15.9366   22.1845 C   0  0  0  0  0  0  0  0  0  0  0  0
    8.4913  -16.5263   22.8896 O   0  0  0  0  0  0  0  0  0  0  0  0
   11.7836  -23.0380   22.4450 N   0  0  0  0  0  0  0  0  0  0  0  0
   12.1809  -22.7325   23.7695 C   0  0  0  0  0  0  0  0  0  0  0  0
   12.4988  -23.6770   24.5876 N   0  0  0  0  0  0  0  0  0  0  0  0
   12.2507  -21.3953   24.2617 N   0  0  0  0  0  0  0  0  0  0  0  0
   11.7495  -20.3150   23.4563 C   0  0  0  0  0  0  0  0  0  0  0  0
   11.8312  -18.9771   24.1722 C   0  0  0  0  0  0  0  0  0  0  0  0
   11.2354  -17.9616   23.2338 C   0  0  0  0  0  0  0  0  0  0  0  0
   11.2168  -16.5550   23.7607 C   0  0  2  0  0  0  0  0  0  0  0  0
   10.6669  -15.6849   22.7268 N   0  0  0  0  0  0  0  0  0  0  0  0
   12.5672  -16.0890   24.1382 C   0  0  0  0  0  0  0  0  0  0  0  0
   13.3122  -15.4844   23.3379 O   0  0  0  0  0  0  0  0  0  0  0  0
   13.0165  -16.3397   25.4425 O   0  0  0  0  0  0  0  0  0  0  0  0
  2  3  1  0
  2  1  1  0
  3  4  1  1
  5  6  2  0
  5  3  1  0
  7  5  1  0
  8  7  1  0
  9 10  1  0
  8  9  1  1
 10 14  1  0
 11 12  1  0
 11 10  2  0
 12 13  1  0
 13 14  2  0
 15 25  1  0
 15  8  1  0
 16 15  2  0
 18 20  1  0
 18 17  1  0
 19 18  2  0
 21 22  1  0
 21 20  1  0
 22 23  1  0
 24 23  1  6
 24 25  1  0
 26 24  1  0
 27 26  2  0
 28 26  1  0
M  END
$$$$
