SHR.pdb
     RDKit          3D

 28 28  0  0  1  0  0  0  0  0999 V2000
    8.4814  -20.2674   20.2064 O   0  0  0  0  0  0  0  0  0  0  0  0
    8.1226  -19.0204   20.7107 C   0  0  0  0  0  0  0  0  0  0  0  0
    7.7993  -18.0521   19.5634 C   0  0  2  0  0  0  0  0  0  0  0  0
    7.5683  -18.8065   18.3499 N   0  0  0  0  0  0  0  0  0  0  0  0
    8.9868  -17.1547   19.3796 C   0  0  0  0  0  0  0  0  0  0  0  0
    9.8802  -17.3803   18.5123 O   0  0  0  0  0  0  0  0  0  0  0  0
    9.0957  -16.0207   20.2153 N   0  0  0  0  0  0  0  0  0  0  0  0
   10.1881  -15.0826   20.1478 C   0  0  1  0  0  0  0  0  0  0  0  0
    9.6985  -13.6432   20.2610 C   0  0  0  0  0  0  0  0  0  0  0  0
    8.8216  -13.2715   19.1303 C   0  0  0  0  0  0  0  0  0  0  0  0
    7.5219  -12.8517   19.2524 C   0  0  0  0  0  0  0  0  0  0  0  0
    7.0025  -12.5921   18.0410 N   0  0  0  0  0  0  0  0  0  0  0  0
    7.9788  -12.8495   17.1553 C   0  0  0  0  0  0  0  0  0  0  0  0
    9.0942  -13.2662   17.8233 N   0  0  0  0  0  0  0  0  0  0  0  0
   11.1577  -15.3979   21.2212 C   0  0  0  0  0  0  0  0  0  0  0  0
   10.7286  -15.6416   22.4021 O   0  0  0  0  0  0  0  0  0  0  0  0
   15.8146  -20.7281   23.6320 N   0  0  0  0  0  0  0  0  0  0  0  0
   14.5786  -21.3934   23.4448 C   0  0  0  0  0  0  0  0  0  0  0  0
   14.2743  -22.4164   24.1681 N   0  0  0  0  0  0  0  0  0  0  0  0
   13.6230  -20.9794   22.4697 N   0  0  0  0  0  0  0  0  0  0  0  0
   13.8893  -19.8203   21.6619 C   0  0  0  0  0  0  0  0  0  0  0  0
   13.5448  -18.5264   22.3804 C   0  0  0  0  0  0  0  0  0  0  0  0
   13.8208  -17.4162   21.4016 C   0  0  0  0  0  0  0  0  0  0  0  0
   13.4733  -16.0414   21.8973 C   0  0  2  0  0  0  0  0  0  0  0  0
   12.5480  -15.4317   20.9485 N   0  0  0  0  0  0  0  0  0  0  0  0
   14.6709  -15.1884   22.0441 C   0  0  0  0  0  0  0  0  0  0  0  0
   15.5218  -15.3813   22.9384 O   0  0  0  0  0  0  0  0  0  0  0  0
   14.8473  -14.1293   21.1424 O   0  0  0  0  0  0  0  0  0  0  0  0
  2  3  1  0
  2  1  1  0
  3  4  1  6
  5  6  2  0
  5  3  1  0
  7  5  1  0
  8  7  1  0
  9 10  1  0
  8  9  1  1
 10 14  1  0
 11 12  1  0
 11 10  2  0
 12 13  1  0
 13 14  2  0
 15 25  1  0
 15  8  1  0
 16 15  2  0
 18 20  1  0
 18 17  1  0
 19 18  2  0
 21 22  1  0
 21 20  1  0
 22 23  1  0
 24 23  1  6
 24 25  1  0
 26 24  1  0
 27 26  2  0
 28 26  1  0
M  END
$$$$
