SHR.pdb
     RDKit          3D

 28 28  0  0  1  0  0  0  0  0999 V2000
   10.9823  -21.3263   19.3992 O   0  0  0  0  0  0  0  0  0  0  0  0
    9.8733  -20.9849   18.6302 C   0  0  0  0  0  0  0  0  0  0  0  0
   10.2657  -19.9709   17.5457 C   0  0  2  0  0  0  0  0  0  0  0  0
   11.5027  -20.3905   16.9221 N   0  0  0  0  0  0  0  0  0  0  0  0
   10.4649  -18.6443   18.2164 C   0  0  0  0  0  0  0  0  0  0  0  0
   11.5770  -18.0405   18.2093 O   0  0  0  0  0  0  0  0  0  0  0  0
    9.3591  -18.0631   18.8762 N   0  0  0  0  0  0  0  0  0  0  0  0
    9.3788  -16.7416   19.4519 C   0  0  1  0  0  0  0  0  0  0  0  0
    7.9900  -16.1126   19.4585 C   0  0  0  0  0  0  0  0  0  0  0  0
    8.0506  -14.6515   19.6758 C   0  0  0  0  0  0  0  0  0  0  0  0
    9.2012  -13.9405   19.9015 C   0  0  0  0  0  0  0  0  0  0  0  0
    8.9175  -12.6369   20.0593 N   0  0  0  0  0  0  0  0  0  0  0  0
    7.5848  -12.5287   19.9323 C   0  0  0  0  0  0  0  0  0  0  0  0
    7.0533  -13.7641   19.6971 N   0  0  0  0  0  0  0  0  0  0  0  0
    9.9287  -16.8247   20.8239 C   0  0  0  0  0  0  0  0  0  0  0  0
    9.6252  -17.8257   21.5616 O   0  0  0  0  0  0  0  0  0  0  0  0
    5.4726  -14.0314   26.3690 N   0  0  0  0  0  0  0  0  0  0  0  0
    6.6571  -13.3323   26.7058 C   0  0  0  0  0  0  0  0  0  0  0  0
    6.6096  -12.3150   27.4965 N   0  0  0  0  0  0  0  0  0  0  0  0
    7.9389  -13.7049   26.2023 N   0  0  0  0  0  0  0  0  0  0  0  0
    8.0281  -14.5706   25.0580 C   0  0  0  0  0  0  0  0  0  0  0  0
    9.4596  -14.9829   24.7582 C   0  0  0  0  0  0  0  0  0  0  0  0
    9.5532  -15.1176   23.2615 C   0  0  0  0  0  0  0  0  0  0  0  0
   10.8931  -15.5693   22.7545 C   0  0  2  0  0  0  0  0  0  0  0  0
   10.7837  -15.8091   21.3196 N   0  0  0  0  0  0  0  0  0  0  0  0
   11.3539  -16.7989   23.4318 C   0  0  0  0  0  0  0  0  0  0  0  0
   12.5324  -16.9451   23.8202 O   0  0  0  0  0  0  0  0  0  0  0  0
   10.4270  -17.8302   23.6404 O   0  0  0  0  0  0  0  0  0  0  0  0
  2  3  1  0
  2  1  1  0
  3  4  1  1
  5  6  2  0
  5  3  1  0
  7  5  1  0
  8  7  1  0
  9 10  1  0
  8  9  1  1
 10 14  1  0
 11 12  1  0
 11 10  2  0
 12 13  1  0
 13 14  2  0
 15 25  1  0
 15  8  1  0
 16 15  2  0
 18 20  1  0
 18 17  1  0
 19 18  2  0
 21 22  1  0
 21 20  1  0
 22 23  1  0
 24 23  1  1
 24 25  1  0
 26 24  1  0
 27 26  2  0
 28 26  1  0
M  END
$$$$
