SHR.pdb
     RDKit          3D

 28 28  0  0  1  0  0  0  0  0999 V2000
    3.4098  -18.9230   22.4146 O   0  0  0  0  0  0  0  0  0  0  0  0
    3.7080  -17.6644   21.8999 C   0  0  0  0  0  0  0  0  0  0  0  0
    4.5483  -17.7945   20.6211 C   0  0  2  0  0  0  0  0  0  0  0  0
    4.5610  -19.1776   20.1945 N   0  0  0  0  0  0  0  0  0  0  0  0
    5.9445  -17.3564   20.9497 C   0  0  0  0  0  0  0  0  0  0  0  0
    6.9048  -18.1736   21.0565 O   0  0  0  0  0  0  0  0  0  0  0  0
    6.1770  -15.9766   21.1448 N   0  0  0  0  0  0  0  0  0  0  0  0
    7.4830  -15.4139   21.3812 C   0  0  1  0  0  0  0  0  0  0  0  0
    7.5170  -13.9235   21.0619 C   0  0  0  0  0  0  0  0  0  0  0  0
    7.6893  -13.6763   19.6145 C   0  0  0  0  0  0  0  0  0  0  0  0
    8.7207  -12.9633   19.0593 C   0  0  0  0  0  0  0  0  0  0  0  0
    8.5890  -12.9212   17.7230 N   0  0  0  0  0  0  0  0  0  0  0  0
    7.4716  -13.6099   17.4381 C   0  0  0  0  0  0  0  0  0  0  0  0
    6.9200  -14.0729   18.5980 N   0  0  0  0  0  0  0  0  0  0  0  0
    7.8640  -15.6623   22.7900 C   0  0  0  0  0  0  0  0  0  0  0  0
    7.0609  -15.3212   23.7263 O   0  0  0  0  0  0  0  0  0  0  0  0
    7.0535  -22.4106   26.5734 N   0  0  0  0  0  0  0  0  0  0  0  0
    8.0570  -21.9100   27.4380 C   0  0  0  0  0  0  0  0  0  0  0  0
    8.3989  -22.5721   28.4902 N   0  0  0  0  0  0  0  0  0  0  0  0
    8.7307  -20.6752   27.1996 N   0  0  0  0  0  0  0  0  0  0  0  0
    8.6759  -20.0770   25.8935 C   0  0  0  0  0  0  0  0  0  0  0  0
    9.6431  -18.9135   25.7521 C   0  0  0  0  0  0  0  0  0  0  0  0
    9.3215  -18.2576   24.4356 C   0  0  0  0  0  0  0  0  0  0  0  0
    9.3700  -16.7563   24.4538 C   0  0  2  0  0  0  0  0  0  0  0  0
    9.1042  -16.2721   23.1036 N   0  0  0  0  0  0  0  0  0  0  0  0
   10.6797  -16.2519   24.9157 C   0  0  0  0  0  0  0  0  0  0  0  0
   11.5112  -15.7417   24.1350 O   0  0  0  0  0  0  0  0  0  0  0  0
   10.9884  -16.3547   26.2796 O   0  0  0  0  0  0  0  0  0  0  0  0
  2  3  1  0
  2  1  1  0
  3  4  1  1
  5  6  2  0
  5  3  1  0
  7  5  1  0
  8  7  1  0
  9 10  1  0
  8  9  1  1
 10 14  1  0
 11 12  1  0
 11 10  2  0
 12 13  1  0
 13 14  2  0
 15 25  1  0
 15  8  1  0
 16 15  2  0
 18 20  1  0
 18 17  1  0
 19 18  2  0
 21 22  1  0
 21 20  1  0
 22 23  1  0
 24 23  1  6
 24 25  1  0
 26 24  1  0
 27 26  2  0
 28 26  1  0
M  END
$$$$
