SHR.pdb
     RDKit          3D

 28 28  0  0  1  0  0  0  0  0999 V2000
    7.2397  -21.5477   19.2339 O   0  0  0  0  0  0  0  0  0  0  0  0
    6.3282  -20.7916   18.5022 C   0  0  0  0  0  0  0  0  0  0  0  0
    7.0577  -19.9504   17.4446 C   0  0  2  0  0  0  0  0  0  0  0  0
    7.9752  -20.7948   16.7096 N   0  0  0  0  0  0  0  0  0  0  0  0
    7.8246  -18.8819   18.1654 C   0  0  0  0  0  0  0  0  0  0  0  0
    9.0530  -18.9998   18.4452 O   0  0  0  0  0  0  0  0  0  0  0  0
    7.1330  -17.7078   18.5387 N   0  0  0  0  0  0  0  0  0  0  0  0
    7.7488  -16.6086   19.2392 C   0  0  1  0  0  0  0  0  0  0  0  0
    6.9972  -15.3031   19.0043 C   0  0  0  0  0  0  0  0  0  0  0  0
    7.6442  -14.1661   19.6931 C   0  0  0  0  0  0  0  0  0  0  0  0
    8.7452  -14.2658   20.5043 C   0  0  0  0  0  0  0  0  0  0  0  0
    9.0855  -13.0547   20.9755 N   0  0  0  0  0  0  0  0  0  0  0  0
    8.1957  -12.1916   20.4587 C   0  0  0  0  0  0  0  0  0  0  0  0
    7.3118  -12.8732   19.6723 N   0  0  0  0  0  0  0  0  0  0  0  0
    7.8080  -16.9330   20.6825 C   0  0  0  0  0  0  0  0  0  0  0  0
    6.7387  -17.2876   21.2899 O   0  0  0  0  0  0  0  0  0  0  0  0
   14.7472  -20.5789   22.8946 N   0  0  0  0  0  0  0  0  0  0  0  0
   14.8701  -19.3810   22.1494 C   0  0  0  0  0  0  0  0  0  0  0  0
   15.9636  -19.1157   21.5199 N   0  0  0  0  0  0  0  0  0  0  0  0
   13.8168  -18.4235   22.0546 N   0  0  0  0  0  0  0  0  0  0  0  0
   12.5486  -18.6992   22.6733 C   0  0  0  0  0  0  0  0  0  0  0  0
   11.5588  -17.5610   22.4894 C   0  0  0  0  0  0  0  0  0  0  0  0
   10.2586  -18.0353   23.0822 C   0  0  0  0  0  0  0  0  0  0  0  0
    9.0839  -17.1370   22.8188 C   0  0  2  0  0  0  0  0  0  0  0  0
    9.0342  -16.8539   21.3885 N   0  0  0  0  0  0  0  0  0  0  0  0
    9.1767  -15.8708   23.5747 C   0  0  0  0  0  0  0  0  0  0  0  0
    9.4205  -14.7785   23.0193 O   0  0  0  0  0  0  0  0  0  0  0  0
    8.9822  -15.9095   24.9628 O   0  0  0  0  0  0  0  0  0  0  0  0
  2  3  1  0
  2  1  1  0
  3  4  1  1
  5  6  2  0
  5  3  1  0
  7  5  1  0
  8  7  1  0
  9 10  1  0
  8  9  1  1
 10 14  1  0
 11 12  1  0
 11 10  2  0
 12 13  1  0
 13 14  2  0
 15 25  1  0
 15  8  1  0
 16 15  2  0
 18 20  1  0
 18 17  1  0
 19 18  2  0
 21 22  1  0
 21 20  1  0
 22 23  1  0
 24 23  1  6
 24 25  1  0
 26 24  1  0
 27 26  2  0
 28 26  1  0
M  END
$$$$
