SHR.pdb
     RDKit          3D

 28 28  0  0  1  0  0  0  0  0999 V2000
    8.5729  -20.6278   20.2175 O   0  0  0  0  0  0  0  0  0  0  0  0
    7.6603  -19.8181   19.5470 C   0  0  0  0  0  0  0  0  0  0  0  0
    8.3909  -18.6910   18.8026 C   0  0  2  0  0  0  0  0  0  0  0  0
    9.4201  -19.2615   17.9599 N   0  0  0  0  0  0  0  0  0  0  0  0
    9.0201  -17.8010   19.8329 C   0  0  0  0  0  0  0  0  0  0  0  0
   10.2744  -17.6941   19.9624 O   0  0  0  0  0  0  0  0  0  0  0  0
    8.1652  -17.0631   20.6818 N   0  0  0  0  0  0  0  0  0  0  0  0
    8.6386  -16.1957   21.7313 C   0  0  1  0  0  0  0  0  0  0  0  0
    7.6941  -15.0200   21.9553 C   0  0  0  0  0  0  0  0  0  0  0  0
    7.8931  -13.9567   20.9476 C   0  0  0  0  0  0  0  0  0  0  0  0
    8.8127  -14.0032   19.9314 C   0  0  0  0  0  0  0  0  0  0  0  0
    8.7425  -12.8846   19.1908 N   0  0  0  0  0  0  0  0  0  0  0  0
    7.7760  -12.1333   19.7434 C   0  0  0  0  0  0  0  0  0  0  0  0
    7.2552  -12.7908   20.8207 N   0  0  0  0  0  0  0  0  0  0  0  0
    8.8008  -16.9881   22.9713 C   0  0  0  0  0  0  0  0  0  0  0  0
    7.7681  -17.4986   23.5289 O   0  0  0  0  0  0  0  0  0  0  0  0
   15.2680  -21.8083   26.5186 N   0  0  0  0  0  0  0  0  0  0  0  0
   13.9634  -22.3395   26.3728 C   0  0  0  0  0  0  0  0  0  0  0  0
   13.7955  -23.5939   26.1264 N   0  0  0  0  0  0  0  0  0  0  0  0
   12.7896  -21.5369   26.4878 N   0  0  0  0  0  0  0  0  0  0  0  0
   12.4699  -20.5935   25.4510 C   0  0  0  0  0  0  0  0  0  0  0  0
   12.0749  -19.2365   26.0092 C   0  0  0  0  0  0  0  0  0  0  0  0
   11.7227  -18.3804   24.8219 C   0  0  0  0  0  0  0  0  0  0  0  0
   10.2602  -18.0654   24.6868 C   0  0  2  0  0  0  0  0  0  0  0  0
   10.0849  -17.1829   23.5385 N   0  0  0  0  0  0  0  0  0  0  0  0
    9.7206  -17.4177   25.9003 C   0  0  0  0  0  0  0  0  0  0  0  0
    9.6021  -16.1778   25.9982 O   0  0  0  0  0  0  0  0  0  0  0  0
    9.3313  -18.2336   26.9722 O   0  0  0  0  0  0  0  0  0  0  0  0
  2  3  1  0
  2  1  1  0
  3  4  1  6
  5  6  2  0
  5  3  1  0
  7  5  1  0
  8  7  1  0
  9 10  1  0
  8  9  1  1
 10 14  1  0
 11 12  1  0
 11 10  2  0
 12 13  1  0
 13 14  2  0
 15 25  1  0
 15  8  1  0
 16 15  2  0
 18 20  1  0
 18 17  1  0
 19 18  2  0
 21 22  1  0
 21 20  1  0
 22 23  1  0
 24 23  1  1
 24 25  1  0
 26 24  1  0
 27 26  2  0
 28 26  1  0
M  END
$$$$
