KYH.pdb
     RDKit          3D

 32 33  0  0  1  0  0  0  0  0999 V2000
   21.8260  -13.7111  -16.0223 N   0  0  0  0  0  0  0  0  0  0  0  0
   21.3886  -12.5469  -16.7249 C   0  0  1  0  0  0  0  0  0  0  0  0
   20.0268  -12.6939  -17.3668 C   0  0  0  0  0  0  0  0  0  0  0  0
   20.0340  -13.8967  -18.2702 C   0  0  0  0  0  0  0  0  0  0  0  0
   19.4260  -13.5667  -19.5999 C   0  0  0  0  0  0  0  0  0  0  0  0
   19.3749  -14.7610  -20.5435 C   0  0  0  0  0  0  0  0  0  0  0  0
   18.6284  -15.8545  -19.9454 N   0  0  0  0  0  0  0  0  0  0  0  0
   21.3368  -11.3705  -15.8087 C   0  0  0  0  0  0  0  0  0  0  0  0
   20.4077  -11.2615  -14.9549 O   0  0  0  0  0  0  0  0  0  0  0  0
   28.2186  -10.2946  -16.7391 O   0  0  0  0  0  0  0  0  0  0  0  0
   27.0237  -10.0068  -16.0825 C   0  0  0  0  0  0  0  0  0  0  0  0
   26.3006   -8.8912  -16.4646 C   0  0  0  0  0  0  0  0  0  0  0  0
   25.1108   -8.5779  -15.8331 C   0  0  0  0  0  0  0  0  0  0  0  0
   24.6309   -9.3720  -14.8161 C   0  0  0  0  0  0  0  0  0  0  0  0
   23.3766   -9.0595  -14.1263 C   0  0  0  0  0  0  0  0  0  0  0  0
   22.1618   -9.1790  -15.0149 C   0  0  2  0  0  0  0  0  0  0  0  0
   22.3224  -10.3626  -15.8808 N   0  0  0  0  0  0  0  0  0  0  0  0
   22.0495   -7.9584  -15.8433 C   0  0  0  0  0  0  0  0  0  0  0  0
   22.7155   -7.8638  -16.8854 O   0  0  0  0  0  0  0  0  0  0  0  0
   25.3471  -10.4835  -14.4324 C   0  0  0  0  0  0  0  0  0  0  0  0
   26.5344  -10.8001  -15.0595 C   0  0  0  0  0  0  0  0  0  0  0  0
   21.1906   -6.8878  -15.4678 N   0  0  0  0  0  0  0  0  0  0  0  0
   20.5589   -5.9972  -16.4404 C   0  0  1  0  0  0  0  0  0  0  0  0
   19.9021   -6.7517  -17.5381 C   0  0  0  0  0  0  0  0  0  0  0  0
   19.3542   -5.8258  -18.5494 C   0  0  0  0  0  0  0  0  0  0  0  0
   19.4684   -4.4333  -18.5826 C   0  0  0  0  0  0  0  0  0  0  0  0
   18.8118   -3.9953  -19.6505 N   0  0  0  0  0  0  0  0  0  0  0  0
   18.2987   -5.0638  -20.2746 C   0  0  0  0  0  0  0  0  0  0  0  0
   18.6091   -6.1936  -19.6321 N   0  0  0  0  0  0  0  0  0  0  0  0
   19.6970   -5.0080  -15.7903 C   0  0  0  0  0  0  0  0  0  0  0  0
   19.0115   -5.4142  -14.7883 O   0  0  0  0  0  0  0  0  0  0  0  0
   19.5504   -3.6879  -16.1449 O   0  0  0  0  0  0  0  0  0  0  0  0
  2  1  1  1
  2  3  1  0
  3  4  1  0
  4  5  1  0
  6  5  1  0
  7  6  1  0
  8  2  1  0
  9  8  2  0
 10 11  1  0
 11 21  2  0
 11 12  1  0
 12 13  2  0
 13 14  1  0
 14 15  1  0
 16 15  1  1
 16 17  1  0
 17  8  1  0
 18 16  1  0
 18 22  1  0
 19 18  2  0
 20 14  2  0
 21 20  1  0
 23 22  1  0
 23 30  1  0
 23 24  1  6
 24 25  1  0
 25 29  1  0
 25 26  2  0
 26 27  1  0
 28 27  1  0
 29 28  2  0
 30 32  1  0
 31 30  2  0
M  END
$$$$
