KYH.pdb
     RDKit          3D

 32 33  0  0  1  0  0  0  0  0999 V2000
   27.6410  -19.7741  -19.8480 N   0  0  0  0  0  0  0  0  0  0  0  0
   27.2548  -20.7000  -18.8312 C   0  0  1  0  0  0  0  0  0  0  0  0
   28.2557  -20.8249  -17.7038 C   0  0  0  0  0  0  0  0  0  0  0  0
   29.3996  -21.6925  -18.1530 C   0  0  0  0  0  0  0  0  0  0  0  0
   29.2461  -23.0883  -17.6290 C   0  0  0  0  0  0  0  0  0  0  0  0
   30.4218  -23.9894  -17.9829 C   0  0  0  0  0  0  0  0  0  0  0  0
   30.2137  -25.3302  -17.4635 N   0  0  0  0  0  0  0  0  0  0  0  0
   25.9438  -20.3083  -18.2363 C   0  0  0  0  0  0  0  0  0  0  0  0
   25.7163  -19.1034  -17.9195 O   0  0  0  0  0  0  0  0  0  0  0  0
   21.2401  -18.6598  -22.8123 O   0  0  0  0  0  0  0  0  0  0  0  0
   21.5456  -19.3287  -21.6286 C   0  0  0  0  0  0  0  0  0  0  0  0
   22.3690  -20.4391  -21.6793 C   0  0  0  0  0  0  0  0  0  0  0  0
   22.6913  -21.1251  -20.5226 C   0  0  0  0  0  0  0  0  0  0  0  0
   22.1968  -20.7120  -19.3060 C   0  0  0  0  0  0  0  0  0  0  0  0
   22.5175  -21.4241  -18.0663 C   0  0  0  0  0  0  0  0  0  0  0  0
   23.7044  -20.8438  -17.3354 C   0  0  2  0  0  0  0  0  0  0  0  0
   24.9389  -21.2754  -18.0182 N   0  0  0  0  0  0  0  0  0  0  0  0
   23.6993  -21.3375  -15.9407 C   0  0  0  0  0  0  0  0  0  0  0  0
   23.7372  -22.5583  -15.7247 O   0  0  0  0  0  0  0  0  0  0  0  0
   21.3769  -19.6073  -19.2505 C   0  0  0  0  0  0  0  0  0  0  0  0
   21.0527  -18.9196  -20.4018 C   0  0  0  0  0  0  0  0  0  0  0  0
   23.6515  -20.4379  -14.8393 N   0  0  0  0  0  0  0  0  0  0  0  0
   23.7523  -20.8782  -13.4485 C   0  0  1  0  0  0  0  0  0  0  0  0
   24.4208  -19.8646  -12.5933 C   0  0  0  0  0  0  0  0  0  0  0  0
   24.5048  -20.3371  -11.1970 C   0  0  0  0  0  0  0  0  0  0  0  0
   25.4532  -21.2022  -10.6443 C   0  0  0  0  0  0  0  0  0  0  0  0
   25.1472  -21.3792   -9.3642 N   0  0  0  0  0  0  0  0  0  0  0  0
   24.0482  -20.6570   -9.1088 C   0  0  0  0  0  0  0  0  0  0  0  0
   23.6305  -20.0105  -10.2012 N   0  0  0  0  0  0  0  0  0  0  0  0
   22.4642  -21.3457  -12.9329 C   0  0  0  0  0  0  0  0  0  0  0  0
   22.4829  -21.9505  -11.8046 O   0  0  0  0  0  0  0  0  0  0  0  0
   21.2372  -21.2000  -13.5356 O   0  0  0  0  0  0  0  0  0  0  0  0
  2  1  1  6
  2  3  1  0
  3  4  1  0
  4  5  1  0
  6  5  1  0
  7  6  1  0
  8  2  1  0
  9  8  2  0
 10 11  1  0
 11 21  2  0
 11 12  1  0
 12 13  2  0
 13 14  1  0
 14 15  1  0
 16 15  1  6
 16 17  1  0
 17  8  1  0
 18 16  1  0
 18 22  1  0
 19 18  2  0
 20 14  2  0
 21 20  1  0
 23 22  1  0
 23 30  1  0
 23 24  1  1
 24 25  1  0
 25 29  1  0
 25 26  2  0
 26 27  1  0
 28 27  1  0
 29 28  2  0
 30 32  1  0
 31 30  2  0
M  END
$$$$
