KYH.pdb
     RDKit          3D

 32 33  0  0  1  0  0  0  0  0999 V2000
   29.3408  -33.2688  -20.3816 N   0  0  0  0  0  0  0  0  0  0  0  0
   28.0787  -33.3651  -19.7198 C   0  0  1  0  0  0  0  0  0  0  0  0
   27.2070  -34.4940  -20.2236 C   0  0  0  0  0  0  0  0  0  0  0  0
   26.6118  -34.1046  -21.5492 C   0  0  0  0  0  0  0  0  0  0  0  0
   25.1822  -33.6846  -21.3875 C   0  0  0  0  0  0  0  0  0  0  0  0
   24.4881  -33.4126  -22.7156 C   0  0  0  0  0  0  0  0  0  0  0  0
   23.1421  -32.9114  -22.4965 N   0  0  0  0  0  0  0  0  0  0  0  0
   28.2696  -33.5558  -18.2523 C   0  0  0  0  0  0  0  0  0  0  0  0
   29.1145  -34.3932  -17.8178 O   0  0  0  0  0  0  0  0  0  0  0  0
   33.7837  -31.3354  -17.2317 O   0  0  0  0  0  0  0  0  0  0  0  0
   32.4818  -31.4693  -16.7534 C   0  0  0  0  0  0  0  0  0  0  0  0
   31.4900  -30.6562  -17.2718 C   0  0  0  0  0  0  0  0  0  0  0  0
   30.1880  -30.7641  -16.8185 C   0  0  0  0  0  0  0  0  0  0  0  0
   29.8621  -31.6819  -15.8456 C   0  0  0  0  0  0  0  0  0  0  0  0
   28.4919  -31.8127  -15.3432 C   0  0  0  0  0  0  0  0  0  0  0  0
   27.7687  -33.0195  -15.8913 C   0  0  2  0  0  0  0  0  0  0  0  0
   27.5110  -32.8056  -17.3280 N   0  0  0  0  0  0  0  0  0  0  0  0
   26.4889  -33.1835  -15.1673 C   0  0  0  0  0  0  0  0  0  0  0  0
   25.5038  -32.5111  -15.5079 O   0  0  0  0  0  0  0  0  0  0  0  0
   30.8457  -32.4936  -15.3267 C   0  0  0  0  0  0  0  0  0  0  0  0
   32.1461  -32.3896  -15.7758 C   0  0  0  0  0  0  0  0  0  0  0  0
   26.3648  -34.0994  -14.0854 N   0  0  0  0  0  0  0  0  0  0  0  0
   25.1237  -34.2772  -13.3329 C   0  0  1  0  0  0  0  0  0  0  0  0
   23.9396  -34.3506  -14.2263 C   0  0  0  0  0  0  0  0  0  0  0  0
   22.7015  -34.5027  -13.4362 C   0  0  0  0  0  0  0  0  0  0  0  0
   22.0347  -33.5216  -12.6972 C   0  0  0  0  0  0  0  0  0  0  0  0
   20.9787  -34.0887  -12.1254 N   0  0  0  0  0  0  0  0  0  0  0  0
   20.9706  -35.3793  -12.4840 C   0  0  0  0  0  0  0  0  0  0  0  0
   22.0042  -35.6656  -13.2811 N   0  0  0  0  0  0  0  0  0  0  0  0
   25.2238  -35.3793  -12.3742 C   0  0  0  0  0  0  0  0  0  0  0  0
   24.1661  -35.6598  -11.7096 O   0  0  0  0  0  0  0  0  0  0  0  0
   26.3365  -36.1443  -12.1165 O   0  0  0  0  0  0  0  0  0  0  0  0
  2  1  1  6
  2  3  1  0
  3  4  1  0
  4  5  1  0
  6  5  1  0
  7  6  1  0
  8  2  1  0
  9  8  2  0
 10 11  1  0
 11 21  2  0
 11 12  1  0
 12 13  2  0
 13 14  1  0
 14 15  1  0
 16 15  1  1
 16 17  1  0
 17  8  1  0
 18 16  1  0
 18 22  1  0
 19 18  2  0
 20 14  2  0
 21 20  1  0
 23 22  1  0
 23 30  1  0
 23 24  1  6
 24 25  1  0
 25 29  1  0
 25 26  2  0
 26 27  1  0
 28 27  1  0
 29 28  2  0
 30 32  1  0
 31 30  2  0
M  END
$$$$
