KYH.pdb
     RDKit          3D

 32 33  0  0  1  0  0  0  0  0999 V2000
   29.2581  -22.8528  -17.3096 N   0  0  0  0  0  0  0  0  0  0  0  0
   27.9316  -22.3428  -17.4531 C   0  0  1  0  0  0  0  0  0  0  0  0
   27.1098  -23.0588  -18.5021 C   0  0  0  0  0  0  0  0  0  0  0  0
   27.6325  -22.7023  -19.8669 C   0  0  0  0  0  0  0  0  0  0  0  0
   27.4062  -21.2500  -20.1604 C   0  0  0  0  0  0  0  0  0  0  0  0
   27.8453  -20.8510  -21.5631 C   0  0  0  0  0  0  0  0  0  0  0  0
   27.6000  -19.4376  -21.7936 N   0  0  0  0  0  0  0  0  0  0  0  0
   27.1942  -22.4285  -16.1588 C   0  0  0  0  0  0  0  0  0  0  0  0
   26.8522  -23.5532  -15.6875 O   0  0  0  0  0  0  0  0  0  0  0  0
   23.6416  -20.3953   -8.3787 O   0  0  0  0  0  0  0  0  0  0  0  0
   24.3052  -20.3447   -9.6030 C   0  0  0  0  0  0  0  0  0  0  0  0
   25.5626  -20.9116   -9.7080 C   0  0  0  0  0  0  0  0  0  0  0  0
   26.2476  -20.8782  -10.9088 C   0  0  0  0  0  0  0  0  0  0  0  0
   25.6873  -20.2802  -12.0150 C   0  0  0  0  0  0  0  0  0  0  0  0
   26.3938  -20.2255  -13.2974 C   0  0  0  0  0  0  0  0  0  0  0  0
   26.1010  -21.4074  -14.1902 C   0  0  2  0  0  0  0  0  0  0  0  0
   26.8674  -21.2573  -15.4419 N   0  0  0  0  0  0  0  0  0  0  0  0
   24.6517  -21.4398  -14.4860 C   0  0  0  0  0  0  0  0  0  0  0  0
   24.1757  -20.6323  -15.2983 O   0  0  0  0  0  0  0  0  0  0  0  0
   24.4360  -19.7147  -11.9154 C   0  0  0  0  0  0  0  0  0  0  0  0
   23.7487  -19.7456  -10.7196 C   0  0  0  0  0  0  0  0  0  0  0  0
   23.7906  -22.3811  -13.8557 N   0  0  0  0  0  0  0  0  0  0  0  0
   22.3482  -22.4213  -14.0924 C   0  0  1  0  0  0  0  0  0  0  0  0
   21.7667  -23.7439  -13.7482 C   0  0  0  0  0  0  0  0  0  0  0  0
   22.1311  -24.7517  -14.7639 C   0  0  0  0  0  0  0  0  0  0  0  0
   22.8233  -24.5459  -15.9605 C   0  0  0  0  0  0  0  0  0  0  0  0
   22.9180  -25.7149  -16.5834 N   0  0  0  0  0  0  0  0  0  0  0  0
   22.3113  -26.6306  -15.8167 C   0  0  0  0  0  0  0  0  0  0  0  0
   21.8213  -26.0794  -14.7023 N   0  0  0  0  0  0  0  0  0  0  0  0
   21.6649  -21.2839  -13.4733 C   0  0  0  0  0  0  0  0  0  0  0  0
   22.0035  -20.9950  -12.2729 O   0  0  0  0  0  0  0  0  0  0  0  0
   20.6988  -20.4940  -14.0499 O   0  0  0  0  0  0  0  0  0  0  0  0
  2  1  1  1
  2  3  1  0
  3  4  1  0
  4  5  1  0
  6  5  1  0
  7  6  1  0
  8  2  1  0
  9  8  2  0
 10 11  1  0
 11 21  2  0
 11 12  1  0
 12 13  2  0
 13 14  1  0
 14 15  1  0
 16 15  1  1
 16 17  1  0
 17  8  1  0
 18 16  1  0
 18 22  1  0
 19 18  2  0
 20 14  2  0
 21 20  1  0
 23 22  1  0
 23 30  1  0
 23 24  1  1
 24 25  1  0
 25 29  1  0
 25 26  2  0
 26 27  1  0
 28 27  1  0
 29 28  2  0
 30 32  1  0
 31 30  2  0
M  END
$$$$
