KYH.pdb
     RDKit          3D

 32 33  0  0  1  0  0  0  0  0999 V2000
   28.7223  -23.7265  -16.9971 N   0  0  0  0  0  0  0  0  0  0  0  0
   28.1406  -22.4387  -17.2057 C   0  0  1  0  0  0  0  0  0  0  0  0
   27.2932  -22.3440  -18.4551 C   0  0  0  0  0  0  0  0  0  0  0  0
   28.1721  -22.5239  -19.6627 C   0  0  0  0  0  0  0  0  0  0  0  0
   28.4039  -23.9785  -19.9398 C   0  0  0  0  0  0  0  0  0  0  0  0
   29.2410  -24.2201  -21.1889 C   0  0  0  0  0  0  0  0  0  0  0  0
   29.6157  -25.6202  -21.2912 N   0  0  0  0  0  0  0  0  0  0  0  0
   27.2859  -22.0554  -16.0443 C   0  0  0  0  0  0  0  0  0  0  0  0
   26.6935  -22.9428  -15.3620 O   0  0  0  0  0  0  0  0  0  0  0  0
   27.9104  -14.8330  -17.2014 O   0  0  0  0  0  0  0  0  0  0  0  0
   27.6808  -15.9061  -16.3426 C   0  0  0  0  0  0  0  0  0  0  0  0
   28.4502  -17.0479  -16.4757 C   0  0  0  0  0  0  0  0  0  0  0  0
   28.2475  -18.1303  -15.6392 C   0  0  0  0  0  0  0  0  0  0  0  0
   27.2774  -18.0855  -14.6634 C   0  0  0  0  0  0  0  0  0  0  0  0
   27.0377  -19.2202  -13.7680 C   0  0  0  0  0  0  0  0  0  0  0  0
   26.3795  -20.3927  -14.4547 C   0  0  2  0  0  0  0  0  0  0  0  0
   27.1256  -20.6985  -15.6901 N   0  0  0  0  0  0  0  0  0  0  0  0
   24.9820  -20.0353  -14.7838 C   0  0  0  0  0  0  0  0  0  0  0  0
   24.6899  -19.7191  -15.9471 O   0  0  0  0  0  0  0  0  0  0  0  0
   26.5092  -16.9511  -14.5270 C   0  0  0  0  0  0  0  0  0  0  0  0
   26.7078  -15.8687  -15.3591 C   0  0  0  0  0  0  0  0  0  0  0  0
   23.9635  -20.0469  -13.7901 N   0  0  0  0  0  0  0  0  0  0  0  0
   22.5575  -19.7798  -14.0901 C   0  0  1  0  0  0  0  0  0  0  0  0
   22.0325  -20.6888  -15.1407 C   0  0  0  0  0  0  0  0  0  0  0  0
   21.9954  -20.0044  -16.4485 C   0  0  0  0  0  0  0  0  0  0  0  0
   22.3654  -18.6871  -16.7332 C   0  0  0  0  0  0  0  0  0  0  0  0
   22.1552  -18.4747  -18.0272 N   0  0  0  0  0  0  0  0  0  0  0  0
   21.6706  -19.6096  -18.5485 C   0  0  0  0  0  0  0  0  0  0  0  0
   21.5605  -20.5608  -17.6164 N   0  0  0  0  0  0  0  0  0  0  0  0
   21.7432  -19.7314  -12.8742 C   0  0  0  0  0  0  0  0  0  0  0  0
   22.3431  -19.9818  -11.7712 O   0  0  0  0  0  0  0  0  0  0  0  0
   20.4013  -19.4431  -12.7961 O   0  0  0  0  0  0  0  0  0  0  0  0
  2  1  1  1
  2  3  1  0
  3  4  1  0
  4  5  1  0
  6  5  1  0
  7  6  1  0
  8  2  1  0
  9  8  2  0
 10 11  1  0
 11 21  2  0
 11 12  1  0
 12 13  2  0
 13 14  1  0
 14 15  1  0
 16 15  1  6
 16 17  1  0
 17  8  1  0
 18 16  1  0
 18 22  1  0
 19 18  2  0
 20 14  2  0
 21 20  1  0
 23 22  1  0
 23 30  1  0
 23 24  1  6
 24 25  1  0
 25 29  1  0
 25 26  2  0
 26 27  1  0
 28 27  1  0
 29 28  2  0
 30 32  1  0
 31 30  2  0
M  END
$$$$
