KYH.pdb
     RDKit          3D

 32 33  0  0  1  0  0  0  0  0999 V2000
   29.1915  -22.9663  -18.0041 N   0  0  0  0  0  0  0  0  0  0  0  0
   28.9773  -21.6522  -17.4868 C   0  0  1  0  0  0  0  0  0  0  0  0
   28.4346  -20.6737  -18.5048 C   0  0  0  0  0  0  0  0  0  0  0  0
   27.9491  -21.4328  -19.7094 C   0  0  0  0  0  0  0  0  0  0  0  0
   27.4685  -20.4920  -20.7727 C   0  0  0  0  0  0  0  0  0  0  0  0
   26.8995  -21.2099  -21.9894 C   0  0  0  0  0  0  0  0  0  0  0  0
   26.5742  -20.2593  -23.0389 N   0  0  0  0  0  0  0  0  0  0  0  0
   28.0263  -21.6898  -16.3377 C   0  0  0  0  0  0  0  0  0  0  0  0
   27.0750  -22.5257  -16.3181 O   0  0  0  0  0  0  0  0  0  0  0  0
   24.3188  -20.2794   -8.4876 O   0  0  0  0  0  0  0  0  0  0  0  0
   25.1864  -20.2848   -9.5780 C   0  0  0  0  0  0  0  0  0  0  0  0
   25.1688  -19.2145  -10.4540 C   0  0  0  0  0  0  0  0  0  0  0  0
   26.0173  -19.1893  -11.5458 C   0  0  0  0  0  0  0  0  0  0  0  0
   26.8900  -20.2290  -11.7749 C   0  0  0  0  0  0  0  0  0  0  0  0
   27.7951  -20.2305  -12.9271 C   0  0  0  0  0  0  0  0  0  0  0  0
   27.1995  -20.8817  -14.1522 C   0  0  2  0  0  0  0  0  0  0  0  0
   28.1736  -20.7942  -15.2567 N   0  0  0  0  0  0  0  0  0  0  0  0
   25.9550  -20.1703  -14.5186 C   0  0  0  0  0  0  0  0  0  0  0  0
   26.0151  -19.1732  -15.2539 O   0  0  0  0  0  0  0  0  0  0  0  0
   26.9112  -21.2965  -10.9057 C   0  0  0  0  0  0  0  0  0  0  0  0
   26.0667  -21.3260   -9.8150 C   0  0  0  0  0  0  0  0  0  0  0  0
   24.6872  -20.6079  -14.0431 N   0  0  0  0  0  0  0  0  0  0  0  0
   23.4283  -19.9822  -14.4456 C   0  0  1  0  0  0  0  0  0  0  0  0
   23.2523  -19.9895  -15.9203 C   0  0  0  0  0  0  0  0  0  0  0  0
   22.0042  -19.2969  -16.2978 C   0  0  0  0  0  0  0  0  0  0  0  0
   21.7832  -17.9193  -16.3781 C   0  0  0  0  0  0  0  0  0  0  0  0
   20.5178  -17.7289  -16.7329 N   0  0  0  0  0  0  0  0  0  0  0  0
   19.9526  -18.9352  -16.8737 C   0  0  0  0  0  0  0  0  0  0  0  0
   20.8281  -19.9116  -16.6167 N   0  0  0  0  0  0  0  0  0  0  0  0
   22.2905  -20.5249  -13.7009 C   0  0  0  0  0  0  0  0  0  0  0  0
   22.3971  -21.7326  -13.2896 O   0  0  0  0  0  0  0  0  0  0  0  0
   21.1208  -19.8697  -13.3971 O   0  0  0  0  0  0  0  0  0  0  0  0
  2  1  1  6
  2  3  1  0
  3  4  1  0
  4  5  1  0
  6  5  1  0
  7  6  1  0
  8  2  1  0
  9  8  2  0
 10 11  1  0
 11 21  2  0
 11 12  1  0
 12 13  2  0
 13 14  1  0
 14 15  1  0
 16 15  1  1
 16 17  1  0
 17  8  1  0
 18 16  1  0
 18 22  1  0
 19 18  2  0
 20 14  2  0
 21 20  1  0
 23 22  1  0
 23 30  1  0
 23 24  1  6
 24 25  1  0
 25 29  1  0
 25 26  2  0
 26 27  1  0
 28 27  1  0
 29 28  2  0
 30 32  1  0
 31 30  2  0
M  END
$$$$
