KYH.pdb
     RDKit          3D

 32 33  0  0  1  0  0  0  0  0999 V2000
   29.0199  -21.0177  -19.2804 N   0  0  0  0  0  0  0  0  0  0  0  0
   28.1126  -20.0329  -18.7830 C   0  0  1  0  0  0  0  0  0  0  0  0
   26.9954  -19.6883  -19.7429 C   0  0  0  0  0  0  0  0  0  0  0  0
   27.2080  -18.2948  -20.2682 C   0  0  0  0  0  0  0  0  0  0  0  0
   28.6579  -18.0518  -20.5599 C   0  0  0  0  0  0  0  0  0  0  0  0
   28.9767  -16.5836  -20.8097 C   0  0  0  0  0  0  0  0  0  0  0  0
   28.5984  -16.2000  -22.1590 N   0  0  0  0  0  0  0  0  0  0  0  0
   27.4920  -20.4898  -17.5054 C   0  0  0  0  0  0  0  0  0  0  0  0
   26.8498  -21.5803  -17.4570 O   0  0  0  0  0  0  0  0  0  0  0  0
   24.9996  -20.9327   -9.0802 O   0  0  0  0  0  0  0  0  0  0  0  0
   25.6602  -20.6387  -10.2713 C   0  0  0  0  0  0  0  0  0  0  0  0
   25.4066  -19.4321  -10.8985 C   0  0  0  0  0  0  0  0  0  0  0  0
   26.0457  -19.1101  -12.0818 C   0  0  0  0  0  0  0  0  0  0  0  0
   26.9424  -19.9861  -12.6509 C   0  0  0  0  0  0  0  0  0  0  0  0
   27.6286  -19.6725  -13.9069 C   0  0  0  0  0  0  0  0  0  0  0  0
   26.8926  -20.1687  -15.1283 C   0  0  2  0  0  0  0  0  0  0  0  0
   27.6119  -19.7129  -16.3330 N   0  0  0  0  0  0  0  0  0  0  0  0
   25.5199  -19.6166  -15.1204 C   0  0  0  0  0  0  0  0  0  0  0  0
   25.3167  -18.4780  -15.5684 O   0  0  0  0  0  0  0  0  0  0  0  0
   27.1982  -21.1881  -12.0303 C   0  0  0  0  0  0  0  0  0  0  0  0
   26.5630  -21.5138  -10.8496 C   0  0  0  0  0  0  0  0  0  0  0  0
   24.4252  -20.3674  -14.6077 N   0  0  0  0  0  0  0  0  0  0  0  0
   23.0476  -19.8774  -14.6257 C   0  0  1  0  0  0  0  0  0  0  0  0
   22.5919  -19.5550  -16.0020 C   0  0  0  0  0  0  0  0  0  0  0  0
   21.2536  -18.9320  -15.9734 C   0  0  0  0  0  0  0  0  0  0  0  0
   20.9375  -17.6016  -15.6849 C   0  0  0  0  0  0  0  0  0  0  0  0
   19.6173  -17.4725  -15.7500 N   0  0  0  0  0  0  0  0  0  0  0  0
   19.1101  -18.6711  -16.0670 C   0  0  0  0  0  0  0  0  0  0  0  0
   20.0772  -19.5821  -16.2103 N   0  0  0  0  0  0  0  0  0  0  0  0
   22.1471  -20.7634  -13.8855 C   0  0  0  0  0  0  0  0  0  0  0  0
   22.4093  -22.0157  -13.9300 O   0  0  0  0  0  0  0  0  0  0  0  0
   21.0504  -20.3876  -13.1467 O   0  0  0  0  0  0  0  0  0  0  0  0
  2  1  1  6
  2  3  1  0
  3  4  1  0
  4  5  1  0
  6  5  1  0
  7  6  1  0
  8  2  1  0
  9  8  2  0
 10 11  1  0
 11 21  2  0
 11 12  1  0
 12 13  2  0
 13 14  1  0
 14 15  1  0
 16 15  1  1
 16 17  1  0
 17  8  1  0
 18 16  1  0
 18 22  1  0
 19 18  2  0
 20 14  2  0
 21 20  1  0
 23 22  1  0
 23 30  1  0
 23 24  1  6
 24 25  1  0
 25 29  1  0
 25 26  2  0
 26 27  1  0
 28 27  1  0
 29 28  2  0
 30 32  1  0
 31 30  2  0
M  END
$$$$
