KYH.pdb
     RDKit          3D

 32 33  0  0  1  0  0  0  0  0999 V2000
   21.5848  -22.6795  -15.8543 N   0  0  0  0  0  0  0  0  0  0  0  0
   20.1863  -22.4054  -15.9502 C   0  0  1  0  0  0  0  0  0  0  0  0
   19.3439  -23.1573  -14.9435 C   0  0  0  0  0  0  0  0  0  0  0  0
   19.5655  -24.6348  -15.1196 C   0  0  0  0  0  0  0  0  0  0  0  0
   19.7152  -25.3122  -13.7911 C   0  0  0  0  0  0  0  0  0  0  0  0
   20.9407  -26.2135  -13.7175 C   0  0  0  0  0  0  0  0  0  0  0  0
   20.7232  -27.4358  -14.4723 N   0  0  0  0  0  0  0  0  0  0  0  0
   19.9240  -20.9481  -15.7669 C   0  0  0  0  0  0  0  0  0  0  0  0
   18.7402  -20.4992  -15.7998 O   0  0  0  0  0  0  0  0  0  0  0  0
   19.0094  -20.7014   -9.4550 O   0  0  0  0  0  0  0  0  0  0  0  0
   19.5631  -20.0791  -10.5722 C   0  0  0  0  0  0  0  0  0  0  0  0
   20.7063  -20.6129  -11.1392 C   0  0  0  0  0  0  0  0  0  0  0  0
   21.2805  -20.0193  -12.2484 C   0  0  0  0  0  0  0  0  0  0  0  0
   20.7220  -18.8895  -12.8024 C   0  0  0  0  0  0  0  0  0  0  0  0
   21.3134  -18.2371  -13.9735 C   0  0  0  0  0  0  0  0  0  0  0  0
   20.6597  -18.6397  -15.2736 C   0  0  2  0  0  0  0  0  0  0  0  0
   20.9917  -20.0494  -15.5545 N   0  0  0  0  0  0  0  0  0  0  0  0
   21.1724  -17.7741  -16.3584 C   0  0  0  0  0  0  0  0  0  0  0  0
   22.3499  -17.8926  -16.7298 O   0  0  0  0  0  0  0  0  0  0  0  0
   19.5840  -18.3546  -12.2415 C   0  0  0  0  0  0  0  0  0  0  0  0
   19.0076  -18.9434  -11.1350 C   0  0  0  0  0  0  0  0  0  0  0  0
   20.3398  -16.8056  -16.9859 N   0  0  0  0  0  0  0  0  0  0  0  0
   20.8290  -15.8770  -18.0041 C   0  0  1  0  0  0  0  0  0  0  0  0
   20.4488  -16.3060  -19.3741 C   0  0  0  0  0  0  0  0  0  0  0  0
   21.0358  -15.4020  -20.3831 C   0  0  0  0  0  0  0  0  0  0  0  0
   22.2045  -14.6436  -20.2726 C   0  0  0  0  0  0  0  0  0  0  0  0
   22.3540  -13.9575  -21.3998 N   0  0  0  0  0  0  0  0  0  0  0  0
   21.3232  -14.2646  -22.1983 C   0  0  0  0  0  0  0  0  0  0  0  0
   20.5019  -15.1404  -21.6116 N   0  0  0  0  0  0  0  0  0  0  0  0
   20.4777  -14.4912  -17.6880 C   0  0  0  0  0  0  0  0  0  0  0  0
   19.2846  -14.2818  -17.2735 O   0  0  0  0  0  0  0  0  0  0  0  0
   21.2983  -13.3930  -17.7892 O   0  0  0  0  0  0  0  0  0  0  0  0
  2  1  1  1
  2  3  1  0
  3  4  1  0
  4  5  1  0
  6  5  1  0
  7  6  1  0
  8  2  1  0
  9  8  2  0
 10 11  1  0
 11 21  2  0
 11 12  1  0
 12 13  2  0
 13 14  1  0
 14 15  1  0
 16 15  1  1
 16 17  1  0
 17  8  1  0
 18 16  1  0
 18 22  1  0
 19 18  2  0
 20 14  2  0
 21 20  1  0
 23 22  1  0
 23 30  1  0
 23 24  1  6
 24 25  1  0
 25 29  1  0
 25 26  2  0
 26 27  1  0
 28 27  1  0
 29 28  2  0
 30 32  1  0
 31 30  2  0
M  END
$$$$
