KYH.pdb
     RDKit          3D

 32 33  0  0  1  0  0  0  0  0999 V2000
   24.8053  -19.7109  -17.0365 N   0  0  0  0  0  0  0  0  0  0  0  0
   24.8369  -18.2933  -16.8644 C   0  0  1  0  0  0  0  0  0  0  0  0
   25.6682  -17.5685  -17.8997 C   0  0  0  0  0  0  0  0  0  0  0  0
   26.4223  -18.5774  -18.7220 C   0  0  0  0  0  0  0  0  0  0  0  0
   27.2085  -17.9009  -19.8040 C   0  0  0  0  0  0  0  0  0  0  0  0
   27.9762  -18.8799  -20.6825 C   0  0  0  0  0  0  0  0  0  0  0  0
   28.7217  -18.1710  -21.7084 N   0  0  0  0  0  0  0  0  0  0  0  0
   23.4565  -17.7288  -16.9106 C   0  0  0  0  0  0  0  0  0  0  0  0
   22.5907  -18.2123  -17.6984 O   0  0  0  0  0  0  0  0  0  0  0  0
   19.1888  -21.6873  -14.5450 O   0  0  0  0  0  0  0  0  0  0  0  0
   19.6094  -20.3641  -14.6634 C   0  0  0  0  0  0  0  0  0  0  0  0
   20.8038  -19.9853  -14.0774 C   0  0  0  0  0  0  0  0  0  0  0  0
   21.2493  -18.6799  -14.1766 C   0  0  0  0  0  0  0  0  0  0  0  0
   20.5100  -17.7406  -14.8595 C   0  0  0  0  0  0  0  0  0  0  0  0
   20.9558  -16.3497  -14.9745 C   0  0  0  0  0  0  0  0  0  0  0  0
   21.7445  -16.0786  -16.2332 C   0  0  2  0  0  0  0  0  0  0  0  0
   23.0965  -16.6480  -16.0772 N   0  0  0  0  0  0  0  0  0  0  0  0
   21.8329  -14.6164  -16.4403 C   0  0  0  0  0  0  0  0  0  0  0  0
   22.5750  -13.9399  -15.7123 O   0  0  0  0  0  0  0  0  0  0  0  0
   19.3206  -18.1130  -15.4445 C   0  0  0  0  0  0  0  0  0  0  0  0
   18.8720  -19.4141  -15.3483 C   0  0  0  0  0  0  0  0  0  0  0  0
   21.0816  -13.9686  -17.4606 N   0  0  0  0  0  0  0  0  0  0  0  0
   21.2300  -12.5486  -17.7767 C   0  0  1  0  0  0  0  0  0  0  0  0
   21.4551  -12.3243  -19.2274 C   0  0  0  0  0  0  0  0  0  0  0  0
   22.7910  -12.8099  -19.6269 C   0  0  0  0  0  0  0  0  0  0  0  0
   23.9230  -12.9544  -18.8202 C   0  0  0  0  0  0  0  0  0  0  0  0
   24.9140  -13.4005  -19.5835 N   0  0  0  0  0  0  0  0  0  0  0  0
   24.4352  -13.5357  -20.8273 C   0  0  0  0  0  0  0  0  0  0  0  0
   23.1472  -13.1852  -20.8898 N   0  0  0  0  0  0  0  0  0  0  0  0
   20.1442  -11.7495  -17.2054 C   0  0  0  0  0  0  0  0  0  0  0  0
   18.9880  -12.2978  -17.1646 O   0  0  0  0  0  0  0  0  0  0  0  0
   20.2401  -10.4718  -16.7072 O   0  0  0  0  0  0  0  0  0  0  0  0
  2  1  1  6
  2  3  1  0
  3  4  1  0
  4  5  1  0
  6  5  1  0
  7  6  1  0
  8  2  1  0
  9  8  2  0
 10 11  1  0
 11 21  2  0
 11 12  1  0
 12 13  2  0
 13 14  1  0
 14 15  1  0
 16 15  1  1
 16 17  1  0
 17  8  1  0
 18 16  1  0
 18 22  1  0
 19 18  2  0
 20 14  2  0
 21 20  1  0
 23 22  1  0
 23 30  1  0
 23 24  1  6
 24 25  1  0
 25 29  1  0
 25 26  2  0
 26 27  1  0
 28 27  1  0
 29 28  2  0
 30 32  1  0
 31 30  2  0
M  END
$$$$
