KYH.pdb
     RDKit          3D

 32 33  0  0  1  0  0  0  0  0999 V2000
   28.0815  -26.3378  -17.2652 N   0  0  0  0  0  0  0  0  0  0  0  0
   27.0921  -27.0512  -18.0084 C   0  0  1  0  0  0  0  0  0  0  0  0
   26.9549  -28.5038  -17.6093 C   0  0  0  0  0  0  0  0  0  0  0  0
   28.3252  -29.1027  -17.4462 C   0  0  0  0  0  0  0  0  0  0  0  0
   28.2323  -30.5634  -17.1234 C   0  0  0  0  0  0  0  0  0  0  0  0
   29.5947  -31.2286  -16.9786 C   0  0  0  0  0  0  0  0  0  0  0  0
   29.4461  -32.6190  -16.5843 N   0  0  0  0  0  0  0  0  0  0  0  0
   25.7551  -26.4072  -17.8541 C   0  0  0  0  0  0  0  0  0  0  0  0
   25.5931  -25.4498  -17.0410 O   0  0  0  0  0  0  0  0  0  0  0  0
   26.1445  -20.5993  -20.0625 O   0  0  0  0  0  0  0  0  0  0  0  0
   25.3831  -21.7624  -19.9669 C   0  0  0  0  0  0  0  0  0  0  0  0
   25.8308  -22.9103  -20.5957 C   0  0  0  0  0  0  0  0  0  0  0  0
   25.0985  -24.0810  -20.5201 C   0  0  0  0  0  0  0  0  0  0  0  0
   23.9148  -24.1191  -19.8182 C   0  0  0  0  0  0  0  0  0  0  0  0
   23.1165  -25.3444  -19.7273 C   0  0  0  0  0  0  0  0  0  0  0  0
   23.3753  -26.1321  -18.4655 C   0  0  2  0  0  0  0  0  0  0  0  0
   24.6522  -26.8562  -18.6121 N   0  0  0  0  0  0  0  0  0  0  0  0
   22.2694  -27.0939  -18.2632 C   0  0  0  0  0  0  0  0  0  0  0  0
   21.1083  -26.6739  -18.1450 O   0  0  0  0  0  0  0  0  0  0  0  0
   23.4653  -22.9792  -19.1906 C   0  0  0  0  0  0  0  0  0  0  0  0
   24.1924  -21.8089  -19.2632 C   0  0  0  0  0  0  0  0  0  0  0  0
   22.5114  -28.4948  -18.2011 N   0  0  0  0  0  0  0  0  0  0  0  0
   21.4422  -29.4798  -18.0438 C   0  0  1  0  0  0  0  0  0  0  0  0
   20.3698  -29.3002  -19.0554 C   0  0  0  0  0  0  0  0  0  0  0  0
   19.1705  -28.6982  -18.4397 C   0  0  0  0  0  0  0  0  0  0  0  0
   18.8500  -28.6332  -17.0809 C   0  0  0  0  0  0  0  0  0  0  0  0
   17.6734  -28.0278  -16.9676 N   0  0  0  0  0  0  0  0  0  0  0  0
   17.2585  -27.7185  -18.2031 C   0  0  0  0  0  0  0  0  0  0  0  0
   18.1447  -28.1117  -19.1228 N   0  0  0  0  0  0  0  0  0  0  0  0
   21.9690  -30.8434  -17.9606 C   0  0  0  0  0  0  0  0  0  0  0  0
   21.1173  -31.7760  -17.7509 O   0  0  0  0  0  0  0  0  0  0  0  0
   23.2838  -31.2243  -18.0865 O   0  0  0  0  0  0  0  0  0  0  0  0
  2  1  1  1
  2  3  1  0
  3  4  1  0
  4  5  1  0
  6  5  1  0
  7  6  1  0
  8  2  1  0
  9  8  2  0
 10 11  1  0
 11 21  2  0
 11 12  1  0
 12 13  2  0
 13 14  1  0
 14 15  1  0
 16 15  1  6
 16 17  1  0
 17  8  1  0
 18 16  1  0
 18 22  1  0
 19 18  2  0
 20 14  2  0
 21 20  1  0
 23 22  1  0
 23 30  1  0
 23 24  1  6
 24 25  1  0
 25 29  1  0
 25 26  2  0
 26 27  1  0
 28 27  1  0
 29 28  2  0
 30 32  1  0
 31 30  2  0
M  END
$$$$
