KYH.pdb
     RDKit          3D

 32 33  0  0  1  0  0  0  0  0999 V2000
   26.2647  -32.9939  -14.9331 N   0  0  0  0  0  0  0  0  0  0  0  0
   25.3220  -32.4585  -15.8631 C   0  0  1  0  0  0  0  0  0  0  0  0
   24.0187  -33.2240  -15.9240 C   0  0  0  0  0  0  0  0  0  0  0  0
   24.2986  -34.6438  -16.3345 C   0  0  0  0  0  0  0  0  0  0  0  0
   23.1812  -35.5495  -15.9129 C   0  0  0  0  0  0  0  0  0  0  0  0
   22.3020  -35.9907  -17.0756 C   0  0  0  0  0  0  0  0  0  0  0  0
   21.2621  -36.8955  -16.6164 N   0  0  0  0  0  0  0  0  0  0  0  0
   25.0030  -31.0400  -15.5282 C   0  0  0  0  0  0  0  0  0  0  0  0
   25.4108  -30.5285  -14.4437 O   0  0  0  0  0  0  0  0  0  0  0  0
   30.1793  -27.6969  -17.2911 O   0  0  0  0  0  0  0  0  0  0  0  0
   28.7882  -27.7760  -17.2771 C   0  0  0  0  0  0  0  0  0  0  0  0
   28.0791  -26.9635  -16.4109 C   0  0  0  0  0  0  0  0  0  0  0  0
   26.6978  -27.0177  -16.3726 C   0  0  0  0  0  0  0  0  0  0  0  0
   26.0107  -27.8811  -17.1958 C   0  0  0  0  0  0  0  0  0  0  0  0
   24.5480  -27.9630  -17.1711 C   0  0  0  0  0  0  0  0  0  0  0  0
   24.0185  -28.8347  -16.0578 C   0  0  2  0  0  0  0  0  0  0  0  0
   24.2421  -30.2484  -16.4153 N   0  0  0  0  0  0  0  0  0  0  0  0
   22.5707  -28.5782  -15.8928 C   0  0  0  0  0  0  0  0  0  0  0  0
   21.7515  -29.2964  -16.4856 O   0  0  0  0  0  0  0  0  0  0  0  0
   26.7121  -28.6917  -18.0598 C   0  0  0  0  0  0  0  0  0  0  0  0
   28.0902  -28.6411  -18.1016 C   0  0  0  0  0  0  0  0  0  0  0  0
   22.0978  -27.5213  -15.0656 N   0  0  0  0  0  0  0  0  0  0  0  0
   20.6775  -27.2900  -14.8059 C   0  0  1  0  0  0  0  0  0  0  0  0
   20.4588  -26.5585  -13.5321 C   0  0  0  0  0  0  0  0  0  0  0  0
   20.5757  -27.4749  -12.3803 C   0  0  0  0  0  0  0  0  0  0  0  0
   20.6386  -28.8709  -12.4032 C   0  0  0  0  0  0  0  0  0  0  0  0
   20.7180  -29.2965  -11.1477 N   0  0  0  0  0  0  0  0  0  0  0  0
   20.7061  -28.2170  -10.3546 C   0  0  0  0  0  0  0  0  0  0  0  0
   20.6204  -27.0922  -11.0710 N   0  0  0  0  0  0  0  0  0  0  0  0
   20.0039  -26.6979  -15.9633 C   0  0  0  0  0  0  0  0  0  0  0  0
   20.7407  -26.0535  -16.7886 O   0  0  0  0  0  0  0  0  0  0  0  0
   18.6622  -26.7648  -16.2549 O   0  0  0  0  0  0  0  0  0  0  0  0
  2  1  1  1
  2  3  1  0
  3  4  1  0
  4  5  1  0
  6  5  1  0
  7  6  1  0
  8  2  1  0
  9  8  2  0
 10 11  1  0
 11 21  2  0
 11 12  1  0
 12 13  2  0
 13 14  1  0
 14 15  1  0
 16 15  1  6
 16 17  1  0
 17  8  1  0
 18 16  1  0
 18 22  1  0
 19 18  2  0
 20 14  2  0
 21 20  1  0
 23 22  1  0
 23 30  1  0
 23 24  1  1
 24 25  1  0
 25 29  1  0
 25 26  2  0
 26 27  1  0
 28 27  1  0
 29 28  2  0
 30 32  1  0
 31 30  2  0
M  END
$$$$
