KYH.pdb
     RDKit          3D

 32 33  0  0  1  0  0  0  0  0999 V2000
   29.4177  -23.3240  -17.6714 N   0  0  0  0  0  0  0  0  0  0  0  0
   28.7402  -22.0753  -17.5231 C   0  0  1  0  0  0  0  0  0  0  0  0
   27.9555  -21.6547  -18.7461 C   0  0  0  0  0  0  0  0  0  0  0  0
   28.9029  -21.4621  -19.8985 C   0  0  0  0  0  0  0  0  0  0  0  0
   29.8387  -20.3218  -19.6328 C   0  0  0  0  0  0  0  0  0  0  0  0
   30.7662  -20.0278  -20.8046 C   0  0  0  0  0  0  0  0  0  0  0  0
   31.5877  -18.8621  -20.5272 N   0  0  0  0  0  0  0  0  0  0  0  0
   27.7953  -22.1254  -16.3695 C   0  0  0  0  0  0  0  0  0  0  0  0
   26.9924  -23.0961  -16.2384 O   0  0  0  0  0  0  0  0  0  0  0  0
   23.7205  -20.3074   -8.7876 O   0  0  0  0  0  0  0  0  0  0  0  0
   24.6192  -20.3422   -9.8520 C   0  0  0  0  0  0  0  0  0  0  0  0
   24.4570  -19.4492  -10.8959 C   0  0  0  0  0  0  0  0  0  0  0  0
   25.3318  -19.4578  -11.9670 C   0  0  0  0  0  0  0  0  0  0  0  0
   26.3749  -20.3552  -12.0083 C   0  0  0  0  0  0  0  0  0  0  0  0
   27.3123  -20.3899  -13.1338 C   0  0  0  0  0  0  0  0  0  0  0  0
   26.7995  -21.1819  -14.3125 C   0  0  2  0  0  0  0  0  0  0  0  0
   27.7831  -21.0918  -15.4083 N   0  0  0  0  0  0  0  0  0  0  0  0
   25.5047  -20.6135  -14.7477 C   0  0  0  0  0  0  0  0  0  0  0  0
   25.4819  -19.5133  -15.3200 O   0  0  0  0  0  0  0  0  0  0  0  0
   26.5405  -21.2459  -10.9715 C   0  0  0  0  0  0  0  0  0  0  0  0
   25.6705  -21.2410   -9.9008 C   0  0  0  0  0  0  0  0  0  0  0  0
   24.2817  -21.3052  -14.5224 N   0  0  0  0  0  0  0  0  0  0  0  0
   22.9769  -20.7486  -14.8771 C   0  0  1  0  0  0  0  0  0  0  0  0
   22.2905  -21.5619  -15.9130 C   0  0  0  0  0  0  0  0  0  0  0  0
   20.9946  -20.9545  -16.2758 C   0  0  0  0  0  0  0  0  0  0  0  0
   20.4038  -19.8127  -15.7275 C   0  0  0  0  0  0  0  0  0  0  0  0
   19.2328  -19.6311  -16.3270 N   0  0  0  0  0  0  0  0  0  0  0  0
   19.0810  -20.6163  -17.2219 C   0  0  0  0  0  0  0  0  0  0  0  0
   20.1337  -21.4393  -17.2174 N   0  0  0  0  0  0  0  0  0  0  0  0
   22.1637  -20.4740  -13.6909 C   0  0  0  0  0  0  0  0  0  0  0  0
   22.2974  -21.2790  -12.7043 O   0  0  0  0  0  0  0  0  0  0  0  0
   21.2732  -19.4395  -13.5279 O   0  0  0  0  0  0  0  0  0  0  0  0
  2  1  1  6
  2  3  1  0
  3  4  1  0
  4  5  1  0
  6  5  1  0
  7  6  1  0
  8  2  1  0
  9  8  2  0
 10 11  1  0
 11 21  2  0
 11 12  1  0
 12 13  2  0
 13 14  1  0
 14 15  1  0
 16 15  1  1
 16 17  1  0
 17  8  1  0
 18 16  1  0
 18 22  1  0
 19 18  2  0
 20 14  2  0
 21 20  1  0
 23 22  1  0
 23 30  1  0
 23 24  1  6
 24 25  1  0
 25 29  1  0
 25 26  2  0
 26 27  1  0
 28 27  1  0
 29 28  2  0
 30 32  1  0
 31 30  2  0
M  END
$$$$
