KYH.pdb
     RDKit          3D

 32 33  0  0  1  0  0  0  0  0999 V2000
   22.4245  -13.7940  -17.6609 N   0  0  0  0  0  0  0  0  0  0  0  0
   21.5778  -12.7571  -18.1591 C   0  0  1  0  0  0  0  0  0  0  0  0
   20.1686  -13.2119  -18.4679 C   0  0  0  0  0  0  0  0  0  0  0  0
   20.2109  -14.2408  -19.5645 C   0  0  0  0  0  0  0  0  0  0  0  0
   18.8267  -14.5843  -20.0252 C   0  0  0  0  0  0  0  0  0  0  0  0
   18.8137  -15.5626  -21.1924 C   0  0  0  0  0  0  0  0  0  0  0  0
   17.4497  -15.8869  -21.5734 N   0  0  0  0  0  0  0  0  0  0  0  0
   21.4909  -11.6352  -17.1792 C   0  0  0  0  0  0  0  0  0  0  0  0
   21.3230  -11.8707  -15.9462 O   0  0  0  0  0  0  0  0  0  0  0  0
   22.2616   -3.6501  -13.5896 O   0  0  0  0  0  0  0  0  0  0  0  0
   22.3377   -4.7756  -14.4077 C   0  0  0  0  0  0  0  0  0  0  0  0
   22.0763   -4.6409  -15.7594 C   0  0  0  0  0  0  0  0  0  0  0  0
   22.1434   -5.7382  -16.5982 C   0  0  0  0  0  0  0  0  0  0  0  0
   22.4710   -6.9787  -16.0991 C   0  0  0  0  0  0  0  0  0  0  0  0
   22.5431   -8.1588  -16.9645 C   0  0  0  0  0  0  0  0  0  0  0  0
   21.5534   -9.2352  -16.5884 C   0  0  2  0  0  0  0  0  0  0  0  0
   21.5946  -10.2959  -17.6129 N   0  0  0  0  0  0  0  0  0  0  0  0
   20.1987   -8.6436  -16.5279 C   0  0  0  0  0  0  0  0  0  0  0  0
   19.5953   -8.3894  -17.5814 O   0  0  0  0  0  0  0  0  0  0  0  0
   22.7322   -7.1177  -14.7545 C   0  0  0  0  0  0  0  0  0  0  0  0
   22.6665   -6.0258  -13.9136 C   0  0  0  0  0  0  0  0  0  0  0  0
   19.5722   -8.3594  -15.2822 N   0  0  0  0  0  0  0  0  0  0  0  0
   18.2082   -7.8427  -15.1782 C   0  0  1  0  0  0  0  0  0  0  0  0
   17.3741   -8.6608  -14.2613 C   0  0  0  0  0  0  0  0  0  0  0  0
   16.9369   -9.9041  -14.9270 C   0  0  0  0  0  0  0  0  0  0  0  0
   17.2002  -10.3079  -16.2388 C   0  0  0  0  0  0  0  0  0  0  0  0
   16.6031  -11.4781  -16.4333 N   0  0  0  0  0  0  0  0  0  0  0  0
   15.9834  -11.8089  -15.2927 C   0  0  0  0  0  0  0  0  0  0  0  0
   16.1656  -10.8741  -14.3553 N   0  0  0  0  0  0  0  0  0  0  0  0
   18.1925   -6.4078  -14.8873 C   0  0  0  0  0  0  0  0  0  0  0  0
   17.0453   -5.8401  -14.8604 O   0  0  0  0  0  0  0  0  0  0  0  0
   19.2832   -5.6089  -14.6386 O   0  0  0  0  0  0  0  0  0  0  0  0
  2  1  1  1
  2  3  1  0
  3  4  1  0
  4  5  1  0
  6  5  1  0
  7  6  1  0
  8  2  1  0
  9  8  2  0
 10 11  1  0
 11 21  2  0
 11 12  1  0
 12 13  2  0
 13 14  1  0
 14 15  1  0
 16 15  1  6
 16 17  1  0
 17  8  1  0
 18 16  1  0
 18 22  1  0
 19 18  2  0
 20 14  2  0
 21 20  1  0
 23 22  1  0
 23 30  1  0
 23 24  1  1
 24 25  1  0
 25 29  1  0
 25 26  2  0
 26 27  1  0
 28 27  1  0
 29 28  2  0
 30 32  1  0
 31 30  2  0
M  END
$$$$
