QCH.pdb
     RDKit          3D

 26 26  0  0  1  0  0  0  0  0999 V2000
    7.4210  -13.2302   16.3262 N   0  0  0  0  0  0  0  0  0  0  0  0
    7.7558  -13.6790   15.0267 C   0  0  0  0  0  0  0  0  0  0  0  0
    7.0463  -13.3779   14.0656 O   0  0  0  0  0  0  0  0  0  0  0  0
    8.9941  -14.5220   14.8889 C   0  0  0  0  0  0  0  0  0  0  0  0
    9.6354  -14.7716   16.2095 C   0  0  0  0  0  0  0  0  0  0  0  0
   10.8741  -15.5903   16.0484 C   0  0  2  0  0  0  0  0  0  0  0  0
   10.5381  -16.8826   15.4092 N   0  0  0  0  0  0  0  0  0  0  0  0
   11.6019  -15.8875   17.2902 C   0  0  0  0  0  0  0  0  0  0  0  0
   11.4806  -16.9787   17.8943 O   0  0  0  0  0  0  0  0  0  0  0  0
   12.5006  -14.9370   17.8867 N   0  0  0  0  0  0  0  0  0  0  0  0
   13.1861  -15.2752   19.1154 C   0  0  1  0  0  0  0  0  0  0  0  0
   14.4892  -14.4840   19.1888 C   0  0  0  0  0  0  0  0  0  0  0  0
   15.5757  -15.1686   17.8835 S   0  0  0  0  0  0  0  0  0  0  0  0
   12.3662  -14.8974   20.3111 C   0  0  0  0  0  0  0  0  0  0  0  0
   12.3704  -13.7149   20.6882 O   0  0  0  0  0  0  0  0  0  0  0  0
   11.5904  -15.8611   21.0148 N   0  0  0  0  0  0  0  0  0  0  0  0
   10.8732  -15.5351   22.2273 C   0  0  1  0  0  0  0  0  0  0  0  0
    9.4223  -15.8216   21.9945 C   0  0  0  0  0  0  0  0  0  0  0  0
    8.8012  -14.9869   20.9413 C   0  0  0  0  0  0  0  0  0  0  0  0
    9.4600  -13.9744   20.2772 C   0  0  0  0  0  0  0  0  0  0  0  0
    8.5783  -13.4538   19.4080 N   0  0  0  0  0  0  0  0  0  0  0  0
    7.4026  -14.0973   19.5027 C   0  0  0  0  0  0  0  0  0  0  0  0
    7.5490  -15.0400   20.4496 N   0  0  0  0  0  0  0  0  0  0  0  0
   11.4324  -16.2358   23.4078 C   0  0  0  0  0  0  0  0  0  0  0  0
   10.9666  -16.0618   24.5621 O   0  0  0  0  0  0  0  0  0  0  0  0
   12.5042  -17.1281   23.3177 O   0  0  0  0  0  0  0  0  0  0  0  0
  1  2  1  0
  2  3  2  0
  4  2  1  0
  4  5  1  0
  6  5  1  0
  6  7  1  1
  8  9  2  0
  8  6  1  0
 10  8  1  0
 11 10  1  0
 11 12  1  1
 13 12  1  0
 14 11  1  0
 15 14  2  0
 16 14  1  0
 17 16  1  0
 17 18  1  6
 18 19  1  0
 19 23  1  0
 20 19  2  0
 20 21  1  0
 21 22  1  0
 23 22  2  0
 24 17  1  0
 25 24  2  0
 26 24  1  0
M  END
$$$$
