QCH.pdb
     RDKit          3D

 26 26  0  0  1  0  0  0  0  0999 V2000
    8.3456  -13.0812   16.6543 N   0  0  0  0  0  0  0  0  0  0  0  0
    8.2347  -14.4831   16.4966 C   0  0  0  0  0  0  0  0  0  0  0  0
    7.9547  -14.9622   15.3967 O   0  0  0  0  0  0  0  0  0  0  0  0
    8.4716  -15.3322   17.7154 C   0  0  0  0  0  0  0  0  0  0  0  0
    8.7588  -14.4985   18.9154 C   0  0  0  0  0  0  0  0  0  0  0  0
    8.9760  -15.3593   20.1164 C   0  0  2  0  0  0  0  0  0  0  0  0
    7.9239  -16.3987   20.1819 N   0  0  0  0  0  0  0  0  0  0  0  0
    8.9825  -14.6552   21.4066 C   0  0  0  0  0  0  0  0  0  0  0  0
    9.7978  -13.7402   21.6675 O   0  0  0  0  0  0  0  0  0  0  0  0
    8.0474  -14.9782   22.4497 N   0  0  0  0  0  0  0  0  0  0  0  0
    8.0994  -14.2589   23.7042 C   0  0  1  0  0  0  0  0  0  0  0  0
    6.6831  -14.1253   24.2571 C   0  0  0  0  0  0  0  0  0  0  0  0
    6.3597  -15.6573   25.2065 S   0  0  0  0  0  0  0  0  0  0  0  0
    8.9071  -15.0067   24.7206 C   0  0  0  0  0  0  0  0  0  0  0  0
    9.0001  -16.2402   24.6190 O   0  0  0  0  0  0  0  0  0  0  0  0
    9.5630  -14.3341   25.7898 N   0  0  0  0  0  0  0  0  0  0  0  0
   10.2703  -15.0478   26.8296 C   0  0  1  0  0  0  0  0  0  0  0  0
   10.2046  -14.2248   28.0786 C   0  0  0  0  0  0  0  0  0  0  0  0
   10.7104  -14.9153   29.2864 C   0  0  0  0  0  0  0  0  0  0  0  0
   10.0920  -16.0040   29.8630 C   0  0  0  0  0  0  0  0  0  0  0  0
   10.8374  -16.3448   30.9270 N   0  0  0  0  0  0  0  0  0  0  0  0
   11.8901  -15.5171   31.0368 C   0  0  0  0  0  0  0  0  0  0  0  0
   11.8038  -14.6397   30.0220 N   0  0  0  0  0  0  0  0  0  0  0  0
    9.7570  -16.4275   27.0029 C   0  0  0  0  0  0  0  0  0  0  0  0
    8.5273  -16.6682   27.1007 O   0  0  0  0  0  0  0  0  0  0  0  0
   10.5972  -17.5424   27.0685 O   0  0  0  0  0  0  0  0  0  0  0  0
  1  2  1  0
  2  3  2  0
  4  2  1  0
  4  5  1  0
  6  5  1  0
  6  7  1  1
  8  9  2  0
  8  6  1  0
 10  8  1  0
 11 10  1  0
 11 12  1  1
 13 12  1  0
 14 11  1  0
 15 14  2  0
 16 14  1  0
 17 16  1  0
 17 18  1  1
 18 19  1  0
 19 23  1  0
 20 19  2  0
 20 21  1  0
 21 22  1  0
 23 22  2  0
 24 17  1  0
 25 24  2  0
 26 24  1  0
M  END
$$$$
