QCH.pdb
     RDKit          3D

 26 26  0  0  1  0  0  0  0  0999 V2000
    9.6725  -17.7015   16.2309 N   0  0  0  0  0  0  0  0  0  0  0  0
    8.5541  -16.8389   16.3179 C   0  0  0  0  0  0  0  0  0  0  0  0
    7.8226  -16.6730   15.3406 O   0  0  0  0  0  0  0  0  0  0  0  0
    8.3156  -16.1543   17.6359 C   0  0  0  0  0  0  0  0  0  0  0  0
    9.2896  -16.6027   18.6693 C   0  0  0  0  0  0  0  0  0  0  0  0
    8.6028  -16.8401   19.9742 C   0  0  2  0  0  0  0  0  0  0  0  0
    7.2442  -16.2533   19.9366 N   0  0  0  0  0  0  0  0  0  0  0  0
    9.2862  -16.2971   21.1566 C   0  0  0  0  0  0  0  0  0  0  0  0
   10.5318  -16.3354   21.2884 O   0  0  0  0  0  0  0  0  0  0  0  0
    8.5598  -15.6868   22.2368 N   0  0  0  0  0  0  0  0  0  0  0  0
    9.2519  -15.3461   23.4611 C   0  0  1  0  0  0  0  0  0  0  0  0
    8.3557  -14.4393   24.3001 C   0  0  0  0  0  0  0  0  0  0  0  0
    6.7844  -15.3499   24.5336 S   0  0  0  0  0  0  0  0  0  0  0  0
    9.5379  -16.5700   24.2766 C   0  0  0  0  0  0  0  0  0  0  0  0
    8.7454  -17.5236   24.2198 O   0  0  0  0  0  0  0  0  0  0  0  0
   10.6906  -16.6573   25.1068 N   0  0  0  0  0  0  0  0  0  0  0  0
   10.9445  -17.8015   25.9536 C   0  0  1  0  0  0  0  0  0  0  0  0
   12.3134  -18.3161   25.6331 C   0  0  0  0  0  0  0  0  0  0  0  0
   12.4197  -18.9723   24.3104 C   0  0  0  0  0  0  0  0  0  0  0  0
   11.3642  -19.1069   23.4340 C   0  0  0  0  0  0  0  0  0  0  0  0
   11.8449  -19.7484   22.3563 N   0  0  0  0  0  0  0  0  0  0  0  0
   13.1505  -20.0179   22.5242 C   0  0  0  0  0  0  0  0  0  0  0  0
   13.4961  -19.5362   23.7307 N   0  0  0  0  0  0  0  0  0  0  0  0
   10.7535  -17.4827   27.3885 C   0  0  0  0  0  0  0  0  0  0  0  0
   10.5653  -16.3049   27.7849 O   0  0  0  0  0  0  0  0  0  0  0  0
   10.7697  -18.4602   28.3872 O   0  0  0  0  0  0  0  0  0  0  0  0
  1  2  1  0
  2  3  2  0
  4  2  1  0
  4  5  1  0
  6  5  1  0
  6  7  1  6
  8  9  2  0
  8  6  1  0
 10  8  1  0
 11 10  1  0
 11 12  1  1
 13 12  1  0
 14 11  1  0
 15 14  2  0
 16 14  1  0
 17 16  1  0
 17 18  1  1
 18 19  1  0
 19 23  1  0
 20 19  2  0
 20 21  1  0
 21 22  1  0
 23 22  2  0
 24 17  1  0
 25 24  2  0
 26 24  1  0
M  END
$$$$
