QCH.pdb
     RDKit          3D

 26 26  0  0  1  0  0  0  0  0999 V2000
    8.6974  -16.1955   14.0226 N   0  0  0  0  0  0  0  0  0  0  0  0
    9.5649  -15.6016   14.9697 C   0  0  0  0  0  0  0  0  0  0  0  0
   10.7376  -15.9701   15.0517 O   0  0  0  0  0  0  0  0  0  0  0  0
    8.9896  -14.5236   15.8470 C   0  0  0  0  0  0  0  0  0  0  0  0
    8.1663  -15.0960   16.9480 C   0  0  0  0  0  0  0  0  0  0  0  0
    7.6846  -14.0178   17.8623 C   0  0  2  0  0  0  0  0  0  0  0  0
    7.7428  -12.7119   17.1674 N   0  0  0  0  0  0  0  0  0  0  0  0
    8.4257  -13.8803   19.1241 C   0  0  0  0  0  0  0  0  0  0  0  0
    9.4769  -13.2043   19.2146 O   0  0  0  0  0  0  0  0  0  0  0  0
    7.9840  -14.5179   20.3345 N   0  0  0  0  0  0  0  0  0  0  0  0
    8.8451  -14.5184   21.4975 C   0  0  1  0  0  0  0  0  0  0  0  0
    7.9896  -14.3263   22.7467 C   0  0  0  0  0  0  0  0  0  0  0  0
    6.7194  -15.6445   22.7024 S   0  0  0  0  0  0  0  0  0  0  0  0
    9.5565  -15.8292   21.6403 C   0  0  0  0  0  0  0  0  0  0  0  0
    9.6004  -16.5940   20.6637 O   0  0  0  0  0  0  0  0  0  0  0  0
   10.1764  -16.2090   22.8639 N   0  0  0  0  0  0  0  0  0  0  0  0
   11.5805  -16.5448   22.9437 C   0  0  1  0  0  0  0  0  0  0  0  0
   12.3576  -15.4209   22.3316 C   0  0  0  0  0  0  0  0  0  0  0  0
   13.8212  -15.6412   22.3031 C   0  0  0  0  0  0  0  0  0  0  0  0
   14.4289  -16.8098   22.7095 C   0  0  0  0  0  0  0  0  0  0  0  0
   15.7490  -16.6306   22.5388 N   0  0  0  0  0  0  0  0  0  0  0  0
   15.9879  -15.4040   22.0450 C   0  0  0  0  0  0  0  0  0  0  0  0
   14.7946  -14.8016   21.9029 N   0  0  0  0  0  0  0  0  0  0  0  0
   11.9963  -16.8650   24.3300 C   0  0  0  0  0  0  0  0  0  0  0  0
   12.7673  -17.8245   24.5842 O   0  0  0  0  0  0  0  0  0  0  0  0
   11.5634  -16.1292   25.4365 O   0  0  0  0  0  0  0  0  0  0  0  0
  1  2  1  0
  2  3  2  0
  4  2  1  0
  4  5  1  0
  6  5  1  0
  6  7  1  6
  8  9  2  0
  8  6  1  0
 10  8  1  0
 11 10  1  0
 11 12  1  1
 13 12  1  0
 14 11  1  0
 15 14  2  0
 16 14  1  0
 17 16  1  0
 17 18  1  1
 18 19  1  0
 19 23  1  0
 20 19  2  0
 20 21  1  0
 21 22  1  0
 23 22  2  0
 24 17  1  0
 25 24  2  0
 26 24  1  0
M  END
$$$$
