QCH.pdb
     RDKit          3D

 26 26  0  0  1  0  0  0  0  0999 V2000
    6.6763  -18.8147   13.2497 N   0  0  0  0  0  0  0  0  0  0  0  0
    8.0374  -18.8505   12.8644 C   0  0  0  0  0  0  0  0  0  0  0  0
    8.3486  -19.1859   11.7205 O   0  0  0  0  0  0  0  0  0  0  0  0
    9.0555  -18.4661   13.9029 C   0  0  0  0  0  0  0  0  0  0  0  0
    8.4119  -18.1405   15.2057 C   0  0  0  0  0  0  0  0  0  0  0  0
    9.4257  -17.6531   16.1881 C   0  0  2  0  0  0  0  0  0  0  0  0
   10.7275  -18.3082   15.9278 N   0  0  0  0  0  0  0  0  0  0  0  0
    9.0940  -17.8756   17.6025 C   0  0  0  0  0  0  0  0  0  0  0  0
    8.0431  -17.4337   18.1228 O   0  0  0  0  0  0  0  0  0  0  0  0
    9.9620  -18.6178   18.4758 N   0  0  0  0  0  0  0  0  0  0  0  0
    9.6033  -18.7841   19.8678 C   0  0  1  0  0  0  0  0  0  0  0  0
   10.2606  -20.0547   20.3996 C   0  0  0  0  0  0  0  0  0  0  0  0
    9.6635  -20.2565   22.1188 S   0  0  0  0  0  0  0  0  0  0  0  0
   10.1078  -17.6407   20.6941 C   0  0  0  0  0  0  0  0  0  0  0  0
   11.2961  -17.3007   20.5805 O   0  0  0  0  0  0  0  0  0  0  0  0
    9.2567  -16.9445   21.5979 N   0  0  0  0  0  0  0  0  0  0  0  0
    9.7463  -15.8928   22.4610 C   0  0  1  0  0  0  0  0  0  0  0  0
    8.7066  -14.8166   22.5096 C   0  0  0  0  0  0  0  0  0  0  0  0
    8.5214  -14.0948   21.2306 C   0  0  0  0  0  0  0  0  0  0  0  0
    9.2980  -14.3058   20.1114 C   0  0  0  0  0  0  0  0  0  0  0  0
    8.8330  -13.4747   19.1643 N   0  0  0  0  0  0  0  0  0  0  0  0
    7.8033  -12.7577   19.6449 C   0  0  0  0  0  0  0  0  0  0  0  0
    7.6183  -13.1463   20.9184 N   0  0  0  0  0  0  0  0  0  0  0  0
   10.1295  -16.4058   23.7978 C   0  0  0  0  0  0  0  0  0  0  0  0
    9.8080  -17.5589   24.1806 O   0  0  0  0  0  0  0  0  0  0  0  0
   10.8664  -15.6496   24.7133 O   0  0  0  0  0  0  0  0  0  0  0  0
  1  2  1  0
  2  3  2  0
  4  2  1  0
  4  5  1  0
  6  5  1  0
  6  7  1  6
  8  9  2  0
  8  6  1  0
 10  8  1  0
 11 10  1  0
 11 12  1  1
 13 12  1  0
 14 11  1  0
 15 14  2  0
 16 14  1  0
 17 16  1  0
 17 18  1  1
 18 19  1  0
 19 23  1  0
 20 19  2  0
 20 21  1  0
 21 22  1  0
 23 22  2  0
 24 17  1  0
 25 24  2  0
 26 24  1  0
M  END
$$$$
