QCH.pdb
     RDKit          3D

 26 26  0  0  1  0  0  0  0  0999 V2000
   11.0362  -17.7215   15.9845 N   0  0  0  0  0  0  0  0  0  0  0  0
    9.6503  -17.4705   16.1213 C   0  0  0  0  0  0  0  0  0  0  0  0
    8.9696  -17.1987   15.1311 O   0  0  0  0  0  0  0  0  0  0  0  0
    9.0710  -17.5521   17.5071 C   0  0  0  0  0  0  0  0  0  0  0  0
   10.0679  -18.0650   18.4873 C   0  0  0  0  0  0  0  0  0  0  0  0
    9.4972  -18.0692   19.8674 C   0  0  2  0  0  0  0  0  0  0  0  0
    8.0301  -18.2558   19.7998 N   0  0  0  0  0  0  0  0  0  0  0  0
    9.7525  -16.8588   20.6613 C   0  0  0  0  0  0  0  0  0  0  0  0
   10.9092  -16.4225   20.8662 O   0  0  0  0  0  0  0  0  0  0  0  0
    8.6828  -16.1014   21.2518 N   0  0  0  0  0  0  0  0  0  0  0  0
    8.9902  -15.0285   22.1728 C   0  0  1  0  0  0  0  0  0  0  0  0
    8.1059  -13.8281   21.8469 C   0  0  0  0  0  0  0  0  0  0  0  0
    6.3989  -14.3153   22.2959 S   0  0  0  0  0  0  0  0  0  0  0  0
    8.6951  -15.4304   23.5856 C   0  0  0  0  0  0  0  0  0  0  0  0
    7.7225  -16.1698   23.8051 O   0  0  0  0  0  0  0  0  0  0  0  0
    9.5022  -14.9838   24.6695 N   0  0  0  0  0  0  0  0  0  0  0  0
    9.2215  -15.3493   26.0400 C   0  0  1  0  0  0  0  0  0  0  0  0
    7.7388  -15.2869   26.2380 C   0  0  0  0  0  0  0  0  0  0  0  0
    7.1908  -13.9124   26.2828 C   0  0  0  0  0  0  0  0  0  0  0  0
    7.9549  -12.7765   26.1213 C   0  0  0  0  0  0  0  0  0  0  0  0
    7.1136  -11.7348   26.2264 N   0  0  0  0  0  0  0  0  0  0  0  0
    5.8624  -12.1727   26.4456 C   0  0  0  0  0  0  0  0  0  0  0  0
    5.9194  -13.5154   26.4789 N   0  0  0  0  0  0  0  0  0  0  0  0
    9.8108  -16.6621   26.3957 C   0  0  0  0  0  0  0  0  0  0  0  0
    9.8123  -17.0877   27.5783 O   0  0  0  0  0  0  0  0  0  0  0  0
   10.3986  -17.5064   25.4497 O   0  0  0  0  0  0  0  0  0  0  0  0
  1  2  1  0
  2  3  2  0
  4  2  1  0
  4  5  1  0
  6  5  1  0
  6  7  1  6
  8  9  2  0
  8  6  1  0
 10  8  1  0
 11 10  1  0
 11 12  1  6
 13 12  1  0
 14 11  1  0
 15 14  2  0
 16 14  1  0
 17 16  1  0
 17 18  1  6
 18 19  1  0
 19 23  1  0
 20 19  2  0
 20 21  1  0
 21 22  1  0
 23 22  2  0
 24 17  1  0
 25 24  2  0
 26 24  1  0
M  END
$$$$
