QCH.pdb
     RDKit          3D

 26 26  0  0  1  0  0  0  0  0999 V2000
    7.9919  -18.6465   20.4830 N   0  0  0  0  0  0  0  0  0  0  0  0
    7.1197  -17.9528   19.6110 C   0  0  0  0  0  0  0  0  0  0  0  0
    6.5850  -18.5433   18.6712 O   0  0  0  0  0  0  0  0  0  0  0  0
    6.8886  -16.4927   19.8891 C   0  0  0  0  0  0  0  0  0  0  0  0
    7.6459  -16.0378   21.0879 C   0  0  0  0  0  0  0  0  0  0  0  0
    7.4810  -14.5672   21.2897 C   0  0  2  0  0  0  0  0  0  0  0  0
    8.0192  -13.8396   20.1181 N   0  0  0  0  0  0  0  0  0  0  0  0
    8.1297  -14.0164   22.4880 C   0  0  0  0  0  0  0  0  0  0  0  0
    9.3437  -13.7067   22.5115 O   0  0  0  0  0  0  0  0  0  0  0  0
    7.4036  -13.8001   23.7099 N   0  0  0  0  0  0  0  0  0  0  0  0
    8.0852  -13.9326   24.9794 C   0  0  1  0  0  0  0  0  0  0  0  0
    7.5805  -12.8483   25.9275 C   0  0  0  0  0  0  0  0  0  0  0  0
    5.7587  -13.0248   25.9804 S   0  0  0  0  0  0  0  0  0  0  0  0
    7.7871  -15.2561   25.6151 C   0  0  0  0  0  0  0  0  0  0  0  0
    6.7507  -15.8555   25.2878 O   0  0  0  0  0  0  0  0  0  0  0  0
    8.6627  -15.8321   26.5781 N   0  0  0  0  0  0  0  0  0  0  0  0
    9.3238  -17.0989   26.3568 C   0  0  1  0  0  0  0  0  0  0  0  0
   10.0888  -17.0004   25.0736 C   0  0  0  0  0  0  0  0  0  0  0  0
   10.8169  -18.2357   24.7059 C   0  0  0  0  0  0  0  0  0  0  0  0
   10.2237  -19.4765   24.6124 C   0  0  0  0  0  0  0  0  0  0  0  0
   11.1943  -20.3360   24.2615 N   0  0  0  0  0  0  0  0  0  0  0  0
   12.3626  -19.6850   24.1332 C   0  0  0  0  0  0  0  0  0  0  0  0
   12.1207  -18.3917   24.4087 N   0  0  0  0  0  0  0  0  0  0  0  0
   10.1594  -17.4979   27.5143 C   0  0  0  0  0  0  0  0  0  0  0  0
   10.7950  -16.6528   28.1936 O   0  0  0  0  0  0  0  0  0  0  0  0
   10.2954  -18.8271   27.9241 O   0  0  0  0  0  0  0  0  0  0  0  0
  1  2  1  0
  2  3  2  0
  4  2  1  0
  4  5  1  0
  6  5  1  0
  6  7  1  6
  8  9  2  0
  8  6  1  0
 10  8  1  0
 11 10  1  0
 11 12  1  1
 13 12  1  0
 14 11  1  0
 15 14  2  0
 16 14  1  0
 17 16  1  0
 17 18  1  6
 18 19  1  0
 19 23  1  0
 20 19  2  0
 20 21  1  0
 21 22  1  0
 23 22  2  0
 24 17  1  0
 25 24  2  0
 26 24  1  0
M  END
$$$$
