QCH.pdb
     RDKit          3D

 26 26  0  0  1  0  0  0  0  0999 V2000
   10.6658  -20.3928   16.4626 N   0  0  0  0  0  0  0  0  0  0  0  0
   10.2222  -19.2185   15.8093 C   0  0  0  0  0  0  0  0  0  0  0  0
   10.0586  -19.2135   14.5882 O   0  0  0  0  0  0  0  0  0  0  0  0
    9.9686  -18.0092   16.6673 C   0  0  0  0  0  0  0  0  0  0  0  0
   10.2287  -18.2948   18.1055 C   0  0  0  0  0  0  0  0  0  0  0  0
    9.1972  -17.6443   18.9677 C   0  0  2  0  0  0  0  0  0  0  0  0
    8.2925  -16.8244   18.1305 N   0  0  0  0  0  0  0  0  0  0  0  0
    9.7190  -16.7776   20.0339 C   0  0  0  0  0  0  0  0  0  0  0  0
   10.9155  -16.8160   20.4044 O   0  0  0  0  0  0  0  0  0  0  0  0
    8.8811  -15.8300   20.7171 N   0  0  0  0  0  0  0  0  0  0  0  0
    9.3140  -15.2738   21.9808 C   0  0  1  0  0  0  0  0  0  0  0  0
    8.3144  -14.2076   22.4205 C   0  0  0  0  0  0  0  0  0  0  0  0
    6.6811  -15.0334   22.4797 S   0  0  0  0  0  0  0  0  0  0  0  0
    9.3458  -16.3240   23.0488 C   0  0  0  0  0  0  0  0  0  0  0  0
    8.9965  -17.4796   22.7601 O   0  0  0  0  0  0  0  0  0  0  0  0
    9.7652  -16.0229   24.3751 N   0  0  0  0  0  0  0  0  0  0  0  0
   10.4598  -16.9860   25.2002 C   0  0  1  0  0  0  0  0  0  0  0  0
   11.7370  -17.3482   24.5080 C   0  0  0  0  0  0  0  0  0  0  0  0
   11.6304  -18.5252   23.6166 C   0  0  0  0  0  0  0  0  0  0  0  0
   10.4466  -19.1773   23.3455 C   0  0  0  0  0  0  0  0  0  0  0  0
   10.7499  -20.1826   22.5081 N   0  0  0  0  0  0  0  0  0  0  0  0
   12.0680  -20.1839   22.2473 C   0  0  0  0  0  0  0  0  0  0  0  0
   12.6024  -19.1595   22.9343 N   0  0  0  0  0  0  0  0  0  0  0  0
   10.6565  -16.4915   26.5837 C   0  0  0  0  0  0  0  0  0  0  0  0
   11.1562  -17.2168   27.4803 O   0  0  0  0  0  0  0  0  0  0  0  0
   10.3032  -15.1988   26.9802 O   0  0  0  0  0  0  0  0  0  0  0  0
  1  2  1  0
  2  3  2  0
  4  2  1  0
  4  5  1  0
  6  5  1  0
  6  7  1  6
  8  9  2  0
  8  6  1  0
 10  8  1  0
 11 10  1  0
 11 12  1  1
 13 12  1  0
 14 11  1  0
 15 14  2  0
 16 14  1  0
 17 16  1  0
 17 18  1  6
 18 19  1  0
 19 23  1  0
 20 19  2  0
 20 21  1  0
 21 22  1  0
 23 22  2  0
 24 17  1  0
 25 24  2  0
 26 24  1  0
M  END
$$$$
