QCH.pdb
     RDKit          3D

 26 26  0  0  1  0  0  0  0  0999 V2000
    7.9650  -12.3649   18.1534 N   0  0  0  0  0  0  0  0  0  0  0  0
    7.8363  -13.7295   17.8018 C   0  0  0  0  0  0  0  0  0  0  0  0
    7.6599  -14.0520   16.6259 O   0  0  0  0  0  0  0  0  0  0  0  0
    7.9249  -14.7370   18.9153 C   0  0  0  0  0  0  0  0  0  0  0  0
    8.1441  -14.0782   20.2327 C   0  0  0  0  0  0  0  0  0  0  0  0
    8.2961  -15.0975   21.3137 C   0  0  2  0  0  0  0  0  0  0  0  0
    7.1459  -16.0292   21.2859 N   0  0  0  0  0  0  0  0  0  0  0  0
    8.3980  -14.5618   22.6785 C   0  0  0  0  0  0  0  0  0  0  0  0
    8.2280  -13.3475   22.9371 O   0  0  0  0  0  0  0  0  0  0  0  0
    8.7005  -15.4059   23.8023 N   0  0  0  0  0  0  0  0  0  0  0  0
    8.7876  -14.8291   25.1265 C   0  0  1  0  0  0  0  0  0  0  0  0
    7.4210  -14.2709   25.5140 C   0  0  0  0  0  0  0  0  0  0  0  0
    7.6340  -13.4978   27.1602 S   0  0  0  0  0  0  0  0  0  0  0  0
    9.1508  -15.8677   26.1434 C   0  0  0  0  0  0  0  0  0  0  0  0
    8.3020  -16.7166   26.4588 O   0  0  0  0  0  0  0  0  0  0  0  0
   10.4389  -15.8975   26.7480 N   0  0  0  0  0  0  0  0  0  0  0  0
   10.8075  -16.8971   27.7256 C   0  0  1  0  0  0  0  0  0  0  0  0
   12.1669  -17.4117   27.3671 C   0  0  0  0  0  0  0  0  0  0  0  0
   12.2551  -17.9960   26.0098 C   0  0  0  0  0  0  0  0  0  0  0  0
   11.1799  -18.1168   25.1555 C   0  0  0  0  0  0  0  0  0  0  0  0
   11.6485  -18.6879   24.0338 N   0  0  0  0  0  0  0  0  0  0  0  0
   12.9654  -18.9268   24.1533 C   0  0  0  0  0  0  0  0  0  0  0  0
   13.3305  -18.4974   25.3736 N   0  0  0  0  0  0  0  0  0  0  0  0
   10.7183  -16.3773   29.1109 C   0  0  0  0  0  0  0  0  0  0  0  0
   10.5422  -15.1558   29.3488 O   0  0  0  0  0  0  0  0  0  0  0  0
   10.8230  -17.2020   30.2344 O   0  0  0  0  0  0  0  0  0  0  0  0
  1  2  1  0
  2  3  2  0
  4  2  1  0
  4  5  1  0
  6  5  1  0
  6  7  1  1
  8  9  2  0
  8  6  1  0
 10  8  1  0
 11 10  1  0
 11 12  1  1
 13 12  1  0
 14 11  1  0
 15 14  2  0
 16 14  1  0
 17 16  1  0
 17 18  1  6
 18 19  1  0
 19 23  1  0
 20 19  2  0
 20 21  1  0
 21 22  1  0
 23 22  2  0
 24 17  1  0
 25 24  2  0
 26 24  1  0
M  END
$$$$
