QCH.pdb
     RDKit          3D

 26 26  0  0  1  0  0  0  0  0999 V2000
    8.9211  -16.6562   19.0022 N   0  0  0  0  0  0  0  0  0  0  0  0
    7.9454  -16.1378   18.1180 C   0  0  0  0  0  0  0  0  0  0  0  0
    8.0080  -16.3854   16.9128 O   0  0  0  0  0  0  0  0  0  0  0  0
    6.8568  -15.2900   18.7171 C   0  0  0  0  0  0  0  0  0  0  0  0
    6.8721  -15.3513   20.2049 C   0  0  0  0  0  0  0  0  0  0  0  0
    7.0271  -13.9851   20.7879 C   0  0  2  0  0  0  0  0  0  0  0  0
    7.5738  -13.0654   19.7647 N   0  0  0  0  0  0  0  0  0  0  0  0
    7.8953  -13.8967   21.9705 C   0  0  0  0  0  0  0  0  0  0  0  0
    9.1288  -13.6938   21.8837 O   0  0  0  0  0  0  0  0  0  0  0  0
    7.3755  -14.0389   23.3034 N   0  0  0  0  0  0  0  0  0  0  0  0
    8.2845  -14.0365   24.4292 C   0  0  1  0  0  0  0  0  0  0  0  0
    7.6049  -13.3530   25.6125 C   0  0  0  0  0  0  0  0  0  0  0  0
    5.9002  -14.0186   25.6756 S   0  0  0  0  0  0  0  0  0  0  0  0
    8.6204  -15.4338   24.8530 C   0  0  0  0  0  0  0  0  0  0  0  0
    7.7229  -16.2911   24.8478 O   0  0  0  0  0  0  0  0  0  0  0  0
    9.9373  -15.7915   25.2574 N   0  0  0  0  0  0  0  0  0  0  0  0
   10.2536  -17.1038   25.7756 C   0  0  1  0  0  0  0  0  0  0  0  0
   11.6046  -17.4892   25.2581 C   0  0  0  0  0  0  0  0  0  0  0  0
   11.6480  -17.7306   23.7981 C   0  0  0  0  0  0  0  0  0  0  0  0
   10.5431  -17.6632   22.9765 C   0  0  0  0  0  0  0  0  0  0  0  0
   10.9752  -17.9412   21.7356 N   0  0  0  0  0  0  0  0  0  0  0  0
   12.2978  -18.1779   21.7499 C   0  0  0  0  0  0  0  0  0  0  0  0
   12.7038  -18.0460   23.0246 N   0  0  0  0  0  0  0  0  0  0  0  0
   10.1494  -17.1564   27.2533 C   0  0  0  0  0  0  0  0  0  0  0  0
   10.0107  -16.1155   27.9439 O   0  0  0  0  0  0  0  0  0  0  0  0
   10.1978  -18.3547   27.9709 O   0  0  0  0  0  0  0  0  0  0  0  0
  1  2  1  0
  2  3  2  0
  4  2  1  0
  4  5  1  0
  6  5  1  0
  6  7  1  6
  8  9  2  0
  8  6  1  0
 10  8  1  0
 11 10  1  0
 11 12  1  1
 13 12  1  0
 14 11  1  0
 15 14  2  0
 16 14  1  0
 17 16  1  0
 17 18  1  1
 18 19  1  0
 19 23  1  0
 20 19  2  0
 20 21  1  0
 21 22  1  0
 23 22  2  0
 24 17  1  0
 25 24  2  0
 26 24  1  0
M  END
$$$$
