QCH.pdb
     RDKit          3D

 26 26  0  0  1  0  0  0  0  0999 V2000
    8.0574  -12.1507   20.1929 N   0  0  0  0  0  0  0  0  0  0  0  0
    8.1399  -13.1625   19.2071 C   0  0  0  0  0  0  0  0  0  0  0  0
    7.6893  -12.9647   18.0777 O   0  0  0  0  0  0  0  0  0  0  0  0
    8.7915  -14.4583   19.6057 C   0  0  0  0  0  0  0  0  0  0  0  0
    8.0244  -15.1488   20.6791 C   0  0  0  0  0  0  0  0  0  0  0  0
    8.6649  -16.4511   21.0314 C   0  0  2  0  0  0  0  0  0  0  0  0
    7.9266  -17.5605   20.3867 N   0  0  0  0  0  0  0  0  0  0  0  0
    8.7436  -16.7491   22.4685 C   0  0  0  0  0  0  0  0  0  0  0  0
    7.7249  -16.9628   23.1663 O   0  0  0  0  0  0  0  0  0  0  0  0
   10.0023  -16.8128   23.1604 N   0  0  0  0  0  0  0  0  0  0  0  0
   10.0267  -17.1307   24.5719 C   0  0  1  0  0  0  0  0  0  0  0  0
   11.2353  -18.0176   24.8584 C   0  0  0  0  0  0  0  0  0  0  0  0
   10.7935  -19.6906   24.2593 S   0  0  0  0  0  0  0  0  0  0  0  0
   10.1756  -15.8914   25.4005 C   0  0  0  0  0  0  0  0  0  0  0  0
   10.9469  -15.0010   25.0095 O   0  0  0  0  0  0  0  0  0  0  0  0
    9.4552  -15.7189   26.6159 N   0  0  0  0  0  0  0  0  0  0  0  0
    9.6891  -14.5963   27.4966 C   0  0  1  0  0  0  0  0  0  0  0  0
    8.3575  -14.0513   27.9105 C   0  0  0  0  0  0  0  0  0  0  0  0
    7.5598  -13.4901   26.7969 C   0  0  0  0  0  0  0  0  0  0  0  0
    8.0058  -13.4172   25.4946 C   0  0  0  0  0  0  0  0  0  0  0  0
    7.0147  -12.8534   24.7848 N   0  0  0  0  0  0  0  0  0  0  0  0
    5.9742  -12.5732   25.5874 C   0  0  0  0  0  0  0  0  0  0  0  0
    6.3188  -12.9687   26.8251 N   0  0  0  0  0  0  0  0  0  0  0  0
   10.5603  -14.9601   28.6394 C   0  0  0  0  0  0  0  0  0  0  0  0
   10.9054  -14.1148   29.5031 O   0  0  0  0  0  0  0  0  0  0  0  0
   11.0517  -16.2542   28.8314 O   0  0  0  0  0  0  0  0  0  0  0  0
  1  2  1  0
  2  3  2  0
  4  2  1  0
  4  5  1  0
  6  5  1  0
  6  7  1  6
  8  9  2  0
  8  6  1  0
 10  8  1  0
 11 10  1  0
 11 12  1  6
 13 12  1  0
 14 11  1  0
 15 14  2  0
 16 14  1  0
 17 16  1  0
 17 18  1  1
 18 19  1  0
 19 23  1  0
 20 19  2  0
 20 21  1  0
 21 22  1  0
 23 22  2  0
 24 17  1  0
 25 24  2  0
 26 24  1  0
M  END
$$$$
