QCH.pdb
     RDKit          3D

 26 26  0  0  1  0  0  0  0  0999 V2000
    8.3602  -13.0733   17.2636 N   0  0  0  0  0  0  0  0  0  0  0  0
    7.5041  -14.1998   17.2831 C   0  0  0  0  0  0  0  0  0  0  0  0
    6.8105  -14.4675   16.3008 O   0  0  0  0  0  0  0  0  0  0  0  0
    7.4893  -15.0296   18.5377 C   0  0  0  0  0  0  0  0  0  0  0  0
    8.3603  -14.4415   19.5928 C   0  0  0  0  0  0  0  0  0  0  0  0
    8.3659  -15.3025   20.8131 C   0  0  2  0  0  0  0  0  0  0  0  0
    7.1034  -16.0721   20.8862 N   0  0  0  0  0  0  0  0  0  0  0  0
    8.5238  -14.5903   22.0890 C   0  0  0  0  0  0  0  0  0  0  0  0
    9.4478  -13.7677   22.2885 O   0  0  0  0  0  0  0  0  0  0  0  0
    7.6212  -14.7982   23.1885 N   0  0  0  0  0  0  0  0  0  0  0  0
    7.7208  -13.9595   24.3635 C   0  0  1  0  0  0  0  0  0  0  0  0
    6.4012  -14.0200   25.1279 C   0  0  0  0  0  0  0  0  0  0  0  0
    6.5966  -12.9102   26.5712 S   0  0  0  0  0  0  0  0  0  0  0  0
    8.7944  -14.4505   25.2861 C   0  0  0  0  0  0  0  0  0  0  0  0
    9.1559  -13.7210   26.2229 O   0  0  0  0  0  0  0  0  0  0  0  0
    9.4008  -15.7259   25.1086 N   0  0  0  0  0  0  0  0  0  0  0  0
   10.4866  -16.1851   25.9458 C   0  0  1  0  0  0  0  0  0  0  0  0
    9.9100  -16.5860   27.2680 C   0  0  0  0  0  0  0  0  0  0  0  0
   10.0658  -15.5675   28.3309 C   0  0  0  0  0  0  0  0  0  0  0  0
   10.4945  -14.2779   28.1004 C   0  0  0  0  0  0  0  0  0  0  0  0
   10.5091  -13.6634   29.2947 N   0  0  0  0  0  0  0  0  0  0  0  0
   10.1089  -14.5131   30.2555 C   0  0  0  0  0  0  0  0  0  0  0  0
    9.8379  -15.6837   29.6528 N   0  0  0  0  0  0  0  0  0  0  0  0
   11.2737  -17.2587   25.2939 C   0  0  0  0  0  0  0  0  0  0  0  0
   12.2861  -17.7626   25.8424 O   0  0  0  0  0  0  0  0  0  0  0  0
   10.9465  -17.7778   24.0382 O   0  0  0  0  0  0  0  0  0  0  0  0
  1  2  1  0
  2  3  2  0
  4  2  1  0
  4  5  1  0
  6  5  1  0
  6  7  1  1
  8  9  2  0
  8  6  1  0
 10  8  1  0
 11 10  1  0
 11 12  1  1
 13 12  1  0
 14 11  1  0
 15 14  2  0
 16 14  1  0
 17 16  1  0
 17 18  1  1
 18 19  1  0
 19 23  1  0
 20 19  2  0
 20 21  1  0
 21 22  1  0
 23 22  2  0
 24 17  1  0
 25 24  2  0
 26 24  1  0
M  END
$$$$
