ENF.pdb
     RDKit          3D

 29 29  0  0  1  0  0  0  0  0999 V2000
   16.3854  -14.0127  -17.9878 N   0  0  0  0  0  0  0  0  0  0  0  0
   15.7440  -12.7764  -17.6653 C   0  0  1  0  0  0  0  0  0  0  0  0
   15.3053  -12.8631  -16.2119 C   0  0  0  0  0  0  0  0  0  0  0  0
   14.2282  -13.9319  -16.1738 C   0  0  0  0  0  0  0  0  0  0  0  0
   13.5894  -14.0196  -14.8394 C   0  0  0  0  0  0  0  0  0  0  0  0
   12.6080  -13.3097  -14.5173 O   0  0  0  0  0  0  0  0  0  0  0  0
   16.5495  -11.5793  -17.9459 C   0  0  0  0  0  0  0  0  0  0  0  0
   17.7782  -11.6914  -18.1976 O   0  0  0  0  0  0  0  0  0  0  0  0
   14.1060  -14.9186  -13.9347 O   0  0  0  0  0  0  0  0  0  0  0  0
   17.5938   -6.4160  -20.1657 N   0  0  0  0  0  0  0  0  0  0  0  0
   16.9237   -6.7134  -18.9641 C   0  0  0  0  0  0  0  0  0  0  0  0
   17.0383   -5.8956  -18.0144 O   0  0  0  0  0  0  0  0  0  0  0  0
   16.0951   -7.9083  -18.7244 C   0  0  0  0  0  0  0  0  0  0  0  0
   16.8783   -9.0781  -18.2027 C   0  0  2  0  0  0  0  0  0  0  0  0
   16.0551  -10.2473  -17.9618 N   0  0  0  0  0  0  0  0  0  0  0  0
   17.4288   -8.6685  -16.8683 C   0  0  0  0  0  0  0  0  0  0  0  0
   16.7630   -8.7535  -15.8030 O   0  0  0  0  0  0  0  0  0  0  0  0
   18.7504   -8.1569  -16.7445 N   0  0  0  0  0  0  0  0  0  0  0  0
   19.3383   -7.8033  -15.4411 C   0  0  1  0  0  0  0  0  0  0  0  0
   20.7756   -8.2038  -15.4096 C   0  0  0  0  0  0  0  0  0  0  0  0
   21.3885   -7.8044  -14.1390 C   0  0  0  0  0  0  0  0  0  0  0  0
   21.4323   -8.6280  -13.0255 C   0  0  0  0  0  0  0  0  0  0  0  0
   22.0166   -8.2391  -11.8375 C   0  0  0  0  0  0  0  0  0  0  0  0
   22.5845   -6.9873  -11.7326 C   0  0  0  0  0  0  0  0  0  0  0  0
   22.5463   -6.1579  -12.8369 C   0  0  0  0  0  0  0  0  0  0  0  0
   21.9676   -6.5346  -14.0239 C   0  0  0  0  0  0  0  0  0  0  0  0
   19.0677   -6.3855  -15.2037 C   0  0  0  0  0  0  0  0  0  0  0  0
   19.0554   -5.5569  -16.1613 O   0  0  0  0  0  0  0  0  0  0  0  0
   18.8107   -5.8547  -13.9542 O   0  0  0  0  0  0  0  0  0  0  0  0
  2  1  1  1
  3  4  1  0
  3  2  1  0
  5  4  1  0
  6  5  2  0
  7  2  1  0
  7  8  2  0
  9  5  1  0
 11 10  1  0
 12 11  2  0
 14 13  1  1
 13 11  1  0
 14 15  1  0
 15  7  1  0
 16 14  1  0
 17 16  2  0
 18 16  1  0
 19 27  1  0
 19 18  1  0
 20 21  1  0
 19 20  1  6
 21 22  2  0
 22 23  1  0
 24 23  2  0
 25 24  1  0
 26 21  1  0
 26 25  2  0
 27 29  1  0
 28 27  2  0
M  END
$$$$
