ENF.pdb
     RDKit          3D

 29 29  0  0  1  0  0  0  0  0999 V2000
   23.0067  -11.3529  -17.6946 N   0  0  0  0  0  0  0  0  0  0  0  0
   22.2544  -10.4010  -18.4506 C   0  0  1  0  0  0  0  0  0  0  0  0
   21.4211  -11.1817  -19.4547 C   0  0  0  0  0  0  0  0  0  0  0  0
   21.7683  -12.6415  -19.2259 C   0  0  0  0  0  0  0  0  0  0  0  0
   21.0265  -13.5330  -20.1484 C   0  0  0  0  0  0  0  0  0  0  0  0
   20.6093  -14.6623  -19.7997 O   0  0  0  0  0  0  0  0  0  0  0  0
   21.4492   -9.4766  -17.6396 C   0  0  0  0  0  0  0  0  0  0  0  0
   20.7623   -8.5819  -18.1994 O   0  0  0  0  0  0  0  0  0  0  0  0
   20.7968  -13.0880  -21.4301 O   0  0  0  0  0  0  0  0  0  0  0  0
   18.1011   -9.6759  -16.2440 N   0  0  0  0  0  0  0  0  0  0  0  0
   18.5408   -9.7621  -14.9096 C   0  0  0  0  0  0  0  0  0  0  0  0
   17.8275  -10.4113  -14.1011 O   0  0  0  0  0  0  0  0  0  0  0  0
   19.7727   -9.1526  -14.3778 C   0  0  0  0  0  0  0  0  0  0  0  0
   20.6278   -8.5221  -15.4385 C   0  0  2  0  0  0  0  0  0  0  0  0
   21.3661   -9.4943  -16.2212 N   0  0  0  0  0  0  0  0  0  0  0  0
   21.6527   -7.6881  -14.7276 C   0  0  0  0  0  0  0  0  0  0  0  0
   22.7453   -8.1590  -14.3153 O   0  0  0  0  0  0  0  0  0  0  0  0
   21.4324   -6.3042  -14.4831 N   0  0  0  0  0  0  0  0  0  0  0  0
   22.4244   -5.2748  -14.8383 C   0  0  1  0  0  0  0  0  0  0  0  0
   22.9410   -5.5247  -16.2159 C   0  0  0  0  0  0  0  0  0  0  0  0
   23.9056   -4.4877  -16.5948 C   0  0  0  0  0  0  0  0  0  0  0  0
   23.5764   -3.3963  -17.3823 C   0  0  0  0  0  0  0  0  0  0  0  0
   24.4949   -2.4260  -17.7271 C   0  0  0  0  0  0  0  0  0  0  0  0
   25.7956   -2.5269  -17.2817 C   0  0  0  0  0  0  0  0  0  0  0  0
   26.1348   -3.6114  -16.4958 C   0  0  0  0  0  0  0  0  0  0  0  0
   25.2289   -4.5826  -16.1467 C   0  0  0  0  0  0  0  0  0  0  0  0
   21.8042   -3.9684  -14.6188 C   0  0  0  0  0  0  0  0  0  0  0  0
   22.5093   -2.9507  -14.3519 O   0  0  0  0  0  0  0  0  0  0  0  0
   20.4418   -3.7477  -14.6844 O   0  0  0  0  0  0  0  0  0  0  0  0
  2  1  1  1
  3  4  1  0
  3  2  1  0
  5  4  1  0
  6  5  2  0
  7  2  1  0
  7  8  2  0
  9  5  1  0
 11 10  1  0
 12 11  2  0
 14 13  1  1
 13 11  1  0
 14 15  1  0
 15  7  1  0
 16 14  1  0
 17 16  2  0
 18 16  1  0
 19 27  1  0
 19 18  1  0
 20 21  1  0
 19 20  1  6
 21 22  2  0
 22 23  1  0
 24 23  2  0
 25 24  1  0
 26 21  1  0
 26 25  2  0
 27 29  1  0
 28 27  2  0
M  END
$$$$
