ENF.pdb
     RDKit          3D

 29 29  0  0  1  0  0  0  0  0999 V2000
   27.5031  -19.5458  -18.6143 N   0  0  0  0  0  0  0  0  0  0  0  0
   27.1440  -20.4992  -17.6113 C   0  0  1  0  0  0  0  0  0  0  0  0
   28.2668  -20.5178  -16.5860 C   0  0  0  0  0  0  0  0  0  0  0  0
   29.3003  -21.4871  -17.1301 C   0  0  0  0  0  0  0  0  0  0  0  0
   28.7857  -22.8765  -17.1627 C   0  0  0  0  0  0  0  0  0  0  0  0
   28.3727  -23.4147  -18.2166 O   0  0  0  0  0  0  0  0  0  0  0  0
   25.8233  -20.2790  -17.0048 C   0  0  0  0  0  0  0  0  0  0  0  0
   25.4219  -19.1074  -16.7771 O   0  0  0  0  0  0  0  0  0  0  0  0
   28.7684  -23.5858  -15.9836 O   0  0  0  0  0  0  0  0  0  0  0  0
   22.1152  -22.5840  -18.8375 N   0  0  0  0  0  0  0  0  0  0  0  0
   22.1107  -21.6689  -17.7680 C   0  0  0  0  0  0  0  0  0  0  0  0
   21.6946  -20.5038  -17.9988 O   0  0  0  0  0  0  0  0  0  0  0  0
   22.5548  -21.9629  -16.3938 C   0  0  0  0  0  0  0  0  0  0  0  0
   23.6689  -21.0713  -15.9272 C   0  0  2  0  0  0  0  0  0  0  0  0
   24.9136  -21.3055  -16.6333 N   0  0  0  0  0  0  0  0  0  0  0  0
   23.9276  -21.4193  -14.4909 C   0  0  0  0  0  0  0  0  0  0  0  0
   24.1627  -22.5955  -14.1079 O   0  0  0  0  0  0  0  0  0  0  0  0
   23.9188  -20.4189  -13.4795 N   0  0  0  0  0  0  0  0  0  0  0  0
   24.2422  -20.7182  -12.0740 C   0  0  1  0  0  0  0  0  0  0  0  0
   25.4478  -19.9438  -11.6568 C   0  0  0  0  0  0  0  0  0  0  0  0
   25.6972  -20.1216  -10.2231 C   0  0  0  0  0  0  0  0  0  0  0  0
   25.2230  -19.2495   -9.2564 C   0  0  0  0  0  0  0  0  0  0  0  0
   25.4627  -19.4326   -7.9100 C   0  0  0  0  0  0  0  0  0  0  0  0
   26.2002  -20.5184   -7.4885 C   0  0  0  0  0  0  0  0  0  0  0  0
   26.6781  -21.3943   -8.4440 C   0  0  0  0  0  0  0  0  0  0  0  0
   26.4455  -21.2217   -9.7864 C   0  0  0  0  0  0  0  0  0  0  0  0
   23.0334  -20.4879  -11.2832 C   0  0  0  0  0  0  0  0  0  0  0  0
   22.1881  -19.6103  -11.6284 O   0  0  0  0  0  0  0  0  0  0  0  0
   22.7269  -21.1891  -10.1327 O   0  0  0  0  0  0  0  0  0  0  0  0
  2  1  1  6
  3  4  1  0
  3  2  1  0
  5  4  1  0
  6  5  2  0
  7  2  1  0
  7  8  2  0
  9  5  1  0
 11 10  1  0
 12 11  2  0
 14 13  1  6
 13 11  1  0
 14 15  1  0
 15  7  1  0
 16 14  1  0
 17 16  2  0
 18 16  1  0
 19 27  1  0
 19 18  1  0
 20 21  1  0
 19 20  1  1
 21 22  2  0
 22 23  1  0
 24 23  2  0
 25 24  1  0
 26 21  1  0
 26 25  2  0
 27 29  1  0
 28 27  2  0
M  END
$$$$
