ENF.pdb
     RDKit          3D

 29 29  0  0  1  0  0  0  0  0999 V2000
   21.9569  -19.2499  -13.6204 N   0  0  0  0  0  0  0  0  0  0  0  0
   21.7001  -20.2355  -12.6172 C   0  0  1  0  0  0  0  0  0  0  0  0
   20.6546  -21.1865  -13.1783 C   0  0  0  0  0  0  0  0  0  0  0  0
   19.6557  -20.3089  -13.9104 C   0  0  0  0  0  0  0  0  0  0  0  0
   18.4431  -20.0606  -13.0954 C   0  0  0  0  0  0  0  0  0  0  0  0
   18.4584  -19.3357  -12.0731 O   0  0  0  0  0  0  0  0  0  0  0  0
   22.8972  -20.9322  -12.1252 C   0  0  0  0  0  0  0  0  0  0  0  0
   22.7779  -21.9674  -11.4183 O   0  0  0  0  0  0  0  0  0  0  0  0
   17.2670  -20.6558  -13.4908 O   0  0  0  0  0  0  0  0  0  0  0  0
   26.0952  -21.2189  -15.4205 N   0  0  0  0  0  0  0  0  0  0  0  0
   26.1977  -21.8827  -14.1834 C   0  0  0  0  0  0  0  0  0  0  0  0
   25.9847  -23.1229  -14.1675 O   0  0  0  0  0  0  0  0  0  0  0  0
   26.5353  -21.2432  -12.8993 C   0  0  0  0  0  0  0  0  0  0  0  0
   25.4031  -21.2585  -11.9136 C   0  0  2  0  0  0  0  0  0  0  0  0
   24.2371  -20.5340  -12.3808 N   0  0  0  0  0  0  0  0  0  0  0  0
   25.8857  -20.5358  -10.6905 C   0  0  0  0  0  0  0  0  0  0  0  0
   25.6014  -19.3319  -10.4556 O   0  0  0  0  0  0  0  0  0  0  0  0
   26.7003  -21.1893   -9.7246 N   0  0  0  0  0  0  0  0  0  0  0  0
   27.4131  -20.4514   -8.6677 C   0  0  1  0  0  0  0  0  0  0  0  0
   26.6707  -20.5714   -7.3787 C   0  0  0  0  0  0  0  0  0  0  0  0
   27.4213  -19.9281   -6.2960 C   0  0  0  0  0  0  0  0  0  0  0  0
   27.5178  -18.5533   -6.1522 C   0  0  0  0  0  0  0  0  0  0  0  0
   28.2249  -17.9626   -5.1250 C   0  0  0  0  0  0  0  0  0  0  0  0
   28.8676  -18.7519   -4.1953 C   0  0  0  0  0  0  0  0  0  0  0  0
   28.7780  -20.1240   -4.3294 C   0  0  0  0  0  0  0  0  0  0  0  0
   28.0771  -20.7224   -5.3474 C   0  0  0  0  0  0  0  0  0  0  0  0
   28.7962  -20.9272   -8.6518 C   0  0  0  0  0  0  0  0  0  0  0  0
   29.7259  -20.2076   -8.1808 O   0  0  0  0  0  0  0  0  0  0  0  0
   29.1858  -22.1622   -9.1335 O   0  0  0  0  0  0  0  0  0  0  0  0
  2  1  1  6
  3  4  1  0
  3  2  1  0
  5  4  1  0
  6  5  2  0
  7  2  1  0
  7  8  2  0
  9  5  1  0
 11 10  1  0
 12 11  2  0
 14 13  1  6
 13 11  1  0
 14 15  1  0
 15  7  1  0
 16 14  1  0
 17 16  2  0
 18 16  1  0
 19 27  1  0
 19 18  1  0
 20 21  1  0
 19 20  1  1
 21 22  2  0
 22 23  1  0
 24 23  2  0
 25 24  1  0
 26 21  1  0
 26 25  2  0
 27 29  1  0
 28 27  2  0
M  END
$$$$
