ENF.pdb
     RDKit          3D

 29 29  0  0  1  0  0  0  0  0999 V2000
   15.6942  -10.6421  -15.9868 N   0  0  0  0  0  0  0  0  0  0  0  0
   16.9671  -10.8211  -15.3612 C   0  0  1  0  0  0  0  0  0  0  0  0
   17.5407  -12.1320  -15.8757 C   0  0  0  0  0  0  0  0  0  0  0  0
   16.4881  -13.1836  -15.5756 C   0  0  0  0  0  0  0  0  0  0  0  0
   16.8642  -14.5083  -16.1235 C   0  0  0  0  0  0  0  0  0  0  0  0
   16.8091  -14.7682  -17.3483 O   0  0  0  0  0  0  0  0  0  0  0  0
   17.8928   -9.6912  -15.5267 C   0  0  0  0  0  0  0  0  0  0  0  0
   19.0874   -9.7939  -15.1420 O   0  0  0  0  0  0  0  0  0  0  0  0
   17.2869  -15.4753  -15.2403 O   0  0  0  0  0  0  0  0  0  0  0  0
   16.3745   -6.4043  -19.1616 N   0  0  0  0  0  0  0  0  0  0  0  0
   17.5961   -6.6712  -18.5152 C   0  0  0  0  0  0  0  0  0  0  0  0
   18.4615   -7.3273  -19.1513 O   0  0  0  0  0  0  0  0  0  0  0  0
   17.9478   -6.2445  -17.1492 C   0  0  0  0  0  0  0  0  0  0  0  0
   18.5011   -7.3557  -16.3048 C   0  0  2  0  0  0  0  0  0  0  0  0
   17.5564   -8.4374  -16.1045 N   0  0  0  0  0  0  0  0  0  0  0  0
   18.7695   -6.7743  -14.9480 C   0  0  0  0  0  0  0  0  0  0  0  0
   17.8496   -6.4821  -14.1393 O   0  0  0  0  0  0  0  0  0  0  0  0
   20.0982   -6.5226  -14.5063 N   0  0  0  0  0  0  0  0  0  0  0  0
   20.3931   -5.9767  -13.1704 C   0  0  1  0  0  0  0  0  0  0  0  0
   21.0080   -7.0350  -12.3165 C   0  0  0  0  0  0  0  0  0  0  0  0
   21.3191   -6.5006  -10.9871 C   0  0  0  0  0  0  0  0  0  0  0  0
   20.3879   -6.4213   -9.9641 C   0  0  0  0  0  0  0  0  0  0  0  0
   20.6973   -5.9194   -8.7165 C   0  0  0  0  0  0  0  0  0  0  0  0
   21.9758   -5.4744   -8.4565 C   0  0  0  0  0  0  0  0  0  0  0  0
   22.9122   -5.5489   -9.4696 C   0  0  0  0  0  0  0  0  0  0  0  0
   22.6154   -6.0464  -10.7146 C   0  0  0  0  0  0  0  0  0  0  0  0
   21.1908   -4.7644  -13.3541 C   0  0  0  0  0  0  0  0  0  0  0  0
   22.0413   -4.6813  -14.2888 O   0  0  0  0  0  0  0  0  0  0  0  0
   21.0820   -3.6478  -12.5477 O   0  0  0  0  0  0  0  0  0  0  0  0
  2  1  1  6
  3  4  1  0
  3  2  1  0
  5  4  1  0
  6  5  2  0
  7  2  1  0
  7  8  2  0
  9  5  1  0
 11 10  1  0
 12 11  2  0
 14 13  1  6
 13 11  1  0
 14 15  1  0
 15  7  1  0
 16 14  1  0
 17 16  2  0
 18 16  1  0
 19 27  1  0
 19 18  1  0
 20 21  1  0
 19 20  1  1
 21 22  2  0
 22 23  1  0
 24 23  2  0
 25 24  1  0
 26 21  1  0
 26 25  2  0
 27 29  1  0
 28 27  2  0
M  END
$$$$
