ENF.pdb
     RDKit          3D

 29 29  0  0  1  0  0  0  0  0999 V2000
   24.4556  -22.0098  -16.2806 N   0  0  0  0  0  0  0  0  0  0  0  0
   24.1851  -22.4947  -14.9633 C   0  0  1  0  0  0  0  0  0  0  0  0
   23.7525  -23.9462  -15.0983 C   0  0  0  0  0  0  0  0  0  0  0  0
   24.1997  -24.3781  -16.4830 C   0  0  0  0  0  0  0  0  0  0  0  0
   23.2498  -25.3394  -17.0912 C   0  0  0  0  0  0  0  0  0  0  0  0
   22.4605  -25.0136  -18.0086 O   0  0  0  0  0  0  0  0  0  0  0  0
   25.2886  -22.3164  -14.0086 C   0  0  0  0  0  0  0  0  0  0  0  0
   26.3499  -22.9808  -14.1411 O   0  0  0  0  0  0  0  0  0  0  0  0
   23.2489  -26.6319  -16.6188 O   0  0  0  0  0  0  0  0  0  0  0  0
   28.1636  -20.4072  -14.6035 N   0  0  0  0  0  0  0  0  0  0  0  0
   27.5771  -19.3228  -13.9243 C   0  0  0  0  0  0  0  0  0  0  0  0
   27.8154  -18.1654  -14.3575 O   0  0  0  0  0  0  0  0  0  0  0  0
   26.7031  -19.4303  -12.7426 C   0  0  0  0  0  0  0  0  0  0  0  0
   26.4645  -20.8476  -12.3086 C   0  0  2  0  0  0  0  0  0  0  0  0
   25.2743  -21.4271  -12.9004 N   0  0  0  0  0  0  0  0  0  0  0  0
   26.2236  -20.8110  -10.8281 C   0  0  0  0  0  0  0  0  0  0  0  0
   25.2009  -20.2822  -10.3185 O   0  0  0  0  0  0  0  0  0  0  0  0
   27.1560  -21.3818   -9.9178 N   0  0  0  0  0  0  0  0  0  0  0  0
   27.1635  -21.0440   -8.4841 C   0  0  1  0  0  0  0  0  0  0  0  0
   28.4158  -20.3064   -8.1452 C   0  0  0  0  0  0  0  0  0  0  0  0
   28.4262  -19.9450   -6.7244 C   0  0  0  0  0  0  0  0  0  0  0  0
   28.4351  -20.8815   -5.7032 C   0  0  0  0  0  0  0  0  0  0  0  0
   28.4490  -20.5254   -4.3701 C   0  0  0  0  0  0  0  0  0  0  0  0
   28.4543  -19.1925   -4.0186 C   0  0  0  0  0  0  0  0  0  0  0  0
   28.4455  -18.2503   -5.0290 C   0  0  0  0  0  0  0  0  0  0  0  0
   28.4317  -18.5934   -6.3586 C   0  0  0  0  0  0  0  0  0  0  0  0
   25.9134  -20.3445   -8.1879 C   0  0  0  0  0  0  0  0  0  0  0  0
   25.5545  -19.3383   -8.8681 O   0  0  0  0  0  0  0  0  0  0  0  0
   25.0510  -20.7156   -7.1741 O   0  0  0  0  0  0  0  0  0  0  0  0
  2  1  1  6
  3  4  1  0
  3  2  1  0
  5  4  1  0
  6  5  2  0
  7  2  1  0
  7  8  2  0
  9  5  1  0
 11 10  1  0
 12 11  2  0
 14 13  1  6
 13 11  1  0
 14 15  1  0
 15  7  1  0
 16 14  1  0
 17 16  2  0
 18 16  1  0
 19 27  1  0
 19 18  1  0
 20 21  1  0
 19 20  1  6
 21 22  2  0
 22 23  1  0
 24 23  2  0
 25 24  1  0
 26 21  1  0
 26 25  2  0
 27 29  1  0
 28 27  2  0
M  END
$$$$
