ENF.pdb
     RDKit          3D

 29 29  0  0  1  0  0  0  0  0999 V2000
   15.9404  -19.7380    1.8776 N   0  0  0  0  0  0  0  0  0  0  0  0
   14.9295  -19.3271    2.8010 C   0  0  1  0  0  0  0  0  0  0  0  0
   13.7739  -20.3066    2.6681 C   0  0  0  0  0  0  0  0  0  0  0  0
   14.4010  -21.6877    2.7260 C   0  0  0  0  0  0  0  0  0  0  0  0
   13.4602  -22.7370    2.2676 C   0  0  0  0  0  0  0  0  0  0  0  0
   12.3314  -22.4663    1.7951 O   0  0  0  0  0  0  0  0  0  0  0  0
   15.3933  -19.1794    4.1880 C   0  0  0  0  0  0  0  0  0  0  0  0
   14.6091  -18.7435    5.0716 O   0  0  0  0  0  0  0  0  0  0  0  0
   13.8578  -24.0503    2.3722 O   0  0  0  0  0  0  0  0  0  0  0  0
   17.8246  -19.2951    8.8265 N   0  0  0  0  0  0  0  0  0  0  0  0
   18.1158  -20.4128    8.0219 C   0  0  0  0  0  0  0  0  0  0  0  0
   18.6717  -21.3987    8.5721 O   0  0  0  0  0  0  0  0  0  0  0  0
   17.8225  -20.5251    6.5821 C   0  0  0  0  0  0  0  0  0  0  0  0
   17.1428  -19.3107    6.0189 C   0  0  2  0  0  0  0  0  0  0  0  0
   16.6993  -19.4946    4.6507 N   0  0  0  0  0  0  0  0  0  0  0  0
   18.1702  -18.2177    5.9852 C   0  0  0  0  0  0  0  0  0  0  0  0
   19.0403  -18.1301    5.0793 O   0  0  0  0  0  0  0  0  0  0  0  0
   18.2081  -17.2139    6.9925 N   0  0  0  0  0  0  0  0  0  0  0  0
   19.2428  -16.1659    7.0202 C   0  0  1  0  0  0  0  0  0  0  0  0
   18.6052  -14.8312    7.2188 C   0  0  0  0  0  0  0  0  0  0  0  0
   19.6009  -13.7643    7.0781 C   0  0  0  0  0  0  0  0  0  0  0  0
   19.8087  -13.0713    5.8964 C   0  0  0  0  0  0  0  0  0  0  0  0
   20.7473  -12.0664    5.7807 C   0  0  0  0  0  0  0  0  0  0  0  0
   21.5187  -11.7229    6.8704 C   0  0  0  0  0  0  0  0  0  0  0  0
   21.3198  -12.4077    8.0537 C   0  0  0  0  0  0  0  0  0  0  0  0
   20.3887  -13.4092    8.1799 C   0  0  0  0  0  0  0  0  0  0  0  0
   20.2364  -16.5515    8.0222 C   0  0  0  0  0  0  0  0  0  0  0  0
   19.8818  -16.9237    9.1796 O   0  0  0  0  0  0  0  0  0  0  0  0
   21.5987  -16.5416    7.7917 O   0  0  0  0  0  0  0  0  0  0  0  0
  2  1  1  6
  3  4  1  0
  3  2  1  0
  5  4  1  0
  6  5  2  0
  7  2  1  0
  7  8  2  0
  9  5  1  0
 11 10  1  0
 12 11  2  0
 14 13  1  6
 13 11  1  0
 14 15  1  0
 15  7  1  0
 16 14  1  0
 17 16  2  0
 18 16  1  0
 19 27  1  0
 19 18  1  0
 20 21  1  0
 19 20  1  1
 21 22  2  0
 22 23  1  0
 24 23  2  0
 25 24  1  0
 26 21  1  0
 26 25  2  0
 27 29  1  0
 28 27  2  0
M  END
$$$$
