ENF.pdb
     RDKit          3D

 29 29  0  0  1  0  0  0  0  0999 V2000
   23.1728  -19.7719  -15.1566 N   0  0  0  0  0  0  0  0  0  0  0  0
   23.2107  -19.6937  -13.7297 C   0  0  1  0  0  0  0  0  0  0  0  0
   21.7897  -19.9023  -13.2300 C   0  0  0  0  0  0  0  0  0  0  0  0
   20.9107  -19.0595  -14.1361 C   0  0  0  0  0  0  0  0  0  0  0  0
   20.2616  -17.9522  -13.3953 C   0  0  0  0  0  0  0  0  0  0  0  0
   19.7955  -18.0993  -12.2412 O   0  0  0  0  0  0  0  0  0  0  0  0
   24.1763  -20.6015  -13.0940 C   0  0  0  0  0  0  0  0  0  0  0  0
   23.8604  -21.7992  -12.8675 O   0  0  0  0  0  0  0  0  0  0  0  0
   20.1769  -16.7254  -14.0130 O   0  0  0  0  0  0  0  0  0  0  0  0
   26.4222  -21.8046  -14.8198 N   0  0  0  0  0  0  0  0  0  0  0  0
   27.6269  -21.6376  -14.1113 C   0  0  0  0  0  0  0  0  0  0  0  0
   28.7025  -21.8292  -14.7361 O   0  0  0  0  0  0  0  0  0  0  0  0
   27.7342  -21.2552  -12.6921 C   0  0  0  0  0  0  0  0  0  0  0  0
   26.4033  -21.1395  -12.0070 C   0  0  2  0  0  0  0  0  0  0  0  0
   25.4913  -20.2437  -12.6915 N   0  0  0  0  0  0  0  0  0  0  0  0
   26.6622  -20.5290  -10.6611 C   0  0  0  0  0  0  0  0  0  0  0  0
   27.5228  -19.6284  -10.4771 O   0  0  0  0  0  0  0  0  0  0  0  0
   25.9346  -20.9473   -9.5125 N   0  0  0  0  0  0  0  0  0  0  0  0
   26.5262  -20.9478   -8.1635 C   0  0  1  0  0  0  0  0  0  0  0  0
   27.2684  -19.6731   -7.9366 C   0  0  0  0  0  0  0  0  0  0  0  0
   27.8248  -19.6414   -6.5805 C   0  0  0  0  0  0  0  0  0  0  0  0
   27.0942  -19.2518   -5.4694 C   0  0  0  0  0  0  0  0  0  0  0  0
   27.6310  -19.2312   -4.1984 C   0  0  0  0  0  0  0  0  0  0  0  0
   28.9426  -19.6086   -4.0041 C   0  0  0  0  0  0  0  0  0  0  0  0
   29.6802  -19.9987   -5.1052 C   0  0  0  0  0  0  0  0  0  0  0  0
   29.1562  -20.0231   -6.3743 C   0  0  0  0  0  0  0  0  0  0  0  0
   25.4550  -21.2384   -7.2108 C   0  0  0  0  0  0  0  0  0  0  0  0
   25.7119  -21.4528   -5.9893 O   0  0  0  0  0  0  0  0  0  0  0  0
   24.1188  -21.2988   -7.5572 O   0  0  0  0  0  0  0  0  0  0  0  0
  2  1  1  6
  3  4  1  0
  3  2  1  0
  5  4  1  0
  6  5  2  0
  7  2  1  0
  7  8  2  0
  9  5  1  0
 11 10  1  0
 12 11  2  0
 14 13  1  6
 13 11  1  0
 14 15  1  0
 15  7  1  0
 16 14  1  0
 17 16  2  0
 18 16  1  0
 19 27  1  0
 19 18  1  0
 20 21  1  0
 19 20  1  1
 21 22  2  0
 22 23  1  0
 24 23  2  0
 25 24  1  0
 26 21  1  0
 26 25  2  0
 27 29  1  0
 28 27  2  0
M  END
$$$$
