ENF.pdb
     RDKit          3D

 29 29  0  0  1  0  0  0  0  0999 V2000
   27.0786  -20.0633  -15.3283 N   0  0  0  0  0  0  0  0  0  0  0  0
   27.3915  -19.1674  -14.2592 C   0  0  1  0  0  0  0  0  0  0  0  0
   27.5086  -17.7749  -14.8590 C   0  0  0  0  0  0  0  0  0  0  0  0
   28.6326  -17.8616  -15.8753 C   0  0  0  0  0  0  0  0  0  0  0  0
   28.1145  -18.0392  -17.2524 C   0  0  0  0  0  0  0  0  0  0  0  0
   28.2147  -19.1238  -17.8725 O   0  0  0  0  0  0  0  0  0  0  0  0
   26.4585  -19.2214  -13.1246 C   0  0  0  0  0  0  0  0  0  0  0  0
   26.0690  -18.1561  -12.5778 O   0  0  0  0  0  0  0  0  0  0  0  0
   27.5044  -16.9634  -17.8559 O   0  0  0  0  0  0  0  0  0  0  0  0
   22.8708  -19.7917  -13.3075 N   0  0  0  0  0  0  0  0  0  0  0  0
   22.8535  -21.0019  -12.5889 C   0  0  0  0  0  0  0  0  0  0  0  0
   21.8735  -21.7714  -12.7657 O   0  0  0  0  0  0  0  0  0  0  0  0
   23.8924  -21.4450  -11.6422 C   0  0  0  0  0  0  0  0  0  0  0  0
   24.9905  -20.4388  -11.4533 C   0  0  2  0  0  0  0  0  0  0  0  0
   25.9290  -20.4123  -12.5584 N   0  0  0  0  0  0  0  0  0  0  0  0
   25.7714  -20.8732  -10.2480 C   0  0  0  0  0  0  0  0  0  0  0  0
   26.1075  -22.0706  -10.0508 O   0  0  0  0  0  0  0  0  0  0  0  0
   26.1743  -19.9358   -9.2567 N   0  0  0  0  0  0  0  0  0  0  0  0
   26.7927  -20.3514   -7.9860 C   0  0  1  0  0  0  0  0  0  0  0  0
   27.6027  -19.2294   -7.4274 C   0  0  0  0  0  0  0  0  0  0  0  0
   28.1705  -19.6071   -6.1296 C   0  0  0  0  0  0  0  0  0  0  0  0
   29.2308  -20.4887   -5.9927 C   0  0  0  0  0  0  0  0  0  0  0  0
   29.7569  -20.8313   -4.7640 C   0  0  0  0  0  0  0  0  0  0  0  0
   29.2223  -20.2873   -3.6157 C   0  0  0  0  0  0  0  0  0  0  0  0
   28.1647  -19.4072   -3.7407 C   0  0  0  0  0  0  0  0  0  0  0  0
   27.6334  -19.0592   -4.9582 C   0  0  0  0  0  0  0  0  0  0  0  0
   25.7279  -20.8592   -7.1212 C   0  0  0  0  0  0  0  0  0  0  0  0
   25.9669  -21.7441   -6.2471 O   0  0  0  0  0  0  0  0  0  0  0  0
   24.4175  -20.4262   -7.1866 O   0  0  0  0  0  0  0  0  0  0  0  0
  2  1  1  6
  3  4  1  0
  3  2  1  0
  5  4  1  0
  6  5  2  0
  7  2  1  0
  7  8  2  0
  9  5  1  0
 11 10  1  0
 12 11  2  0
 14 13  1  6
 13 11  1  0
 14 15  1  0
 15  7  1  0
 16 14  1  0
 17 16  2  0
 18 16  1  0
 19 27  1  0
 19 18  1  0
 20 21  1  0
 19 20  1  1
 21 22  2  0
 22 23  1  0
 24 23  2  0
 25 24  1  0
 26 21  1  0
 26 25  2  0
 27 29  1  0
 28 27  2  0
M  END
$$$$
