ENF.pdb
     RDKit          3D

 29 29  0  0  1  0  0  0  0  0999 V2000
   22.9997  -17.2176  -16.6845 N   0  0  0  0  0  0  0  0  0  0  0  0
   22.9932  -18.3958  -17.4942 C   0  0  1  0  0  0  0  0  0  0  0  0
   22.9463  -17.9439  -18.9454 C   0  0  0  0  0  0  0  0  0  0  0  0
   22.2567  -16.5919  -18.9297 C   0  0  0  0  0  0  0  0  0  0  0  0
   21.9238  -16.1299  -20.2979 C   0  0  0  0  0  0  0  0  0  0  0  0
   20.7543  -16.1522  -20.7478 O   0  0  0  0  0  0  0  0  0  0  0  0
   24.0970  -19.3282  -17.2241 C   0  0  0  0  0  0  0  0  0  0  0  0
   24.1739  -20.4139  -17.8573 O   0  0  0  0  0  0  0  0  0  0  0  0
   22.9489  -15.6629  -21.0883 O   0  0  0  0  0  0  0  0  0  0  0  0
   27.2800  -18.9579  -18.3850 N   0  0  0  0  0  0  0  0  0  0  0  0
   28.0144  -18.9536  -17.1842 C   0  0  0  0  0  0  0  0  0  0  0  0
   29.1739  -18.4651  -17.2113 O   0  0  0  0  0  0  0  0  0  0  0  0
   27.5363  -19.4759  -15.8918 C   0  0  0  0  0  0  0  0  0  0  0  0
   26.1662  -20.0849  -15.9686 C   0  0  2  0  0  0  0  0  0  0  0  0
   25.1330  -19.1147  -16.2752 N   0  0  0  0  0  0  0  0  0  0  0  0
   25.8526  -20.6162  -14.6009 C   0  0  0  0  0  0  0  0  0  0  0  0
   26.5063  -21.5512  -14.0683 O   0  0  0  0  0  0  0  0  0  0  0  0
   24.7841  -20.0781  -13.8311 N   0  0  0  0  0  0  0  0  0  0  0  0
   24.3372  -20.6916  -12.5687 C   0  0  1  0  0  0  0  0  0  0  0  0
   24.3763  -19.6791  -11.4731 C   0  0  0  0  0  0  0  0  0  0  0  0
   23.8245  -20.2432  -10.2375 C   0  0  0  0  0  0  0  0  0  0  0  0
   22.4726  -20.2279   -9.9337 C   0  0  0  0  0  0  0  0  0  0  0  0
   21.9680  -20.7668   -8.7680 C   0  0  0  0  0  0  0  0  0  0  0  0
   22.8240  -21.3475   -7.8567 C   0  0  0  0  0  0  0  0  0  0  0  0
   24.1740  -21.3680   -8.1496 C   0  0  0  0  0  0  0  0  0  0  0  0
   24.6870  -20.8348   -9.3064 C   0  0  0  0  0  0  0  0  0  0  0  0
   23.0359  -21.3125  -12.8149 C   0  0  0  0  0  0  0  0  0  0  0  0
   22.6104  -22.2465  -12.0729 O   0  0  0  0  0  0  0  0  0  0  0  0
   22.1931  -20.9398  -13.8444 O   0  0  0  0  0  0  0  0  0  0  0  0
  2  1  1  1
  3  4  1  0
  3  2  1  0
  5  4  1  0
  6  5  2  0
  7  2  1  0
  7  8  2  0
  9  5  1  0
 11 10  1  0
 12 11  2  0
 14 13  1  1
 13 11  1  0
 14 15  1  0
 15  7  1  0
 16 14  1  0
 17 16  2  0
 18 16  1  0
 19 27  1  0
 19 18  1  0
 20 21  1  0
 19 20  1  1
 21 22  2  0
 22 23  1  0
 24 23  2  0
 25 24  1  0
 26 21  1  0
 26 25  2  0
 27 29  1  0
 28 27  2  0
M  END
$$$$
