ENF.pdb
     RDKit          3D

 29 29  0  0  1  0  0  0  0  0999 V2000
   25.8481  -19.1017  -16.0479 N   0  0  0  0  0  0  0  0  0  0  0  0
   26.4718  -19.5455  -14.8405 C   0  0  1  0  0  0  0  0  0  0  0  0
   27.7966  -18.8086  -14.7215 C   0  0  0  0  0  0  0  0  0  0  0  0
   28.0441  -18.1912  -16.0859 C   0  0  0  0  0  0  0  0  0  0  0  0
   28.4094  -19.2150  -17.0932 C   0  0  0  0  0  0  0  0  0  0  0  0
   29.1666  -20.1777  -16.8275 O   0  0  0  0  0  0  0  0  0  0  0  0
   25.6371  -19.4129  -13.6379 C   0  0  0  0  0  0  0  0  0  0  0  0
   25.1806  -18.2865  -13.3087 O   0  0  0  0  0  0  0  0  0  0  0  0
   27.8889  -19.0875  -18.3607 O   0  0  0  0  0  0  0  0  0  0  0  0
   21.0873  -20.5413  -10.3721 N   0  0  0  0  0  0  0  0  0  0  0  0
   22.0287  -20.4249  -11.4121 C   0  0  0  0  0  0  0  0  0  0  0  0
   21.7810  -19.6050  -12.3341 O   0  0  0  0  0  0  0  0  0  0  0  0
   23.2862  -21.1869  -11.5116 C   0  0  0  0  0  0  0  0  0  0  0  0
   24.5068  -20.3138  -11.5543 C   0  0  2  0  0  0  0  0  0  0  0  0
   25.2783  -20.4800  -12.7708 N   0  0  0  0  0  0  0  0  0  0  0  0
   25.3943  -20.7572  -10.4288 C   0  0  0  0  0  0  0  0  0  0  0  0
   25.7440  -21.9564  -10.2706 O   0  0  0  0  0  0  0  0  0  0  0  0
   25.8893  -19.8268   -9.4733 N   0  0  0  0  0  0  0  0  0  0  0  0
   26.6467  -20.2495   -8.2827 C   0  0  1  0  0  0  0  0  0  0  0  0
   27.4338  -19.0990   -7.7497 C   0  0  0  0  0  0  0  0  0  0  0  0
   28.1281  -19.4836   -6.5170 C   0  0  0  0  0  0  0  0  0  0  0  0
   27.7167  -19.0802   -5.2568 C   0  0  0  0  0  0  0  0  0  0  0  0
   28.3786  -19.4540   -4.1052 C   0  0  0  0  0  0  0  0  0  0  0  0
   29.4944  -20.2593   -4.1889 C   0  0  0  0  0  0  0  0  0  0  0  0
   29.9134  -20.6672   -5.4406 C   0  0  0  0  0  0  0  0  0  0  0  0
   29.2623  -20.3013   -6.5930 C   0  0  0  0  0  0  0  0  0  0  0  0
   25.6998  -20.8592   -7.3494 C   0  0  0  0  0  0  0  0  0  0  0  0
   24.4682  -20.5668   -7.3892 O   0  0  0  0  0  0  0  0  0  0  0  0
   26.0628  -21.7752   -6.3808 O   0  0  0  0  0  0  0  0  0  0  0  0
  2  1  1  6
  3  4  1  0
  3  2  1  0
  5  4  1  0
  6  5  2  0
  7  2  1  0
  7  8  2  0
  9  5  1  0
 11 10  1  0
 12 11  2  0
 14 13  1  6
 13 11  1  0
 14 15  1  0
 15  7  1  0
 16 14  1  0
 17 16  2  0
 18 16  1  0
 19 27  1  0
 19 18  1  0
 20 21  1  0
 19 20  1  1
 21 22  2  0
 22 23  1  0
 24 23  2  0
 25 24  1  0
 26 21  1  0
 26 25  2  0
 27 29  1  0
 28 27  2  0
M  END
$$$$
