ENF.pdb
     RDKit          3D

 29 29  0  0  1  0  0  0  0  0999 V2000
   22.4382  -13.3906  -18.2932 N   0  0  0  0  0  0  0  0  0  0  0  0
   21.4131  -12.4748  -17.9005 C   0  0  1  0  0  0  0  0  0  0  0  0
   21.0222  -12.8225  -16.4726 C   0  0  0  0  0  0  0  0  0  0  0  0
   20.0101  -13.9476  -16.5891 C   0  0  0  0  0  0  0  0  0  0  0  0
   18.6371  -13.4848  -16.2777 C   0  0  0  0  0  0  0  0  0  0  0  0
   18.1339  -13.5976  -15.1354 O   0  0  0  0  0  0  0  0  0  0  0  0
   21.7653  -11.0572  -18.0647 C   0  0  0  0  0  0  0  0  0  0  0  0
   22.9524  -10.6779  -17.8845 O   0  0  0  0  0  0  0  0  0  0  0  0
   17.9034  -12.9133  -17.2919 O   0  0  0  0  0  0  0  0  0  0  0  0
   19.6464   -8.7453  -22.0687 N   0  0  0  0  0  0  0  0  0  0  0  0
   20.6334   -8.4671  -21.1044 C   0  0  0  0  0  0  0  0  0  0  0  0
   21.8362   -8.6304  -21.4369 O   0  0  0  0  0  0  0  0  0  0  0  0
   20.3744   -7.9984  -19.7315 C   0  0  0  0  0  0  0  0  0  0  0  0
   21.2485   -8.6585  -18.7048 C   0  0  2  0  0  0  0  0  0  0  0  0
   20.8560  -10.0257  -18.4232 N   0  0  0  0  0  0  0  0  0  0  0  0
   21.0641   -7.8956  -17.4260 C   0  0  0  0  0  0  0  0  0  0  0  0
   20.1266   -8.1354  -16.6203 O   0  0  0  0  0  0  0  0  0  0  0  0
   21.9554   -6.8491  -17.0598 N   0  0  0  0  0  0  0  0  0  0  0  0
   21.8551   -6.1457  -15.7695 C   0  0  1  0  0  0  0  0  0  0  0  0
   23.1554   -6.2355  -15.0426 C   0  0  0  0  0  0  0  0  0  0  0  0
   23.4903   -7.6361  -14.7677 C   0  0  0  0  0  0  0  0  0  0  0  0
   24.4862   -8.3247  -15.4415 C   0  0  0  0  0  0  0  0  0  0  0  0
   24.7925   -9.6421  -15.1684 C   0  0  0  0  0  0  0  0  0  0  0  0
   24.0931  -10.3182  -14.1916 C   0  0  0  0  0  0  0  0  0  0  0  0
   23.0977   -9.6411  -13.5136 C   0  0  0  0  0  0  0  0  0  0  0  0
   22.7847   -8.3303  -13.7772 C   0  0  0  0  0  0  0  0  0  0  0  0
   21.3697   -4.7926  -16.0398 C   0  0  0  0  0  0  0  0  0  0  0  0
   21.2832   -4.3579  -17.2262 O   0  0  0  0  0  0  0  0  0  0  0  0
   20.9779   -3.9090  -15.0524 O   0  0  0  0  0  0  0  0  0  0  0  0
  2  1  1  1
  3  4  1  0
  3  2  1  0
  5  4  1  0
  6  5  2  0
  7  2  1  0
  7  8  2  0
  9  5  1  0
 11 10  1  0
 12 11  2  0
 14 13  1  6
 13 11  1  0
 14 15  1  0
 15  7  1  0
 16 14  1  0
 17 16  2  0
 18 16  1  0
 19 27  1  0
 19 18  1  0
 20 21  1  0
 19 20  1  6
 21 22  2  0
 22 23  1  0
 24 23  2  0
 25 24  1  0
 26 21  1  0
 26 25  2  0
 27 29  1  0
 28 27  2  0
M  END
$$$$
