ENF.pdb
     RDKit          3D

 29 29  0  0  1  0  0  0  0  0999 V2000
   25.7210  -18.2709  -15.7001 N   0  0  0  0  0  0  0  0  0  0  0  0
   26.3327  -19.0446  -14.6653 C   0  0  1  0  0  0  0  0  0  0  0  0
   27.7499  -18.5217  -14.4908 C   0  0  0  0  0  0  0  0  0  0  0  0
   28.4863  -18.9074  -15.7607 C   0  0  0  0  0  0  0  0  0  0  0  0
   28.4131  -20.3654  -16.0161 C   0  0  0  0  0  0  0  0  0  0  0  0
   29.1288  -21.1910  -15.4021 O   0  0  0  0  0  0  0  0  0  0  0  0
   25.5799  -19.0798  -13.4032 C   0  0  0  0  0  0  0  0  0  0  0  0
   25.1251  -18.0139  -12.9109 O   0  0  0  0  0  0  0  0  0  0  0  0
   27.5213  -20.8101  -16.9651 O   0  0  0  0  0  0  0  0  0  0  0  0
   22.2425  -19.9274  -12.9981 N   0  0  0  0  0  0  0  0  0  0  0  0
   22.3775  -21.0324  -12.1366 C   0  0  0  0  0  0  0  0  0  0  0  0
   21.4231  -21.8510  -12.0838 O   0  0  0  0  0  0  0  0  0  0  0  0
   23.5490  -21.3119  -11.2874 C   0  0  0  0  0  0  0  0  0  0  0  0
   24.6110  -20.2543  -11.3753 C   0  0  2  0  0  0  0  0  0  0  0  0
   25.3024  -20.2523  -12.6500 N   0  0  0  0  0  0  0  0  0  0  0  0
   25.6415  -20.5899  -10.3378 C   0  0  0  0  0  0  0  0  0  0  0  0
   26.4946  -21.5022  -10.4969 O   0  0  0  0  0  0  0  0  0  0  0  0
   25.7023  -19.8802   -9.1063 N   0  0  0  0  0  0  0  0  0  0  0  0
   26.6422  -20.2463   -8.0329 C   0  0  1  0  0  0  0  0  0  0  0  0
   27.3298  -19.0233   -7.5244 C   0  0  0  0  0  0  0  0  0  0  0  0
   28.1384  -19.3461   -6.3448 C   0  0  0  0  0  0  0  0  0  0  0  0
   29.3618  -19.9927   -6.4171 C   0  0  0  0  0  0  0  0  0  0  0  0
   30.1133  -20.2860   -5.2976 C   0  0  0  0  0  0  0  0  0  0  0  0
   29.6478  -19.9311   -4.0496 C   0  0  0  0  0  0  0  0  0  0  0  0
   28.4290  -19.2860   -3.9660 C   0  0  0  0  0  0  0  0  0  0  0  0
   27.6730  -18.9892   -5.0733 C   0  0  0  0  0  0  0  0  0  0  0  0
   25.8982  -21.0179   -7.0376 C   0  0  0  0  0  0  0  0  0  0  0  0
   24.6367  -20.9356   -6.9613 O   0  0  0  0  0  0  0  0  0  0  0  0
   26.4945  -21.8726   -6.1303 O   0  0  0  0  0  0  0  0  0  0  0  0
  2  1  1  6
  3  4  1  0
  3  2  1  0
  5  4  1  0
  6  5  2  0
  7  2  1  0
  7  8  2  0
  9  5  1  0
 11 10  1  0
 12 11  2  0
 14 13  1  6
 13 11  1  0
 14 15  1  0
 15  7  1  0
 16 14  1  0
 17 16  2  0
 18 16  1  0
 19 27  1  0
 19 18  1  0
 20 21  1  0
 19 20  1  1
 21 22  2  0
 22 23  1  0
 24 23  2  0
 25 24  1  0
 26 21  1  0
 26 25  2  0
 27 29  1  0
 28 27  2  0
M  END
$$$$
