MGN.pdb
     RDKit          3D

 21 20  0  0  1  0  0  0  0  0999 V2000
    5.6245  -11.8295   27.1753 C   0  0  0  0  0  0  0  0  0  0  0  0
    7.0471  -12.2243   26.1265 S   0  0  0  0  0  0  0  0  0  0  0  0
    6.4873  -13.2571   24.7515 C   0  0  0  0  0  0  0  0  0  0  0  0
    7.5717  -13.3397   23.7000 C   0  0  0  0  0  0  0  0  0  0  0  0
    7.6279  -14.7622   23.2179 C   0  0  2  0  0  0  0  0  0  0  0  0
    6.9267  -15.6142   24.1257 N   0  0  0  0  0  0  0  0  0  0  0  0
    9.0093  -15.2446   23.0150 C   0  0  0  0  0  0  0  0  0  0  0  0
    9.8900  -14.5701   22.4112 O   0  0  0  0  0  0  0  0  0  0  0  0
    9.3908  -16.5041   23.5026 N   0  0  0  0  0  0  0  0  0  0  0  0
   10.6999  -17.0982   23.2258 C   0  0  0  0  0  0  0  0  0  0  0  0
   11.5257  -17.0582   24.4544 C   0  0  0  0  0  0  0  0  0  0  0  0
   12.7079  -17.5012   24.4334 O   0  0  0  0  0  0  0  0  0  0  0  0
    9.6614  -15.0544   29.2494 N   0  0  0  0  0  0  0  0  0  0  0  0
   10.1647  -15.0777   27.9212 C   0  0  0  0  0  0  0  0  0  0  0  0
    9.3494  -14.8855   26.9864 O   0  0  0  0  0  0  0  0  0  0  0  0
   11.5962  -15.3229   27.7189 C   0  0  0  0  0  0  0  0  0  0  0  0
   11.8472  -16.5491   26.8475 C   0  0  2  0  0  0  0  0  0  0  0  0
   11.0448  -16.5396   25.6656 N   0  0  0  0  0  0  0  0  0  0  0  0
   11.5760  -17.7271   27.7246 C   0  0  0  0  0  0  0  0  0  0  0  0
   10.6892  -18.5779   27.4872 O   0  0  0  0  0  0  0  0  0  0  0  0
   12.3666  -17.8588   28.8573 O   0  0  0  0  0  0  0  0  0  0  0  0
  2  1  1  0
  3  2  1  0
  4  5  1  0
  4  3  1  0
  5  6  1  1
  7  5  1  0
  7  8  2  0
  9  7  1  0
 10  9  1  0
 10 11  1  0
 11 18  1  0
 12 11  2  0
 13 14  1  0
 14 16  1  0
 15 14  2  0
 17 16  1  1
 17 19  1  0
 18 17  1  0
 19 21  1  0
 20 19  2  0
M  END
$$$$
