MGN.pdb
     RDKit          3D

 21 20  0  0  1  0  0  0  0  0999 V2000
    7.3326  -11.2897   26.1795 C   0  0  0  0  0  0  0  0  0  0  0  0
    7.2563  -12.4597   27.5597 S   0  0  0  0  0  0  0  0  0  0  0  0
    7.6257  -14.1174   26.9381 C   0  0  0  0  0  0  0  0  0  0  0  0
    6.6601  -14.4743   25.8296 C   0  0  0  0  0  0  0  0  0  0  0  0
    7.0650  -15.8180   25.2912 C   0  0  2  0  0  0  0  0  0  0  0  0
    8.0832  -16.3884   26.1156 N   0  0  0  0  0  0  0  0  0  0  0  0
    7.5081  -15.7615   23.8833 C   0  0  0  0  0  0  0  0  0  0  0  0
    6.8636  -16.2982   22.9389 O   0  0  0  0  0  0  0  0  0  0  0  0
    8.6938  -15.0897   23.5478 N   0  0  0  0  0  0  0  0  0  0  0  0
    9.2389  -15.0737   22.1892 C   0  0  0  0  0  0  0  0  0  0  0  0
   10.4524  -15.9211   22.1381 C   0  0  0  0  0  0  0  0  0  0  0  0
   11.0815  -16.0554   21.0516 O   0  0  0  0  0  0  0  0  0  0  0  0
   13.3415  -14.8982   25.0036 N   0  0  0  0  0  0  0  0  0  0  0  0
   13.7047  -15.9122   24.0773 C   0  0  0  0  0  0  0  0  0  0  0  0
   14.5262  -15.6112   23.1774 O   0  0  0  0  0  0  0  0  0  0  0  0
   13.1045  -17.2421   24.2237 C   0  0  0  0  0  0  0  0  0  0  0  0
   12.0401  -17.5072   23.1641 C   0  0  2  0  0  0  0  0  0  0  0  0
   10.9452  -16.5952   23.2650 N   0  0  0  0  0  0  0  0  0  0  0  0
   11.6302  -18.9306   23.3544 C   0  0  0  0  0  0  0  0  0  0  0  0
   10.4472  -19.2908   23.5488 O   0  0  0  0  0  0  0  0  0  0  0  0
   12.6379  -19.8834   23.3080 O   0  0  0  0  0  0  0  0  0  0  0  0
  2  1  1  0
  3  2  1  0
  4  5  1  0
  4  3  1  0
  5  6  1  1
  7  5  1  0
  7  8  2  0
  9  7  1  0
 10  9  1  0
 10 11  1  0
 11 18  1  0
 12 11  2  0
 13 14  1  0
 14 16  1  0
 15 14  2  0
 17 16  1  1
 17 19  1  0
 18 17  1  0
 19 21  1  0
 20 19  2  0
M  END
$$$$
