MGN.pdb
     RDKit          3D

 21 20  0  0  1  0  0  0  0  0999 V2000
    7.9153  -11.6371   26.9855 C   0  0  0  0  0  0  0  0  0  0  0  0
    6.2143  -11.9835   26.4696 S   0  0  0  0  0  0  0  0  0  0  0  0
    6.2449  -13.2434   25.1724 C   0  0  0  0  0  0  0  0  0  0  0  0
    7.5303  -14.0361   25.2604 C   0  0  0  0  0  0  0  0  0  0  0  0
    7.5126  -15.0524   24.1532 C   0  0  2  0  0  0  0  0  0  0  0  0
    6.3448  -15.8692   24.2579 N   0  0  0  0  0  0  0  0  0  0  0  0
    8.7299  -15.8885   24.1230 C   0  0  0  0  0  0  0  0  0  0  0  0
    8.8997  -16.8813   24.8851 O   0  0  0  0  0  0  0  0  0  0  0  0
    9.7618  -15.5921   23.2190 N   0  0  0  0  0  0  0  0  0  0  0  0
   10.9777  -16.4003   23.1110 C   0  0  0  0  0  0  0  0  0  0  0  0
   11.7124  -16.3543   24.3960 C   0  0  0  0  0  0  0  0  0  0  0  0
   12.6021  -15.4778   24.5818 O   0  0  0  0  0  0  0  0  0  0  0  0
   11.4094  -15.1244   28.0034 N   0  0  0  0  0  0  0  0  0  0  0  0
   10.9956  -16.3810   28.5209 C   0  0  0  0  0  0  0  0  0  0  0  0
   10.2367  -16.3774   29.5206 O   0  0  0  0  0  0  0  0  0  0  0  0
   11.4743  -17.6011   27.8633 C   0  0  0  0  0  0  0  0  0  0  0  0
   12.2809  -17.2926   26.6064 C   0  0  2  0  0  0  0  0  0  0  0  0
   11.4597  -17.2586   25.4380 N   0  0  0  0  0  0  0  0  0  0  0  0
   13.3405  -18.3431   26.5416 C   0  0  0  0  0  0  0  0  0  0  0  0
   14.4560  -18.2372   27.0995 O   0  0  0  0  0  0  0  0  0  0  0  0
   13.0430  -19.4879   25.8160 O   0  0  0  0  0  0  0  0  0  0  0  0
  2  1  1  0
  3  2  1  0
  4  5  1  0
  4  3  1  0
  5  6  1  1
  7  5  1  0
  7  8  2  0
  9  7  1  0
 10  9  1  0
 10 11  1  0
 11 18  1  0
 12 11  2  0
 13 14  1  0
 14 16  1  0
 15 14  2  0
 17 16  1  1
 17 19  1  0
 18 17  1  0
 19 21  1  0
 20 19  2  0
M  END
$$$$
