MGN.pdb
     RDKit          3D

 21 20  0  0  1  0  0  0  0  0999 V2000
    5.2607  -10.9984   27.1863 C   0  0  0  0  0  0  0  0  0  0  0  0
    6.6258  -11.5285   26.1209 S   0  0  0  0  0  0  0  0  0  0  0  0
    6.0425  -12.8630   25.0485 C   0  0  0  0  0  0  0  0  0  0  0  0
    7.1619  -13.3101   24.1345 C   0  0  0  0  0  0  0  0  0  0  0  0
    7.4805  -14.7393   24.4740 C   0  0  2  0  0  0  0  0  0  0  0  0
    7.7774  -14.8564   25.8668 N   0  0  0  0  0  0  0  0  0  0  0  0
    8.5834  -15.2896   23.6600 C   0  0  0  0  0  0  0  0  0  0  0  0
    8.3906  -15.9747   22.6166 O   0  0  0  0  0  0  0  0  0  0  0  0
    9.9155  -15.0589   24.0367 N   0  0  0  0  0  0  0  0  0  0  0  0
   11.0355  -15.8395   23.5080 C   0  0  0  0  0  0  0  0  0  0  0  0
   11.5807  -16.7028   24.5807 C   0  0  0  0  0  0  0  0  0  0  0  0
   12.6527  -17.3424   24.3907 O   0  0  0  0  0  0  0  0  0  0  0  0
   11.2960  -14.7224   27.0892 N   0  0  0  0  0  0  0  0  0  0  0  0
   10.9219  -15.4389   28.2574 C   0  0  0  0  0  0  0  0  0  0  0  0
   10.4655  -14.7797   29.2232 O   0  0  0  0  0  0  0  0  0  0  0  0
   11.0885  -16.8957   28.2690 C   0  0  0  0  0  0  0  0  0  0  0  0
   11.6279  -17.4186   26.9418 C   0  0  2  0  0  0  0  0  0  0  0  0
   10.9475  -16.8454   25.8241 N   0  0  0  0  0  0  0  0  0  0  0  0
   11.4870  -18.9039   27.0086 C   0  0  0  0  0  0  0  0  0  0  0  0
   10.7769  -19.5685   26.2207 O   0  0  0  0  0  0  0  0  0  0  0  0
   12.1941  -19.5550   28.0094 O   0  0  0  0  0  0  0  0  0  0  0  0
  2  1  1  0
  3  2  1  0
  4  5  1  0
  4  3  1  0
  5  6  1  1
  7  5  1  0
  7  8  2  0
  9  7  1  0
 10  9  1  0
 10 11  1  0
 11 18  1  0
 12 11  2  0
 13 14  1  0
 14 16  1  0
 15 14  2  0
 17 16  1  1
 17 19  1  0
 18 17  1  0
 19 21  1  0
 20 19  2  0
M  END
$$$$
