MGN.pdb
     RDKit          3D

 21 20  0  0  1  0  0  0  0  0999 V2000
    7.5055  -11.3570   26.7832 C   0  0  0  0  0  0  0  0  0  0  0  0
    6.0033  -12.0899   26.0862 S   0  0  0  0  0  0  0  0  0  0  0  0
    6.4106  -12.8504   24.4966 C   0  0  0  0  0  0  0  0  0  0  0  0
    6.6363  -14.3345   24.6832 C   0  0  0  0  0  0  0  0  0  0  0  0
    8.0884  -14.6099   24.4095 C   0  0  2  0  0  0  0  0  0  0  0  0
    8.4190  -14.2114   23.0777 N   0  0  0  0  0  0  0  0  0  0  0  0
    8.4564  -16.0225   24.6352 C   0  0  0  0  0  0  0  0  0  0  0  0
    8.0349  -16.6927   25.6193 O   0  0  0  0  0  0  0  0  0  0  0  0
    9.3110  -16.6769   23.7346 N   0  0  0  0  0  0  0  0  0  0  0  0
   10.7370  -16.3644   23.6250 C   0  0  0  0  0  0  0  0  0  0  0  0
   11.4689  -17.0208   24.7325 C   0  0  0  0  0  0  0  0  0  0  0  0
   12.7003  -17.2728   24.6115 O   0  0  0  0  0  0  0  0  0  0  0  0
   11.5660  -15.0044   27.7470 N   0  0  0  0  0  0  0  0  0  0  0  0
   10.8269  -15.8434   28.6232 C   0  0  0  0  0  0  0  0  0  0  0  0
   10.2002  -15.2957   29.5627 O   0  0  0  0  0  0  0  0  0  0  0  0
   10.8376  -17.2899   28.3826 C   0  0  0  0  0  0  0  0  0  0  0  0
   11.6037  -17.6514   27.1144 C   0  0  2  0  0  0  0  0  0  0  0  0
   10.8440  -17.3827   25.9349 N   0  0  0  0  0  0  0  0  0  0  0  0
   11.9614  -19.0942   27.2592 C   0  0  0  0  0  0  0  0  0  0  0  0
   11.4904  -20.0006   26.5357 O   0  0  0  0  0  0  0  0  0  0  0  0
   12.8679  -19.4167   28.2590 O   0  0  0  0  0  0  0  0  0  0  0  0
  2  1  1  0
  3  2  1  0
  4  5  1  0
  4  3  1  0
  5  6  1  6
  7  5  1  0
  7  8  2  0
  9  7  1  0
 10  9  1  0
 10 11  1  0
 11 18  1  0
 12 11  2  0
 13 14  1  0
 14 16  1  0
 15 14  2  0
 17 16  1  1
 17 19  1  0
 18 17  1  0
 19 21  1  0
 20 19  2  0
M  END
$$$$
