MGN.pdb
     RDKit          3D

 21 20  0  0  1  0  0  0  0  0999 V2000
    5.1473  -12.2900   27.1311 C   0  0  0  0  0  0  0  0  0  0  0  0
    6.7383  -12.0301   26.3060 S   0  0  0  0  0  0  0  0  0  0  0  0
    6.6871  -12.8222   24.6810 C   0  0  0  0  0  0  0  0  0  0  0  0
    8.0503  -13.3848   24.3437 C   0  0  0  0  0  0  0  0  0  0  0  0
    7.8440  -14.7586   23.7697 C   0  0  2  0  0  0  0  0  0  0  0  0
    7.1966  -15.5970   24.7287 N   0  0  0  0  0  0  0  0  0  0  0  0
    9.1003  -15.3790   23.3019 C   0  0  0  0  0  0  0  0  0  0  0  0
    9.8433  -14.8497   22.4285 O   0  0  0  0  0  0  0  0  0  0  0  0
    9.5135  -16.6111   23.8319 N   0  0  0  0  0  0  0  0  0  0  0  0
   10.8871  -17.1039   23.7149 C   0  0  0  0  0  0  0  0  0  0  0  0
   11.5028  -17.1630   25.0604 C   0  0  0  0  0  0  0  0  0  0  0  0
   12.7128  -17.5016   25.1851 O   0  0  0  0  0  0  0  0  0  0  0  0
   11.4124  -14.4246   27.1181 N   0  0  0  0  0  0  0  0  0  0  0  0
   10.6835  -14.8432   28.2633 C   0  0  0  0  0  0  0  0  0  0  0  0
   10.0850  -13.9614   28.9265 O   0  0  0  0  0  0  0  0  0  0  0  0
   10.6714  -16.2695   28.6031 C   0  0  0  0  0  0  0  0  0  0  0  0
   11.3307  -17.1190   27.5217 C   0  0  2  0  0  0  0  0  0  0  0  0
   10.7884  -16.8533   26.2271 N   0  0  0  0  0  0  0  0  0  0  0  0
   11.1393  -18.5362   27.9523 C   0  0  0  0  0  0  0  0  0  0  0  0
   11.6834  -19.0321   28.9647 O   0  0  0  0  0  0  0  0  0  0  0  0
   10.3072  -19.3216   27.1673 O   0  0  0  0  0  0  0  0  0  0  0  0
  2  1  1  0
  3  2  1  0
  4  5  1  0
  4  3  1  0
  5  6  1  1
  7  5  1  0
  7  8  2  0
  9  7  1  0
 10  9  1  0
 10 11  1  0
 11 18  1  0
 12 11  2  0
 13 14  1  0
 14 16  1  0
 15 14  2  0
 17 16  1  1
 17 19  1  0
 18 17  1  0
 19 21  1  0
 20 19  2  0
M  END
$$$$
