MGN.pdb
     RDKit          3D

 21 20  0  0  1  0  0  0  0  0999 V2000
    7.0534  -11.3067   26.9298 C   0  0  0  0  0  0  0  0  0  0  0  0
    5.9168  -12.1191   25.7775 S   0  0  0  0  0  0  0  0  0  0  0  0
    5.8927  -13.8915   26.1365 C   0  0  0  0  0  0  0  0  0  0  0  0
    7.2601  -14.4840   25.8763 C   0  0  0  0  0  0  0  0  0  0  0  0
    7.3613  -14.7598   24.4022 C   0  0  2  0  0  0  0  0  0  0  0  0
    6.5792  -15.9071   24.0646 N   0  0  0  0  0  0  0  0  0  0  0  0
    8.7557  -14.9292   23.9452 C   0  0  0  0  0  0  0  0  0  0  0  0
    9.6377  -14.0365   24.0873 O   0  0  0  0  0  0  0  0  0  0  0  0
    9.1488  -16.1234   23.3213 N   0  0  0  0  0  0  0  0  0  0  0  0
   10.4789  -16.3137   22.7401 C   0  0  0  0  0  0  0  0  0  0  0  0
   11.4392  -16.6539   23.8148 C   0  0  0  0  0  0  0  0  0  0  0  0
   12.6591  -16.8263   23.5382 O   0  0  0  0  0  0  0  0  0  0  0  0
    9.8199  -15.3030   28.3468 N   0  0  0  0  0  0  0  0  0  0  0  0
   11.1112  -15.6303   27.8533 C   0  0  0  0  0  0  0  0  0  0  0  0
   11.9275  -14.6908   27.6908 O   0  0  0  0  0  0  0  0  0  0  0  0
   11.4150  -17.0354   27.5641 C   0  0  0  0  0  0  0  0  0  0  0  0
   11.9726  -17.2203   26.1567 C   0  0  2  0  0  0  0  0  0  0  0  0
   11.0475  -16.7962   25.1541 N   0  0  0  0  0  0  0  0  0  0  0  0
   12.3213  -18.6687   26.0503 C   0  0  0  0  0  0  0  0  0  0  0  0
   11.5080  -19.5948   26.2680 O   0  0  0  0  0  0  0  0  0  0  0  0
   13.6259  -18.9730   25.6884 O   0  0  0  0  0  0  0  0  0  0  0  0
  2  1  1  0
  3  2  1  0
  4  5  1  0
  4  3  1  0
  5  6  1  1
  7  5  1  0
  7  8  2  0
  9  7  1  0
 10  9  1  0
 10 11  1  0
 11 18  1  0
 12 11  2  0
 13 14  1  0
 14 16  1  0
 15 14  2  0
 17 16  1  1
 17 19  1  0
 18 17  1  0
 19 21  1  0
 20 19  2  0
M  END
$$$$
