MGN.pdb
     RDKit          3D

 21 20  0  0  1  0  0  0  0  0999 V2000
    8.1525  -11.7663   28.0484 C   0  0  0  0  0  0  0  0  0  0  0  0
    6.6339  -12.4481   27.3353 S   0  0  0  0  0  0  0  0  0  0  0  0
    7.0664  -13.8488   26.2761 C   0  0  0  0  0  0  0  0  0  0  0  0
    6.6641  -13.5528   24.8482 C   0  0  0  0  0  0  0  0  0  0  0  0
    6.7407  -14.8422   24.0794 C   0  0  2  0  0  0  0  0  0  0  0  0
    6.4476  -15.9435   24.9414 N   0  0  0  0  0  0  0  0  0  0  0  0
    8.0452  -15.0364   23.4142 C   0  0  0  0  0  0  0  0  0  0  0  0
    8.6076  -14.1357   22.7304 O   0  0  0  0  0  0  0  0  0  0  0  0
    8.7140  -16.2650   23.5278 N   0  0  0  0  0  0  0  0  0  0  0  0
    9.9385  -16.5726   22.7866 C   0  0  0  0  0  0  0  0  0  0  0  0
   11.0881  -16.5779   23.7202 C   0  0  0  0  0  0  0  0  0  0  0  0
   12.2530  -16.7940   23.2836 O   0  0  0  0  0  0  0  0  0  0  0  0
    9.8560  -14.5800   28.2479 N   0  0  0  0  0  0  0  0  0  0  0  0
   10.5078  -15.7613   27.8032 C   0  0  0  0  0  0  0  0  0  0  0  0
    9.8826  -16.8448   27.9059 O   0  0  0  0  0  0  0  0  0  0  0  0
   11.8627  -15.6490   27.2539 C   0  0  0  0  0  0  0  0  0  0  0  0
   12.0395  -16.4921   25.9954 C   0  0  2  0  0  0  0  0  0  0  0  0
   10.9390  -16.3489   25.0959 N   0  0  0  0  0  0  0  0  0  0  0  0
   12.2199  -17.8952   26.4744 C   0  0  0  0  0  0  0  0  0  0  0  0
   11.4217  -18.8238   26.2146 O   0  0  0  0  0  0  0  0  0  0  0  0
   13.3430  -18.1528   27.2474 O   0  0  0  0  0  0  0  0  0  0  0  0
  2  1  1  0
  3  2  1  0
  4  5  1  0
  4  3  1  0
  5  6  1  1
  7  5  1  0
  7  8  2  0
  9  7  1  0
 10  9  1  0
 10 11  1  0
 11 18  1  0
 12 11  2  0
 13 14  1  0
 14 16  1  0
 15 14  2  0
 17 16  1  1
 17 19  1  0
 18 17  1  0
 19 21  1  0
 20 19  2  0
M  END
$$$$
