MGN.pdb
     RDKit          3D

 21 20  0  0  1  0  0  0  0  0999 V2000
    8.8286  -11.5766   18.9901 C   0  0  0  0  0  0  0  0  0  0  0  0
    8.2242  -12.5610   20.3848 S   0  0  0  0  0  0  0  0  0  0  0  0
    6.9670  -13.7131   19.7823 C   0  0  0  0  0  0  0  0  0  0  0  0
    6.3111  -14.4116   20.9529 C   0  0  0  0  0  0  0  0  0  0  0  0
    7.3889  -15.1357   21.7102 C   0  0  2  0  0  0  0  0  0  0  0  0
    7.7406  -16.3408   21.0277 N   0  0  0  0  0  0  0  0  0  0  0  0
    7.0125  -15.4224   23.1094 C   0  0  0  0  0  0  0  0  0  0  0  0
    6.7060  -14.5185   23.9366 O   0  0  0  0  0  0  0  0  0  0  0  0
    6.9853  -16.7476   23.5707 N   0  0  0  0  0  0  0  0  0  0  0  0
    6.6208  -17.1019   24.9436 C   0  0  0  0  0  0  0  0  0  0  0  0
    7.8521  -17.2869   25.7453 C   0  0  0  0  0  0  0  0  0  0  0  0
    7.7719  -17.6919   26.9386 O   0  0  0  0  0  0  0  0  0  0  0  0
   11.0405  -19.4169   28.5856 N   0  0  0  0  0  0  0  0  0  0  0  0
   10.0099  -19.1665   27.6404 C   0  0  0  0  0  0  0  0  0  0  0  0
    8.8232  -19.2209   28.0454 O   0  0  0  0  0  0  0  0  0  0  0  0
   10.3876  -18.8612   26.2568 C   0  0  0  0  0  0  0  0  0  0  0  0
   10.3091  -17.3673   25.9606 C   0  0  2  0  0  0  0  0  0  0  0  0
    9.1301  -17.0277   25.2288 N   0  0  0  0  0  0  0  0  0  0  0  0
   11.5656  -17.0376   25.2238 C   0  0  0  0  0  0  0  0  0  0  0  0
   11.5923  -16.6846   24.0231 O   0  0  0  0  0  0  0  0  0  0  0  0
   12.7527  -17.1373   25.9354 O   0  0  0  0  0  0  0  0  0  0  0  0
  2  1  1  0
  3  2  1  0
  4  5  1  0
  4  3  1  0
  5  6  1  6
  7  5  1  0
  7  8  2  0
  9  7  1  0
 10  9  1  0
 10 11  1  0
 11 18  1  0
 12 11  2  0
 13 14  1  0
 14 16  1  0
 15 14  2  0
 17 16  1  6
 17 19  1  0
 18 17  1  0
 19 21  1  0
 20 19  2  0
M  END
$$$$
