GME.pdb
     RDKit          3D

 22 21  0  0  1  0  0  0  0  0999 V2000
    5.5281  -18.1936   21.2121 N   0  0  0  0  0  0  0  0  0  0  0  0
    5.5640  -18.1690   22.6604 C   0  0  0  0  0  0  0  0  0  0  0  0
    6.5583  -17.1696   23.0804 C   0  0  0  0  0  0  0  0  0  0  0  0
    7.5125  -16.8049   22.3074 O   0  0  0  0  0  0  0  0  0  0  0  0
    5.6562  -10.9044   26.3424 C   0  0  0  0  0  0  0  0  0  0  0  0
    6.7067  -12.3366   26.6909 S   0  0  0  0  0  0  0  0  0  0  0  0
    6.3066  -13.7416   25.6244 C   0  0  0  0  0  0  0  0  0  0  0  0
    7.2068  -14.8888   26.0048 C   0  0  0  0  0  0  0  0  0  0  0  0
    7.6145  -15.7128   24.7975 C   0  0  2  0  0  0  0  0  0  0  0  0
    6.5180  -16.5543   24.3547 N   0  0  0  0  0  0  0  0  0  0  0  0
    8.7629  -16.5492   25.1689 C   0  0  0  0  0  0  0  0  0  0  0  0
    8.6941  -17.5713   25.9005 O   0  0  0  0  0  0  0  0  0  0  0  0
   10.0444  -16.2056   24.6850 N   0  0  0  0  0  0  0  0  0  0  0  0
   11.2354  -17.0428   24.8910 C   0  0  1  0  0  0  0  0  0  0  0  0
   12.3029  -16.4494   24.0175 C   0  0  0  0  0  0  0  0  0  0  0  0
   13.6304  -17.1194   24.1354 C   0  0  0  0  0  0  0  0  0  0  0  0
   14.5252  -16.5241   23.1114 C   0  0  0  0  0  0  0  0  0  0  0  0
   14.7165  -15.2853   23.0888 O   0  0  0  0  0  0  0  0  0  0  0  0
   11.5571  -17.1327   26.3088 C   0  0  0  0  0  0  0  0  0  0  0  0
   11.2955  -16.1738   27.0710 O   0  0  0  0  0  0  0  0  0  0  0  0
   15.1765  -17.3081   22.1570 O   0  0  0  0  0  0  0  0  0  0  0  0
   12.1524  -18.2583   26.8517 O   0  0  0  0  0  0  0  0  0  0  0  0
  2  3  1  0
  2  1  1  0
  3 10  1  0
  4  3  2  0
  6  7  1  0
  6  5  1  0
  9  8  1  1
  8  7  1  0
  9 11  1  0
 10  9  1  0
 11 13  1  0
 11 12  2  0
 13 14  1  0
 14 19  1  0
 14 15  1  6
 16 17  1  0
 16 15  1  0
 17 18  2  0
 19 22  1  0
 20 19  2  0
 21 17  1  0
M  END
$$$$
