GME.pdb
     RDKit          3D

 22 21  0  0  1  0  0  0  0  0999 V2000
    7.9076  -16.3610   19.0625 N   0  0  0  0  0  0  0  0  0  0  0  0
    7.1140  -16.5289   20.2631 C   0  0  0  0  0  0  0  0  0  0  0  0
    7.7995  -15.8428   21.3691 C   0  0  0  0  0  0  0  0  0  0  0  0
    9.0557  -15.5947   21.3304 O   0  0  0  0  0  0  0  0  0  0  0  0
    7.2185  -11.1044   27.6588 C   0  0  0  0  0  0  0  0  0  0  0  0
    6.4267  -12.2372   26.4901 S   0  0  0  0  0  0  0  0  0  0  0  0
    7.6411  -13.1629   25.5207 C   0  0  0  0  0  0  0  0  0  0  0  0
    6.8965  -13.9872   24.5022 C   0  0  0  0  0  0  0  0  0  0  0  0
    7.8396  -14.7822   23.6184 C   0  0  2  0  0  0  0  0  0  0  0  0
    7.1151  -15.4171   22.5329 N   0  0  0  0  0  0  0  0  0  0  0  0
    8.4988  -15.8054   24.4400 C   0  0  0  0  0  0  0  0  0  0  0  0
    7.9096  -16.7838   24.9693 O   0  0  0  0  0  0  0  0  0  0  0  0
    9.8893  -15.7088   24.6673 N   0  0  0  0  0  0  0  0  0  0  0  0
   10.6698  -16.7533   25.3469 C   0  0  1  0  0  0  0  0  0  0  0  0
   12.1095  -16.3767   25.1470 C   0  0  0  0  0  0  0  0  0  0  0  0
   12.6495  -16.7219   23.8001 C   0  0  0  0  0  0  0  0  0  0  0  0
   13.7154  -15.7397   23.4795 C   0  0  0  0  0  0  0  0  0  0  0  0
   13.6755  -15.0994   22.4024 O   0  0  0  0  0  0  0  0  0  0  0  0
   10.2397  -16.8923   26.7316 C   0  0  0  0  0  0  0  0  0  0  0  0
   10.2523  -18.0185   27.2799 O   0  0  0  0  0  0  0  0  0  0  0  0
   14.7784  -15.4956   24.3514 O   0  0  0  0  0  0  0  0  0  0  0  0
    9.8096  -15.8063   27.4743 O   0  0  0  0  0  0  0  0  0  0  0  0
  2  3  1  0
  2  1  1  0
  3 10  1  0
  4  3  2  0
  6  7  1  0
  6  5  1  0
  9  8  1  1
  8  7  1  0
  9 11  1  0
 10  9  1  0
 11 13  1  0
 11 12  2  0
 13 14  1  0
 14 19  1  0
 14 15  1  1
 16 17  1  0
 16 15  1  0
 17 18  2  0
 19 22  1  0
 20 19  2  0
 21 17  1  0
M  END
$$$$
