GME.pdb
     RDKit          3D

 22 21  0  0  1  0  0  0  0  0999 V2000
    7.0079  -19.8161   26.0921 N   0  0  0  0  0  0  0  0  0  0  0  0
    7.1184  -18.5085   26.7062 C   0  0  0  0  0  0  0  0  0  0  0  0
    7.2372  -17.5050   25.6372 C   0  0  0  0  0  0  0  0  0  0  0  0
    7.1496  -17.8272   24.4004 O   0  0  0  0  0  0  0  0  0  0  0  0
    7.6789  -11.1695   26.9916 C   0  0  0  0  0  0  0  0  0  0  0  0
    6.0444  -11.8954   26.7126 S   0  0  0  0  0  0  0  0  0  0  0  0
    6.1554  -13.6155   26.1645 C   0  0  0  0  0  0  0  0  0  0  0  0
    7.4003  -13.7604   25.3275 C   0  0  0  0  0  0  0  0  0  0  0  0
    7.5815  -15.1801   24.8234 C   0  0  2  0  0  0  0  0  0  0  0  0
    7.4517  -16.1327   25.9106 N   0  0  0  0  0  0  0  0  0  0  0  0
    8.9153  -15.2950   24.2199 C   0  0  0  0  0  0  0  0  0  0  0  0
    9.9894  -14.9856   24.7990 O   0  0  0  0  0  0  0  0  0  0  0  0
    9.0291  -15.7839   22.8999 N   0  0  0  0  0  0  0  0  0  0  0  0
   10.2824  -16.3113   22.3405 C   0  0  1  0  0  0  0  0  0  0  0  0
   10.7297  -17.3842   23.2910 C   0  0  0  0  0  0  0  0  0  0  0  0
   12.1109  -17.1933   23.8209 C   0  0  0  0  0  0  0  0  0  0  0  0
   12.4196  -18.3526   24.6952 C   0  0  0  0  0  0  0  0  0  0  0  0
   11.5526  -19.2357   24.8961 O   0  0  0  0  0  0  0  0  0  0  0  0
   10.0880  -16.7319   20.9595 C   0  0  0  0  0  0  0  0  0  0  0  0
    8.9402  -17.0218   20.5503 O   0  0  0  0  0  0  0  0  0  0  0  0
   13.6644  -18.5004   25.3103 O   0  0  0  0  0  0  0  0  0  0  0  0
   11.1442  -16.8249   20.0698 O   0  0  0  0  0  0  0  0  0  0  0  0
  2  3  1  0
  2  1  1  0
  3 10  1  0
  4  3  2  0
  6  7  1  0
  6  5  1  0
  9  8  1  1
  8  7  1  0
  9 11  1  0
 10  9  1  0
 11 13  1  0
 11 12  2  0
 13 14  1  0
 14 19  1  0
 14 15  1  1
 16 17  1  0
 16 15  1  0
 17 18  2  0
 19 22  1  0
 20 19  2  0
 21 17  1  0
M  END
$$$$
