GME.pdb
     RDKit          3D

 22 21  0  0  1  0  0  0  0  0999 V2000
    4.9565  -18.2818   21.7035 N   0  0  0  0  0  0  0  0  0  0  0  0
    5.0895  -18.0486   23.1273 C   0  0  0  0  0  0  0  0  0  0  0  0
    6.2289  -17.1433   23.3423 C   0  0  0  0  0  0  0  0  0  0  0  0
    7.2482  -17.1500   22.5663 O   0  0  0  0  0  0  0  0  0  0  0  0
    7.8282  -11.3252   26.8756 C   0  0  0  0  0  0  0  0  0  0  0  0
    6.2555  -12.1803   26.6082 S   0  0  0  0  0  0  0  0  0  0  0  0
    6.3926  -13.4627   25.3402 C   0  0  0  0  0  0  0  0  0  0  0  0
    7.2969  -14.5470   25.8673 C   0  0  0  0  0  0  0  0  0  0  0  0
    7.5262  -15.6414   24.8413 C   0  0  2  0  0  0  0  0  0  0  0  0
    6.2647  -16.2159   24.4112 N   0  0  0  0  0  0  0  0  0  0  0  0
    8.3641  -16.6831   25.4487 C   0  0  0  0  0  0  0  0  0  0  0  0
    7.9316  -17.6056   26.1881 O   0  0  0  0  0  0  0  0  0  0  0  0
    9.7547  -16.6726   25.2022 N   0  0  0  0  0  0  0  0  0  0  0  0
   10.6599  -17.7443   25.6426 C   0  0  1  0  0  0  0  0  0  0  0  0
   11.8038  -17.7327   24.6699 C   0  0  0  0  0  0  0  0  0  0  0  0
   11.7058  -16.6728   23.6249 C   0  0  0  0  0  0  0  0  0  0  0  0
   12.8849  -16.8118   22.7338 C   0  0  0  0  0  0  0  0  0  0  0  0
   13.6822  -15.8545   22.5939 O   0  0  0  0  0  0  0  0  0  0  0  0
   11.0196  -17.5654   27.0427 C   0  0  0  0  0  0  0  0  0  0  0  0
   10.6584  -16.5335   27.6539 O   0  0  0  0  0  0  0  0  0  0  0  0
   13.1453  -17.9927   22.0357 O   0  0  0  0  0  0  0  0  0  0  0  0
   11.7594  -18.5105   27.7322 O   0  0  0  0  0  0  0  0  0  0  0  0
  2  3  1  0
  2  1  1  0
  3 10  1  0
  4  3  2  0
  6  7  1  0
  6  5  1  0
  9  8  1  1
  8  7  1  0
  9 11  1  0
 10  9  1  0
 11 13  1  0
 11 12  2  0
 13 14  1  0
 14 19  1  0
 14 15  1  6
 16 17  1  0
 16 15  1  0
 17 18  2  0
 19 22  1  0
 20 19  2  0
 21 17  1  0
M  END
$$$$
