GME.pdb
     RDKit          3D

 22 21  0  0  1  0  0  0  0  0999 V2000
    7.7152  -14.1832   19.6204 N   0  0  0  0  0  0  0  0  0  0  0  0
    6.9858  -14.8548   20.6769 C   0  0  0  0  0  0  0  0  0  0  0  0
    7.6820  -14.6060   21.9487 C   0  0  0  0  0  0  0  0  0  0  0  0
    8.9486  -14.4206   21.9963 O   0  0  0  0  0  0  0  0  0  0  0  0
    7.7716  -10.9278   27.2204 C   0  0  0  0  0  0  0  0  0  0  0  0
    6.3460  -12.0374   27.1088 S   0  0  0  0  0  0  0  0  0  0  0  0
    6.2335  -12.8293   25.4866 C   0  0  0  0  0  0  0  0  0  0  0  0
    6.8213  -14.2125   25.5996 C   0  0  0  0  0  0  0  0  0  0  0  0
    7.7382  -14.5348   24.4342 C   0  0  2  0  0  0  0  0  0  0  0  0
    6.9970  -14.5549   23.1865 N   0  0  0  0  0  0  0  0  0  0  0  0
    8.3485  -15.8495   24.6697 C   0  0  0  0  0  0  0  0  0  0  0  0
    7.7116  -16.9344   24.7127 O   0  0  0  0  0  0  0  0  0  0  0  0
    9.7450  -15.9304   24.8642 N   0  0  0  0  0  0  0  0  0  0  0  0
   10.4652  -17.2028   25.0198 C   0  0  1  0  0  0  0  0  0  0  0  0
   11.6338  -17.1237   24.0803 C   0  0  0  0  0  0  0  0  0  0  0  0
   12.9171  -16.7349   24.7337 C   0  0  0  0  0  0  0  0  0  0  0  0
   13.8944  -16.4335   23.6578 C   0  0  0  0  0  0  0  0  0  0  0  0
   14.2159  -17.3228   22.8347 O   0  0  0  0  0  0  0  0  0  0  0  0
   10.7947  -17.4349   26.4196 C   0  0  0  0  0  0  0  0  0  0  0  0
   10.6141  -16.5267   27.2630 O   0  0  0  0  0  0  0  0  0  0  0  0
   14.4768  -15.1715   23.5241 O   0  0  0  0  0  0  0  0  0  0  0  0
   11.3098  -18.6429   26.8569 O   0  0  0  0  0  0  0  0  0  0  0  0
  2  3  1  0
  2  1  1  0
  3 10  1  0
  4  3  2  0
  6  7  1  0
  6  5  1  0
  9  8  1  1
  8  7  1  0
  9 11  1  0
 10  9  1  0
 11 13  1  0
 11 12  2  0
 13 14  1  0
 14 19  1  0
 14 15  1  6
 16 17  1  0
 16 15  1  0
 17 18  2  0
 19 22  1  0
 20 19  2  0
 21 17  1  0
M  END
$$$$
