GME.pdb
     RDKit          3D

 22 21  0  0  1  0  0  0  0  0999 V2000
    8.3756  -15.7518   19.1657 N   0  0  0  0  0  0  0  0  0  0  0  0
    7.3528  -15.7955   20.1910 C   0  0  0  0  0  0  0  0  0  0  0  0
    7.9468  -15.3344   21.4553 C   0  0  0  0  0  0  0  0  0  0  0  0
    9.2131  -15.3508   21.6483 O   0  0  0  0  0  0  0  0  0  0  0  0
    7.7311  -11.2555   27.9554 C   0  0  0  0  0  0  0  0  0  0  0  0
    6.9529  -11.8449   26.4312 S   0  0  0  0  0  0  0  0  0  0  0  0
    7.3781  -13.5674   26.0797 C   0  0  0  0  0  0  0  0  0  0  0  0
    6.7553  -13.9429   24.7597 C   0  0  0  0  0  0  0  0  0  0  0  0
    7.7659  -14.5641   23.8133 C   0  0  2  0  0  0  0  0  0  0  0  0
    7.1590  -14.8463   22.5255 N   0  0  0  0  0  0  0  0  0  0  0  0
    8.2618  -15.8100   24.4116 C   0  0  0  0  0  0  0  0  0  0  0  0
    7.5566  -16.8319   24.6191 O   0  0  0  0  0  0  0  0  0  0  0  0
    9.6201  -15.8944   24.7890 N   0  0  0  0  0  0  0  0  0  0  0  0
   10.2533  -17.1388   25.2498 C   0  0  1  0  0  0  0  0  0  0  0  0
   11.5775  -17.2039   24.5449 C   0  0  0  0  0  0  0  0  0  0  0  0
   12.7118  -16.6256   25.3219 C   0  0  0  0  0  0  0  0  0  0  0  0
   13.6542  -16.0143   24.3514 C   0  0  0  0  0  0  0  0  0  0  0  0
   13.5667  -14.7947   24.0746 O   0  0  0  0  0  0  0  0  0  0  0  0
   10.3100  -17.1743   26.7049 C   0  0  0  0  0  0  0  0  0  0  0  0
   10.4940  -18.2627   27.2968 O   0  0  0  0  0  0  0  0  0  0  0  0
   14.6552  -16.7609   23.7267 O   0  0  0  0  0  0  0  0  0  0  0  0
   10.1643  -16.0291   27.4686 O   0  0  0  0  0  0  0  0  0  0  0  0
  2  3  1  0
  2  1  1  0
  3 10  1  0
  4  3  2  0
  6  7  1  0
  6  5  1  0
  9  8  1  1
  8  7  1  0
  9 11  1  0
 10  9  1  0
 11 13  1  0
 11 12  2  0
 13 14  1  0
 14 19  1  0
 14 15  1  6
 16 17  1  0
 16 15  1  0
 17 18  2  0
 19 22  1  0
 20 19  2  0
 21 17  1  0
M  END
$$$$
