GME.pdb
     RDKit          3D

 22 21  0  0  1  0  0  0  0  0999 V2000
    8.2645  -15.1383   19.2053 N   0  0  0  0  0  0  0  0  0  0  0  0
    7.2133  -15.2282   20.1984 C   0  0  0  0  0  0  0  0  0  0  0  0
    7.7964  -14.9310   21.5158 C   0  0  0  0  0  0  0  0  0  0  0  0
    9.0467  -15.0855   21.7476 O   0  0  0  0  0  0  0  0  0  0  0  0
    8.6648  -11.5845   27.9406 C   0  0  0  0  0  0  0  0  0  0  0  0
    7.8495  -11.9081   26.3574 S   0  0  0  0  0  0  0  0  0  0  0  0
    7.1789  -13.5859   26.2750 C   0  0  0  0  0  0  0  0  0  0  0  0
    6.5812  -13.7840   24.9057 C   0  0  0  0  0  0  0  0  0  0  0  0
    7.5840  -14.3710   23.9298 C   0  0  2  0  0  0  0  0  0  0  0  0
    7.0152  -14.4575   22.5973 N   0  0  0  0  0  0  0  0  0  0  0  0
    7.9603  -15.7116   24.3964 C   0  0  0  0  0  0  0  0  0  0  0  0
    7.3284  -16.7655   24.1232 O   0  0  0  0  0  0  0  0  0  0  0  0
    9.1063  -15.8564   25.2088 N   0  0  0  0  0  0  0  0  0  0  0  0
    9.7441  -17.1532   25.4798 C   0  0  1  0  0  0  0  0  0  0  0  0
   10.7406  -17.3526   24.3744 C   0  0  0  0  0  0  0  0  0  0  0  0
   12.0241  -16.6182   24.5697 C   0  0  0  0  0  0  0  0  0  0  0  0
   12.9097  -16.9516   23.4259 C   0  0  0  0  0  0  0  0  0  0  0  0
   12.6079  -17.8899   22.6512 O   0  0  0  0  0  0  0  0  0  0  0  0
   10.2860  -17.1831   26.8315 C   0  0  0  0  0  0  0  0  0  0  0  0
   10.2420  -16.1547   27.5453 O   0  0  0  0  0  0  0  0  0  0  0  0
   14.0862  -16.2430   23.1745 O   0  0  0  0  0  0  0  0  0  0  0  0
   10.8579  -18.3260   27.3629 O   0  0  0  0  0  0  0  0  0  0  0  0
  2  3  1  0
  2  1  1  0
  3 10  1  0
  4  3  2  0
  6  7  1  0
  6  5  1  0
  9  8  1  1
  8  7  1  0
  9 11  1  0
 10  9  1  0
 11 13  1  0
 11 12  2  0
 13 14  1  0
 14 19  1  0
 14 15  1  6
 16 17  1  0
 16 15  1  0
 17 18  2  0
 19 22  1  0
 20 19  2  0
 21 17  1  0
M  END
$$$$
