GME.pdb
     RDKit          3D

 22 21  0  0  1  0  0  0  0  0999 V2000
    8.0167  -16.6649   19.1016 N   0  0  0  0  0  0  0  0  0  0  0  0
    7.1439  -16.6738   20.2581 C   0  0  0  0  0  0  0  0  0  0  0  0
    7.8277  -15.9758   21.3577 C   0  0  0  0  0  0  0  0  0  0  0  0
    9.0822  -15.7200   21.3142 O   0  0  0  0  0  0  0  0  0  0  0  0
    7.1209  -11.4158   27.8035 C   0  0  0  0  0  0  0  0  0  0  0  0
    6.3682  -12.5239   26.5862 S   0  0  0  0  0  0  0  0  0  0  0  0
    7.6113  -13.3291   25.5482 C   0  0  0  0  0  0  0  0  0  0  0  0
    6.8924  -14.1600   24.5166 C   0  0  0  0  0  0  0  0  0  0  0  0
    7.8592  -14.8626   23.5816 C   0  0  2  0  0  0  0  0  0  0  0  0
    7.1435  -15.5463   22.5202 N   0  0  0  0  0  0  0  0  0  0  0  0
    8.6390  -15.8338   24.3595 C   0  0  0  0  0  0  0  0  0  0  0  0
    8.1794  -16.9101   24.8231 O   0  0  0  0  0  0  0  0  0  0  0  0
   10.0011  -15.5662   24.6195 N   0  0  0  0  0  0  0  0  0  0  0  0
   10.8969  -16.5207   25.2891 C   0  0  1  0  0  0  0  0  0  0  0  0
   12.2856  -16.1379   24.8651 C   0  0  0  0  0  0  0  0  0  0  0  0
   12.8003  -16.9067   23.6951 C   0  0  0  0  0  0  0  0  0  0  0  0
   14.0701  -16.2699   23.2641 C   0  0  0  0  0  0  0  0  0  0  0  0
   14.9708  -16.0344   24.1038 O   0  0  0  0  0  0  0  0  0  0  0  0
   10.6544  -16.5271   26.7254 C   0  0  0  0  0  0  0  0  0  0  0  0
   10.0099  -15.5925   27.2545 O   0  0  0  0  0  0  0  0  0  0  0  0
   14.3040  -15.9206   21.9326 O   0  0  0  0  0  0  0  0  0  0  0  0
   11.1195  -17.5457   27.5391 O   0  0  0  0  0  0  0  0  0  0  0  0
  2  3  1  0
  2  1  1  0
  3 10  1  0
  4  3  2  0
  6  7  1  0
  6  5  1  0
  9  8  1  1
  8  7  1  0
  9 11  1  0
 10  9  1  0
 11 13  1  0
 11 12  2  0
 13 14  1  0
 14 19  1  0
 14 15  1  1
 16 17  1  0
 16 15  1  0
 17 18  2  0
 19 22  1  0
 20 19  2  0
 21 17  1  0
M  END
$$$$
