GME.pdb
     RDKit          3D

 22 21  0  0  1  0  0  0  0  0999 V2000
    8.1971  -16.3586   19.1785 N   0  0  0  0  0  0  0  0  0  0  0  0
    7.2752  -16.3886   20.2960 C   0  0  0  0  0  0  0  0  0  0  0  0
    7.9206  -15.7340   21.4444 C   0  0  0  0  0  0  0  0  0  0  0  0
    9.1770  -15.4842   21.4567 O   0  0  0  0  0  0  0  0  0  0  0  0
    7.0550  -11.5828   28.1461 C   0  0  0  0  0  0  0  0  0  0  0  0
    6.3296  -12.6118   26.8457 S   0  0  0  0  0  0  0  0  0  0  0  0
    7.5941  -13.3281   25.7690 C   0  0  0  0  0  0  0  0  0  0  0  0
    6.8972  -14.1008   24.6788 C   0  0  0  0  0  0  0  0  0  0  0  0
    7.8838  -14.7595   23.7324 C   0  0  2  0  0  0  0  0  0  0  0  0
    7.1954  -15.3421   22.5952 N   0  0  0  0  0  0  0  0  0  0  0  0
    8.6058  -15.8073   24.4652 C   0  0  0  0  0  0  0  0  0  0  0  0
    8.1273  -16.9355   24.7531 O   0  0  0  0  0  0  0  0  0  0  0  0
    9.9303  -15.5580   24.8873 N   0  0  0  0  0  0  0  0  0  0  0  0
   10.7984  -16.5911   25.4714 C   0  0  1  0  0  0  0  0  0  0  0  0
   12.1924  -16.2410   25.0366 C   0  0  0  0  0  0  0  0  0  0  0  0
   12.5183  -16.6540   23.6409 C   0  0  0  0  0  0  0  0  0  0  0  0
   13.8957  -16.1860   23.3452 C   0  0  0  0  0  0  0  0  0  0  0  0
   14.5534  -15.5771   24.2218 O   0  0  0  0  0  0  0  0  0  0  0  0
   10.5892  -16.6800   26.9102 C   0  0  0  0  0  0  0  0  0  0  0  0
   11.0702  -17.6411   27.5534 O   0  0  0  0  0  0  0  0  0  0  0  0
   14.4981  -16.4064   22.1050 O   0  0  0  0  0  0  0  0  0  0  0  0
    9.8648  -15.7248   27.6022 O   0  0  0  0  0  0  0  0  0  0  0  0
  2  3  1  0
  2  1  1  0
  3 10  1  0
  4  3  2  0
  6  7  1  0
  6  5  1  0
  9  8  1  1
  8  7  1  0
  9 11  1  0
 10  9  1  0
 11 13  1  0
 11 12  2  0
 13 14  1  0
 14 19  1  0
 14 15  1  1
 16 17  1  0
 16 15  1  0
 17 18  2  0
 19 22  1  0
 20 19  2  0
 21 17  1  0
M  END
$$$$
