GME.pdb
     RDKit          3D

 22 21  0  0  1  0  0  0  0  0999 V2000
    5.6651  -19.1580   22.4742 N   0  0  0  0  0  0  0  0  0  0  0  0
    5.9917  -18.6689   23.7984 C   0  0  0  0  0  0  0  0  0  0  0  0
    6.5976  -17.3355   23.6615 C   0  0  0  0  0  0  0  0  0  0  0  0
    7.3772  -17.0486   22.6863 O   0  0  0  0  0  0  0  0  0  0  0  0
    7.1895  -11.3685   27.8776 C   0  0  0  0  0  0  0  0  0  0  0  0
    6.2420  -11.4773   26.3393 S   0  0  0  0  0  0  0  0  0  0  0  0
    7.0055  -12.6126   25.1562 C   0  0  0  0  0  0  0  0  0  0  0  0
    6.3733  -13.9690   25.3346 C   0  0  0  0  0  0  0  0  0  0  0  0
    7.0297  -15.0193   24.4578 C   0  0  2  0  0  0  0  0  0  0  0  0
    6.3544  -16.2969   24.5921 N   0  0  0  0  0  0  0  0  0  0  0  0
    8.4343  -15.1556   24.8640 C   0  0  0  0  0  0  0  0  0  0  0  0
    9.2805  -14.2242   24.8297 O   0  0  0  0  0  0  0  0  0  0  0  0
    8.8933  -16.4073   25.3297 N   0  0  0  0  0  0  0  0  0  0  0  0
   10.2810  -16.6521   25.7496 C   0  0  1  0  0  0  0  0  0  0  0  0
   10.2324  -17.8823   26.6093 C   0  0  0  0  0  0  0  0  0  0  0  0
   11.5700  -18.3671   27.0572 C   0  0  0  0  0  0  0  0  0  0  0  0
   11.3494  -19.5463   27.9317 C   0  0  0  0  0  0  0  0  0  0  0  0
   11.4627  -19.4354   29.1753 O   0  0  0  0  0  0  0  0  0  0  0  0
   11.1596  -16.7261   24.5902 C   0  0  0  0  0  0  0  0  0  0  0  0
   12.2718  -16.1503   24.6111 O   0  0  0  0  0  0  0  0  0  0  0  0
   11.0105  -20.7965   27.4105 O   0  0  0  0  0  0  0  0  0  0  0  0
   10.8023  -17.4207   23.4474 O   0  0  0  0  0  0  0  0  0  0  0  0
  2  3  1  0
  2  1  1  0
  3 10  1  0
  4  3  2  0
  6  7  1  0
  6  5  1  0
  9  8  1  1
  8  7  1  0
  9 11  1  0
 10  9  1  0
 11 13  1  0
 11 12  2  0
 13 14  1  0
 14 19  1  0
 14 15  1  6
 16 17  1  0
 16 15  1  0
 17 18  2  0
 19 22  1  0
 20 19  2  0
 21 17  1  0
M  END
$$$$
