GME.pdb
     RDKit          3D

 22 21  0  0  1  0  0  0  0  0999 V2000
    7.3994  -16.5999   19.2559 N   0  0  0  0  0  0  0  0  0  0  0  0
    6.6572  -16.6615   20.4987 C   0  0  0  0  0  0  0  0  0  0  0  0
    7.4030  -15.9094   21.5195 C   0  0  0  0  0  0  0  0  0  0  0  0
    8.6702  -15.7403   21.4374 O   0  0  0  0  0  0  0  0  0  0  0  0
    7.2524  -11.3287   28.0078 C   0  0  0  0  0  0  0  0  0  0  0  0
    6.3704  -12.2505   26.7239 S   0  0  0  0  0  0  0  0  0  0  0  0
    7.4919  -13.2649   25.7315 C   0  0  0  0  0  0  0  0  0  0  0  0
    6.6894  -13.9090   24.6305 C   0  0  0  0  0  0  0  0  0  0  0  0
    7.5583  -14.7518   23.7153 C   0  0  2  0  0  0  0  0  0  0  0  0
    6.7679  -15.3301   22.6442 N   0  0  0  0  0  0  0  0  0  0  0  0
    8.1741  -15.8216   24.5106 C   0  0  0  0  0  0  0  0  0  0  0  0
    7.5616  -16.8339   24.9404 O   0  0  0  0  0  0  0  0  0  0  0  0
    9.5472  -15.7335   24.8289 N   0  0  0  0  0  0  0  0  0  0  0  0
   10.3412  -16.8783   25.2989 C   0  0  1  0  0  0  0  0  0  0  0  0
   11.5655  -16.9054   24.4300 C   0  0  0  0  0  0  0  0  0  0  0  0
   12.6602  -16.0024   24.8895 C   0  0  0  0  0  0  0  0  0  0  0  0
   13.7723  -16.1132   23.9124 C   0  0  0  0  0  0  0  0  0  0  0  0
   13.6849  -16.9118   22.9500 O   0  0  0  0  0  0  0  0  0  0  0  0
   10.5854  -16.7766   26.7313 C   0  0  0  0  0  0  0  0  0  0  0  0
   11.0378  -17.7612   27.3596 O   0  0  0  0  0  0  0  0  0  0  0  0
   14.9319  -15.3436   24.0260 O   0  0  0  0  0  0  0  0  0  0  0  0
   10.3300  -15.6116   27.4337 O   0  0  0  0  0  0  0  0  0  0  0  0
  2  3  1  0
  2  1  1  0
  3 10  1  0
  4  3  2  0
  6  7  1  0
  6  5  1  0
  9  8  1  1
  8  7  1  0
  9 11  1  0
 10  9  1  0
 11 13  1  0
 11 12  2  0
 13 14  1  0
 14 19  1  0
 14 15  1  6
 16 17  1  0
 16 15  1  0
 17 18  2  0
 19 22  1  0
 20 19  2  0
 21 17  1  0
M  END
$$$$
