GME.pdb
     RDKit          3D

 22 21  0  0  1  0  0  0  0  0999 V2000
    5.0249  -19.0352   22.0524 N   0  0  0  0  0  0  0  0  0  0  0  0
    5.2952  -18.7874   23.4541 C   0  0  0  0  0  0  0  0  0  0  0  0
    6.2477  -17.6706   23.5502 C   0  0  0  0  0  0  0  0  0  0  0  0
    7.1852  -17.5112   22.6917 O   0  0  0  0  0  0  0  0  0  0  0  0
    6.3231  -11.2395   26.0602 C   0  0  0  0  0  0  0  0  0  0  0  0
    7.4023  -12.3548   26.9916 S   0  0  0  0  0  0  0  0  0  0  0  0
    8.0242  -13.7061   25.9628 C   0  0  0  0  0  0  0  0  0  0  0  0
    6.9113  -14.7060   25.7810 C   0  0  0  0  0  0  0  0  0  0  0  0
    7.3104  -15.8339   24.8475 C   0  0  2  0  0  0  0  0  0  0  0  0
    6.1835  -16.7111   24.5890 N   0  0  0  0  0  0  0  0  0  0  0  0
    8.3985  -16.5956   25.4737 C   0  0  0  0  0  0  0  0  0  0  0  0
    8.2521  -17.3793   26.4479 O   0  0  0  0  0  0  0  0  0  0  0  0
    9.7096  -16.4581   24.9669 N   0  0  0  0  0  0  0  0  0  0  0  0
   10.8279  -17.3192   25.3790 C   0  0  1  0  0  0  0  0  0  0  0  0
   11.8254  -17.2505   24.2588 C   0  0  0  0  0  0  0  0  0  0  0  0
   12.6287  -15.9939   24.2330 C   0  0  0  0  0  0  0  0  0  0  0  0
   13.5678  -16.0859   23.0870 C   0  0  0  0  0  0  0  0  0  0  0  0
   13.5908  -17.1181   22.3757 O   0  0  0  0  0  0  0  0  0  0  0  0
   11.3222  -16.9213   26.6902 C   0  0  0  0  0  0  0  0  0  0  0  0
   10.9510  -15.8369   27.1954 O   0  0  0  0  0  0  0  0  0  0  0  0
   14.4399  -15.0444   22.7640 O   0  0  0  0  0  0  0  0  0  0  0  0
   12.2027  -17.7118   27.4083 O   0  0  0  0  0  0  0  0  0  0  0  0
  2  3  1  0
  2  1  1  0
  3 10  1  0
  4  3  2  0
  6  7  1  0
  6  5  1  0
  9  8  1  1
  8  7  1  0
  9 11  1  0
 10  9  1  0
 11 13  1  0
 11 12  2  0
 13 14  1  0
 14 19  1  0
 14 15  1  6
 16 17  1  0
 16 15  1  0
 17 18  2  0
 19 22  1  0
 20 19  2  0
 21 17  1  0
M  END
$$$$
