HVF.pdb
     RDKit          3D

 29 30  0  0  1  0  0  0  0  0999 V2000
   13.3601  -14.3941   18.6902 N   0  0  0  0  0  0  0  0  0  0  0  0
   12.5035  -15.3805   19.2649 C   0  0  1  0  0  0  0  0  0  0  0  0
   13.3359  -16.4380   19.9425 C   0  0  0  0  0  0  0  0  0  0  0  0
   14.0148  -17.2341   18.8882 C   0  0  0  0  0  0  0  0  0  0  0  0
   13.4256  -17.9688   17.8799 C   0  0  0  0  0  0  0  0  0  0  0  0
   14.3664  -18.5525   17.1199 N   0  0  0  0  0  0  0  0  0  0  0  0
   15.5641  -18.1921   17.6409 C   0  0  0  0  0  0  0  0  0  0  0  0
   15.3449  -17.3941   18.7111 N   0  0  0  0  0  0  0  0  0  0  0  0
   11.5364  -14.7625   20.2538 C   0  0  0  0  0  0  0  0  0  0  0  0
   12.0331  -13.9808   21.0548 O   0  0  0  0  0  0  0  0  0  0  0  0
    8.0752  -13.2302   19.2300 C   0  0  0  0  0  0  0  0  0  0  0  0
    7.8359  -14.2797   20.2975 C   0  0  2  0  0  0  0  0  0  0  0  0
    6.7572  -13.7541   21.1887 C   0  0  0  0  0  0  0  0  0  0  0  0
    9.0978  -14.5510   21.0427 C   0  0  2  0  0  0  0  0  0  0  0  0
   10.1923  -15.0561   20.2561 N   0  0  0  0  0  0  0  0  0  0  0  0
    9.0017  -15.3365   22.2656 C   0  0  0  0  0  0  0  0  0  0  0  0
    9.3888  -16.5741   22.2370 O   0  0  0  0  0  0  0  0  0  0  0  0
    8.5317  -14.9230   23.5327 N   0  0  0  0  0  0  0  0  0  0  0  0
    8.7800  -15.6969   24.7638 C   0  0  1  0  0  0  0  0  0  0  0  0
    9.1498  -14.8078   25.8946 C   0  0  0  0  0  0  0  0  0  0  0  0
    8.1109  -13.8383   26.2839 C   0  0  0  0  0  0  0  0  0  0  0  0
    6.9040  -13.8486   25.5845 C   0  0  0  0  0  0  0  0  0  0  0  0
    5.8980  -12.9657   25.9057 C   0  0  0  0  0  0  0  0  0  0  0  0
    6.1005  -12.0687   26.9312 C   0  0  0  0  0  0  0  0  0  0  0  0
    7.2844  -12.0410   27.6350 C   0  0  0  0  0  0  0  0  0  0  0  0
    8.2799  -12.9267   27.3049 C   0  0  0  0  0  0  0  0  0  0  0  0
    7.6583  -16.6227   25.0317 C   0  0  0  0  0  0  0  0  0  0  0  0
    7.7319  -17.4293   25.9664 O   0  0  0  0  0  0  0  0  0  0  0  0
    6.5318  -16.5809   24.2317 O   0  0  0  0  0  0  0  0  0  0  0  0
  2  1  1  1
  2  9  1  0
  2  3  1  0
  3  4  1  0
  4  5  2  0
  4  8  1  0
  5  6  1  0
  6  7  1  0
  8  7  2  0
  9 10  2  0
 12 11  1  6
 12 14  1  0
 13 12  1  0
 14 15  1  6
 15  9  1  0
 16 17  2  0
 16 14  1  0
 18 16  1  0
 19 18  1  0
 19 27  1  0
 19 20  1  1
 21 20  1  0
 21 26  1  0
 22 21  2  0
 23 22  1  0
 23 24  2  0
 24 25  1  0
 25 26  2  0
 27 28  2  0
 27 29  1  0
M  END
$$$$
