HVF.pdb
     RDKit          3D

 29 30  0  0  1  0  0  0  0  0999 V2000
    9.9194  -18.1897   18.0546 N   0  0  0  0  0  0  0  0  0  0  0  0
    9.0299  -18.1041   19.1675 C   0  0  1  0  0  0  0  0  0  0  0  0
    9.1380  -19.3574   19.9968 C   0  0  0  0  0  0  0  0  0  0  0  0
    7.8089  -20.0205   20.0031 C   0  0  0  0  0  0  0  0  0  0  0  0
    6.6917  -19.6702   19.2732 C   0  0  0  0  0  0  0  0  0  0  0  0
    5.6775  -20.5069   19.5460 N   0  0  0  0  0  0  0  0  0  0  0  0
    6.1436  -21.3979   20.4541 C   0  0  0  0  0  0  0  0  0  0  0  0
    7.4343  -21.0985   20.7269 N   0  0  0  0  0  0  0  0  0  0  0  0
    9.3267  -16.8864   20.0185 C   0  0  0  0  0  0  0  0  0  0  0  0
   10.4970  -16.7526   20.3529 O   0  0  0  0  0  0  0  0  0  0  0  0
    7.8967  -13.2377   19.3801 C   0  0  0  0  0  0  0  0  0  0  0  0
    7.5173  -13.6853   20.7780 C   0  0  2  0  0  0  0  0  0  0  0  0
    7.6484  -12.4907   21.6668 C   0  0  0  0  0  0  0  0  0  0  0  0
    8.3951  -14.8084   21.2134 C   0  0  2  0  0  0  0  0  0  0  0  0
    8.3524  -15.9898   20.3924 N   0  0  0  0  0  0  0  0  0  0  0  0
    8.3297  -15.2105   22.6119 C   0  0  0  0  0  0  0  0  0  0  0  0
    7.2440  -15.7743   23.0426 O   0  0  0  0  0  0  0  0  0  0  0  0
    9.3247  -15.0723   23.6061 N   0  0  0  0  0  0  0  0  0  0  0  0
    9.1016  -15.4571   25.0127 C   0  0  1  0  0  0  0  0  0  0  0  0
    7.6893  -15.2354   25.4152 C   0  0  0  0  0  0  0  0  0  0  0  0
    7.3946  -13.8816   25.9160 C   0  0  0  0  0  0  0  0  0  0  0  0
    6.0623  -13.5398   26.1484 C   0  0  0  0  0  0  0  0  0  0  0  0
    5.7289  -12.2892   26.6168 C   0  0  0  0  0  0  0  0  0  0  0  0
    6.7330  -11.3765   26.8538 C   0  0  0  0  0  0  0  0  0  0  0  0
    8.0551  -11.6927   26.6313 C   0  0  0  0  0  0  0  0  0  0  0  0
    8.3746  -12.9433   26.1640 C   0  0  0  0  0  0  0  0  0  0  0  0
    9.6235  -16.8169   25.2692 C   0  0  0  0  0  0  0  0  0  0  0  0
   10.0404  -17.5065   24.3309 O   0  0  0  0  0  0  0  0  0  0  0  0
    9.6404  -17.3100   26.5604 O   0  0  0  0  0  0  0  0  0  0  0  0
  2  1  1  6
  2  9  1  0
  2  3  1  0
  3  4  1  0
  4  5  2  0
  4  8  1  0
  5  6  1  0
  6  7  1  0
  8  7  2  0
  9 10  2  0
 12 11  1  6
 12 14  1  0
 13 12  1  0
 14 15  1  6
 15  9  1  0
 16 17  2  0
 16 14  1  0
 18 16  1  0
 19 18  1  0
 19 27  1  0
 19 20  1  6
 21 20  1  0
 21 26  1  0
 22 21  2  0
 23 22  1  0
 23 24  2  0
 24 25  1  0
 25 26  2  0
 27 28  2  0
 27 29  1  0
M  END
$$$$
