HVF.pdb
     RDKit          3D

 29 30  0  0  1  0  0  0  0  0999 V2000
    8.9071  -18.9564   19.0415 N   0  0  0  0  0  0  0  0  0  0  0  0
    8.1604  -18.3552   20.0988 C   0  0  1  0  0  0  0  0  0  0  0  0
    8.0757  -19.3094   21.2619 C   0  0  0  0  0  0  0  0  0  0  0  0
    7.2760  -20.4857   20.8342 C   0  0  0  0  0  0  0  0  0  0  0  0
    6.6856  -20.6985   19.6054 C   0  0  0  0  0  0  0  0  0  0  0  0
    6.0455  -21.8789   19.5958 N   0  0  0  0  0  0  0  0  0  0  0  0
    6.2247  -22.4269   20.8219 C   0  0  0  0  0  0  0  0  0  0  0  0
    6.9703  -21.5791   21.5672 N   0  0  0  0  0  0  0  0  0  0  0  0
    8.7839  -17.0469   20.5398 C   0  0  0  0  0  0  0  0  0  0  0  0
    9.9620  -16.8997   20.2400 O   0  0  0  0  0  0  0  0  0  0  0  0
    7.3865  -13.5056   19.9019 C   0  0  0  0  0  0  0  0  0  0  0  0
    7.5040  -13.6797   21.4033 C   0  0  2  0  0  0  0  0  0  0  0  0
    7.9625  -12.3695   21.9576 C   0  0  0  0  0  0  0  0  0  0  0  0
    8.4517  -14.7858   21.7192 C   0  0  2  0  0  0  0  0  0  0  0  0
    8.0796  -16.0871   21.2295 N   0  0  0  0  0  0  0  0  0  0  0  0
    8.8963  -14.9174   23.1001 C   0  0  0  0  0  0  0  0  0  0  0  0
    9.5452  -13.9311   23.6370 O   0  0  0  0  0  0  0  0  0  0  0  0
    8.7086  -16.0108   23.9758 N   0  0  0  0  0  0  0  0  0  0  0  0
    9.0679  -15.9547   25.4055 C   0  0  1  0  0  0  0  0  0  0  0  0
    7.8864  -15.6348   26.2466 C   0  0  0  0  0  0  0  0  0  0  0  0
    7.5118  -14.2101   26.2700 C   0  0  0  0  0  0  0  0  0  0  0  0
    6.2209  -13.8610   25.8733 C   0  0  0  0  0  0  0  0  0  0  0  0
    5.8165  -12.5452   25.8758 C   0  0  0  0  0  0  0  0  0  0  0  0
    6.7077  -11.5746   26.2770 C   0  0  0  0  0  0  0  0  0  0  0  0
    7.9872  -11.8969   26.6727 C   0  0  0  0  0  0  0  0  0  0  0  0
    8.3783  -13.2127   26.6657 C   0  0  0  0  0  0  0  0  0  0  0  0
    9.8135  -17.1686   25.8027 C   0  0  0  0  0  0  0  0  0  0  0  0
   10.1626  -17.3226   26.9792 O   0  0  0  0  0  0  0  0  0  0  0  0
   10.1173  -18.1255   24.8526 O   0  0  0  0  0  0  0  0  0  0  0  0
  2  1  1  6
  2  9  1  0
  2  3  1  0
  3  4  1  0
  4  5  2  0
  4  8  1  0
  5  6  1  0
  6  7  1  0
  8  7  2  0
  9 10  2  0
 12 11  1  6
 12 14  1  0
 13 12  1  0
 14 15  1  1
 15  9  1  0
 16 17  2  0
 16 14  1  0
 18 16  1  0
 19 18  1  0
 19 27  1  0
 19 20  1  1
 21 20  1  0
 21 26  1  0
 22 21  2  0
 23 22  1  0
 23 24  2  0
 24 25  1  0
 25 26  2  0
 27 28  2  0
 27 29  1  0
M  END
$$$$
