HVF.pdb
     RDKit          3D

 29 30  0  0  1  0  0  0  0  0999 V2000
   11.3420  -17.4796   17.9950 N   0  0  0  0  0  0  0  0  0  0  0  0
   10.3502  -17.7844   18.9750 C   0  0  1  0  0  0  0  0  0  0  0  0
   10.7551  -19.0211   19.7344 C   0  0  0  0  0  0  0  0  0  0  0  0
   10.5115  -20.1974   18.8607 C   0  0  0  0  0  0  0  0  0  0  0  0
    9.2941  -20.7121   18.4647 C   0  0  0  0  0  0  0  0  0  0  0  0
    9.4772  -21.7824   17.6747 N   0  0  0  0  0  0  0  0  0  0  0  0
   10.8162  -21.9567   17.5623 C   0  0  0  0  0  0  0  0  0  0  0  0
   11.4371  -20.9943   18.2823 N   0  0  0  0  0  0  0  0  0  0  0  0
   10.1454  -16.6271   19.9309 C   0  0  0  0  0  0  0  0  0  0  0  0
   11.1668  -16.0526   20.2857 O   0  0  0  0  0  0  0  0  0  0  0  0
    7.5685  -13.6141   19.5980 C   0  0  0  0  0  0  0  0  0  0  0  0
    7.2625  -14.4376   20.8335 C   0  0  2  0  0  0  0  0  0  0  0  0
    6.7941  -13.4845   21.8853 C   0  0  0  0  0  0  0  0  0  0  0  0
    8.4743  -15.1935   21.2599 C   0  0  2  0  0  0  0  0  0  0  0  0
    8.9001  -16.2441   20.3729 N   0  0  0  0  0  0  0  0  0  0  0  0
    8.5080  -15.6957   22.6267 C   0  0  0  0  0  0  0  0  0  0  0  0
    8.2792  -16.9565   22.8275 O   0  0  0  0  0  0  0  0  0  0  0  0
    8.7704  -14.9753   23.8140 N   0  0  0  0  0  0  0  0  0  0  0  0
    8.7904  -15.6143   25.1434 C   0  0  1  0  0  0  0  0  0  0  0  0
    9.2270  -14.6599   26.1943 C   0  0  0  0  0  0  0  0  0  0  0  0
    8.2867  -13.5563   26.4561 C   0  0  0  0  0  0  0  0  0  0  0  0
    7.6223  -12.9846   25.3710 C   0  0  0  0  0  0  0  0  0  0  0  0
    6.7323  -11.9510   25.5570 C   0  0  0  0  0  0  0  0  0  0  0  0
    6.5063  -11.4876   26.8343 C   0  0  0  0  0  0  0  0  0  0  0  0
    7.1515  -12.0374   27.9201 C   0  0  0  0  0  0  0  0  0  0  0  0
    8.0366  -13.0677   27.7214 C   0  0  0  0  0  0  0  0  0  0  0  0
    7.5080  -16.3010   25.4101 C   0  0  0  0  0  0  0  0  0  0  0  0
    7.4236  -17.1151   26.3375 O   0  0  0  0  0  0  0  0  0  0  0  0
    6.4091  -16.0284   24.6172 O   0  0  0  0  0  0  0  0  0  0  0  0
  2  1  1  6
  2  9  1  0
  2  3  1  0
  3  4  1  0
  4  5  2  0
  4  8  1  0
  5  6  1  0
  6  7  1  0
  8  7  2  0
  9 10  2  0
 12 11  1  6
 12 14  1  0
 13 12  1  0
 14 15  1  6
 15  9  1  0
 16 17  2  0
 16 14  1  0
 18 16  1  0
 19 18  1  0
 19 27  1  0
 19 20  1  1
 21 20  1  0
 21 26  1  0
 22 21  2  0
 23 22  1  0
 23 24  2  0
 24 25  1  0
 25 26  2  0
 27 28  2  0
 27 29  1  0
M  END
$$$$
