HVF.pdb
     RDKit          3D

 29 30  0  0  1  0  0  0  0  0999 V2000
   10.5690  -17.8383   18.2932 N   0  0  0  0  0  0  0  0  0  0  0  0
    9.7247  -17.9816   19.4349 C   0  0  1  0  0  0  0  0  0  0  0  0
   10.0594  -19.2641   20.1516 C   0  0  0  0  0  0  0  0  0  0  0  0
    9.7041  -20.3961   19.2581 C   0  0  0  0  0  0  0  0  0  0  0  0
    8.4578  -20.7126   18.7578 C   0  0  0  0  0  0  0  0  0  0  0  0
    8.5321  -21.8080   17.9847 N   0  0  0  0  0  0  0  0  0  0  0  0
    9.8299  -22.1972   17.9876 C   0  0  0  0  0  0  0  0  0  0  0  0
   10.5345  -21.3388   18.7601 N   0  0  0  0  0  0  0  0  0  0  0  0
    9.8662  -16.8036   20.3769 C   0  0  0  0  0  0  0  0  0  0  0  0
   11.0079  -16.5625   20.7477 O   0  0  0  0  0  0  0  0  0  0  0  0
    7.0752  -13.7380   20.3353 C   0  0  0  0  0  0  0  0  0  0  0  0
    7.3766  -14.2441   21.7322 C   0  0  2  0  0  0  0  0  0  0  0  0
    7.4002  -13.0500   22.6308 C   0  0  0  0  0  0  0  0  0  0  0  0
    8.6722  -14.9809   21.7429 C   0  0  2  0  0  0  0  0  0  0  0  0
    8.7895  -16.0534   20.7902 N   0  0  0  0  0  0  0  0  0  0  0  0
    9.1722  -15.4445   23.0301 C   0  0  0  0  0  0  0  0  0  0  0  0
   10.4264  -15.2644   23.3069 O   0  0  0  0  0  0  0  0  0  0  0  0
    8.4537  -16.0848   24.0651 N   0  0  0  0  0  0  0  0  0  0  0  0
    9.0148  -16.2880   25.4142 C   0  0  1  0  0  0  0  0  0  0  0  0
    9.4688  -15.0049   26.0086 C   0  0  0  0  0  0  0  0  0  0  0  0
    8.3878  -14.0589   26.3363 C   0  0  0  0  0  0  0  0  0  0  0  0
    7.0888  -14.3797   25.9422 C   0  0  0  0  0  0  0  0  0  0  0  0
    6.0400  -13.5333   26.2223 C   0  0  0  0  0  0  0  0  0  0  0  0
    6.2923  -12.3608   26.8998 C   0  0  0  0  0  0  0  0  0  0  0  0
    7.5672  -12.0242   27.2984 C   0  0  0  0  0  0  0  0  0  0  0  0
    8.6045  -12.8769   27.0130 C   0  0  0  0  0  0  0  0  0  0  0  0
    8.0844  -17.0755   26.2516 C   0  0  0  0  0  0  0  0  0  0  0  0
    8.3959  -17.3716   27.4114 O   0  0  0  0  0  0  0  0  0  0  0  0
    6.8692  -17.4779   25.7299 O   0  0  0  0  0  0  0  0  0  0  0  0
  2  1  1  6
  2  9  1  0
  2  3  1  0
  3  4  1  0
  4  5  2  0
  4  8  1  0
  5  6  1  0
  6  7  1  0
  8  7  2  0
  9 10  2  0
 12 11  1  6
 12 14  1  0
 13 12  1  0
 14 15  1  6
 15  9  1  0
 16 17  2  0
 16 14  1  0
 18 16  1  0
 19 18  1  0
 19 27  1  0
 19 20  1  1
 21 20  1  0
 21 26  1  0
 22 21  2  0
 23 22  1  0
 23 24  2  0
 24 25  1  0
 25 26  2  0
 27 28  2  0
 27 29  1  0
M  END
$$$$
