HVF.pdb
     RDKit          3D

 29 30  0  0  1  0  0  0  0  0999 V2000
    9.2584  -15.7917   19.2328 N   0  0  0  0  0  0  0  0  0  0  0  0
    8.4260  -16.1544   20.3340 C   0  0  1  0  0  0  0  0  0  0  0  0
    8.3614  -17.6558   20.4439 C   0  0  0  0  0  0  0  0  0  0  0  0
    7.5987  -18.1697   19.2776 C   0  0  0  0  0  0  0  0  0  0  0  0
    7.1864  -17.4637   18.1661 C   0  0  0  0  0  0  0  0  0  0  0  0
    6.5209  -18.2706   17.3239 N   0  0  0  0  0  0  0  0  0  0  0  0
    6.5051  -19.4990   17.8953 C   0  0  0  0  0  0  0  0  0  0  0  0
    7.1590  -19.4318   19.0777 N   0  0  0  0  0  0  0  0  0  0  0  0
    8.9339  -15.5563   21.6299 C   0  0  0  0  0  0  0  0  0  0  0  0
   10.1434  -15.3735   21.6848 O   0  0  0  0  0  0  0  0  0  0  0  0
    6.5469  -13.3411   24.2269 C   0  0  0  0  0  0  0  0  0  0  0  0
    7.1807  -14.5549   24.8774 C   0  0  2  0  0  0  0  0  0  0  0  0
    7.5722  -14.1506   26.2621 C   0  0  0  0  0  0  0  0  0  0  0  0
    8.3494  -15.0157   24.0753 C   0  0  2  0  0  0  0  0  0  0  0  0
    8.0982  -15.2387   22.6756 N   0  0  0  0  0  0  0  0  0  0  0  0
    9.1221  -16.1361   24.5941 C   0  0  0  0  0  0  0  0  0  0  0  0
   10.0669  -16.6299   23.8552 O   0  0  0  0  0  0  0  0  0  0  0  0
    8.9862  -16.7853   25.8422 N   0  0  0  0  0  0  0  0  0  0  0  0
   10.1130  -17.4600   26.5139 C   0  0  1  0  0  0  0  0  0  0  0  0
   11.2905  -16.5618   26.6259 C   0  0  0  0  0  0  0  0  0  0  0  0
   11.1831  -15.5294   27.6714 C   0  0  0  0  0  0  0  0  0  0  0  0
   11.1611  -15.9403   29.0043 C   0  0  0  0  0  0  0  0  0  0  0  0
   11.0626  -15.0191   30.0223 C   0  0  0  0  0  0  0  0  0  0  0  0
   10.9858  -13.6808   29.7052 C   0  0  0  0  0  0  0  0  0  0  0  0
   11.0057  -13.2529   28.3960 C   0  0  0  0  0  0  0  0  0  0  0  0
   11.1043  -14.1816   27.3899 C   0  0  0  0  0  0  0  0  0  0  0  0
    9.6687  -18.0769   27.7825 C   0  0  0  0  0  0  0  0  0  0  0  0
    8.5151  -17.8927   28.1889 O   0  0  0  0  0  0  0  0  0  0  0  0
   10.5493  -18.8566   28.5085 O   0  0  0  0  0  0  0  0  0  0  0  0
  2  1  1  6
  2  9  1  0
  2  3  1  0
  3  4  1  0
  4  5  2  0
  4  8  1  0
  5  6  1  0
  6  7  1  0
  8  7  2  0
  9 10  2  0
 12 11  1  6
 12 14  1  0
 13 12  1  0
 14 15  1  6
 15  9  1  0
 16 17  2  0
 16 14  1  0
 18 16  1  0
 19 18  1  0
 19 27  1  0
 19 20  1  1
 21 20  1  0
 21 26  1  0
 22 21  2  0
 23 22  1  0
 23 24  2  0
 24 25  1  0
 25 26  2  0
 27 28  2  0
 27 29  1  0
M  END
$$$$
