HVF.pdb
     RDKit          3D

 29 30  0  0  1  0  0  0  0  0999 V2000
    8.2375  -16.7023   19.9719 N   0  0  0  0  0  0  0  0  0  0  0  0
    8.5511  -15.7066   20.9450 C   0  0  1  0  0  0  0  0  0  0  0  0
    7.5571  -14.5782   20.8500 C   0  0  0  0  0  0  0  0  0  0  0  0
    7.7039  -13.9477   19.5131 C   0  0  0  0  0  0  0  0  0  0  0  0
    8.3079  -12.7439   19.2136 C   0  0  0  0  0  0  0  0  0  0  0  0
    8.2447  -12.5083   17.8932 N   0  0  0  0  0  0  0  0  0  0  0  0
    7.5983  -13.5636   17.3417 C   0  0  0  0  0  0  0  0  0  0  0  0
    7.2734  -14.4317   18.3271 N   0  0  0  0  0  0  0  0  0  0  0  0
    8.5535  -16.2851   22.3452 C   0  0  0  0  0  0  0  0  0  0  0  0
    7.4736  -16.7044   22.7415 O   0  0  0  0  0  0  0  0  0  0  0  0
   10.4514  -19.2059   22.9415 C   0  0  0  0  0  0  0  0  0  0  0  0
   11.0181  -18.2515   23.9741 C   0  0  2  0  0  0  0  0  0  0  0  0
   11.3175  -19.0604   25.1948 C   0  0  0  0  0  0  0  0  0  0  0  0
   10.0449  -17.1570   24.2503 C   0  0  2  0  0  0  0  0  0  0  0  0
    9.6880  -16.3380   23.1217 N   0  0  0  0  0  0  0  0  0  0  0  0
   10.3132  -16.2893   25.3891 C   0  0  0  0  0  0  0  0  0  0  0  0
   11.1573  -15.3160   25.2390 O   0  0  0  0  0  0  0  0  0  0  0  0
    9.7574  -16.3571   26.6868 N   0  0  0  0  0  0  0  0  0  0  0  0
   10.1425  -15.4279   27.7659 C   0  0  1  0  0  0  0  0  0  0  0  0
    8.9535  -14.7542   28.3476 C   0  0  0  0  0  0  0  0  0  0  0  0
    8.2450  -13.8476   27.4273 C   0  0  0  0  0  0  0  0  0  0  0  0
    7.0163  -14.2599   26.9114 C   0  0  0  0  0  0  0  0  0  0  0  0
    6.3103  -13.4533   26.0478 C   0  0  0  0  0  0  0  0  0  0  0  0
    6.8361  -12.2289   25.6990 C   0  0  0  0  0  0  0  0  0  0  0  0
    8.0476  -11.8019   26.1965 C   0  0  0  0  0  0  0  0  0  0  0  0
    8.7419  -12.6156   27.0569 C   0  0  0  0  0  0  0  0  0  0  0  0
   11.0250  -16.1019   28.7427 C   0  0  0  0  0  0  0  0  0  0  0  0
   11.1009  -17.3363   28.7587 O   0  0  0  0  0  0  0  0  0  0  0  0
   11.7605  -15.3448   29.6352 O   0  0  0  0  0  0  0  0  0  0  0  0
  2  1  1  6
  2  9  1  0
  2  3  1  0
  3  4  1  0
  4  5  2  0
  4  8  1  0
  5  6  1  0
  6  7  1  0
  8  7  2  0
  9 10  2  0
 12 11  1  6
 12 14  1  0
 13 12  1  0
 14 15  1  6
 15  9  1  0
 16 17  2  0
 16 14  1  0
 18 16  1  0
 19 18  1  0
 19 27  1  0
 19 20  1  1
 21 20  1  0
 21 26  1  0
 22 21  2  0
 23 22  1  0
 23 24  2  0
 24 25  1  0
 25 26  2  0
 27 28  2  0
 27 29  1  0
M  END
$$$$
