HVF.pdb
     RDKit          3D

 29 30  0  0  1  0  0  0  0  0999 V2000
    9.2629  -18.3245   19.3788 N   0  0  0  0  0  0  0  0  0  0  0  0
    9.9025  -17.1662   18.8436 C   0  0  1  0  0  0  0  0  0  0  0  0
    9.5887  -17.0507   17.3744 C   0  0  0  0  0  0  0  0  0  0  0  0
   10.3304  -18.1215   16.6604 C   0  0  0  0  0  0  0  0  0  0  0  0
   11.2975  -18.9603   17.1750 C   0  0  0  0  0  0  0  0  0  0  0  0
   11.7382  -19.7995   16.2240 N   0  0  0  0  0  0  0  0  0  0  0  0
   11.0527  -19.4997   15.0944 C   0  0  0  0  0  0  0  0  0  0  0  0
   10.2019  -18.4832   15.3647 N   0  0  0  0  0  0  0  0  0  0  0  0
    9.4684  -15.9105   19.5715 C   0  0  0  0  0  0  0  0  0  0  0  0
    9.3589  -14.9106   18.8733 O   0  0  0  0  0  0  0  0  0  0  0  0
    7.7040  -13.5561   19.9180 C   0  0  0  0  0  0  0  0  0  0  0  0
    7.3945  -14.2320   21.2392 C   0  0  2  0  0  0  0  0  0  0  0  0
    6.8790  -13.1723   22.1587 C   0  0  0  0  0  0  0  0  0  0  0  0
    8.6169  -14.8950   21.7755 C   0  0  2  0  0  0  0  0  0  0  0  0
    9.2137  -15.8897   20.9234 N   0  0  0  0  0  0  0  0  0  0  0  0
    8.5575  -15.4197   23.1330 C   0  0  0  0  0  0  0  0  0  0  0  0
    7.6759  -16.3314   23.4050 O   0  0  0  0  0  0  0  0  0  0  0  0
    9.3607  -15.0653   24.2406 N   0  0  0  0  0  0  0  0  0  0  0  0
    9.1818  -15.6651   25.5764 C   0  0  1  0  0  0  0  0  0  0  0  0
    7.8033  -15.4481   26.0851 C   0  0  0  0  0  0  0  0  0  0  0  0
    7.4532  -14.0398   26.3400 C   0  0  0  0  0  0  0  0  0  0  0  0
    8.4560  -13.1826   26.7931 C   0  0  0  0  0  0  0  0  0  0  0  0
    8.1858  -11.8570   27.0470 C   0  0  0  0  0  0  0  0  0  0  0  0
    6.9065  -11.3871   26.8467 C   0  0  0  0  0  0  0  0  0  0  0  0
    5.9011  -12.2160   26.3998 C   0  0  0  0  0  0  0  0  0  0  0  0
    6.1835  -13.5360   26.1502 C   0  0  0  0  0  0  0  0  0  0  0  0
    9.6407  -17.0710   25.5813 C   0  0  0  0  0  0  0  0  0  0  0  0
    8.8143  -17.9912   25.5768 O   0  0  0  0  0  0  0  0  0  0  0  0
   10.9949  -17.3477   25.5924 O   0  0  0  0  0  0  0  0  0  0  0  0
  2  1  1  1
  2  9  1  0
  2  3  1  0
  3  4  1  0
  4  5  2  0
  4  8  1  0
  5  6  1  0
  6  7  1  0
  8  7  2  0
  9 10  2  0
 12 11  1  6
 12 14  1  0
 13 12  1  0
 14 15  1  6
 15  9  1  0
 16 17  2  0
 16 14  1  0
 18 16  1  0
 19 18  1  0
 19 27  1  0
 19 20  1  6
 21 20  1  0
 21 26  1  0
 22 21  2  0
 23 22  1  0
 23 24  2  0
 24 25  1  0
 25 26  2  0
 27 28  2  0
 27 29  1  0
M  END
$$$$
