HVF.pdb
     RDKit          3D

 29 30  0  0  1  0  0  0  0  0999 V2000
    7.0257  -16.5493   19.7038 N   0  0  0  0  0  0  0  0  0  0  0  0
    8.0678  -16.0714   20.5539 C   0  0  1  0  0  0  0  0  0  0  0  0
    7.7217  -14.6908   21.0482 C   0  0  0  0  0  0  0  0  0  0  0  0
    7.9701  -13.7309   19.9423 C   0  0  0  0  0  0  0  0  0  0  0  0
    8.4937  -14.0031   18.6951 C   0  0  0  0  0  0  0  0  0  0  0  0
    8.5687  -12.8773   17.9670 N   0  0  0  0  0  0  0  0  0  0  0  0
    8.0919  -11.8781   18.7481 C   0  0  0  0  0  0  0  0  0  0  0  0
    7.7311  -12.4007   19.9425 N   0  0  0  0  0  0  0  0  0  0  0  0
    8.2958  -17.0046   21.7252 C   0  0  0  0  0  0  0  0  0  0  0  0
    7.3069  -17.6163   22.1090 O   0  0  0  0  0  0  0  0  0  0  0  0
   11.1227  -19.5617   21.8469 C   0  0  0  0  0  0  0  0  0  0  0  0
   11.2455  -18.7564   23.1255 C   0  0  2  0  0  0  0  0  0  0  0  0
   11.5652  -19.7239   24.2189 C   0  0  0  0  0  0  0  0  0  0  0  0
    9.9812  -18.0115   23.3864 C   0  0  2  0  0  0  0  0  0  0  0  0
    9.5268  -17.1580   22.3202 N   0  0  0  0  0  0  0  0  0  0  0  0
    9.8766  -17.2825   24.6432 C   0  0  0  0  0  0  0  0  0  0  0  0
   10.5811  -16.2038   24.7922 O   0  0  0  0  0  0  0  0  0  0  0  0
    9.0796  -17.5941   25.7680 N   0  0  0  0  0  0  0  0  0  0  0  0
    9.0384  -16.7440   26.9729 C   0  0  1  0  0  0  0  0  0  0  0  0
    7.6664  -16.2359   27.2281 C   0  0  0  0  0  0  0  0  0  0  0  0
    7.4257  -14.8536   26.7786 C   0  0  0  0  0  0  0  0  0  0  0  0
    8.4328  -13.9097   26.9804 C   0  0  0  0  0  0  0  0  0  0  0  0
    8.2627  -12.6038   26.5800 C   0  0  0  0  0  0  0  0  0  0  0  0
    7.0797  -12.2407   25.9750 C   0  0  0  0  0  0  0  0  0  0  0  0
    6.0719  -13.1563   25.7659 C   0  0  0  0  0  0  0  0  0  0  0  0
    6.2540  -14.4557   26.1698 C   0  0  0  0  0  0  0  0  0  0  0  0
    9.6785  -17.4302   28.1160 C   0  0  0  0  0  0  0  0  0  0  0  0
    9.9583  -16.7959   29.1403 O   0  0  0  0  0  0  0  0  0  0  0  0
    9.9616  -18.7805   28.0310 O   0  0  0  0  0  0  0  0  0  0  0  0
  2  1  1  6
  2  9  1  0
  2  3  1  0
  3  4  1  0
  4  5  2  0
  4  8  1  0
  5  6  1  0
  6  7  1  0
  8  7  2  0
  9 10  2  0
 12 11  1  6
 12 14  1  0
 13 12  1  0
 14 15  1  6
 15  9  1  0
 16 17  2  0
 16 14  1  0
 18 16  1  0
 19 18  1  0
 19 27  1  0
 19 20  1  1
 21 20  1  0
 21 26  1  0
 22 21  2  0
 23 22  1  0
 23 24  2  0
 24 25  1  0
 25 26  2  0
 27 28  2  0
 27 29  1  0
M  END
$$$$
