HVF.pdb
     RDKit          3D

 29 30  0  0  1  0  0  0  0  0999 V2000
    9.9049  -16.9818   15.7199 N   0  0  0  0  0  0  0  0  0  0  0  0
    8.9989  -17.1484   16.8101 C   0  0  1  0  0  0  0  0  0  0  0  0
    8.8886  -18.6110   17.1548 C   0  0  0  0  0  0  0  0  0  0  0  0
    8.0904  -19.2747   16.0925 C   0  0  0  0  0  0  0  0  0  0  0  0
    6.7905  -18.9983   15.7216 C   0  0  0  0  0  0  0  0  0  0  0  0
    6.4106  -19.8089   14.7208 N   0  0  0  0  0  0  0  0  0  0  0  0
    7.4692  -20.6090   14.4470 C   0  0  0  0  0  0  0  0  0  0  0  0
    8.4830  -20.2811   15.2805 N   0  0  0  0  0  0  0  0  0  0  0  0
    9.4438  -16.3571   18.0229 C   0  0  0  0  0  0  0  0  0  0  0  0
   10.6487  -16.3636   18.2405 O   0  0  0  0  0  0  0  0  0  0  0  0
    7.5198  -12.9027   19.3021 C   0  0  0  0  0  0  0  0  0  0  0  0
    7.6473  -13.9653   20.3758 C   0  0  2  0  0  0  0  0  0  0  0  0
    7.9004  -13.2519   21.6646 C   0  0  0  0  0  0  0  0  0  0  0  0
    8.7458  -14.9125   20.0328 C   0  0  2  0  0  0  0  0  0  0  0  0
    8.5592  -15.6765   18.8274 N   0  0  0  0  0  0  0  0  0  0  0  0
    9.2162  -15.8061   21.0825 C   0  0  0  0  0  0  0  0  0  0  0  0
    8.5339  -16.8809   21.3306 O   0  0  0  0  0  0  0  0  0  0  0  0
   10.3608  -15.6650   21.8995 N   0  0  0  0  0  0  0  0  0  0  0  0
   10.6393  -16.5597   23.0389 C   0  0  1  0  0  0  0  0  0  0  0  0
   11.9355  -17.2642   22.8675 C   0  0  0  0  0  0  0  0  0  0  0  0
   12.0329  -18.0923   21.6529 C   0  0  0  0  0  0  0  0  0  0  0  0
   12.7054  -17.5677   20.5492 C   0  0  0  0  0  0  0  0  0  0  0  0
   12.8274  -18.2973   19.3884 C   0  0  0  0  0  0  0  0  0  0  0  0
   12.2741  -19.5575   19.3318 C   0  0  0  0  0  0  0  0  0  0  0  0
   11.6058  -20.0951   20.4097 C   0  0  0  0  0  0  0  0  0  0  0  0
   11.4910  -19.3573   21.5616 C   0  0  0  0  0  0  0  0  0  0  0  0
   10.4800  -15.8367   24.3192 C   0  0  0  0  0  0  0  0  0  0  0  0
   10.1962  -14.6329   24.3185 O   0  0  0  0  0  0  0  0  0  0  0  0
   10.6514  -16.5137   25.5121 O   0  0  0  0  0  0  0  0  0  0  0  0
  2  1  1  6
  2  9  1  0
  2  3  1  0
  3  4  1  0
  4  5  2  0
  4  8  1  0
  5  6  1  0
  6  7  1  0
  8  7  2  0
  9 10  2  0
 12 11  1  6
 12 14  1  0
 13 12  1  0
 14 15  1  6
 15  9  1  0
 16 17  2  0
 16 14  1  0
 18 16  1  0
 19 18  1  0
 19 27  1  0
 19 20  1  6
 21 20  1  0
 21 26  1  0
 22 21  2  0
 23 22  1  0
 23 24  2  0
 24 25  1  0
 25 26  2  0
 27 28  2  0
 27 29  1  0
M  END
$$$$
