HVF.pdb
     RDKit          3D

 29 30  0  0  1  0  0  0  0  0999 V2000
   10.7151  -17.7219   17.8072 N   0  0  0  0  0  0  0  0  0  0  0  0
    9.4999  -17.5818   18.5423 C   0  0  1  0  0  0  0  0  0  0  0  0
    9.0453  -18.9341   19.0271 C   0  0  0  0  0  0  0  0  0  0  0  0
    8.2764  -19.5801   17.9327 C   0  0  0  0  0  0  0  0  0  0  0  0
    7.5555  -18.9602   16.9328 C   0  0  0  0  0  0  0  0  0  0  0  0
    6.9959  -19.8770   16.1269 N   0  0  0  0  0  0  0  0  0  0  0  0
    7.3579  -21.0900   16.6098 C   0  0  0  0  0  0  0  0  0  0  0  0
    8.1329  -20.9040   17.7029 N   0  0  0  0  0  0  0  0  0  0  0  0
    9.6696  -16.6360   19.7136 C   0  0  0  0  0  0  0  0  0  0  0  0
   10.7763  -16.6430   20.2375 O   0  0  0  0  0  0  0  0  0  0  0  0
    7.9135  -12.9345   20.0233 C   0  0  0  0  0  0  0  0  0  0  0  0
    7.5534  -13.8462   21.1798 C   0  0  2  0  0  0  0  0  0  0  0  0
    7.5067  -12.9934   22.4064 C   0  0  0  0  0  0  0  0  0  0  0  0
    8.5531  -14.9454   21.2976 C   0  0  2  0  0  0  0  0  0  0  0  0
    8.6538  -15.8235   20.1615 N   0  0  0  0  0  0  0  0  0  0  0  0
    8.5259  -15.7530   22.5095 C   0  0  0  0  0  0  0  0  0  0  0  0
    7.7606  -16.7998   22.5372 O   0  0  0  0  0  0  0  0  0  0  0  0
    9.2487  -15.5524   23.7072 N   0  0  0  0  0  0  0  0  0  0  0  0
    9.2617  -16.5403   24.8027 C   0  0  1  0  0  0  0  0  0  0  0  0
   10.2832  -16.1987   25.8253 C   0  0  0  0  0  0  0  0  0  0  0  0
    9.8554  -15.1945   26.8148 C   0  0  0  0  0  0  0  0  0  0  0  0
    9.2334  -14.0351   26.3513 C   0  0  0  0  0  0  0  0  0  0  0  0
    8.8126  -13.0635   27.2308 C   0  0  0  0  0  0  0  0  0  0  0  0
    9.0152  -13.2527   28.5801 C   0  0  0  0  0  0  0  0  0  0  0  0
    9.6272  -14.3898   29.0597 C   0  0  0  0  0  0  0  0  0  0  0  0
   10.0423  -15.3514   28.1722 C   0  0  0  0  0  0  0  0  0  0  0  0
    7.8951  -16.7557   25.3254 C   0  0  0  0  0  0  0  0  0  0  0  0
    7.0001  -15.9407   25.0710 O   0  0  0  0  0  0  0  0  0  0  0  0
    7.6268  -17.8696   26.0985 O   0  0  0  0  0  0  0  0  0  0  0  0
  2  1  1  1
  2  9  1  0
  2  3  1  0
  3  4  1  0
  4  5  2  0
  4  8  1  0
  5  6  1  0
  6  7  1  0
  8  7  2  0
  9 10  2  0
 12 11  1  6
 12 14  1  0
 13 12  1  0
 14 15  1  6
 15  9  1  0
 16 17  2  0
 16 14  1  0
 18 16  1  0
 19 18  1  0
 19 27  1  0
 19 20  1  1
 21 20  1  0
 21 26  1  0
 22 21  2  0
 23 22  1  0
 23 24  2  0
 24 25  1  0
 25 26  2  0
 27 28  2  0
 27 29  1  0
M  END
$$$$
