HVF.pdb
     RDKit          3D

 29 30  0  0  1  0  0  0  0  0999 V2000
   11.2415  -15.3978   18.0837 N   0  0  0  0  0  0  0  0  0  0  0  0
   11.6443  -15.4527   19.4518 C   0  0  1  0  0  0  0  0  0  0  0  0
   12.4868  -14.2468   19.7779 C   0  0  0  0  0  0  0  0  0  0  0  0
   13.8382  -14.4604   19.1997 C   0  0  0  0  0  0  0  0  0  0  0  0
   14.7938  -15.3674   19.6097 C   0  0  0  0  0  0  0  0  0  0  0  0
   15.8908  -15.2652   18.8420 N   0  0  0  0  0  0  0  0  0  0  0  0
   15.6402  -14.2897   17.9357 C   0  0  0  0  0  0  0  0  0  0  0  0
   14.3962  -13.8063   18.1571 N   0  0  0  0  0  0  0  0  0  0  0  0
   10.4467  -15.5198   20.3772 C   0  0  0  0  0  0  0  0  0  0  0  0
    9.7340  -14.5242   20.3860 O   0  0  0  0  0  0  0  0  0  0  0  0
    7.6893  -18.0342   20.2271 C   0  0  0  0  0  0  0  0  0  0  0  0
    8.3116  -18.1992   21.5996 C   0  0  2  0  0  0  0  0  0  0  0  0
    7.1978  -18.5095   22.5468 C   0  0  0  0  0  0  0  0  0  0  0  0
    9.0459  -16.9600   21.9827 C   0  0  2  0  0  0  0  0  0  0  0  0
   10.1742  -16.6209   21.1558 N   0  0  0  0  0  0  0  0  0  0  0  0
    9.4305  -16.8102   23.3796 C   0  0  0  0  0  0  0  0  0  0  0  0
   10.5104  -17.3997   23.7898 O   0  0  0  0  0  0  0  0  0  0  0  0
    8.7691  -16.0790   24.3922 N   0  0  0  0  0  0  0  0  0  0  0  0
    9.3050  -15.9534   25.7609 C   0  0  1  0  0  0  0  0  0  0  0  0
    9.4262  -14.5292   26.1643 C   0  0  0  0  0  0  0  0  0  0  0  0
    8.1438  -13.8257   26.3411 C   0  0  0  0  0  0  0  0  0  0  0  0
    7.3399  -13.6277   25.2184 C   0  0  0  0  0  0  0  0  0  0  0  0
    6.1315  -12.9773   25.3251 C   0  0  0  0  0  0  0  0  0  0  0  0
    5.7256  -12.5230   26.5605 C   0  0  0  0  0  0  0  0  0  0  0  0
    6.5035  -12.7077   27.6823 C   0  0  0  0  0  0  0  0  0  0  0  0
    7.7066  -13.3579   27.5626 C   0  0  0  0  0  0  0  0  0  0  0  0
    8.5468  -16.8108   26.6974 C   0  0  0  0  0  0  0  0  0  0  0  0
    8.9441  -16.9597   27.8592 O   0  0  0  0  0  0  0  0  0  0  0  0
    7.3958  -17.4430   26.2659 O   0  0  0  0  0  0  0  0  0  0  0  0
  2  1  1  6
  2  9  1  0
  2  3  1  0
  3  4  1  0
  4  5  2  0
  4  8  1  0
  5  6  1  0
  6  7  1  0
  8  7  2  0
  9 10  2  0
 12 11  1  6
 12 14  1  0
 13 12  1  0
 14 15  1  6
 15  9  1  0
 16 17  2  0
 16 14  1  0
 18 16  1  0
 19 18  1  0
 19 27  1  0
 19 20  1  1
 21 20  1  0
 21 26  1  0
 22 21  2  0
 23 22  1  0
 23 24  2  0
 24 25  1  0
 25 26  2  0
 27 28  2  0
 27 29  1  0
M  END
$$$$
