STW.pdb
     RDKit          3D

 28 29  0  0  1  0  0  0  0  0999 V2000
    8.4002  -20.3459   21.1108 O   0  0  0  0  0  0  0  0  0  0  0  0
    7.1456  -19.8007   20.8801 C   0  0  0  0  0  0  0  0  0  0  0  0
    7.2408  -18.9497   19.6292 C   0  0  2  0  0  0  0  0  0  0  0  0
    7.9138  -19.6500   18.5558 N   0  0  0  0  0  0  0  0  0  0  0  0
    7.9939  -17.7078   19.9766 C   0  0  0  0  0  0  0  0  0  0  0  0
    9.2268  -17.6680   19.7089 O   0  0  0  0  0  0  0  0  0  0  0  0
    8.2381  -13.0670   21.2833 C   0  0  0  0  0  0  0  0  0  0  0  0
    7.3343  -14.2171   20.8577 C   0  0  1  0  0  0  0  0  0  0  0  0
    7.0794  -14.1179   19.4956 O   0  0  0  0  0  0  0  0  0  0  0  0
    8.1317  -15.4902   21.1176 C   0  0  2  0  0  0  0  0  0  0  0  0
    7.3880  -16.5912   20.5841 N   0  0  0  0  0  0  0  0  0  0  0  0
    8.4319  -15.6510   22.5602 C   0  0  0  0  0  0  0  0  0  0  0  0
    7.8209  -16.5055   23.2537 O   0  0  0  0  0  0  0  0  0  0  0  0
    9.4106  -14.8502   23.1980 N   0  0  0  0  0  0  0  0  0  0  0  0
    9.9607  -15.1228   24.5226 C   0  0  1  0  0  0  0  0  0  0  0  0
    8.8797  -15.7998   25.3101 C   0  0  0  0  0  0  0  0  0  0  0  0
    7.6732  -15.0312   25.5829 C   0  0  0  0  0  0  0  0  0  0  0  0
    6.3464  -15.4166   25.3739 C   0  0  0  0  0  0  0  0  0  0  0  0
    5.5863  -14.3895   25.7331 N   0  0  0  0  0  0  0  0  0  0  0  0
    6.3133  -13.3616   26.1620 C   0  0  0  0  0  0  0  0  0  0  0  0
    5.9470  -12.0999   26.6451 C   0  0  0  0  0  0  0  0  0  0  0  0
    6.9531  -11.2410   27.0380 C   0  0  0  0  0  0  0  0  0  0  0  0
    8.2861  -11.6062   26.9611 C   0  0  0  0  0  0  0  0  0  0  0  0
    8.6358  -12.8475   26.4848 C   0  0  0  0  0  0  0  0  0  0  0  0
    7.6337  -13.7347   26.0798 C   0  0  0  0  0  0  0  0  0  0  0  0
   11.2433  -15.8180   24.4499 C   0  0  0  0  0  0  0  0  0  0  0  0
   11.8506  -16.0503   23.3787 O   0  0  0  0  0  0  0  0  0  0  0  0
   11.8649  -16.2667   25.6113 O   0  0  0  0  0  0  0  0  0  0  0  0
  2  3  1  0
  2  1  1  0
  3  4  1  6
  5  6  2  0
  5  3  1  0
  8  7  1  6
  8  9  1  0
  8 10  1  0
 10 11  1  1
 11  5  1  0
 12 13  2  0
 12 10  1  0
 14 12  1  0
 15 16  1  1
 15 14  1  0
 17 25  1  0
 17 16  1  0
 18 17  2  0
 19 18  1  0
 19 20  1  0
 20 21  1  0
 20 25  2  0
 21 22  2  0
 22 23  1  0
 24 23  2  0
 25 24  1  0
 26 15  1  0
 27 26  2  0
 28 26  1  0
M  END
$$$$
