STW.pdb
     RDKit          3D

 28 29  0  0  1  0  0  0  0  0999 V2000
    9.5187  -12.5357   19.3794 O   0  0  0  0  0  0  0  0  0  0  0  0
    8.5354  -12.7076   18.4160 C   0  0  0  0  0  0  0  0  0  0  0  0
    8.7535  -14.0657   17.7787 C   0  0  2  0  0  0  0  0  0  0  0  0
    7.8896  -14.2645   16.6343 N   0  0  0  0  0  0  0  0  0  0  0  0
    8.4749  -15.1066   18.8127 C   0  0  0  0  0  0  0  0  0  0  0  0
    7.4458  -15.8234   18.6697 O   0  0  0  0  0  0  0  0  0  0  0  0
   10.5675  -17.7501   19.3422 C   0  0  0  0  0  0  0  0  0  0  0  0
    9.1864  -17.7043   19.9831 C   0  0  1  0  0  0  0  0  0  0  0  0
    9.0382  -18.7972   20.8280 O   0  0  0  0  0  0  0  0  0  0  0  0
    9.1579  -16.4292   20.8184 C   0  0  2  0  0  0  0  0  0  0  0  0
    9.3075  -15.3175   19.9286 N   0  0  0  0  0  0  0  0  0  0  0  0
   10.1962  -16.4564   21.8759 C   0  0  0  0  0  0  0  0  0  0  0  0
   11.3917  -16.1639   21.6121 O   0  0  0  0  0  0  0  0  0  0  0  0
    9.8746  -16.8120   23.2085 N   0  0  0  0  0  0  0  0  0  0  0  0
    9.8301  -15.8701   24.3232 C   0  0  1  0  0  0  0  0  0  0  0  0
    8.8000  -14.8375   23.9774 C   0  0  0  0  0  0  0  0  0  0  0  0
    7.6947  -14.6607   24.9090 C   0  0  0  0  0  0  0  0  0  0  0  0
    6.7202  -15.5951   25.2693 C   0  0  0  0  0  0  0  0  0  0  0  0
    5.8992  -14.9874   26.1168 N   0  0  0  0  0  0  0  0  0  0  0  0
    6.2617  -13.7272   26.3398 C   0  0  0  0  0  0  0  0  0  0  0  0
    5.7123  -12.7314   27.1558 C   0  0  0  0  0  0  0  0  0  0  0  0
    6.3404  -11.5030   27.1885 C   0  0  0  0  0  0  0  0  0  0  0  0
    7.4787  -11.2533   26.4416 C   0  0  0  0  0  0  0  0  0  0  0  0
    8.0104  -12.2377   25.6428 C   0  0  0  0  0  0  0  0  0  0  0  0
    7.3909  -13.4904   25.5927 C   0  0  0  0  0  0  0  0  0  0  0  0
    9.6642  -16.5482   25.6062 C   0  0  0  0  0  0  0  0  0  0  0  0
    9.0255  -17.6163   25.7528 O   0  0  0  0  0  0  0  0  0  0  0  0
   10.2306  -16.0148   26.7601 O   0  0  0  0  0  0  0  0  0  0  0  0
  2  3  1  0
  2  1  1  0
  3  4  1  6
  5  6  2  0
  5  3  1  0
  8  7  1  1
  8  9  1  0
  8 10  1  0
 10 11  1  6
 11  5  1  0
 12 13  2  0
 12 10  1  0
 14 12  1  0
 15 16  1  6
 15 14  1  0
 17 25  1  0
 17 16  1  0
 18 17  2  0
 19 18  1  0
 19 20  1  0
 20 21  1  0
 20 25  2  0
 21 22  2  0
 22 23  1  0
 24 23  2  0
 25 24  1  0
 26 15  1  0
 27 26  2  0
 28 26  1  0
M  END
$$$$
