STW.pdb
     RDKit          3D

 28 29  0  0  1  0  0  0  0  0999 V2000
    8.9955  -11.8886   17.8765 O   0  0  0  0  0  0  0  0  0  0  0  0
    8.4764  -12.7918   18.7927 C   0  0  0  0  0  0  0  0  0  0  0  0
    8.5101  -14.1642   18.1497 C   0  0  2  0  0  0  0  0  0  0  0  0
    7.5753  -14.2623   17.0489 N   0  0  0  0  0  0  0  0  0  0  0  0
    8.1670  -15.1699   19.1992 C   0  0  0  0  0  0  0  0  0  0  0  0
    7.0759  -15.7947   19.0869 O   0  0  0  0  0  0  0  0  0  0  0  0
    7.7266  -17.6526   19.3919 C   0  0  0  0  0  0  0  0  0  0  0  0
    8.7115  -17.8050   20.5439 C   0  0  1  0  0  0  0  0  0  0  0  0
    9.9801  -18.0466   20.0315 O   0  0  0  0  0  0  0  0  0  0  0  0
    8.7195  -16.4614   21.2643 C   0  0  2  0  0  0  0  0  0  0  0  0
    9.0050  -15.4456   20.2967 N   0  0  0  0  0  0  0  0  0  0  0  0
    9.6824  -16.4618   22.3912 C   0  0  0  0  0  0  0  0  0  0  0  0
   10.9181  -16.3446   22.1823 O   0  0  0  0  0  0  0  0  0  0  0  0
    9.2417  -16.5944   23.7307 N   0  0  0  0  0  0  0  0  0  0  0  0
   10.0449  -16.2462   24.8991 C   0  0  1  0  0  0  0  0  0  0  0  0
    9.6507  -14.8559   25.2974 C   0  0  0  0  0  0  0  0  0  0  0  0
    8.2349  -14.6051   25.5287 C   0  0  0  0  0  0  0  0  0  0  0  0
    7.1751  -15.5086   25.4146 C   0  0  0  0  0  0  0  0  0  0  0  0
    6.0642  -14.8347   25.6858 N   0  0  0  0  0  0  0  0  0  0  0  0
    6.3153  -13.5597   25.9694 C   0  0  0  0  0  0  0  0  0  0  0  0
    5.4703  -12.5010   26.3225 C   0  0  0  0  0  0  0  0  0  0  0  0
    6.0452  -11.2729   26.5785 C   0  0  0  0  0  0  0  0  0  0  0  0
    7.4136  -11.0833   26.4921 C   0  0  0  0  0  0  0  0  0  0  0  0
    8.2351  -12.1292   26.1441 C   0  0  0  0  0  0  0  0  0  0  0  0
    7.6754  -13.3830   25.8791 C   0  0  0  0  0  0  0  0  0  0  0  0
    9.9664  -17.2669   25.9409 C   0  0  0  0  0  0  0  0  0  0  0  0
   10.6261  -17.2285   27.0056 O   0  0  0  0  0  0  0  0  0  0  0  0
    9.1239  -18.3637   25.7864 O   0  0  0  0  0  0  0  0  0  0  0  0
  2  3  1  0
  2  1  1  0
  3  4  1  6
  5  6  2  0
  5  3  1  0
  8  7  1  6
  8  9  1  0
  8 10  1  0
 10 11  1  6
 11  5  1  0
 12 13  2  0
 12 10  1  0
 14 12  1  0
 15 16  1  1
 15 14  1  0
 17 25  1  0
 17 16  1  0
 18 17  2  0
 19 18  1  0
 19 20  1  0
 20 21  1  0
 20 25  2  0
 21 22  2  0
 22 23  1  0
 24 23  2  0
 25 24  1  0
 26 15  1  0
 27 26  2  0
 28 26  1  0
M  END
$$$$
