STW.pdb
     RDKit          3D

 28 29  0  0  1  0  0  0  0  0999 V2000
    5.4767  -17.2211   21.0967 O   0  0  0  0  0  0  0  0  0  0  0  0
    5.9068  -15.9459   20.7597 C   0  0  0  0  0  0  0  0  0  0  0  0
    7.1088  -16.0958   19.8482 C   0  0  2  0  0  0  0  0  0  0  0  0
    6.7925  -16.8743   18.6695 N   0  0  0  0  0  0  0  0  0  0  0  0
    8.1920  -16.7682   20.6260 C   0  0  0  0  0  0  0  0  0  0  0  0
    8.6782  -17.8370   20.1626 O   0  0  0  0  0  0  0  0  0  0  0  0
   12.1952  -17.2862   22.3834 C   0  0  0  0  0  0  0  0  0  0  0  0
   11.0074  -16.7724   21.5799 C   0  0  1  0  0  0  0  0  0  0  0  0
   10.7719  -17.6306   20.5130 O   0  0  0  0  0  0  0  0  0  0  0  0
    9.8127  -16.8236   22.5256 C   0  0  2  0  0  0  0  0  0  0  0  0
    8.6871  -16.2609   21.8426 N   0  0  0  0  0  0  0  0  0  0  0  0
   10.1084  -16.1319   23.8027 C   0  0  0  0  0  0  0  0  0  0  0  0
   10.3795  -14.9029   23.8216 O   0  0  0  0  0  0  0  0  0  0  0  0
   10.0955  -16.8313   25.0342 N   0  0  0  0  0  0  0  0  0  0  0  0
   10.3311  -16.2112   26.3348 C   0  0  1  0  0  0  0  0  0  0  0  0
    9.0432  -16.2992   27.0967 C   0  0  0  0  0  0  0  0  0  0  0  0
    7.8744  -15.6625   26.5056 C   0  0  0  0  0  0  0  0  0  0  0  0
    6.8016  -16.2770   25.8542 C   0  0  0  0  0  0  0  0  0  0  0  0
    5.9895  -15.3074   25.4519 N   0  0  0  0  0  0  0  0  0  0  0  0
    6.4475  -14.1054   25.7903 C   0  0  0  0  0  0  0  0  0  0  0  0
    5.9271  -12.8213   25.5913 C   0  0  0  0  0  0  0  0  0  0  0  0
    6.6428  -11.7500   26.0859 C   0  0  0  0  0  0  0  0  0  0  0  0
    7.8387  -11.9289   26.7594 C   0  0  0  0  0  0  0  0  0  0  0  0
    8.3419  -13.1941   26.9494 C   0  0  0  0  0  0  0  0  0  0  0  0
    7.6348  -14.2952   26.4564 C   0  0  0  0  0  0  0  0  0  0  0  0
   11.5144  -16.7569   26.9948 C   0  0  0  0  0  0  0  0  0  0  0  0
   12.1261  -17.7761   26.5983 O   0  0  0  0  0  0  0  0  0  0  0  0
   12.0286  -16.1430   28.1329 O   0  0  0  0  0  0  0  0  0  0  0  0
  2  3  1  0
  2  1  1  0
  3  4  1  6
  5  6  2  0
  5  3  1  0
  8  7  1  1
  8  9  1  0
  8 10  1  0
 10 11  1  6
 11  5  1  0
 12 13  2  0
 12 10  1  0
 14 12  1  0
 15 16  1  1
 15 14  1  0
 17 25  1  0
 17 16  1  0
 18 17  2  0
 19 18  1  0
 19 20  1  0
 20 21  1  0
 20 25  2  0
 21 22  2  0
 22 23  1  0
 24 23  2  0
 25 24  1  0
 26 15  1  0
 27 26  2  0
 28 26  1  0
M  END
$$$$
