STW.pdb
     RDKit          3D

 28 29  0  0  1  0  0  0  0  0999 V2000
    9.4316  -11.9499   18.3548 O   0  0  0  0  0  0  0  0  0  0  0  0
    8.9514  -12.8201   19.3227 C   0  0  0  0  0  0  0  0  0  0  0  0
    8.6192  -14.1294   18.6347 C   0  0  2  0  0  0  0  0  0  0  0  0
    7.4231  -14.0208   17.8266 N   0  0  0  0  0  0  0  0  0  0  0  0
    8.4258  -15.1660   19.6923 C   0  0  0  0  0  0  0  0  0  0  0  0
    7.2904  -15.2517   20.2373 O   0  0  0  0  0  0  0  0  0  0  0  0
    9.4659  -18.7097   19.6180 C   0  0  0  0  0  0  0  0  0  0  0  0
   10.0707  -18.2003   20.9200 C   0  0  1  0  0  0  0  0  0  0  0  0
   11.4159  -17.9172   20.7189 O   0  0  0  0  0  0  0  0  0  0  0  0
    9.3371  -16.9025   21.2391 C   0  0  2  0  0  0  0  0  0  0  0  0
    9.4497  -16.0424   20.1000 N   0  0  0  0  0  0  0  0  0  0  0  0
    9.8616  -16.2794   22.4775 C   0  0  0  0  0  0  0  0  0  0  0  0
   10.5492  -15.2263   22.4272 O   0  0  0  0  0  0  0  0  0  0  0  0
    9.6062  -16.8494   23.7487 N   0  0  0  0  0  0  0  0  0  0  0  0
   10.1030  -16.3051   25.0090 C   0  0  1  0  0  0  0  0  0  0  0  0
    9.5840  -14.9024   25.1101 C   0  0  0  0  0  0  0  0  0  0  0  0
    8.2108  -14.7311   25.5638 C   0  0  0  0  0  0  0  0  0  0  0  0
    7.1709  -15.6634   25.5185 C   0  0  0  0  0  0  0  0  0  0  0  0
    6.0936  -15.0620   26.0076 N   0  0  0  0  0  0  0  0  0  0  0  0
    6.3482  -13.8079   26.3703 C   0  0  0  0  0  0  0  0  0  0  0  0
    5.5350  -12.8200   26.9380 C   0  0  0  0  0  0  0  0  0  0  0  0
    6.1071  -11.5969   27.2229 C   0  0  0  0  0  0  0  0  0  0  0  0
    7.4425  -11.3448   26.9598 C   0  0  0  0  0  0  0  0  0  0  0  0
    8.2328  -12.3214   26.4017 C   0  0  0  0  0  0  0  0  0  0  0  0
    7.6751  -13.5686   26.1033 C   0  0  0  0  0  0  0  0  0  0  0  0
    9.8147  -17.1868   26.1372 C   0  0  0  0  0  0  0  0  0  0  0  0
   10.1781  -16.9550   27.3139 O   0  0  0  0  0  0  0  0  0  0  0  0
    9.0979  -18.3636   25.9426 O   0  0  0  0  0  0  0  0  0  0  0  0
  2  3  1  0
  2  1  1  0
  3  4  1  1
  5  6  2  0
  5  3  1  0
  8  7  1  6
  8  9  1  0
  8 10  1  0
 10 11  1  6
 11  5  1  0
 12 13  2  0
 12 10  1  0
 14 12  1  0
 15 16  1  1
 15 14  1  0
 17 25  1  0
 17 16  1  0
 18 17  2  0
 19 18  1  0
 19 20  1  0
 20 21  1  0
 20 25  2  0
 21 22  2  0
 22 23  1  0
 24 23  2  0
 25 24  1  0
 26 15  1  0
 27 26  2  0
 28 26  1  0
M  END
$$$$
