STW.pdb
     RDKit          3D

 28 29  0  0  1  0  0  0  0  0999 V2000
    8.1302  -13.8826   21.5689 O   0  0  0  0  0  0  0  0  0  0  0  0
    7.6768  -14.7080   20.5502 C   0  0  0  0  0  0  0  0  0  0  0  0
    8.8553  -15.5339   20.0735 C   0  0  2  0  0  0  0  0  0  0  0  0
    8.5484  -16.2492   18.8530 N   0  0  0  0  0  0  0  0  0  0  0  0
    9.2037  -16.5018   21.1561 C   0  0  0  0  0  0  0  0  0  0  0  0
    8.4662  -17.5154   21.3046 O   0  0  0  0  0  0  0  0  0  0  0  0
   12.2749  -18.8330   23.8844 C   0  0  0  0  0  0  0  0  0  0  0  0
   12.0349  -17.7782   22.8119 C   0  0  1  0  0  0  0  0  0  0  0  0
   12.0601  -18.3838   21.5617 O   0  0  0  0  0  0  0  0  0  0  0  0
   10.6330  -17.2366   23.0680 C   0  0  2  0  0  0  0  0  0  0  0  0
   10.3117  -16.3296   22.0078 N   0  0  0  0  0  0  0  0  0  0  0  0
   10.5369  -16.6061   24.4061 C   0  0  0  0  0  0  0  0  0  0  0  0
   11.0658  -15.4860   24.6296 O   0  0  0  0  0  0  0  0  0  0  0  0
    9.8505  -17.2438   25.4682 N   0  0  0  0  0  0  0  0  0  0  0  0
    9.8629  -16.7788   26.8521 C   0  0  1  0  0  0  0  0  0  0  0  0
    8.4331  -16.6978   27.2951 C   0  0  0  0  0  0  0  0  0  0  0  0
    7.5390  -15.8576   26.5105 C   0  0  0  0  0  0  0  0  0  0  0  0
    6.6100  -16.2605   25.5475 C   0  0  0  0  0  0  0  0  0  0  0  0
    6.0466  -15.1572   25.0712 N   0  0  0  0  0  0  0  0  0  0  0  0
    6.5346  -14.0629   25.6488 C   0  0  0  0  0  0  0  0  0  0  0  0
    6.2338  -12.7068   25.4766 C   0  0  0  0  0  0  0  0  0  0  0  0
    6.9133  -11.7903   26.2530 C   0  0  0  0  0  0  0  0  0  0  0  0
    7.8642  -12.1893   27.1764 C   0  0  0  0  0  0  0  0  0  0  0  0
    8.1529  -13.5236   27.3378 C   0  0  0  0  0  0  0  0  0  0  0  0
    7.4779  -14.4709   26.5616 C   0  0  0  0  0  0  0  0  0  0  0  0
   10.7576  -17.5745   27.6887 C   0  0  0  0  0  0  0  0  0  0  0  0
   11.2461  -18.6738   27.3378 O   0  0  0  0  0  0  0  0  0  0  0  0
   11.1165  -17.1261   28.9563 O   0  0  0  0  0  0  0  0  0  0  0  0
  2  3  1  0
  2  1  1  0
  3  4  1  6
  5  6  2  0
  5  3  1  0
  8  7  1  1
  8  9  1  0
  8 10  1  0
 10 11  1  6
 11  5  1  0
 12 13  2  0
 12 10  1  0
 14 12  1  0
 15 16  1  1
 15 14  1  0
 17 25  1  0
 17 16  1  0
 18 17  2  0
 19 18  1  0
 19 20  1  0
 20 21  1  0
 20 25  2  0
 21 22  2  0
 22 23  1  0
 24 23  2  0
 25 24  1  0
 26 15  1  0
 27 26  2  0
 28 26  1  0
M  END
$$$$
