STW.pdb
     RDKit          3D

 28 29  0  0  1  0  0  0  0  0999 V2000
    6.4047  -18.1698   18.6644 O   0  0  0  0  0  0  0  0  0  0  0  0
    7.4823  -18.3457   17.8086 C   0  0  0  0  0  0  0  0  0  0  0  0
    8.1275  -19.6732   18.1542 C   0  0  2  0  0  0  0  0  0  0  0  0
    7.1964  -20.7728   18.0155 N   0  0  0  0  0  0  0  0  0  0  0  0
    8.6129  -19.5929   19.5643 C   0  0  0  0  0  0  0  0  0  0  0  0
    7.8829  -20.0812   20.4709 O   0  0  0  0  0  0  0  0  0  0  0  0
   12.0264  -20.4566   20.6196 C   0  0  0  0  0  0  0  0  0  0  0  0
   11.8006  -19.1036   21.2820 C   0  0  1  0  0  0  0  0  0  0  0  0
   12.4048  -18.1138   20.5168 O   0  0  0  0  0  0  0  0  0  0  0  0
   10.2923  -18.8820   21.2709 C   0  0  2  0  0  0  0  0  0  0  0  0
    9.8406  -19.0006   19.9174 N   0  0  0  0  0  0  0  0  0  0  0  0
    9.9364  -17.5776   21.8782 C   0  0  0  0  0  0  0  0  0  0  0  0
    9.6369  -16.5913   21.1558 O   0  0  0  0  0  0  0  0  0  0  0  0
    9.9241  -17.4035   23.2837 N   0  0  0  0  0  0  0  0  0  0  0  0
    9.7312  -16.1197   23.9518 C   0  0  1  0  0  0  0  0  0  0  0  0
    8.6354  -16.3138   24.9560 C   0  0  0  0  0  0  0  0  0  0  0  0
    8.2417  -15.1549   25.7451 C   0  0  0  0  0  0  0  0  0  0  0  0
    7.1016  -14.3615   25.5921 C   0  0  0  0  0  0  0  0  0  0  0  0
    7.1744  -13.4030   26.5073 N   0  0  0  0  0  0  0  0  0  0  0  0
    8.2740  -13.5081   27.2482 C   0  0  0  0  0  0  0  0  0  0  0  0
    8.7513  -12.7433   28.3190 C   0  0  0  0  0  0  0  0  0  0  0  0
    9.9414  -13.1235   28.9051 C   0  0  0  0  0  0  0  0  0  0  0  0
   10.6487  -14.2252   28.4559 C   0  0  0  0  0  0  0  0  0  0  0  0
   10.1719  -14.9698   27.4031 C   0  0  0  0  0  0  0  0  0  0  0  0
    8.9683  -14.6034   26.7926 C   0  0  0  0  0  0  0  0  0  0  0  0
   10.9871  -15.5727   24.4589 C   0  0  0  0  0  0  0  0  0  0  0  0
   11.9343  -16.2765   24.8803 O   0  0  0  0  0  0  0  0  0  0  0  0
   11.1888  -14.1962   24.4953 O   0  0  0  0  0  0  0  0  0  0  0  0
  2  3  1  0
  2  1  1  0
  3  4  1  1
  5  6  2  0
  5  3  1  0
  8  7  1  6
  8  9  1  0
  8 10  1  0
 10 11  1  6
 11  5  1  0
 12 13  2  0
 12 10  1  0
 14 12  1  0
 15 16  1  1
 15 14  1  0
 17 25  1  0
 17 16  1  0
 18 17  2  0
 19 18  1  0
 19 20  1  0
 20 21  1  0
 20 25  2  0
 21 22  2  0
 22 23  1  0
 24 23  2  0
 25 24  1  0
 26 15  1  0
 27 26  2  0
 28 26  1  0
M  END
$$$$
