STW.pdb
     RDKit          3D

 28 29  0  0  1  0  0  0  0  0999 V2000
    7.0701  -20.2586   22.3271 O   0  0  0  0  0  0  0  0  0  0  0  0
    6.1284  -19.2622   22.1152 C   0  0  0  0  0  0  0  0  0  0  0  0
    6.1339  -18.9365   20.6347 C   0  0  2  0  0  0  0  0  0  0  0  0
    6.2689  -20.1289   19.8251 N   0  0  0  0  0  0  0  0  0  0  0  0
    7.2779  -18.0126   20.3736 C   0  0  0  0  0  0  0  0  0  0  0  0
    7.6209  -17.8185   19.1744 O   0  0  0  0  0  0  0  0  0  0  0  0
    7.1886  -15.5736   19.4684 C   0  0  0  0  0  0  0  0  0  0  0  0
    7.8883  -15.0661   20.7227 C   0  0  1  0  0  0  0  0  0  0  0  0
    6.9402  -14.8260   21.7094 O   0  0  0  0  0  0  0  0  0  0  0  0
    8.7973  -16.2016   21.1797 C   0  0  2  0  0  0  0  0  0  0  0  0
    7.9804  -17.3561   21.4023 N   0  0  0  0  0  0  0  0  0  0  0  0
    9.5774  -15.8156   22.3795 C   0  0  0  0  0  0  0  0  0  0  0  0
   10.3565  -14.8274   22.3505 O   0  0  0  0  0  0  0  0  0  0  0  0
    9.4700  -16.5454   23.5885 N   0  0  0  0  0  0  0  0  0  0  0  0
   10.1362  -16.1762   24.8341 C   0  0  1  0  0  0  0  0  0  0  0  0
    9.7706  -14.7498   25.1149 C   0  0  0  0  0  0  0  0  0  0  0  0
    8.4039  -14.4839   25.5418 C   0  0  0  0  0  0  0  0  0  0  0  0
    7.3134  -15.3573   25.5174 C   0  0  0  0  0  0  0  0  0  0  0  0
    6.2659  -14.6776   25.9673 N   0  0  0  0  0  0  0  0  0  0  0  0
    6.5868  -13.4265   26.2852 C   0  0  0  0  0  0  0  0  0  0  0  0
    5.8242  -12.3730   26.8027 C   0  0  0  0  0  0  0  0  0  0  0  0
    6.4612  -11.1737   27.0486 C   0  0  0  0  0  0  0  0  0  0  0  0
    7.8118  -11.0076   26.7953 C   0  0  0  0  0  0  0  0  0  0  0  0
    8.5523  -12.0483   26.2866 C   0  0  0  0  0  0  0  0  0  0  0  0
    7.9284  -13.2729   26.0284 C   0  0  0  0  0  0  0  0  0  0  0  0
    9.8708  -17.1367   25.9020 C   0  0  0  0  0  0  0  0  0  0  0  0
   10.3799  -17.0668   27.0449 O   0  0  0  0  0  0  0  0  0  0  0  0
    9.0096  -18.2079   25.6841 O   0  0  0  0  0  0  0  0  0  0  0  0
  2  3  1  0
  2  1  1  0
  3  4  1  6
  5  6  2  0
  5  3  1  0
  8  7  1  6
  8  9  1  0
  8 10  1  0
 10 11  1  1
 11  5  1  0
 12 13  2  0
 12 10  1  0
 14 12  1  0
 15 16  1  1
 15 14  1  0
 17 25  1  0
 17 16  1  0
 18 17  2  0
 19 18  1  0
 19 20  1  0
 20 21  1  0
 20 25  2  0
 21 22  2  0
 22 23  1  0
 24 23  2  0
 25 24  1  0
 26 15  1  0
 27 26  2  0
 28 26  1  0
M  END
$$$$
