STW.pdb
     RDKit          3D

 28 29  0  0  1  0  0  0  0  0999 V2000
   11.8511  -16.4839   19.1739 O   0  0  0  0  0  0  0  0  0  0  0  0
   11.7293  -17.8023   18.7597 C   0  0  0  0  0  0  0  0  0  0  0  0
   10.2769  -18.0326   18.3917 C   0  0  2  0  0  0  0  0  0  0  0  0
    9.7834  -17.0089   17.4951 N   0  0  0  0  0  0  0  0  0  0  0  0
    9.4790  -18.0305   19.6541 C   0  0  0  0  0  0  0  0  0  0  0  0
    8.2321  -18.2071   19.5673 O   0  0  0  0  0  0  0  0  0  0  0  0
    8.3292  -19.7822   20.8761 C   0  0  0  0  0  0  0  0  0  0  0  0
    8.8374  -19.4029   22.2611 C   0  0  1  0  0  0  0  0  0  0  0  0
    9.9168  -20.2135   22.5897 O   0  0  0  0  0  0  0  0  0  0  0  0
    9.3214  -17.9618   22.1458 C   0  0  2  0  0  0  0  0  0  0  0  0
   10.0578  -17.8419   20.9238 N   0  0  0  0  0  0  0  0  0  0  0  0
   10.1174  -17.5659   23.3319 C   0  0  0  0  0  0  0  0  0  0  0  0
   11.2874  -17.1200   23.2026 O   0  0  0  0  0  0  0  0  0  0  0  0
    9.5870  -17.6784   24.6403 N   0  0  0  0  0  0  0  0  0  0  0  0
    9.9287  -16.7879   25.7457 C   0  0  1  0  0  0  0  0  0  0  0  0
    9.4657  -15.4164   25.3566 C   0  0  0  0  0  0  0  0  0  0  0  0
    8.0801  -15.0738   25.6458 C   0  0  0  0  0  0  0  0  0  0  0  0
    6.9671  -15.9185   25.6278 C   0  0  0  0  0  0  0  0  0  0  0  0
    5.9112  -15.1698   25.9214 N   0  0  0  0  0  0  0  0  0  0  0  0
    6.2473  -13.9000   26.1310 C   0  0  0  0  0  0  0  0  0  0  0  0
    5.4822  -12.7794   26.4747 C   0  0  0  0  0  0  0  0  0  0  0  0
    6.1371  -11.5764   26.6430 C   0  0  0  0  0  0  0  0  0  0  0  0
    7.5075  -11.4706   26.4797 C   0  0  0  0  0  0  0  0  0  0  0  0
    8.2503  -12.5770   26.1416 C   0  0  0  0  0  0  0  0  0  0  0  0
    7.6086  -13.8068   25.9648 C   0  0  0  0  0  0  0  0  0  0  0  0
    9.4465  -17.2967   27.0272 C   0  0  0  0  0  0  0  0  0  0  0  0
    8.5656  -18.1808   27.1393 O   0  0  0  0  0  0  0  0  0  0  0  0
    9.9660  -16.8009   28.2192 O   0  0  0  0  0  0  0  0  0  0  0  0
  2  3  1  0
  2  1  1  0
  3  4  1  6
  5  6  2  0
  5  3  1  0
  8  7  1  6
  8  9  1  0
  8 10  1  0
 10 11  1  6
 11  5  1  0
 12 13  2  0
 12 10  1  0
 14 12  1  0
 15 16  1  6
 15 14  1  0
 17 25  1  0
 17 16  1  0
 18 17  2  0
 19 18  1  0
 19 20  1  0
 20 21  1  0
 20 25  2  0
 21 22  2  0
 22 23  1  0
 24 23  2  0
 25 24  1  0
 26 15  1  0
 27 26  2  0
 28 26  1  0
M  END
$$$$
