VFL.pdb
     RDKit          3D

 27 27  0  0  1  0  0  0  0  0999 V2000
   17.6015  -14.2341  -20.6128 C   0  0  0  0  0  0  0  0  0  0  0  0
   18.2261  -12.8723  -20.5334 C   0  0  1  0  0  0  0  0  0  0  0  0
   17.5878  -11.8327  -21.3941 C   0  0  0  0  0  0  0  0  0  0  0  0
   18.4986  -12.4128  -19.1205 C   0  0  2  0  0  0  0  0  0  0  0  0
   17.2156  -12.4938  -18.4090 N   0  0  0  0  0  0  0  0  0  0  0  0
   19.0914  -11.0885  -18.9957 C   0  0  0  0  0  0  0  0  0  0  0  0
   20.2200  -10.8755  -19.5307 O   0  0  0  0  0  0  0  0  0  0  0  0
   18.4475  -10.0512  -18.3037 N   0  0  0  0  0  0  0  0  0  0  0  0
   19.0462   -8.6926  -18.2046 C   0  0  1  0  0  0  0  0  0  0  0  0
   17.9784   -7.7778  -18.6851 C   0  0  0  0  0  0  0  0  0  0  0  0
   17.8878   -7.5116  -20.1084 C   0  0  0  0  0  0  0  0  0  0  0  0
   16.9187   -8.1164  -20.8724 C   0  0  0  0  0  0  0  0  0  0  0  0
   16.8277   -7.8722  -22.2410 C   0  0  0  0  0  0  0  0  0  0  0  0
   17.7162   -7.0092  -22.8674 C   0  0  0  0  0  0  0  0  0  0  0  0
   18.6773   -6.4071  -22.1173 C   0  0  0  0  0  0  0  0  0  0  0  0
   18.7684   -6.6487  -20.7606 C   0  0  0  0  0  0  0  0  0  0  0  0
   19.4656   -8.5207  -16.8000 C   0  0  0  0  0  0  0  0  0  0  0  0
   18.5996   -8.7667  -15.8808 O   0  0  0  0  0  0  0  0  0  0  0  0
   21.0027   -9.3191  -12.0415 C   0  0  0  0  0  0  0  0  0  0  0  0
   22.1215   -9.2639  -13.0211 C   0  0  1  0  0  0  0  0  0  0  0  0
   23.1912  -10.3222  -12.7089 C   0  0  0  0  0  0  0  0  0  0  0  0
   21.7719   -9.2527  -14.4537 C   0  0  0  0  0  0  0  0  0  0  0  0
   21.0714   -8.0289  -14.9886 C   0  0  2  0  0  0  0  0  0  0  0  0
   20.7727   -8.1036  -16.3960 N   0  0  0  0  0  0  0  0  0  0  0  0
   21.7612   -6.7789  -14.5906 C   0  0  0  0  0  0  0  0  0  0  0  0
   22.5461   -6.1872  -15.3639 O   0  0  0  0  0  0  0  0  0  0  0  0
   21.5500   -6.2360  -13.3470 O   0  0  0  0  0  0  0  0  0  0  0  0
  2  3  1  1
  2  1  1  0
  4  5  1  1
  4  2  1  0
  6  4  1  0
  7  6  2  0
  8  6  1  0
  9  8  1  0
  9 10  1  1
 10 11  1  0
 11 16  2  0
 12 11  1  0
 12 13  2  0
 13 14  1  0
 14 15  2  0
 16 15  1  0
 17 18  2  0
 17  9  1  0
 20 19  1  1
 20 22  1  0
 20 21  1  0
 23 22  1  6
 23 24  1  0
 24 17  1  0
 25 23  1  0
 26 25  2  0
 27 25  1  0
M  END
$$$$
