VFL.pdb
     RDKit          3D

 27 27  0  0  1  0  0  0  0  0999 V2000
   26.8673  -17.8812  -14.1624 C   0  0  0  0  0  0  0  0  0  0  0  0
   27.7192  -18.7050  -15.0824 C   0  0  1  0  0  0  0  0  0  0  0  0
   28.8108  -17.9563  -15.7731 C   0  0  0  0  0  0  0  0  0  0  0  0
   28.1636  -20.0180  -14.4823 C   0  0  2  0  0  0  0  0  0  0  0  0
   28.7580  -20.7904  -15.5819 N   0  0  0  0  0  0  0  0  0  0  0  0
   27.1255  -20.7786  -13.8008 C   0  0  0  0  0  0  0  0  0  0  0  0
   26.2930  -21.4304  -14.4989 O   0  0  0  0  0  0  0  0  0  0  0  0
   27.0266  -20.8074  -12.4012 N   0  0  0  0  0  0  0  0  0  0  0  0
   25.9287  -21.5391  -11.7133 C   0  0  1  0  0  0  0  0  0  0  0  0
   26.5626  -22.1035  -10.4937 C   0  0  0  0  0  0  0  0  0  0  0  0
   26.8800  -21.2025   -9.4018 C   0  0  0  0  0  0  0  0  0  0  0  0
   25.8793  -20.5664   -8.7069 C   0  0  0  0  0  0  0  0  0  0  0  0
   26.1743  -19.6943   -7.6613 C   0  0  0  0  0  0  0  0  0  0  0  0
   27.4901  -19.4466   -7.2950 C   0  0  0  0  0  0  0  0  0  0  0  0
   28.4850  -20.0729   -7.9782 C   0  0  0  0  0  0  0  0  0  0  0  0
   28.1936  -20.9374   -9.0149 C   0  0  0  0  0  0  0  0  0  0  0  0
   24.8478  -20.5593  -11.4896 C   0  0  0  0  0  0  0  0  0  0  0  0
   25.1806  -19.3302  -11.3052 O   0  0  0  0  0  0  0  0  0  0  0  0
   21.4105  -20.6509  -15.7344 C   0  0  0  0  0  0  0  0  0  0  0  0
   22.3891  -19.8277  -14.9736 C   0  0  1  0  0  0  0  0  0  0  0  0
   21.7643  -18.5023  -14.5097 C   0  0  0  0  0  0  0  0  0  0  0  0
   23.1317  -20.4875  -13.8836 C   0  0  0  0  0  0  0  0  0  0  0  0
   22.5979  -20.3268  -12.4823 C   0  0  2  0  0  0  0  0  0  0  0  0
   23.4558  -20.8876  -11.4699 N   0  0  0  0  0  0  0  0  0  0  0  0
   21.1852  -20.7625  -12.3756 C   0  0  0  0  0  0  0  0  0  0  0  0
   20.2691  -19.9579  -12.0972 O   0  0  0  0  0  0  0  0  0  0  0  0
   20.8474  -22.0773  -12.5834 O   0  0  0  0  0  0  0  0  0  0  0  0
  2  3  1  1
  2  1  1  0
  4  5  1  6
  4  2  1  0
  6  4  1  0
  7  6  2  0
  8  6  1  0
  9  8  1  0
  9 10  1  1
 10 11  1  0
 11 16  2  0
 12 11  1  0
 12 13  2  0
 13 14  1  0
 14 15  2  0
 16 15  1  0
 17 18  2  0
 17  9  1  0
 20 19  1  1
 20 22  1  0
 20 21  1  0
 23 22  1  6
 23 24  1  0
 24 17  1  0
 25 23  1  0
 26 25  2  0
 27 25  1  0
M  END
$$$$
