VFL.pdb
     RDKit          3D

 27 27  0  0  1  0  0  0  0  0999 V2000
   26.0398  -18.8314  -13.1447 C   0  0  0  0  0  0  0  0  0  0  0  0
   26.9769  -19.6998  -13.9313 C   0  0  1  0  0  0  0  0  0  0  0  0
   27.4674  -19.1048  -15.2098 C   0  0  0  0  0  0  0  0  0  0  0  0
   28.0644  -20.3304  -13.0939 C   0  0  2  0  0  0  0  0  0  0  0  0
   28.6106  -21.4339  -13.8957 N   0  0  0  0  0  0  0  0  0  0  0  0
   27.6531  -20.7873  -11.7737 C   0  0  0  0  0  0  0  0  0  0  0  0
   27.0374  -21.8905  -11.6776 O   0  0  0  0  0  0  0  0  0  0  0  0
   27.9210  -20.0418  -10.6153 N   0  0  0  0  0  0  0  0  0  0  0  0
   27.5100  -20.5220   -9.2683 C   0  0  1  0  0  0  0  0  0  0  0  0
   28.4382  -19.8403   -8.3294 C   0  0  0  0  0  0  0  0  0  0  0  0
   28.1798  -19.9469   -6.9057 C   0  0  0  0  0  0  0  0  0  0  0  0
   27.7463  -18.8565   -6.1903 C   0  0  0  0  0  0  0  0  0  0  0  0
   27.5019  -18.9473   -4.8217 C   0  0  0  0  0  0  0  0  0  0  0  0
   27.6905  -20.1450   -4.1462 C   0  0  0  0  0  0  0  0  0  0  0  0
   28.1190  -21.2279   -4.8480 C   0  0  0  0  0  0  0  0  0  0  0  0
   28.3618  -21.1389   -6.2046 C   0  0  0  0  0  0  0  0  0  0  0  0
   26.0793  -20.1898   -9.1233 C   0  0  0  0  0  0  0  0  0  0  0  0
   25.7104  -18.9897   -9.4046 O   0  0  0  0  0  0  0  0  0  0  0  0
   21.3475  -19.5821  -10.6971 C   0  0  0  0  0  0  0  0  0  0  0  0
   21.8236  -20.9919  -10.6832 C   0  0  1  0  0  0  0  0  0  0  0  0
   21.4268  -21.7291  -11.9720 C   0  0  0  0  0  0  0  0  0  0  0  0
   23.2370  -21.2296  -10.3361 C   0  0  0  0  0  0  0  0  0  0  0  0
   23.6945  -20.8125   -8.9608 C   0  0  2  0  0  0  0  0  0  0  0  0
   25.0775  -21.1167   -8.6956 N   0  0  0  0  0  0  0  0  0  0  0  0
   22.7671  -21.2815   -7.9040 C   0  0  0  0  0  0  0  0  0  0  0  0
   21.5542  -20.9768   -7.9121 O   0  0  0  0  0  0  0  0  0  0  0  0
   23.2263  -22.0719   -6.8791 O   0  0  0  0  0  0  0  0  0  0  0  0
  2  3  1  6
  2  1  1  0
  4  5  1  6
  4  2  1  0
  6  4  1  0
  7  6  2  0
  8  6  1  0
  9  8  1  0
  9 10  1  1
 10 11  1  0
 11 16  2  0
 12 11  1  0
 12 13  2  0
 13 14  1  0
 14 15  2  0
 16 15  1  0
 17 18  2  0
 17  9  1  0
 20 19  1  6
 20 22  1  0
 20 21  1  0
 23 22  1  6
 23 24  1  0
 24 17  1  0
 25 23  1  0
 26 25  2  0
 27 25  1  0
M  END
$$$$
