VFL.pdb
     RDKit          3D

 27 27  0  0  1  0  0  0  0  0999 V2000
   31.5716  -30.4697  -19.3609 C   0  0  0  0  0  0  0  0  0  0  0  0
   32.6564  -31.0710  -18.5168 C   0  0  1  0  0  0  0  0  0  0  0  0
   33.9359  -30.3021  -18.4897 C   0  0  0  0  0  0  0  0  0  0  0  0
   32.1843  -31.5201  -17.1541 C   0  0  2  0  0  0  0  0  0  0  0  0
   33.2379  -32.3963  -16.6240 N   0  0  0  0  0  0  0  0  0  0  0  0
   30.8848  -32.1769  -17.1263 C   0  0  0  0  0  0  0  0  0  0  0  0
   30.7533  -33.2881  -17.7206 O   0  0  0  0  0  0  0  0  0  0  0  0
   29.7844  -31.6138  -16.4619 N   0  0  0  0  0  0  0  0  0  0  0  0
   28.4648  -32.3000  -16.4218 C   0  0  1  0  0  0  0  0  0  0  0  0
   28.2007  -32.5177  -14.9759 C   0  0  0  0  0  0  0  0  0  0  0  0
   26.9283  -33.0963  -14.5871 C   0  0  0  0  0  0  0  0  0  0  0  0
   26.7743  -34.4599  -14.5116 C   0  0  0  0  0  0  0  0  0  0  0  0
   25.5546  -35.0250  -14.1457 C   0  0  0  0  0  0  0  0  0  0  0  0
   24.4626  -34.2218  -13.8473 C   0  0  0  0  0  0  0  0  0  0  0  0
   24.6081  -32.8718  -13.9198 C   0  0  0  0  0  0  0  0  0  0  0  0
   25.8167  -32.3107  -14.2826 C   0  0  0  0  0  0  0  0  0  0  0  0
   27.5138  -31.4218  -17.1309 C   0  0  0  0  0  0  0  0  0  0  0  0
   27.4854  -30.1783  -16.8017 O   0  0  0  0  0  0  0  0  0  0  0  0
   27.7530  -32.0805  -20.6320 C   0  0  0  0  0  0  0  0  0  0  0  0
   26.8155  -30.9636  -20.9287 C   0  0  1  0  0  0  0  0  0  0  0  0
   26.5755  -30.8212  -22.4400 C   0  0  0  0  0  0  0  0  0  0  0  0
   25.5504  -30.9178  -20.1723 C   0  0  0  0  0  0  0  0  0  0  0  0
   25.6395  -30.9433  -18.6669 C   0  0  2  0  0  0  0  0  0  0  0  0
   26.6270  -31.8631  -18.1626 N   0  0  0  0  0  0  0  0  0  0  0  0
   24.3064  -31.0944  -18.0368 C   0  0  0  0  0  0  0  0  0  0  0  0
   23.9464  -32.1710  -17.5120 O   0  0  0  0  0  0  0  0  0  0  0  0
   23.4261  -30.0406  -18.0152 O   0  0  0  0  0  0  0  0  0  0  0  0
  2  3  1  1
  2  1  1  0
  4  5  1  6
  4  2  1  0
  6  4  1  0
  7  6  2  0
  8  6  1  0
  9  8  1  0
  9 10  1  1
 10 11  1  0
 11 16  2  0
 12 11  1  0
 12 13  2  0
 13 14  1  0
 14 15  2  0
 16 15  1  0
 17 18  2  0
 17  9  1  0
 20 19  1  6
 20 22  1  0
 20 21  1  0
 23 22  1  6
 23 24  1  0
 24 17  1  0
 25 23  1  0
 26 25  2  0
 27 25  1  0
M  END
$$$$
