VFL.pdb
     RDKit          3D

 27 27  0  0  1  0  0  0  0  0999 V2000
   21.0374  -11.7421  -19.5413 C   0  0  0  0  0  0  0  0  0  0  0  0
   20.0530  -10.8192  -18.8855 C   0  0  1  0  0  0  0  0  0  0  0  0
   19.0721  -10.1794  -19.8116 C   0  0  0  0  0  0  0  0  0  0  0  0
   19.4292  -11.3899  -17.6338 C   0  0  2  0  0  0  0  0  0  0  0  0
   18.7797  -12.6451  -18.0358 N   0  0  0  0  0  0  0  0  0  0  0  0
   18.4988  -10.5101  -16.9402 C   0  0  0  0  0  0  0  0  0  0  0  0
   17.4639  -10.1148  -17.5550 O   0  0  0  0  0  0  0  0  0  0  0  0
   18.7188  -10.0939  -15.6181 N   0  0  0  0  0  0  0  0  0  0  0  0
   17.7487   -9.2191  -14.9059 C   0  0  1  0  0  0  0  0  0  0  0  0
   17.1501  -10.0947  -13.8652 C   0  0  0  0  0  0  0  0  0  0  0  0
   16.2076  -11.1158  -14.2823 C   0  0  0  0  0  0  0  0  0  0  0  0
   16.6002  -12.4287  -14.3869 C   0  0  0  0  0  0  0  0  0  0  0  0
   15.7043  -13.4153  -14.7929 C   0  0  0  0  0  0  0  0  0  0  0  0
   14.3897  -13.0948  -15.1021 C   0  0  0  0  0  0  0  0  0  0  0  0
   13.9945  -11.7978  -15.0005 C   0  0  0  0  0  0  0  0  0  0  0  0
   14.8818  -10.8190  -14.5983 C   0  0  0  0  0  0  0  0  0  0  0  0
   18.5143   -8.0566  -14.4150 C   0  0  0  0  0  0  0  0  0  0  0  0
   19.6534   -8.2794  -13.8599 O   0  0  0  0  0  0  0  0  0  0  0  0
   22.1121   -4.7396  -13.2953 C   0  0  0  0  0  0  0  0  0  0  0  0
   21.3100   -4.6823  -14.5473 C   0  0  1  0  0  0  0  0  0  0  0  0
   22.2036   -4.4388  -15.7737 C   0  0  0  0  0  0  0  0  0  0  0  0
   20.3448   -5.7711  -14.7877 C   0  0  0  0  0  0  0  0  0  0  0  0
   18.9832   -5.6458  -14.1513 C   0  0  2  0  0  0  0  0  0  0  0  0
   18.0737   -6.7001  -14.5215 N   0  0  0  0  0  0  0  0  0  0  0  0
   18.4187   -4.2854  -14.3168 C   0  0  0  0  0  0  0  0  0  0  0  0
   17.5036   -4.0493  -15.1360 O   0  0  0  0  0  0  0  0  0  0  0  0
   18.8948   -3.2405  -13.5635 O   0  0  0  0  0  0  0  0  0  0  0  0
  2  3  1  6
  2  1  1  0
  4  5  1  6
  4  2  1  0
  6  4  1  0
  7  6  2  0
  8  6  1  0
  9  8  1  0
  9 10  1  1
 10 11  1  0
 11 16  2  0
 12 11  1  0
 12 13  2  0
 13 14  1  0
 14 15  2  0
 16 15  1  0
 17 18  2  0
 17  9  1  0
 20 19  1  1
 20 22  1  0
 20 21  1  0
 23 22  1  6
 23 24  1  0
 24 17  1  0
 25 23  1  0
 26 25  2  0
 27 25  1  0
M  END
$$$$
