VFL.pdb
     RDKit          3D

 27 27  0  0  1  0  0  0  0  0999 V2000
   27.0457  -11.9990  -15.0204 C   0  0  0  0  0  0  0  0  0  0  0  0
   25.9129  -11.1782  -15.5626 C   0  0  1  0  0  0  0  0  0  0  0  0
   26.2853  -10.2291  -16.6534 C   0  0  0  0  0  0  0  0  0  0  0  0
   24.6668  -11.9818  -15.8508 C   0  0  2  0  0  0  0  0  0  0  0  0
   25.0234  -12.9193  -16.9244 N   0  0  0  0  0  0  0  0  0  0  0  0
   23.4856  -11.2036  -16.1971 C   0  0  0  0  0  0  0  0  0  0  0  0
   23.2745  -10.9304  -17.4162 O   0  0  0  0  0  0  0  0  0  0  0  0
   22.5828  -10.7538  -15.2214 N   0  0  0  0  0  0  0  0  0  0  0  0
   21.3620   -9.9853  -15.5858 C   0  0  1  0  0  0  0  0  0  0  0  0
   20.2487  -10.7195  -14.9304 C   0  0  0  0  0  0  0  0  0  0  0  0
   19.5546  -11.7412  -15.6913 C   0  0  0  0  0  0  0  0  0  0  0  0
   19.6154  -13.0599  -15.3090 C   0  0  0  0  0  0  0  0  0  0  0  0
   18.9577  -14.0491  -16.0370 C   0  0  0  0  0  0  0  0  0  0  0  0
   18.2228  -13.7252  -17.1691 C   0  0  0  0  0  0  0  0  0  0  0  0
   18.1582  -12.4224  -17.5528 C   0  0  0  0  0  0  0  0  0  0  0  0
   18.8099  -11.4411  -16.8319 C   0  0  0  0  0  0  0  0  0  0  0  0
   21.5858   -8.6004  -15.1270 C   0  0  0  0  0  0  0  0  0  0  0  0
   22.0723   -8.4300  -13.9481 O   0  0  0  0  0  0  0  0  0  0  0  0
   23.5771   -3.5592  -14.8495 C   0  0  0  0  0  0  0  0  0  0  0  0
   22.4538   -3.8036  -15.7943 C   0  0  1  0  0  0  0  0  0  0  0  0
   22.4797   -2.8071  -16.9640 C   0  0  0  0  0  0  0  0  0  0  0  0
   22.2487   -5.1862  -16.2647 C   0  0  0  0  0  0  0  0  0  0  0  0
   21.5420   -6.1393  -15.3337 C   0  0  2  0  0  0  0  0  0  0  0  0
   21.3018   -7.4377  -15.9100 N   0  0  0  0  0  0  0  0  0  0  0  0
   20.3387   -5.5257  -14.7233 C   0  0  0  0  0  0  0  0  0  0  0  0
   19.2118   -5.6177  -15.2578 O   0  0  0  0  0  0  0  0  0  0  0  0
   20.4370   -4.8336  -13.5412 O   0  0  0  0  0  0  0  0  0  0  0  0
  2  3  1  6
  2  1  1  0
  4  5  1  6
  4  2  1  0
  6  4  1  0
  7  6  2  0
  8  6  1  0
  9  8  1  0
  9 10  1  1
 10 11  1  0
 11 16  2  0
 12 11  1  0
 12 13  2  0
 13 14  1  0
 14 15  2  0
 16 15  1  0
 17 18  2  0
 17  9  1  0
 20 19  1  6
 20 22  1  0
 20 21  1  0
 23 22  1  6
 23 24  1  0
 24 17  1  0
 25 23  1  0
 26 25  2  0
 27 25  1  0
M  END
$$$$
