VFL.pdb
     RDKit          3D

 27 27  0  0  1  0  0  0  0  0999 V2000
   28.5272  -19.7735  -19.1692 C   0  0  0  0  0  0  0  0  0  0  0  0
   28.4687  -20.4051  -17.8096 C   0  0  1  0  0  0  0  0  0  0  0  0
   29.6898  -20.2162  -16.9716 C   0  0  0  0  0  0  0  0  0  0  0  0
   27.1760  -20.1405  -17.0744 C   0  0  2  0  0  0  0  0  0  0  0  0
   27.0115  -18.6807  -17.0478 N   0  0  0  0  0  0  0  0  0  0  0  0
   27.0888  -20.7082  -15.7361 C   0  0  0  0  0  0  0  0  0  0  0  0
   27.1735  -21.9654  -15.6032 O   0  0  0  0  0  0  0  0  0  0  0  0
   26.9157  -19.9029  -14.5999 N   0  0  0  0  0  0  0  0  0  0  0  0
   26.6505  -20.4937  -13.2603 C   0  0  1  0  0  0  0  0  0  0  0  0
   27.4865  -19.6946  -12.3273 C   0  0  0  0  0  0  0  0  0  0  0  0
   27.3427  -19.9261  -10.9023 C   0  0  0  0  0  0  0  0  0  0  0  0
   26.4257  -19.2135  -10.1673 C   0  0  0  0  0  0  0  0  0  0  0  0
   26.2848  -19.4240   -8.7974 C   0  0  0  0  0  0  0  0  0  0  0  0
   27.0695  -20.3616   -8.1402 C   0  0  0  0  0  0  0  0  0  0  0  0
   27.9785  -21.0704   -8.8614 C   0  0  0  0  0  0  0  0  0  0  0  0
   28.1190  -20.8624  -10.2194 C   0  0  0  0  0  0  0  0  0  0  0  0
   25.1914  -20.4196  -13.0509 C   0  0  0  0  0  0  0  0  0  0  0  0
   24.5948  -19.3241  -13.3660 O   0  0  0  0  0  0  0  0  0  0  0  0
   20.8708  -22.3808  -15.2799 C   0  0  0  0  0  0  0  0  0  0  0  0
   21.6451  -21.4970  -14.3668 C   0  0  1  0  0  0  0  0  0  0  0  0
   20.9645  -20.1290  -14.2019 C   0  0  0  0  0  0  0  0  0  0  0  0
   22.0588  -22.0567  -13.0666 C   0  0  0  0  0  0  0  0  0  0  0  0
   23.0108  -21.2397  -12.2296 C   0  0  2  0  0  0  0  0  0  0  0  0
   24.3987  -21.4881  -12.5257 N   0  0  0  0  0  0  0  0  0  0  0  0
   22.6853  -21.3190  -10.7858 C   0  0  0  0  0  0  0  0  0  0  0  0
   21.6630  -20.7759  -10.3123 O   0  0  0  0  0  0  0  0  0  0  0  0
   23.5105  -22.0004   -9.9252 O   0  0  0  0  0  0  0  0  0  0  0  0
  2  3  1  1
  2  1  1  0
  4  5  1  1
  4  2  1  0
  6  4  1  0
  7  6  2  0
  8  6  1  0
  9  8  1  0
  9 10  1  1
 10 11  1  0
 11 16  2  0
 12 11  1  0
 12 13  2  0
 13 14  1  0
 14 15  2  0
 16 15  1  0
 17 18  2  0
 17  9  1  0
 20 19  1  1
 20 22  1  0
 20 21  1  0
 23 22  1  6
 23 24  1  0
 24 17  1  0
 25 23  1  0
 26 25  2  0
 27 25  1  0
M  END
$$$$
