VFL.pdb
     RDKit          3D

 27 27  0  0  1  0  0  0  0  0999 V2000
   25.2029  -18.0286  -20.2511 C   0  0  0  0  0  0  0  0  0  0  0  0
   25.9484  -18.8674  -19.2553 C   0  0  1  0  0  0  0  0  0  0  0  0
   27.3302  -18.3974  -18.9413 C   0  0  0  0  0  0  0  0  0  0  0  0
   25.1331  -19.2264  -18.0354 C   0  0  2  0  0  0  0  0  0  0  0  0
   24.5698  -17.9655  -17.5338 N   0  0  0  0  0  0  0  0  0  0  0  0
   25.8522  -19.9393  -16.9888 C   0  0  0  0  0  0  0  0  0  0  0  0
   26.3278  -21.0842  -17.2505 O   0  0  0  0  0  0  0  0  0  0  0  0
   26.0304  -19.3929  -15.7086 N   0  0  0  0  0  0  0  0  0  0  0  0
   26.4794  -20.2275  -14.5616 C   0  0  1  0  0  0  0  0  0  0  0  0
   27.6040  -19.4640  -13.9615 C   0  0  0  0  0  0  0  0  0  0  0  0
   28.3052  -20.0436  -12.8313 C   0  0  0  0  0  0  0  0  0  0  0  0
   28.0964  -19.5664  -11.5595 C   0  0  0  0  0  0  0  0  0  0  0  0
   28.7699  -20.1120  -10.4688 C   0  0  0  0  0  0  0  0  0  0  0  0
   29.6703  -21.1542  -10.6412 C   0  0  0  0  0  0  0  0  0  0  0  0
   29.8814  -21.6314  -11.8967 C   0  0  0  0  0  0  0  0  0  0  0  0
   29.2144  -21.0911  -12.9786 C   0  0  0  0  0  0  0  0  0  0  0  0
   25.2974  -20.4276  -13.7006 C   0  0  0  0  0  0  0  0  0  0  0  0
   25.3330  -19.9410  -12.5100 O   0  0  0  0  0  0  0  0  0  0  0  0
   19.9798  -20.0013  -12.7676 C   0  0  0  0  0  0  0  0  0  0  0  0
   21.2502  -19.4600  -12.2134 C   0  0  1  0  0  0  0  0  0  0  0  0
   21.4625  -19.9094  -10.7591 C   0  0  0  0  0  0  0  0  0  0  0  0
   22.4732  -19.6346  -13.0187 C   0  0  0  0  0  0  0  0  0  0  0  0
   22.9449  -21.0450  -13.2691 C   0  0  2  0  0  0  0  0  0  0  0  0
   24.1148  -21.1223  -14.1063 N   0  0  0  0  0  0  0  0  0  0  0  0
   21.8383  -21.9284  -13.7071 C   0  0  0  0  0  0  0  0  0  0  0  0
   20.9850  -22.3608  -12.9014 O   0  0  0  0  0  0  0  0  0  0  0  0
   21.7246  -22.2959  -15.0254 O   0  0  0  0  0  0  0  0  0  0  0  0
  2  3  1  1
  2  1  1  0
  4  5  1  1
  4  2  1  0
  6  4  1  0
  7  6  2  0
  8  6  1  0
  9  8  1  0
  9 10  1  1
 10 11  1  0
 11 16  2  0
 12 11  1  0
 12 13  2  0
 13 14  1  0
 14 15  2  0
 16 15  1  0
 17 18  2  0
 17  9  1  0
 20 19  1  6
 20 22  1  0
 20 21  1  0
 23 22  1  6
 23 24  1  0
 24 17  1  0
 25 23  1  0
 26 25  2  0
 27 25  1  0
M  END
$$$$
