VFL.pdb
     RDKit          3D

 27 27  0  0  1  0  0  0  0  0999 V2000
   28.1084  -23.1005  -17.9731 C   0  0  0  0  0  0  0  0  0  0  0  0
   28.4166  -22.2994  -16.7425 C   0  0  1  0  0  0  0  0  0  0  0  0
   29.7459  -21.6196  -16.7472 C   0  0  0  0  0  0  0  0  0  0  0  0
   27.2782  -21.4124  -16.2968 C   0  0  2  0  0  0  0  0  0  0  0  0
   27.7595  -20.0306  -16.4298 N   0  0  0  0  0  0  0  0  0  0  0  0
   26.7708  -21.6703  -14.9563 C   0  0  0  0  0  0  0  0  0  0  0  0
   26.1082  -22.7307  -14.7515 O   0  0  0  0  0  0  0  0  0  0  0  0
   26.9971  -20.7806  -13.8949 N   0  0  0  0  0  0  0  0  0  0  0  0
   26.3827  -20.9933  -12.5566 C   0  0  1  0  0  0  0  0  0  0  0  0
   27.3417  -20.3777  -11.6030 C   0  0  0  0  0  0  0  0  0  0  0  0
   26.9726  -20.3097  -10.2016 C   0  0  0  0  0  0  0  0  0  0  0  0
   26.2820  -19.2269   -9.7122 C   0  0  0  0  0  0  0  0  0  0  0  0
   25.9290  -19.1494   -8.3668 C   0  0  0  0  0  0  0  0  0  0  0  0
   26.2670  -20.1674   -7.4858 C   0  0  0  0  0  0  0  0  0  0  0  0
   26.9500  -21.2417   -7.9633 C   0  0  0  0  0  0  0  0  0  0  0  0
   27.3006  -21.3194   -9.2968 C   0  0  0  0  0  0  0  0  0  0  0  0
   25.0391  -20.3847  -12.6105 C   0  0  0  0  0  0  0  0  0  0  0  0
   24.8074  -19.5232  -13.5377 O   0  0  0  0  0  0  0  0  0  0  0  0
   20.3602  -19.8080  -14.1833 C   0  0  0  0  0  0  0  0  0  0  0  0
   20.9151  -21.1647  -13.9272 C   0  0  1  0  0  0  0  0  0  0  0  0
   20.6935  -22.0959  -15.1296 C   0  0  0  0  0  0  0  0  0  0  0  0
   22.2983  -21.2504  -13.4230 C   0  0  0  0  0  0  0  0  0  0  0  0
   22.6176  -20.5206  -12.1423 C   0  0  2  0  0  0  0  0  0  0  0  0
   23.9784  -20.6948  -11.7025 N   0  0  0  0  0  0  0  0  0  0  0  0
   21.6109  -20.7882  -11.0879 C   0  0  0  0  0  0  0  0  0  0  0  0
   21.7390  -21.7372  -10.2834 O   0  0  0  0  0  0  0  0  0  0  0  0
   20.5007  -19.9886  -10.9700 O   0  0  0  0  0  0  0  0  0  0  0  0
  2  3  1  6
  2  1  1  0
  4  5  1  1
  4  2  1  0
  6  4  1  0
  7  6  2  0
  8  6  1  0
  9  8  1  0
  9 10  1  1
 10 11  1  0
 11 16  2  0
 12 11  1  0
 12 13  2  0
 13 14  1  0
 14 15  2  0
 16 15  1  0
 17 18  2  0
 17  9  1  0
 20 19  1  6
 20 22  1  0
 20 21  1  0
 23 22  1  6
 23 24  1  0
 24 17  1  0
 25 23  1  0
 26 25  2  0
 27 25  1  0
M  END
$$$$
