VFL.pdb
     RDKit          3D

 27 27  0  0  1  0  0  0  0  0999 V2000
   33.9336  -10.4580  -15.8557 C   0  0  0  0  0  0  0  0  0  0  0  0
   34.8112   -9.3219  -15.4198 C   0  0  1  0  0  0  0  0  0  0  0  0
   36.2673   -9.6421  -15.3406 C   0  0  0  0  0  0  0  0  0  0  0  0
   34.5092   -8.0195  -16.1227 C   0  0  2  0  0  0  0  0  0  0  0  0
   35.0857   -6.9589  -15.2851 N   0  0  0  0  0  0  0  0  0  0  0  0
   33.1017   -7.7693  -16.4007 C   0  0  0  0  0  0  0  0  0  0  0  0
   32.3716   -7.3109  -15.4722 O   0  0  0  0  0  0  0  0  0  0  0  0
   32.5399   -8.0208  -17.6619 N   0  0  0  0  0  0  0  0  0  0  0  0
   31.0900   -7.8128  -17.9235 C   0  0  1  0  0  0  0  0  0  0  0  0
   31.0479   -6.9814  -19.1543 C   0  0  0  0  0  0  0  0  0  0  0  0
   29.7766   -6.8211  -19.8348 C   0  0  0  0  0  0  0  0  0  0  0  0
   28.8400   -5.9314  -19.3658 C   0  0  0  0  0  0  0  0  0  0  0  0
   27.6138   -5.7752  -20.0085 C   0  0  0  0  0  0  0  0  0  0  0  0
   27.3081   -6.5165  -21.1414 C   0  0  0  0  0  0  0  0  0  0  0  0
   28.2304   -7.3984  -21.6109 C   0  0  0  0  0  0  0  0  0  0  0  0
   29.4461   -7.5541  -20.9745 C   0  0  0  0  0  0  0  0  0  0  0  0
   30.4855   -9.1554  -18.0255 C   0  0  0  0  0  0  0  0  0  0  0  0
   31.1603  -10.0735  -18.6231 O   0  0  0  0  0  0  0  0  0  0  0  0
   26.9216  -13.4373  -15.7095 C   0  0  0  0  0  0  0  0  0  0  0  0
   28.1576  -13.0057  -16.4167 C   0  0  1  0  0  0  0  0  0  0  0  0
   28.1882  -13.5305  -17.8608 C   0  0  0  0  0  0  0  0  0  0  0  0
   28.5152  -11.5765  -16.3516 C   0  0  0  0  0  0  0  0  0  0  0  0
   28.7299  -10.8537  -17.6579 C   0  0  2  0  0  0  0  0  0  0  0  0
   29.2016   -9.5018  -17.4988 N   0  0  0  0  0  0  0  0  0  0  0  0
   27.5569  -10.9746  -18.5558 C   0  0  0  0  0  0  0  0  0  0  0  0
   26.5667  -10.2182  -18.4481 O   0  0  0  0  0  0  0  0  0  0  0  0
   27.5321  -11.9329  -19.5391 O   0  0  0  0  0  0  0  0  0  0  0  0
  2  3  1  6
  2  1  1  0
  4  5  1  1
  4  2  1  0
  6  4  1  0
  7  6  2  0
  8  6  1  0
  9  8  1  0
  9 10  1  6
 10 11  1  0
 11 16  2  0
 12 11  1  0
 12 13  2  0
 13 14  1  0
 14 15  2  0
 16 15  1  0
 17 18  2  0
 17  9  1  0
 20 19  1  6
 20 22  1  0
 20 21  1  0
 23 22  1  1
 23 24  1  0
 24 17  1  0
 25 23  1  0
 26 25  2  0
 27 25  1  0
M  END
$$$$
