VFL.pdb
     RDKit          3D

 27 27  0  0  1  0  0  0  0  0999 V2000
   26.2425  -21.0768  -17.9769 C   0  0  0  0  0  0  0  0  0  0  0  0
   27.3029  -20.1900  -17.3939 C   0  0  1  0  0  0  0  0  0  0  0  0
   26.8269  -18.8498  -16.9396 C   0  0  0  0  0  0  0  0  0  0  0  0
   28.1978  -20.8902  -16.3986 C   0  0  2  0  0  0  0  0  0  0  0  0
   28.7487  -22.0603  -17.0959 N   0  0  0  0  0  0  0  0  0  0  0  0
   27.5628  -21.2709  -15.1446 C   0  0  0  0  0  0  0  0  0  0  0  0
   26.9757  -22.3916  -15.0770 O   0  0  0  0  0  0  0  0  0  0  0  0
   27.5861  -20.4336  -14.0186 N   0  0  0  0  0  0  0  0  0  0  0  0
   26.9647  -20.8439  -12.7305 C   0  0  1  0  0  0  0  0  0  0  0  0
   27.7743  -20.1586  -11.6899 C   0  0  0  0  0  0  0  0  0  0  0  0
   27.3918  -20.3224  -10.3001 C   0  0  0  0  0  0  0  0  0  0  0  0
   26.3218  -19.6319   -9.7833 C   0  0  0  0  0  0  0  0  0  0  0  0
   25.9509  -19.7775   -8.4484 C   0  0  0  0  0  0  0  0  0  0  0  0
   26.6553  -20.6264   -7.6059 C   0  0  0  0  0  0  0  0  0  0  0  0
   27.7148  -21.3130   -8.1107 C   0  0  0  0  0  0  0  0  0  0  0  0
   28.0834  -21.1692   -9.4338 C   0  0  0  0  0  0  0  0  0  0  0  0
   25.5430  -20.4551  -12.8081 C   0  0  0  0  0  0  0  0  0  0  0  0
   25.2647  -19.2877  -13.2720 O   0  0  0  0  0  0  0  0  0  0  0  0
   23.2288  -20.0504  -15.4211 C   0  0  0  0  0  0  0  0  0  0  0  0
   22.0289  -20.6057  -14.7384 C   0  0  1  0  0  0  0  0  0  0  0  0
   21.1238  -21.3612  -15.7243 C   0  0  0  0  0  0  0  0  0  0  0  0
   22.2462  -21.3781  -13.5011 C   0  0  0  0  0  0  0  0  0  0  0  0
   23.1195  -20.7581  -12.4392 C   0  0  2  0  0  0  0  0  0  0  0  0
   24.4564  -21.2938  -12.4060 N   0  0  0  0  0  0  0  0  0  0  0  0
   22.4515  -20.7386  -11.1162 C   0  0  0  0  0  0  0  0  0  0  0  0
   22.9469  -21.3133  -10.1220 O   0  0  0  0  0  0  0  0  0  0  0  0
   21.2579  -20.0797  -10.9515 O   0  0  0  0  0  0  0  0  0  0  0  0
  2  3  1  1
  2  1  1  0
  4  5  1  6
  4  2  1  0
  6  4  1  0
  7  6  2  0
  8  6  1  0
  9  8  1  0
  9 10  1  1
 10 11  1  0
 11 16  2  0
 12 11  1  0
 12 13  2  0
 13 14  1  0
 14 15  2  0
 16 15  1  0
 17 18  2  0
 17  9  1  0
 20 19  1  6
 20 22  1  0
 20 21  1  0
 23 22  1  6
 23 24  1  0
 24 17  1  0
 25 23  1  0
 26 25  2  0
 27 25  1  0
M  END
$$$$
