VFL.pdb
     RDKit          3D

 27 27  0  0  1  0  0  0  0  0999 V2000
   19.8282  -10.2792  -17.4468 C   0  0  0  0  0  0  0  0  0  0  0  0
   19.9231  -10.1501  -15.9550 C   0  0  1  0  0  0  0  0  0  0  0  0
   21.2985   -9.9069  -15.4277 C   0  0  0  0  0  0  0  0  0  0  0  0
   18.8708   -9.2461  -15.3575 C   0  0  2  0  0  0  0  0  0  0  0  0
   19.0285   -7.9426  -16.0169 N   0  0  0  0  0  0  0  0  0  0  0  0
   18.9076   -9.1147  -13.9077 C   0  0  0  0  0  0  0  0  0  0  0  0
   18.7774  -10.1575  -13.2000 O   0  0  0  0  0  0  0  0  0  0  0  0
   19.0833   -7.8713  -13.2810 N   0  0  0  0  0  0  0  0  0  0  0  0
   19.2173   -7.7564  -11.8036 C   0  0  1  0  0  0  0  0  0  0  0  0
   20.4834   -7.0057  -11.6005 C   0  0  0  0  0  0  0  0  0  0  0  0
   20.6654   -5.7553  -12.3135 C   0  0  0  0  0  0  0  0  0  0  0  0
   21.5353   -5.6757  -13.3745 C   0  0  0  0  0  0  0  0  0  0  0  0
   21.7217   -4.4779  -14.0612 C   0  0  0  0  0  0  0  0  0  0  0  0
   21.0308   -3.3330  -13.6892 C   0  0  0  0  0  0  0  0  0  0  0  0
   20.1683   -3.4048  -12.6406 C   0  0  0  0  0  0  0  0  0  0  0  0
   19.9829   -4.5916  -11.9591 C   0  0  0  0  0  0  0  0  0  0  0  0
   17.9874   -7.0986  -11.3209 C   0  0  0  0  0  0  0  0  0  0  0  0
   17.2991   -6.4175  -12.1682 O   0  0  0  0  0  0  0  0  0  0  0  0
   13.1539   -6.3823   -8.9889 C   0  0  0  0  0  0  0  0  0  0  0  0
   14.3126   -6.3684   -8.0553 C   0  0  1  0  0  0  0  0  0  0  0  0
   13.8952   -6.7953   -6.6392 C   0  0  0  0  0  0  0  0  0  0  0  0
   15.5435   -7.0559   -8.4879 C   0  0  0  0  0  0  0  0  0  0  0  0
   16.3258   -6.4348   -9.6179 C   0  0  2  0  0  0  0  0  0  0  0  0
   17.5099   -7.1739   -9.9748 N   0  0  0  0  0  0  0  0  0  0  0  0
   16.5693   -4.9902   -9.3931 C   0  0  0  0  0  0  0  0  0  0  0  0
   17.6253   -4.5765   -8.8660 O   0  0  0  0  0  0  0  0  0  0  0  0
   15.6276   -4.0621   -9.7643 O   0  0  0  0  0  0  0  0  0  0  0  0
  2  3  1  6
  2  1  1  0
  4  5  1  6
  4  2  1  0
  6  4  1  0
  7  6  2  0
  8  6  1  0
  9  8  1  0
  9 10  1  6
 10 11  1  0
 11 16  2  0
 12 11  1  0
 12 13  2  0
 13 14  1  0
 14 15  2  0
 16 15  1  0
 17 18  2  0
 17  9  1  0
 20 19  1  6
 20 22  1  0
 20 21  1  0
 23 22  1  1
 23 24  1  0
 24 17  1  0
 25 23  1  0
 26 25  2  0
 27 25  1  0
M  END
$$$$
