VFL.pdb
     RDKit          3D

 27 27  0  0  1  0  0  0  0  0999 V2000
   21.5810  -13.9574  -18.6967 C   0  0  0  0  0  0  0  0  0  0  0  0
   21.2806  -13.0925  -17.5081 C   0  0  1  0  0  0  0  0  0  0  0  0
   22.0449  -13.4305  -16.2709 C   0  0  0  0  0  0  0  0  0  0  0  0
   21.2534  -11.6160  -17.8254 C   0  0  2  0  0  0  0  0  0  0  0  0
   22.5760  -11.2912  -18.3768 N   0  0  0  0  0  0  0  0  0  0  0  0
   20.9144  -10.7419  -16.7110 C   0  0  0  0  0  0  0  0  0  0  0  0
   19.8104  -10.9183  -16.1149 O   0  0  0  0  0  0  0  0  0  0  0  0
   21.7745   -9.7182  -16.2846 N   0  0  0  0  0  0  0  0  0  0  0  0
   21.3483   -8.7148  -15.2720 C   0  0  1  0  0  0  0  0  0  0  0  0
   22.5924   -8.3787  -14.5322 C   0  0  0  0  0  0  0  0  0  0  0  0
   23.2779   -7.1433  -14.8620 C   0  0  0  0  0  0  0  0  0  0  0  0
   24.3555   -7.1479  -15.7149 C   0  0  0  0  0  0  0  0  0  0  0  0
   25.0244   -5.9677  -16.0323 C   0  0  0  0  0  0  0  0  0  0  0  0
   24.6169   -4.7553  -15.4933 C   0  0  0  0  0  0  0  0  0  0  0  0
   23.5512   -4.7435  -14.6489 C   0  0  0  0  0  0  0  0  0  0  0  0
   22.8876   -5.9129  -14.3335 C   0  0  0  0  0  0  0  0  0  0  0  0
   20.7169   -7.6086  -16.0177 C   0  0  0  0  0  0  0  0  0  0  0  0
   21.0297   -7.4653  -17.2575 O   0  0  0  0  0  0  0  0  0  0  0  0
   18.6975   -4.4968  -19.3126 C   0  0  0  0  0  0  0  0  0  0  0  0
   17.8335   -5.3435  -18.4462 C   0  0  1  0  0  0  0  0  0  0  0  0
   16.7344   -6.0411  -19.2632 C   0  0  0  0  0  0  0  0  0  0  0  0
   18.5030   -6.2818  -17.5264 C   0  0  0  0  0  0  0  0  0  0  0  0
   19.1764   -5.6998  -16.3088 C   0  0  2  0  0  0  0  0  0  0  0  0
   19.7771   -6.6904  -15.4525 N   0  0  0  0  0  0  0  0  0  0  0  0
   18.2956   -4.7470  -15.5924 C   0  0  0  0  0  0  0  0  0  0  0  0
   17.8212   -3.7380  -16.1590 O   0  0  0  0  0  0  0  0  0  0  0  0
   17.9768   -4.9549  -14.2729 O   0  0  0  0  0  0  0  0  0  0  0  0
  2  3  1  1
  2  1  1  0
  4  5  1  1
  4  2  1  0
  6  4  1  0
  7  6  2  0
  8  6  1  0
  9  8  1  0
  9 10  1  6
 10 11  1  0
 11 16  2  0
 12 11  1  0
 12 13  2  0
 13 14  1  0
 14 15  2  0
 16 15  1  0
 17 18  2  0
 17  9  1  0
 20 19  1  6
 20 22  1  0
 20 21  1  0
 23 22  1  6
 23 24  1  0
 24 17  1  0
 25 23  1  0
 26 25  2  0
 27 25  1  0
M  END
$$$$
