CYY.pdb
     RDKit          3D

 31 32  0  0  1  0  0  0  0  0999 V2000
    5.9299  -19.0096   20.2253 N   0  0  0  0  0  0  0  0  0  0  0  0
    6.3413  -18.1098   21.2868 C   0  0  1  0  0  0  0  0  0  0  0  0
    6.2266  -18.8733   22.5850 C   0  0  0  0  0  0  0  0  0  0  0  0
    4.5511  -19.4909   22.8681 S   0  0  0  0  0  0  0  0  0  0  0  0
    7.7134  -17.5911   21.0660 C   0  0  0  0  0  0  0  0  0  0  0  0
    8.5035  -18.2800   20.3899 O   0  0  0  0  0  0  0  0  0  0  0  0
    6.9406  -13.2105   16.0939 O   0  0  0  0  0  0  0  0  0  0  0  0
    7.5826  -13.4962   17.3170 C   0  0  0  0  0  0  0  0  0  0  0  0
    7.1075  -12.9769   18.5010 C   0  0  0  0  0  0  0  0  0  0  0  0
    7.7370  -13.2583   19.6897 C   0  0  0  0  0  0  0  0  0  0  0  0
    8.8787  -14.0749   19.7690 C   0  0  0  0  0  0  0  0  0  0  0  0
    9.4913  -14.3403   21.0951 C   0  0  0  0  0  0  0  0  0  0  0  0
    9.4521  -15.8112   21.4792 C   0  0  2  0  0  0  0  0  0  0  0  0
    8.1339  -16.3583   21.5951 N   0  0  0  0  0  0  0  0  0  0  0  0
   10.3422  -16.1169   22.6083 C   0  0  0  0  0  0  0  0  0  0  0  0
   11.4469  -15.5272   22.6807 O   0  0  0  0  0  0  0  0  0  0  0  0
    9.3253  -14.5755   18.5745 C   0  0  0  0  0  0  0  0  0  0  0  0
    8.6944  -14.2958   17.3660 C   0  0  0  0  0  0  0  0  0  0  0  0
   10.3136  -14.7146   31.0290 O   0  0  0  0  0  0  0  0  0  0  0  0
   10.1198  -14.8803   29.6615 C   0  0  0  0  0  0  0  0  0  0  0  0
   10.6500  -15.9691   29.0049 C   0  0  0  0  0  0  0  0  0  0  0  0
   10.4707  -16.1537   27.6510 C   0  0  0  0  0  0  0  0  0  0  0  0
    9.7401  -15.2405   26.8818 C   0  0  0  0  0  0  0  0  0  0  0  0
    9.5879  -15.4694   25.4299 C   0  0  0  0  0  0  0  0  0  0  0  0
   10.1933  -16.7829   25.0309 C   0  0  2  0  0  0  0  0  0  0  0  0
   10.0028  -17.0436   23.6095 N   0  0  0  0  0  0  0  0  0  0  0  0
    9.7095  -17.9278   25.8007 C   0  0  0  0  0  0  0  0  0  0  0  0
   10.4359  -18.5270   26.8111 O   0  0  0  0  0  0  0  0  0  0  0  0
    9.2171  -14.1575   27.5541 C   0  0  0  0  0  0  0  0  0  0  0  0
    9.3978  -13.9724   28.9163 C   0  0  0  0  0  0  0  0  0  0  0  0
    8.5674  -18.4197   25.5497 O   0  0  0  0  0  0  0  0  0  0  0  0
  2  3  1  0
  2  1  1  6
  4  3  1  0
  5  2  1  0
  6  5  2  0
  8  9  2  0
  8  7  1  0
 10  9  1  0
 11 10  2  0
 13 12  1  1
 12 11  1  0
 13 14  1  0
 14  5  1  0
 15 26  1  0
 15 13  1  0
 16 15  2  0
 17 11  1  0
 17 18  2  0
 18  8  1  0
 20 19  1  0
 21 20  2  0
 22 21  1  0
 23 29  1  0
 23 22  2  0
 24 23  1  0
 25 24  1  1
 25 26  1  0
 27 28  1  0
 27 25  1  0
 29 30  2  0
 30 20  1  0
 31 27  2  0
M  END
$$$$
