CYY.pdb
     RDKit          3D

 31 32  0  0  1  0  0  0  0  0999 V2000
    6.0654  -18.5138   16.7423 N   0  0  0  0  0  0  0  0  0  0  0  0
    7.1176  -18.3962   17.7347 C   0  0  1  0  0  0  0  0  0  0  0  0
    8.1551  -17.4539   17.1717 C   0  0  0  0  0  0  0  0  0  0  0  0
    9.2812  -18.2838   16.0262 S   0  0  0  0  0  0  0  0  0  0  0  0
    6.5913  -17.9282   19.0402 C   0  0  0  0  0  0  0  0  0  0  0  0
    5.8288  -16.9410   19.0500 O   0  0  0  0  0  0  0  0  0  0  0  0
    0.6219  -20.5529   20.1758 O   0  0  0  0  0  0  0  0  0  0  0  0
    1.8966  -20.2421   20.6935 C   0  0  0  0  0  0  0  0  0  0  0  0
    2.0450  -19.2906   21.6784 C   0  0  0  0  0  0  0  0  0  0  0  0
    3.2893  -18.9916   22.1790 C   0  0  0  0  0  0  0  0  0  0  0  0
    4.4610  -19.6238   21.7273 C   0  0  0  0  0  0  0  0  0  0  0  0
    5.7658  -19.2518   22.3302 C   0  0  0  0  0  0  0  0  0  0  0  0
    6.4880  -18.1650   21.5492 C   0  0  2  0  0  0  0  0  0  0  0  0
    6.9295  -18.5651   20.2471 N   0  0  0  0  0  0  0  0  0  0  0  0
    7.5081  -17.4816   22.3573 C   0  0  0  0  0  0  0  0  0  0  0  0
    8.6529  -17.9882   22.4356 O   0  0  0  0  0  0  0  0  0  0  0  0
    4.2791  -20.5647   20.7482 C   0  0  0  0  0  0  0  0  0  0  0  0
    3.0230  -20.8739   20.2352 C   0  0  0  0  0  0  0  0  0  0  0  0
    8.8381  -12.5425   18.2776 O   0  0  0  0  0  0  0  0  0  0  0  0
    8.6404  -12.9213   19.6015 C   0  0  0  0  0  0  0  0  0  0  0  0
    9.7075  -13.0356   20.4651 C   0  0  0  0  0  0  0  0  0  0  0  0
    9.5354  -13.4093   21.7804 C   0  0  0  0  0  0  0  0  0  0  0  0
    8.2653  -13.6897   22.2977 C   0  0  0  0  0  0  0  0  0  0  0  0
    8.1295  -14.1036   23.7097 C   0  0  0  0  0  0  0  0  0  0  0  0
    8.2555  -15.5927   23.8432 C   0  0  2  0  0  0  0  0  0  0  0  0
    7.2500  -16.2828   23.0448 N   0  0  0  0  0  0  0  0  0  0  0  0
    8.1969  -16.0810   25.2200 C   0  0  0  0  0  0  0  0  0  0  0  0
    7.1856  -16.8917   25.6974 O   0  0  0  0  0  0  0  0  0  0  0  0
    7.2094  -13.5706   21.4205 C   0  0  0  0  0  0  0  0  0  0  0  0
    7.3833  -13.1946   20.0974 C   0  0  0  0  0  0  0  0  0  0  0  0
    9.1072  -15.7593   26.0429 O   0  0  0  0  0  0  0  0  0  0  0  0
  2  3  1  0
  2  1  1  6
  4  3  1  0
  5  2  1  0
  6  5  2  0
  8  9  2  0
  8  7  1  0
 10  9  1  0
 11 10  2  0
 13 12  1  1
 12 11  1  0
 13 14  1  0
 14  5  1  0
 15 26  1  0
 15 13  1  0
 16 15  2  0
 17 11  1  0
 17 18  2  0
 18  8  1  0
 20 19  1  0
 21 20  2  0
 22 21  1  0
 23 29  1  0
 23 22  2  0
 24 23  1  0
 25 24  1  1
 25 26  1  0
 27 28  1  0
 27 25  1  0
 29 30  2  0
 30 20  1  0
 31 27  2  0
M  END
$$$$
