CYY.pdb
     RDKit          3D

 31 32  0  0  1  0  0  0  0  0999 V2000
    6.5606  -21.4169   23.4260 N   0  0  0  0  0  0  0  0  0  0  0  0
    6.3336  -20.1677   24.1287 C   0  0  1  0  0  0  0  0  0  0  0  0
    6.7784  -20.3751   25.5571 C   0  0  0  0  0  0  0  0  0  0  0  0
    6.3944  -18.9527   26.6052 S   0  0  0  0  0  0  0  0  0  0  0  0
    7.0450  -19.0375   23.4831 C   0  0  0  0  0  0  0  0  0  0  0  0
    8.1897  -19.2410   23.0312 O   0  0  0  0  0  0  0  0  0  0  0  0
    8.9837  -12.1664   18.5220 O   0  0  0  0  0  0  0  0  0  0  0  0
    8.2911  -13.0130   19.4126 C   0  0  0  0  0  0  0  0  0  0  0  0
    7.8019  -14.2300   18.9923 C   0  0  0  0  0  0  0  0  0  0  0  0
    7.1277  -15.0508   19.8641 C   0  0  0  0  0  0  0  0  0  0  0  0
    6.9006  -14.7069   21.2082 C   0  0  0  0  0  0  0  0  0  0  0  0
    6.1742  -15.6567   22.0884 C   0  0  0  0  0  0  0  0  0  0  0  0
    7.1053  -16.6013   22.8324 C   0  0  2  0  0  0  0  0  0  0  0  0
    6.4637  -17.7621   23.3723 N   0  0  0  0  0  0  0  0  0  0  0  0
    7.9814  -15.8926   23.7761 C   0  0  0  0  0  0  0  0  0  0  0  0
    7.6687  -14.7311   24.1317 O   0  0  0  0  0  0  0  0  0  0  0  0
    7.3999  -13.4909   21.5945 C   0  0  0  0  0  0  0  0  0  0  0  0
    8.0836  -12.6532   20.7186 C   0  0  0  0  0  0  0  0  0  0  0  0
    5.5347  -11.3160   26.1427 O   0  0  0  0  0  0  0  0  0  0  0  0
    6.4913  -12.3218   26.2344 C   0  0  0  0  0  0  0  0  0  0  0  0
    6.1201  -13.6480   26.2002 C   0  0  0  0  0  0  0  0  0  0  0  0
    7.0502  -14.6609   26.2893 C   0  0  0  0  0  0  0  0  0  0  0  0
    8.4166  -14.3858   26.4188 C   0  0  0  0  0  0  0  0  0  0  0  0
    9.3771  -15.5034   26.5286 C   0  0  0  0  0  0  0  0  0  0  0  0
   10.0453  -15.7634   25.2107 C   0  0  2  0  0  0  0  0  0  0  0  0
    9.1551  -16.4664   24.2952 N   0  0  0  0  0  0  0  0  0  0  0  0
   11.3091  -16.4918   25.3095 C   0  0  0  0  0  0  0  0  0  0  0  0
   12.3751  -16.0651   26.0772 O   0  0  0  0  0  0  0  0  0  0  0  0
    8.7704  -13.0545   26.4515 C   0  0  0  0  0  0  0  0  0  0  0  0
    7.8340  -12.0359   26.3617 C   0  0  0  0  0  0  0  0  0  0  0  0
   11.4653  -17.5744   24.6672 O   0  0  0  0  0  0  0  0  0  0  0  0
  2  3  1  0
  2  1  1  6
  4  3  1  0
  5  2  1  0
  6  5  2  0
  8  9  2  0
  8  7  1  0
 10  9  1  0
 11 10  2  0
 13 12  1  1
 12 11  1  0
 13 14  1  0
 14  5  1  0
 15 26  1  0
 15 13  1  0
 16 15  2  0
 17 11  1  0
 17 18  2  0
 18  8  1  0
 20 19  1  0
 21 20  2  0
 22 21  1  0
 23 29  1  0
 23 22  2  0
 24 23  1  0
 25 24  1  1
 25 26  1  0
 27 28  1  0
 27 25  1  0
 29 30  2  0
 30 20  1  0
 31 27  2  0
M  END
$$$$
