CYY.pdb
     RDKit          3D

 31 32  0  0  1  0  0  0  0  0999 V2000
   10.1896  -16.8741   18.3907 N   0  0  0  0  0  0  0  0  0  0  0  0
    9.0971  -17.1316   19.3106 C   0  0  1  0  0  0  0  0  0  0  0  0
    9.0389  -18.6258   19.5229 C   0  0  0  0  0  0  0  0  0  0  0  0
    7.4147  -19.1706   20.1011 S   0  0  0  0  0  0  0  0  0  0  0  0
    9.2684  -16.3948   20.5865 C   0  0  0  0  0  0  0  0  0  0  0  0
   10.3924  -16.4038   21.1275 O   0  0  0  0  0  0  0  0  0  0  0  0
    7.4150  -11.7641   27.9632 O   0  0  0  0  0  0  0  0  0  0  0  0
    7.3582  -12.3143   26.6656 C   0  0  0  0  0  0  0  0  0  0  0  0
    8.1493  -11.8173   25.6536 C   0  0  0  0  0  0  0  0  0  0  0  0
    8.0898  -12.3569   24.3912 C   0  0  0  0  0  0  0  0  0  0  0  0
    7.2373  -13.4253   24.0622 C   0  0  0  0  0  0  0  0  0  0  0  0
    7.2431  -13.9593   22.6767 C   0  0  0  0  0  0  0  0  0  0  0  0
    8.2393  -15.0923   22.4855 C   0  0  2  0  0  0  0  0  0  0  0  0
    8.2061  -15.6977   21.1883 N   0  0  0  0  0  0  0  0  0  0  0  0
    8.2227  -16.0445   23.6051 C   0  0  0  0  0  0  0  0  0  0  0  0
    7.2743  -16.8614   23.6866 O   0  0  0  0  0  0  0  0  0  0  0  0
    6.4644  -13.8966   25.0905 C   0  0  0  0  0  0  0  0  0  0  0  0
    6.5179  -13.3562   26.3718 C   0  0  0  0  0  0  0  0  0  0  0  0
   14.1656  -19.2719   22.2178 O   0  0  0  0  0  0  0  0  0  0  0  0
   12.9986  -19.0740   22.9486 C   0  0  0  0  0  0  0  0  0  0  0  0
   11.7692  -19.1005   22.3276 C   0  0  0  0  0  0  0  0  0  0  0  0
   10.6003  -18.9071   23.0313 C   0  0  0  0  0  0  0  0  0  0  0  0
   10.6110  -18.6747   24.4117 C   0  0  0  0  0  0  0  0  0  0  0  0
    9.3345  -18.4554   25.1229 C   0  0  0  0  0  0  0  0  0  0  0  0
    9.2584  -17.0578   25.6631 C   0  0  2  0  0  0  0  0  0  0  0  0
    9.2285  -16.0751   24.5869 N   0  0  0  0  0  0  0  0  0  0  0  0
   10.3273  -16.7150   26.5999 C   0  0  0  0  0  0  0  0  0  0  0  0
   11.1072  -15.5811   26.4826 O   0  0  0  0  0  0  0  0  0  0  0  0
   11.8488  -18.6513   25.0168 C   0  0  0  0  0  0  0  0  0  0  0  0
   13.0244  -18.8460   24.3081 C   0  0  0  0  0  0  0  0  0  0  0  0
   10.5763  -17.4802   27.5806 O   0  0  0  0  0  0  0  0  0  0  0  0
  2  3  1  0
  2  1  1  6
  4  3  1  0
  5  2  1  0
  6  5  2  0
  8  9  2  0
  8  7  1  0
 10  9  1  0
 11 10  2  0
 13 12  1  1
 12 11  1  0
 13 14  1  0
 14  5  1  0
 15 26  1  0
 15 13  1  0
 16 15  2  0
 17 11  1  0
 17 18  2  0
 18  8  1  0
 20 19  1  0
 21 20  2  0
 22 21  1  0
 23 29  1  0
 23 22  2  0
 24 23  1  0
 25 24  1  6
 25 26  1  0
 27 28  1  0
 27 25  1  0
 29 30  2  0
 30 20  1  0
 31 27  2  0
M  END
$$$$
