CYY.pdb
     RDKit          3D

 31 32  0  0  1  0  0  0  0  0999 V2000
    9.3188  -19.3710   19.2596 N   0  0  0  0  0  0  0  0  0  0  0  0
    8.6485  -18.8599   20.4409 C   0  0  1  0  0  0  0  0  0  0  0  0
    8.5998  -19.9866   21.4456 C   0  0  0  0  0  0  0  0  0  0  0  0
   10.0465  -19.9976   22.5299 S   0  0  0  0  0  0  0  0  0  0  0  0
    9.3310  -17.6599   20.9835 C   0  0  0  0  0  0  0  0  0  0  0  0
   10.4873  -17.4088   20.5884 O   0  0  0  0  0  0  0  0  0  0  0  0
    6.4427  -13.0003   17.1603 O   0  0  0  0  0  0  0  0  0  0  0  0
    6.8981  -13.3385   18.4517 C   0  0  0  0  0  0  0  0  0  0  0  0
    6.1779  -14.1989   19.2506 C   0  0  0  0  0  0  0  0  0  0  0  0
    6.6260  -14.5249   20.5081 C   0  0  0  0  0  0  0  0  0  0  0  0
    7.8201  -14.0122   21.0446 C   0  0  0  0  0  0  0  0  0  0  0  0
    8.2404  -14.4252   22.4075 C   0  0  0  0  0  0  0  0  0  0  0  0
    9.2400  -15.5712   22.3944 C   0  0  2  0  0  0  0  0  0  0  0  0
    8.7104  -16.8138   21.9192 N   0  0  0  0  0  0  0  0  0  0  0  0
    9.9929  -15.6690   23.6530 C   0  0  0  0  0  0  0  0  0  0  0  0
   10.1448  -14.6343   24.3456 O   0  0  0  0  0  0  0  0  0  0  0  0
    8.5127  -13.1602   20.2251 C   0  0  0  0  0  0  0  0  0  0  0  0
    8.0664  -12.8243   18.9505 C   0  0  0  0  0  0  0  0  0  0  0  0
    6.0865  -20.7205   27.1046 O   0  0  0  0  0  0  0  0  0  0  0  0
    7.0613  -19.7370   26.9714 C   0  0  0  0  0  0  0  0  0  0  0  0
    6.8396  -18.6326   26.1784 C   0  0  0  0  0  0  0  0  0  0  0  0
    7.7905  -17.6460   26.0318 C   0  0  0  0  0  0  0  0  0  0  0  0
    9.0267  -17.7231   26.6842 C   0  0  0  0  0  0  0  0  0  0  0  0
   10.0234  -16.6507   26.4844 C   0  0  0  0  0  0  0  0  0  0  0  0
   11.0483  -17.0581   25.4673 C   0  0  2  0  0  0  0  0  0  0  0  0
   10.5483  -16.8769   24.1101 N   0  0  0  0  0  0  0  0  0  0  0  0
   11.5397  -18.4263   25.6220 C   0  0  0  0  0  0  0  0  0  0  0  0
   11.4805  -19.3739   24.6188 O   0  0  0  0  0  0  0  0  0  0  0  0
    9.2319  -18.8341   27.4731 C   0  0  0  0  0  0  0  0  0  0  0  0
    8.2746  -19.8263   27.6201 C   0  0  0  0  0  0  0  0  0  0  0  0
   12.0509  -18.7924   26.7237 O   0  0  0  0  0  0  0  0  0  0  0  0
  2  3  1  0
  2  1  1  6
  4  3  1  0
  5  2  1  0
  6  5  2  0
  8  9  2  0
  8  7  1  0
 10  9  1  0
 11 10  2  0
 13 12  1  1
 12 11  1  0
 13 14  1  0
 14  5  1  0
 15 26  1  0
 15 13  1  0
 16 15  2  0
 17 11  1  0
 17 18  2  0
 18  8  1  0
 20 19  1  0
 21 20  2  0
 22 21  1  0
 23 29  1  0
 23 22  2  0
 24 23  1  0
 25 24  1  1
 25 26  1  0
 27 28  1  0
 27 25  1  0
 29 30  2  0
 30 20  1  0
 31 27  2  0
M  END
$$$$
