CYY.pdb
     RDKit          3D

 31 32  0  0  1  0  0  0  0  0999 V2000
   11.1337  -27.5252   23.3724 N   0  0  0  0  0  0  0  0  0  0  0  0
   10.7444  -26.3556   22.6065 C   0  0  1  0  0  0  0  0  0  0  0  0
    9.2400  -26.2507   22.6909 C   0  0  0  0  0  0  0  0  0  0  0  0
    8.5541  -27.3024   23.9918 S   0  0  0  0  0  0  0  0  0  0  0  0
   11.4161  -25.1283   23.0991 C   0  0  0  0  0  0  0  0  0  0  0  0
   12.6596  -25.1342   23.1970 O   0  0  0  0  0  0  0  0  0  0  0  0
   12.2470  -21.6261   17.6232 O   0  0  0  0  0  0  0  0  0  0  0  0
   11.9054  -21.5903   18.9912 C   0  0  0  0  0  0  0  0  0  0  0  0
   10.6329  -21.9120   19.4090 C   0  0  0  0  0  0  0  0  0  0  0  0
   10.3054  -21.8753   20.7431 C   0  0  0  0  0  0  0  0  0  0  0  0
   11.2278  -21.5152   21.7412 C   0  0  0  0  0  0  0  0  0  0  0  0
   10.7969  -21.5133   23.1620 C   0  0  0  0  0  0  0  0  0  0  0  0
   11.2582  -22.7485   23.9199 C   0  0  2  0  0  0  0  0  0  0  0  0
   10.6904  -23.9770   23.4521 N   0  0  0  0  0  0  0  0  0  0  0  0
   11.1991  -22.5634   25.3769 C   0  0  0  0  0  0  0  0  0  0  0  0
   10.0769  -22.4352   25.9223 O   0  0  0  0  0  0  0  0  0  0  0  0
   12.4838  -21.2015   21.2929 C   0  0  0  0  0  0  0  0  0  0  0  0
   12.8244  -21.2358   19.9440 C   0  0  0  0  0  0  0  0  0  0  0  0
   11.8507  -26.0121   33.1729 O   0  0  0  0  0  0  0  0  0  0  0  0
   11.8458  -25.5982   31.8448 C   0  0  0  0  0  0  0  0  0  0  0  0
   10.7368  -24.9840   31.3057 C   0  0  0  0  0  0  0  0  0  0  0  0
   10.7095  -24.5658   29.9929 C   0  0  0  0  0  0  0  0  0  0  0  0
   11.8104  -24.7472   29.1475 C   0  0  0  0  0  0  0  0  0  0  0  0
   11.7306  -24.2986   27.7418 C   0  0  0  0  0  0  0  0  0  0  0  0
   12.3597  -22.9466   27.5771 C   0  0  2  0  0  0  0  0  0  0  0  0
   12.3511  -22.5251   26.1817 N   0  0  0  0  0  0  0  0  0  0  0  0
   13.7202  -22.8471   28.1029 C   0  0  0  0  0  0  0  0  0  0  0  0
   14.8442  -23.1825   27.3736 O   0  0  0  0  0  0  0  0  0  0  0  0
   12.9109  -25.3630   29.7027 C   0  0  0  0  0  0  0  0  0  0  0  0
   12.9377  -25.7835   31.0236 C   0  0  0  0  0  0  0  0  0  0  0  0
   13.9103  -22.4360   29.2879 O   0  0  0  0  0  0  0  0  0  0  0  0
  2  3  1  0
  2  1  1  1
  4  3  1  0
  5  2  1  0
  6  5  2  0
  8  9  2  0
  8  7  1  0
 10  9  1  0
 11 10  2  0
 13 12  1  6
 12 11  1  0
 13 14  1  0
 14  5  1  0
 15 26  1  0
 15 13  1  0
 16 15  2  0
 17 11  1  0
 17 18  2  0
 18  8  1  0
 20 19  1  0
 21 20  2  0
 22 21  1  0
 23 29  1  0
 23 22  2  0
 24 23  1  0
 25 24  1  6
 25 26  1  0
 27 28  1  0
 27 25  1  0
 29 30  2  0
 30 20  1  0
 31 27  2  0
M  END
$$$$
