CYY.pdb
     RDKit          3D

 31 32  0  0  1  0  0  0  0  0999 V2000
   10.2742  -18.8338   18.5756 N   0  0  0  0  0  0  0  0  0  0  0  0
    9.3213  -18.4874   19.6137 C   0  0  1  0  0  0  0  0  0  0  0  0
    8.9784  -19.7637   20.3450 C   0  0  0  0  0  0  0  0  0  0  0  0
   10.3754  -20.3999   21.3002 S   0  0  0  0  0  0  0  0  0  0  0  0
    9.8581  -17.4498   20.5277 C   0  0  0  0  0  0  0  0  0  0  0  0
   11.0596  -17.1322   20.4200 O   0  0  0  0  0  0  0  0  0  0  0  0
    6.5441  -12.4127   17.7873 O   0  0  0  0  0  0  0  0  0  0  0  0
    7.0383  -12.9654   18.9872 C   0  0  0  0  0  0  0  0  0  0  0  0
    6.2965  -13.8815   19.6998 C   0  0  0  0  0  0  0  0  0  0  0  0
    6.7826  -14.4167   20.8684 C   0  0  0  0  0  0  0  0  0  0  0  0
    8.0385  -14.0702   21.3968 C   0  0  0  0  0  0  0  0  0  0  0  0
    8.4957  -14.7047   22.6589 C   0  0  0  0  0  0  0  0  0  0  0  0
    9.4917  -15.8301   22.4262 C   0  0  2  0  0  0  0  0  0  0  0  0
    9.0524  -16.8273   21.4973 N   0  0  0  0  0  0  0  0  0  0  0  0
   10.0350  -16.3631   23.6837 C   0  0  0  0  0  0  0  0  0  0  0  0
    9.2417  -16.6233   24.6198 O   0  0  0  0  0  0  0  0  0  0  0  0
    8.7511  -13.1576   20.6644 C   0  0  0  0  0  0  0  0  0  0  0  0
    8.2666  -12.6103   19.4802 C   0  0  0  0  0  0  0  0  0  0  0  0
    6.7753  -19.8326   27.9382 O   0  0  0  0  0  0  0  0  0  0  0  0
    7.9183  -19.5743   27.1886 C   0  0  0  0  0  0  0  0  0  0  0  0
    8.1108  -20.1864   25.9695 C   0  0  0  0  0  0  0  0  0  0  0  0
    9.2351  -19.9455   25.2099 C   0  0  0  0  0  0  0  0  0  0  0  0
   10.2335  -19.0660   25.6451 C   0  0  0  0  0  0  0  0  0  0  0  0
   11.4305  -18.8511   24.8058 C   0  0  0  0  0  0  0  0  0  0  0  0
   11.9299  -17.4427   24.9401 C   0  0  2  0  0  0  0  0  0  0  0  0
   11.4085  -16.5925   23.8771 N   0  0  0  0  0  0  0  0  0  0  0  0
   13.3862  -17.3216   24.9843 C   0  0  0  0  0  0  0  0  0  0  0  0
   14.1204  -16.6229   24.0459 O   0  0  0  0  0  0  0  0  0  0  0  0
   10.0252  -18.4627   26.8662 C   0  0  0  0  0  0  0  0  0  0  0  0
    8.8937  -18.7055   27.6299 C   0  0  0  0  0  0  0  0  0  0  0  0
   14.0375  -17.8776   25.9202 O   0  0  0  0  0  0  0  0  0  0  0  0
  2  3  1  0
  2  1  1  6
  4  3  1  0
  5  2  1  0
  6  5  2  0
  8  9  2  0
  8  7  1  0
 10  9  1  0
 11 10  2  0
 13 12  1  1
 12 11  1  0
 13 14  1  0
 14  5  1  0
 15 26  1  0
 15 13  1  0
 16 15  2  0
 17 11  1  0
 17 18  2  0
 18  8  1  0
 20 19  1  0
 21 20  2  0
 22 21  1  0
 23 29  1  0
 23 22  2  0
 24 23  1  0
 25 24  1  6
 25 26  1  0
 27 28  1  0
 27 25  1  0
 29 30  2  0
 30 20  1  0
 31 27  2  0
M  END
$$$$
