CYY.pdb
     RDKit          3D

 31 32  0  0  1  0  0  0  0  0999 V2000
    7.1564  -19.6484   20.5889 N   0  0  0  0  0  0  0  0  0  0  0  0
    6.7240  -18.5103   21.3787 C   0  0  1  0  0  0  0  0  0  0  0  0
    6.0069  -19.0578   22.5900 C   0  0  0  0  0  0  0  0  0  0  0  0
    7.1502  -19.7686   23.7969 S   0  0  0  0  0  0  0  0  0  0  0  0
    7.8633  -17.6378   21.7539 C   0  0  0  0  0  0  0  0  0  0  0  0
    9.0190  -18.0925   21.6373 O   0  0  0  0  0  0  0  0  0  0  0  0
    8.0868  -12.9800   16.6922 O   0  0  0  0  0  0  0  0  0  0  0  0
    8.1550  -13.2245   18.0797 C   0  0  0  0  0  0  0  0  0  0  0  0
    9.3584  -13.5048   18.6882 C   0  0  0  0  0  0  0  0  0  0  0  0
    9.4191  -13.7423   20.0403 C   0  0  0  0  0  0  0  0  0  0  0  0
    8.2825  -13.7146   20.8673 C   0  0  0  0  0  0  0  0  0  0  0  0
    8.4360  -13.9696   22.3219 C   0  0  0  0  0  0  0  0  0  0  0  0
    8.7077  -15.4319   22.6389 C   0  0  2  0  0  0  0  0  0  0  0  0
    7.6693  -16.3294   22.2307 N   0  0  0  0  0  0  0  0  0  0  0  0
    9.1759  -15.6259   24.0187 C   0  0  0  0  0  0  0  0  0  0  0  0
   10.2480  -15.0797   24.3730 O   0  0  0  0  0  0  0  0  0  0  0  0
    7.1019  -13.4327   20.2318 C   0  0  0  0  0  0  0  0  0  0  0  0
    7.0310  -13.1911   18.8631 C   0  0  0  0  0  0  0  0  0  0  0  0
    6.3647  -10.6585   26.6432 O   0  0  0  0  0  0  0  0  0  0  0  0
    6.6712  -12.0075   26.7894 C   0  0  0  0  0  0  0  0  0  0  0  0
    7.8730  -12.3983   27.3376 C   0  0  0  0  0  0  0  0  0  0  0  0
    8.1979  -13.7286   27.4921 C   0  0  0  0  0  0  0  0  0  0  0  0
    7.3184  -14.7437   27.0977 C   0  0  0  0  0  0  0  0  0  0  0  0
    7.7155  -16.1570   27.2662 C   0  0  0  0  0  0  0  0  0  0  0  0
    8.8577  -16.5020   26.3566 C   0  0  2  0  0  0  0  0  0  0  0  0
    8.4685  -16.3993   24.9557 N   0  0  0  0  0  0  0  0  0  0  0  0
    9.4443  -17.8190   26.5992 C   0  0  0  0  0  0  0  0  0  0  0  0
   10.0160  -18.1875   27.8014 O   0  0  0  0  0  0  0  0  0  0  0  0
    6.1211  -14.3354   26.5513 C   0  0  0  0  0  0  0  0  0  0  0  0
    5.7950  -12.9968   26.3963 C   0  0  0  0  0  0  0  0  0  0  0  0
    9.4447  -18.6893   25.6763 O   0  0  0  0  0  0  0  0  0  0  0  0
  2  3  1  0
  2  1  1  1
  4  3  1  0
  5  2  1  0
  6  5  2  0
  8  9  2  0
  8  7  1  0
 10  9  1  0
 11 10  2  0
 13 12  1  1
 12 11  1  0
 13 14  1  0
 14  5  1  0
 15 26  1  0
 15 13  1  0
 16 15  2  0
 17 11  1  0
 17 18  2  0
 18  8  1  0
 20 19  1  0
 21 20  2  0
 22 21  1  0
 23 29  1  0
 23 22  2  0
 24 23  1  0
 25 24  1  1
 25 26  1  0
 27 28  1  0
 27 25  1  0
 29 30  2  0
 30 20  1  0
 31 27  2  0
M  END
$$$$
