CYY.pdb
     RDKit          3D

 31 32  0  0  1  0  0  0  0  0999 V2000
    3.8232  -20.9634   22.9592 N   0  0  0  0  0  0  0  0  0  0  0  0
    5.2670  -20.8177   22.9483 C   0  0  1  0  0  0  0  0  0  0  0  0
    5.6978  -20.7759   21.5013 C   0  0  0  0  0  0  0  0  0  0  0  0
    7.4914  -20.6293   21.3268 S   0  0  0  0  0  0  0  0  0  0  0  0
    5.7027  -19.6114   23.6934 C   0  0  0  0  0  0  0  0  0  0  0  0
    5.0428  -18.5618   23.5559 O   0  0  0  0  0  0  0  0  0  0  0  0
   10.1341  -14.1988   29.1531 O   0  0  0  0  0  0  0  0  0  0  0  0
    9.5846  -15.3439   28.5398 C   0  0  0  0  0  0  0  0  0  0  0  0
    8.2409  -15.4095   28.2443 C   0  0  0  0  0  0  0  0  0  0  0  0
    7.7106  -16.5277   27.6469 C   0  0  0  0  0  0  0  0  0  0  0  0
    8.4891  -17.6483   27.3082 C   0  0  0  0  0  0  0  0  0  0  0  0
    7.8407  -18.8120   26.6526 C   0  0  0  0  0  0  0  0  0  0  0  0
    7.3475  -18.4987   25.2485 C   0  0  2  0  0  0  0  0  0  0  0  0
    6.8266  -19.6275   24.5380 N   0  0  0  0  0  0  0  0  0  0  0  0
    8.3090  -17.6880   24.4876 C   0  0  0  0  0  0  0  0  0  0  0  0
    9.2566  -18.2674   23.9048 O   0  0  0  0  0  0  0  0  0  0  0  0
    9.8209  -17.5512   27.6147 C   0  0  0  0  0  0  0  0  0  0  0  0
   10.3664  -16.4230   28.2198 C   0  0  0  0  0  0  0  0  0  0  0  0
    6.0223  -11.7256   27.6371 O   0  0  0  0  0  0  0  0  0  0  0  0
    6.5907  -12.3250   26.5178 C   0  0  0  0  0  0  0  0  0  0  0  0
    5.8925  -13.2687   25.7969 C   0  0  0  0  0  0  0  0  0  0  0  0
    6.4354  -13.8754   24.6851 C   0  0  0  0  0  0  0  0  0  0  0  0
    7.7237  -13.5583   24.2383 C   0  0  0  0  0  0  0  0  0  0  0  0
    8.2724  -14.2464   23.0514 C   0  0  0  0  0  0  0  0  0  0  0  0
    8.9940  -15.5005   23.4482 C   0  0  2  0  0  0  0  0  0  0  0  0
    8.2068  -16.2894   24.3878 N   0  0  0  0  0  0  0  0  0  0  0  0
   10.3278  -15.2778   24.0040 C   0  0  0  0  0  0  0  0  0  0  0  0
   11.3736  -14.7398   23.2798 O   0  0  0  0  0  0  0  0  0  0  0  0
    8.4079  -12.6128   24.9708 C   0  0  0  0  0  0  0  0  0  0  0  0
    7.8610  -12.0028   26.0893 C   0  0  0  0  0  0  0  0  0  0  0  0
   10.5681  -15.5862   25.2108 O   0  0  0  0  0  0  0  0  0  0  0  0
  2  3  1  0
  2  1  1  6
  4  3  1  0
  5  2  1  0
  6  5  2  0
  8  9  2  0
  8  7  1  0
 10  9  1  0
 11 10  2  0
 13 12  1  1
 12 11  1  0
 13 14  1  0
 14  5  1  0
 15 26  1  0
 15 13  1  0
 16 15  2  0
 17 11  1  0
 17 18  2  0
 18  8  1  0
 20 19  1  0
 21 20  2  0
 22 21  1  0
 23 29  1  0
 23 22  2  0
 24 23  1  0
 25 24  1  1
 25 26  1  0
 27 28  1  0
 27 25  1  0
 29 30  2  0
 30 20  1  0
 31 27  2  0
M  END
$$$$
