CYY.pdb
     RDKit          3D

 31 32  0  0  1  0  0  0  0  0999 V2000
    6.2060  -19.1407   20.4482 N   0  0  0  0  0  0  0  0  0  0  0  0
    5.7518  -18.1549   21.4115 C   0  0  1  0  0  0  0  0  0  0  0  0
    4.9173  -18.8871   22.4356 C   0  0  0  0  0  0  0  0  0  0  0  0
    3.7012  -19.9830   21.6681 S   0  0  0  0  0  0  0  0  0  0  0  0
    6.8875  -17.4315   22.0338 C   0  0  0  0  0  0  0  0  0  0  0  0
    7.9793  -18.0254   22.1395 O   0  0  0  0  0  0  0  0  0  0  0  0
    8.5548  -12.9072   17.2483 O   0  0  0  0  0  0  0  0  0  0  0  0
    8.3888  -13.1479   18.6281 C   0  0  0  0  0  0  0  0  0  0  0  0
    7.1396  -13.1036   19.2065 C   0  0  0  0  0  0  0  0  0  0  0  0
    6.9836  -13.3388   20.5514 C   0  0  0  0  0  0  0  0  0  0  0  0
    8.0648  -13.6324   21.4007 C   0  0  0  0  0  0  0  0  0  0  0  0
    7.8090  -13.8869   22.8410 C   0  0  0  0  0  0  0  0  0  0  0  0
    7.7764  -15.3688   23.1813 C   0  0  2  0  0  0  0  0  0  0  0  0
    6.7594  -16.1110   22.4993 N   0  0  0  0  0  0  0  0  0  0  0  0
    7.8418  -15.6100   24.6298 C   0  0  0  0  0  0  0  0  0  0  0  0
    7.0140  -15.0321   25.3742 O   0  0  0  0  0  0  0  0  0  0  0  0
    9.2930  -13.6693   20.7947 C   0  0  0  0  0  0  0  0  0  0  0  0
    9.4604  -13.4323   19.4337 C   0  0  0  0  0  0  0  0  0  0  0  0
    6.4066  -22.2084   24.2047 O   0  0  0  0  0  0  0  0  0  0  0  0
    6.6832  -21.0449   24.9152 C   0  0  0  0  0  0  0  0  0  0  0  0
    5.9936  -19.8817   24.6521 C   0  0  0  0  0  0  0  0  0  0  0  0
    6.2507  -18.7176   25.3433 C   0  0  0  0  0  0  0  0  0  0  0  0
    7.2266  -18.6659   26.3456 C   0  0  0  0  0  0  0  0  0  0  0  0
    7.4808  -17.3916   27.0490 C   0  0  0  0  0  0  0  0  0  0  0  0
    8.7960  -16.8041   26.6293 C   0  0  2  0  0  0  0  0  0  0  0  0
    8.7954  -16.4632   25.2121 N   0  0  0  0  0  0  0  0  0  0  0  0
    9.9535  -17.6479   26.9222 C   0  0  0  0  0  0  0  0  0  0  0  0
   10.2342  -18.1444   28.1801 O   0  0  0  0  0  0  0  0  0  0  0  0
    7.9068  -19.8378   26.5957 C   0  0  0  0  0  0  0  0  0  0  0  0
    7.6475  -21.0087   25.9000 C   0  0  0  0  0  0  0  0  0  0  0  0
   10.7610  -17.9558   25.9936 O   0  0  0  0  0  0  0  0  0  0  0  0
  2  3  1  0
  2  1  1  6
  4  3  1  0
  5  2  1  0
  6  5  2  0
  8  9  2  0
  8  7  1  0
 10  9  1  0
 11 10  2  0
 13 12  1  1
 12 11  1  0
 13 14  1  0
 14  5  1  0
 15 26  1  0
 15 13  1  0
 16 15  2  0
 17 11  1  0
 17 18  2  0
 18  8  1  0
 20 19  1  0
 21 20  2  0
 22 21  1  0
 23 29  1  0
 23 22  2  0
 24 23  1  0
 25 24  1  6
 25 26  1  0
 27 28  1  0
 27 25  1  0
 29 30  2  0
 30 20  1  0
 31 27  2  0
M  END
$$$$
