CYY.pdb
     RDKit          3D

 31 32  0  0  1  0  0  0  0  0999 V2000
    9.7116  -15.2124   16.1271 N   0  0  0  0  0  0  0  0  0  0  0  0
   10.5806  -16.2096   16.7240 C   0  0  1  0  0  0  0  0  0  0  0  0
   11.2722  -16.9305   15.5913 C   0  0  0  0  0  0  0  0  0  0  0  0
   11.0863  -16.0636   14.0156 S   0  0  0  0  0  0  0  0  0  0  0  0
   11.5484  -15.5999   17.6685 C   0  0  0  0  0  0  0  0  0  0  0  0
   11.7460  -14.3702   17.5998 O   0  0  0  0  0  0  0  0  0  0  0  0
    8.5913  -16.9431   23.9085 O   0  0  0  0  0  0  0  0  0  0  0  0
    9.7681  -16.8951   23.1324 C   0  0  0  0  0  0  0  0  0  0  0  0
   10.6449  -15.8390   23.2456 C   0  0  0  0  0  0  0  0  0  0  0  0
   11.7900  -15.7972   22.4869 C   0  0  0  0  0  0  0  0  0  0  0  0
   12.1294  -16.8068   21.5693 C   0  0  0  0  0  0  0  0  0  0  0  0
   13.3925  -16.6921   20.7973 C   0  0  0  0  0  0  0  0  0  0  0  0
   13.2338  -15.8747   19.5247 C   0  0  2  0  0  0  0  0  0  0  0  0
   12.2361  -16.3684   18.6241 N   0  0  0  0  0  0  0  0  0  0  0  0
   14.5258  -15.5654   18.8957 C   0  0  0  0  0  0  0  0  0  0  0  0
   14.9953  -16.3712   18.0570 O   0  0  0  0  0  0  0  0  0  0  0  0
   11.2372  -17.8427   21.4809 C   0  0  0  0  0  0  0  0  0  0  0  0
   10.0752  -17.8933   22.2450 C   0  0  0  0  0  0  0  0  0  0  0  0
   21.4981  -11.3650   15.6261 O   0  0  0  0  0  0  0  0  0  0  0  0
   20.2674  -11.6844   16.1905 C   0  0  0  0  0  0  0  0  0  0  0  0
   20.0209  -11.4352   17.5227 C   0  0  0  0  0  0  0  0  0  0  0  0
   18.8094  -11.7431   18.1030 C   0  0  0  0  0  0  0  0  0  0  0  0
   17.7736  -12.3242   17.3621 C   0  0  0  0  0  0  0  0  0  0  0  0
   16.4971  -12.6536   18.0296 C   0  0  0  0  0  0  0  0  0  0  0  0
   16.5138  -14.0618   18.5469 C   0  0  2  0  0  0  0  0  0  0  0  0
   15.2546  -14.4017   19.1977 N   0  0  0  0  0  0  0  0  0  0  0  0
   17.6212  -14.3569   19.4546 C   0  0  0  0  0  0  0  0  0  0  0  0
   18.7555  -15.0460   19.0722 O   0  0  0  0  0  0  0  0  0  0  0  0
   18.0370  -12.5667   16.0315 C   0  0  0  0  0  0  0  0  0  0  0  0
   19.2561  -12.2566   15.4484 C   0  0  0  0  0  0  0  0  0  0  0  0
   17.5658  -13.9745   20.6629 O   0  0  0  0  0  0  0  0  0  0  0  0
  2  3  1  0
  2  1  1  6
  4  3  1  0
  5  2  1  0
  6  5  2  0
  8  9  2  0
  8  7  1  0
 10  9  1  0
 11 10  2  0
 13 12  1  1
 12 11  1  0
 13 14  1  0
 14  5  1  0
 15 26  1  0
 15 13  1  0
 16 15  2  0
 17 11  1  0
 17 18  2  0
 18  8  1  0
 20 19  1  0
 21 20  2  0
 22 21  1  0
 23 29  1  0
 23 22  2  0
 24 23  1  0
 25 24  1  1
 25 26  1  0
 27 28  1  0
 27 25  1  0
 29 30  2  0
 30 20  1  0
 31 27  2  0
M  END
$$$$
