CYY.pdb
     RDKit          3D

 31 32  0  0  1  0  0  0  0  0999 V2000
    9.7575  -17.2581   18.9461 N   0  0  0  0  0  0  0  0  0  0  0  0
    8.4994  -17.0241   19.6304 C   0  0  1  0  0  0  0  0  0  0  0  0
    7.8014  -18.3587   19.7440 C   0  0  0  0  0  0  0  0  0  0  0  0
    7.2671  -18.9890   18.1358 S   0  0  0  0  0  0  0  0  0  0  0  0
    8.7047  -16.3892   20.9552 C   0  0  0  0  0  0  0  0  0  0  0  0
    9.7171  -16.7059   21.6114 O   0  0  0  0  0  0  0  0  0  0  0  0
    7.1930  -11.4623   28.2566 O   0  0  0  0  0  0  0  0  0  0  0  0
    7.1517  -11.9939   26.9507 C   0  0  0  0  0  0  0  0  0  0  0  0
    6.2144  -12.9419   26.6045 C   0  0  0  0  0  0  0  0  0  0  0  0
    6.1787  -13.4566   25.3308 C   0  0  0  0  0  0  0  0  0  0  0  0
    7.0763  -13.0565   24.3254 C   0  0  0  0  0  0  0  0  0  0  0  0
    6.9620  -13.6524   22.9703 C   0  0  0  0  0  0  0  0  0  0  0  0
    7.8733  -14.8542   22.7757 C   0  0  2  0  0  0  0  0  0  0  0  0
    7.7952  -15.4527   21.4772 N   0  0  0  0  0  0  0  0  0  0  0  0
    7.7886  -15.8052   23.8932 C   0  0  0  0  0  0  0  0  0  0  0  0
    6.7889  -16.5591   23.9678 O   0  0  0  0  0  0  0  0  0  0  0  0
    7.9953  -12.1126   24.7018 C   0  0  0  0  0  0  0  0  0  0  0  0
    8.0389  -11.5860   25.9892 C   0  0  0  0  0  0  0  0  0  0  0  0
    8.1348  -22.0750   29.6419 O   0  0  0  0  0  0  0  0  0  0  0  0
    8.2611  -21.1475   28.6129 C   0  0  0  0  0  0  0  0  0  0  0  0
    7.1588  -20.4696   28.1405 C   0  0  0  0  0  0  0  0  0  0  0  0
    7.2601  -19.5466   27.1223 C   0  0  0  0  0  0  0  0  0  0  0  0
    8.4910  -19.2567   26.5217 C   0  0  0  0  0  0  0  0  0  0  0  0
    8.5501  -18.2724   25.4212 C   0  0  0  0  0  0  0  0  0  0  0  0
    8.7430  -16.8844   25.9570 C   0  0  2  0  0  0  0  0  0  0  0  0
    8.7846  -15.9024   24.8806 N   0  0  0  0  0  0  0  0  0  0  0  0
    9.9248  -16.7240   26.8026 C   0  0  0  0  0  0  0  0  0  0  0  0
    9.9232  -16.9559   28.1642 O   0  0  0  0  0  0  0  0  0  0  0  0
    9.5828  -19.9436   27.0060 C   0  0  0  0  0  0  0  0  0  0  0  0
    9.4801  -20.8721   28.0306 C   0  0  0  0  0  0  0  0  0  0  0  0
   11.0231  -16.3522   26.2881 O   0  0  0  0  0  0  0  0  0  0  0  0
  2  3  1  0
  2  1  1  1
  4  3  1  0
  5  2  1  0
  6  5  2  0
  8  9  2  0
  8  7  1  0
 10  9  1  0
 11 10  2  0
 13 12  1  1
 12 11  1  0
 13 14  1  0
 14  5  1  0
 15 26  1  0
 15 13  1  0
 16 15  2  0
 17 11  1  0
 17 18  2  0
 18  8  1  0
 20 19  1  0
 21 20  2  0
 22 21  1  0
 23 29  1  0
 23 22  2  0
 24 23  1  0
 25 24  1  6
 25 26  1  0
 27 28  1  0
 27 25  1  0
 29 30  2  0
 30 20  1  0
 31 27  2  0
M  END
$$$$
