CYY.pdb
     RDKit          3D

 31 32  0  0  1  0  0  0  0  0999 V2000
    7.2470  -18.8716   19.5264 N   0  0  0  0  0  0  0  0  0  0  0  0
    6.9522  -17.9963   20.6457 C   0  0  1  0  0  0  0  0  0  0  0  0
    6.8332  -18.8696   21.8723 C   0  0  0  0  0  0  0  0  0  0  0  0
    5.3060  -19.8373   21.8761 S   0  0  0  0  0  0  0  0  0  0  0  0
    7.9869  -16.9461   20.8089 C   0  0  0  0  0  0  0  0  0  0  0  0
    9.1382  -17.1811   20.3902 O   0  0  0  0  0  0  0  0  0  0  0  0
    7.7176  -13.2960   15.4763 O   0  0  0  0  0  0  0  0  0  0  0  0
    7.8461  -13.3037   16.8809 C   0  0  0  0  0  0  0  0  0  0  0  0
    9.0881  -13.3404   17.4753 C   0  0  0  0  0  0  0  0  0  0  0  0
    9.2075  -13.3480   18.8443 C   0  0  0  0  0  0  0  0  0  0  0  0
    8.0948  -13.3195   19.7031 C   0  0  0  0  0  0  0  0  0  0  0  0
    8.3109  -13.3168   21.1721 C   0  0  0  0  0  0  0  0  0  0  0  0
    8.6594  -14.6921   21.7195 C   0  0  2  0  0  0  0  0  0  0  0  0
    7.7001  -15.7110   21.4163 N   0  0  0  0  0  0  0  0  0  0  0  0
    9.0741  -14.6429   23.1288 C   0  0  0  0  0  0  0  0  0  0  0  0
    8.5548  -13.7826   23.8794 O   0  0  0  0  0  0  0  0  0  0  0  0
    6.8748  -13.2829   19.0808 C   0  0  0  0  0  0  0  0  0  0  0  0
    6.7443  -13.2752   17.6954 C   0  0  0  0  0  0  0  0  0  0  0  0
   11.0178  -15.4633   31.4140 O   0  0  0  0  0  0  0  0  0  0  0  0
   10.5894  -15.4655   30.0906 C   0  0  0  0  0  0  0  0  0  0  0  0
   10.3608  -16.6522   29.4294 C   0  0  0  0  0  0  0  0  0  0  0  0
    9.9361  -16.6784   28.1186 C   0  0  0  0  0  0  0  0  0  0  0  0
    9.7179  -15.4972   27.3998 C   0  0  0  0  0  0  0  0  0  0  0  0
    9.2793  -15.5729   25.9908 C   0  0  0  0  0  0  0  0  0  0  0  0
   10.4532  -15.4789   25.0612 C   0  0  2  0  0  0  0  0  0  0  0  0
   10.0294  -15.5227   23.6672 N   0  0  0  0  0  0  0  0  0  0  0  0
   11.4816  -16.4936   25.2850 C   0  0  0  0  0  0  0  0  0  0  0  0
   12.6050  -16.2803   26.0599 O   0  0  0  0  0  0  0  0  0  0  0  0
    9.9515  -14.3196   28.0760 C   0  0  0  0  0  0  0  0  0  0  0  0
   10.3786  -14.2939   29.3948 C   0  0  0  0  0  0  0  0  0  0  0  0
   11.3649  -17.6387   24.7519 O   0  0  0  0  0  0  0  0  0  0  0  0
  2  3  1  0
  2  1  1  6
  4  3  1  0
  5  2  1  0
  6  5  2  0
  8  9  2  0
  8  7  1  0
 10  9  1  0
 11 10  2  0
 13 12  1  1
 12 11  1  0
 13 14  1  0
 14  5  1  0
 15 26  1  0
 15 13  1  0
 16 15  2  0
 17 11  1  0
 17 18  2  0
 18  8  1  0
 20 19  1  0
 21 20  2  0
 22 21  1  0
 23 29  1  0
 23 22  2  0
 24 23  1  0
 25 24  1  1
 25 26  1  0
 27 28  1  0
 27 25  1  0
 29 30  2  0
 30 20  1  0
 31 27  2  0
M  END
$$$$
