CYY.pdb
     RDKit          3D

 31 32  0  0  1  0  0  0  0  0999 V2000
   14.3201  -17.8863   15.5184 N   0  0  0  0  0  0  0  0  0  0  0  0
   13.3578  -17.7915   16.6004 C   0  0  1  0  0  0  0  0  0  0  0  0
   12.6326  -19.1147   16.6664 C   0  0  0  0  0  0  0  0  0  0  0  0
   11.6477  -19.2792   18.1736 S   0  0  0  0  0  0  0  0  0  0  0  0
   14.0109  -17.4503   17.8877 C   0  0  0  0  0  0  0  0  0  0  0  0
   15.0953  -18.0012   18.1641 O   0  0  0  0  0  0  0  0  0  0  0  0
   18.1280  -12.2082   16.9616 O   0  0  0  0  0  0  0  0  0  0  0  0
   17.1464  -12.8029   17.7816 C   0  0  0  0  0  0  0  0  0  0  0  0
   15.8496  -12.9446   17.3395 C   0  0  0  0  0  0  0  0  0  0  0  0
   14.8972  -13.5245   18.1426 C   0  0  0  0  0  0  0  0  0  0  0  0
   15.1810  -13.9982   19.4355 C   0  0  0  0  0  0  0  0  0  0  0  0
   14.0971  -14.6243   20.2340 C   0  0  0  0  0  0  0  0  0  0  0  0
   14.0136  -16.1299   20.0368 C   0  0  2  0  0  0  0  0  0  0  0  0
   13.4408  -16.5330   18.7879 N   0  0  0  0  0  0  0  0  0  0  0  0
   13.4607  -16.8167   21.2129 C   0  0  0  0  0  0  0  0  0  0  0  0
   12.2447  -16.6665   21.4813 O   0  0  0  0  0  0  0  0  0  0  0  0
   16.4792  -13.8428   19.8448 C   0  0  0  0  0  0  0  0  0  0  0  0
   17.4502  -13.2566   19.0385 C   0  0  0  0  0  0  0  0  0  0  0  0
   11.4747  -22.5837   27.4131 O   0  0  0  0  0  0  0  0  0  0  0  0
   11.8412  -21.8543   26.2867 C   0  0  0  0  0  0  0  0  0  0  0  0
   13.0345  -22.1057   25.6460 C   0  0  0  0  0  0  0  0  0  0  0  0
   13.4180  -21.3958   24.5288 C   0  0  0  0  0  0  0  0  0  0  0  0
   12.6095  -20.3856   23.9946 C   0  0  0  0  0  0  0  0  0  0  0  0
   13.0686  -19.6383   22.8054 C   0  0  0  0  0  0  0  0  0  0  0  0
   13.7001  -18.3372   23.2043 C   0  0  2  0  0  0  0  0  0  0  0  0
   14.2419  -17.6350   22.0475 N   0  0  0  0  0  0  0  0  0  0  0  0
   14.7399  -18.4602   24.2247 C   0  0  0  0  0  0  0  0  0  0  0  0
   14.4723  -18.5461   25.5770 O   0  0  0  0  0  0  0  0  0  0  0  0
   11.4198  -20.1472   24.6476 C   0  0  0  0  0  0  0  0  0  0  0  0
   11.0346  -20.8618   25.7716 C   0  0  0  0  0  0  0  0  0  0  0  0
   15.9607  -18.4907   23.8812 O   0  0  0  0  0  0  0  0  0  0  0  0
  2  3  1  0
  2  1  1  6
  4  3  1  0
  5  2  1  0
  6  5  2  0
  8  9  2  0
  8  7  1  0
 10  9  1  0
 11 10  2  0
 13 12  1  1
 12 11  1  0
 13 14  1  0
 14  5  1  0
 15 26  1  0
 15 13  1  0
 16 15  2  0
 17 11  1  0
 17 18  2  0
 18  8  1  0
 20 19  1  0
 21 20  2  0
 22 21  1  0
 23 29  1  0
 23 22  2  0
 24 23  1  0
 25 24  1  6
 25 26  1  0
 27 28  1  0
 27 25  1  0
 29 30  2  0
 30 20  1  0
 31 27  2  0
M  END
$$$$
