CYY.pdb
     RDKit          3D

 31 32  0  0  1  0  0  0  0  0999 V2000
    8.4827  -12.5025   18.2096 N   0  0  0  0  0  0  0  0  0  0  0  0
    8.0652  -13.7503   18.8215 C   0  0  1  0  0  0  0  0  0  0  0  0
    8.4755  -14.8625   17.8855 C   0  0  0  0  0  0  0  0  0  0  0  0
    8.0332  -16.4936   18.5279 S   0  0  0  0  0  0  0  0  0  0  0  0
    8.6471  -13.9197   20.1754 C   0  0  0  0  0  0  0  0  0  0  0  0
    9.8222  -13.5462   20.3641 O   0  0  0  0  0  0  0  0  0  0  0  0
    6.7443  -10.8784   27.2992 O   0  0  0  0  0  0  0  0  0  0  0  0
    6.8910  -11.9292   26.3699 C   0  0  0  0  0  0  0  0  0  0  0  0
    8.0131  -12.7279   26.3796 C   0  0  0  0  0  0  0  0  0  0  0  0
    8.1510  -13.7502   25.4718 C   0  0  0  0  0  0  0  0  0  0  0  0
    7.1774  -14.0376   24.4991 C   0  0  0  0  0  0  0  0  0  0  0  0
    7.3974  -15.1690   23.5632 C   0  0  0  0  0  0  0  0  0  0  0  0
    8.4468  -14.8640   22.5056 C   0  0  2  0  0  0  0  0  0  0  0  0
    7.9121  -14.4837   21.2328 N   0  0  0  0  0  0  0  0  0  0  0  0
    9.4940  -15.8937   22.4457 C   0  0  0  0  0  0  0  0  0  0  0  0
    9.9653  -16.2086   21.3267 O   0  0  0  0  0  0  0  0  0  0  0  0
    6.0740  -13.2257   24.5164 C   0  0  0  0  0  0  0  0  0  0  0  0
    5.9260  -12.1880   25.4318 C   0  0  0  0  0  0  0  0  0  0  0  0
   13.4966  -15.0321   18.0632 O   0  0  0  0  0  0  0  0  0  0  0  0
   13.1837  -15.1563   19.4129 C   0  0  0  0  0  0  0  0  0  0  0  0
   13.6716  -16.2116   20.1519 C   0  0  0  0  0  0  0  0  0  0  0  0
   13.3748  -16.3547   21.4900 C   0  0  0  0  0  0  0  0  0  0  0  0
   12.5624  -15.4315   22.1587 C   0  0  0  0  0  0  0  0  0  0  0  0
   12.2561  -15.6339   23.5900 C   0  0  0  0  0  0  0  0  0  0  0  0
   11.3986  -16.8494   23.7850 C   0  0  2  0  0  0  0  0  0  0  0  0
    9.9875  -16.5381   23.5935 N   0  0  0  0  0  0  0  0  0  0  0  0
   11.5759  -17.5108   25.0768 C   0  0  0  0  0  0  0  0  0  0  0  0
   10.5357  -17.7709   25.9475 O   0  0  0  0  0  0  0  0  0  0  0  0
   12.0828  -14.3825   21.4048 C   0  0  0  0  0  0  0  0  0  0  0  0
   12.3819  -14.2391   20.0586 C   0  0  0  0  0  0  0  0  0  0  0  0
   12.7337  -17.8749   25.4456 O   0  0  0  0  0  0  0  0  0  0  0  0
  2  3  1  0
  2  1  1  6
  4  3  1  0
  5  2  1  0
  6  5  2  0
  8  9  2  0
  8  7  1  0
 10  9  1  0
 11 10  2  0
 13 12  1  1
 12 11  1  0
 13 14  1  0
 14  5  1  0
 15 26  1  0
 15 13  1  0
 16 15  2  0
 17 11  1  0
 17 18  2  0
 18  8  1  0
 20 19  1  0
 21 20  2  0
 22 21  1  0
 23 29  1  0
 23 22  2  0
 24 23  1  0
 25 24  1  1
 25 26  1  0
 27 28  1  0
 27 25  1  0
 29 30  2  0
 30 20  1  0
 31 27  2  0
M  END
$$$$
