WEK.pdb
     RDKit          3D

 33 34  0  0  1  0  0  0  0  0999 V2000
   21.3954  -12.1502  -16.4212 N   0  0  0  0  0  0  0  0  0  0  0  0
   20.8075  -10.9689  -17.0330 C   0  0  1  0  0  0  0  0  0  0  0  0
   19.8415  -11.4052  -18.0519 C   0  0  0  0  0  0  0  0  0  0  0  0
   20.3714  -12.2771  -19.1187 C   0  0  0  0  0  0  0  0  0  0  0  0
   20.8352  -13.5795  -18.8955 C   0  0  0  0  0  0  0  0  0  0  0  0
   21.1990  -14.0807  -20.0758 N   0  0  0  0  0  0  0  0  0  0  0  0
   21.0110  -13.1921  -21.0813 C   0  0  0  0  0  0  0  0  0  0  0  0
   21.2503  -13.2453  -22.4419 C   0  0  0  0  0  0  0  0  0  0  0  0
   20.9629  -12.1404  -23.2013 C   0  0  0  0  0  0  0  0  0  0  0  0
   20.4478  -11.0013  -22.6254 C   0  0  0  0  0  0  0  0  0  0  0  0
   20.2192  -10.9755  -21.2802 C   0  0  0  0  0  0  0  0  0  0  0  0
   20.4872  -12.0579  -20.4545 C   0  0  0  0  0  0  0  0  0  0  0  0
   20.4795   -9.8853  -16.1494 C   0  0  0  0  0  0  0  0  0  0  0  0
   19.7386  -10.0427  -15.1265 O   0  0  0  0  0  0  0  0  0  0  0  0
   20.9248   -8.5289  -16.3150 N   0  0  0  0  0  0  0  0  0  0  0  0
   20.6786   -7.4334  -15.4691 C   0  0  1  0  0  0  0  0  0  0  0  0
   21.7376   -6.4991  -15.0938 C   0  0  0  0  0  0  0  0  0  0  0  0
   21.3765   -5.4082  -14.1242 C   0  0  0  0  0  0  0  0  0  0  0  0
   22.5800   -4.5919  -13.7875 C   0  0  0  0  0  0  0  0  0  0  0  0
   23.1833   -3.9030  -14.6231 O   0  0  0  0  0  0  0  0  0  0  0  0
   19.5167   -6.6513  -16.0392 C   0  0  0  0  0  0  0  0  0  0  0  0
   19.4158   -6.4988  -17.2715 O   0  0  0  0  0  0  0  0  0  0  0  0
   23.1107   -4.5527  -12.4905 O   0  0  0  0  0  0  0  0  0  0  0  0
   18.5276   -6.0801  -15.2193 N   0  0  0  0  0  0  0  0  0  0  0  0
   17.3022   -5.4249  -15.8499 C   0  0  1  0  0  0  0  0  0  0  0  0
   16.2097   -6.3346  -15.4672 C   0  0  0  0  0  0  0  0  0  0  0  0
   14.7948   -6.0869  -15.6475 C   0  0  0  0  0  0  0  0  0  0  0  0
   13.7194   -7.0350  -15.3230 C   0  0  0  0  0  0  0  0  0  0  0  0
   12.3455   -6.5669  -15.7811 C   0  0  0  0  0  0  0  0  0  0  0  0
   11.3739   -7.6464  -15.4724 N   0  0  0  0  0  0  0  0  0  0  0  0
   17.3154   -4.1415  -15.0355 C   0  0  0  0  0  0  0  0  0  0  0  0
   16.7153   -2.9974  -15.4277 O   0  0  0  0  0  0  0  0  0  0  0  0
   17.9326   -4.1747  -13.9208 O   0  0  0  0  0  0  0  0  0  0  0  0
  2  1  1  1
  3  2  1  0
  4  3  1  0
  4  5  2  0
  6  5  1  0
  7  6  1  0
  8  7  2  0
  9  8  1  0
 10  9  2  0
 10 11  1  0
 11 12  2  0
 12  7  1  0
 12  4  1  0
 13 14  2  0
 13  2  1  0
 15 13  1  0
 16 17  1  6
 16 15  1  0
 18 19  1  0
 18 17  1  0
 19 23  1  0
 20 19  2  0
 21 16  1  0
 22 21  2  0
 24 21  1  0
 25 24  1  0
 26 27  1  0
 25 26  1  1
 28 29  1  0
 28 27  1  0
 29 30  1  0
 31 25  1  0
 31 32  1  0
 33 31  2  0
M  END
$$$$
