WEK.pdb
     RDKit          3D

 33 34  0  0  1  0  0  0  0  0999 V2000
   28.7183  -18.9691  -12.8736 N   0  0  0  0  0  0  0  0  0  0  0  0
   28.3417  -20.2876  -13.3583 C   0  0  1  0  0  0  0  0  0  0  0  0
   27.5408  -20.9530  -12.3203 C   0  0  0  0  0  0  0  0  0  0  0  0
   28.0973  -20.9264  -10.9533 C   0  0  0  0  0  0  0  0  0  0  0  0
   27.4723  -20.2878   -9.8749 C   0  0  0  0  0  0  0  0  0  0  0  0
   28.2269  -20.4968   -8.7962 N   0  0  0  0  0  0  0  0  0  0  0  0
   29.3255  -21.2359   -9.0841 C   0  0  0  0  0  0  0  0  0  0  0  0
   30.3857  -21.6844   -8.3185 C   0  0  0  0  0  0  0  0  0  0  0  0
   31.3743  -22.4113   -8.9303 C   0  0  0  0  0  0  0  0  0  0  0  0
   31.3165  -22.6898  -10.2769 C   0  0  0  0  0  0  0  0  0  0  0  0
   30.2582  -22.2368  -11.0098 C   0  0  0  0  0  0  0  0  0  0  0  0
   29.2246  -21.4968  -10.4535 C   0  0  0  0  0  0  0  0  0  0  0  0
   27.9474  -20.3756  -14.7364 C   0  0  0  0  0  0  0  0  0  0  0  0
   27.2996  -19.4474  -15.3187 O   0  0  0  0  0  0  0  0  0  0  0  0
   28.2177  -21.4947  -15.5967 N   0  0  0  0  0  0  0  0  0  0  0  0
   27.8505  -21.6519  -16.9446 C   0  0  1  0  0  0  0  0  0  0  0  0
   28.6505  -22.4501  -17.8708 C   0  0  0  0  0  0  0  0  0  0  0  0
   28.2318  -22.4477  -19.3149 C   0  0  0  0  0  0  0  0  0  0  0  0
   29.2142  -23.2078  -20.1427 C   0  0  0  0  0  0  0  0  0  0  0  0
   29.0872  -23.3647  -21.3658 O   0  0  0  0  0  0  0  0  0  0  0  0
   26.4202  -22.1409  -16.9881 C   0  0  0  0  0  0  0  0  0  0  0  0
   26.0316  -22.9973  -16.1711 O   0  0  0  0  0  0  0  0  0  0  0  0
   30.3553  -23.7995  -19.5830 O   0  0  0  0  0  0  0  0  0  0  0  0
   25.4947  -21.6580  -17.9300 N   0  0  0  0  0  0  0  0  0  0  0  0
   24.0240  -22.0497  -17.8210 C   0  0  1  0  0  0  0  0  0  0  0  0
   23.3924  -20.8185  -17.3181 C   0  0  0  0  0  0  0  0  0  0  0  0
   22.0094  -20.6765  -16.9144 C   0  0  0  0  0  0  0  0  0  0  0  0
   21.3716  -19.4187  -16.4997 C   0  0  0  0  0  0  0  0  0  0  0  0
   19.8874  -19.5675  -16.1970 C   0  0  0  0  0  0  0  0  0  0  0  0
   19.3917  -18.2554  -15.7098 N   0  0  0  0  0  0  0  0  0  0  0  0
   23.7654  -22.2852  -19.3002 C   0  0  0  0  0  0  0  0  0  0  0  0
   23.1471  -23.3814  -19.7890 O   0  0  0  0  0  0  0  0  0  0  0  0
   24.1621  -21.3791  -20.1041 O   0  0  0  0  0  0  0  0  0  0  0  0
  2  1  1  1
  3  2  1  0
  4  3  1  0
  4  5  2  0
  6  5  1  0
  7  6  1  0
  8  7  2  0
  9  8  1  0
 10  9  2  0
 10 11  1  0
 11 12  2  0
 12  7  1  0
 12  4  1  0
 13 14  2  0
 13  2  1  0
 15 13  1  0
 16 17  1  1
 16 15  1  0
 18 19  1  0
 18 17  1  0
 19 23  1  0
 20 19  2  0
 21 16  1  0
 22 21  2  0
 24 21  1  0
 25 24  1  0
 26 27  1  0
 25 26  1  6
 28 29  1  0
 28 27  1  0
 29 30  1  0
 31 25  1  0
 31 32  1  0
 33 31  2  0
M  END
$$$$
