WEK.pdb
     RDKit          3D

 33 34  0  0  1  0  0  0  0  0999 V2000
   23.8661  -20.1537   -9.4896 N   0  0  0  0  0  0  0  0  0  0  0  0
   23.4454  -20.9496   -8.3473 C   0  0  1  0  0  0  0  0  0  0  0  0
   24.1799  -20.4850   -7.1614 C   0  0  0  0  0  0  0  0  0  0  0  0
   25.6381  -20.3223   -7.3227 C   0  0  0  0  0  0  0  0  0  0  0  0
   26.3171  -20.5700   -8.5222 C   0  0  0  0  0  0  0  0  0  0  0  0
   27.6033  -20.2853   -8.3183 N   0  0  0  0  0  0  0  0  0  0  0  0
   27.8322  -19.8633   -7.0512 C   0  0  0  0  0  0  0  0  0  0  0  0
   28.9778  -19.4798   -6.3791 C   0  0  0  0  0  0  0  0  0  0  0  0
   28.8738  -19.1184   -5.0605 C   0  0  0  0  0  0  0  0  0  0  0  0
   27.6576  -19.1362   -4.4165 C   0  0  0  0  0  0  0  0  0  0  0  0
   26.5415  -19.5172   -5.1033 C   0  0  0  0  0  0  0  0  0  0  0  0
   26.5765  -19.8942   -6.4382 C   0  0  0  0  0  0  0  0  0  0  0  0
   22.0431  -21.2453   -8.2535 C   0  0  0  0  0  0  0  0  0  0  0  0
   21.1506  -20.4565   -8.7023 O   0  0  0  0  0  0  0  0  0  0  0  0
   21.4931  -22.4272   -7.6484 N   0  0  0  0  0  0  0  0  0  0  0  0
   20.2255  -22.9947   -7.8660 C   0  0  1  0  0  0  0  0  0  0  0  0
   19.9671  -23.8891   -8.9922 C   0  0  0  0  0  0  0  0  0  0  0  0
   18.5427  -24.3157   -9.2152 C   0  0  0  0  0  0  0  0  0  0  0  0
   18.4321  -25.1282  -10.4625 C   0  0  0  0  0  0  0  0  0  0  0  0
   18.5437  -24.6412  -11.5970 O   0  0  0  0  0  0  0  0  0  0  0  0
   19.7915  -23.6790   -6.5893 C   0  0  0  0  0  0  0  0  0  0  0  0
   20.6364  -24.2457   -5.8703 O   0  0  0  0  0  0  0  0  0  0  0  0
   18.1916  -26.5090  -10.4295 O   0  0  0  0  0  0  0  0  0  0  0  0
   18.4485  -23.7005   -6.1734 N   0  0  0  0  0  0  0  0  0  0  0  0
   18.0698  -24.3797   -4.8605 C   0  0  1  0  0  0  0  0  0  0  0  0
   16.7066  -23.8811   -4.6140 C   0  0  0  0  0  0  0  0  0  0  0  0
   15.9363  -24.0756   -3.4037 C   0  0  0  0  0  0  0  0  0  0  0  0
   14.5541  -23.6210   -3.1956 C   0  0  0  0  0  0  0  0  0  0  0  0
   13.9950  -23.9987   -1.8313 C   0  0  0  0  0  0  0  0  0  0  0  0
   12.6633  -23.3563   -1.6948 N   0  0  0  0  0  0  0  0  0  0  0  0
   18.0929  -25.8153   -5.3594 C   0  0  0  0  0  0  0  0  0  0  0  0
   17.8823  -26.1664   -6.6459 O   0  0  0  0  0  0  0  0  0  0  0  0
   18.3299  -26.7205   -4.4939 O   0  0  0  0  0  0  0  0  0  0  0  0
  2  1  1  6
  3  2  1  0
  4  3  1  0
  4  5  2  0
  6  5  1  0
  7  6  1  0
  8  7  2  0
  9  8  1  0
 10  9  2  0
 10 11  1  0
 11 12  2  0
 12  7  1  0
 12  4  1  0
 13 14  2  0
 13  2  1  0
 15 13  1  0
 16 17  1  6
 16 15  1  0
 18 19  1  0
 18 17  1  0
 19 23  1  0
 20 19  2  0
 21 16  1  0
 22 21  2  0
 24 21  1  0
 25 24  1  0
 26 27  1  0
 25 26  1  6
 28 29  1  0
 28 27  1  0
 29 30  1  0
 31 25  1  0
 31 32  1  0
 33 31  2  0
M  END
$$$$
