WEK.pdb
     RDKit          3D

 33 34  0  0  1  0  0  0  0  0999 V2000
   28.5576  -21.3039  -15.9734 N   0  0  0  0  0  0  0  0  0  0  0  0
   27.5398  -20.9639  -14.9917 C   0  0  1  0  0  0  0  0  0  0  0  0
   28.0600  -19.8866  -14.1370 C   0  0  0  0  0  0  0  0  0  0  0  0
   29.3533  -20.1490  -13.4756 C   0  0  0  0  0  0  0  0  0  0  0  0
   30.5206  -19.4223  -13.7412 C   0  0  0  0  0  0  0  0  0  0  0  0
   31.4769  -19.8990  -12.9444 N   0  0  0  0  0  0  0  0  0  0  0  0
   31.0243  -20.9065  -12.1595 C   0  0  0  0  0  0  0  0  0  0  0  0
   31.6325  -21.7059  -11.2096 C   0  0  0  0  0  0  0  0  0  0  0  0
   30.8842  -22.6752  -10.5927 C   0  0  0  0  0  0  0  0  0  0  0  0
   29.5566  -22.8521  -10.9099 C   0  0  0  0  0  0  0  0  0  0  0  0
   28.9798  -22.0485  -11.8501 C   0  0  0  0  0  0  0  0  0  0  0  0
   29.6792  -21.0490  -12.5114 C   0  0  0  0  0  0  0  0  0  0  0  0
   26.1844  -20.9148  -15.4642 C   0  0  0  0  0  0  0  0  0  0  0  0
   25.8329  -20.1856  -16.4465 O   0  0  0  0  0  0  0  0  0  0  0  0
   25.0903  -21.6521  -14.8943 N   0  0  0  0  0  0  0  0  0  0  0  0
   23.7207  -21.3404  -14.9512 C   0  0  1  0  0  0  0  0  0  0  0  0
   22.8373  -21.9387  -15.9496 C   0  0  0  0  0  0  0  0  0  0  0  0
   22.8049  -23.4401  -16.0235 C   0  0  0  0  0  0  0  0  0  0  0  0
   21.9767  -23.8862  -17.1825 C   0  0  0  0  0  0  0  0  0  0  0  0
   22.4268  -24.5800  -18.1060 O   0  0  0  0  0  0  0  0  0  0  0  0
   23.1297  -21.5668  -13.5778 C   0  0  0  0  0  0  0  0  0  0  0  0
   22.8246  -22.7190  -13.2153 O   0  0  0  0  0  0  0  0  0  0  0  0
   20.6222  -23.5445  -17.3017 O   0  0  0  0  0  0  0  0  0  0  0  0
   22.9079  -20.5100  -12.6773 N   0  0  0  0  0  0  0  0  0  0  0  0
   22.4618  -20.8090  -11.2490 C   0  0  1  0  0  0  0  0  0  0  0  0
   23.5908  -20.3167  -10.4423 C   0  0  0  0  0  0  0  0  0  0  0  0
   23.9060  -20.7178   -9.0875 C   0  0  0  0  0  0  0  0  0  0  0  0
   24.9663  -20.1326   -8.2545 C   0  0  0  0  0  0  0  0  0  0  0  0
   25.1580  -20.8549   -6.9285 C   0  0  0  0  0  0  0  0  0  0  0  0
   26.2613  -20.1785   -6.2006 N   0  0  0  0  0  0  0  0  0  0  0  0
   21.2594  -19.8798  -11.2121 C   0  0  0  0  0  0  0  0  0  0  0  0
   20.2031  -20.0514  -10.3890 O   0  0  0  0  0  0  0  0  0  0  0  0
   21.2754  -18.8876  -12.0120 O   0  0  0  0  0  0  0  0  0  0  0  0
  2  1  1  6
  3  2  1  0
  4  3  1  0
  4  5  2  0
  6  5  1  0
  7  6  1  0
  8  7  2  0
  9  8  1  0
 10  9  2  0
 10 11  1  0
 11 12  2  0
 12  7  1  0
 12  4  1  0
 13 14  2  0
 13  2  1  0
 15 13  1  0
 16 17  1  6
 16 15  1  0
 18 19  1  0
 18 17  1  0
 19 23  1  0
 20 19  2  0
 21 16  1  0
 22 21  2  0
 24 21  1  0
 25 24  1  0
 26 27  1  0
 25 26  1  1
 28 29  1  0
 28 27  1  0
 29 30  1  0
 31 25  1  0
 31 32  1  0
 33 31  2  0
M  END
$$$$
