WEK.pdb
     RDKit          3D

 33 34  0  0  1  0  0  0  0  0999 V2000
   25.7570  -22.1861  -13.2012 N   0  0  0  0  0  0  0  0  0  0  0  0
   25.1742  -21.2462  -12.2567 C   0  0  1  0  0  0  0  0  0  0  0  0
   26.1901  -20.2393  -11.9163 C   0  0  0  0  0  0  0  0  0  0  0  0
   27.3365  -20.7168  -11.1183 C   0  0  0  0  0  0  0  0  0  0  0  0
   28.5409  -21.1583  -11.6800 C   0  0  0  0  0  0  0  0  0  0  0  0
   29.3572  -21.4746  -10.6748 N   0  0  0  0  0  0  0  0  0  0  0  0
   28.7732  -21.2756   -9.4684 C   0  0  0  0  0  0  0  0  0  0  0  0
   29.2045  -21.4719   -8.1697 C   0  0  0  0  0  0  0  0  0  0  0  0
   28.3422  -21.1859   -7.1427 C   0  0  0  0  0  0  0  0  0  0  0  0
   27.0741  -20.7140   -7.3951 C   0  0  0  0  0  0  0  0  0  0  0  0
   26.6736  -20.5274   -8.6863 C   0  0  0  0  0  0  0  0  0  0  0  0
   27.4956  -20.7965   -9.7713 C   0  0  0  0  0  0  0  0  0  0  0  0
   23.8188  -20.8428  -12.5072 C   0  0  0  0  0  0  0  0  0  0  0  0
   23.5057  -19.6370  -12.7683 O   0  0  0  0  0  0  0  0  0  0  0  0
   22.6834  -21.7236  -12.4823 N   0  0  0  0  0  0  0  0  0  0  0  0
   21.3652  -21.4390  -12.8792 C   0  0  1  0  0  0  0  0  0  0  0  0
   21.0671  -20.8275  -14.1724 C   0  0  0  0  0  0  0  0  0  0  0  0
   21.4762  -21.5907  -15.4015 C   0  0  0  0  0  0  0  0  0  0  0  0
   20.5432  -21.2989  -16.5297 C   0  0  0  0  0  0  0  0  0  0  0  0
   20.3443  -20.1542  -16.9617 O   0  0  0  0  0  0  0  0  0  0  0  0
   20.5482  -22.7036  -12.7371 C   0  0  0  0  0  0  0  0  0  0  0  0
   20.9357  -23.7572  -13.2772 O   0  0  0  0  0  0  0  0  0  0  0  0
   19.8244  -22.3124  -17.1789 O   0  0  0  0  0  0  0  0  0  0  0  0
   19.3479  -22.7384  -12.0056 N   0  0  0  0  0  0  0  0  0  0  0  0
   18.6270  -24.0659  -11.7899 C   0  0  1  0  0  0  0  0  0  0  0  0
   17.9999  -23.8885  -10.4697 C   0  0  0  0  0  0  0  0  0  0  0  0
   18.4457  -24.4876   -9.2295 C   0  0  0  0  0  0  0  0  0  0  0  0
   17.7307  -24.4152   -7.9473 C   0  0  0  0  0  0  0  0  0  0  0  0
   18.3943  -25.2236   -6.8414 C   0  0  0  0  0  0  0  0  0  0  0  0
   17.5760  -25.0655   -5.6126 N   0  0  0  0  0  0  0  0  0  0  0  0
   17.6356  -23.9482  -12.9360 C   0  0  0  0  0  0  0  0  0  0  0  0
   17.0853  -25.0089  -13.5645 O   0  0  0  0  0  0  0  0  0  0  0  0
   17.3198  -22.7693  -13.3037 O   0  0  0  0  0  0  0  0  0  0  0  0
  2  1  1  6
  3  2  1  0
  4  3  1  0
  4  5  2  0
  6  5  1  0
  7  6  1  0
  8  7  2  0
  9  8  1  0
 10  9  2  0
 10 11  1  0
 11 12  2  0
 12  7  1  0
 12  4  1  0
 13 14  2  0
 13  2  1  0
 15 13  1  0
 16 17  1  6
 16 15  1  0
 18 19  1  0
 18 17  1  0
 19 23  1  0
 20 19  2  0
 21 16  1  0
 22 21  2  0
 24 21  1  0
 25 24  1  0
 26 27  1  0
 25 26  1  1
 28 29  1  0
 28 27  1  0
 29 30  1  0
 31 25  1  0
 31 32  1  0
 33 31  2  0
M  END
$$$$
