WEK.pdb
     RDKit          3D

 33 34  0  0  1  0  0  0  0  0999 V2000
   14.7407  -16.1610    4.8511 N   0  0  0  0  0  0  0  0  0  0  0  0
   16.0849  -16.6545    5.1054 C   0  0  1  0  0  0  0  0  0  0  0  0
   16.9022  -15.5398    5.6065 C   0  0  0  0  0  0  0  0  0  0  0  0
   16.9310  -14.3263    4.7665 C   0  0  0  0  0  0  0  0  0  0  0  0
   15.9231  -13.9922    3.8535 C   0  0  0  0  0  0  0  0  0  0  0  0
   16.2544  -12.8239    3.3038 N   0  0  0  0  0  0  0  0  0  0  0  0
   17.4279  -12.3520    3.7899 C   0  0  0  0  0  0  0  0  0  0  0  0
   18.1709  -11.2179    3.5197 C   0  0  0  0  0  0  0  0  0  0  0  0
   19.3567  -11.0379    4.1841 C   0  0  0  0  0  0  0  0  0  0  0  0
   19.8014  -11.9640    5.1001 C   0  0  0  0  0  0  0  0  0  0  0  0
   19.0481  -13.0742    5.3498 C   0  0  0  0  0  0  0  0  0  0  0  0
   17.8393  -13.3172    4.7133 C   0  0  0  0  0  0  0  0  0  0  0  0
   16.1872  -17.9509    5.7149 C   0  0  0  0  0  0  0  0  0  0  0  0
   15.1975  -18.7480    5.7874 O   0  0  0  0  0  0  0  0  0  0  0  0
   17.3813  -18.4850    6.3104 N   0  0  0  0  0  0  0  0  0  0  0  0
   17.5170  -19.6740    7.0479 C   0  0  1  0  0  0  0  0  0  0  0  0
   17.1065  -20.9667    6.5040 C   0  0  0  0  0  0  0  0  0  0  0  0
   17.2298  -21.1545    5.0174 C   0  0  0  0  0  0  0  0  0  0  0  0
   17.1169  -22.6005    4.6645 C   0  0  0  0  0  0  0  0  0  0  0  0
   16.9257  -23.4880    5.5086 O   0  0  0  0  0  0  0  0  0  0  0  0
   18.9509  -19.7748    7.5174 C   0  0  0  0  0  0  0  0  0  0  0  0
   19.8796  -19.7456    6.6875 O   0  0  0  0  0  0  0  0  0  0  0  0
   17.2217  -23.0516    3.3412 O   0  0  0  0  0  0  0  0  0  0  0  0
   19.2837  -19.9013    8.8776 N   0  0  0  0  0  0  0  0  0  0  0  0
   20.7409  -19.7931    9.3173 C   0  0  1  0  0  0  0  0  0  0  0  0
   20.7890  -18.4763    9.9742 C   0  0  0  0  0  0  0  0  0  0  0  0
   21.9805  -17.8095   10.4553 C   0  0  0  0  0  0  0  0  0  0  0  0
   22.0080  -16.5042   11.1305 C   0  0  0  0  0  0  0  0  0  0  0  0
   23.4167  -16.0069   11.4224 C   0  0  0  0  0  0  0  0  0  0  0  0
   23.3076  -14.6222   11.9471 N   0  0  0  0  0  0  0  0  0  0  0  0
   20.7418  -20.9474   10.3061 C   0  0  0  0  0  0  0  0  0  0  0  0
   21.8631  -21.4802   10.8370 O   0  0  0  0  0  0  0  0  0  0  0  0
   19.6057  -21.4194   10.6393 O   0  0  0  0  0  0  0  0  0  0  0  0
  2  1  1  1
  3  2  1  0
  4  3  1  0
  4  5  2  0
  6  5  1  0
  7  6  1  0
  8  7  2  0
  9  8  1  0
 10  9  2  0
 10 11  1  0
 11 12  2  0
 12  7  1  0
 12  4  1  0
 13 14  2  0
 13  2  1  0
 15 13  1  0
 16 17  1  6
 16 15  1  0
 18 19  1  0
 18 17  1  0
 19 23  1  0
 20 19  2  0
 21 16  1  0
 22 21  2  0
 24 21  1  0
 25 24  1  0
 26 27  1  0
 25 26  1  1
 28 29  1  0
 28 27  1  0
 29 30  1  0
 31 25  1  0
 31 32  1  0
 33 31  2  0
M  END
$$$$
