WEK.pdb
     RDKit          3D

 33 34  0  0  1  0  0  0  0  0999 V2000
   27.9074  -22.3083   -9.9777 N   0  0  0  0  0  0  0  0  0  0  0  0
   27.0396  -21.1513  -10.1309 C   0  0  1  0  0  0  0  0  0  0  0  0
   27.7221  -19.9800   -9.5617 C   0  0  0  0  0  0  0  0  0  0  0  0
   28.5559  -20.2294   -8.3695 C   0  0  0  0  0  0  0  0  0  0  0  0
   29.8363  -20.7941   -8.4242 C   0  0  0  0  0  0  0  0  0  0  0  0
   30.3069  -20.8363   -7.1778 N   0  0  0  0  0  0  0  0  0  0  0  0
   29.4183  -20.3362   -6.2855 C   0  0  0  0  0  0  0  0  0  0  0  0
   29.4457  -20.1889   -4.9111 C   0  0  0  0  0  0  0  0  0  0  0  0
   28.3485  -19.6525   -4.2878 C   0  0  0  0  0  0  0  0  0  0  0  0
   27.2420  -19.2686   -5.0108 C   0  0  0  0  0  0  0  0  0  0  0  0
   27.2412  -19.4233   -6.3666 C   0  0  0  0  0  0  0  0  0  0  0  0
   28.3176  -19.9584   -7.0596 C   0  0  0  0  0  0  0  0  0  0  0  0
   26.3372  -21.0376  -11.3784 C   0  0  0  0  0  0  0  0  0  0  0  0
   26.9234  -20.7174  -12.4619 O   0  0  0  0  0  0  0  0  0  0  0  0
   24.9263  -21.2531  -11.5475 N   0  0  0  0  0  0  0  0  0  0  0  0
   24.1890  -21.2235  -12.7440 C   0  0  1  0  0  0  0  0  0  0  0  0
   23.8822  -22.4432  -13.4879 C   0  0  0  0  0  0  0  0  0  0  0  0
   24.9737  -23.0110  -14.3522 C   0  0  0  0  0  0  0  0  0  0  0  0
   24.8339  -24.4932  -14.4601 C   0  0  0  0  0  0  0  0  0  0  0  0
   23.8957  -25.1214  -13.9484 O   0  0  0  0  0  0  0  0  0  0  0  0
   22.9021  -20.4731  -12.4845 C   0  0  0  0  0  0  0  0  0  0  0  0
   22.3500  -20.5535  -11.3706 O   0  0  0  0  0  0  0  0  0  0  0  0
   25.7657  -25.2777  -15.1543 O   0  0  0  0  0  0  0  0  0  0  0  0
   22.2935  -19.6729  -13.4676 N   0  0  0  0  0  0  0  0  0  0  0  0
   21.0645  -18.8395  -13.1161 C   0  0  1  0  0  0  0  0  0  0  0  0
   20.9883  -17.8805  -14.2307 C   0  0  0  0  0  0  0  0  0  0  0  0
   20.1028  -16.7379  -14.3097 C   0  0  0  0  0  0  0  0  0  0  0  0
   20.0700  -15.7646  -15.4107 C   0  0  0  0  0  0  0  0  0  0  0  0
   18.9654  -14.7276  -15.2650 C   0  0  0  0  0  0  0  0  0  0  0  0
   19.3218  -13.5648  -16.1168 N   0  0  0  0  0  0  0  0  0  0  0  0
   20.0300  -19.9483  -13.2185 C   0  0  0  0  0  0  0  0  0  0  0  0
   18.8776  -19.9671  -12.5152 O   0  0  0  0  0  0  0  0  0  0  0  0
   20.2878  -20.9020  -14.0239 O   0  0  0  0  0  0  0  0  0  0  0  0
  2  1  1  6
  3  2  1  0
  4  3  1  0
  4  5  2  0
  6  5  1  0
  7  6  1  0
  8  7  2  0
  9  8  1  0
 10  9  2  0
 10 11  1  0
 11 12  2  0
 12  7  1  0
 12  4  1  0
 13 14  2  0
 13  2  1  0
 15 13  1  0
 16 17  1  1
 16 15  1  0
 18 19  1  0
 18 17  1  0
 19 23  1  0
 20 19  2  0
 21 16  1  0
 22 21  2  0
 24 21  1  0
 25 24  1  0
 26 27  1  0
 25 26  1  6
 28 29  1  0
 28 27  1  0
 29 30  1  0
 31 25  1  0
 31 32  1  0
 33 31  2  0
M  END
$$$$
