WEK.pdb
     RDKit          3D

 33 34  0  0  1  0  0  0  0  0999 V2000
   26.6333  -19.2199   -9.9354 N   0  0  0  0  0  0  0  0  0  0  0  0
   26.4860  -20.5281  -10.5536 C   0  0  1  0  0  0  0  0  0  0  0  0
   26.4202  -21.5403   -9.4893 C   0  0  0  0  0  0  0  0  0  0  0  0
   26.5361  -21.0375   -8.1062 C   0  0  0  0  0  0  0  0  0  0  0  0
   25.4375  -20.8315   -7.2624 C   0  0  0  0  0  0  0  0  0  0  0  0
   25.9099  -20.4144   -6.0879 N   0  0  0  0  0  0  0  0  0  0  0  0
   27.2618  -20.3238   -6.0908 C   0  0  0  0  0  0  0  0  0  0  0  0
   28.1811  -19.9305   -5.1361 C   0  0  0  0  0  0  0  0  0  0  0  0
   29.5114  -19.9311   -5.4682 C   0  0  0  0  0  0  0  0  0  0  0  0
   29.9264  -20.3136   -6.7235 C   0  0  0  0  0  0  0  0  0  0  0  0
   28.9987  -20.6991   -7.6471 C   0  0  0  0  0  0  0  0  0  0  0  0
   27.6379  -20.7220   -7.3766 C   0  0  0  0  0  0  0  0  0  0  0  0
   25.5963  -20.6093  -11.6781 C   0  0  0  0  0  0  0  0  0  0  0  0
   24.5331  -19.9137  -11.7553 O   0  0  0  0  0  0  0  0  0  0  0  0
   25.7865  -21.4695  -12.8136 N   0  0  0  0  0  0  0  0  0  0  0  0
   25.2569  -21.3167  -14.1068 C   0  0  1  0  0  0  0  0  0  0  0  0
   25.9969  -21.7363  -15.2948 C   0  0  0  0  0  0  0  0  0  0  0  0
   27.3525  -21.1226  -15.5096 C   0  0  0  0  0  0  0  0  0  0  0  0
   28.3576  -22.1793  -15.8276 C   0  0  0  0  0  0  0  0  0  0  0  0
   28.0593  -23.3746  -15.9652 O   0  0  0  0  0  0  0  0  0  0  0  0
   23.8875  -21.9577  -14.1326 C   0  0  0  0  0  0  0  0  0  0  0  0
   23.6422  -22.9284  -13.3913 O   0  0  0  0  0  0  0  0  0  0  0  0
   29.7182  -21.8836  -15.9922 O   0  0  0  0  0  0  0  0  0  0  0  0
   22.8616  -21.4929  -14.9743 N   0  0  0  0  0  0  0  0  0  0  0  0
   21.4436  -22.0335  -14.8148 C   0  0  1  0  0  0  0  0  0  0  0  0
   20.6194  -20.9812  -15.4322 C   0  0  0  0  0  0  0  0  0  0  0  0
   19.1767  -20.8825  -15.3649 C   0  0  0  0  0  0  0  0  0  0  0  0
   18.3729  -19.7959  -15.9427 C   0  0  0  0  0  0  0  0  0  0  0  0
   16.8884  -19.9118  -15.6272 C   0  0  0  0  0  0  0  0  0  0  0  0
   16.5005  -18.7186  -14.8331 N   0  0  0  0  0  0  0  0  0  0  0  0
   21.5930  -23.2616  -15.6977 C   0  0  0  0  0  0  0  0  0  0  0  0
   20.7860  -24.3416  -15.6243 O   0  0  0  0  0  0  0  0  0  0  0  0
   22.5404  -23.2445  -16.5503 O   0  0  0  0  0  0  0  0  0  0  0  0
  2  1  1  1
  3  2  1  0
  4  3  1  0
  4  5  2  0
  6  5  1  0
  7  6  1  0
  8  7  2  0
  9  8  1  0
 10  9  2  0
 10 11  1  0
 11 12  2  0
 12  7  1  0
 12  4  1  0
 13 14  2  0
 13  2  1  0
 15 13  1  0
 16 17  1  6
 16 15  1  0
 18 19  1  0
 18 17  1  0
 19 23  1  0
 20 19  2  0
 21 16  1  0
 22 21  2  0
 24 21  1  0
 25 24  1  0
 26 27  1  0
 25 26  1  6
 28 29  1  0
 28 27  1  0
 29 30  1  0
 31 25  1  0
 31 32  1  0
 33 31  2  0
M  END
$$$$
