WEK.pdb
     RDKit          3D

 33 34  0  0  1  0  0  0  0  0999 V2000
   20.6331  -19.6299  -17.3963 N   0  0  0  0  0  0  0  0  0  0  0  0
   20.8931  -19.5410  -15.9681 C   0  0  1  0  0  0  0  0  0  0  0  0
   19.6105  -19.3593  -15.2727 C   0  0  0  0  0  0  0  0  0  0  0  0
   18.9980  -18.0204  -15.3783 C   0  0  0  0  0  0  0  0  0  0  0  0
   18.3369  -17.5592  -16.5235 C   0  0  0  0  0  0  0  0  0  0  0  0
   17.8799  -16.3363  -16.2547 N   0  0  0  0  0  0  0  0  0  0  0  0
   18.1965  -15.9442  -14.9969 C   0  0  0  0  0  0  0  0  0  0  0  0
   17.9623  -14.7819  -14.2860 C   0  0  0  0  0  0  0  0  0  0  0  0
   18.4453  -14.6882  -13.0062 C   0  0  0  0  0  0  0  0  0  0  0  0
   19.1489  -15.7259  -12.4384 C   0  0  0  0  0  0  0  0  0  0  0  0
   19.3650  -16.8632  -13.1611 C   0  0  0  0  0  0  0  0  0  0  0  0
   18.9038  -17.0236  -14.4599 C   0  0  0  0  0  0  0  0  0  0  0  0
   21.8759  -20.4442  -15.4380 C   0  0  0  0  0  0  0  0  0  0  0  0
   21.7073  -21.7058  -15.4330 O   0  0  0  0  0  0  0  0  0  0  0  0
   23.1270  -20.0440  -14.8547 N   0  0  0  0  0  0  0  0  0  0  0  0
   24.1398  -20.8718  -14.3397 C   0  0  1  0  0  0  0  0  0  0  0  0
   25.3117  -21.2364  -15.1326 C   0  0  0  0  0  0  0  0  0  0  0  0
   26.0153  -20.1276  -15.8646 C   0  0  0  0  0  0  0  0  0  0  0  0
   27.2124  -20.6558  -16.5830 C   0  0  0  0  0  0  0  0  0  0  0  0
   27.2877  -20.7106  -17.8191 O   0  0  0  0  0  0  0  0  0  0  0  0
   24.6028  -20.2854  -13.0250 C   0  0  0  0  0  0  0  0  0  0  0  0
   24.7922  -19.0582  -12.9248 O   0  0  0  0  0  0  0  0  0  0  0  0
   28.3399  -21.1294  -15.8974 O   0  0  0  0  0  0  0  0  0  0  0  0
   24.8312  -21.0842  -11.8907 N   0  0  0  0  0  0  0  0  0  0  0  0
   25.2808  -20.4381  -10.5835 C   0  0  1  0  0  0  0  0  0  0  0  0
   24.5759  -21.2331   -9.5644 C   0  0  0  0  0  0  0  0  0  0  0  0
   23.2427  -20.9790   -9.0604 C   0  0  0  0  0  0  0  0  0  0  0  0
   22.5403  -21.8028   -8.0662 C   0  0  0  0  0  0  0  0  0  0  0  0
   21.0973  -21.3745   -7.8406 C   0  0  0  0  0  0  0  0  0  0  0  0
   20.5106  -22.2812   -6.8215 N   0  0  0  0  0  0  0  0  0  0  0  0
   26.7581  -20.7816  -10.6836 C   0  0  0  0  0  0  0  0  0  0  0  0
   27.7272  -20.1350  -10.0013 O   0  0  0  0  0  0  0  0  0  0  0  0
   27.0733  -21.7413  -11.4611 O   0  0  0  0  0  0  0  0  0  0  0  0
  2  1  1  6
  3  2  1  0
  4  3  1  0
  4  5  2  0
  6  5  1  0
  7  6  1  0
  8  7  2  0
  9  8  1  0
 10  9  2  0
 10 11  1  0
 11 12  2  0
 12  7  1  0
 12  4  1  0
 13 14  2  0
 13  2  1  0
 15 13  1  0
 16 17  1  6
 16 15  1  0
 18 19  1  0
 18 17  1  0
 19 23  1  0
 20 19  2  0
 21 16  1  0
 22 21  2  0
 24 21  1  0
 25 24  1  0
 26 27  1  0
 25 26  1  1
 28 29  1  0
 28 27  1  0
 29 30  1  0
 31 25  1  0
 31 32  1  0
 33 31  2  0
M  END
$$$$
