WEK.pdb
     RDKit          3D

 33 34  0  0  1  0  0  0  0  0999 V2000
   19.4048   -8.3341  -15.1266 N   0  0  0  0  0  0  0  0  0  0  0  0
   19.5657   -7.3786  -14.0420 C   0  0  1  0  0  0  0  0  0  0  0  0
   21.0007   -7.1091  -13.8691 C   0  0  0  0  0  0  0  0  0  0  0  0
   21.8056   -8.2110  -13.3061 C   0  0  0  0  0  0  0  0  0  0  0  0
   22.6329   -9.0378  -14.0763 C   0  0  0  0  0  0  0  0  0  0  0  0
   23.2321   -9.8890  -13.2437 N   0  0  0  0  0  0  0  0  0  0  0  0
   22.8553   -9.6871  -11.9579 C   0  0  0  0  0  0  0  0  0  0  0  0
   23.1838  -10.3150  -10.7709 C   0  0  0  0  0  0  0  0  0  0  0  0
   22.5983   -9.8734   -9.6123 C   0  0  0  0  0  0  0  0  0  0  0  0
   21.7022   -8.8288   -9.6267 C   0  0  0  0  0  0  0  0  0  0  0  0
   21.3963   -8.2251  -10.8117 C   0  0  0  0  0  0  0  0  0  0  0  0
   21.9526   -8.6217  -12.0194 C   0  0  0  0  0  0  0  0  0  0  0  0
   18.6211   -6.2979  -13.9943 C   0  0  0  0  0  0  0  0  0  0  0  0
   18.2233   -5.6959  -15.0429 O   0  0  0  0  0  0  0  0  0  0  0  0
   18.0367   -5.7723  -12.7910 N   0  0  0  0  0  0  0  0  0  0  0  0
   16.9468   -4.8917  -12.6776 C   0  0  1  0  0  0  0  0  0  0  0  0
   15.6278   -5.2291  -13.2080 C   0  0  0  0  0  0  0  0  0  0  0  0
   15.0148   -6.5225  -12.7476 C   0  0  0  0  0  0  0  0  0  0  0  0
   13.6741   -6.7152  -13.3749 C   0  0  0  0  0  0  0  0  0  0  0  0
   12.6871   -7.1230  -12.7453 O   0  0  0  0  0  0  0  0  0  0  0  0
   16.8040   -4.5058  -11.2225 C   0  0  0  0  0  0  0  0  0  0  0  0
   16.9056   -5.3756  -10.3364 O   0  0  0  0  0  0  0  0  0  0  0  0
   13.4437   -6.4448  -14.7311 O   0  0  0  0  0  0  0  0  0  0  0  0
   16.5577   -3.1805  -10.8225 N   0  0  0  0  0  0  0  0  0  0  0  0
   16.4433   -2.8426   -9.3389 C   0  0  1  0  0  0  0  0  0  0  0  0
   17.0947   -1.5252   -9.2508 C   0  0  0  0  0  0  0  0  0  0  0  0
   17.3200   -0.7679   -8.0377 C   0  0  0  0  0  0  0  0  0  0  0  0
   17.9136    0.5753   -7.9741 C   0  0  0  0  0  0  0  0  0  0  0  0
   18.0934    1.0874   -6.5521 C   0  0  0  0  0  0  0  0  0  0  0  0
   18.7033    2.4388   -6.6321 N   0  0  0  0  0  0  0  0  0  0  0  0
   14.9274   -2.7586   -9.2651 C   0  0  0  0  0  0  0  0  0  0  0  0
   14.2318   -2.7435   -8.1080 O   0  0  0  0  0  0  0  0  0  0  0  0
   14.3008   -2.6970  -10.3733 O   0  0  0  0  0  0  0  0  0  0  0  0
  2  1  1  6
  3  2  1  0
  4  3  1  0
  4  5  2  0
  6  5  1  0
  7  6  1  0
  8  7  2  0
  9  8  1  0
 10  9  2  0
 10 11  1  0
 11 12  2  0
 12  7  1  0
 12  4  1  0
 13 14  2  0
 13  2  1  0
 15 13  1  0
 16 17  1  1
 16 15  1  0
 18 19  1  0
 18 17  1  0
 19 23  1  0
 20 19  2  0
 21 16  1  0
 22 21  2  0
 24 21  1  0
 25 24  1  0
 26 27  1  0
 25 26  1  6
 28 29  1  0
 28 27  1  0
 29 30  1  0
 31 25  1  0
 31 32  1  0
 33 31  2  0
M  END
$$$$
