ESI.pdb
     RDKit          3D

 24 23  0  0  1  0  0  0  0  0999 V2000
   18.1006  -12.4066  -16.8866 N   0  0  0  0  0  0  0  0  0  0  0  0
   18.3791  -11.0154  -17.3450 C   0  0  1  0  0  0  0  0  0  0  0  0
   17.0280  -10.4133  -17.5326 C   0  0  0  0  0  0  0  0  0  0  0  0
   16.2751  -10.7757  -18.7572 C   0  0  0  0  0  0  0  0  0  0  0  0
   15.4993   -9.6285  -19.2910 C   0  0  0  0  0  0  0  0  0  0  0  0
   15.5285   -8.4767  -18.7858 O   0  0  0  0  0  0  0  0  0  0  0  0
   19.1882  -10.4198  -16.2712 C   0  0  0  0  0  0  0  0  0  0  0  0
   19.1213  -10.9330  -15.1031 O   0  0  0  0  0  0  0  0  0  0  0  0
   14.6805   -9.8379  -20.4343 O   0  0  0  0  0  0  0  0  0  0  0  0
   22.6699   -9.1388  -13.8894 O   0  0  0  0  0  0  0  0  0  0  0  0
   21.9383   -9.7308  -14.9209 C   0  0  0  0  0  0  0  0  0  0  0  0
   20.8041   -8.8018  -15.2412 C   0  0  2  0  0  0  0  0  0  0  0  0
   20.0630   -9.3060  -16.4010 N   0  0  0  0  0  0  0  0  0  0  0  0
   21.2903   -7.4365  -15.5478 C   0  0  0  0  0  0  0  0  0  0  0  0
   21.9209   -7.2166  -16.6006 O   0  0  0  0  0  0  0  0  0  0  0  0
   18.4540   -3.5154  -16.6777 C   0  0  0  0  0  0  0  0  0  0  0  0
   19.6312   -4.4230  -16.3923 C   0  0  0  0  0  0  0  0  0  0  0  0
   20.3440   -4.0512  -15.1311 C   0  0  2  0  0  0  0  0  0  0  0  0
   20.8659   -2.6404  -15.1429 C   0  0  0  0  0  0  0  0  0  0  0  0
   21.5208   -4.9932  -14.9293 C   0  0  2  0  0  0  0  0  0  0  0  0
   21.0609   -6.3404  -14.6687 N   0  0  0  0  0  0  0  0  0  0  0  0
   22.3964   -4.5263  -13.8234 C   0  0  0  0  0  0  0  0  0  0  0  0
   23.1783   -3.5371  -13.9383 O   0  0  0  0  0  0  0  0  0  0  0  0
   22.3979   -5.1624  -12.5909 O   0  0  0  0  0  0  0  0  0  0  0  0
  2  1  1  1
  3  2  1  0
  4  3  1  0
  5  4  1  0
  6  5  2  0
  7  2  1  0
  8  7  2  0
  9  5  1  0
 10 11  1  0
 12 11  1  6
 12 14  1  0
 12 13  1  0
 13  7  1  0
 14 21  1  0
 15 14  2  0
 17 16  1  0
 18 20  1  0
 18 17  1  0
 18 19  1  6
 20 22  1  0
 20 21  1  1
 22 23  2  0
 22 24  1  0
M  END
$$$$
