ESI.pdb
     RDKit          3D

 24 23  0  0  1  0  0  0  0  0999 V2000
   16.4256  -12.7369  -15.4159 N   0  0  0  0  0  0  0  0  0  0  0  0
   16.1199  -11.3250  -15.7848 C   0  0  1  0  0  0  0  0  0  0  0  0
   15.0873  -10.9024  -14.7958 C   0  0  0  0  0  0  0  0  0  0  0  0
   13.6760  -11.2585  -15.0770 C   0  0  0  0  0  0  0  0  0  0  0  0
   13.1792  -10.6171  -16.3197 C   0  0  0  0  0  0  0  0  0  0  0  0
   13.8690   -9.8290  -17.0167 O   0  0  0  0  0  0  0  0  0  0  0  0
   17.4082  -10.6226  -15.6864 C   0  0  0  0  0  0  0  0  0  0  0  0
   18.1435  -10.8409  -14.6648 O   0  0  0  0  0  0  0  0  0  0  0  0
   11.8554  -10.9077  -16.7495 O   0  0  0  0  0  0  0  0  0  0  0  0
   18.8709   -7.6152  -18.1785 O   0  0  0  0  0  0  0  0  0  0  0  0
   19.7785   -8.5865  -17.7512 C   0  0  0  0  0  0  0  0  0  0  0  0
   19.2662   -9.1186  -16.4448 C   0  0  2  0  0  0  0  0  0  0  0  0
   17.9365   -9.7049  -16.6358 N   0  0  0  0  0  0  0  0  0  0  0  0
   19.1697   -8.0499  -15.4235 C   0  0  0  0  0  0  0  0  0  0  0  0
   18.0847   -7.4693  -15.2234 O   0  0  0  0  0  0  0  0  0  0  0  0
   19.5485   -5.8984  -10.5363 C   0  0  0  0  0  0  0  0  0  0  0  0
   20.8089   -5.8997  -11.3745 C   0  0  0  0  0  0  0  0  0  0  0  0
   20.8464   -7.0375  -12.3444 C   0  0  2  0  0  0  0  0  0  0  0  0
   22.2385   -7.5452  -12.6040 C   0  0  0  0  0  0  0  0  0  0  0  0
   20.2505   -6.5824  -13.6676 C   0  0  2  0  0  0  0  0  0  0  0  0
   20.2914   -7.6505  -14.6432 N   0  0  0  0  0  0  0  0  0  0  0  0
   20.9571   -5.3835  -14.1884 C   0  0  0  0  0  0  0  0  0  0  0  0
   21.9149   -5.4560  -15.0131 O   0  0  0  0  0  0  0  0  0  0  0  0
   20.5937   -4.1058  -13.7895 O   0  0  0  0  0  0  0  0  0  0  0  0
  2  1  1  1
  3  2  1  0
  4  3  1  0
  5  4  1  0
  6  5  2  0
  7  2  1  0
  8  7  2  0
  9  5  1  0
 10 11  1  0
 12 11  1  6
 12 14  1  0
 12 13  1  0
 13  7  1  0
 14 21  1  0
 15 14  2  0
 17 16  1  0
 18 20  1  0
 18 17  1  0
 18 19  1  6
 20 22  1  0
 20 21  1  6
 22 23  2  0
 22 24  1  0
M  END
$$$$
