ESI.pdb
     RDKit          3D

 24 23  0  0  1  0  0  0  0  0999 V2000
   22.0055  -21.5523  -13.1905 N   0  0  0  0  0  0  0  0  0  0  0  0
   22.7747  -20.3527  -12.7519 C   0  0  1  0  0  0  0  0  0  0  0  0
   21.7298  -19.3961  -12.2873 C   0  0  0  0  0  0  0  0  0  0  0  0
   20.9005  -18.7262  -13.3176 C   0  0  0  0  0  0  0  0  0  0  0  0
   21.7285  -18.1398  -14.4008 C   0  0  0  0  0  0  0  0  0  0  0  0
   22.6281  -17.2836  -14.1996 O   0  0  0  0  0  0  0  0  0  0  0  0
   23.6817  -20.8485  -11.7058 C   0  0  0  0  0  0  0  0  0  0  0  0
   23.1975  -21.5822  -10.7787 O   0  0  0  0  0  0  0  0  0  0  0  0
   21.4975  -18.5673  -15.7370 O   0  0  0  0  0  0  0  0  0  0  0  0
   26.8573  -22.3789  -12.3923 O   0  0  0  0  0  0  0  0  0  0  0  0
   27.1825  -21.7271  -11.2010 C   0  0  0  0  0  0  0  0  0  0  0  0
   25.8932  -21.2551  -10.5952 C   0  0  2  0  0  0  0  0  0  0  0  0
   25.0780  -20.5933  -11.6179 N   0  0  0  0  0  0  0  0  0  0  0  0
   26.1310  -20.2995   -9.4884 C   0  0  0  0  0  0  0  0  0  0  0  0
   25.7562  -19.1148   -9.5909 O   0  0  0  0  0  0  0  0  0  0  0  0
   26.8741  -19.9577   -4.0301 C   0  0  0  0  0  0  0  0  0  0  0  0
   26.8133  -19.7431   -5.5272 C   0  0  0  0  0  0  0  0  0  0  0  0
   28.0292  -20.2621   -6.2266 C   0  0  2  0  0  0  0  0  0  0  0  0
   29.3057  -19.6404   -5.7294 C   0  0  0  0  0  0  0  0  0  0  0  0
   27.9070  -19.9745   -7.7150 C   0  0  2  0  0  0  0  0  0  0  0  0
   26.7846  -20.6885   -8.2851 N   0  0  0  0  0  0  0  0  0  0  0  0
   29.1590  -20.3282   -8.4328 C   0  0  0  0  0  0  0  0  0  0  0  0
   29.4208  -21.5061   -8.8159 O   0  0  0  0  0  0  0  0  0  0  0  0
   30.1164  -19.3676   -8.7231 O   0  0  0  0  0  0  0  0  0  0  0  0
  2  1  1  1
  3  2  1  0
  4  3  1  0
  5  4  1  0
  6  5  2  0
  7  2  1  0
  8  7  2  0
  9  5  1  0
 10 11  1  0
 12 11  1  6
 12 14  1  0
 12 13  1  0
 13  7  1  0
 14 21  1  0
 15 14  2  0
 17 16  1  0
 18 20  1  0
 18 17  1  0
 18 19  1  1
 20 22  1  0
 20 21  1  6
 22 23  2  0
 22 24  1  0
M  END
$$$$
