ESI.pdb
     RDKit          3D

 24 23  0  0  1  0  0  0  0  0999 V2000
   17.7354  -12.5540  -17.2654 N   0  0  0  0  0  0  0  0  0  0  0  0
   16.9347  -11.5889  -16.4589 C   0  0  1  0  0  0  0  0  0  0  0  0
   16.8726  -12.2060  -15.1031 C   0  0  0  0  0  0  0  0  0  0  0  0
   15.9253  -13.3279  -14.8983 C   0  0  0  0  0  0  0  0  0  0  0  0
   14.5597  -12.8479  -14.5707 C   0  0  0  0  0  0  0  0  0  0  0  0
   13.5129  -13.4783  -14.8698 O   0  0  0  0  0  0  0  0  0  0  0  0
   17.6785  -10.3228  -16.5390 C   0  0  0  0  0  0  0  0  0  0  0  0
   18.9503  -10.3706  -16.6505 O   0  0  0  0  0  0  0  0  0  0  0  0
   14.4233  -11.6122  -13.8808 O   0  0  0  0  0  0  0  0  0  0  0  0
   16.0392   -6.6063  -16.2779 O   0  0  0  0  0  0  0  0  0  0  0  0
   17.0678   -6.6972  -17.2178 C   0  0  0  0  0  0  0  0  0  0  0  0
   17.9425   -7.8424  -16.7990 C   0  0  2  0  0  0  0  0  0  0  0  0
   17.1155   -9.0172  -16.5084 N   0  0  0  0  0  0  0  0  0  0  0  0
   18.7320   -7.5092  -15.5906 C   0  0  0  0  0  0  0  0  0  0  0  0
   18.2364   -7.6583  -14.4564 O   0  0  0  0  0  0  0  0  0  0  0  0
   23.2831   -9.5784  -14.6188 C   0  0  0  0  0  0  0  0  0  0  0  0
   21.9843   -8.8018  -14.6507 C   0  0  0  0  0  0  0  0  0  0  0  0
   22.1997   -7.3267  -14.5294 C   0  0  2  0  0  0  0  0  0  0  0  0
   22.9381   -6.9399  -13.2772 C   0  0  0  0  0  0  0  0  0  0  0  0
   20.8498   -6.6263  -14.5226 C   0  0  2  0  0  0  0  0  0  0  0  0
   20.0644   -7.0146  -15.6744 N   0  0  0  0  0  0  0  0  0  0  0  0
   21.0133   -5.1499  -14.4862 C   0  0  0  0  0  0  0  0  0  0  0  0
   21.4293   -4.5307  -13.4633 O   0  0  0  0  0  0  0  0  0  0  0  0
   20.7136   -4.3666  -15.5909 O   0  0  0  0  0  0  0  0  0  0  0  0
  2  1  1  6
  3  2  1  0
  4  3  1  0
  5  4  1  0
  6  5  2  0
  7  2  1  0
  8  7  2  0
  9  5  1  0
 10 11  1  0
 12 11  1  1
 12 14  1  0
 12 13  1  0
 13  7  1  0
 14 21  1  0
 15 14  2  0
 17 16  1  0
 18 20  1  0
 18 17  1  0
 18 19  1  1
 20 22  1  0
 20 21  1  6
 22 23  2  0
 22 24  1  0
M  END
$$$$
