ESI.pdb
     RDKit          3D

 24 23  0  0  1  0  0  0  0  0999 V2000
   17.3089  -12.1619  -16.7925 N   0  0  0  0  0  0  0  0  0  0  0  0
   18.7326  -11.7256  -16.8673 C   0  0  1  0  0  0  0  0  0  0  0  0
   19.2231  -12.2921  -18.1563 C   0  0  0  0  0  0  0  0  0  0  0  0
   19.4458  -13.7561  -18.2263 C   0  0  0  0  0  0  0  0  0  0  0  0
   20.0120  -14.1690  -19.5346 C   0  0  0  0  0  0  0  0  0  0  0  0
   20.2999  -13.3582  -20.4524 O   0  0  0  0  0  0  0  0  0  0  0  0
   18.6804  -10.2572  -16.8063 C   0  0  0  0  0  0  0  0  0  0  0  0
   17.7796   -9.6521  -17.4806 O   0  0  0  0  0  0  0  0  0  0  0  0
   20.2448  -15.5524  -19.7657 O   0  0  0  0  0  0  0  0  0  0  0  0
   17.9325   -8.1657  -14.2070 O   0  0  0  0  0  0  0  0  0  0  0  0
   17.9925   -7.6403  -15.4993 C   0  0  0  0  0  0  0  0  0  0  0  0
   19.3538   -7.9659  -16.0406 C   0  0  2  0  0  0  0  0  0  0  0  0
   19.5476   -9.4188  -16.0529 N   0  0  0  0  0  0  0  0  0  0  0  0
   20.4250   -7.3527  -15.2214 C   0  0  0  0  0  0  0  0  0  0  0  0
   20.7694   -7.8776  -14.1443 O   0  0  0  0  0  0  0  0  0  0  0  0
   24.7646   -5.8658  -17.7394 C   0  0  0  0  0  0  0  0  0  0  0  0
   23.6740   -6.2483  -16.7620 C   0  0  0  0  0  0  0  0  0  0  0  0
   23.2850   -5.1127  -15.8699 C   0  0  2  0  0  0  0  0  0  0  0  0
   24.4362   -4.5744  -15.0649 C   0  0  0  0  0  0  0  0  0  0  0  0
   22.2083   -5.5850  -14.9052 C   0  0  2  0  0  0  0  0  0  0  0  0
   21.0923   -6.1614  -15.6241 N   0  0  0  0  0  0  0  0  0  0  0  0
   21.7413   -4.4723  -14.0382 C   0  0  0  0  0  0  0  0  0  0  0  0
   20.8402   -3.6572  -14.3939 O   0  0  0  0  0  0  0  0  0  0  0  0
   22.2790   -4.2712  -12.7756 O   0  0  0  0  0  0  0  0  0  0  0  0
  2  1  1  6
  3  2  1  0
  4  3  1  0
  5  4  1  0
  6  5  2  0
  7  2  1  0
  8  7  2  0
  9  5  1  0
 10 11  1  0
 12 11  1  1
 12 14  1  0
 12 13  1  0
 13  7  1  0
 14 21  1  0
 15 14  2  0
 17 16  1  0
 18 20  1  0
 18 17  1  0
 18 19  1  1
 20 22  1  0
 20 21  1  6
 22 23  2  0
 22 24  1  0
M  END
$$$$
