ESI.pdb
     RDKit          3D

 24 23  0  0  1  0  0  0  0  0999 V2000
   13.0719  -11.2604  -11.6196 N   0  0  0  0  0  0  0  0  0  0  0  0
   14.4971  -11.1981  -11.1861 C   0  0  1  0  0  0  0  0  0  0  0  0
   15.2131  -12.0820  -12.1500 C   0  0  0  0  0  0  0  0  0  0  0  0
   15.0288  -13.5464  -12.0113 C   0  0  0  0  0  0  0  0  0  0  0  0
   15.8929  -14.3055  -12.9493 C   0  0  0  0  0  0  0  0  0  0  0  0
   15.5262  -14.6559  -14.1006 O   0  0  0  0  0  0  0  0  0  0  0  0
   14.8512   -9.7726  -11.2592 C   0  0  0  0  0  0  0  0  0  0  0  0
   14.4751   -9.1041  -12.2810 O   0  0  0  0  0  0  0  0  0  0  0  0
   17.2055  -14.6549  -12.5291 O   0  0  0  0  0  0  0  0  0  0  0  0
   15.7110   -7.6955   -8.1157 O   0  0  0  0  0  0  0  0  0  0  0  0
   15.3586   -6.8838   -9.1958 C   0  0  0  0  0  0  0  0  0  0  0  0
   15.7962   -7.5986  -10.4407 C   0  0  2  0  0  0  0  0  0  0  0  0
   15.5840   -9.0405  -10.2848 N   0  0  0  0  0  0  0  0  0  0  0  0
   17.2297   -7.3598  -10.7285 C   0  0  0  0  0  0  0  0  0  0  0  0
   18.1076   -7.8458   -9.9888 O   0  0  0  0  0  0  0  0  0  0  0  0
   21.9600   -7.6491  -12.8120 C   0  0  0  0  0  0  0  0  0  0  0  0
   20.9793   -6.7656  -13.5529 C   0  0  0  0  0  0  0  0  0  0  0  0
   19.5571   -7.1326  -13.2711 C   0  0  2  0  0  0  0  0  0  0  0  0
   18.6510   -6.9323  -14.4551 C   0  0  0  0  0  0  0  0  0  0  0  0
   19.0407   -6.2761  -12.1253 C   0  0  2  0  0  0  0  0  0  0  0  0
   17.6545   -6.5804  -11.8415 N   0  0  0  0  0  0  0  0  0  0  0  0
   19.1980   -4.8294  -12.4256 C   0  0  0  0  0  0  0  0  0  0  0  0
   20.3187   -4.2412  -12.3990 O   0  0  0  0  0  0  0  0  0  0  0  0
   18.1055   -4.0414  -12.7561 O   0  0  0  0  0  0  0  0  0  0  0  0
  2  1  1  6
  3  2  1  0
  4  3  1  0
  5  4  1  0
  6  5  2  0
  7  2  1  0
  8  7  2  0
  9  5  1  0
 10 11  1  0
 12 11  1  1
 12 14  1  0
 12 13  1  0
 13  7  1  0
 14 21  1  0
 15 14  2  0
 17 16  1  0
 18 20  1  0
 18 17  1  0
 18 19  1  6
 20 22  1  0
 20 21  1  6
 22 23  2  0
 22 24  1  0
M  END
$$$$
