ESI.pdb
     RDKit          3D

 24 23  0  0  1  0  0  0  0  0999 V2000
   19.6386  -13.8013  -16.1634 N   0  0  0  0  0  0  0  0  0  0  0  0
   19.0075  -12.7079  -16.9565 C   0  0  1  0  0  0  0  0  0  0  0  0
   17.5544  -13.0420  -16.9510 C   0  0  0  0  0  0  0  0  0  0  0  0
   17.0973  -14.1476  -17.8266 C   0  0  0  0  0  0  0  0  0  0  0  0
   17.0394  -15.4414  -17.1016 C   0  0  0  0  0  0  0  0  0  0  0  0
   16.5565  -15.5681  -15.9469 O   0  0  0  0  0  0  0  0  0  0  0  0
   19.3700  -11.4712  -16.2483 C   0  0  0  0  0  0  0  0  0  0  0  0
   19.0646  -11.3663  -15.0122 O   0  0  0  0  0  0  0  0  0  0  0  0
   17.5538  -16.6011  -17.7435 O   0  0  0  0  0  0  0  0  0  0  0  0
   22.0850   -8.1563  -14.7722 O   0  0  0  0  0  0  0  0  0  0  0  0
   21.8516   -9.2040  -15.6652 C   0  0  0  0  0  0  0  0  0  0  0  0
   20.3838   -9.1934  -15.9774 C   0  0  2  0  0  0  0  0  0  0  0  0
   20.0456  -10.3523  -16.8088 N   0  0  0  0  0  0  0  0  0  0  0  0
   19.9913   -7.9616  -16.7009 C   0  0  0  0  0  0  0  0  0  0  0  0
   20.2961   -7.8146  -17.9008 O   0  0  0  0  0  0  0  0  0  0  0  0
   16.5517   -4.4055  -18.7173 C   0  0  0  0  0  0  0  0  0  0  0  0
   17.0737   -4.1492  -17.3198 C   0  0  0  0  0  0  0  0  0  0  0  0
   17.4101   -5.4145  -16.5968 C   0  0  2  0  0  0  0  0  0  0  0  0
   17.0613   -5.3681  -15.1342 C   0  0  0  0  0  0  0  0  0  0  0  0
   18.9028   -5.6769  -16.7228 C   0  0  2  0  0  0  0  0  0  0  0  0
   19.2632   -6.9155  -16.0667 N   0  0  0  0  0  0  0  0  0  0  0  0
   19.6933   -4.5502  -16.1631 C   0  0  0  0  0  0  0  0  0  0  0  0
   20.1422   -4.5485  -14.9793 O   0  0  0  0  0  0  0  0  0  0  0  0
   19.9829   -3.4278  -16.9247 O   0  0  0  0  0  0  0  0  0  0  0  0
  2  1  1  1
  3  2  1  0
  4  3  1  0
  5  4  1  0
  6  5  2  0
  7  2  1  0
  8  7  2  0
  9  5  1  0
 10 11  1  0
 12 11  1  6
 12 14  1  0
 12 13  1  0
 13  7  1  0
 14 21  1  0
 15 14  2  0
 17 16  1  0
 18 20  1  0
 18 17  1  0
 18 19  1  1
 20 22  1  0
 20 21  1  1
 22 23  2  0
 22 24  1  0
M  END
$$$$
