ESI.pdb
     RDKit          3D

 24 23  0  0  1  0  0  0  0  0999 V2000
   20.2638  -11.8658  -18.6254 N   0  0  0  0  0  0  0  0  0  0  0  0
   19.4705  -10.6058  -18.5484 C   0  0  1  0  0  0  0  0  0  0  0  0
   18.3707  -10.9221  -17.5927 C   0  0  0  0  0  0  0  0  0  0  0  0
   17.1579  -11.5836  -18.1307 C   0  0  0  0  0  0  0  0  0  0  0  0
   16.4087  -10.6989  -19.0575 C   0  0  0  0  0  0  0  0  0  0  0  0
   16.5201  -10.7530  -20.3095 O   0  0  0  0  0  0  0  0  0  0  0  0
   20.4262   -9.5862  -18.0905 C   0  0  0  0  0  0  0  0  0  0  0  0
   21.2242   -9.8845  -17.1384 O   0  0  0  0  0  0  0  0  0  0  0  0
   15.5157   -9.7403  -18.5053 O   0  0  0  0  0  0  0  0  0  0  0  0
   22.7299   -5.3711  -18.4415 O   0  0  0  0  0  0  0  0  0  0  0  0
   21.7012   -6.1572  -18.9644 C   0  0  0  0  0  0  0  0  0  0  0  0
   21.5638   -7.3513  -18.0657 C   0  0  2  0  0  0  0  0  0  0  0  0
   20.5612   -8.2702  -18.6125 N   0  0  0  0  0  0  0  0  0  0  0  0
   21.1492   -6.9576  -16.6991 C   0  0  0  0  0  0  0  0  0  0  0  0
   19.9450   -6.7651  -16.4396 O   0  0  0  0  0  0  0  0  0  0  0  0
   22.6338   -9.6980  -12.7234 C   0  0  0  0  0  0  0  0  0  0  0  0
   22.0974   -8.6914  -13.7185 C   0  0  0  0  0  0  0  0  0  0  0  0
   22.2913   -7.2805  -13.2618 C   0  0  2  0  0  0  0  0  0  0  0  0
   21.6048   -6.9838  -11.9566 C   0  0  0  0  0  0  0  0  0  0  0  0
   21.7374   -6.3360  -14.3173 C   0  0  2  0  0  0  0  0  0  0  0  0
   22.0919   -6.7869  -15.6461 N   0  0  0  0  0  0  0  0  0  0  0  0
   22.2208   -4.9479  -14.0998 C   0  0  0  0  0  0  0  0  0  0  0  0
   23.3449   -4.5399  -14.5155 O   0  0  0  0  0  0  0  0  0  0  0  0
   21.4494   -4.0169  -13.4202 O   0  0  0  0  0  0  0  0  0  0  0  0
  2  1  1  1
  3  2  1  0
  4  3  1  0
  5  4  1  0
  6  5  2  0
  7  2  1  0
  8  7  2  0
  9  5  1  0
 10 11  1  0
 12 11  1  6
 12 14  1  0
 12 13  1  0
 13  7  1  0
 14 21  1  0
 15 14  2  0
 17 16  1  0
 18 20  1  0
 18 17  1  0
 18 19  1  1
 20 22  1  0
 20 21  1  6
 22 23  2  0
 22 24  1  0
M  END
$$$$
