ESI.pdb
     RDKit          3D

 24 23  0  0  1  0  0  0  0  0999 V2000
   20.5685  -14.0172  -19.2515 N   0  0  0  0  0  0  0  0  0  0  0  0
   21.7284  -13.1087  -19.4798 C   0  0  1  0  0  0  0  0  0  0  0  0
   21.3419  -12.3144  -20.6809 C   0  0  0  0  0  0  0  0  0  0  0  0
   21.1695  -13.0404  -21.9620 C   0  0  0  0  0  0  0  0  0  0  0  0
   20.8017  -12.1266  -23.0721 C   0  0  0  0  0  0  0  0  0  0  0  0
   20.6683  -10.8835  -22.9315 O   0  0  0  0  0  0  0  0  0  0  0  0
   21.8556  -12.3396  -18.2328 C   0  0  0  0  0  0  0  0  0  0  0  0
   20.8010  -12.1108  -17.5490 O   0  0  0  0  0  0  0  0  0  0  0  0
   20.5904  -12.6810  -24.3642 O   0  0  0  0  0  0  0  0  0  0  0  0
   24.7535  -12.3407  -15.3557 O   0  0  0  0  0  0  0  0  0  0  0  0
   24.4574  -11.0698  -15.8524 C   0  0  0  0  0  0  0  0  0  0  0  0
   23.0602  -11.1280  -16.3969 C   0  0  2  0  0  0  0  0  0  0  0  0
   23.0614  -11.8135  -17.6925 N   0  0  0  0  0  0  0  0  0  0  0  0
   22.4917   -9.7722  -16.5797 C   0  0  0  0  0  0  0  0  0  0  0  0
   22.7402   -9.1218  -17.6139 O   0  0  0  0  0  0  0  0  0  0  0  0
   18.7956   -6.3215  -17.7163 C   0  0  0  0  0  0  0  0  0  0  0  0
   18.9483   -6.6637  -16.2498 C   0  0  0  0  0  0  0  0  0  0  0  0
   19.5431   -8.0199  -16.0406 C   0  0  2  0  0  0  0  0  0  0  0  0
   18.9219   -8.7651  -14.8908 C   0  0  0  0  0  0  0  0  0  0  0  0
   21.0315   -7.8726  -15.7647 C   0  0  2  0  0  0  0  0  0  0  0  0
   21.6535   -9.1688  -15.5998 N   0  0  0  0  0  0  0  0  0  0  0  0
   21.2723   -7.0306  -14.5644 C   0  0  0  0  0  0  0  0  0  0  0  0
   21.1450   -5.7710  -14.5731 O   0  0  0  0  0  0  0  0  0  0  0  0
   21.6537   -7.5947  -13.3560 O   0  0  0  0  0  0  0  0  0  0  0  0
  2  1  1  1
  3  2  1  0
  4  3  1  0
  5  4  1  0
  6  5  2  0
  7  2  1  0
  8  7  2  0
  9  5  1  0
 10 11  1  0
 12 11  1  6
 12 14  1  0
 12 13  1  0
 13  7  1  0
 14 21  1  0
 15 14  2  0
 17 16  1  0
 18 20  1  0
 18 17  1  0
 18 19  1  1
 20 22  1  0
 20 21  1  1
 22 23  2  0
 22 24  1  0
M  END
$$$$
