ESI.pdb
     RDKit          3D

 24 23  0  0  1  0  0  0  0  0999 V2000
   20.0251  -12.2823  -17.9768 N   0  0  0  0  0  0  0  0  0  0  0  0
   19.7619  -10.9859  -18.6645 C   0  0  1  0  0  0  0  0  0  0  0  0
   18.3967  -11.1470  -19.2418 C   0  0  0  0  0  0  0  0  0  0  0  0
   18.2533  -11.9983  -20.4471 C   0  0  0  0  0  0  0  0  0  0  0  0
   16.8612  -12.0013  -20.9614 C   0  0  0  0  0  0  0  0  0  0  0  0
   16.3714  -11.0633  -21.6419 O   0  0  0  0  0  0  0  0  0  0  0  0
   19.8813   -9.9686  -17.6093 C   0  0  0  0  0  0  0  0  0  0  0  0
   18.8123   -9.5259  -17.0675 O   0  0  0  0  0  0  0  0  0  0  0  0
   16.0353  -13.1224  -20.6740 O   0  0  0  0  0  0  0  0  0  0  0  0
   21.9510   -7.8187  -13.9726 O   0  0  0  0  0  0  0  0  0  0  0  0
   22.0379   -8.7970  -14.9651 C   0  0  0  0  0  0  0  0  0  0  0  0
   21.0714   -8.4101  -16.0460 C   0  0  2  0  0  0  0  0  0  0  0  0
   21.0935   -9.4145  -17.1133 N   0  0  0  0  0  0  0  0  0  0  0  0
   21.4097   -7.0915  -16.6304 C   0  0  0  0  0  0  0  0  0  0  0  0
   22.2396   -7.0102  -17.5572 O   0  0  0  0  0  0  0  0  0  0  0  0
   19.4689   -2.3232  -19.3132 C   0  0  0  0  0  0  0  0  0  0  0  0
   20.4351   -2.7982  -18.2493 C   0  0  0  0  0  0  0  0  0  0  0  0
   20.0600   -4.1362  -17.6962 C   0  0  2  0  0  0  0  0  0  0  0  0
   18.7293   -4.1321  -16.9945 C   0  0  0  0  0  0  0  0  0  0  0  0
   21.1221   -4.5780  -16.7013 C   0  0  2  0  0  0  0  0  0  0  0  0
   20.8112   -5.8862  -16.1659 N   0  0  0  0  0  0  0  0  0  0  0  0
   21.2654   -3.5924  -15.5987 C   0  0  0  0  0  0  0  0  0  0  0  0
   21.8708   -2.4894  -15.7388 O   0  0  0  0  0  0  0  0  0  0  0  0
   20.7324   -3.8380  -14.3419 O   0  0  0  0  0  0  0  0  0  0  0  0
  2  1  1  1
  3  2  1  0
  4  3  1  0
  5  4  1  0
  6  5  2  0
  7  2  1  0
  8  7  2  0
  9  5  1  0
 10 11  1  0
 12 11  1  1
 12 14  1  0
 12 13  1  0
 13  7  1  0
 14 21  1  0
 15 14  2  0
 17 16  1  0
 18 20  1  0
 18 17  1  0
 18 19  1  1
 20 22  1  0
 20 21  1  1
 22 23  2  0
 22 24  1  0
M  END
$$$$
