ESI.pdb
     RDKit          3D

 24 23  0  0  1  0  0  0  0  0999 V2000
   18.0434  -11.6272  -15.2451 N   0  0  0  0  0  0  0  0  0  0  0  0
   16.7974  -11.0624  -14.6524 C   0  0  1  0  0  0  0  0  0  0  0  0
   16.1602  -12.2213  -13.9639 C   0  0  0  0  0  0  0  0  0  0  0  0
   15.2612  -13.0889  -14.7620 C   0  0  0  0  0  0  0  0  0  0  0  0
   13.9392  -12.4549  -14.9920 C   0  0  0  0  0  0  0  0  0  0  0  0
   13.6479  -11.2963  -14.5978 O   0  0  0  0  0  0  0  0  0  0  0  0
   17.2574   -9.9818  -13.7673 C   0  0  0  0  0  0  0  0  0  0  0  0
   18.1649  -10.2447  -12.9074 O   0  0  0  0  0  0  0  0  0  0  0  0
   12.9480  -13.1917  -15.6965 O   0  0  0  0  0  0  0  0  0  0  0  0
   18.8381   -5.8229  -12.7648 O   0  0  0  0  0  0  0  0  0  0  0  0
   18.2849   -6.7319  -13.6688 C   0  0  0  0  0  0  0  0  0  0  0  0
   17.3856   -7.6392  -12.8812 C   0  0  2  0  0  0  0  0  0  0  0  0
   16.7883   -8.6392  -13.7710 N   0  0  0  0  0  0  0  0  0  0  0  0
   16.2962   -6.8837  -12.2200 C   0  0  0  0  0  0  0  0  0  0  0  0
   15.3260   -6.4704  -12.8848 O   0  0  0  0  0  0  0  0  0  0  0  0
   14.3731   -8.0549   -7.2581 C   0  0  0  0  0  0  0  0  0  0  0  0
   14.4700   -7.5042   -8.6646 C   0  0  0  0  0  0  0  0  0  0  0  0
   15.1631   -6.1797   -8.7110 C   0  0  2  0  0  0  0  0  0  0  0  0
   14.4066   -5.0932   -7.9966 C   0  0  0  0  0  0  0  0  0  0  0  0
   15.3401   -5.7621  -10.1626 C   0  0  2  0  0  0  0  0  0  0  0  0
   16.3131   -6.6049  -10.8240 N   0  0  0  0  0  0  0  0  0  0  0  0
   15.7431   -4.3355  -10.2635 C   0  0  0  0  0  0  0  0  0  0  0  0
   14.9050   -3.3879  -10.3162 O   0  0  0  0  0  0  0  0  0  0  0  0
   17.0798   -3.9677  -10.3045 O   0  0  0  0  0  0  0  0  0  0  0  0
  2  1  1  1
  3  2  1  0
  4  3  1  0
  5  4  1  0
  6  5  2  0
  7  2  1  0
  8  7  2  0
  9  5  1  0
 10 11  1  0
 12 11  1  6
 12 14  1  0
 12 13  1  0
 13  7  1  0
 14 21  1  0
 15 14  2  0
 17 16  1  0
 18 20  1  0
 18 17  1  0
 18 19  1  1
 20 22  1  0
 20 21  1  1
 22 23  2  0
 22 24  1  0
M  END
$$$$
