ESI.pdb
     RDKit          3D

 24 23  0  0  1  0  0  0  0  0999 V2000
   22.5528  -20.2468  -18.2935 N   0  0  0  0  0  0  0  0  0  0  0  0
   23.5490  -19.2963  -17.7216 C   0  0  1  0  0  0  0  0  0  0  0  0
   22.7244  -18.1659  -17.2064 C   0  0  0  0  0  0  0  0  0  0  0  0
   21.2510  -18.2754  -17.3277 C   0  0  0  0  0  0  0  0  0  0  0  0
   20.5589  -17.8445  -16.0875 C   0  0  0  0  0  0  0  0  0  0  0  0
   19.7923  -18.5914  -15.4262 O   0  0  0  0  0  0  0  0  0  0  0  0
   24.2631  -20.0710  -16.6957 C   0  0  0  0  0  0  0  0  0  0  0  0
   23.5892  -20.8607  -15.9511 O   0  0  0  0  0  0  0  0  0  0  0  0
   20.7726  -16.5197  -15.6179 O   0  0  0  0  0  0  0  0  0  0  0  0
   28.2058  -21.7407  -14.5032 O   0  0  0  0  0  0  0  0  0  0  0  0
   27.7288  -20.9086  -15.5180 C   0  0  0  0  0  0  0  0  0  0  0  0
   26.2405  -20.8200  -15.3472 C   0  0  2  0  0  0  0  0  0  0  0  0
   25.6620  -20.0351  -16.4416 N   0  0  0  0  0  0  0  0  0  0  0  0
   25.8787  -20.1781  -14.0620 C   0  0  0  0  0  0  0  0  0  0  0  0
   25.9142  -18.9370  -13.9486 O   0  0  0  0  0  0  0  0  0  0  0  0
   21.6662  -19.7982  -10.2962 C   0  0  0  0  0  0  0  0  0  0  0  0
   23.0907  -19.5096  -10.7189 C   0  0  0  0  0  0  0  0  0  0  0  0
   23.8184  -20.7439  -11.1478 C   0  0  2  0  0  0  0  0  0  0  0  0
   23.9638  -21.7559  -10.0442 C   0  0  0  0  0  0  0  0  0  0  0  0
   25.2091  -20.3591  -11.6280 C   0  0  2  0  0  0  0  0  0  0  0  0
   25.4825  -20.9387  -12.9257 N   0  0  0  0  0  0  0  0  0  0  0  0
   26.2473  -20.7759  -10.6502 C   0  0  0  0  0  0  0  0  0  0  0  0
   26.3179  -20.2991   -9.4795 O   0  0  0  0  0  0  0  0  0  0  0  0
   27.2042  -21.7245  -10.9790 O   0  0  0  0  0  0  0  0  0  0  0  0
  2  1  1  1
  3  2  1  0
  4  3  1  0
  5  4  1  0
  6  5  2  0
  7  2  1  0
  8  7  2  0
  9  5  1  0
 10 11  1  0
 12 11  1  6
 12 14  1  0
 12 13  1  0
 13  7  1  0
 14 21  1  0
 15 14  2  0
 17 16  1  0
 18 20  1  0
 18 17  1  0
 18 19  1  1
 20 22  1  0
 20 21  1  6
 22 23  2  0
 22 24  1  0
M  END
$$$$
