ESI.pdb
     RDKit          3D

 24 23  0  0  1  0  0  0  0  0999 V2000
   26.8663  -21.7168  -17.1484 N   0  0  0  0  0  0  0  0  0  0  0  0
   26.5263  -22.5595  -15.9663 C   0  0  1  0  0  0  0  0  0  0  0  0
   27.3062  -23.8133  -16.1727 C   0  0  0  0  0  0  0  0  0  0  0  0
   26.6625  -24.9084  -16.9370 C   0  0  0  0  0  0  0  0  0  0  0  0
   25.2735  -25.1619  -16.4797 C   0  0  0  0  0  0  0  0  0  0  0  0
   24.9944  -25.7434  -15.3996 O   0  0  0  0  0  0  0  0  0  0  0  0
   26.9273  -21.7551  -14.8023 C   0  0  0  0  0  0  0  0  0  0  0  0
   27.8998  -20.9372  -14.9341 O   0  0  0  0  0  0  0  0  0  0  0  0
   24.1992  -24.7239  -17.3017 O   0  0  0  0  0  0  0  0  0  0  0  0
   24.5904  -19.6519  -12.8408 O   0  0  0  0  0  0  0  0  0  0  0  0
   25.9698  -19.4599  -12.9403 C   0  0  0  0  0  0  0  0  0  0  0  0
   26.6212  -20.7470  -12.5265 C   0  0  2  0  0  0  0  0  0  0  0  0
   26.3278  -21.7905  -13.5131 N   0  0  0  0  0  0  0  0  0  0  0  0
   26.1369  -21.1993  -11.2015 C   0  0  0  0  0  0  0  0  0  0  0  0
   25.2299  -22.0510  -11.1222 O   0  0  0  0  0  0  0  0  0  0  0  0
   28.9478  -19.3792   -6.6824 C   0  0  0  0  0  0  0  0  0  0  0  0
   28.1899  -20.2756   -7.6380 C   0  0  0  0  0  0  0  0  0  0  0  0
   26.7228  -19.9853   -7.6486 C   0  0  2  0  0  0  0  0  0  0  0  0
   26.0613  -20.2432   -6.3224 C   0  0  0  0  0  0  0  0  0  0  0  0
   26.0506  -20.8608   -8.6949 C   0  0  2  0  0  0  0  0  0  0  0  0
   26.6781  -20.6890   -9.9876 N   0  0  0  0  0  0  0  0  0  0  0  0
   24.5972  -20.5655   -8.7860 C   0  0  0  0  0  0  0  0  0  0  0  0
   23.7145  -21.2896   -8.2388 O   0  0  0  0  0  0  0  0  0  0  0  0
   24.1307  -19.4628   -9.4861 O   0  0  0  0  0  0  0  0  0  0  0  0
  2  1  1  6
  3  2  1  0
  4  3  1  0
  5  4  1  0
  6  5  2  0
  7  2  1  0
  8  7  2  0
  9  5  1  0
 10 11  1  0
 12 11  1  6
 12 14  1  0
 12 13  1  0
 13  7  1  0
 14 21  1  0
 15 14  2  0
 17 16  1  0
 18 20  1  0
 18 17  1  0
 18 19  1  1
 20 22  1  0
 20 21  1  6
 22 23  2  0
 22 24  1  0
M  END
$$$$
