VLW.pdb
     RDKit          3D

 30 31  0  0  1  0  0  0  0  0999 V2000
   22.3851  -22.5811  -14.4098 C   0  0  0  0  0  0  0  0  0  0  0  0
   23.1294  -23.4563  -15.3928 C   0  0  1  0  0  0  0  0  0  0  0  0
   22.2040  -24.0027  -16.4623 C   0  0  0  0  0  0  0  0  0  0  0  0
   24.2860  -22.6829  -16.0256 C   0  0  2  0  0  0  0  0  0  0  0  0
   24.9273  -23.4702  -17.0329 N   0  0  0  0  0  0  0  0  0  0  0  0
   25.2341  -22.3664  -14.8928 C   0  0  0  0  0  0  0  0  0  0  0  0
   25.8545  -23.2593  -14.3029 O   0  0  0  0  0  0  0  0  0  0  0  0
   28.7457  -17.8876  -14.3250 C   0  0  0  0  0  0  0  0  0  0  0  0
   28.3142  -19.3036  -13.9553 C   0  0  2  0  0  0  0  0  0  0  0  0
   28.7304  -20.2574  -14.9937 C   0  0  0  0  0  0  0  0  0  0  0  0
   26.9114  -19.3024  -13.5135 C   0  0  0  0  0  0  0  0  0  0  0  0
   26.2040  -20.5960  -13.3401 C   0  0  2  0  0  0  0  0  0  0  0  0
   25.4363  -21.0249  -14.4753 N   0  0  0  0  0  0  0  0  0  0  0  0
   25.5019  -20.7443  -12.0531 C   0  0  0  0  0  0  0  0  0  0  0  0
   24.2824  -20.4782  -12.0055 O   0  0  0  0  0  0  0  0  0  0  0  0
   26.1166  -21.1699  -10.8553 N   0  0  0  0  0  0  0  0  0  0  0  0
   25.3979  -21.2825   -9.5673 C   0  0  1  0  0  0  0  0  0  0  0  0
   26.3164  -21.6475   -8.4748 C   0  0  0  0  0  0  0  0  0  0  0  0
   26.8243  -20.4798   -7.7552 C   0  0  0  0  0  0  0  0  0  0  0  0
   26.6058  -19.1521   -8.0917 C   0  0  0  0  0  0  0  0  0  0  0  0
   27.2527  -18.3481   -7.2421 N   0  0  0  0  0  0  0  0  0  0  0  0
   27.9017  -19.0963   -6.3406 C   0  0  0  0  0  0  0  0  0  0  0  0
   28.6933  -18.8007   -5.2490 C   0  0  0  0  0  0  0  0  0  0  0  0
   29.2267  -19.7737   -4.4643 C   0  0  0  0  0  0  0  0  0  0  0  0
   28.9861  -21.1008   -4.7444 C   0  0  0  0  0  0  0  0  0  0  0  0
   28.2040  -21.4158   -5.8240 C   0  0  0  0  0  0  0  0  0  0  0  0
   27.6566  -20.4444   -6.6294 C   0  0  0  0  0  0  0  0  0  0  0  0
   24.5831  -20.0974   -9.3286 C   0  0  0  0  0  0  0  0  0  0  0  0
   24.7881  -18.9364   -9.7454 O   0  0  0  0  0  0  0  0  0  0  0  0
   23.4212  -20.2379   -8.5406 O   0  0  0  0  0  0  0  0  0  0  0  0
  2  1  1  1
  3  2  1  0
  4  2  1  0
  4  5  1  6
  6  7  2  0
  6  4  1  0
  9  8  1  6
  9 11  1  0
 10  9  1  0
 12 11  1  6
 12 13  1  0
 13  6  1  0
 14 12  1  0
 14 16  1  0
 15 14  2  0
 17 16  1  0
 17 28  1  0
 17 18  1  1
 19 18  1  0
 20 19  2  0
 21 22  1  0
 21 20  1  0
 22 27  2  0
 23 24  2  0
 23 22  1  0
 24 25  1  0
 25 26  2  0
 27 19  1  0
 27 26  1  0
 28 29  2  0
 28 30  1  0
M  END
$$$$
