VLW.pdb
     RDKit          3D

 30 31  0  0  1  0  0  0  0  0999 V2000
   27.7082  -18.8327  -17.2793 C   0  0  0  0  0  0  0  0  0  0  0  0
   27.1972  -19.7297  -16.1745 C   0  0  1  0  0  0  0  0  0  0  0  0
   25.9534  -20.4842  -16.6015 C   0  0  0  0  0  0  0  0  0  0  0  0
   28.2896  -20.7012  -15.7285 C   0  0  2  0  0  0  0  0  0  0  0  0
   28.6073  -21.6190  -16.7785 N   0  0  0  0  0  0  0  0  0  0  0  0
   27.7296  -21.4208  -14.5240 C   0  0  0  0  0  0  0  0  0  0  0  0
   27.1267  -22.4950  -14.6376 O   0  0  0  0  0  0  0  0  0  0  0  0
   29.9672  -22.7920  -11.1634 C   0  0  0  0  0  0  0  0  0  0  0  0
   29.6430  -21.3368  -10.8397 C   0  0  2  0  0  0  0  0  0  0  0  0
   30.4578  -20.8656   -9.7104 C   0  0  0  0  0  0  0  0  0  0  0  0
   28.1856  -21.1448  -10.7927 C   0  0  0  0  0  0  0  0  0  0  0  0
   27.3757  -21.4367  -12.0020 C   0  0  2  0  0  0  0  0  0  0  0  0
   27.8833  -20.8756  -13.2225 N   0  0  0  0  0  0  0  0  0  0  0  0
   25.9230  -21.2654  -11.8242 C   0  0  0  0  0  0  0  0  0  0  0  0
   25.3524  -21.9145  -10.9222 O   0  0  0  0  0  0  0  0  0  0  0  0
   25.1200  -20.4104  -12.6103 N   0  0  0  0  0  0  0  0  0  0  0  0
   23.7077  -20.1032  -12.2951 C   0  0  1  0  0  0  0  0  0  0  0  0
   23.3830  -18.7023  -12.6153 C   0  0  0  0  0  0  0  0  0  0  0  0
   23.5162  -18.4074  -14.0417 C   0  0  0  0  0  0  0  0  0  0  0  0
   22.5838  -18.6948  -15.0275 C   0  0  0  0  0  0  0  0  0  0  0  0
   23.0497  -18.3265  -16.2250 N   0  0  0  0  0  0  0  0  0  0  0  0
   24.2710  -17.7978  -16.0750 C   0  0  0  0  0  0  0  0  0  0  0  0
   25.1868  -17.2501  -16.9509 C   0  0  0  0  0  0  0  0  0  0  0  0
   26.3770  -16.7506  -16.5257 C   0  0  0  0  0  0  0  0  0  0  0  0
   26.7036  -16.7793  -15.1878 C   0  0  0  0  0  0  0  0  0  0  0  0
   25.8092  -17.3195  -14.3020 C   0  0  0  0  0  0  0  0  0  0  0  0
   24.6005  -17.8302  -14.7145 C   0  0  0  0  0  0  0  0  0  0  0  0
   22.8216  -21.0999  -12.8837 C   0  0  0  0  0  0  0  0  0  0  0  0
   23.1223  -21.9978  -13.7005 O   0  0  0  0  0  0  0  0  0  0  0  0
   21.4605  -21.0803  -12.5127 O   0  0  0  0  0  0  0  0  0  0  0  0
  2  1  1  6
  3  2  1  0
  4  2  1  0
  4  5  1  6
  6  7  2  0
  6  4  1  0
  9  8  1  1
  9 11  1  0
 10  9  1  0
 12 11  1  1
 12 13  1  0
 13  6  1  0
 14 12  1  0
 14 16  1  0
 15 14  2  0
 17 16  1  0
 17 28  1  0
 17 18  1  6
 19 18  1  0
 20 19  2  0
 21 22  1  0
 21 20  1  0
 22 27  2  0
 23 24  2  0
 23 22  1  0
 24 25  1  0
 25 26  2  0
 27 19  1  0
 27 26  1  0
 28 29  2  0
 28 30  1  0
M  END
$$$$
