VLW.pdb
     RDKit          3D

 30 31  0  0  1  0  0  0  0  0999 V2000
   20.9216  -19.5987  -16.3638 C   0  0  0  0  0  0  0  0  0  0  0  0
   22.1932  -20.2638  -15.8875 C   0  0  1  0  0  0  0  0  0  0  0  0
   23.3286  -20.0620  -16.8719 C   0  0  0  0  0  0  0  0  0  0  0  0
   22.5814  -19.7427  -14.5040 C   0  0  2  0  0  0  0  0  0  0  0  0
   22.8273  -18.3343  -14.5466 N   0  0  0  0  0  0  0  0  0  0  0  0
   23.8270  -20.5039  -14.1153 C   0  0  0  0  0  0  0  0  0  0  0  0
   23.8193  -21.7352  -13.9965 O   0  0  0  0  0  0  0  0  0  0  0  0
   27.1853  -19.7056  -16.3045 C   0  0  0  0  0  0  0  0  0  0  0  0
   27.4596  -18.8430  -15.0763 C   0  0  2  0  0  0  0  0  0  0  0  0
   28.5687  -17.9136  -15.3358 C   0  0  0  0  0  0  0  0  0  0  0  0
   27.5056  -19.6846  -13.8710 C   0  0  0  0  0  0  0  0  0  0  0  0
   26.2818  -20.4081  -13.4438 C   0  0  2  0  0  0  0  0  0  0  0  0
   25.0459  -19.8174  -13.8748 N   0  0  0  0  0  0  0  0  0  0  0  0
   26.2810  -20.8335  -12.0330 C   0  0  0  0  0  0  0  0  0  0  0  0
   27.0005  -21.7993  -11.7014 O   0  0  0  0  0  0  0  0  0  0  0  0
   25.5153  -20.2207  -11.0171 N   0  0  0  0  0  0  0  0  0  0  0  0
   25.5571  -20.6430   -9.6000 C   0  0  1  0  0  0  0  0  0  0  0  0
   26.7933  -20.1833   -8.9434 C   0  0  0  0  0  0  0  0  0  0  0  0
   26.8528  -20.5617   -7.5319 C   0  0  0  0  0  0  0  0  0  0  0  0
   26.0579  -21.5093   -6.9043 C   0  0  0  0  0  0  0  0  0  0  0  0
   26.3525  -21.5695   -5.6018 N   0  0  0  0  0  0  0  0  0  0  0  0
   27.3250  -20.6888   -5.3326 C   0  0  0  0  0  0  0  0  0  0  0  0
   28.0120  -20.3487   -4.1846 C   0  0  0  0  0  0  0  0  0  0  0  0
   28.9960  -19.4113   -4.1878 C   0  0  0  0  0  0  0  0  0  0  0  0
   29.3370  -18.7671   -5.3566 C   0  0  0  0  0  0  0  0  0  0  0  0
   28.6666  -19.0891   -6.5070 C   0  0  0  0  0  0  0  0  0  0  0  0
   27.6678  -20.0346   -6.5223 C   0  0  0  0  0  0  0  0  0  0  0  0
   24.3184  -20.2840   -8.9205 C   0  0  0  0  0  0  0  0  0  0  0  0
   23.4881  -19.4133   -9.2613 O   0  0  0  0  0  0  0  0  0  0  0  0
   23.9843  -20.9778   -7.7382 O   0  0  0  0  0  0  0  0  0  0  0  0
  2  1  1  6
  3  2  1  0
  4  2  1  0
  4  5  1  6
  6  7  2  0
  6  4  1  0
  9  8  1  6
  9 11  1  0
 10  9  1  0
 12 11  1  1
 12 13  1  0
 13  6  1  0
 14 12  1  0
 14 16  1  0
 15 14  2  0
 17 16  1  0
 17 28  1  0
 17 18  1  1
 19 18  1  0
 20 19  2  0
 21 22  1  0
 21 20  1  0
 22 27  2  0
 23 24  2  0
 23 22  1  0
 24 25  1  0
 25 26  2  0
 27 19  1  0
 27 26  1  0
 28 29  2  0
 28 30  1  0
M  END
$$$$
