VLW.pdb
     RDKit          3D

 30 31  0  0  1  0  0  0  0  0999 V2000
   12.7975  -25.3501    2.0547 C   0  0  0  0  0  0  0  0  0  0  0  0
   14.1234  -25.8817    2.5504 C   0  0  1  0  0  0  0  0  0  0  0  0
   13.9731  -26.6011    3.8765 C   0  0  0  0  0  0  0  0  0  0  0  0
   14.7521  -26.8038    1.5060 C   0  0  2  0  0  0  0  0  0  0  0  0
   13.9188  -27.9426    1.2722 N   0  0  0  0  0  0  0  0  0  0  0  0
   16.0904  -27.2128    2.0748 C   0  0  0  0  0  0  0  0  0  0  0  0
   16.1745  -28.0190    3.0092 O   0  0  0  0  0  0  0  0  0  0  0  0
   20.8308  -26.7033   -1.0783 C   0  0  0  0  0  0  0  0  0  0  0  0
   19.9207  -27.4171   -0.0833 C   0  0  2  0  0  0  0  0  0  0  0  0
   18.7468  -27.9778   -0.7682 C   0  0  0  0  0  0  0  0  0  0  0  0
   19.7145  -26.5739    1.1039 C   0  0  0  0  0  0  0  0  0  0  0  0
   18.6185  -26.9061    2.0485 C   0  0  2  0  0  0  0  0  0  0  0  0
   17.2933  -26.6761    1.5456 N   0  0  0  0  0  0  0  0  0  0  0  0
   18.8273  -26.4241    3.4252 C   0  0  0  0  0  0  0  0  0  0  0  0
   18.2387  -25.3838    3.7882 O   0  0  0  0  0  0  0  0  0  0  0  0
   19.6557  -27.0613    4.3748 N   0  0  0  0  0  0  0  0  0  0  0  0
   19.7540  -26.6321    5.7870 C   0  0  1  0  0  0  0  0  0  0  0  0
   18.4189  -26.4460    6.3814 C   0  0  0  0  0  0  0  0  0  0  0  0
   18.0953  -25.0371    6.6039 C   0  0  0  0  0  0  0  0  0  0  0  0
   18.2923  -24.0001    5.7042 C   0  0  0  0  0  0  0  0  0  0  0  0
   17.9240  -22.8376    6.2518 N   0  0  0  0  0  0  0  0  0  0  0  0
   17.4832  -23.0612    7.4966 C   0  0  0  0  0  0  0  0  0  0  0  0
   16.9752  -22.2466    8.4886 C   0  0  0  0  0  0  0  0  0  0  0  0
   16.5688  -22.7426    9.6869 C   0  0  0  0  0  0  0  0  0  0  0  0
   16.6557  -24.0929    9.9445 C   0  0  0  0  0  0  0  0  0  0  0  0
   17.1580  -24.9187    8.9738 C   0  0  0  0  0  0  0  0  0  0  0  0
   17.5746  -24.4342    7.7558 C   0  0  0  0  0  0  0  0  0  0  0  0
   20.6513  -27.5093    6.5291 C   0  0  0  0  0  0  0  0  0  0  0  0
   21.2903  -28.4909    6.0911 O   0  0  0  0  0  0  0  0  0  0  0  0
   20.8460  -27.2519    7.9026 O   0  0  0  0  0  0  0  0  0  0  0  0
  2  1  1  6
  3  2  1  0
  4  2  1  0
  4  5  1  1
  6  7  2  0
  6  4  1  0
  9  8  1  6
  9 11  1  0
 10  9  1  0
 12 11  1  6
 12 13  1  0
 13  6  1  0
 14 12  1  0
 14 16  1  0
 15 14  2  0
 17 16  1  0
 17 28  1  0
 17 18  1  1
 19 18  1  0
 20 19  2  0
 21 22  1  0
 21 20  1  0
 22 27  2  0
 23 24  2  0
 23 22  1  0
 24 25  1  0
 25 26  2  0
 27 19  1  0
 27 26  1  0
 28 29  2  0
 28 30  1  0
M  END
$$$$
