VLW.pdb
     RDKit          3D

 30 31  0  0  1  0  0  0  0  0999 V2000
   20.9259  -22.1448  -16.0492 C   0  0  0  0  0  0  0  0  0  0  0  0
   22.1221  -22.1768  -15.1248 C   0  0  1  0  0  0  0  0  0  0  0  0
   22.0738  -23.3730  -14.1944 C   0  0  0  0  0  0  0  0  0  0  0  0
   23.4199  -22.1748  -15.9321 C   0  0  2  0  0  0  0  0  0  0  0  0
   23.5343  -23.3728  -16.7053 N   0  0  0  0  0  0  0  0  0  0  0  0
   24.5330  -22.0713  -14.9161 C   0  0  0  0  0  0  0  0  0  0  0  0
   25.0727  -23.0802  -14.4460 O   0  0  0  0  0  0  0  0  0  0  0  0
   28.8249  -18.0980  -14.2235 C   0  0  0  0  0  0  0  0  0  0  0  0
   28.2165  -19.4734  -13.9666 C   0  0  2  0  0  0  0  0  0  0  0  0
   28.6201  -20.4203  -15.0163 C   0  0  0  0  0  0  0  0  0  0  0  0
   26.7882  -19.3388  -13.6427 C   0  0  0  0  0  0  0  0  0  0  0  0
   25.9691  -20.5620  -13.4513 C   0  0  2  0  0  0  0  0  0  0  0  0
   24.9890  -20.8022  -14.4729 N   0  0  0  0  0  0  0  0  0  0  0  0
   25.4631  -20.7538  -12.0807 C   0  0  0  0  0  0  0  0  0  0  0  0
   24.3035  -20.3730  -11.8148 O   0  0  0  0  0  0  0  0  0  0  0  0
   26.2045  -21.3436  -11.0337 N   0  0  0  0  0  0  0  0  0  0  0  0
   25.7220  -21.4193   -9.6373 C   0  0  1  0  0  0  0  0  0  0  0  0
   26.8249  -21.7201   -8.7081 C   0  0  0  0  0  0  0  0  0  0  0  0
   27.2254  -20.5567   -7.9173 C   0  0  0  0  0  0  0  0  0  0  0  0
   26.8103  -19.2486   -8.1177 C   0  0  0  0  0  0  0  0  0  0  0  0
   27.4053  -18.4357   -7.2391 N   0  0  0  0  0  0  0  0  0  0  0  0
   28.2105  -19.1591   -6.4504 C   0  0  0  0  0  0  0  0  0  0  0  0
   29.0330  -18.8481   -5.3862 C   0  0  0  0  0  0  0  0  0  0  0  0
   29.7451  -19.7996   -4.7271 C   0  0  0  0  0  0  0  0  0  0  0  0
   29.6617  -21.1197   -5.1118 C   0  0  0  0  0  0  0  0  0  0  0  0
   28.8520  -21.4495   -6.1663 C   0  0  0  0  0  0  0  0  0  0  0  0
   28.1248  -20.4998   -6.8453 C   0  0  0  0  0  0  0  0  0  0  0  0
   24.9277  -20.2432   -9.3040 C   0  0  0  0  0  0  0  0  0  0  0  0
   25.2287  -19.0438   -9.4903 O   0  0  0  0  0  0  0  0  0  0  0  0
   23.6681  -20.4417   -8.7001 O   0  0  0  0  0  0  0  0  0  0  0  0
  2  1  1  6
  3  2  1  0
  4  2  1  0
  4  5  1  1
  6  7  2  0
  6  4  1  0
  9  8  1  6
  9 11  1  0
 10  9  1  0
 12 11  1  1
 12 13  1  0
 13  6  1  0
 14 12  1  0
 14 16  1  0
 15 14  2  0
 17 16  1  0
 17 28  1  0
 17 18  1  1
 19 18  1  0
 20 19  2  0
 21 22  1  0
 21 20  1  0
 22 27  2  0
 23 24  2  0
 23 22  1  0
 24 25  1  0
 25 26  2  0
 27 19  1  0
 27 26  1  0
 28 29  2  0
 28 30  1  0
M  END
$$$$
