VLW.pdb
     RDKit          3D

 30 31  0  0  1  0  0  0  0  0999 V2000
   24.2621  -17.4302  -17.1163 C   0  0  0  0  0  0  0  0  0  0  0  0
   25.1888  -18.4602  -16.5110 C   0  0  1  0  0  0  0  0  0  0  0  0
   26.6404  -18.0376  -16.6253 C   0  0  0  0  0  0  0  0  0  0  0  0
   24.8170  -18.7195  -15.0513 C   0  0  2  0  0  0  0  0  0  0  0  0
   25.0226  -17.5441  -14.2625 N   0  0  0  0  0  0  0  0  0  0  0  0
   25.7125  -19.8475  -14.5956 C   0  0  0  0  0  0  0  0  0  0  0  0
   25.6219  -20.9802  -15.0845 O   0  0  0  0  0  0  0  0  0  0  0  0
   30.9479  -20.4669  -11.2939 C   0  0  0  0  0  0  0  0  0  0  0  0
   29.7433  -21.1761  -11.9051 C   0  0  2  0  0  0  0  0  0  0  0  0
   30.1796  -22.2832  -12.7684 C   0  0  0  0  0  0  0  0  0  0  0  0
   28.7971  -20.1868  -12.4429 C   0  0  0  0  0  0  0  0  0  0  0  0
   27.4729  -20.6424  -12.9358 C   0  0  2  0  0  0  0  0  0  0  0  0
   26.6870  -19.6319  -13.5863 N   0  0  0  0  0  0  0  0  0  0  0  0
   26.7131  -21.4679  -11.9807 C   0  0  0  0  0  0  0  0  0  0  0  0
   27.1406  -22.6095  -11.7079 O   0  0  0  0  0  0  0  0  0  0  0  0
   25.5215  -21.0563  -11.3446 N   0  0  0  0  0  0  0  0  0  0  0  0
   25.3257  -21.0968   -9.8789 C   0  0  1  0  0  0  0  0  0  0  0  0
   26.4568  -20.4701   -9.1728 C   0  0  0  0  0  0  0  0  0  0  0  0
   26.3055  -20.5165   -7.7188 C   0  0  0  0  0  0  0  0  0  0  0  0
   25.2220  -21.0341   -7.0247 C   0  0  0  0  0  0  0  0  0  0  0  0
   25.3975  -20.8744   -5.7092 N   0  0  0  0  0  0  0  0  0  0  0  0
   26.5702  -20.2636   -5.4958 C   0  0  0  0  0  0  0  0  0  0  0  0
   27.2500  -19.8760   -4.3586 C   0  0  0  0  0  0  0  0  0  0  0  0
   28.4689  -19.2779   -4.4195 C   0  0  0  0  0  0  0  0  0  0  0  0
   29.0651  -19.0402   -5.6383 C   0  0  0  0  0  0  0  0  0  0  0  0
   28.4068  -19.4162   -6.7792 C   0  0  0  0  0  0  0  0  0  0  0  0
   27.1726  -20.0219   -6.7365 C   0  0  0  0  0  0  0  0  0  0  0  0
   24.0073  -20.5870   -9.5226 C   0  0  0  0  0  0  0  0  0  0  0  0
   23.3048  -19.7775  -10.1668 O   0  0  0  0  0  0  0  0  0  0  0  0
   23.4244  -21.0363   -8.3188 O   0  0  0  0  0  0  0  0  0  0  0  0
  2  1  1  1
  3  2  1  0
  4  2  1  0
  4  5  1  1
  6  7  2  0
  6  4  1  0
  9  8  1  6
  9 11  1  0
 10  9  1  0
 12 11  1  1
 12 13  1  0
 13  6  1  0
 14 12  1  0
 14 16  1  0
 15 14  2  0
 17 16  1  0
 17 28  1  0
 17 18  1  1
 19 18  1  0
 20 19  2  0
 21 22  1  0
 21 20  1  0
 22 27  2  0
 23 24  2  0
 23 22  1  0
 24 25  1  0
 25 26  2  0
 27 19  1  0
 27 26  1  0
 28 29  2  0
 28 30  1  0
M  END
$$$$
