VLW.pdb
     RDKit          3D

 30 31  0  0  1  0  0  0  0  0999 V2000
   28.9143  -20.3091  -16.9398 C   0  0  0  0  0  0  0  0  0  0  0  0
   28.3345  -19.7720  -18.2289 C   0  0  1  0  0  0  0  0  0  0  0  0
   29.3841  -19.0525  -19.0532 C   0  0  0  0  0  0  0  0  0  0  0  0
   27.6960  -20.9011  -19.0374 C   0  0  2  0  0  0  0  0  0  0  0  0
   27.2957  -20.4326  -20.3282 N   0  0  0  0  0  0  0  0  0  0  0  0
   26.5054  -21.3600  -18.2286 C   0  0  0  0  0  0  0  0  0  0  0  0
   25.5990  -20.5786  -17.9155 O   0  0  0  0  0  0  0  0  0  0  0  0
   22.9859  -23.7297  -18.9091 C   0  0  0  0  0  0  0  0  0  0  0  0
   24.2355  -24.5978  -18.7964 C   0  0  2  0  0  0  0  0  0  0  0  0
   24.0021  -25.9186  -19.3986 C   0  0  0  0  0  0  0  0  0  0  0  0
   24.7762  -24.5258  -17.4305 C   0  0  0  0  0  0  0  0  0  0  0  0
   25.3781  -23.2551  -16.9543 C   0  0  2  0  0  0  0  0  0  0  0  0
   26.3987  -22.7106  -17.8051 N   0  0  0  0  0  0  0  0  0  0  0  0
   25.7221  -23.2376  -15.5216 C   0  0  0  0  0  0  0  0  0  0  0  0
   26.6893  -23.9257  -15.1326 O   0  0  0  0  0  0  0  0  0  0  0  0
   25.0278  -22.4903  -14.5452 N   0  0  0  0  0  0  0  0  0  0  0  0
   25.2605  -22.6360  -13.0916 C   0  0  1  0  0  0  0  0  0  0  0  0
   26.3628  -21.7697  -12.6391 C   0  0  0  0  0  0  0  0  0  0  0  0
   26.0965  -20.3516  -12.8787 C   0  0  0  0  0  0  0  0  0  0  0  0
   25.1566  -19.5727  -12.2201 C   0  0  0  0  0  0  0  0  0  0  0  0
   25.1522  -18.3331  -12.7204 N   0  0  0  0  0  0  0  0  0  0  0  0
   26.0636  -18.2534  -13.6985 C   0  0  0  0  0  0  0  0  0  0  0  0
   26.4867  -17.2329  -14.5262 C   0  0  0  0  0  0  0  0  0  0  0  0
   27.4715  -17.4151  -15.4449 C   0  0  0  0  0  0  0  0  0  0  0  0
   28.0814  -18.6434  -15.5742 C   0  0  0  0  0  0  0  0  0  0  0  0
   27.6755  -19.6700  -14.7631 C   0  0  0  0  0  0  0  0  0  0  0  0
   26.6801  -19.5039  -13.8285 C   0  0  0  0  0  0  0  0  0  0  0  0
   24.0108  -22.4930  -12.3547 C   0  0  0  0  0  0  0  0  0  0  0  0
   23.8111  -22.7267  -11.1426 O   0  0  0  0  0  0  0  0  0  0  0  0
   22.8736  -22.0409  -13.0569 O   0  0  0  0  0  0  0  0  0  0  0  0
  2  1  1  1
  3  2  1  0
  4  2  1  0
  4  5  1  6
  6  7  2  0
  6  4  1  0
  9  8  1  1
  9 11  1  0
 10  9  1  0
 12 11  1  6
 12 13  1  0
 13  6  1  0
 14 12  1  0
 14 16  1  0
 15 14  2  0
 17 16  1  0
 17 28  1  0
 17 18  1  1
 19 18  1  0
 20 19  2  0
 21 22  1  0
 21 20  1  0
 22 27  2  0
 23 24  2  0
 23 22  1  0
 24 25  1  0
 25 26  2  0
 27 19  1  0
 27 26  1  0
 28 29  2  0
 28 30  1  0
M  END
$$$$
