VLW.pdb
     RDKit          3D

 30 31  0  0  1  0  0  0  0  0999 V2000
   26.6444  -18.4474  -15.9351 C   0  0  0  0  0  0  0  0  0  0  0  0
   27.5028  -19.3872  -16.7511 C   0  0  1  0  0  0  0  0  0  0  0  0
   28.1819  -18.6651  -17.8985 C   0  0  0  0  0  0  0  0  0  0  0  0
   28.5373  -20.0739  -15.8598 C   0  0  2  0  0  0  0  0  0  0  0  0
   29.2978  -21.0246  -16.6107 N   0  0  0  0  0  0  0  0  0  0  0  0
   27.7478  -20.7490  -14.7629 C   0  0  0  0  0  0  0  0  0  0  0  0
   26.9930  -21.6991  -15.0031 O   0  0  0  0  0  0  0  0  0  0  0  0
   29.0630  -22.6394  -11.0163 C   0  0  0  0  0  0  0  0  0  0  0  0
   29.0480  -21.1337  -10.7703 C   0  0  2  0  0  0  0  0  0  0  0  0
   29.7526  -20.8079   -9.5218 C   0  0  0  0  0  0  0  0  0  0  0  0
   27.6922  -20.6036  -10.9796 C   0  0  0  0  0  0  0  0  0  0  0  0
   27.0544  -20.7475  -12.3124 C   0  0  2  0  0  0  0  0  0  0  0  0
   27.8545  -20.3040  -13.4192 N   0  0  0  0  0  0  0  0  0  0  0  0
   25.6511  -20.3020  -12.3729 C   0  0  0  0  0  0  0  0  0  0  0  0
   25.4171  -19.0766  -12.4352 O   0  0  0  0  0  0  0  0  0  0  0  0
   24.5387  -21.1717  -12.3647 N   0  0  0  0  0  0  0  0  0  0  0  0
   23.1370  -20.7001  -12.3978 C   0  0  1  0  0  0  0  0  0  0  0  0
   22.2572  -21.6896  -13.0439 C   0  0  0  0  0  0  0  0  0  0  0  0
   20.8711  -21.2322  -13.1361 C   0  0  0  0  0  0  0  0  0  0  0  0
   20.3356  -20.4403  -14.1410 C   0  0  0  0  0  0  0  0  0  0  0  0
   19.0497  -20.1785  -13.8866 N   0  0  0  0  0  0  0  0  0  0  0  0
   18.7019  -20.7723  -12.7376 C   0  0  0  0  0  0  0  0  0  0  0  0
   17.5230  -20.8501  -12.0236 C   0  0  0  0  0  0  0  0  0  0  0  0
   17.4300  -21.5557  -10.8658 C   0  0  0  0  0  0  0  0  0  0  0  0
   18.5287  -22.2215  -10.3688 C   0  0  0  0  0  0  0  0  0  0  0  0
   19.7087  -22.1562  -11.0615 C   0  0  0  0  0  0  0  0  0  0  0  0
   19.8212  -21.4464  -12.2343 C   0  0  0  0  0  0  0  0  0  0  0  0
   22.7130  -20.2567  -11.0754 C   0  0  0  0  0  0  0  0  0  0  0  0
   23.1072  -20.6820   -9.9675 O   0  0  0  0  0  0  0  0  0  0  0  0
   21.7477  -19.2307  -10.9968 O   0  0  0  0  0  0  0  0  0  0  0  0
  2  1  1  1
  3  2  1  0
  4  2  1  0
  4  5  1  6
  6  7  2  0
  6  4  1  0
  9  8  1  1
  9 11  1  0
 10  9  1  0
 12 11  1  1
 12 13  1  0
 13  6  1  0
 14 12  1  0
 14 16  1  0
 15 14  2  0
 17 16  1  0
 17 28  1  0
 17 18  1  1
 19 18  1  0
 20 19  2  0
 21 22  1  0
 21 20  1  0
 22 27  2  0
 23 24  2  0
 23 22  1  0
 24 25  1  0
 25 26  2  0
 27 19  1  0
 27 26  1  0
 28 29  2  0
 28 30  1  0
M  END
$$$$
