VLW.pdb
     RDKit          3D

 30 31  0  0  1  0  0  0  0  0999 V2000
   28.8408  -17.4770  -16.5798 C   0  0  0  0  0  0  0  0  0  0  0  0
   28.2143  -18.4067  -15.5653 C   0  0  1  0  0  0  0  0  0  0  0  0
   26.7710  -18.7163  -15.9116 C   0  0  0  0  0  0  0  0  0  0  0  0
   29.0282  -19.6952  -15.4489 C   0  0  2  0  0  0  0  0  0  0  0  0
   28.9340  -20.4613  -16.6531 N   0  0  0  0  0  0  0  0  0  0  0  0
   28.4409  -20.4450  -14.2763 C   0  0  0  0  0  0  0  0  0  0  0  0
   27.5525  -21.2915  -14.4321 O   0  0  0  0  0  0  0  0  0  0  0  0
   30.6110  -22.9608  -11.5840 C   0  0  0  0  0  0  0  0  0  0  0  0
   30.7546  -21.5405  -11.0457 C   0  0  2  0  0  0  0  0  0  0  0  0
   31.8381  -21.4715  -10.0544 C   0  0  0  0  0  0  0  0  0  0  0  0
   29.4330  -21.0009  -10.6918 C   0  0  0  0  0  0  0  0  0  0  0  0
   28.4155  -20.8164  -11.7569 C   0  0  2  0  0  0  0  0  0  0  0  0
   28.8989  -20.1927  -12.9566 N   0  0  0  0  0  0  0  0  0  0  0  0
   27.1235  -20.2865  -11.2866 C   0  0  0  0  0  0  0  0  0  0  0  0
   27.0212  -19.0579  -11.0848 O   0  0  0  0  0  0  0  0  0  0  0  0
   25.9793  -21.0776  -11.0441 N   0  0  0  0  0  0  0  0  0  0  0  0
   24.6843  -20.5198  -10.5968 C   0  0  1  0  0  0  0  0  0  0  0  0
   24.2186  -19.4587  -11.5066 C   0  0  0  0  0  0  0  0  0  0  0  0
   23.6629  -19.9903  -12.7507 C   0  0  0  0  0  0  0  0  0  0  0  0
   22.6495  -20.9311  -12.8582 C   0  0  0  0  0  0  0  0  0  0  0  0
   22.4215  -21.2191  -14.1435 N   0  0  0  0  0  0  0  0  0  0  0  0
   23.2528  -20.4982  -14.9070 C   0  0  0  0  0  0  0  0  0  0  0  0
   23.4382  -20.3849  -16.2702 C   0  0  0  0  0  0  0  0  0  0  0  0
   24.3604  -19.5398  -16.8016 C   0  0  0  0  0  0  0  0  0  0  0  0
   25.1455  -18.7629  -15.9785 C   0  0  0  0  0  0  0  0  0  0  0  0
   24.9782  -18.8610  -14.6225 C   0  0  0  0  0  0  0  0  0  0  0  0
   24.0505  -19.7112  -14.0672 C   0  0  0  0  0  0  0  0  0  0  0  0
   23.7259  -21.5880  -10.3408 C   0  0  0  0  0  0  0  0  0  0  0  0
   23.8648  -22.8079  -10.5781 O   0  0  0  0  0  0  0  0  0  0  0  0
   22.4875  -21.2439   -9.7589 O   0  0  0  0  0  0  0  0  0  0  0  0
  2  1  1  6
  3  2  1  0
  4  2  1  0
  4  5  1  6
  6  7  2  0
  6  4  1  0
  9  8  1  1
  9 11  1  0
 10  9  1  0
 12 11  1  1
 12 13  1  0
 13  6  1  0
 14 12  1  0
 14 16  1  0
 15 14  2  0
 17 16  1  0
 17 28  1  0
 17 18  1  6
 19 18  1  0
 20 19  2  0
 21 22  1  0
 21 20  1  0
 22 27  2  0
 23 24  2  0
 23 22  1  0
 24 25  1  0
 25 26  2  0
 27 19  1  0
 27 26  1  0
 28 29  2  0
 28 30  1  0
M  END
$$$$
