VLW.pdb
     RDKit          3D

 30 31  0  0  1  0  0  0  0  0999 V2000
   22.2642  -17.6739  -16.6888 C   0  0  0  0  0  0  0  0  0  0  0  0
   23.3017  -18.6895  -16.2662 C   0  0  1  0  0  0  0  0  0  0  0  0
   24.4380  -18.7727  -17.2666 C   0  0  0  0  0  0  0  0  0  0  0  0
   23.8348  -18.3586  -14.8725 C   0  0  2  0  0  0  0  0  0  0  0  0
   24.5438  -17.1164  -14.8859 N   0  0  0  0  0  0  0  0  0  0  0  0
   24.7463  -19.5046  -14.5009 C   0  0  0  0  0  0  0  0  0  0  0  0
   24.3198  -20.6615  -14.4019 O   0  0  0  0  0  0  0  0  0  0  0  0
   30.6395  -19.7088  -12.3697 C   0  0  0  0  0  0  0  0  0  0  0  0
   29.4370  -20.5261  -12.8321 C   0  0  2  0  0  0  0  0  0  0  0  0
   29.8690  -21.6398  -13.6891 C   0  0  0  0  0  0  0  0  0  0  0  0
   28.3752  -19.6298  -13.3142 C   0  0  0  0  0  0  0  0  0  0  0  0
   27.0358  -20.1911  -13.6218 C   0  0  2  0  0  0  0  0  0  0  0  0
   26.1257  -19.2780  -14.2542 N   0  0  0  0  0  0  0  0  0  0  0  0
   26.4331  -20.9753  -12.5295 C   0  0  0  0  0  0  0  0  0  0  0  0
   26.5676  -22.2172  -12.5430 O   0  0  0  0  0  0  0  0  0  0  0  0
   25.7051  -20.4169  -11.4562 N   0  0  0  0  0  0  0  0  0  0  0  0
   25.4513  -21.1314  -10.1861 C   0  0  1  0  0  0  0  0  0  0  0  0
   26.6754  -21.2204   -9.3711 C   0  0  0  0  0  0  0  0  0  0  0  0
   26.4723  -20.7514   -8.0007 C   0  0  0  0  0  0  0  0  0  0  0  0
   25.2543  -20.6350   -7.3475 C   0  0  0  0  0  0  0  0  0  0  0  0
   25.4342  -20.1343   -6.1212 N   0  0  0  0  0  0  0  0  0  0  0  0
   26.7404  -19.9100   -5.9281 C   0  0  0  0  0  0  0  0  0  0  0  0
   27.4779  -19.4292   -4.8648 C   0  0  0  0  0  0  0  0  0  0  0  0
   28.8312  -19.3181   -4.9216 C   0  0  0  0  0  0  0  0  0  0  0  0
   29.5108  -19.6890   -6.0609 C   0  0  0  0  0  0  0  0  0  0  0  0
   28.7976  -20.1677   -7.1280 C   0  0  0  0  0  0  0  0  0  0  0  0
   27.4278  -20.2862   -7.0885 C   0  0  0  0  0  0  0  0  0  0  0  0
   24.2880  -20.5742   -9.5069 C   0  0  0  0  0  0  0  0  0  0  0  0
   23.6217  -19.5695   -9.8390 O   0  0  0  0  0  0  0  0  0  0  0  0
   23.8319  -21.2160   -8.3360 O   0  0  0  0  0  0  0  0  0  0  0  0
  2  1  1  6
  3  2  1  0
  4  2  1  0
  4  5  1  6
  6  7  2  0
  6  4  1  0
  9  8  1  6
  9 11  1  0
 10  9  1  0
 12 11  1  1
 12 13  1  0
 13  6  1  0
 14 12  1  0
 14 16  1  0
 15 14  2  0
 17 16  1  0
 17 28  1  0
 17 18  1  1
 19 18  1  0
 20 19  2  0
 21 22  1  0
 21 20  1  0
 22 27  2  0
 23 24  2  0
 23 22  1  0
 24 25  1  0
 25 26  2  0
 27 19  1  0
 27 26  1  0
 28 29  2  0
 28 30  1  0
M  END
$$$$
