VLW.pdb
     RDKit          3D

 30 31  0  0  1  0  0  0  0  0999 V2000
   22.8955  -18.0099  -16.4509 C   0  0  0  0  0  0  0  0  0  0  0  0
   23.7458  -19.1172  -15.8703 C   0  0  1  0  0  0  0  0  0  0  0  0
   25.0813  -19.2231  -16.5801 C   0  0  0  0  0  0  0  0  0  0  0  0
   23.9487  -18.9029  -14.3706 C   0  0  2  0  0  0  0  0  0  0  0  0
   24.7151  -17.7195  -14.1298 N   0  0  0  0  0  0  0  0  0  0  0  0
   24.6725  -20.1333  -13.8763 C   0  0  0  0  0  0  0  0  0  0  0  0
   24.1423  -21.2503  -13.9102 O   0  0  0  0  0  0  0  0  0  0  0  0
   28.2622  -18.6272  -13.7315 C   0  0  0  0  0  0  0  0  0  0  0  0
   28.9262  -19.7297  -12.9121 C   0  0  2  0  0  0  0  0  0  0  0  0
   30.3881  -19.6701  -13.0558 C   0  0  0  0  0  0  0  0  0  0  0  0
   28.2416  -21.0105  -13.1446 C   0  0  0  0  0  0  0  0  0  0  0  0
   26.7889  -21.1192  -12.8588 C   0  0  2  0  0  0  0  0  0  0  0  0
   25.9896  -20.0348  -13.3562 N   0  0  0  0  0  0  0  0  0  0  0  0
   26.4628  -21.5179  -11.4783 C   0  0  0  0  0  0  0  0  0  0  0  0
   26.9304  -22.5907  -11.0416 O   0  0  0  0  0  0  0  0  0  0  0  0
   25.6492  -20.7652  -10.6033 N   0  0  0  0  0  0  0  0  0  0  0  0
   25.0046  -21.3346   -9.3997 C   0  0  1  0  0  0  0  0  0  0  0  0
   25.9997  -21.6433   -8.3581 C   0  0  0  0  0  0  0  0  0  0  0  0
   26.6080  -20.4409   -7.7894 C   0  0  0  0  0  0  0  0  0  0  0  0
   26.4860  -19.1503   -8.2825 C   0  0  0  0  0  0  0  0  0  0  0  0
   27.2072  -18.3030   -7.5417 N   0  0  0  0  0  0  0  0  0  0  0  0
   27.8125  -18.9859   -6.5615 C   0  0  0  0  0  0  0  0  0  0  0  0
   28.6432  -18.6240   -5.5200 C   0  0  0  0  0  0  0  0  0  0  0  0
   29.1141  -19.5344   -4.6275 C   0  0  0  0  0  0  0  0  0  0  0  0
   28.7678  -20.8626   -4.7429 C   0  0  0  0  0  0  0  0  0  0  0  0
   27.9453  -21.2430   -5.7701 C   0  0  0  0  0  0  0  0  0  0  0  0
   27.4599  -20.3356   -6.6828 C   0  0  0  0  0  0  0  0  0  0  0  0
   23.8898  -20.4992   -8.9704 C   0  0  0  0  0  0  0  0  0  0  0  0
   23.4932  -19.4333   -9.4904 O   0  0  0  0  0  0  0  0  0  0  0  0
   23.1492  -20.9087   -7.8415 O   0  0  0  0  0  0  0  0  0  0  0  0
  2  1  1  6
  3  2  1  0
  4  2  1  0
  4  5  1  6
  6  7  2  0
  6  4  1  0
  9  8  1  6
  9 11  1  0
 10  9  1  0
 12 11  1  1
 12 13  1  0
 13  6  1  0
 14 12  1  0
 14 16  1  0
 15 14  2  0
 17 16  1  0
 17 28  1  0
 17 18  1  1
 19 18  1  0
 20 19  2  0
 21 22  1  0
 21 20  1  0
 22 27  2  0
 23 24  2  0
 23 22  1  0
 24 25  1  0
 25 26  2  0
 27 19  1  0
 27 26  1  0
 28 29  2  0
 28 30  1  0
M  END
$$$$
