VLW.pdb
     RDKit          3D

 30 31  0  0  1  0  0  0  0  0999 V2000
   23.6143  -24.6106  -17.2651 C   0  0  0  0  0  0  0  0  0  0  0  0
   24.3717  -23.8938  -16.1703 C   0  0  1  0  0  0  0  0  0  0  0  0
   24.7444  -24.8367  -15.0430 C   0  0  0  0  0  0  0  0  0  0  0  0
   25.6180  -23.2165  -16.7398 C   0  0  2  0  0  0  0  0  0  0  0  0
   26.5049  -24.1861  -17.3048 N   0  0  0  0  0  0  0  0  0  0  0  0
   26.2613  -22.4995  -15.5761 C   0  0  0  0  0  0  0  0  0  0  0  0
   27.1622  -23.0267  -14.9124 O   0  0  0  0  0  0  0  0  0  0  0  0
   28.5685  -18.8339  -15.5172 C   0  0  0  0  0  0  0  0  0  0  0  0
   27.1134  -18.3784  -15.5727 C   0  0  2  0  0  0  0  0  0  0  0  0
   27.0343  -16.9372  -15.8523 C   0  0  0  0  0  0  0  0  0  0  0  0
   26.3727  -18.9205  -14.4235 C   0  0  0  0  0  0  0  0  0  0  0  0
   26.3994  -20.3825  -14.1671 C   0  0  2  0  0  0  0  0  0  0  0  0
   25.8423  -21.1925  -15.2138 N   0  0  0  0  0  0  0  0  0  0  0  0
   25.9701  -20.7764  -12.8137 C   0  0  0  0  0  0  0  0  0  0  0  0
   24.7563  -20.9924  -12.6128 O   0  0  0  0  0  0  0  0  0  0  0  0
   26.8430  -20.9283  -11.7143 N   0  0  0  0  0  0  0  0  0  0  0  0
   26.3811  -20.9831  -10.3100 C   0  0  1  0  0  0  0  0  0  0  0  0
   27.4903  -20.7299   -9.3741 C   0  0  0  0  0  0  0  0  0  0  0  0
   27.0394  -20.6165   -7.9873 C   0  0  0  0  0  0  0  0  0  0  0  0
   25.7986  -20.9948   -7.4966 C   0  0  0  0  0  0  0  0  0  0  0  0
   25.7113  -20.7103   -6.1934 N   0  0  0  0  0  0  0  0  0  0  0  0
   26.8594  -20.1507   -5.7905 C   0  0  0  0  0  0  0  0  0  0  0  0
   27.3187  -19.6879   -4.5737 C   0  0  0  0  0  0  0  0  0  0  0  0
   28.5674  -19.1720   -4.4267 C   0  0  0  0  0  0  0  0  0  0  0  0
   29.4190  -19.0972   -5.5068 C   0  0  0  0  0  0  0  0  0  0  0  0
   28.9823  -19.5501   -6.7236 C   0  0  0  0  0  0  0  0  0  0  0  0
   27.7218  -20.0745   -6.8910 C   0  0  0  0  0  0  0  0  0  0  0  0
   25.2031  -20.1448  -10.1238 C   0  0  0  0  0  0  0  0  0  0  0  0
   25.0712  -18.9392  -10.4285 O   0  0  0  0  0  0  0  0  0  0  0  0
   24.0604  -20.7263   -9.5350 O   0  0  0  0  0  0  0  0  0  0  0  0
  2  1  1  6
  3  2  1  0
  4  2  1  0
  4  5  1  1
  6  7  2  0
  6  4  1  0
  9  8  1  1
  9 11  1  0
 10  9  1  0
 12 11  1  6
 12 13  1  0
 13  6  1  0
 14 12  1  0
 14 16  1  0
 15 14  2  0
 17 16  1  0
 17 28  1  0
 17 18  1  1
 19 18  1  0
 20 19  2  0
 21 22  1  0
 21 20  1  0
 22 27  2  0
 23 24  2  0
 23 22  1  0
 24 25  1  0
 25 26  2  0
 27 19  1  0
 27 26  1  0
 28 29  2  0
 28 30  1  0
M  END
$$$$
