MII.pdb
     RDKit          3D

 25 24  0  0  1  0  0  0  0  0999 V2000
   20.2352  -17.8248  -15.9362 C   0  0  0  0  0  0  0  0  0  0  0  0
   21.5275  -16.6873  -16.4743 S   0  0  0  0  0  0  0  0  0  0  0  0
   23.0075  -17.6046  -17.0340 C   0  0  0  0  0  0  0  0  0  0  0  0
   23.3844  -18.6594  -15.9860 C   0  0  0  0  0  0  0  0  0  0  0  0
   24.6491  -19.3426  -16.5084 C   0  0  2  0  0  0  0  0  0  0  0  0
   24.2553  -20.1491  -17.6215 N   0  0  0  0  0  0  0  0  0  0  0  0
   25.3013  -20.1197  -15.4245 C   0  0  0  0  0  0  0  0  0  0  0  0
   24.7293  -21.1737  -15.0522 O   0  0  0  0  0  0  0  0  0  0  0  0
   30.6538  -20.8784  -14.8333 C   0  0  0  0  0  0  0  0  0  0  0  0
   29.1251  -21.1225  -14.9343 C   0  0  0  0  0  0  0  0  0  0  0  0
   28.5360  -20.5313  -13.6864 C   0  0  2  0  0  0  0  0  0  0  0  0
   29.1447  -21.2907  -12.5271 C   0  0  0  0  0  0  0  0  0  0  0  0
   27.0544  -20.5543  -13.6916 C   0  0  2  0  0  0  0  0  0  0  0  0
   26.5075  -19.7598  -14.7899 N   0  0  0  0  0  0  0  0  0  0  0  0
   26.4704  -20.0737  -12.4115 C   0  0  0  0  0  0  0  0  0  0  0  0
   26.4888  -18.8727  -12.0708 O   0  0  0  0  0  0  0  0  0  0  0  0
   21.6676  -21.3231  -11.1033 C   0  0  0  0  0  0  0  0  0  0  0  0
   23.0527  -20.7392  -11.2159 C   0  0  0  0  0  0  0  0  0  0  0  0
   23.9016  -21.0416  -10.0002 C   0  0  2  0  0  0  0  0  0  0  0  0
   23.3315  -20.5098   -8.7245 C   0  0  0  0  0  0  0  0  0  0  0  0
   25.2892  -20.4941  -10.2885 C   0  0  2  0  0  0  0  0  0  0  0  0
   25.8487  -20.9870  -11.4956 N   0  0  0  0  0  0  0  0  0  0  0  0
   26.1817  -20.6965   -9.1072 C   0  0  0  0  0  0  0  0  0  0  0  0
   26.2793  -19.8157   -8.0570 O   0  0  0  0  0  0  0  0  0  0  0  0
   26.8797  -21.7394   -9.0857 O   0  0  0  0  0  0  0  0  0  0  0  0
  1  2  1  0
  3  2  1  0
  3  4  1  0
  5  4  1  0
  5  6  1  6
  7  5  1  0
  8  7  2  0
 10  9  1  0
 11 13  1  0
 11 10  1  0
 11 12  1  1
 13 14  1  6
 14  7  1  0
 15 22  1  0
 15 13  1  0
 16 15  2  0
 18 19  1  0
 18 17  1  0
 19 20  1  1
 21 22  1  6
 21 19  1  0
 23 21  1  0
 23 24  1  0
 25 23  2  0
M  END
$$$$
