MII.pdb
     RDKit          3D

 25 24  0  0  1  0  0  0  0  0999 V2000
   20.0373  -19.5976   -9.8448 C   0  0  0  0  0  0  0  0  0  0  0  0
   19.7256  -19.6883  -11.6191 S   0  0  0  0  0  0  0  0  0  0  0  0
   21.2781  -19.9952  -12.5359 C   0  0  0  0  0  0  0  0  0  0  0  0
   22.3138  -20.6242  -11.5954 C   0  0  0  0  0  0  0  0  0  0  0  0
   23.6129  -20.7173  -12.3974 C   0  0  2  0  0  0  0  0  0  0  0  0
   23.3680  -21.6183  -13.4803 N   0  0  0  0  0  0  0  0  0  0  0  0
   24.7313  -21.1465  -11.5204 C   0  0  0  0  0  0  0  0  0  0  0  0
   24.8318  -22.3751  -11.2814 O   0  0  0  0  0  0  0  0  0  0  0  0
   30.2640  -21.7833  -11.0826 C   0  0  0  0  0  0  0  0  0  0  0  0
   29.2097  -21.2929  -10.0557 C   0  0  0  0  0  0  0  0  0  0  0  0
   28.0645  -20.7645  -10.8701 C   0  0  2  0  0  0  0  0  0  0  0  0
   28.4689  -19.3785  -11.3244 C   0  0  0  0  0  0  0  0  0  0  0  0
   26.7813  -20.7900  -10.1294 C   0  0  2  0  0  0  0  0  0  0  0  0
   25.6799  -20.2785  -10.9428 N   0  0  0  0  0  0  0  0  0  0  0  0
   26.8395  -20.0212   -8.8582 C   0  0  0  0  0  0  0  0  0  0  0  0
   26.4427  -18.8410   -8.7653 O   0  0  0  0  0  0  0  0  0  0  0  0
   28.2713  -20.3396   -2.8015 C   0  0  0  0  0  0  0  0  0  0  0  0
   27.7185  -19.7245   -4.0616 C   0  0  0  0  0  0  0  0  0  0  0  0
   27.8585  -20.6432   -5.2558 C   0  0  2  0  0  0  0  0  0  0  0  0
   29.2197  -21.2464   -5.3909 C   0  0  0  0  0  0  0  0  0  0  0  0
   27.4577  -19.8354   -6.4785 C   0  0  2  0  0  0  0  0  0  0  0  0
   27.3636  -20.6140   -7.6610 N   0  0  0  0  0  0  0  0  0  0  0  0
   28.3528  -18.6487   -6.6317 C   0  0  0  0  0  0  0  0  0  0  0  0
   29.4278  -18.6014   -7.4863 O   0  0  0  0  0  0  0  0  0  0  0  0
   28.0954  -17.6399   -5.9307 O   0  0  0  0  0  0  0  0  0  0  0  0
  1  2  1  0
  3  2  1  0
  3  4  1  0
  5  4  1  0
  5  6  1  6
  7  5  1  0
  8  7  2  0
 10  9  1  0
 11 13  1  0
 11 10  1  0
 11 12  1  1
 13 14  1  6
 14  7  1  0
 15 22  1  0
 15 13  1  0
 16 15  2  0
 18 19  1  0
 18 17  1  0
 19 20  1  6
 21 22  1  6
 21 19  1  0
 23 21  1  0
 23 24  1  0
 25 23  2  0
M  END
$$$$
