MII.pdb
     RDKit          3D

 25 24  0  0  1  0  0  0  0  0999 V2000
   18.4036  -16.4548  -20.9577 C   0  0  0  0  0  0  0  0  0  0  0  0
   18.7771  -15.1518  -19.7677 S   0  0  0  0  0  0  0  0  0  0  0  0
   20.3683  -15.4776  -18.9268 C   0  0  0  0  0  0  0  0  0  0  0  0
   20.6019  -14.4184  -17.8421 C   0  0  0  0  0  0  0  0  0  0  0  0
   21.9685  -14.7321  -17.2310 C   0  0  2  0  0  0  0  0  0  0  0  0
   21.8479  -15.9952  -16.5718 N   0  0  0  0  0  0  0  0  0  0  0  0
   22.3919  -13.6363  -16.3232 C   0  0  0  0  0  0  0  0  0  0  0  0
   21.9227  -13.6447  -15.1586 O   0  0  0  0  0  0  0  0  0  0  0  0
   27.3269  -11.8401  -15.6018 C   0  0  0  0  0  0  0  0  0  0  0  0
   25.8668  -12.3355  -15.4304 C   0  0  0  0  0  0  0  0  0  0  0  0
   24.9972  -11.1511  -15.7382 C   0  0  2  0  0  0  0  0  0  0  0  0
   25.3492  -10.0883  -14.7195 C   0  0  0  0  0  0  0  0  0  0  0  0
   23.5558  -11.4942  -15.7564 C   0  0  2  0  0  0  0  0  0  0  0  0
   23.2762  -12.5965  -16.6747 N   0  0  0  0  0  0  0  0  0  0  0  0
   22.6967  -10.3358  -16.1180 C   0  0  0  0  0  0  0  0  0  0  0  0
   22.7712   -9.7601  -17.2234 O   0  0  0  0  0  0  0  0  0  0  0  0
   17.6593  -10.5321  -16.3403 C   0  0  0  0  0  0  0  0  0  0  0  0
   19.0868  -10.0630  -16.4599 C   0  0  0  0  0  0  0  0  0  0  0  0
   19.4261   -8.9972  -15.4407 C   0  0  2  0  0  0  0  0  0  0  0  0
   18.6010   -7.7576  -15.5733 C   0  0  0  0  0  0  0  0  0  0  0  0
   20.9140   -8.7212  -15.5752 C   0  0  2  0  0  0  0  0  0  0  0  0
   21.7266   -9.8203  -15.1946 N   0  0  0  0  0  0  0  0  0  0  0  0
   21.2729   -7.4572  -14.8636 C   0  0  0  0  0  0  0  0  0  0  0  0
   21.8933   -7.4137  -13.6383 O   0  0  0  0  0  0  0  0  0  0  0  0
   20.9841   -6.3757  -15.4315 O   0  0  0  0  0  0  0  0  0  0  0  0
  1  2  1  0
  3  2  1  0
  3  4  1  0
  5  4  1  0
  5  6  1  1
  7  5  1  0
  8  7  2  0
 10  9  1  0
 11 13  1  0
 11 10  1  0
 11 12  1  1
 13 14  1  6
 14  7  1  0
 15 22  1  0
 15 13  1  0
 16 15  2  0
 18 19  1  0
 18 17  1  0
 19 20  1  6
 21 22  1  1
 21 19  1  0
 23 21  1  0
 23 24  1  0
 25 23  2  0
M  END
$$$$
