MII.pdb
     RDKit          3D

 25 24  0  0  1  0  0  0  0  0999 V2000
   17.2997  -16.7820  -20.9501 C   0  0  0  0  0  0  0  0  0  0  0  0
   17.5987  -15.7684  -19.4884 S   0  0  0  0  0  0  0  0  0  0  0  0
   19.2449  -16.1262  -18.7763 C   0  0  0  0  0  0  0  0  0  0  0  0
   19.5166  -15.1720  -17.6065 C   0  0  0  0  0  0  0  0  0  0  0  0
   20.8699  -15.5868  -17.0270 C   0  0  2  0  0  0  0  0  0  0  0  0
   20.6806  -16.8579  -16.4002 N   0  0  0  0  0  0  0  0  0  0  0  0
   21.3744  -14.5452  -16.0972 C   0  0  0  0  0  0  0  0  0  0  0  0
   20.8058  -14.4500  -14.9817 O   0  0  0  0  0  0  0  0  0  0  0  0
   25.7160  -14.4856  -15.6125 C   0  0  0  0  0  0  0  0  0  0  0  0
   24.8272  -13.7706  -14.5610 C   0  0  0  0  0  0  0  0  0  0  0  0
   24.2864  -12.5505  -15.2486 C   0  0  2  0  0  0  0  0  0  0  0  0
   24.7390  -11.3628  -14.4267 C   0  0  0  0  0  0  0  0  0  0  0  0
   22.8179  -12.6095  -15.4383 C   0  0  2  0  0  0  0  0  0  0  0  0
   22.4381  -13.6635  -16.3769 N   0  0  0  0  0  0  0  0  0  0  0  0
   22.2496  -11.3182  -15.9076 C   0  0  0  0  0  0  0  0  0  0  0  0
   22.4784  -10.8541  -17.0439 O   0  0  0  0  0  0  0  0  0  0  0  0
   17.4748  -10.2763  -16.7601 C   0  0  0  0  0  0  0  0  0  0  0  0
   18.9750  -10.1981  -16.6360 C   0  0  0  0  0  0  0  0  0  0  0  0
   19.4111   -9.1936  -15.5917 C   0  0  2  0  0  0  0  0  0  0  0  0
   18.9281   -7.8042  -15.8589 C   0  0  0  0  0  0  0  0  0  0  0  0
   20.9260   -9.2760  -15.5112 C   0  0  2  0  0  0  0  0  0  0  0  0
   21.3975  -10.5354  -15.0586 N   0  0  0  0  0  0  0  0  0  0  0  0
   21.4657   -8.1317  -14.7161 C   0  0  0  0  0  0  0  0  0  0  0  0
   21.9349   -8.2426  -13.4294 O   0  0  0  0  0  0  0  0  0  0  0  0
   21.4858   -7.0055  -15.2698 O   0  0  0  0  0  0  0  0  0  0  0  0
  1  2  1  0
  3  2  1  0
  3  4  1  0
  5  4  1  0
  5  6  1  1
  7  5  1  0
  8  7  2  0
 10  9  1  0
 11 13  1  0
 11 10  1  0
 11 12  1  1
 13 14  1  6
 14  7  1  0
 15 22  1  0
 15 13  1  0
 16 15  2  0
 18 19  1  0
 18 17  1  0
 19 20  1  6
 21 22  1  1
 21 19  1  0
 23 21  1  0
 23 24  1  0
 25 23  2  0
M  END
$$$$
