MII.pdb
     RDKit          3D

 25 24  0  0  1  0  0  0  0  0999 V2000
   15.0288  -13.9372  -21.5792 C   0  0  0  0  0  0  0  0  0  0  0  0
   15.7817  -12.9365  -20.2810 S   0  0  0  0  0  0  0  0  0  0  0  0
   16.9743  -13.9253  -19.3088 C   0  0  0  0  0  0  0  0  0  0  0  0
   17.5029  -13.0864  -18.1385 C   0  0  0  0  0  0  0  0  0  0  0  0
   18.6231  -13.9089  -17.4997 C   0  0  2  0  0  0  0  0  0  0  0  0
   18.0044  -15.0341  -16.8706 N   0  0  0  0  0  0  0  0  0  0  0  0
   19.4071  -13.0702  -16.5585 C   0  0  0  0  0  0  0  0  0  0  0  0
   18.8600  -12.7682  -15.4694 O   0  0  0  0  0  0  0  0  0  0  0  0
   24.3924  -14.1244  -15.2251 C   0  0  0  0  0  0  0  0  0  0  0  0
   22.8838  -13.7676  -15.2831 C   0  0  0  0  0  0  0  0  0  0  0  0
   22.8246  -12.3070  -15.6253 C   0  0  2  0  0  0  0  0  0  0  0  0
   23.5877  -11.5834  -14.5367 C   0  0  0  0  0  0  0  0  0  0  0  0
   21.4357  -11.8190  -15.7943 C   0  0  2  0  0  0  0  0  0  0  0  0
   20.7114  -12.5936  -16.8002 N   0  0  0  0  0  0  0  0  0  0  0  0
   21.3760  -10.3790  -16.1595 C   0  0  0  0  0  0  0  0  0  0  0  0
   21.9662   -9.9109  -17.1552 O   0  0  0  0  0  0  0  0  0  0  0  0
   17.1793   -7.7646  -17.2288 C   0  0  0  0  0  0  0  0  0  0  0  0
   18.5959   -8.2238  -16.9957 C   0  0  0  0  0  0  0  0  0  0  0  0
   19.2659   -7.4642  -15.8715 C   0  0  2  0  0  0  0  0  0  0  0  0
   19.3117   -5.9861  -16.0915 C   0  0  0  0  0  0  0  0  0  0  0  0
   20.6491   -8.0684  -15.6987 C   0  0  2  0  0  0  0  0  0  0  0  0
   20.6229   -9.4481  -15.3685 N   0  0  0  0  0  0  0  0  0  0  0  0
   21.4538   -7.2544  -14.7382 C   0  0  0  0  0  0  0  0  0  0  0  0
   22.1660   -6.1327  -15.0888 O   0  0  0  0  0  0  0  0  0  0  0  0
   21.4717   -7.6294  -13.5406 O   0  0  0  0  0  0  0  0  0  0  0  0
  1  2  1  0
  3  2  1  0
  3  4  1  0
  5  4  1  0
  5  6  1  1
  7  5  1  0
  8  7  2  0
 10  9  1  0
 11 13  1  0
 11 10  1  0
 11 12  1  1
 13 14  1  6
 14  7  1  0
 15 22  1  0
 15 13  1  0
 16 15  2  0
 18 19  1  0
 18 17  1  0
 19 20  1  6
 21 22  1  1
 21 19  1  0
 23 21  1  0
 23 24  1  0
 25 23  2  0
M  END
$$$$
