MII.pdb
     RDKit          3D

 25 24  0  0  1  0  0  0  0  0999 V2000
   19.4729  -15.9612  -12.5122 C   0  0  0  0  0  0  0  0  0  0  0  0
   18.5524  -17.2135  -13.4276 S   0  0  0  0  0  0  0  0  0  0  0  0
   17.9334  -16.5365  -15.0099 C   0  0  0  0  0  0  0  0  0  0  0  0
   18.6058  -15.1864  -15.2887 C   0  0  0  0  0  0  0  0  0  0  0  0
   17.9775  -14.6586  -16.5794 C   0  0  2  0  0  0  0  0  0  0  0  0
   18.3865  -15.5385  -17.6297 N   0  0  0  0  0  0  0  0  0  0  0  0
   18.3777  -13.2475  -16.8090 C   0  0  0  0  0  0  0  0  0  0  0  0
   19.4557  -13.0510  -17.4222 O   0  0  0  0  0  0  0  0  0  0  0  0
   14.7896   -9.7641  -18.0108 C   0  0  0  0  0  0  0  0  0  0  0  0
   16.2678  -10.1829  -18.2250 C   0  0  0  0  0  0  0  0  0  0  0  0
   16.9750   -9.8466  -16.9442 C   0  0  2  0  0  0  0  0  0  0  0  0
   17.3931   -8.3963  -17.0568 C   0  0  0  0  0  0  0  0  0  0  0  0
   18.1037  -10.7640  -16.6607 C   0  0  2  0  0  0  0  0  0  0  0  0
   17.6382  -12.1229  -16.3903 N   0  0  0  0  0  0  0  0  0  0  0  0
   18.9411  -10.3055  -15.5210 C   0  0  0  0  0  0  0  0  0  0  0  0
   18.5232  -10.2801  -14.3447 O   0  0  0  0  0  0  0  0  0  0  0  0
   23.6135  -12.1531  -14.7680 C   0  0  0  0  0  0  0  0  0  0  0  0
   22.2844  -11.4420  -14.7766 C   0  0  0  0  0  0  0  0  0  0  0  0
   22.4284   -9.9572  -14.5226 C   0  0  2  0  0  0  0  0  0  0  0  0
   23.0885   -9.6337  -13.2208 C   0  0  0  0  0  0  0  0  0  0  0  0
   21.0367   -9.3577  -14.6324 C   0  0  2  0  0  0  0  0  0  0  0  0
   20.2909   -9.8644  -15.7280 N   0  0  0  0  0  0  0  0  0  0  0  0
   21.1129   -7.8654  -14.6197 C   0  0  0  0  0  0  0  0  0  0  0  0
   21.0340   -7.1009  -13.4806 O   0  0  0  0  0  0  0  0  0  0  0  0
   21.2580   -7.2875  -15.7243 O   0  0  0  0  0  0  0  0  0  0  0  0
  1  2  1  0
  3  2  1  0
  3  4  1  0
  5  4  1  0
  5  6  1  6
  7  5  1  0
  8  7  2  0
 10  9  1  0
 11 13  1  0
 11 10  1  0
 11 12  1  6
 13 14  1  1
 14  7  1  0
 15 22  1  0
 15 13  1  0
 16 15  2  0
 18 19  1  0
 18 17  1  0
 19 20  1  1
 21 22  1  6
 21 19  1  0
 23 21  1  0
 23 24  1  0
 25 23  2  0
M  END
$$$$
