MII.pdb
     RDKit          3D

 25 24  0  0  1  0  0  0  0  0999 V2000
   26.4348  -18.2882  -18.7942 C   0  0  0  0  0  0  0  0  0  0  0  0
   27.9269  -17.7473  -17.9372 S   0  0  0  0  0  0  0  0  0  0  0  0
   28.4713  -19.0046  -16.7256 C   0  0  0  0  0  0  0  0  0  0  0  0
   27.2445  -19.6426  -16.0616 C   0  0  0  0  0  0  0  0  0  0  0  0
   27.7863  -20.5666  -14.9699 C   0  0  2  0  0  0  0  0  0  0  0  0
   28.4802  -21.6276  -15.6312 N   0  0  0  0  0  0  0  0  0  0  0  0
   26.6807  -21.0427  -14.1009 C   0  0  0  0  0  0  0  0  0  0  0  0
   26.0716  -22.0784  -14.4657 O   0  0  0  0  0  0  0  0  0  0  0  0
   26.6307  -20.4220   -8.6612 C   0  0  0  0  0  0  0  0  0  0  0  0
   26.5520  -21.0875  -10.0603 C   0  0  0  0  0  0  0  0  0  0  0  0
   25.2866  -20.5739  -10.6838 C   0  0  2  0  0  0  0  0  0  0  0  0
   24.1502  -21.0892   -9.8272 C   0  0  0  0  0  0  0  0  0  0  0  0
   25.1640  -20.9495  -12.1120 C   0  0  2  0  0  0  0  0  0  0  0  0
   26.2708  -20.4185  -12.9054 N   0  0  0  0  0  0  0  0  0  0  0  0
   23.8806  -20.5002  -12.7134 C   0  0  0  0  0  0  0  0  0  0  0  0
   23.6208  -19.2979  -12.9275 O   0  0  0  0  0  0  0  0  0  0  0  0
   20.3132  -20.1860  -16.7576 C   0  0  0  0  0  0  0  0  0  0  0  0
   20.0962  -21.0571  -15.5467 C   0  0  0  0  0  0  0  0  0  0  0  0
   21.3884  -21.6519  -15.0309 C   0  0  2  0  0  0  0  0  0  0  0  0
   21.3649  -23.1437  -14.9357 C   0  0  0  0  0  0  0  0  0  0  0  0
   21.6716  -20.9894  -13.6933 C   0  0  2  0  0  0  0  0  0  0  0  0
   22.8668  -21.4471  -13.0807 N   0  0  0  0  0  0  0  0  0  0  0  0
   20.4796  -21.0981  -12.7986 C   0  0  0  0  0  0  0  0  0  0  0  0
   19.4042  -20.2439  -12.8429 O   0  0  0  0  0  0  0  0  0  0  0  0
   20.4734  -22.0317  -11.9597 O   0  0  0  0  0  0  0  0  0  0  0  0
  1  2  1  0
  3  2  1  0
  3  4  1  0
  5  4  1  0
  5  6  1  6
  7  5  1  0
  8  7  2  0
 10  9  1  0
 11 13  1  0
 11 10  1  0
 11 12  1  1
 13 14  1  6
 14  7  1  0
 15 22  1  0
 15 13  1  0
 16 15  2  0
 18 19  1  0
 18 17  1  0
 19 20  1  1
 21 22  1  1
 21 19  1  0
 23 21  1  0
 23 24  1  0
 25 23  2  0
M  END
$$$$
