MII.pdb
     RDKit          3D

 25 24  0  0  1  0  0  0  0  0999 V2000
   18.4745  -19.0255  -14.3535 C   0  0  0  0  0  0  0  0  0  0  0  0
   18.7958  -17.3171  -14.8347 S   0  0  0  0  0  0  0  0  0  0  0  0
   20.0563  -17.2417  -16.1578 C   0  0  0  0  0  0  0  0  0  0  0  0
   21.2249  -18.1713  -15.8069 C   0  0  0  0  0  0  0  0  0  0  0  0
   22.2127  -18.0675  -16.9700 C   0  0  2  0  0  0  0  0  0  0  0  0
   21.5799  -18.6626  -18.1059 N   0  0  0  0  0  0  0  0  0  0  0  0
   23.5008  -18.7134  -16.6126 C   0  0  0  0  0  0  0  0  0  0  0  0
   23.5191  -19.9682  -16.5692 O   0  0  0  0  0  0  0  0  0  0  0  0
   28.3535  -17.5366  -18.6002 C   0  0  0  0  0  0  0  0  0  0  0  0
   27.0786  -18.2610  -18.0937 C   0  0  0  0  0  0  0  0  0  0  0  0
   27.1103  -18.1407  -16.5976 C   0  0  2  0  0  0  0  0  0  0  0  0
   28.4115  -18.7693  -16.1475 C   0  0  0  0  0  0  0  0  0  0  0  0
   25.9155  -18.7363  -15.9544 C   0  0  2  0  0  0  0  0  0  0  0  0
   24.6942  -18.0221  -16.3212 N   0  0  0  0  0  0  0  0  0  0  0  0
   26.0241  -18.7762  -14.4721 C   0  0  0  0  0  0  0  0  0  0  0  0
   26.0822  -17.7439  -13.7723 O   0  0  0  0  0  0  0  0  0  0  0  0
   24.9488  -20.6408   -8.9881 C   0  0  0  0  0  0  0  0  0  0  0  0
   25.9262  -20.2174  -10.0546 C   0  0  0  0  0  0  0  0  0  0  0  0
   25.3980  -20.4741  -11.4492 C   0  0  2  0  0  0  0  0  0  0  0  0
   24.9515  -21.8836  -11.6704 C   0  0  0  0  0  0  0  0  0  0  0  0
   26.4922  -20.0534  -12.4156 C   0  0  2  0  0  0  0  0  0  0  0  0
   26.0673  -20.0266  -13.7692 N   0  0  0  0  0  0  0  0  0  0  0  0
   27.7165  -20.8839  -12.2055 C   0  0  0  0  0  0  0  0  0  0  0  0
   28.2681  -21.6977  -13.1655 O   0  0  0  0  0  0  0  0  0  0  0  0
   28.2648  -20.8250  -11.0780 O   0  0  0  0  0  0  0  0  0  0  0  0
  1  2  1  0
  3  2  1  0
  3  4  1  0
  5  4  1  0
  5  6  1  6
  7  5  1  0
  8  7  2  0
 10  9  1  0
 11 13  1  0
 11 10  1  0
 11 12  1  1
 13 14  1  1
 14  7  1  0
 15 22  1  0
 15 13  1  0
 16 15  2  0
 18 19  1  0
 18 17  1  0
 19 20  1  1
 21 22  1  6
 21 19  1  0
 23 21  1  0
 23 24  1  0
 25 23  2  0
M  END
$$$$
