MII.pdb
     RDKit          3D

 25 24  0  0  1  0  0  0  0  0999 V2000
   18.8672  -19.2807   -9.6613 C   0  0  0  0  0  0  0  0  0  0  0  0
   17.5274  -18.6568  -10.6954 S   0  0  0  0  0  0  0  0  0  0  0  0
   17.6522  -19.3264  -12.3928 C   0  0  0  0  0  0  0  0  0  0  0  0
   19.0170  -20.0013  -12.5793 C   0  0  0  0  0  0  0  0  0  0  0  0
   19.0793  -20.4327  -14.0454 C   0  0  2  0  0  0  0  0  0  0  0  0
   18.1071  -21.4674  -14.2149 N   0  0  0  0  0  0  0  0  0  0  0  0
   20.4563  -20.8599  -14.3997 C   0  0  0  0  0  0  0  0  0  0  0  0
   20.7691  -22.0496  -14.1474 O   0  0  0  0  0  0  0  0  0  0  0  0
   21.1063  -20.1386  -18.0816 C   0  0  0  0  0  0  0  0  0  0  0  0
   22.4139  -20.9211  -17.7912 C   0  0  0  0  0  0  0  0  0  0  0  0
   23.1309  -20.1352  -16.7319 C   0  0  2  0  0  0  0  0  0  0  0  0
   24.6098  -20.2918  -17.0132 C   0  0  0  0  0  0  0  0  0  0  0  0
   22.7458  -20.5463  -15.3612 C   0  0  2  0  0  0  0  0  0  0  0  0
   21.4284  -20.0303  -14.9944 N   0  0  0  0  0  0  0  0  0  0  0  0
   23.7341  -20.1173  -14.3366 C   0  0  0  0  0  0  0  0  0  0  0  0
   23.9142  -18.9196  -14.0334 O   0  0  0  0  0  0  0  0  0  0  0  0
   23.8001  -21.2761   -9.4885 C   0  0  0  0  0  0  0  0  0  0  0  0
   24.1018  -20.7187  -10.8562 C   0  0  0  0  0  0  0  0  0  0  0  0
   25.4597  -21.1523  -11.3639 C   0  0  2  0  0  0  0  0  0  0  0  0
   26.5932  -20.7090  -10.4957 C   0  0  0  0  0  0  0  0  0  0  0  0
   25.5809  -20.6332  -12.7866 C   0  0  2  0  0  0  0  0  0  0  0  0
   24.5382  -21.0797  -13.6390 N   0  0  0  0  0  0  0  0  0  0  0  0
   26.9423  -20.9235  -13.3299 C   0  0  0  0  0  0  0  0  0  0  0  0
   28.0273  -20.0956  -13.1693 O   0  0  0  0  0  0  0  0  0  0  0  0
   27.0900  -21.9929  -13.9702 O   0  0  0  0  0  0  0  0  0  0  0  0
  1  2  1  0
  3  2  1  0
  3  4  1  0
  5  4  1  0
  5  6  1  1
  7  5  1  0
  8  7  2  0
 10  9  1  0
 11 13  1  0
 11 10  1  0
 11 12  1  1
 13 14  1  1
 14  7  1  0
 15 22  1  0
 15 13  1  0
 16 15  2  0
 18 19  1  0
 18 17  1  0
 19 20  1  1
 21 22  1  6
 21 19  1  0
 23 21  1  0
 23 24  1  0
 25 23  2  0
M  END
$$$$
