MII.pdb
     RDKit          3D

 25 24  0  0  1  0  0  0  0  0999 V2000
   24.8878  -19.7204  -19.7737 C   0  0  0  0  0  0  0  0  0  0  0  0
   26.5349  -18.9870  -19.8253 S   0  0  0  0  0  0  0  0  0  0  0  0
   27.6133  -19.7231  -18.5446 C   0  0  0  0  0  0  0  0  0  0  0  0
   26.7549  -20.4820  -17.5248 C   0  0  0  0  0  0  0  0  0  0  0  0
   27.7065  -20.9144  -16.4083 C   0  0  2  0  0  0  0  0  0  0  0  0
   28.5755  -21.9045  -16.9642 N   0  0  0  0  0  0  0  0  0  0  0  0
   26.9383  -21.4022  -15.2353 C   0  0  0  0  0  0  0  0  0  0  0  0
   26.5304  -22.5892  -15.2719 O   0  0  0  0  0  0  0  0  0  0  0  0
   28.5470  -21.0989  -10.2958 C   0  0  0  0  0  0  0  0  0  0  0  0
   27.9313  -21.5568  -11.6441 C   0  0  0  0  0  0  0  0  0  0  0  0
   26.5523  -20.9646  -11.6829 C   0  0  2  0  0  0  0  0  0  0  0  0
   25.8050  -21.5481  -10.5031 C   0  0  0  0  0  0  0  0  0  0  0  0
   25.8730  -21.1914  -12.9802 C   0  0  2  0  0  0  0  0  0  0  0  0
   26.6377  -20.6324  -14.0934 N   0  0  0  0  0  0  0  0  0  0  0  0
   24.4965  -20.6302  -13.0108 C   0  0  0  0  0  0  0  0  0  0  0  0
   24.2421  -19.4504  -12.6911 O   0  0  0  0  0  0  0  0  0  0  0  0
   21.5665  -21.1677  -17.1915 C   0  0  0  0  0  0  0  0  0  0  0  0
   22.1855  -20.8091  -15.8648 C   0  0  0  0  0  0  0  0  0  0  0  0
   21.2999  -21.1904  -14.6985 C   0  0  2  0  0  0  0  0  0  0  0  0
   19.9584  -20.5313  -14.7248 C   0  0  0  0  0  0  0  0  0  0  0  0
   22.0794  -20.8699  -13.4344 C   0  0  2  0  0  0  0  0  0  0  0  0
   23.3805  -21.4357  -13.4172 N   0  0  0  0  0  0  0  0  0  0  0  0
   21.2744  -21.2228  -12.2259 C   0  0  0  0  0  0  0  0  0  0  0  0
   20.4464  -20.3441  -11.5697 O   0  0  0  0  0  0  0  0  0  0  0  0
   21.3697  -22.3975  -11.7943 O   0  0  0  0  0  0  0  0  0  0  0  0
  1  2  1  0
  3  2  1  0
  3  4  1  0
  5  4  1  0
  5  6  1  6
  7  5  1  0
  8  7  2  0
 10  9  1  0
 11 13  1  0
 11 10  1  0
 11 12  1  1
 13 14  1  6
 14  7  1  0
 15 22  1  0
 15 13  1  0
 16 15  2  0
 18 19  1  0
 18 17  1  0
 19 20  1  1
 21 22  1  6
 21 19  1  0
 23 21  1  0
 23 24  1  0
 25 23  2  0
M  END
$$$$
