MII.pdb
     RDKit          3D

 25 24  0  0  1  0  0  0  0  0999 V2000
   18.8798  -21.5330  -11.7128 C   0  0  0  0  0  0  0  0  0  0  0  0
   19.4100  -20.6045  -13.1655 S   0  0  0  0  0  0  0  0  0  0  0  0
   20.8914  -19.6003  -12.7887 C   0  0  0  0  0  0  0  0  0  0  0  0
   21.8293  -20.3937  -11.8702 C   0  0  0  0  0  0  0  0  0  0  0  0
   23.1832  -20.4347  -12.5806 C   0  0  2  0  0  0  0  0  0  0  0  0
   23.0261  -21.2788  -13.7240 N   0  0  0  0  0  0  0  0  0  0  0  0
   24.2409  -20.9017  -11.6494 C   0  0  0  0  0  0  0  0  0  0  0  0
   24.1963  -22.1039  -11.2894 O   0  0  0  0  0  0  0  0  0  0  0  0
   29.0720  -21.2106  -12.9553 C   0  0  0  0  0  0  0  0  0  0  0  0
   27.6483  -21.3653  -12.3588 C   0  0  0  0  0  0  0  0  0  0  0  0
   27.6635  -20.5998  -11.0675 C   0  0  2  0  0  0  0  0  0  0  0  0
   28.8244  -21.1445  -10.2634 C   0  0  0  0  0  0  0  0  0  0  0  0
   26.3681  -20.6683  -10.3512 C   0  0  2  0  0  0  0  0  0  0  0  0
   25.2826  -20.0966  -11.1458 N   0  0  0  0  0  0  0  0  0  0  0  0
   26.4085  -19.9877   -9.0299 C   0  0  0  0  0  0  0  0  0  0  0  0
   26.0567  -18.8002   -8.8720 O   0  0  0  0  0  0  0  0  0  0  0  0
   27.9176  -20.6733   -3.0218 C   0  0  0  0  0  0  0  0  0  0  0  0
   27.3065  -19.9960   -4.2218 C   0  0  0  0  0  0  0  0  0  0  0  0
   27.3735  -20.8601   -5.4623 C   0  0  2  0  0  0  0  0  0  0  0  0
   28.6965  -21.5292   -5.6552 C   0  0  0  0  0  0  0  0  0  0  0  0
   26.9961  -19.9714   -6.6353 C   0  0  2  0  0  0  0  0  0  0  0  0
   26.8619  -20.6799   -7.8573 N   0  0  0  0  0  0  0  0  0  0  0  0
   27.9369  -18.8145   -6.7326 C   0  0  0  0  0  0  0  0  0  0  0  0
   29.0061  -18.7630   -7.5942 O   0  0  0  0  0  0  0  0  0  0  0  0
   27.7259  -17.8363   -5.9750 O   0  0  0  0  0  0  0  0  0  0  0  0
  1  2  1  0
  3  2  1  0
  3  4  1  0
  5  4  1  0
  5  6  1  6
  7  5  1  0
  8  7  2  0
 10  9  1  0
 11 13  1  0
 11 10  1  0
 11 12  1  1
 13 14  1  6
 14  7  1  0
 15 22  1  0
 15 13  1  0
 16 15  2  0
 18 19  1  0
 18 17  1  0
 19 20  1  6
 21 22  1  6
 21 19  1  0
 23 21  1  0
 23 24  1  0
 25 23  2  0
M  END
$$$$
