MII.pdb
     RDKit          3D

 25 24  0  0  1  0  0  0  0  0999 V2000
   26.8427  -16.6288  -16.6433 C   0  0  0  0  0  0  0  0  0  0  0  0
   28.4138  -17.3560  -17.1499 S   0  0  0  0  0  0  0  0  0  0  0  0
   28.8621  -18.7554  -16.0611 C   0  0  0  0  0  0  0  0  0  0  0  0
   27.5873  -19.3996  -15.5019 C   0  0  0  0  0  0  0  0  0  0  0  0
   28.0506  -20.5635  -14.6244 C   0  0  2  0  0  0  0  0  0  0  0  0
   28.6156  -21.5432  -15.4993 N   0  0  0  0  0  0  0  0  0  0  0  0
   26.9187  -21.0835  -13.8166 C   0  0  0  0  0  0  0  0  0  0  0  0
   26.2626  -22.0391  -14.2995 O   0  0  0  0  0  0  0  0  0  0  0  0
   26.5459  -20.7751   -8.2994 C   0  0  0  0  0  0  0  0  0  0  0  0
   26.5797  -21.3346   -9.7459 C   0  0  0  0  0  0  0  0  0  0  0  0
   25.3662  -20.7720  -10.4276 C   0  0  2  0  0  0  0  0  0  0  0  0
   24.1678  -21.3094   -9.6754 C   0  0  0  0  0  0  0  0  0  0  0  0
   25.3363  -21.0773  -11.8773 C   0  0  2  0  0  0  0  0  0  0  0  0
   26.5327  -20.5836  -12.5564 N   0  0  0  0  0  0  0  0  0  0  0  0
   24.1342  -20.5225  -12.5540 C   0  0  0  0  0  0  0  0  0  0  0  0
   23.8710  -19.3021  -12.5672 O   0  0  0  0  0  0  0  0  0  0  0  0
   23.0454  -21.7594  -17.4290 C   0  0  0  0  0  0  0  0  0  0  0  0
   23.1458  -21.2519  -16.0133 C   0  0  0  0  0  0  0  0  0  0  0  0
   21.8336  -21.3694  -15.2689 C   0  0  2  0  0  0  0  0  0  0  0  0
   20.6911  -20.6964  -15.9596 C   0  0  0  0  0  0  0  0  0  0  0  0
   22.0722  -20.8205  -13.8725 C   0  0  2  0  0  0  0  0  0  0  0  0
   23.2079  -21.3822  -13.2338 N   0  0  0  0  0  0  0  0  0  0  0  0
   20.8279  -20.9317  -13.0525 C   0  0  0  0  0  0  0  0  0  0  0  0
   19.8281  -19.9892  -13.0401 O   0  0  0  0  0  0  0  0  0  0  0  0
   20.7011  -21.9541  -12.3355 O   0  0  0  0  0  0  0  0  0  0  0  0
  1  2  1  0
  3  2  1  0
  3  4  1  0
  5  4  1  0
  5  6  1  6
  7  5  1  0
  8  7  2  0
 10  9  1  0
 11 13  1  0
 11 10  1  0
 11 12  1  1
 13 14  1  6
 14  7  1  0
 15 22  1  0
 15 13  1  0
 16 15  2  0
 18 19  1  0
 18 17  1  0
 19 20  1  6
 21 22  1  1
 21 19  1  0
 23 21  1  0
 23 24  1  0
 25 23  2  0
M  END
$$$$
