MII.pdb
     RDKit          3D

 25 24  0  0  1  0  0  0  0  0999 V2000
   28.1334  -18.0327   -5.1668 C   0  0  0  0  0  0  0  0  0  0  0  0
   28.0003  -19.8238   -5.0008 S   0  0  0  0  0  0  0  0  0  0  0  0
   28.4050  -20.6537   -6.5795 C   0  0  0  0  0  0  0  0  0  0  0  0
   27.7493  -19.8957   -7.7407 C   0  0  0  0  0  0  0  0  0  0  0  0
   27.1940  -20.9640   -8.6840 C   0  0  2  0  0  0  0  0  0  0  0  0
   28.2934  -21.7973   -9.0599 N   0  0  0  0  0  0  0  0  0  0  0  0
   26.5184  -20.3284   -9.8432 C   0  0  0  0  0  0  0  0  0  0  0  0
   25.5859  -19.5257   -9.5924 O   0  0  0  0  0  0  0  0  0  0  0  0
   27.4816  -17.6069  -14.8409 C   0  0  0  0  0  0  0  0  0  0  0  0
   26.4949  -18.7520  -14.4919 C   0  0  0  0  0  0  0  0  0  0  0  0
   27.1411  -19.5184  -13.3744 C   0  0  2  0  0  0  0  0  0  0  0  0
   27.7490  -20.7545  -14.0016 C   0  0  0  0  0  0  0  0  0  0  0  0
   26.1970  -19.8212  -12.2730 C   0  0  2  0  0  0  0  0  0  0  0  0
   26.8481  -20.5611  -11.1938 N   0  0  0  0  0  0  0  0  0  0  0  0
   25.0079  -20.5861  -12.7331 C   0  0  0  0  0  0  0  0  0  0  0  0
   25.0342  -21.8186  -12.9306 O   0  0  0  0  0  0  0  0  0  0  0  0
   20.9385  -20.8406   -9.9288 C   0  0  0  0  0  0  0  0  0  0  0  0
   21.9721  -21.0086  -11.0130 C   0  0  0  0  0  0  0  0  0  0  0  0
   21.4618  -20.5586  -12.3646 C   0  0  2  0  0  0  0  0  0  0  0  0
   20.2424  -21.2942  -12.8196 C   0  0  0  0  0  0  0  0  0  0  0  0
   22.6202  -20.6973  -13.3379 C   0  0  2  0  0  0  0  0  0  0  0  0
   23.7556  -19.9280  -12.9741 N   0  0  0  0  0  0  0  0  0  0  0  0
   22.1587  -20.4310  -14.7339 C   0  0  0  0  0  0  0  0  0  0  0  0
   21.9520  -21.4100  -15.6757 O   0  0  0  0  0  0  0  0  0  0  0  0
   21.9508  -19.2349  -15.0526 O   0  0  0  0  0  0  0  0  0  0  0  0
  1  2  1  0
  3  2  1  0
  3  4  1  0
  5  4  1  0
  5  6  1  6
  7  5  1  0
  8  7  2  0
 10  9  1  0
 11 13  1  0
 11 10  1  0
 11 12  1  6
 13 14  1  1
 14  7  1  0
 15 22  1  0
 15 13  1  0
 16 15  2  0
 18 19  1  0
 18 17  1  0
 19 20  1  6
 21 22  1  1
 21 19  1  0
 23 21  1  0
 23 24  1  0
 25 23  2  0
M  END
$$$$
