MII.pdb
     RDKit          3D

 25 24  0  0  1  0  0  0  0  0999 V2000
   27.2768  -18.5200  -18.0942 C   0  0  0  0  0  0  0  0  0  0  0  0
   28.4579  -19.3048  -19.2089 S   0  0  0  0  0  0  0  0  0  0  0  0
   29.5497  -20.4521  -18.2941 C   0  0  0  0  0  0  0  0  0  0  0  0
   28.8436  -20.9241  -17.0168 C   0  0  0  0  0  0  0  0  0  0  0  0
   29.8688  -21.7614  -16.2507 C   0  0  2  0  0  0  0  0  0  0  0  0
   30.0631  -22.9649  -16.9980 N   0  0  0  0  0  0  0  0  0  0  0  0
   29.4032  -22.0038  -14.8619 C   0  0  0  0  0  0  0  0  0  0  0  0
   28.5820  -22.9377  -14.6885 O   0  0  0  0  0  0  0  0  0  0  0  0
   32.6413  -22.0261  -10.5748 C   0  0  0  0  0  0  0  0  0  0  0  0
   31.5323  -22.4403  -11.5774 C   0  0  0  0  0  0  0  0  0  0  0  0
   30.4192  -21.4518  -11.3832 C   0  0  2  0  0  0  0  0  0  0  0  0
   29.9361  -21.6289   -9.9597 C   0  0  0  0  0  0  0  0  0  0  0  0
   29.3444  -21.6012  -12.3923 C   0  0  2  0  0  0  0  0  0  0  0  0
   29.8154  -21.2649  -13.7344 N   0  0  0  0  0  0  0  0  0  0  0  0
   28.1481  -20.7753  -12.0801 C   0  0  0  0  0  0  0  0  0  0  0  0
   28.1511  -19.5289  -12.1547 O   0  0  0  0  0  0  0  0  0  0  0  0
   22.4338  -19.9476  -13.1893 C   0  0  0  0  0  0  0  0  0  0  0  0
   23.6026  -19.7902  -12.2506 C   0  0  0  0  0  0  0  0  0  0  0  0
   24.6413  -20.8735  -12.4435 C   0  0  2  0  0  0  0  0  0  0  0  0
   24.0988  -22.2578  -12.2874 C   0  0  0  0  0  0  0  0  0  0  0  0
   25.7678  -20.5781  -11.4679 C   0  0  2  0  0  0  0  0  0  0  0  0
   26.9156  -21.3869  -11.6724 N   0  0  0  0  0  0  0  0  0  0  0  0
   25.2625  -20.6281  -10.0625 C   0  0  0  0  0  0  0  0  0  0  0  0
   24.5505  -19.6163   -9.4646 O   0  0  0  0  0  0  0  0  0  0  0  0
   25.5108  -21.6639   -9.3986 O   0  0  0  0  0  0  0  0  0  0  0  0
  1  2  1  0
  3  2  1  0
  3  4  1  0
  5  4  1  0
  5  6  1  6
  7  5  1  0
  8  7  2  0
 10  9  1  0
 11 13  1  0
 11 10  1  0
 11 12  1  1
 13 14  1  6
 14  7  1  0
 15 22  1  0
 15 13  1  0
 16 15  2  0
 18 19  1  0
 18 17  1  0
 19 20  1  1
 21 22  1  1
 21 19  1  0
 23 21  1  0
 23 24  1  0
 25 23  2  0
M  END
$$$$
