MII.pdb
     RDKit          3D

 25 24  0  0  1  0  0  0  0  0999 V2000
   24.1186  -17.7297  -17.6846 C   0  0  0  0  0  0  0  0  0  0  0  0
   25.6187  -17.3814  -18.6236 S   0  0  0  0  0  0  0  0  0  0  0  0
   27.0767  -18.1414  -17.8227 C   0  0  0  0  0  0  0  0  0  0  0  0
   26.6297  -19.3353  -16.9696 C   0  0  0  0  0  0  0  0  0  0  0  0
   27.8809  -19.8270  -16.2404 C   0  0  2  0  0  0  0  0  0  0  0  0
   28.6297  -20.6035  -17.1790 N   0  0  0  0  0  0  0  0  0  0  0  0
   27.5034  -20.5865  -15.0219 C   0  0  0  0  0  0  0  0  0  0  0  0
   27.2300  -21.8033  -15.1679 O   0  0  0  0  0  0  0  0  0  0  0  0
   30.1806  -20.9989  -10.6022 C   0  0  0  0  0  0  0  0  0  0  0  0
   29.2720  -21.3065  -11.8214 C   0  0  0  0  0  0  0  0  0  0  0  0
   27.9121  -20.7858  -11.4562 C   0  0  2  0  0  0  0  0  0  0  0  0
   27.4579  -21.5870  -10.2551 C   0  0  0  0  0  0  0  0  0  0  0  0
   26.9608  -20.8366  -12.5913 C   0  0  2  0  0  0  0  0  0  0  0  0
   27.4311  -20.0414  -13.7239 N   0  0  0  0  0  0  0  0  0  0  0  0
   25.5967  -20.3802  -12.2151 C   0  0  0  0  0  0  0  0  0  0  0  0
   25.3619  -19.2252  -11.8030 O   0  0  0  0  0  0  0  0  0  0  0  0
   21.2533  -18.6266  -14.9889 C   0  0  0  0  0  0  0  0  0  0  0  0
   21.5892  -19.3706  -13.7217 C   0  0  0  0  0  0  0  0  0  0  0  0
   22.9371  -20.0538  -13.7996 C   0  0  2  0  0  0  0  0  0  0  0  0
   23.0582  -21.0109  -14.9417 C   0  0  0  0  0  0  0  0  0  0  0  0
   23.1668  -20.7227  -12.4550 C   0  0  2  0  0  0  0  0  0  0  0  0
   24.4704  -21.2642  -12.3115 N   0  0  0  0  0  0  0  0  0  0  0  0
   22.0881  -21.7200  -12.1814 C   0  0  0  0  0  0  0  0  0  0  0  0
   20.8796  -21.4078  -11.6068 O   0  0  0  0  0  0  0  0  0  0  0  0
   22.3130  -22.9127  -12.5012 O   0  0  0  0  0  0  0  0  0  0  0  0
  1  2  1  0
  3  2  1  0
  3  4  1  0
  5  4  1  0
  5  6  1  6
  7  5  1  0
  8  7  2  0
 10  9  1  0
 11 13  1  0
 11 10  1  0
 11 12  1  1
 13 14  1  6
 14  7  1  0
 15 22  1  0
 15 13  1  0
 16 15  2  0
 18 19  1  0
 18 17  1  0
 19 20  1  6
 21 22  1  6
 21 19  1  0
 23 21  1  0
 23 24  1  0
 25 23  2  0
M  END
$$$$
