MII.pdb
     RDKit          3D

 25 24  0  0  1  0  0  0  0  0999 V2000
   18.9902  -22.0828  -11.2335 C   0  0  0  0  0  0  0  0  0  0  0  0
   19.1276  -20.5251  -12.1325 S   0  0  0  0  0  0  0  0  0  0  0  0
   20.6284  -20.5092  -13.1776 C   0  0  0  0  0  0  0  0  0  0  0  0
   21.7814  -21.1914  -12.4306 C   0  0  0  0  0  0  0  0  0  0  0  0
   22.9773  -21.1665  -13.3838 C   0  0  2  0  0  0  0  0  0  0  0  0
   22.7174  -22.1373  -14.4008 N   0  0  0  0  0  0  0  0  0  0  0  0
   24.2362  -21.4215  -12.6393 C   0  0  0  0  0  0  0  0  0  0  0  0
   24.4442  -22.5981  -12.2531 O   0  0  0  0  0  0  0  0  0  0  0  0
   29.1686  -20.0344  -13.9822 C   0  0  0  0  0  0  0  0  0  0  0  0
   27.8766  -20.7423  -13.4965 C   0  0  0  0  0  0  0  0  0  0  0  0
   27.6193  -20.2149  -12.1147 C   0  0  2  0  0  0  0  0  0  0  0  0
   28.8585  -20.5254  -11.3029 C   0  0  0  0  0  0  0  0  0  0  0  0
   26.3755  -20.7595  -11.5213 C   0  0  2  0  0  0  0  0  0  0  0  0
   25.2057  -20.4434  -12.3386 N   0  0  0  0  0  0  0  0  0  0  0  0
   26.1417  -20.2725  -10.1361 C   0  0  0  0  0  0  0  0  0  0  0  0
   25.4046  -19.2979   -9.8794 O   0  0  0  0  0  0  0  0  0  0  0  0
   28.0298  -20.8870   -4.2292 C   0  0  0  0  0  0  0  0  0  0  0  0
   27.1491  -20.3866   -5.3455 C   0  0  0  0  0  0  0  0  0  0  0  0
   27.4406  -21.0797   -6.6586 C   0  0  2  0  0  0  0  0  0  0  0  0
   28.9002  -21.2305   -6.9450 C   0  0  0  0  0  0  0  0  0  0  0  0
   26.7154  -20.2943   -7.7382 C   0  0  2  0  0  0  0  0  0  0  0  0
   26.7648  -20.9139   -9.0137 N   0  0  0  0  0  0  0  0  0  0  0  0
   27.1939  -18.8789   -7.7590 C   0  0  0  0  0  0  0  0  0  0  0  0
   28.3846  -18.4774   -8.3152 O   0  0  0  0  0  0  0  0  0  0  0  0
   26.4528  -18.0135   -7.2325 O   0  0  0  0  0  0  0  0  0  0  0  0
  1  2  1  0
  3  2  1  0
  3  4  1  0
  5  4  1  0
  5  6  1  6
  7  5  1  0
  8  7  2  0
 10  9  1  0
 11 13  1  0
 11 10  1  0
 11 12  1  1
 13 14  1  6
 14  7  1  0
 15 22  1  0
 15 13  1  0
 16 15  2  0
 18 19  1  0
 18 17  1  0
 19 20  1  6
 21 22  1  6
 21 19  1  0
 23 21  1  0
 23 24  1  0
 25 23  2  0
M  END
$$$$
