GAM.pdb
     RDKit          3D

 18 17  0  0  1  0  0  0  0  0999 V2000
   19.0521  -10.2472  -19.8998 N   0  0  0  0  0  0  0  0  0  0  0  0
   18.3194   -9.0243  -19.8186 C   0  0  0  0  0  0  0  0  0  0  0  0
   18.2198   -8.4762  -18.4614 C   0  0  0  0  0  0  0  0  0  0  0  0
   18.4342   -7.2243  -18.3353 O   0  0  0  0  0  0  0  0  0  0  0  0
   16.9502   -9.4447  -15.0945 C   0  0  0  0  0  0  0  0  0  0  0  0
   17.7797   -8.5768  -16.0116 C   0  0  2  0  0  0  0  0  0  0  0  0
   17.9088   -9.2160  -17.2973 N   0  0  0  0  0  0  0  0  0  0  0  0
   19.1363   -8.3221  -15.4597 C   0  0  0  0  0  0  0  0  0  0  0  0
   19.2759   -7.7727  -14.3261 O   0  0  0  0  0  0  0  0  0  0  0  0
   26.6813  -10.4090  -14.8327 C   0  0  0  0  0  0  0  0  0  0  0  0
   25.0534  -10.7125  -15.5427 S   0  0  0  0  0  0  0  0  0  0  0  0
   23.9288   -9.3102  -15.2182 C   0  0  0  0  0  0  0  0  0  0  0  0
   22.5473   -9.5945  -15.7363 C   0  0  0  0  0  0  0  0  0  0  0  0
   21.6733   -8.4067  -15.5739 C   0  0  2  0  0  0  0  0  0  0  0  0
   20.3302   -8.6629  -16.1370 N   0  0  0  0  0  0  0  0  0  0  0  0
   22.2117   -7.1491  -16.0893 C   0  0  0  0  0  0  0  0  0  0  0  0
   22.1609   -6.7264  -17.2626 O   0  0  0  0  0  0  0  0  0  0  0  0
   22.8736   -6.2825  -15.1897 O   0  0  0  0  0  0  0  0  0  0  0  0
  2  1  1  0
  3  2  1  0
  4  3  2  0
  6  5  1  1
  6  7  1  0
  7  3  1  0
  8  6  1  0
  8  9  2  0
 11 10  1  0
 12 13  1  0
 12 11  1  0
 14 13  1  6
 14 15  1  0
 15  8  1  0
 16 14  1  0
 16 18  1  0
 17 16  2  0
M  END
$$$$
