GAM.pdb
     RDKit          3D

 18 17  0  0  1  0  0  0  0  0999 V2000
   25.2338  -25.4628  -15.8222 N   0  0  0  0  0  0  0  0  0  0  0  0
   23.9960  -25.3720  -15.1162 C   0  0  0  0  0  0  0  0  0  0  0  0
   23.3748  -24.0439  -15.1671 C   0  0  0  0  0  0  0  0  0  0  0  0
   23.5514  -23.3729  -16.2385 O   0  0  0  0  0  0  0  0  0  0  0  0
   20.9392  -21.9194  -13.3095 C   0  0  0  0  0  0  0  0  0  0  0  0
   22.1141  -22.1053  -14.2410 C   0  0  2  0  0  0  0  0  0  0  0  0
   22.6059  -23.4565  -14.1363 N   0  0  0  0  0  0  0  0  0  0  0  0
   23.2216  -21.1623  -13.9346 C   0  0  0  0  0  0  0  0  0  0  0  0
   23.0246  -19.9105  -13.9585 O   0  0  0  0  0  0  0  0  0  0  0  0
   24.7471  -21.0398   -7.9595 C   0  0  0  0  0  0  0  0  0  0  0  0
   25.9733  -21.1836   -9.2716 S   0  0  0  0  0  0  0  0  0  0  0  0
   25.2618  -20.7051  -10.8844 C   0  0  0  0  0  0  0  0  0  0  0  0
   26.2460  -20.9300  -11.9973 C   0  0  0  0  0  0  0  0  0  0  0  0
   25.6267  -20.6296  -13.3116 C   0  0  2  0  0  0  0  0  0  0  0  0
   24.5321  -21.5796  -13.6050 N   0  0  0  0  0  0  0  0  0  0  0  0
   26.5494  -20.5484  -14.4426 C   0  0  0  0  0  0  0  0  0  0  0  0
   27.5087  -19.7626  -14.5840 O   0  0  0  0  0  0  0  0  0  0  0  0
   26.3706  -21.4441  -15.5216 O   0  0  0  0  0  0  0  0  0  0  0  0
  2  1  1  0
  3  2  1  0
  4  3  2  0
  6  5  1  1
  6  7  1  0
  7  3  1  0
  8  6  1  0
  8  9  2  0
 11 10  1  0
 12 13  1  0
 12 11  1  0
 14 13  1  1
 14 15  1  0
 15  8  1  0
 16 14  1  0
 16 18  1  0
 17 16  2  0
M  END
$$$$
