GAM.pdb
     RDKit          3D

 18 17  0  0  1  0  0  0  0  0999 V2000
   16.6658  -13.5353  -14.6704 N   0  0  0  0  0  0  0  0  0  0  0  0
   15.8939  -12.5636  -13.9643 C   0  0  0  0  0  0  0  0  0  0  0  0
   16.1243  -11.1829  -14.4038 C   0  0  0  0  0  0  0  0  0  0  0  0
   17.0767  -11.0006  -15.2338 O   0  0  0  0  0  0  0  0  0  0  0  0
   14.4702   -7.8290  -14.1889 C   0  0  0  0  0  0  0  0  0  0  0  0
   15.6058   -8.7518  -14.5648 C   0  0  2  0  0  0  0  0  0  0  0  0
   15.3840  -10.0533  -13.9856 N   0  0  0  0  0  0  0  0  0  0  0  0
   16.9199   -8.2338  -14.1018 C   0  0  0  0  0  0  0  0  0  0  0  0
   17.3143   -8.4501  -12.9168 O   0  0  0  0  0  0  0  0  0  0  0  0
   22.0411  -10.4073  -13.3633 C   0  0  0  0  0  0  0  0  0  0  0  0
   22.7133   -8.9103  -14.1070 S   0  0  0  0  0  0  0  0  0  0  0  0
   21.4757   -7.5669  -14.1014 C   0  0  0  0  0  0  0  0  0  0  0  0
   20.1453   -8.0559  -14.6002 C   0  0  0  0  0  0  0  0  0  0  0  0
   19.1129   -7.0002  -14.4563 C   0  0  2  0  0  0  0  0  0  0  0  0
   17.7966   -7.4868  -14.9225 N   0  0  0  0  0  0  0  0  0  0  0  0
   19.4309   -5.7148  -15.0759 C   0  0  0  0  0  0  0  0  0  0  0  0
   19.0323   -5.2846  -16.1777 O   0  0  0  0  0  0  0  0  0  0  0  0
   20.2840   -4.8268  -14.3818 O   0  0  0  0  0  0  0  0  0  0  0  0
  2  1  1  0
  3  2  1  0
  4  3  2  0
  6  5  1  1
  6  7  1  0
  7  3  1  0
  8  6  1  0
  8  9  2  0
 11 10  1  0
 12 13  1  0
 12 11  1  0
 14 13  1  6
 14 15  1  0
 15  8  1  0
 16 14  1  0
 16 18  1  0
 17 16  2  0
M  END
$$$$
