GAM.pdb
     RDKit          3D

 18 17  0  0  1  0  0  0  0  0999 V2000
   20.0004  -12.9231  -16.8030 N   0  0  0  0  0  0  0  0  0  0  0  0
   18.8170  -12.1930  -17.1275 C   0  0  0  0  0  0  0  0  0  0  0  0
   18.9401  -10.7427  -16.9435 C   0  0  0  0  0  0  0  0  0  0  0  0
   19.9346  -10.1787  -17.5110 O   0  0  0  0  0  0  0  0  0  0  0  0
   17.0057   -7.8504  -15.5702 C   0  0  0  0  0  0  0  0  0  0  0  0
   18.2746   -8.5137  -16.0526 C   0  0  2  0  0  0  0  0  0  0  0  0
   18.0553   -9.9313  -16.1967 N   0  0  0  0  0  0  0  0  0  0  0  0
   19.4082   -8.2924  -15.1168 C   0  0  0  0  0  0  0  0  0  0  0  0
   19.7281   -9.1825  -14.2732 O   0  0  0  0  0  0  0  0  0  0  0  0
   25.3636  -10.5853  -14.1089 C   0  0  0  0  0  0  0  0  0  0  0  0
   24.8089   -9.4403  -15.3844 S   0  0  0  0  0  0  0  0  0  0  0  0
   23.7980   -8.1007  -14.6633 C   0  0  0  0  0  0  0  0  0  0  0  0
   22.4109   -8.0997  -15.2411 C   0  0  0  0  0  0  0  0  0  0  0  0
   21.5707   -7.0699  -14.5817 C   0  0  2  0  0  0  0  0  0  0  0  0
   20.1865   -7.1116  -15.1004 N   0  0  0  0  0  0  0  0  0  0  0  0
   22.0915   -5.7047  -14.6253 C   0  0  0  0  0  0  0  0  0  0  0  0
   21.9440   -4.8653  -15.5372 O   0  0  0  0  0  0  0  0  0  0  0  0
   22.8551   -5.2413  -13.5297 O   0  0  0  0  0  0  0  0  0  0  0  0
  2  1  1  0
  3  2  1  0
  4  3  2  0
  6  5  1  1
  6  7  1  0
  7  3  1  0
  8  6  1  0
  8  9  2  0
 11 10  1  0
 12 13  1  0
 12 11  1  0
 14 13  1  6
 14 15  1  0
 15  8  1  0
 16 14  1  0
 16 18  1  0
 17 16  2  0
M  END
$$$$
