GAM.pdb
     RDKit          3D

 18 17  0  0  1  0  0  0  0  0999 V2000
   25.1575  -23.3508  -14.2989 N   0  0  0  0  0  0  0  0  0  0  0  0
   24.1427  -22.6241  -14.9923 C   0  0  0  0  0  0  0  0  0  0  0  0
   23.0749  -22.1136  -14.1254 C   0  0  0  0  0  0  0  0  0  0  0  0
   23.1570  -22.4085  -12.8862 O   0  0  0  0  0  0  0  0  0  0  0  0
   20.2000  -19.7268  -14.2397 C   0  0  0  0  0  0  0  0  0  0  0  0
   20.9863  -20.8556  -13.6150 C   0  0  2  0  0  0  0  0  0  0  0  0
   21.9763  -21.3309  -14.5491 N   0  0  0  0  0  0  0  0  0  0  0  0
   20.1114  -21.9900  -13.2185 C   0  0  0  0  0  0  0  0  0  0  0  0
   19.8833  -22.9387  -14.0274 O   0  0  0  0  0  0  0  0  0  0  0  0
   18.6699  -24.1621   -7.0369 C   0  0  0  0  0  0  0  0  0  0  0  0
   18.4761  -25.5245   -8.1998 S   0  0  0  0  0  0  0  0  0  0  0  0
   18.0850  -24.9035   -9.8724 C   0  0  0  0  0  0  0  0  0  0  0  0
   18.9567  -23.7337  -10.2320 C   0  0  0  0  0  0  0  0  0  0  0  0
   18.6072  -23.2153  -11.5775 C   0  0  2  0  0  0  0  0  0  0  0  0
   19.4904  -22.0899  -11.9517 N   0  0  0  0  0  0  0  0  0  0  0  0
   17.2049  -22.8502  -11.7709 C   0  0  0  0  0  0  0  0  0  0  0  0
   16.6473  -21.7821  -11.4450 O   0  0  0  0  0  0  0  0  0  0  0  0
   16.3468  -23.7846  -12.3945 O   0  0  0  0  0  0  0  0  0  0  0  0
  2  1  1  0
  3  2  1  0
  4  3  2  0
  6  5  1  6
  6  7  1  0
  7  3  1  0
  8  6  1  0
  8  9  2  0
 11 10  1  0
 12 13  1  0
 12 11  1  0
 14 13  1  1
 14 15  1  0
 15  8  1  0
 16 14  1  0
 16 18  1  0
 17 16  2  0
M  END
$$$$
