GAM.pdb
     RDKit          3D

 18 17  0  0  1  0  0  0  0  0999 V2000
   21.7409  -16.6550  -16.5959 N   0  0  0  0  0  0  0  0  0  0  0  0
   22.7257  -16.3151  -15.6195 C   0  0  0  0  0  0  0  0  0  0  0  0
   23.8063  -17.2992  -15.4927 C   0  0  0  0  0  0  0  0  0  0  0  0
   23.4535  -18.5173  -15.3473 O   0  0  0  0  0  0  0  0  0  0  0  0
   27.4710  -17.5952  -16.0431 C   0  0  0  0  0  0  0  0  0  0  0  0
   26.1798  -18.0500  -15.4039 C   0  0  2  0  0  0  0  0  0  0  0  0
   25.1896  -17.0084  -15.5186 N   0  0  0  0  0  0  0  0  0  0  0  0
   26.3597  -18.3903  -13.9681 C   0  0  0  0  0  0  0  0  0  0  0  0
   26.1550  -17.5189  -13.0707 O   0  0  0  0  0  0  0  0  0  0  0  0
   26.7852  -20.8072   -8.3128 C   0  0  0  0  0  0  0  0  0  0  0  0
   25.7973  -19.6211   -9.2419 S   0  0  0  0  0  0  0  0  0  0  0  0
   24.7197  -20.4718  -10.4466 C   0  0  0  0  0  0  0  0  0  0  0  0
   25.0131  -20.0181  -11.8487 C   0  0  0  0  0  0  0  0  0  0  0  0
   26.4569  -20.1684  -12.1555 C   0  0  2  0  0  0  0  0  0  0  0  0
   26.7593  -19.6687  -13.5140 N   0  0  0  0  0  0  0  0  0  0  0  0
   27.0072  -21.5101  -11.9706 C   0  0  0  0  0  0  0  0  0  0  0  0
   26.6328  -22.5660  -12.5207 O   0  0  0  0  0  0  0  0  0  0  0  0
   28.0883  -21.6756  -11.0750 O   0  0  0  0  0  0  0  0  0  0  0  0
  2  1  1  0
  3  2  1  0
  4  3  2  0
  6  5  1  1
  6  7  1  0
  7  3  1  0
  8  6  1  0
  8  9  2  0
 11 10  1  0
 12 13  1  0
 12 11  1  0
 14 13  1  6
 14 15  1  0
 15  8  1  0
 16 14  1  0
 16 18  1  0
 17 16  2  0
M  END
$$$$
