GAM.pdb
     RDKit          3D

 18 17  0  0  1  0  0  0  0  0999 V2000
   25.6937  -23.6456  -15.1963 N   0  0  0  0  0  0  0  0  0  0  0  0
   24.7962  -23.3270  -14.1324 C   0  0  0  0  0  0  0  0  0  0  0  0
   23.7538  -22.3618  -14.4986 C   0  0  0  0  0  0  0  0  0  0  0  0
   23.9018  -21.7590  -15.6140 O   0  0  0  0  0  0  0  0  0  0  0  0
   20.3192  -21.3650  -13.4204 C   0  0  0  0  0  0  0  0  0  0  0  0
   21.5886  -21.1633  -14.2145 C   0  0  2  0  0  0  0  0  0  0  0  0
   22.6130  -22.0509  -13.7234 N   0  0  0  0  0  0  0  0  0  0  0  0
   22.0807  -19.7631  -14.1305 C   0  0  0  0  0  0  0  0  0  0  0  0
   22.7651  -19.3814  -13.1343 O   0  0  0  0  0  0  0  0  0  0  0  0
   27.5098  -15.2736  -15.8102 C   0  0  0  0  0  0  0  0  0  0  0  0
   26.5923  -16.8191  -15.6838 S   0  0  0  0  0  0  0  0  0  0  0  0
   24.8132  -16.5015  -15.4189 C   0  0  0  0  0  0  0  0  0  0  0  0
   24.0459  -17.7883  -15.3038 C   0  0  0  0  0  0  0  0  0  0  0  0
   22.5891  -17.5221  -15.2150 C   0  0  2  0  0  0  0  0  0  0  0  0
   21.8294  -18.7875  -15.1230 N   0  0  0  0  0  0  0  0  0  0  0  0
   22.0359  -16.6696  -16.2659 C   0  0  0  0  0  0  0  0  0  0  0  0
   21.3649  -17.0252  -17.2564 O   0  0  0  0  0  0  0  0  0  0  0  0
   22.2632  -15.2764  -16.1904 O   0  0  0  0  0  0  0  0  0  0  0  0
  2  1  1  0
  3  2  1  0
  4  3  2  0
  6  5  1  1
  6  7  1  0
  7  3  1  0
  8  6  1  0
  8  9  2  0
 11 10  1  0
 12 13  1  0
 12 11  1  0
 14 13  1  6
 14 15  1  0
 15  8  1  0
 16 14  1  0
 16 18  1  0
 17 16  2  0
M  END
$$$$
