GAM.pdb
     RDKit          3D

 18 17  0  0  1  0  0  0  0  0999 V2000
   20.6082  -19.7850  -11.7759 N   0  0  0  0  0  0  0  0  0  0  0  0
   21.8830  -19.1839  -11.5467 C   0  0  0  0  0  0  0  0  0  0  0  0
   22.8970  -20.1107  -11.0318 C   0  0  0  0  0  0  0  0  0  0  0  0
   22.6142  -20.7188   -9.9458 O   0  0  0  0  0  0  0  0  0  0  0  0
   26.0042  -21.8406  -12.1252 C   0  0  0  0  0  0  0  0  0  0  0  0
   25.0784  -21.3133  -11.0540 C   0  0  2  0  0  0  0  0  0  0  0  0
   24.1465  -20.3799  -11.6361 N   0  0  0  0  0  0  0  0  0  0  0  0
   25.8225  -20.6353   -9.9602 C   0  0  0  0  0  0  0  0  0  0  0  0
   25.3486  -19.5976   -9.4080 O   0  0  0  0  0  0  0  0  0  0  0  0
   27.9927  -18.7759   -3.2342 C   0  0  0  0  0  0  0  0  0  0  0  0
   27.0681  -19.6955   -4.4774 S   0  0  0  0  0  0  0  0  0  0  0  0
   27.9234  -19.6518   -6.0908 C   0  0  0  0  0  0  0  0  0  0  0  0
   27.1076  -20.3323   -7.1534 C   0  0  0  0  0  0  0  0  0  0  0  0
   27.8410  -20.3524   -8.4429 C   0  0  2  0  0  0  0  0  0  0  0  0
   27.0719  -21.0840   -9.4725 N   0  0  0  0  0  0  0  0  0  0  0  0
   29.2146  -20.8493   -8.3825 C   0  0  0  0  0  0  0  0  0  0  0  0
   29.6631  -21.9019   -8.8813 O   0  0  0  0  0  0  0  0  0  0  0  0
   30.1775  -20.0807   -7.6896 O   0  0  0  0  0  0  0  0  0  0  0  0
  2  1  1  0
  3  2  1  0
  4  3  2  0
  6  5  1  6
  6  7  1  0
  7  3  1  0
  8  6  1  0
  8  9  2  0
 11 10  1  0
 12 13  1  0
 12 11  1  0
 14 13  1  1
 14 15  1  0
 15  8  1  0
 16 14  1  0
 16 18  1  0
 17 16  2  0
M  END
$$$$
