GAM.pdb
     RDKit          3D

 18 17  0  0  1  0  0  0  0  0999 V2000
   25.1842  -17.8187  -15.1704 N   0  0  0  0  0  0  0  0  0  0  0  0
   25.0324  -18.1412  -13.7877 C   0  0  0  0  0  0  0  0  0  0  0  0
   25.7250  -19.3688  -13.3807 C   0  0  0  0  0  0  0  0  0  0  0  0
   25.0193  -20.4312  -13.3301 O   0  0  0  0  0  0  0  0  0  0  0  0
   29.1933  -20.6542  -12.9464 C   0  0  0  0  0  0  0  0  0  0  0  0
   27.7016  -20.7332  -12.7200 C   0  0  2  0  0  0  0  0  0  0  0  0
   27.0949  -19.4664  -13.0446 N   0  0  0  0  0  0  0  0  0  0  0  0
   27.3702  -21.0820  -11.3135 C   0  0  0  0  0  0  0  0  0  0  0  0
   27.6129  -22.2424  -10.8651 O   0  0  0  0  0  0  0  0  0  0  0  0
   28.5710  -19.9954   -4.2234 C   0  0  0  0  0  0  0  0  0  0  0  0
   27.8475  -18.9351   -5.4877 S   0  0  0  0  0  0  0  0  0  0  0  0
   26.8188  -19.9065   -6.6430 C   0  0  0  0  0  0  0  0  0  0  0  0
   27.1417  -19.5665   -8.0706 C   0  0  0  0  0  0  0  0  0  0  0  0
   26.4886  -20.5241   -8.9966 C   0  0  2  0  0  0  0  0  0  0  0  0
   26.7796  -20.1745  -10.4037 N   0  0  0  0  0  0  0  0  0  0  0  0
   25.0517  -20.7117   -8.8037 C   0  0  0  0  0  0  0  0  0  0  0  0
   24.1336  -20.3979   -9.5889 O   0  0  0  0  0  0  0  0  0  0  0  0
   24.6074  -21.3139   -7.6044 O   0  0  0  0  0  0  0  0  0  0  0  0
  2  1  1  0
  3  2  1  0
  4  3  2  0
  6  5  1  1
  6  7  1  0
  7  3  1  0
  8  6  1  0
  8  9  2  0
 11 10  1  0
 12 13  1  0
 12 11  1  0
 14 13  1  1
 14 15  1  0
 15  8  1  0
 16 14  1  0
 16 18  1  0
 17 16  2  0
M  END
$$$$
