GAM.pdb
     RDKit          3D

 18 17  0  0  1  0  0  0  0  0999 V2000
   18.6558  -12.2783  -17.8770 N   0  0  0  0  0  0  0  0  0  0  0  0
   17.8279  -11.2633  -17.3088 C   0  0  0  0  0  0  0  0  0  0  0  0
   18.4685   -9.9460  -17.2262 C   0  0  0  0  0  0  0  0  0  0  0  0
   19.7384   -9.9371  -17.0976 O   0  0  0  0  0  0  0  0  0  0  0  0
   17.6144   -6.3107  -17.5450 C   0  0  0  0  0  0  0  0  0  0  0  0
   18.5127   -7.4568  -17.1425 C   0  0  2  0  0  0  0  0  0  0  0  0
   17.7987   -8.7020  -17.2774 N   0  0  0  0  0  0  0  0  0  0  0  0
   18.9913   -7.3229  -15.7416 C   0  0  0  0  0  0  0  0  0  0  0  0
   18.4449   -7.9861  -14.8099 O   0  0  0  0  0  0  0  0  0  0  0  0
   23.1382   -9.4454  -10.1891 C   0  0  0  0  0  0  0  0  0  0  0  0
   22.3636   -9.4683  -11.8156 S   0  0  0  0  0  0  0  0  0  0  0  0
   21.7283   -7.8141  -12.2587 C   0  0  0  0  0  0  0  0  0  0  0  0
   21.0483   -7.8375  -13.5984 C   0  0  0  0  0  0  0  0  0  0  0  0
   20.6298   -6.4709  -13.9963 C   0  0  2  0  0  0  0  0  0  0  0  0
   20.0558   -6.4740  -15.3591 N   0  0  0  0  0  0  0  0  0  0  0  0
   21.6541   -5.4348  -13.8759 C   0  0  0  0  0  0  0  0  0  0  0  0
   22.0929   -4.9202  -12.8269 O   0  0  0  0  0  0  0  0  0  0  0  0
   22.2412   -4.9294  -15.0583 O   0  0  0  0  0  0  0  0  0  0  0  0
  2  1  1  0
  3  2  1  0
  4  3  2  0
  6  5  1  1
  6  7  1  0
  7  3  1  0
  8  6  1  0
  8  9  2  0
 11 10  1  0
 12 13  1  0
 12 11  1  0
 14 13  1  6
 14 15  1  0
 15  8  1  0
 16 14  1  0
 16 18  1  0
 17 16  2  0
M  END
$$$$
