GAM.pdb
     RDKit          3D

 18 17  0  0  1  0  0  0  0  0999 V2000
   24.9911  -24.7935  -15.7447 N   0  0  0  0  0  0  0  0  0  0  0  0
   24.3653  -23.6941  -15.0827 C   0  0  0  0  0  0  0  0  0  0  0  0
   25.2588  -22.9456  -14.1918 C   0  0  0  0  0  0  0  0  0  0  0  0
   25.9486  -23.6336  -13.3672 O   0  0  0  0  0  0  0  0  0  0  0  0
   26.4897  -19.4450  -13.6497 C   0  0  0  0  0  0  0  0  0  0  0  0
   26.3194  -20.8942  -13.2580 C   0  0  2  0  0  0  0  0  0  0  0  0
   25.4140  -21.5403  -14.1751 N   0  0  0  0  0  0  0  0  0  0  0  0
   25.7925  -21.0385  -11.8756 C   0  0  0  0  0  0  0  0  0  0  0  0
   24.5669  -21.2946  -11.6787 O   0  0  0  0  0  0  0  0  0  0  0  0
   29.2478  -19.7795   -6.3497 C   0  0  0  0  0  0  0  0  0  0  0  0
   27.5532  -19.4551   -5.8311 S   0  0  0  0  0  0  0  0  0  0  0  0
   26.3609  -20.1385   -7.0344 C   0  0  0  0  0  0  0  0  0  0  0  0
   26.9703  -20.2335   -8.4045 C   0  0  0  0  0  0  0  0  0  0  0  0
   26.0311  -20.8847   -9.3505 C   0  0  2  0  0  0  0  0  0  0  0  0
   26.5937  -20.9049  -10.7179 N   0  0  0  0  0  0  0  0  0  0  0  0
   24.6722  -20.3460   -9.3653 C   0  0  0  0  0  0  0  0  0  0  0  0
   24.2712  -19.3148   -9.9432 O   0  0  0  0  0  0  0  0  0  0  0  0
   23.6657  -21.0411   -8.6568 O   0  0  0  0  0  0  0  0  0  0  0  0
  2  1  1  0
  3  2  1  0
  4  3  2  0
  6  5  1  6
  6  7  1  0
  7  3  1  0
  8  6  1  0
  8  9  2  0
 11 10  1  0
 12 13  1  0
 12 11  1  0
 14 13  1  1
 14 15  1  0
 15  8  1  0
 16 14  1  0
 16 18  1  0
 17 16  2  0
M  END
$$$$
