SKT.pdb
     RDKit          3D

 23 22  0  0  1  0  0  0  0  0999 V2000
    9.9824  -12.5401   19.0463 O   0  0  0  0  0  0  0  0  0  0  0  0
    9.7831  -13.6511   19.8615 C   0  0  0  0  0  0  0  0  0  0  0  0
    8.3660  -14.1723   19.6788 C   0  0  2  0  0  0  0  0  0  0  0  0
    7.5924  -13.0954   19.0894 N   0  0  0  0  0  0  0  0  0  0  0  0
    7.8228  -14.5322   21.0243 C   0  0  0  0  0  0  0  0  0  0  0  0
    7.0763  -13.6884   21.5869 O   0  0  0  0  0  0  0  0  0  0  0  0
    8.1195  -15.7632   21.6617 N   0  0  0  0  0  0  0  0  0  0  0  0
    7.6276  -16.1202   22.9490 C   0  0  1  0  0  0  0  0  0  0  0  0
    7.7174  -17.6033   23.2479 C   0  0  0  0  0  0  0  0  0  0  0  0
    7.2404  -17.9896   24.5831 C   0  0  0  0  0  0  0  0  0  0  0  0
    7.2996  -19.4671   24.7994 C   0  0  0  0  0  0  0  0  0  0  0  0
    6.7260  -19.9920   26.0624 C   0  0  0  0  0  0  0  0  0  0  0  0
    6.8693  -21.4025   26.2901 N   0  0  0  0  0  0  0  0  0  0  0  0
    8.2744  -15.3247   24.0474 C   0  0  0  0  0  0  0  0  0  0  0  0
    9.5285  -15.2379   24.0904 O   0  0  0  0  0  0  0  0  0  0  0  0
    7.0538  -11.6313   25.5588 C   0  0  0  0  0  0  0  0  0  0  0  0
    7.1802  -12.7631   26.5595 C   0  0  1  0  0  0  0  0  0  0  0  0
    5.9186  -13.3088   26.7563 O   0  0  0  0  0  0  0  0  0  0  0  0
    8.1401  -13.8341   26.0718 C   0  0  2  0  0  0  0  0  0  0  0  0
    7.5071  -14.6622   25.0468 N   0  0  0  0  0  0  0  0  0  0  0  0
    8.4922  -14.6750   27.2442 C   0  0  0  0  0  0  0  0  0  0  0  0
    8.2215  -15.9055   27.3047 O   0  0  0  0  0  0  0  0  0  0  0  0
    9.1403  -14.1155   28.3218 O   0  0  0  0  0  0  0  0  0  0  0  0
  2  1  1  0
  2  3  1  0
  3  5  1  0
  3  4  1  1
  5  6  2  0
  7  8  1  0
  7  5  1  0
  8  9  1  1
 10  9  1  0
 11 10  1  0
 11 12  1  0
 13 12  1  0
 14 15  2  0
 14  8  1  0
 17 16  1  6
 17 19  1  0
 18 17  1  0
 19 21  1  0
 19 20  1  6
 20 14  1  0
 21 23  1  0
 22 21  2  0
M  END
$$$$
