SKT.pdb
     RDKit          3D

 23 22  0  0  1  0  0  0  0  0999 V2000
    7.2561  -23.8779   22.1815 O   0  0  0  0  0  0  0  0  0  0  0  0
    6.1853  -22.9905   22.2471 C   0  0  0  0  0  0  0  0  0  0  0  0
    5.0667  -23.5989   23.0787 C   0  0  2  0  0  0  0  0  0  0  0  0
    3.9363  -22.6931   22.9939 N   0  0  0  0  0  0  0  0  0  0  0  0
    5.5426  -23.7124   24.4914 C   0  0  0  0  0  0  0  0  0  0  0  0
    5.7565  -22.6385   25.1134 O   0  0  0  0  0  0  0  0  0  0  0  0
    5.7521  -24.9620   25.1272 N   0  0  0  0  0  0  0  0  0  0  0  0
    6.2497  -25.0949   26.4544 C   0  0  1  0  0  0  0  0  0  0  0  0
    6.1453  -26.5018   27.0081 C   0  0  0  0  0  0  0  0  0  0  0  0
    6.6896  -26.6694   28.3628 C   0  0  0  0  0  0  0  0  0  0  0  0
    5.7145  -27.3231   29.2875 C   0  0  0  0  0  0  0  0  0  0  0  0
    6.1387  -27.5169   30.6953 C   0  0  0  0  0  0  0  0  0  0  0  0
    5.1757  -28.1179   31.5746 N   0  0  0  0  0  0  0  0  0  0  0  0
    7.6553  -24.5816   26.5905 C   0  0  0  0  0  0  0  0  0  0  0  0
    8.5564  -25.0449   25.8451 O   0  0  0  0  0  0  0  0  0  0  0  0
    8.4241  -20.7805   27.9578 C   0  0  0  0  0  0  0  0  0  0  0  0
    9.4521  -21.6314   27.2386 C   0  0  1  0  0  0  0  0  0  0  0  0
   10.7115  -21.1213   27.5243 O   0  0  0  0  0  0  0  0  0  0  0  0
    9.3704  -23.0860   27.6673 C   0  0  2  0  0  0  0  0  0  0  0  0
    8.0006  -23.5813   27.5426 N   0  0  0  0  0  0  0  0  0  0  0  0
    9.7955  -23.1495   29.0889 C   0  0  0  0  0  0  0  0  0  0  0  0
   10.9912  -22.9735   29.4499 O   0  0  0  0  0  0  0  0  0  0  0  0
    8.8687  -23.4091   30.0727 O   0  0  0  0  0  0  0  0  0  0  0  0
  2  1  1  0
  2  3  1  0
  3  5  1  0
  3  4  1  1
  5  6  2  0
  7  8  1  0
  7  5  1  0
  8  9  1  6
 10  9  1  0
 11 10  1  0
 11 12  1  0
 13 12  1  0
 14 15  2  0
 14  8  1  0
 17 16  1  1
 17 19  1  0
 18 17  1  0
 19 21  1  0
 19 20  1  1
 20 14  1  0
 21 23  1  0
 22 21  2  0
M  END
$$$$
