SKT.pdb
     RDKit          3D

 23 22  0  0  1  0  0  0  0  0999 V2000
   10.2772  -13.3402   19.8405 O   0  0  0  0  0  0  0  0  0  0  0  0
    9.5829  -14.3111   19.1236 C   0  0  0  0  0  0  0  0  0  0  0  0
    8.0943  -14.0001   19.1504 C   0  0  2  0  0  0  0  0  0  0  0  0
    7.9479  -12.6026   18.7884 N   0  0  0  0  0  0  0  0  0  0  0  0
    7.5918  -14.2374   20.5384 C   0  0  0  0  0  0  0  0  0  0  0  0
    7.4368  -13.2270   21.2737 O   0  0  0  0  0  0  0  0  0  0  0  0
    7.2951  -15.5334   21.0304 N   0  0  0  0  0  0  0  0  0  0  0  0
    6.7326  -15.7763   22.3154 C   0  0  1  0  0  0  0  0  0  0  0  0
    6.1629  -17.1711   22.4794 C   0  0  0  0  0  0  0  0  0  0  0  0
    5.0952  -17.5128   21.5293 C   0  0  0  0  0  0  0  0  0  0  0  0
    4.6561  -18.9354   21.6594 C   0  0  0  0  0  0  0  0  0  0  0  0
    3.5113  -19.3718   20.8237 C   0  0  0  0  0  0  0  0  0  0  0  0
    3.0879  -20.7345   20.9836 N   0  0  0  0  0  0  0  0  0  0  0  0
    7.6963  -15.4703   23.4269 C   0  0  0  0  0  0  0  0  0  0  0  0
    8.9048  -15.7966   23.3033 O   0  0  0  0  0  0  0  0  0  0  0  0
    7.7583  -12.0589   25.8692 C   0  0  0  0  0  0  0  0  0  0  0  0
    7.6966  -13.3990   26.5754 C   0  0  1  0  0  0  0  0  0  0  0  0
    6.3736  -13.6478   26.9155 O   0  0  0  0  0  0  0  0  0  0  0  0
    8.2270  -14.5177   25.6960 C   0  0  2  0  0  0  0  0  0  0  0  0
    7.2814  -14.8187   24.6226 N   0  0  0  0  0  0  0  0  0  0  0  0
    8.3961  -15.7133   26.5606 C   0  0  0  0  0  0  0  0  0  0  0  0
    7.7198  -16.7666   26.4050 O   0  0  0  0  0  0  0  0  0  0  0  0
    9.3206  -15.6993   27.5802 O   0  0  0  0  0  0  0  0  0  0  0  0
  2  1  1  0
  2  3  1  0
  3  5  1  0
  3  4  1  1
  5  6  2  0
  7  8  1  0
  7  5  1  0
  8  9  1  6
 10  9  1  0
 11 10  1  0
 11 12  1  0
 13 12  1  0
 14 15  2  0
 14  8  1  0
 17 16  1  6
 17 19  1  0
 18 17  1  0
 19 21  1  0
 19 20  1  6
 20 14  1  0
 21 23  1  0
 22 21  2  0
M  END
$$$$
