SKT.pdb
     RDKit          3D

 23 22  0  0  1  0  0  0  0  0999 V2000
    7.8035  -15.1550   19.0166 O   0  0  0  0  0  0  0  0  0  0  0  0
    7.6341  -15.1558   20.3986 C   0  0  0  0  0  0  0  0  0  0  0  0
    6.5425  -16.1439   20.7798 C   0  0  2  0  0  0  0  0  0  0  0  0
    5.2867  -15.5873   20.3124 N   0  0  0  0  0  0  0  0  0  0  0  0
    6.5338  -16.2800   22.2686 C   0  0  0  0  0  0  0  0  0  0  0  0
    6.0770  -15.3114   22.9311 O   0  0  0  0  0  0  0  0  0  0  0  0
    7.0129  -17.4381   22.9311 N   0  0  0  0  0  0  0  0  0  0  0  0
    7.0448  -17.5765   24.3475 C   0  0  1  0  0  0  0  0  0  0  0  0
    7.2107  -19.0076   24.8181 C   0  0  0  0  0  0  0  0  0  0  0  0
    7.2767  -19.1694   26.2772 C   0  0  0  0  0  0  0  0  0  0  0  0
    7.3515  -20.6054   26.6844 C   0  0  0  0  0  0  0  0  0  0  0  0
    7.3455  -20.9003   28.1378 C   0  0  0  0  0  0  0  0  0  0  0  0
    7.5564  -22.2706   28.5114 N   0  0  0  0  0  0  0  0  0  0  0  0
    8.0801  -16.6928   24.9837 C   0  0  0  0  0  0  0  0  0  0  0  0
    9.2393  -16.6512   24.4971 O   0  0  0  0  0  0  0  0  0  0  0  0
    6.8968  -13.4997   27.4495 C   0  0  0  0  0  0  0  0  0  0  0  0
    8.2287  -13.5629   26.7283 C   0  0  1  0  0  0  0  0  0  0  0  0
    9.1181  -12.7260   27.3889 O   0  0  0  0  0  0  0  0  0  0  0  0
    8.7762  -14.9790   26.6914 C   0  0  2  0  0  0  0  0  0  0  0  0
    7.7880  -15.8965   26.1269 N   0  0  0  0  0  0  0  0  0  0  0  0
    9.0763  -15.3704   28.0922 C   0  0  0  0  0  0  0  0  0  0  0  0
    8.4624  -16.2990   28.6856 O   0  0  0  0  0  0  0  0  0  0  0  0
   10.0586  -14.7106   28.7951 O   0  0  0  0  0  0  0  0  0  0  0  0
  2  1  1  0
  2  3  1  0
  3  5  1  0
  3  4  1  1
  5  6  2  0
  7  8  1  0
  7  5  1  0
  8  9  1  6
 10  9  1  0
 11 10  1  0
 11 12  1  0
 13 12  1  0
 14 15  2  0
 14  8  1  0
 17 16  1  1
 17 19  1  0
 18 17  1  0
 19 21  1  0
 19 20  1  1
 20 14  1  0
 21 23  1  0
 22 21  2  0
M  END
$$$$
