SKT.pdb
     RDKit          3D

 23 22  0  0  1  0  0  0  0  0999 V2000
    9.9209  -12.9951   18.6864 O   0  0  0  0  0  0  0  0  0  0  0  0
    9.1021  -12.9751   19.8122 C   0  0  0  0  0  0  0  0  0  0  0  0
    8.0848  -14.1024   19.7252 C   0  0  2  0  0  0  0  0  0  0  0  0
    6.9604  -13.5987   18.9588 N   0  0  0  0  0  0  0  0  0  0  0  0
    7.6570  -14.4547   21.1137 C   0  0  0  0  0  0  0  0  0  0  0  0
    6.8036  -13.7062   21.6590 O   0  0  0  0  0  0  0  0  0  0  0  0
    8.1737  -15.5768   21.8090 N   0  0  0  0  0  0  0  0  0  0  0  0
    7.6734  -16.0215   23.0654 C   0  0  1  0  0  0  0  0  0  0  0  0
    7.8248  -17.5126   23.2903 C   0  0  0  0  0  0  0  0  0  0  0  0
    7.2987  -17.9954   24.5748 C   0  0  0  0  0  0  0  0  0  0  0  0
    7.5661  -19.4507   24.7846 C   0  0  0  0  0  0  0  0  0  0  0  0
    6.9665  -20.0853   25.9835 C   0  0  0  0  0  0  0  0  0  0  0  0
    7.2369  -21.4835   26.1675 N   0  0  0  0  0  0  0  0  0  0  0  0
    8.2617  -15.2560   24.2168 C   0  0  0  0  0  0  0  0  0  0  0  0
    9.5118  -15.1757   24.3301 O   0  0  0  0  0  0  0  0  0  0  0  0
    6.7443  -11.6693   25.8278 C   0  0  0  0  0  0  0  0  0  0  0  0
    6.9855  -12.8169   26.7887 C   0  0  1  0  0  0  0  0  0  0  0  0
    5.7779  -13.4714   26.9919 O   0  0  0  0  0  0  0  0  0  0  0  0
    8.0196  -13.7888   26.2482 C   0  0  2  0  0  0  0  0  0  0  0  0
    7.4429  -14.6150   25.1890 N   0  0  0  0  0  0  0  0  0  0  0  0
    8.4432  -14.6531   27.3792 C   0  0  0  0  0  0  0  0  0  0  0  0
    8.2541  -15.9002   27.3904 O   0  0  0  0  0  0  0  0  0  0  0  0
    9.0695  -14.0979   28.4718 O   0  0  0  0  0  0  0  0  0  0  0  0
  2  1  1  0
  2  3  1  0
  3  5  1  0
  3  4  1  6
  5  6  2  0
  7  8  1  0
  7  5  1  0
  8  9  1  1
 10  9  1  0
 11 10  1  0
 11 12  1  0
 13 12  1  0
 14 15  2  0
 14  8  1  0
 17 16  1  6
 17 19  1  0
 18 17  1  0
 19 21  1  0
 19 20  1  6
 20 14  1  0
 21 23  1  0
 22 21  2  0
M  END
$$$$
