SKT.pdb
     RDKit          3D

 23 22  0  0  1  0  0  0  0  0999 V2000
    9.9301  -14.4181   19.2971 O   0  0  0  0  0  0  0  0  0  0  0  0
    8.8114  -14.5803   18.4841 C   0  0  0  0  0  0  0  0  0  0  0  0
    7.6229  -13.8573   19.0988 C   0  0  2  0  0  0  0  0  0  0  0  0
    7.9983  -12.4618   19.2289 N   0  0  0  0  0  0  0  0  0  0  0  0
    7.3555  -14.4556   20.4426 C   0  0  0  0  0  0  0  0  0  0  0  0
    7.9207  -13.9202   21.4324 O   0  0  0  0  0  0  0  0  0  0  0  0
    6.5068  -15.5766   20.6227 N   0  0  0  0  0  0  0  0  0  0  0  0
    6.0937  -16.0526   21.8992 C   0  0  1  0  0  0  0  0  0  0  0  0
    4.8862  -16.9671   21.8490 C   0  0  0  0  0  0  0  0  0  0  0  0
    5.2025  -18.4020   21.8713 C   0  0  0  0  0  0  0  0  0  0  0  0
    3.9813  -19.2527   21.7362 C   0  0  0  0  0  0  0  0  0  0  0  0
    4.1525  -20.7170   21.8976 C   0  0  0  0  0  0  0  0  0  0  0  0
    2.9630  -21.5140   21.7886 N   0  0  0  0  0  0  0  0  0  0  0  0
    7.2156  -16.7079   22.6539 C   0  0  0  0  0  0  0  0  0  0  0  0
    8.1068  -17.3285   22.0192 O   0  0  0  0  0  0  0  0  0  0  0  0
   10.2680  -16.7465   26.4378 C   0  0  0  0  0  0  0  0  0  0  0  0
    9.1853  -16.1514   25.5592 C   0  0  1  0  0  0  0  0  0  0  0  0
    9.7858  -15.2690   24.6711 O   0  0  0  0  0  0  0  0  0  0  0  0
    8.4331  -17.2271   24.7954 C   0  0  2  0  0  0  0  0  0  0  0  0
    7.3017  -16.6476   24.0736 N   0  0  0  0  0  0  0  0  0  0  0  0
    7.9372  -18.2089   25.7933 C   0  0  0  0  0  0  0  0  0  0  0  0
    6.7139  -18.3348   26.0741 O   0  0  0  0  0  0  0  0  0  0  0  0
    8.8257  -19.0270   26.4533 O   0  0  0  0  0  0  0  0  0  0  0  0
  2  1  1  0
  2  3  1  0
  3  5  1  0
  3  4  1  1
  5  6  2  0
  7  8  1  0
  7  5  1  0
  8  9  1  6
 10  9  1  0
 11 10  1  0
 11 12  1  0
 13 12  1  0
 14 15  2  0
 14  8  1  0
 17 16  1  6
 17 19  1  0
 18 17  1  0
 19 21  1  0
 19 20  1  1
 20 14  1  0
 21 23  1  0
 22 21  2  0
M  END
$$$$
