SKT.pdb
     RDKit          3D

 23 22  0  0  1  0  0  0  0  0999 V2000
    9.4450  -15.8040   18.7786 O   0  0  0  0  0  0  0  0  0  0  0  0
    8.6800  -15.5158   19.9057 C   0  0  0  0  0  0  0  0  0  0  0  0
    7.8892  -16.7484   20.3162 C   0  0  2  0  0  0  0  0  0  0  0  0
    6.8012  -16.8881   19.3664 N   0  0  0  0  0  0  0  0  0  0  0  0
    7.3559  -16.5243   21.6948 C   0  0  0  0  0  0  0  0  0  0  0  0
    6.3471  -15.7790   21.8062 O   0  0  0  0  0  0  0  0  0  0  0  0
    7.9415  -17.1133   22.8436 N   0  0  0  0  0  0  0  0  0  0  0  0
    7.4437  -16.9241   24.1639 C   0  0  1  0  0  0  0  0  0  0  0  0
    7.4974  -18.1723   25.0219 C   0  0  0  0  0  0  0  0  0  0  0  0
    6.7257  -19.3087   24.4998 C   0  0  0  0  0  0  0  0  0  0  0  0
    6.8553  -20.5237   25.3603 C   0  0  0  0  0  0  0  0  0  0  0  0
    6.2283  -21.7744   24.8681 C   0  0  0  0  0  0  0  0  0  0  0  0
    6.3419  -22.9234   25.7218 N   0  0  0  0  0  0  0  0  0  0  0  0
    8.1127  -15.7767   24.8666 C   0  0  0  0  0  0  0  0  0  0  0  0
    9.3572  -15.6288   24.7601 O   0  0  0  0  0  0  0  0  0  0  0  0
    6.7504  -11.8518   25.3408 C   0  0  0  0  0  0  0  0  0  0  0  0
    7.0634  -12.6142   26.6132 C   0  0  1  0  0  0  0  0  0  0  0  0
    5.8723  -13.1160   27.1206 O   0  0  0  0  0  0  0  0  0  0  0  0
    8.0392  -13.7494   26.3574 C   0  0  2  0  0  0  0  0  0  0  0  0
    7.3770  -14.8464   25.6538 N   0  0  0  0  0  0  0  0  0  0  0  0
    8.5180  -14.2236   27.6808 C   0  0  0  0  0  0  0  0  0  0  0  0
    8.3229  -15.3995   28.0936 O   0  0  0  0  0  0  0  0  0  0  0  0
    9.2049  -13.3670   28.5108 O   0  0  0  0  0  0  0  0  0  0  0  0
  2  1  1  0
  2  3  1  0
  3  5  1  0
  3  4  1  6
  5  6  2  0
  7  8  1  0
  7  5  1  0
  8  9  1  1
 10  9  1  0
 11 10  1  0
 11 12  1  0
 13 12  1  0
 14 15  2  0
 14  8  1  0
 17 16  1  6
 17 19  1  0
 18 17  1  0
 19 21  1  0
 19 20  1  1
 20 14  1  0
 21 23  1  0
 22 21  2  0
M  END
$$$$
