SKT.pdb
     RDKit          3D

 23 22  0  0  1  0  0  0  0  0999 V2000
    9.0290  -13.1056   18.5475 O   0  0  0  0  0  0  0  0  0  0  0  0
    8.2752  -13.2770   19.7055 C   0  0  0  0  0  0  0  0  0  0  0  0
    7.8915  -14.7412   19.8542 C   0  0  2  0  0  0  0  0  0  0  0  0
    6.7962  -14.9867   18.9348 N   0  0  0  0  0  0  0  0  0  0  0  0
    7.4524  -14.9687   21.2651 C   0  0  0  0  0  0  0  0  0  0  0  0
    6.2356  -14.7763   21.5260 O   0  0  0  0  0  0  0  0  0  0  0  0
    8.3464  -15.3831   22.2843 N   0  0  0  0  0  0  0  0  0  0  0  0
    7.9253  -15.7836   23.5839 C   0  0  1  0  0  0  0  0  0  0  0  0
    8.3469  -17.1909   23.9562 C   0  0  0  0  0  0  0  0  0  0  0  0
    7.9896  -17.5966   25.3227 C   0  0  0  0  0  0  0  0  0  0  0  0
    8.3461  -19.0209   25.6015 C   0  0  0  0  0  0  0  0  0  0  0  0
    8.0795  -19.5327   26.9677 C   0  0  0  0  0  0  0  0  0  0  0  0
    8.3315  -20.9294   27.1859 N   0  0  0  0  0  0  0  0  0  0  0  0
    8.3520  -14.8108   24.6465 C   0  0  0  0  0  0  0  0  0  0  0  0
    9.5766  -14.5766   24.8132 O   0  0  0  0  0  0  0  0  0  0  0  0
    6.3982  -11.2960   25.8888 C   0  0  0  0  0  0  0  0  0  0  0  0
    6.6952  -12.3276   26.9593 C   0  0  1  0  0  0  0  0  0  0  0  0
    5.5414  -13.0686   27.1775 O   0  0  0  0  0  0  0  0  0  0  0  0
    7.8333  -13.2454   26.5488 C   0  0  2  0  0  0  0  0  0  0  0  0
    7.4076  -14.1420   25.4755 N   0  0  0  0  0  0  0  0  0  0  0  0
    8.2078  -14.0425   27.7446 C   0  0  0  0  0  0  0  0  0  0  0  0
    8.1000  -15.2986   27.7860 O   0  0  0  0  0  0  0  0  0  0  0  0
    8.6947  -13.4115   28.8666 O   0  0  0  0  0  0  0  0  0  0  0  0
  2  1  1  0
  2  3  1  0
  3  5  1  0
  3  4  1  6
  5  6  2  0
  7  8  1  0
  7  5  1  0
  8  9  1  1
 10  9  1  0
 11 10  1  0
 11 12  1  0
 13 12  1  0
 14 15  2  0
 14  8  1  0
 17 16  1  6
 17 19  1  0
 18 17  1  0
 19 21  1  0
 19 20  1  6
 20 14  1  0
 21 23  1  0
 22 21  2  0
M  END
$$$$
