SKT.pdb
     RDKit          3D

 23 22  0  0  1  0  0  0  0  0999 V2000
   13.1538  -17.1457   20.9932 O   0  0  0  0  0  0  0  0  0  0  0  0
   12.3016  -17.8753   21.8178 C   0  0  0  0  0  0  0  0  0  0  0  0
   10.8593  -17.4795   21.5415 C   0  0  2  0  0  0  0  0  0  0  0  0
   10.8990  -16.2744   20.7344 N   0  0  0  0  0  0  0  0  0  0  0  0
   10.1887  -17.2118   22.8506 C   0  0  0  0  0  0  0  0  0  0  0  0
    9.8101  -16.0312   23.0711 O   0  0  0  0  0  0  0  0  0  0  0  0
    9.9757  -18.2248   23.8192 N   0  0  0  0  0  0  0  0  0  0  0  0
    9.2417  -18.0203   25.0217 C   0  0  1  0  0  0  0  0  0  0  0  0
    8.6160  -19.2836   25.5780 C   0  0  0  0  0  0  0  0  0  0  0  0
    7.5638  -19.8689   24.7355 C   0  0  0  0  0  0  0  0  0  0  0  0
    7.0254  -21.1414   25.3050 C   0  0  0  0  0  0  0  0  0  0  0  0
    5.9424  -21.8182   24.5510 C   0  0  0  0  0  0  0  0  0  0  0  0
    5.4869  -23.0739   25.0779 N   0  0  0  0  0  0  0  0  0  0  0  0
   10.0585  -17.3316   26.0782 C   0  0  0  0  0  0  0  0  0  0  0  0
   11.2761  -17.6212   26.2036 O   0  0  0  0  0  0  0  0  0  0  0  0
   10.0787  -13.3376   27.0458 C   0  0  0  0  0  0  0  0  0  0  0  0
    9.7654  -14.2685   28.2005 C   0  0  1  0  0  0  0  0  0  0  0  0
    8.3867  -14.3098   28.3605 O   0  0  0  0  0  0  0  0  0  0  0  0
   10.3024  -15.6669   27.9510 C   0  0  2  0  0  0  0  0  0  0  0  0
    9.4934  -16.3555   26.9468 N   0  0  0  0  0  0  0  0  0  0  0  0
   10.2289  -16.4019   29.2394 C   0  0  0  0  0  0  0  0  0  0  0  0
    9.5057  -17.4228   29.4000 O   0  0  0  0  0  0  0  0  0  0  0  0
   10.9688  -15.9742   30.3182 O   0  0  0  0  0  0  0  0  0  0  0  0
  2  1  1  0
  2  3  1  0
  3  5  1  0
  3  4  1  6
  5  6  2  0
  7  8  1  0
  7  5  1  0
  8  9  1  1
 10  9  1  0
 11 10  1  0
 11 12  1  0
 13 12  1  0
 14 15  2  0
 14  8  1  0
 17 16  1  6
 17 19  1  0
 18 17  1  0
 19 21  1  0
 19 20  1  6
 20 14  1  0
 21 23  1  0
 22 21  2  0
M  END
$$$$
