SKT.pdb
     RDKit          3D

 23 22  0  0  1  0  0  0  0  0999 V2000
   11.9347  -19.3551   18.0126 O   0  0  0  0  0  0  0  0  0  0  0  0
   11.0812  -18.8755   19.0025 C   0  0  0  0  0  0  0  0  0  0  0  0
    9.7391  -18.5093   18.3877 C   0  0  2  0  0  0  0  0  0  0  0  0
    9.9954  -17.4837   17.3937 N   0  0  0  0  0  0  0  0  0  0  0  0
    8.8568  -17.9793   19.4721 C   0  0  0  0  0  0  0  0  0  0  0  0
    8.9701  -16.7585   19.7594 O   0  0  0  0  0  0  0  0  0  0  0  0
    7.9247  -18.7940   20.1627 N   0  0  0  0  0  0  0  0  0  0  0  0
    6.9781  -18.2863   21.0969 C   0  0  1  0  0  0  0  0  0  0  0  0
    5.7096  -19.1105   21.1908 C   0  0  0  0  0  0  0  0  0  0  0  0
    4.7323  -18.6218   22.1734 C   0  0  0  0  0  0  0  0  0  0  0  0
    3.4646  -19.4128   22.1521 C   0  0  0  0  0  0  0  0  0  0  0  0
    2.3523  -18.9362   23.0095 C   0  0  0  0  0  0  0  0  0  0  0  0
    1.1475  -19.7171   22.9838 N   0  0  0  0  0  0  0  0  0  0  0  0
    7.5745  -18.0862   22.4614 C   0  0  0  0  0  0  0  0  0  0  0  0
    8.2430  -19.0142   22.9850 O   0  0  0  0  0  0  0  0  0  0  0  0
    8.9416  -14.3988   24.1120 C   0  0  0  0  0  0  0  0  0  0  0  0
    7.9487  -15.2203   24.9104 C   0  0  1  0  0  0  0  0  0  0  0  0
    6.6803  -14.7011   24.6880 O   0  0  0  0  0  0  0  0  0  0  0  0
    7.9887  -16.6851   24.5117 C   0  0  2  0  0  0  0  0  0  0  0  0
    7.4054  -16.8715   23.1842 N   0  0  0  0  0  0  0  0  0  0  0  0
    7.1919  -17.4354   25.5156 C   0  0  0  0  0  0  0  0  0  0  0  0
    6.1252  -18.0415   25.2226 O   0  0  0  0  0  0  0  0  0  0  0  0
    7.6107  -17.4882   26.8257 O   0  0  0  0  0  0  0  0  0  0  0  0
  2  1  1  0
  2  3  1  0
  3  5  1  0
  3  4  1  6
  5  6  2  0
  7  8  1  0
  7  5  1  0
  8  9  1  1
 10  9  1  0
 11 10  1  0
 11 12  1  0
 13 12  1  0
 14 15  2  0
 14  8  1  0
 17 16  1  6
 17 19  1  0
 18 17  1  0
 19 21  1  0
 19 20  1  6
 20 14  1  0
 21 23  1  0
 22 21  2  0
M  END
$$$$
