SKT.pdb
     RDKit          3D

 23 22  0  0  1  0  0  0  0  0999 V2000
    9.3676  -12.2993   18.7222 O   0  0  0  0  0  0  0  0  0  0  0  0
    8.6384  -12.6351   19.8598 C   0  0  0  0  0  0  0  0  0  0  0  0
    8.0143  -14.0104   19.6800 C   0  0  2  0  0  0  0  0  0  0  0  0
    6.8904  -13.8496   18.7765 N   0  0  0  0  0  0  0  0  0  0  0  0
    7.5477  -14.4907   21.0167 C   0  0  0  0  0  0  0  0  0  0  0  0
    6.4384  -14.0585   21.4271 O   0  0  0  0  0  0  0  0  0  0  0  0
    8.3017  -15.3933   21.8082 N   0  0  0  0  0  0  0  0  0  0  0  0
    7.8712  -15.8747   23.0769 C   0  0  1  0  0  0  0  0  0  0  0  0
    8.1301  -17.3527   23.2896 C   0  0  0  0  0  0  0  0  0  0  0  0
    7.4876  -18.2355   22.3061 C   0  0  0  0  0  0  0  0  0  0  0  0
    7.8409  -19.6719   22.5192 C   0  0  0  0  0  0  0  0  0  0  0  0
    7.1375  -20.6753   21.6839 C   0  0  0  0  0  0  0  0  0  0  0  0
    7.5166  -22.0464   21.8795 N   0  0  0  0  0  0  0  0  0  0  0  0
    8.4409  -15.0743   24.2137 C   0  0  0  0  0  0  0  0  0  0  0  0
    9.6646  -14.7829   24.2111 O   0  0  0  0  0  0  0  0  0  0  0  0
    6.9599  -11.6569   25.7845 C   0  0  0  0  0  0  0  0  0  0  0  0
    7.1355  -12.7648   26.8044 C   0  0  1  0  0  0  0  0  0  0  0  0
    5.9077  -13.3892   26.9800 O   0  0  0  0  0  0  0  0  0  0  0  0
    8.1744  -13.7771   26.3548 C   0  0  2  0  0  0  0  0  0  0  0  0
    7.6339  -14.6331   25.3002 N   0  0  0  0  0  0  0  0  0  0  0  0
    8.5226  -14.6041   27.5382 C   0  0  0  0  0  0  0  0  0  0  0  0
    8.3207  -15.8485   27.5818 O   0  0  0  0  0  0  0  0  0  0  0  0
    9.0894  -14.0155   28.6457 O   0  0  0  0  0  0  0  0  0  0  0  0
  2  1  1  0
  2  3  1  0
  3  5  1  0
  3  4  1  6
  5  6  2  0
  7  8  1  0
  7  5  1  0
  8  9  1  1
 10  9  1  0
 11 10  1  0
 11 12  1  0
 13 12  1  0
 14 15  2  0
 14  8  1  0
 17 16  1  6
 17 19  1  0
 18 17  1  0
 19 21  1  0
 19 20  1  6
 20 14  1  0
 21 23  1  0
 22 21  2  0
M  END
$$$$
