ADG.pdb
     RDKit          3D

 18 17  0  0  1  0  0  0  0  0999 V2000
    7.9411  -12.6166   20.5484 C   0  0  0  0  0  0  0  0  0  0  0  0
    8.2462  -13.6290   19.4633 C   0  0  2  0  0  0  0  0  0  0  0  0
    7.0273  -13.9860   18.7733 N   0  0  0  0  0  0  0  0  0  0  0  0
    8.7931  -14.8168   20.1581 C   0  0  0  0  0  0  0  0  0  0  0  0
    8.0151  -15.7028   20.5584 O   0  0  0  0  0  0  0  0  0  0  0  0
   10.1820  -14.9622   20.3766 N   0  0  0  0  0  0  0  0  0  0  0  0
   10.6873  -16.1823   20.9602 C   0  0  1  0  0  0  0  0  0  0  0  0
   12.0426  -16.4443   20.3315 C   0  0  0  0  0  0  0  0  0  0  0  0
   12.5324  -17.7817   20.7626 C   0  0  0  0  0  0  0  0  0  0  0  0
   13.5448  -17.9290   21.4821 O   0  0  0  0  0  0  0  0  0  0  0  0
   10.7677  -16.1200   22.4154 C   0  0  0  0  0  0  0  0  0  0  0  0
   11.2954  -15.1324   22.9987 O   0  0  0  0  0  0  0  0  0  0  0  0
   11.7552  -18.8609   20.2893 O   0  0  0  0  0  0  0  0  0  0  0  0
   10.2648  -17.1576   23.2658 N   0  0  0  0  0  0  0  0  0  0  0  0
   10.3033  -16.9978   24.6973 C   0  0  0  0  0  0  0  0  0  0  0  0
   11.1088  -18.0461   25.3280 C   0  0  0  0  0  0  0  0  0  0  0  0
   11.8040  -18.8877   24.6702 O   0  0  0  0  0  0  0  0  0  0  0  0
   11.1624  -18.1881   26.7167 O   0  0  0  0  0  0  0  0  0  0  0  0
  2  1  1  1
  3  2  1  0
  4  2  1  0
  4  5  2  0
  6  4  1  0
  7  6  1  0
  7  8  1  6
  9 10  2  0
  9  8  1  0
 11  7  1  0
 12 11  2  0
 13  9  1  0
 14 11  1  0
 15 14  1  0
 16 15  1  0
 16 18  1  0
 17 16  2  0
M  END
$$$$
