ADG.pdb
     RDKit          3D

 18 17  0  0  1  0  0  0  0  0999 V2000
    5.5213  -19.4203   22.2007 C   0  0  0  0  0  0  0  0  0  0  0  0
    6.0563  -18.5853   21.0553 C   0  0  2  0  0  0  0  0  0  0  0  0
    6.7726  -19.4319   20.1282 N   0  0  0  0  0  0  0  0  0  0  0  0
    6.9895  -17.6102   21.6645 C   0  0  0  0  0  0  0  0  0  0  0  0
    8.0291  -18.0200   22.2138 O   0  0  0  0  0  0  0  0  0  0  0  0
    6.7206  -16.2229   21.6353 N   0  0  0  0  0  0  0  0  0  0  0  0
    7.6522  -15.3038   22.2451 C   0  0  1  0  0  0  0  0  0  0  0  0
    7.3561  -13.9304   21.6734 C   0  0  0  0  0  0  0  0  0  0  0  0
    7.9253  -13.8377   20.3016 C   0  0  0  0  0  0  0  0  0  0  0  0
    8.8904  -14.5378   19.9235 O   0  0  0  0  0  0  0  0  0  0  0  0
    7.5795  -15.3115   23.7021 C   0  0  0  0  0  0  0  0  0  0  0  0
    6.5636  -14.8698   24.3078 O   0  0  0  0  0  0  0  0  0  0  0  0
    7.2808  -12.8949   19.4719 O   0  0  0  0  0  0  0  0  0  0  0  0
    8.6379  -15.8094   24.5295 N   0  0  0  0  0  0  0  0  0  0  0  0
    8.4717  -15.8588   25.9600 C   0  0  0  0  0  0  0  0  0  0  0  0
    9.7057  -16.2845   26.6243 C   0  0  0  0  0  0  0  0  0  0  0  0
   10.7846  -16.5466   25.9987 O   0  0  0  0  0  0  0  0  0  0  0  0
    9.7731  -16.4321   28.0119 O   0  0  0  0  0  0  0  0  0  0  0  0
  2  1  1  1
  3  2  1  0
  4  2  1  0
  4  5  2  0
  6  4  1  0
  7  6  1  0
  7  8  1  6
  9 10  2  0
  9  8  1  0
 11  7  1  0
 12 11  2  0
 13  9  1  0
 14 11  1  0
 15 14  1  0
 16 15  1  0
 16 18  1  0
 17 16  2  0
M  END
$$$$
