ADG.pdb
     RDKit          3D

 18 17  0  0  1  0  0  0  0  0999 V2000
    8.1590  -12.5269   20.2345 C   0  0  0  0  0  0  0  0  0  0  0  0
    8.0931  -13.6716   19.2443 C   0  0  2  0  0  0  0  0  0  0  0  0
    6.7221  -13.8888   18.8409 N   0  0  0  0  0  0  0  0  0  0  0  0
    8.5960  -14.8628   19.9661 C   0  0  0  0  0  0  0  0  0  0  0  0
    7.8117  -15.5290   20.6671 O   0  0  0  0  0  0  0  0  0  0  0  0
    9.9506  -15.2560   19.8751 N   0  0  0  0  0  0  0  0  0  0  0  0
   10.4264  -16.3613   20.6730 C   0  0  1  0  0  0  0  0  0  0  0  0
   11.6742  -16.8918   19.9930 C   0  0  0  0  0  0  0  0  0  0  0  0
   11.2955  -17.5311   18.7037 C   0  0  0  0  0  0  0  0  0  0  0  0
   10.3834  -18.3824   18.6159 O   0  0  0  0  0  0  0  0  0  0  0  0
   10.6823  -15.9866   22.0594 C   0  0  0  0  0  0  0  0  0  0  0  0
   11.3962  -14.9850   22.3442 O   0  0  0  0  0  0  0  0  0  0  0  0
   12.0537  -17.0917   17.5971 O   0  0  0  0  0  0  0  0  0  0  0  0
   10.1526  -16.7180   23.1716 N   0  0  0  0  0  0  0  0  0  0  0  0
   10.3664  -16.2418   24.5147 C   0  0  0  0  0  0  0  0  0  0  0  0
   11.0534  -17.2450   25.3315 C   0  0  0  0  0  0  0  0  0  0  0  0
   11.5048  -18.3411   24.8635 O   0  0  0  0  0  0  0  0  0  0  0  0
   11.2576  -17.0550   26.7004 O   0  0  0  0  0  0  0  0  0  0  0  0
  2  1  1  1
  3  2  1  0
  4  2  1  0
  4  5  2  0
  6  4  1  0
  7  6  1  0
  7  8  1  6
  9 10  2  0
  9  8  1  0
 11  7  1  0
 12 11  2  0
 13  9  1  0
 14 11  1  0
 15 14  1  0
 16 15  1  0
 16 18  1  0
 17 16  2  0
M  END
$$$$
