ADG.pdb
     RDKit          3D

 18 17  0  0  1  0  0  0  0  0999 V2000
    7.6037  -12.7868   20.5416 C   0  0  0  0  0  0  0  0  0  0  0  0
    8.3308  -13.5928   19.4847 C   0  0  2  0  0  0  0  0  0  0  0  0
    7.3902  -14.0473   18.4856 N   0  0  0  0  0  0  0  0  0  0  0  0
    8.9118  -14.7578   20.1904 C   0  0  0  0  0  0  0  0  0  0  0  0
    8.3757  -15.8752   20.0696 O   0  0  0  0  0  0  0  0  0  0  0  0
   10.0626  -14.6240   21.0000 N   0  0  0  0  0  0  0  0  0  0  0  0
   10.6566  -15.7987   21.5932 C   0  0  1  0  0  0  0  0  0  0  0  0
   11.9621  -16.0501   20.8631 C   0  0  0  0  0  0  0  0  0  0  0  0
   12.5265  -17.3546   21.3035 C   0  0  0  0  0  0  0  0  0  0  0  0
   11.8283  -18.3856   21.4219 O   0  0  0  0  0  0  0  0  0  0  0  0
   10.8574  -15.6634   23.0317 C   0  0  0  0  0  0  0  0  0  0  0  0
   11.8593  -15.0517   23.4967 O   0  0  0  0  0  0  0  0  0  0  0  0
   13.9118  -17.3226   21.5728 O   0  0  0  0  0  0  0  0  0  0  0  0
    9.9493  -16.2077   23.9970 N   0  0  0  0  0  0  0  0  0  0  0  0
    9.9099  -17.6295   24.2275 C   0  0  0  0  0  0  0  0  0  0  0  0
   10.9521  -18.0446   25.1693 C   0  0  0  0  0  0  0  0  0  0  0  0
   12.0212  -18.6407   24.8143 O   0  0  0  0  0  0  0  0  0  0  0  0
   10.8322  -17.8068   26.5406 O   0  0  0  0  0  0  0  0  0  0  0  0
  2  1  1  1
  3  2  1  0
  4  2  1  0
  4  5  2  0
  6  4  1  0
  7  6  1  0
  7  8  1  6
  9 10  2  0
  9  8  1  0
 11  7  1  0
 12 11  2  0
 13  9  1  0
 14 11  1  0
 15 14  1  0
 16 15  1  0
 16 18  1  0
 17 16  2  0
M  END
$$$$
