ADG.pdb
     RDKit          3D

 18 17  0  0  1  0  0  0  0  0999 V2000
   -2.8449  -26.5023   29.9690 C   0  0  0  0  0  0  0  0  0  0  0  0
   -4.1976  -26.0340   30.4653 C   0  0  2  0  0  0  0  0  0  0  0  0
   -5.2219  -26.9574   30.0324 N   0  0  0  0  0  0  0  0  0  0  0  0
   -4.4231  -24.7099   29.8418 C   0  0  0  0  0  0  0  0  0  0  0  0
   -3.7060  -23.7477   30.1742 O   0  0  0  0  0  0  0  0  0  0  0  0
   -5.4387  -24.5181   28.8777 N   0  0  0  0  0  0  0  0  0  0  0  0
   -5.5804  -23.2310   28.2389 C   0  0  1  0  0  0  0  0  0  0  0  0
   -5.7959  -23.4931   26.7605 C   0  0  0  0  0  0  0  0  0  0  0  0
   -4.5518  -24.0652   26.1780 C   0  0  0  0  0  0  0  0  0  0  0  0
   -4.4981  -25.2230   25.7078 O   0  0  0  0  0  0  0  0  0  0  0  0
   -6.6598  -22.4337   28.8110 C   0  0  0  0  0  0  0  0  0  0  0  0
   -6.9406  -21.2908   28.3539 O   0  0  0  0  0  0  0  0  0  0  0  0
   -3.4462  -23.1880   26.2037 O   0  0  0  0  0  0  0  0  0  0  0  0
   -7.4582  -22.8842   29.9121 N   0  0  0  0  0  0  0  0  0  0  0  0
   -8.4924  -22.0353   30.4470 C   0  0  0  0  0  0  0  0  0  0  0  0
   -9.1292  -22.6454   31.6164 C   0  0  0  0  0  0  0  0  0  0  0  0
   -8.8170  -23.7970   32.0642 O   0  0  0  0  0  0  0  0  0  0  0  0
  -10.1378  -21.9868   32.3238 O   0  0  0  0  0  0  0  0  0  0  0  0
  2  1  1  6
  3  2  1  0
  4  2  1  0
  4  5  2  0
  6  4  1  0
  7  6  1  0
  7  8  1  6
  9 10  2  0
  9  8  1  0
 11  7  1  0
 12 11  2  0
 13  9  1  0
 14 11  1  0
 15 14  1  0
 16 15  1  0
 16 18  1  0
 17 16  2  0
M  END
$$$$
