ADG.pdb
     RDKit          3D

 18 17  0  0  1  0  0  0  0  0999 V2000
    8.6333  -12.0267   19.5061 C   0  0  0  0  0  0  0  0  0  0  0  0
    8.5251  -13.2136   18.5707 C   0  0  2  0  0  0  0  0  0  0  0  0
    7.1994  -13.7832   18.6575 N   0  0  0  0  0  0  0  0  0  0  0  0
    9.5238  -14.1981   19.0463 C   0  0  0  0  0  0  0  0  0  0  0  0
    9.1573  -15.1348   19.7802 O   0  0  0  0  0  0  0  0  0  0  0  0
   10.8859  -14.0925   18.6837 N   0  0  0  0  0  0  0  0  0  0  0  0
   11.8170  -15.1108   19.1088 C   0  0  1  0  0  0  0  0  0  0  0  0
   12.9467  -15.1264   18.0968 C   0  0  0  0  0  0  0  0  0  0  0  0
   12.5068  -15.8658   16.8826 C   0  0  0  0  0  0  0  0  0  0  0  0
   12.0848  -17.0424   16.9260 O   0  0  0  0  0  0  0  0  0  0  0  0
   12.3075  -14.8951   20.4655 C   0  0  0  0  0  0  0  0  0  0  0  0
   12.8418  -13.8014   20.8008 O   0  0  0  0  0  0  0  0  0  0  0  0
   12.6079  -15.1231   15.6865 O   0  0  0  0  0  0  0  0  0  0  0  0
   12.2203  -15.8925   21.4904 N   0  0  0  0  0  0  0  0  0  0  0  0
   12.6212  -15.5777   22.8381 C   0  0  0  0  0  0  0  0  0  0  0  0
   12.5316  -16.7529   23.7078 C   0  0  0  0  0  0  0  0  0  0  0  0
   12.0562  -17.8725   23.3273 O   0  0  0  0  0  0  0  0  0  0  0  0
   12.9705  -16.7140   25.0334 O   0  0  0  0  0  0  0  0  0  0  0  0
  2  1  1  1
  3  2  1  0
  4  2  1  0
  4  5  2  0
  6  4  1  0
  7  6  1  0
  7  8  1  6
  9 10  2  0
  9  8  1  0
 11  7  1  0
 12 11  2  0
 13  9  1  0
 14 11  1  0
 15 14  1  0
 16 15  1  0
 16 18  1  0
 17 16  2  0
M  END
$$$$
