ADG.pdb
     RDKit          3D

 18 17  0  0  1  0  0  0  0  0999 V2000
    7.0164  -12.7337   19.3460 C   0  0  0  0  0  0  0  0  0  0  0  0
    8.3092  -13.2312   18.7324 C   0  0  2  0  0  0  0  0  0  0  0  0
    8.0211  -14.2505   17.7488 N   0  0  0  0  0  0  0  0  0  0  0  0
    9.0883  -13.8182   19.8465 C   0  0  0  0  0  0  0  0  0  0  0  0
    9.4488  -13.0903   20.7903 O   0  0  0  0  0  0  0  0  0  0  0  0
    9.4316  -15.1893   19.8570 N   0  0  0  0  0  0  0  0  0  0  0  0
   10.1340  -15.7389   20.9925 C   0  0  1  0  0  0  0  0  0  0  0  0
    9.8195  -17.2222   21.0305 C   0  0  0  0  0  0  0  0  0  0  0  0
   10.5315  -17.8447   22.1795 C   0  0  0  0  0  0  0  0  0  0  0  0
   10.2230  -17.6129   23.3693 O   0  0  0  0  0  0  0  0  0  0  0  0
   11.5705  -15.4905   20.9408 C   0  0  0  0  0  0  0  0  0  0  0  0
   12.2795  -15.5377   21.9844 O   0  0  0  0  0  0  0  0  0  0  0  0
   11.5785  -18.7148   21.8065 O   0  0  0  0  0  0  0  0  0  0  0  0
   12.2613  -15.1793   19.7248 N   0  0  0  0  0  0  0  0  0  0  0  0
   13.6491  -14.7936   19.7630 C   0  0  0  0  0  0  0  0  0  0  0  0
   14.1747  -14.5647   18.4152 C   0  0  0  0  0  0  0  0  0  0  0  0
   13.4951  -14.7596   17.3548 O   0  0  0  0  0  0  0  0  0  0  0  0
   15.4796  -14.1104   18.2089 O   0  0  0  0  0  0  0  0  0  0  0  0
  2  1  1  1
  3  2  1  0
  4  2  1  0
  4  5  2  0
  6  4  1  0
  7  6  1  0
  7  8  1  6
  9 10  2  0
  9  8  1  0
 11  7  1  0
 12 11  2  0
 13  9  1  0
 14 11  1  0
 15 14  1  0
 16 15  1  0
 16 18  1  0
 17 16  2  0
M  END
$$$$
