ADG.pdb
     RDKit          3D

 18 17  0  0  1  0  0  0  0  0999 V2000
    8.1063  -12.5361   20.7854 C   0  0  0  0  0  0  0  0  0  0  0  0
    8.0527  -13.3048   19.4809 C   0  0  2  0  0  0  0  0  0  0  0  0
    6.8211  -13.0022   18.7872 N   0  0  0  0  0  0  0  0  0  0  0  0
    8.0776  -14.7380   19.8524 C   0  0  0  0  0  0  0  0  0  0  0  0
    7.0134  -15.3843   19.8665 O   0  0  0  0  0  0  0  0  0  0  0  0
    9.2872  -15.3850   20.1930 N   0  0  0  0  0  0  0  0  0  0  0  0
    9.2709  -16.7845   20.5475 C   0  0  1  0  0  0  0  0  0  0  0  0
    9.9729  -17.5315   19.4295 C   0  0  0  0  0  0  0  0  0  0  0  0
    9.9632  -18.9885   19.7321 C   0  0  0  0  0  0  0  0  0  0  0  0
   10.9552  -19.5851   20.2060 O   0  0  0  0  0  0  0  0  0  0  0  0
    9.8874  -17.0448   21.8438 C   0  0  0  0  0  0  0  0  0  0  0  0
    9.2980  -17.7364   22.7203 O   0  0  0  0  0  0  0  0  0  0  0  0
    8.7410  -19.6307   19.4383 O   0  0  0  0  0  0  0  0  0  0  0  0
   11.1789  -16.5402   22.2045 N   0  0  0  0  0  0  0  0  0  0  0  0
   11.5422  -16.4172   23.5935 C   0  0  0  0  0  0  0  0  0  0  0  0
   12.8855  -15.8531   23.7438 C   0  0  0  0  0  0  0  0  0  0  0  0
   13.4179  -15.6009   24.8739 O   0  0  0  0  0  0  0  0  0  0  0  0
   13.6781  -15.5517   22.6336 O   0  0  0  0  0  0  0  0  0  0  0  0
  2  1  1  1
  3  2  1  0
  4  2  1  0
  4  5  2  0
  6  4  1  0
  7  6  1  0
  7  8  1  6
  9 10  2  0
  9  8  1  0
 11  7  1  0
 12 11  2  0
 13  9  1  0
 14 11  1  0
 15 14  1  0
 16 15  1  0
 16 18  1  0
 17 16  2  0
M  END
$$$$
