ADG.pdb
     RDKit          3D

 18 17  0  0  1  0  0  0  0  0999 V2000
    7.2616  -13.8314   21.7093 C   0  0  0  0  0  0  0  0  0  0  0  0
    7.9567  -14.7559   20.7307 C   0  0  2  0  0  0  0  0  0  0  0  0
    6.9715  -15.4520   19.9343 N   0  0  0  0  0  0  0  0  0  0  0  0
    8.7100  -15.7282   21.5552 C   0  0  0  0  0  0  0  0  0  0  0  0
    8.1210  -16.7225   22.0186 O   0  0  0  0  0  0  0  0  0  0  0  0
   10.0852  -15.5470   21.8271 N   0  0  0  0  0  0  0  0  0  0  0  0
   10.7910  -16.5297   22.6150 C   0  0  1  0  0  0  0  0  0  0  0  0
   12.2710  -16.3251   22.3537 C   0  0  0  0  0  0  0  0  0  0  0  0
   12.5673  -16.6513   20.9323 C   0  0  0  0  0  0  0  0  0  0  0  0
   12.1374  -17.6848   20.3742 O   0  0  0  0  0  0  0  0  0  0  0  0
   10.4748  -16.4451   24.0365 C   0  0  0  0  0  0  0  0  0  0  0  0
   10.5176  -15.3429   24.6508 O   0  0  0  0  0  0  0  0  0  0  0  0
   13.3714  -15.6945   20.2762 O   0  0  0  0  0  0  0  0  0  0  0  0
   10.1034  -17.5867   24.8185 N   0  0  0  0  0  0  0  0  0  0  0  0
    9.6853  -17.4176   26.1870 C   0  0  0  0  0  0  0  0  0  0  0  0
   10.7502  -17.7957   27.1189 C   0  0  0  0  0  0  0  0  0  0  0  0
   10.5904  -17.8494   28.3822 O   0  0  0  0  0  0  0  0  0  0  0  0
   12.0305  -18.1258   26.6679 O   0  0  0  0  0  0  0  0  0  0  0  0
  2  1  1  1
  3  2  1  0
  4  2  1  0
  4  5  2  0
  6  4  1  0
  7  6  1  0
  7  8  1  1
  9 10  2  0
  9  8  1  0
 11  7  1  0
 12 11  2  0
 13  9  1  0
 14 11  1  0
 15 14  1  0
 16 15  1  0
 16 18  1  0
 17 16  2  0
M  END
$$$$
