ADG.pdb
     RDKit          3D

 18 17  0  0  1  0  0  0  0  0999 V2000
   -0.7152  -27.4144   30.1740 C   0  0  0  0  0  0  0  0  0  0  0  0
   -2.0559  -27.0942   30.8030 C   0  0  2  0  0  0  0  0  0  0  0  0
   -2.9937  -28.1568   30.5189 N   0  0  0  0  0  0  0  0  0  0  0  0
   -2.5147  -25.8392   30.1649 C   0  0  0  0  0  0  0  0  0  0  0  0
   -1.8997  -24.7797   30.3881 O   0  0  0  0  0  0  0  0  0  0  0  0
   -3.6391  -25.8219   29.3086 N   0  0  0  0  0  0  0  0  0  0  0  0
   -4.0637  -24.5757   28.7158 C   0  0  1  0  0  0  0  0  0  0  0  0
   -3.7092  -24.6441   27.2426 C   0  0  0  0  0  0  0  0  0  0  0  0
   -4.0148  -23.3352   26.6039 C   0  0  0  0  0  0  0  0  0  0  0  0
   -5.1730  -23.0031   26.2681 O   0  0  0  0  0  0  0  0  0  0  0  0
   -5.4834  -24.3094   28.9199 C   0  0  0  0  0  0  0  0  0  0  0  0
   -6.3594  -25.1647   28.6116 O   0  0  0  0  0  0  0  0  0  0  0  0
   -2.8865  -22.5086   26.4138 O   0  0  0  0  0  0  0  0  0  0  0  0
   -5.9712  -23.0805   29.4718 N   0  0  0  0  0  0  0  0  0  0  0  0
   -7.3835  -22.9011   29.6944 C   0  0  0  0  0  0  0  0  0  0  0  0
   -7.6901  -21.5215   30.0791 C   0  0  0  0  0  0  0  0  0  0  0  0
   -6.7973  -20.6578   30.3640 O   0  0  0  0  0  0  0  0  0  0  0  0
   -9.0071  -21.0624   30.1586 O   0  0  0  0  0  0  0  0  0  0  0  0
  2  1  1  6
  3  2  1  0
  4  2  1  0
  4  5  2  0
  6  4  1  0
  7  6  1  0
  7  8  1  6
  9 10  2  0
  9  8  1  0
 11  7  1  0
 12 11  2  0
 13  9  1  0
 14 11  1  0
 15 14  1  0
 16 15  1  0
 16 18  1  0
 17 16  2  0
M  END
$$$$
