ADG.pdb
     RDKit          3D

 18 17  0  0  1  0  0  0  0  0999 V2000
    8.5940  -12.4014   19.6621 C   0  0  0  0  0  0  0  0  0  0  0  0
    8.5831  -13.3182   18.4560 C   0  0  2  0  0  0  0  0  0  0  0  0
    7.2967  -13.9688   18.3501 N   0  0  0  0  0  0  0  0  0  0  0  0
    9.6354  -14.3298   18.7050 C   0  0  0  0  0  0  0  0  0  0  0  0
    9.3211  -15.4314   19.1931 O   0  0  0  0  0  0  0  0  0  0  0  0
   10.9904  -14.0668   18.4004 N   0  0  0  0  0  0  0  0  0  0  0  0
   12.0049  -15.0189   18.7863 C   0  0  1  0  0  0  0  0  0  0  0  0
   13.0732  -14.9864   17.7101 C   0  0  0  0  0  0  0  0  0  0  0  0
   12.6295  -15.8120   16.5543 C   0  0  0  0  0  0  0  0  0  0  0  0
   11.9873  -16.8763   16.6931 O   0  0  0  0  0  0  0  0  0  0  0  0
   12.5588  -14.7475   20.1083 C   0  0  0  0  0  0  0  0  0  0  0  0
   13.0075  -13.6057   20.4067 O   0  0  0  0  0  0  0  0  0  0  0  0
   12.9964  -15.2876   15.2961 O   0  0  0  0  0  0  0  0  0  0  0  0
   12.6322  -15.7408   21.1381 N   0  0  0  0  0  0  0  0  0  0  0  0
   13.1924  -15.4066   22.4229 C   0  0  0  0  0  0  0  0  0  0  0  0
   13.1370  -16.5472   23.3402 C   0  0  0  0  0  0  0  0  0  0  0  0
   12.5014  -17.6220   23.0853 O   0  0  0  0  0  0  0  0  0  0  0  0
   13.7910  -16.5226   24.5744 O   0  0  0  0  0  0  0  0  0  0  0  0
  2  1  1  1
  3  2  1  0
  4  2  1  0
  4  5  2  0
  6  4  1  0
  7  6  1  0
  7  8  1  6
  9 10  2  0
  9  8  1  0
 11  7  1  0
 12 11  2  0
 13  9  1  0
 14 11  1  0
 15 14  1  0
 16 15  1  0
 16 18  1  0
 17 16  2  0
M  END
$$$$
