ADG.pdb
     RDKit          3D

 18 17  0  0  1  0  0  0  0  0999 V2000
    7.8060  -13.5978   18.1156 C   0  0  0  0  0  0  0  0  0  0  0  0
    8.3529  -13.1519   19.4563 C   0  0  2  0  0  0  0  0  0  0  0  0
    9.2624  -12.0445   19.2676 N   0  0  0  0  0  0  0  0  0  0  0  0
    9.0887  -14.3152   20.0022 C   0  0  0  0  0  0  0  0  0  0  0  0
    8.4867  -15.3905   20.1803 O   0  0  0  0  0  0  0  0  0  0  0  0
   10.4616  -14.2264   20.3266 N   0  0  0  0  0  0  0  0  0  0  0  0
   11.1189  -15.3478   20.9552 C   0  0  1  0  0  0  0  0  0  0  0  0
   12.5964  -15.2310   20.6328 C   0  0  0  0  0  0  0  0  0  0  0  0
   12.7947  -15.4154   19.1695 C   0  0  0  0  0  0  0  0  0  0  0  0
   12.7847  -16.5411   18.6246 O   0  0  0  0  0  0  0  0  0  0  0  0
   10.8808  -15.4069   22.3932 C   0  0  0  0  0  0  0  0  0  0  0  0
   10.3604  -14.4357   23.0096 O   0  0  0  0  0  0  0  0  0  0  0  0
   12.9929  -14.2125   18.4580 O   0  0  0  0  0  0  0  0  0  0  0  0
   11.2177  -16.5493   23.1895 N   0  0  0  0  0  0  0  0  0  0  0  0
   10.8499  -16.5906   24.5821 C   0  0  0  0  0  0  0  0  0  0  0  0
   11.3854  -17.7856   25.2383 C   0  0  0  0  0  0  0  0  0  0  0  0
   12.0018  -18.7111   24.6156 O   0  0  0  0  0  0  0  0  0  0  0  0
   11.2483  -17.9851   26.6141 O   0  0  0  0  0  0  0  0  0  0  0  0
  2  1  1  6
  3  2  1  0
  4  2  1  0
  4  5  2  0
  6  4  1  0
  7  6  1  0
  7  8  1  1
  9 10  2  0
  9  8  1  0
 11  7  1  0
 12 11  2  0
 13  9  1  0
 14 11  1  0
 15 14  1  0
 16 15  1  0
 16 18  1  0
 17 16  2  0
M  END
$$$$
