FAY.pdb
     RDKit          3D

 29 30  0  0  1  0  0  0  0  0999 V2000
    7.0118  -18.7052   26.9333 N   0  0  0  0  0  0  0  0  0  0  0  0
    6.9164  -17.3860   26.2941 C   0  0  1  0  0  0  0  0  0  0  0  0
    7.8300  -16.4102   26.9528 C   0  0  0  0  0  0  0  0  0  0  0  0
    7.5231  -15.0102   26.6583 C   0  0  0  0  0  0  0  0  0  0  0  0
    6.2194  -14.5167   26.7476 C   0  0  0  0  0  0  0  0  0  0  0  0
    5.9024  -13.2041   26.4773 C   0  0  0  0  0  0  0  0  0  0  0  0
    6.9028  -12.3320   26.1024 C   0  0  0  0  0  0  0  0  0  0  0  0
    8.2125  -12.7801   26.0009 C   0  0  0  0  0  0  0  0  0  0  0  0
    8.4899  -14.0966   26.2786 C   0  0  0  0  0  0  0  0  0  0  0  0
    7.0773  -17.4998   24.8263 C   0  0  0  0  0  0  0  0  0  0  0  0
    7.8767  -18.3406   24.3490 O   0  0  0  0  0  0  0  0  0  0  0  0
    5.4160  -16.1288   21.7284 C   0  0  0  0  0  0  0  0  0  0  0  0
    6.4613  -16.9440   22.4834 C   0  0  2  0  0  0  0  0  0  0  0  0
    6.3588  -16.6895   23.9062 N   0  0  0  0  0  0  0  0  0  0  0  0
    7.8358  -16.6060   22.0015 C   0  0  0  0  0  0  0  0  0  0  0  0
    8.0897  -16.6025   20.7679 O   0  0  0  0  0  0  0  0  0  0  0  0
    7.6256  -13.3795   16.9720 O   0  0  0  0  0  0  0  0  0  0  0  0
    8.1298  -13.5606   18.2531 C   0  0  0  0  0  0  0  0  0  0  0  0
    7.6560  -12.7839   19.2877 C   0  0  0  0  0  0  0  0  0  0  0  0
    8.1684  -12.9815   20.5402 C   0  0  0  0  0  0  0  0  0  0  0  0
    9.1419  -13.9343   20.7879 C   0  0  0  0  0  0  0  0  0  0  0  0
    9.6870  -14.1395   22.1316 C   0  0  0  0  0  0  0  0  0  0  0  0
   10.0706  -15.5824   22.4051 C   0  0  2  0  0  0  0  0  0  0  0  0
    8.8878  -16.2832   22.8784 N   0  0  0  0  0  0  0  0  0  0  0  0
   11.2132  -15.7423   23.2958 C   0  0  0  0  0  0  0  0  0  0  0  0
   12.4731  -15.2759   22.9435 O   0  0  0  0  0  0  0  0  0  0  0  0
    9.5974  -14.6985   19.7290 C   0  0  0  0  0  0  0  0  0  0  0  0
    9.0925  -14.5131   18.4602 C   0  0  0  0  0  0  0  0  0  0  0  0
   11.1182  -16.3032   24.4148 O   0  0  0  0  0  0  0  0  0  0  0  0
  2  1  1  1
  2  3  1  0
  4  3  1  0
  4  9  1  0
  5  4  2  0
  6  5  1  0
  6  7  2  0
  7  8  1  0
  8  9  2  0
 10  2  1  0
 11 10  2  0
 13 12  1  6
 13 14  1  0
 14 10  1  0
 15 13  1  0
 15 16  2  0
 18 17  1  0
 19 18  2  0
 20 19  1  0
 21 20  2  0
 21 27  1  0
 23 22  1  1
 22 21  1  0
 23 24  1  0
 24 15  1  0
 25 23  1  0
 26 25  1  0
 27 28  2  0
 28 18  1  0
 29 25  2  0
M  END
$$$$
