FAY.pdb
     RDKit          3D

 29 30  0  0  1  0  0  0  0  0999 V2000
    6.4719  -17.4448   22.2298 N   0  0  0  0  0  0  0  0  0  0  0  0
    7.2812  -16.5671   23.0857 C   0  0  1  0  0  0  0  0  0  0  0  0
    6.4943  -16.1013   24.2624 C   0  0  0  0  0  0  0  0  0  0  0  0
    6.6906  -14.6896   24.5927 C   0  0  0  0  0  0  0  0  0  0  0  0
    6.1519  -14.1325   25.7548 C   0  0  0  0  0  0  0  0  0  0  0  0
    6.3219  -12.8078   26.0908 C   0  0  0  0  0  0  0  0  0  0  0  0
    7.0509  -11.9881   25.2549 C   0  0  0  0  0  0  0  0  0  0  0  0
    7.6040  -12.5001   24.0896 C   0  0  0  0  0  0  0  0  0  0  0  0
    7.4129  -13.8268   23.7881 C   0  0  0  0  0  0  0  0  0  0  0  0
    8.5783  -17.2022   23.4134 C   0  0  0  0  0  0  0  0  0  0  0  0
    8.6013  -18.3457   23.9287 O   0  0  0  0  0  0  0  0  0  0  0  0
   12.1868  -16.7303   22.5689 C   0  0  0  0  0  0  0  0  0  0  0  0
   11.0624  -17.2843   23.4384 C   0  0  2  0  0  0  0  0  0  0  0  0
    9.8290  -16.5726   23.1705 N   0  0  0  0  0  0  0  0  0  0  0  0
   11.4155  -17.1678   24.8866 C   0  0  0  0  0  0  0  0  0  0  0  0
   12.2182  -16.2768   25.2715 O   0  0  0  0  0  0  0  0  0  0  0  0
    9.8023  -12.0374   28.1314 O   0  0  0  0  0  0  0  0  0  0  0  0
    9.9537  -13.4177   28.1405 C   0  0  0  0  0  0  0  0  0  0  0  0
    9.1545  -14.1960   27.3319 C   0  0  0  0  0  0  0  0  0  0  0  0
    9.3231  -15.5529   27.3588 C   0  0  0  0  0  0  0  0  0  0  0  0
   10.2688  -16.1542   28.1718 C   0  0  0  0  0  0  0  0  0  0  0  0
   10.4429  -17.6082   28.1965 C   0  0  0  0  0  0  0  0  0  0  0  0
   11.4710  -18.1023   27.1950 C   0  0  2  0  0  0  0  0  0  0  0  0
   10.8831  -18.0248   25.8674 N   0  0  0  0  0  0  0  0  0  0  0  0
   12.0151  -19.4212   27.4931 C   0  0  0  0  0  0  0  0  0  0  0  0
   11.8879  -20.4735   26.5956 O   0  0  0  0  0  0  0  0  0  0  0  0
   11.0560  -15.3465   28.9722 C   0  0  0  0  0  0  0  0  0  0  0  0
   10.9000  -13.9773   28.9579 C   0  0  0  0  0  0  0  0  0  0  0  0
   12.6201  -19.6709   28.5641 O   0  0  0  0  0  0  0  0  0  0  0  0
  2  1  1  1
  2  3  1  0
  4  3  1  0
  4  9  1  0
  5  4  2  0
  6  5  1  0
  6  7  2  0
  7  8  1  0
  8  9  2  0
 10  2  1  0
 11 10  2  0
 13 12  1  6
 13 14  1  0
 14 10  1  0
 15 13  1  0
 15 16  2  0
 18 17  1  0
 19 18  2  0
 20 19  1  0
 21 20  2  0
 21 27  1  0
 23 22  1  1
 22 21  1  0
 23 24  1  0
 24 15  1  0
 25 23  1  0
 26 25  1  0
 27 28  2  0
 28 18  1  0
 29 25  2  0
M  END
$$$$
