FAY.pdb
     RDKit          3D

 29 30  0  0  1  0  0  0  0  0999 V2000
    7.4068  -17.8013   20.0316 N   0  0  0  0  0  0  0  0  0  0  0  0
    8.4401  -17.4239   19.0581 C   0  0  1  0  0  0  0  0  0  0  0  0
    9.2831  -16.3128   19.5834 C   0  0  0  0  0  0  0  0  0  0  0  0
    8.5745  -15.0409   19.7278 C   0  0  0  0  0  0  0  0  0  0  0  0
    8.3241  -14.4861   20.9850 C   0  0  0  0  0  0  0  0  0  0  0  0
    7.6607  -13.2905   21.1501 C   0  0  0  0  0  0  0  0  0  0  0  0
    7.2211  -12.6039   20.0378 C   0  0  0  0  0  0  0  0  0  0  0  0
    7.4485  -13.1188   18.7692 C   0  0  0  0  0  0  0  0  0  0  0  0
    8.1138  -14.3144   18.6446 C   0  0  0  0  0  0  0  0  0  0  0  0
    9.1914  -18.6150   18.5999 C   0  0  0  0  0  0  0  0  0  0  0  0
    9.4673  -19.5301   19.4124 O   0  0  0  0  0  0  0  0  0  0  0  0
   10.0840  -20.3162   15.4175 C   0  0  0  0  0  0  0  0  0  0  0  0
   10.3608  -19.9737   16.8781 C   0  0  2  0  0  0  0  0  0  0  0  0
    9.6277  -18.7829   17.2579 N   0  0  0  0  0  0  0  0  0  0  0  0
   11.8249  -19.7641   17.0975 C   0  0  0  0  0  0  0  0  0  0  0  0
   12.6365  -20.7034   16.8848 O   0  0  0  0  0  0  0  0  0  0  0  0
   14.2141  -18.2043   11.4289 O   0  0  0  0  0  0  0  0  0  0  0  0
   14.2363  -17.9587   12.7954 C   0  0  0  0  0  0  0  0  0  0  0  0
   15.3716  -18.2469   13.5209 C   0  0  0  0  0  0  0  0  0  0  0  0
   15.3686  -17.9959   14.8653 C   0  0  0  0  0  0  0  0  0  0  0  0
   14.2618  -17.4645   15.5054 C   0  0  0  0  0  0  0  0  0  0  0  0
   14.2653  -17.1996   16.9458 C   0  0  0  0  0  0  0  0  0  0  0  0
   13.7836  -18.3798   17.7699 C   0  0  2  0  0  0  0  0  0  0  0  0
   12.3567  -18.5391   17.5411 N   0  0  0  0  0  0  0  0  0  0  0  0
   14.1210  -18.3020   19.1858 C   0  0  0  0  0  0  0  0  0  0  0  0
   15.4381  -18.1728   19.6072 O   0  0  0  0  0  0  0  0  0  0  0  0
   13.1372  -17.1859   14.7503 C   0  0  0  0  0  0  0  0  0  0  0  0
   13.1224  -17.4323   13.3944 C   0  0  0  0  0  0  0  0  0  0  0  0
   13.2483  -18.3472   20.0868 O   0  0  0  0  0  0  0  0  0  0  0  0
  2  1  1  1
  2  3  1  0
  4  3  1  0
  4  9  1  0
  5  4  2  0
  6  5  1  0
  6  7  2  0
  7  8  1  0
  8  9  2  0
 10  2  1  0
 11 10  2  0
 13 12  1  6
 13 14  1  0
 14 10  1  0
 15 13  1  0
 15 16  2  0
 18 17  1  0
 19 18  2  0
 20 19  1  0
 21 20  2  0
 21 27  1  0
 23 22  1  6
 22 21  1  0
 23 24  1  0
 24 15  1  0
 25 23  1  0
 26 25  1  0
 27 28  2  0
 28 18  1  0
 29 25  2  0
M  END
$$$$
