FAY.pdb
     RDKit          3D

 29 30  0  0  1  0  0  0  0  0999 V2000
    7.6165  -16.2015   19.5232 N   0  0  0  0  0  0  0  0  0  0  0  0
    7.9006  -15.5421   20.8047 C   0  0  1  0  0  0  0  0  0  0  0  0
    6.6380  -15.2326   21.5333 C   0  0  0  0  0  0  0  0  0  0  0  0
    6.8237  -14.4125   22.7306 C   0  0  0  0  0  0  0  0  0  0  0  0
    6.4200  -14.8617   23.9901 C   0  0  0  0  0  0  0  0  0  0  0  0
    6.5835  -14.1116   25.1334 C   0  0  0  0  0  0  0  0  0  0  0  0
    7.1677  -12.8655   25.0447 C   0  0  0  0  0  0  0  0  0  0  0  0
    7.5837  -12.3798   23.8130 C   0  0  0  0  0  0  0  0  0  0  0  0
    7.4037  -13.1572   22.6947 C   0  0  0  0  0  0  0  0  0  0  0  0
    8.8982  -16.3120   21.5827 C   0  0  0  0  0  0  0  0  0  0  0  0
    8.8172  -17.5626   21.6377 O   0  0  0  0  0  0  0  0  0  0  0  0
   12.2191  -15.6553   23.2245 C   0  0  0  0  0  0  0  0  0  0  0  0
   11.0041  -16.5140   22.8874 C   0  0  2  0  0  0  0  0  0  0  0  0
    9.9681  -15.6974   22.2878 N   0  0  0  0  0  0  0  0  0  0  0  0
   10.4795  -17.1832   24.1174 C   0  0  0  0  0  0  0  0  0  0  0  0
   11.1710  -18.0564   24.7052 O   0  0  0  0  0  0  0  0  0  0  0  0
   11.9017  -14.4348   30.3754 O   0  0  0  0  0  0  0  0  0  0  0  0
   10.9690  -14.9464   29.4830 C   0  0  0  0  0  0  0  0  0  0  0  0
   10.3849  -14.1119   28.5552 C   0  0  0  0  0  0  0  0  0  0  0  0
    9.4693  -14.6398   27.6872 C   0  0  0  0  0  0  0  0  0  0  0  0
    9.1208  -15.9794   27.7205 C   0  0  0  0  0  0  0  0  0  0  0  0
    8.1385  -16.5375   26.7887 C   0  0  0  0  0  0  0  0  0  0  0  0
    8.7301  -17.5711   25.8476 C   0  0  2  0  0  0  0  0  0  0  0  0
    9.2199  -16.8796   24.6662 N   0  0  0  0  0  0  0  0  0  0  0  0
    7.8320  -18.6723   25.5229 C   0  0  0  0  0  0  0  0  0  0  0  0
    7.4239  -19.5798   26.4919 O   0  0  0  0  0  0  0  0  0  0  0  0
    9.7243  -16.7918   28.6631 C   0  0  0  0  0  0  0  0  0  0  0  0
   10.6491  -16.2770   29.5457 C   0  0  0  0  0  0  0  0  0  0  0  0
    7.3862  -18.8549   24.3638 O   0  0  0  0  0  0  0  0  0  0  0  0
  2  1  1  6
  2  3  1  0
  4  3  1  0
  4  9  1  0
  5  4  2  0
  6  5  1  0
  6  7  2  0
  7  8  1  0
  8  9  2  0
 10  2  1  0
 11 10  2  0
 13 12  1  1
 13 14  1  0
 14 10  1  0
 15 13  1  0
 15 16  2  0
 18 17  1  0
 19 18  2  0
 20 19  1  0
 21 20  2  0
 21 27  1  0
 23 22  1  1
 22 21  1  0
 23 24  1  0
 24 15  1  0
 25 23  1  0
 26 25  1  0
 27 28  2  0
 28 18  1  0
 29 25  2  0
M  END
$$$$
