FAY.pdb
     RDKit          3D

 29 30  0  0  1  0  0  0  0  0999 V2000
    6.5822  -18.1301   22.7337 N   0  0  0  0  0  0  0  0  0  0  0  0
    7.9257  -17.7161   22.3079 C   0  0  1  0  0  0  0  0  0  0  0  0
    7.8490  -16.7468   21.1785 C   0  0  0  0  0  0  0  0  0  0  0  0
    7.5143  -15.3813   21.5837 C   0  0  0  0  0  0  0  0  0  0  0  0
    8.5085  -14.4375   21.8517 C   0  0  0  0  0  0  0  0  0  0  0  0
    8.2221  -13.1457   22.2335 C   0  0  0  0  0  0  0  0  0  0  0  0
    6.9053  -12.7558   22.3599 C   0  0  0  0  0  0  0  0  0  0  0  0
    5.8854  -13.6615   22.1034 C   0  0  0  0  0  0  0  0  0  0  0  0
    6.2104  -14.9415   21.7247 C   0  0  0  0  0  0  0  0  0  0  0  0
    8.7285  -17.2626   23.4668 C   0  0  0  0  0  0  0  0  0  0  0  0
    8.2127  -16.5100   24.3277 O   0  0  0  0  0  0  0  0  0  0  0  0
   10.7565  -15.3946   22.9971 C   0  0  0  0  0  0  0  0  0  0  0  0
   11.1040  -16.6262   23.8275 C   0  0  2  0  0  0  0  0  0  0  0  0
   10.0840  -17.6421   23.6624 N   0  0  0  0  0  0  0  0  0  0  0  0
   11.2342  -16.2629   25.2721 C   0  0  0  0  0  0  0  0  0  0  0  0
   12.3446  -15.8848   25.7308 O   0  0  0  0  0  0  0  0  0  0  0  0
    7.4720  -10.9617   25.1560 O   0  0  0  0  0  0  0  0  0  0  0  0
    7.8780  -12.0629   25.8982 C   0  0  0  0  0  0  0  0  0  0  0  0
    8.8841  -11.9234   26.8291 C   0  0  0  0  0  0  0  0  0  0  0  0
    9.2659  -13.0228   27.5475 C   0  0  0  0  0  0  0  0  0  0  0  0
    8.6699  -14.2586   27.3613 C   0  0  0  0  0  0  0  0  0  0  0  0
    9.0849  -15.4318   28.1333 C   0  0  0  0  0  0  0  0  0  0  0  0
   10.3417  -16.0879   27.5911 C   0  0  2  0  0  0  0  0  0  0  0  0
   10.1517  -16.3234   26.1690 N   0  0  0  0  0  0  0  0  0  0  0  0
   10.7518  -17.2877   28.3101 C   0  0  0  0  0  0  0  0  0  0  0  0
   11.1190  -17.2362   29.6485 O   0  0  0  0  0  0  0  0  0  0  0  0
    7.6629  -14.3669   26.4196 C   0  0  0  0  0  0  0  0  0  0  0  0
    7.2653  -13.2697   25.6866 C   0  0  0  0  0  0  0  0  0  0  0  0
   10.7934  -18.4165   27.7627 O   0  0  0  0  0  0  0  0  0  0  0  0
  2  1  1  1
  2  3  1  0
  4  3  1  0
  4  9  1  0
  5  4  2  0
  6  5  1  0
  6  7  2  0
  7  8  1  0
  8  9  2  0
 10  2  1  0
 11 10  2  0
 13 12  1  6
 13 14  1  0
 14 10  1  0
 15 13  1  0
 15 16  2  0
 18 17  1  0
 19 18  2  0
 20 19  1  0
 21 20  2  0
 21 27  1  0
 23 22  1  1
 22 21  1  0
 23 24  1  0
 24 15  1  0
 25 23  1  0
 26 25  1  0
 27 28  2  0
 28 18  1  0
 29 25  2  0
M  END
$$$$
