FAY.pdb
     RDKit          3D

 29 30  0  0  1  0  0  0  0  0999 V2000
    7.0169  -19.3164   19.6118 N   0  0  0  0  0  0  0  0  0  0  0  0
    8.0584  -18.7106   20.4520 C   0  0  1  0  0  0  0  0  0  0  0  0
    9.4075  -19.2166   20.0717 C   0  0  0  0  0  0  0  0  0  0  0  0
   10.4713  -18.8435   21.0044 C   0  0  0  0  0  0  0  0  0  0  0  0
   11.3749  -17.8210   20.7062 C   0  0  0  0  0  0  0  0  0  0  0  0
   12.3845  -17.4485   21.5656 C   0  0  0  0  0  0  0  0  0  0  0  0
   12.5195  -18.1033   22.7718 C   0  0  0  0  0  0  0  0  0  0  0  0
   11.6434  -19.1256   23.1086 C   0  0  0  0  0  0  0  0  0  0  0  0
   10.6487  -19.4690   22.2254 C   0  0  0  0  0  0  0  0  0  0  0  0
    7.9270  -17.2356   20.4712 C   0  0  0  0  0  0  0  0  0  0  0  0
    8.2198  -16.5692   19.4495 O   0  0  0  0  0  0  0  0  0  0  0  0
    6.7311  -14.2036   21.8206 C   0  0  0  0  0  0  0  0  0  0  0  0
    7.9234  -15.1551   21.8311 C   0  0  2  0  0  0  0  0  0  0  0  0
    7.4766  -16.5158   21.6108 N   0  0  0  0  0  0  0  0  0  0  0  0
    8.6552  -15.0619   23.1318 C   0  0  0  0  0  0  0  0  0  0  0  0
    9.3295  -14.0338   23.4050 O   0  0  0  0  0  0  0  0  0  0  0  0
    6.5923  -10.5363   26.8912 O   0  0  0  0  0  0  0  0  0  0  0  0
    7.0707  -11.8359   26.7894 C   0  0  0  0  0  0  0  0  0  0  0  0
    8.4281  -12.0676   26.8334 C   0  0  0  0  0  0  0  0  0  0  0  0
    8.8742  -13.3564   26.7312 C   0  0  0  0  0  0  0  0  0  0  0  0
    8.0009  -14.4209   26.5861 C   0  0  0  0  0  0  0  0  0  0  0  0
    8.4859  -15.7984   26.4759 C   0  0  0  0  0  0  0  0  0  0  0  0
    9.4272  -16.0067   25.3034 C   0  0  2  0  0  0  0  0  0  0  0  0
    8.6285  -16.0906   24.0914 N   0  0  0  0  0  0  0  0  0  0  0  0
   10.3375  -17.1347   25.4563 C   0  0  0  0  0  0  0  0  0  0  0  0
   11.1331  -17.2713   26.5865 O   0  0  0  0  0  0  0  0  0  0  0  0
    6.6441  -14.1566   26.5452 C   0  0  0  0  0  0  0  0  0  0  0  0
    6.1766  -12.8641   26.6468 C   0  0  0  0  0  0  0  0  0  0  0  0
   10.4479  -18.0308   24.5843 O   0  0  0  0  0  0  0  0  0  0  0  0
  2  1  1  6
  2  3  1  0
  4  3  1  0
  4  9  1  0
  5  4  2  0
  6  5  1  0
  6  7  2  0
  7  8  1  0
  8  9  2  0
 10  2  1  0
 11 10  2  0
 13 12  1  1
 13 14  1  0
 14 10  1  0
 15 13  1  0
 15 16  2  0
 18 17  1  0
 19 18  2  0
 20 19  1  0
 21 20  2  0
 21 27  1  0
 23 22  1  1
 22 21  1  0
 23 24  1  0
 24 15  1  0
 25 23  1  0
 26 25  1  0
 27 28  2  0
 28 18  1  0
 29 25  2  0
M  END
$$$$
