FAY.pdb
     RDKit          3D

 29 30  0  0  1  0  0  0  0  0999 V2000
    6.0297  -16.4034   25.1519 N   0  0  0  0  0  0  0  0  0  0  0  0
    7.1169  -15.6824   24.4768 C   0  0  1  0  0  0  0  0  0  0  0  0
    7.8202  -14.7737   25.4258 C   0  0  0  0  0  0  0  0  0  0  0  0
    7.1038  -13.5287   25.7043 C   0  0  0  0  0  0  0  0  0  0  0  0
    5.7814  -13.5351   26.1539 C   0  0  0  0  0  0  0  0  0  0  0  0
    5.0838  -12.3790   26.4246 C   0  0  0  0  0  0  0  0  0  0  0  0
    5.7043  -11.1599   26.2490 C   0  0  0  0  0  0  0  0  0  0  0  0
    7.0177  -11.1072   25.8038 C   0  0  0  0  0  0  0  0  0  0  0  0
    7.6811  -12.2819   25.5441 C   0  0  0  0  0  0  0  0  0  0  0  0
    7.9962  -16.6224   23.7443 C   0  0  0  0  0  0  0  0  0  0  0  0
    7.6079  -17.7937   23.5187 O   0  0  0  0  0  0  0  0  0  0  0  0
    9.2813  -16.9750   20.9394 C   0  0  0  0  0  0  0  0  0  0  0  0
    9.9617  -17.0984   22.2993 C   0  0  2  0  0  0  0  0  0  0  0  0
    9.2870  -16.2621   23.2714 N   0  0  0  0  0  0  0  0  0  0  0  0
   11.4016  -16.7077   22.2008 C   0  0  0  0  0  0  0  0  0  0  0  0
   12.1595  -17.2895   21.3802 O   0  0  0  0  0  0  0  0  0  0  0  0
   11.4650  -16.0418   30.7247 O   0  0  0  0  0  0  0  0  0  0  0  0
   11.3271  -16.0153   29.3432 C   0  0  0  0  0  0  0  0  0  0  0  0
   11.4717  -17.1802   28.6217 C   0  0  0  0  0  0  0  0  0  0  0  0
   11.3311  -17.1279   27.2623 C   0  0  0  0  0  0  0  0  0  0  0  0
   11.0498  -15.9432   26.6033 C   0  0  0  0  0  0  0  0  0  0  0  0
   10.9020  -15.8946   25.1471 C   0  0  0  0  0  0  0  0  0  0  0  0
   12.2300  -15.9152   24.4123 C   0  0  2  0  0  0  0  0  0  0  0  0
   11.9684  -15.6968   22.9988 N   0  0  0  0  0  0  0  0  0  0  0  0
   13.0348  -17.1053   24.6581 C   0  0  0  0  0  0  0  0  0  0  0  0
   14.1255  -17.0735   25.5174 O   0  0  0  0  0  0  0  0  0  0  0  0
   10.9104  -14.7907   27.3548 C   0  0  0  0  0  0  0  0  0  0  0  0
   11.0487  -14.8246   28.7256 C   0  0  0  0  0  0  0  0  0  0  0  0
   12.7861  -18.2078   24.1121 O   0  0  0  0  0  0  0  0  0  0  0  0
  2  1  1  1
  2  3  1  0
  4  3  1  0
  4  9  1  0
  5  4  2  0
  6  5  1  0
  6  7  2  0
  7  8  1  0
  8  9  2  0
 10  2  1  0
 11 10  2  0
 13 12  1  6
 13 14  1  0
 14 10  1  0
 15 13  1  0
 15 16  2  0
 18 17  1  0
 19 18  2  0
 20 19  1  0
 21 20  2  0
 21 27  1  0
 23 22  1  1
 22 21  1  0
 23 24  1  0
 24 15  1  0
 25 23  1  0
 26 25  1  0
 27 28  2  0
 28 18  1  0
 29 25  2  0
M  END
$$$$
