FAY.pdb
     RDKit          3D

 29 30  0  0  1  0  0  0  0  0999 V2000
    6.9009  -18.6387   27.1641 N   0  0  0  0  0  0  0  0  0  0  0  0
    6.9505  -17.4493   26.3035 C   0  0  1  0  0  0  0  0  0  0  0  0
    7.9085  -16.4436   26.8436 C   0  0  0  0  0  0  0  0  0  0  0  0
    7.4994  -15.0545   26.6340 C   0  0  0  0  0  0  0  0  0  0  0  0
    8.3535  -14.1272   26.0327 C   0  0  0  0  0  0  0  0  0  0  0  0
    7.9941  -12.8146   25.8222 C   0  0  0  0  0  0  0  0  0  0  0  0
    6.7439  -12.3860   26.2162 C   0  0  0  0  0  0  0  0  0  0  0  0
    5.8632  -13.2740   26.8178 C   0  0  0  0  0  0  0  0  0  0  0  0
    6.2576  -14.5758   27.0110 C   0  0  0  0  0  0  0  0  0  0  0  0
    7.1762  -17.8312   24.8906 C   0  0  0  0  0  0  0  0  0  0  0  0
    7.9812  -18.7527   24.6137 O   0  0  0  0  0  0  0  0  0  0  0  0
    5.6787  -17.1397   21.5148 C   0  0  0  0  0  0  0  0  0  0  0  0
    6.7913  -17.6136   22.4447 C   0  0  2  0  0  0  0  0  0  0  0  0
    6.5153  -17.1961   23.8046 N   0  0  0  0  0  0  0  0  0  0  0  0
    8.1111  -17.0688   22.0008 C   0  0  0  0  0  0  0  0  0  0  0  0
    8.5907  -17.4053   20.8858 O   0  0  0  0  0  0  0  0  0  0  0  0
    7.2924  -13.1385   17.3539 O   0  0  0  0  0  0  0  0  0  0  0  0
    7.9886  -13.4157   18.5230 C   0  0  0  0  0  0  0  0  0  0  0  0
    7.3834  -13.2045   19.7426 C   0  0  0  0  0  0  0  0  0  0  0  0
    8.0900  -13.4853   20.8794 C   0  0  0  0  0  0  0  0  0  0  0  0
    9.3854  -13.9716   20.8314 C   0  0  0  0  0  0  0  0  0  0  0  0
   10.1365  -14.2688   22.0530 C   0  0  0  0  0  0  0  0  0  0  0  0
   10.1925  -15.7517   22.3721 C   0  0  2  0  0  0  0  0  0  0  0  0
    8.8647  -16.1762   22.7852 N   0  0  0  0  0  0  0  0  0  0  0  0
   11.2252  -16.1215   23.3320 C   0  0  0  0  0  0  0  0  0  0  0  0
   10.9049  -16.7412   24.5330 O   0  0  0  0  0  0  0  0  0  0  0  0
    9.9658  -14.1733   19.5924 C   0  0  0  0  0  0  0  0  0  0  0  0
    9.2687  -13.8959   18.4364 C   0  0  0  0  0  0  0  0  0  0  0  0
   12.4435  -15.9016   23.1247 O   0  0  0  0  0  0  0  0  0  0  0  0
  2  1  1  1
  2  3  1  0
  4  3  1  0
  4  9  1  0
  5  4  2  0
  6  5  1  0
  6  7  2  0
  7  8  1  0
  8  9  2  0
 10  2  1  0
 11 10  2  0
 13 12  1  6
 13 14  1  0
 14 10  1  0
 15 13  1  0
 15 16  2  0
 18 17  1  0
 19 18  2  0
 20 19  1  0
 21 20  2  0
 21 27  1  0
 23 22  1  1
 22 21  1  0
 23 24  1  0
 24 15  1  0
 25 23  1  0
 26 25  1  0
 27 28  2  0
 28 18  1  0
 29 25  2  0
M  END
$$$$
