FAY.pdb
     RDKit          3D

 29 30  0  0  1  0  0  0  0  0999 V2000
    8.8817  -16.6081   22.6679 N   0  0  0  0  0  0  0  0  0  0  0  0
    7.6815  -16.2941   23.4545 C   0  0  1  0  0  0  0  0  0  0  0  0
    6.6502  -15.6316   22.6068 C   0  0  0  0  0  0  0  0  0  0  0  0
    7.1979  -14.7272   21.5954 C   0  0  0  0  0  0  0  0  0  0  0  0
    8.5756  -14.5565   21.4413 C   0  0  0  0  0  0  0  0  0  0  0  0
    9.1182  -13.7132   20.4974 C   0  0  0  0  0  0  0  0  0  0  0  0
    8.2786  -13.0033   19.6650 C   0  0  0  0  0  0  0  0  0  0  0  0
    6.9029  -13.1426   19.7835 C   0  0  0  0  0  0  0  0  0  0  0  0
    6.3988  -13.9935   20.7371 C   0  0  0  0  0  0  0  0  0  0  0  0
    7.2099  -17.4875   24.1937 C   0  0  0  0  0  0  0  0  0  0  0  0
    6.3426  -18.2362   23.6828 O   0  0  0  0  0  0  0  0  0  0  0  0
    9.6503  -18.6206   24.2476 C   0  0  0  0  0  0  0  0  0  0  0  0
    9.0023  -18.4543   25.6186 C   0  0  2  0  0  0  0  0  0  0  0  0
    7.6972  -17.8400   25.4813 N   0  0  0  0  0  0  0  0  0  0  0  0
    9.8682  -17.6210   26.5085 C   0  0  0  0  0  0  0  0  0  0  0  0
   11.1124  -17.8140   26.5401 O   0  0  0  0  0  0  0  0  0  0  0  0
    6.4433  -12.5109   24.2480 O   0  0  0  0  0  0  0  0  0  0  0  0
    7.1905  -13.0095   25.3069 C   0  0  0  0  0  0  0  0  0  0  0  0
    6.5561  -13.6662   26.3387 C   0  0  0  0  0  0  0  0  0  0  0  0
    7.3142  -14.1481   27.3700 C   0  0  0  0  0  0  0  0  0  0  0  0
    8.6896  -13.9920   27.3990 C   0  0  0  0  0  0  0  0  0  0  0  0
    9.4948  -14.5095   28.5073 C   0  0  0  0  0  0  0  0  0  0  0  0
   10.2269  -15.7939   28.1630 C   0  0  2  0  0  0  0  0  0  0  0  0
    9.3509  -16.6058   27.3340 N   0  0  0  0  0  0  0  0  0  0  0  0
   10.7416  -16.5204   29.3171 C   0  0  0  0  0  0  0  0  0  0  0  0
   10.3916  -17.8440   29.5508 O   0  0  0  0  0  0  0  0  0  0  0  0
    9.2975  -13.3284   26.3489 C   0  0  0  0  0  0  0  0  0  0  0  0
    8.5495  -12.8362   25.3013 C   0  0  0  0  0  0  0  0  0  0  0  0
   11.5191  -15.9931   30.1496 O   0  0  0  0  0  0  0  0  0  0  0  0
  2  1  1  6
  2  3  1  0
  4  3  1  0
  4  9  1  0
  5  4  2  0
  6  5  1  0
  6  7  2  0
  7  8  1  0
  8  9  2  0
 10  2  1  0
 11 10  2  0
 13 12  1  6
 13 14  1  0
 14 10  1  0
 15 13  1  0
 15 16  2  0
 18 17  1  0
 19 18  2  0
 20 19  1  0
 21 20  2  0
 21 27  1  0
 23 22  1  1
 22 21  1  0
 23 24  1  0
 24 15  1  0
 25 23  1  0
 26 25  1  0
 27 28  2  0
 28 18  1  0
 29 25  2  0
M  END
$$$$
