FAY.pdb
     RDKit          3D

 29 30  0  0  1  0  0  0  0  0999 V2000
    6.1335  -18.2817   25.6458 N   0  0  0  0  0  0  0  0  0  0  0  0
    6.2849  -16.8741   25.2541 C   0  0  1  0  0  0  0  0  0  0  0  0
    6.6170  -16.0277   26.4349 C   0  0  0  0  0  0  0  0  0  0  0  0
    6.4032  -14.5958   26.2238 C   0  0  0  0  0  0  0  0  0  0  0  0
    5.1186  -14.0637   26.0909 C   0  0  0  0  0  0  0  0  0  0  0  0
    4.8884  -12.7205   25.8927 C   0  0  0  0  0  0  0  0  0  0  0  0
    5.9603  -11.8557   25.8208 C   0  0  0  0  0  0  0  0  0  0  0  0
    7.2541  -12.3417   25.9476 C   0  0  0  0  0  0  0  0  0  0  0  0
    7.4440  -13.6881   26.1444 C   0  0  0  0  0  0  0  0  0  0  0  0
    7.2164  -16.7436   24.1102 C   0  0  0  0  0  0  0  0  0  0  0  0
    8.1190  -17.5979   23.9392 O   0  0  0  0  0  0  0  0  0  0  0  0
    7.5310  -14.5814   21.0297 C   0  0  0  0  0  0  0  0  0  0  0  0
    7.9207  -15.7327   21.9515 C   0  0  2  0  0  0  0  0  0  0  0  0
    7.1426  -15.6782   23.1727 N   0  0  0  0  0  0  0  0  0  0  0  0
    9.3800  -15.6746   22.2723 C   0  0  0  0  0  0  0  0  0  0  0  0
   10.2312  -15.6675   21.3440 O   0  0  0  0  0  0  0  0  0  0  0  0
   10.0460  -17.2650   29.8261 O   0  0  0  0  0  0  0  0  0  0  0  0
   10.3855  -16.5911   28.6604 C   0  0  0  0  0  0  0  0  0  0  0  0
   10.3843  -15.2135   28.6450 C   0  0  0  0  0  0  0  0  0  0  0  0
   10.7223  -14.5731   27.4848 C   0  0  0  0  0  0  0  0  0  0  0  0
   11.0618  -15.2717   26.3386 C   0  0  0  0  0  0  0  0  0  0  0  0
   11.4214  -14.5792   25.0993 C   0  0  0  0  0  0  0  0  0  0  0  0
   11.2814  -15.4532   23.8662 C   0  0  2  0  0  0  0  0  0  0  0  0
    9.8639  -15.6260   23.5927 N   0  0  0  0  0  0  0  0  0  0  0  0
   11.9980  -16.7201   23.9427 C   0  0  0  0  0  0  0  0  0  0  0  0
   13.3844  -16.7611   24.0162 O   0  0  0  0  0  0  0  0  0  0  0  0
   11.0538  -16.6538   26.3852 C   0  0  0  0  0  0  0  0  0  0  0  0
   10.7158  -17.3159   27.5457 C   0  0  0  0  0  0  0  0  0  0  0  0
   11.4057  -17.8268   23.9462 O   0  0  0  0  0  0  0  0  0  0  0  0
  2  1  1  1
  2  3  1  0
  4  3  1  0
  4  9  1  0
  5  4  2  0
  6  5  1  0
  6  7  2  0
  7  8  1  0
  8  9  2  0
 10  2  1  0
 11 10  2  0
 13 12  1  6
 13 14  1  0
 14 10  1  0
 15 13  1  0
 15 16  2  0
 18 17  1  0
 19 18  2  0
 20 19  1  0
 21 20  2  0
 21 27  1  0
 23 22  1  1
 22 21  1  0
 23 24  1  0
 24 15  1  0
 25 23  1  0
 26 25  1  0
 27 28  2  0
 28 18  1  0
 29 25  2  0
M  END
$$$$
