FAY.pdb
     RDKit          3D

 29 30  0  0  1  0  0  0  0  0999 V2000
    5.6873  -18.3700   24.9267 N   0  0  0  0  0  0  0  0  0  0  0  0
    6.1588  -16.9819   24.8337 C   0  0  1  0  0  0  0  0  0  0  0  0
    6.6086  -16.4843   26.1645 C   0  0  0  0  0  0  0  0  0  0  0  0
    6.8285  -15.0388   26.2197 C   0  0  0  0  0  0  0  0  0  0  0  0
    5.7591  -14.1409   26.2549 C   0  0  0  0  0  0  0  0  0  0  0  0
    5.9370  -12.7764   26.3082 C   0  0  0  0  0  0  0  0  0  0  0  0
    7.2170  -12.2632   26.3282 C   0  0  0  0  0  0  0  0  0  0  0  0
    8.3088  -13.1194   26.2946 C   0  0  0  0  0  0  0  0  0  0  0  0
    8.0914  -14.4749   26.2416 C   0  0  0  0  0  0  0  0  0  0  0  0
    7.1509  -16.8351   23.7439 C   0  0  0  0  0  0  0  0  0  0  0  0
    7.9609  -17.7634   23.5077 O   0  0  0  0  0  0  0  0  0  0  0  0
    7.8372  -14.4361   20.9168 C   0  0  0  0  0  0  0  0  0  0  0  0
    8.1313  -15.6516   21.7905 C   0  0  2  0  0  0  0  0  0  0  0  0
    7.2381  -15.6725   22.9314 N   0  0  0  0  0  0  0  0  0  0  0  0
    9.5525  -15.6303   22.2546 C   0  0  0  0  0  0  0  0  0  0  0  0
   10.4892  -15.5415   21.4173 O   0  0  0  0  0  0  0  0  0  0  0  0
   10.2182  -16.4853   30.2279 O   0  0  0  0  0  0  0  0  0  0  0  0
   10.4889  -15.9717   28.9665 C   0  0  0  0  0  0  0  0  0  0  0  0
   10.8909  -14.6602   28.8370 C   0  0  0  0  0  0  0  0  0  0  0  0
   11.1516  -14.1780   27.5840 C   0  0  0  0  0  0  0  0  0  0  0  0
   11.0217  -14.9703   26.4561 C   0  0  0  0  0  0  0  0  0  0  0  0
   11.3014  -14.4467   25.1173 C   0  0  0  0  0  0  0  0  0  0  0  0
   11.2833  -15.5184   24.0425 C   0  0  2  0  0  0  0  0  0  0  0  0
    9.9066  -15.7065   23.6142 N   0  0  0  0  0  0  0  0  0  0  0  0
   11.9281  -16.7674   24.4280 C   0  0  0  0  0  0  0  0  0  0  0  0
   11.2551  -17.9800   24.3516 O   0  0  0  0  0  0  0  0  0  0  0  0
   10.6164  -16.2826   26.6183 C   0  0  0  0  0  0  0  0  0  0  0  0
   10.3494  -16.7855   27.8733 C   0  0  0  0  0  0  0  0  0  0  0  0
   13.1115  -16.8110   24.8440 O   0  0  0  0  0  0  0  0  0  0  0  0
  2  1  1  1
  2  3  1  0
  4  3  1  0
  4  9  1  0
  5  4  2  0
  6  5  1  0
  6  7  2  0
  7  8  1  0
  8  9  2  0
 10  2  1  0
 11 10  2  0
 13 12  1  1
 13 14  1  0
 14 10  1  0
 15 13  1  0
 15 16  2  0
 18 17  1  0
 19 18  2  0
 20 19  1  0
 21 20  2  0
 21 27  1  0
 23 22  1  1
 22 21  1  0
 23 24  1  0
 24 15  1  0
 25 23  1  0
 26 25  1  0
 27 28  2  0
 28 18  1  0
 29 25  2  0
M  END
$$$$
