TYD.pdb
     RDKit          3D

 28 28  0  0  1  0  0  0  0  0999 V2000
   19.2719   -9.6928  -20.2620 C   0  0  0  0  0  0  0  0  0  0  0  0
   18.9336   -8.6490  -19.2028 C   0  0  1  0  0  0  0  0  0  0  0  0
   17.5982   -8.7056  -18.8192 O   0  0  0  0  0  0  0  0  0  0  0  0
   19.7626   -8.9328  -17.9457 C   0  0  2  0  0  0  0  0  0  0  0  0
   19.3327  -10.2069  -17.3799 N   0  0  0  0  0  0  0  0  0  0  0  0
   19.5851   -7.8985  -16.9089 C   0  0  0  0  0  0  0  0  0  0  0  0
   18.6760   -8.0145  -16.0228 O   0  0  0  0  0  0  0  0  0  0  0  0
   22.8337  -10.2427  -11.9541 O   0  0  0  0  0  0  0  0  0  0  0  0
   22.5298   -9.1148  -12.7133 C   0  0  0  0  0  0  0  0  0  0  0  0
   22.9485   -8.9937  -14.0256 C   0  0  0  0  0  0  0  0  0  0  0  0
   22.6488   -7.8779  -14.7790 C   0  0  0  0  0  0  0  0  0  0  0  0
   21.9130   -6.8278  -14.2507 C   0  0  0  0  0  0  0  0  0  0  0  0
   21.6054   -5.6455  -15.0768 C   0  0  0  0  0  0  0  0  0  0  0  0
   20.2500   -5.7419  -15.7435 C   0  0  2  0  0  0  0  0  0  0  0  0
   20.3729   -6.7207  -16.7955 N   0  0  0  0  0  0  0  0  0  0  0  0
   19.7193   -4.4497  -16.2102 C   0  0  0  0  0  0  0  0  0  0  0  0
   19.9136   -4.1135  -17.3996 O   0  0  0  0  0  0  0  0  0  0  0  0
   21.4927   -6.9396  -12.9475 C   0  0  0  0  0  0  0  0  0  0  0  0
   21.7979   -8.0717  -12.1861 C   0  0  0  0  0  0  0  0  0  0  0  0
   18.9970   -3.5769  -15.3634 N   0  0  0  0  0  0  0  0  0  0  0  0
   18.4220   -2.3420  -15.9223 C   0  0  1  0  0  0  0  0  0  0  0  0
   17.3545   -2.7363  -16.9261 C   0  0  0  0  0  0  0  0  0  0  0  0
   16.6098   -1.5694  -17.4466 C   0  0  0  0  0  0  0  0  0  0  0  0
   15.4835   -1.1998  -17.0335 O   0  0  0  0  0  0  0  0  0  0  0  0
   17.8197   -1.5466  -14.8262 C   0  0  0  0  0  0  0  0  0  0  0  0
   17.3616   -0.3920  -15.0076 O   0  0  0  0  0  0  0  0  0  0  0  0
   17.1905   -0.8194  -18.4687 O   0  0  0  0  0  0  0  0  0  0  0  0
   17.7212   -2.0326  -13.5119 O   0  0  0  0  0  0  0  0  0  0  0  0
  2  1  1  6
  2  3  1  0
  4  2  1  0
  4  5  1  1
  6  4  1  0
  6  7  2  0
  8  9  1  0
  9 10  2  0
 10 11  1  0
 12 13  1  0
 12 11  2  0
 14 13  1  6
 14 15  1  0
 15  6  1  0
 16 14  1  0
 17 16  2  0
 18 12  1  0
 19 18  2  0
 19  9  1  0
 20 16  1  0
 21 20  1  0
 21 25  1  0
 21 22  1  6
 23 22  1  0
 24 23  2  0
 25 26  2  0
 25 28  1  0
 27 23  1  0
M  END
$$$$
