TYD.pdb
     RDKit          3D

 28 28  0  0  1  0  0  0  0  0999 V2000
   19.5916  -11.3588  -20.2092 C   0  0  0  0  0  0  0  0  0  0  0  0
   19.2459  -12.6125  -19.4124 C   0  0  1  0  0  0  0  0  0  0  0  0
   19.3087  -13.7623  -20.1918 O   0  0  0  0  0  0  0  0  0  0  0  0
   20.2763  -12.7864  -18.2916 C   0  0  2  0  0  0  0  0  0  0  0  0
   20.0074  -14.0424  -17.6000 N   0  0  0  0  0  0  0  0  0  0  0  0
   20.2112  -11.7016  -17.2939 C   0  0  0  0  0  0  0  0  0  0  0  0
   19.2292  -11.6195  -16.4850 O   0  0  0  0  0  0  0  0  0  0  0  0
   22.5102   -4.1035  -13.1754 O   0  0  0  0  0  0  0  0  0  0  0  0
   22.4957   -5.3275  -13.8406 C   0  0  0  0  0  0  0  0  0  0  0  0
   22.1105   -6.4917  -13.2016 C   0  0  0  0  0  0  0  0  0  0  0  0
   22.0954   -7.7046  -13.8583 C   0  0  0  0  0  0  0  0  0  0  0  0
   22.4668   -7.8078  -15.1904 C   0  0  0  0  0  0  0  0  0  0  0  0
   22.4420   -9.1162  -15.8703 C   0  0  0  0  0  0  0  0  0  0  0  0
   21.0476   -9.5195  -16.2989 C   0  0  2  0  0  0  0  0  0  0  0  0
   21.1910  -10.6836  -17.1380 N   0  0  0  0  0  0  0  0  0  0  0  0
   20.2798   -8.4352  -16.9345 C   0  0  0  0  0  0  0  0  0  0  0  0
   20.5893   -8.0774  -18.0928 O   0  0  0  0  0  0  0  0  0  0  0  0
   22.8510   -6.6559  -15.8333 C   0  0  0  0  0  0  0  0  0  0  0  0
   22.8653   -5.4280  -15.1654 C   0  0  0  0  0  0  0  0  0  0  0  0
   19.2048   -7.7859  -16.2839 N   0  0  0  0  0  0  0  0  0  0  0  0
   18.4913   -6.7009  -16.9780 C   0  0  1  0  0  0  0  0  0  0  0  0
   17.0297   -7.0952  -17.0831 C   0  0  0  0  0  0  0  0  0  0  0  0
   16.7514   -7.9186  -18.2796 C   0  0  0  0  0  0  0  0  0  0  0  0
   17.4172   -7.8795  -19.3431 O   0  0  0  0  0  0  0  0  0  0  0  0
   18.6250   -5.4508  -16.1929 C   0  0  0  0  0  0  0  0  0  0  0  0
   18.5890   -5.4386  -14.9382 O   0  0  0  0  0  0  0  0  0  0  0  0
   15.6757   -8.8047  -18.2344 O   0  0  0  0  0  0  0  0  0  0  0  0
   18.8016   -4.1971  -16.8013 O   0  0  0  0  0  0  0  0  0  0  0  0
  2  1  1  6
  2  3  1  0
  4  2  1  0
  4  5  1  1
  6  4  1  0
  6  7  2  0
  8  9  1  0
  9 10  2  0
 10 11  1  0
 12 13  1  0
 12 11  2  0
 14 13  1  6
 14 15  1  0
 15  6  1  0
 16 14  1  0
 17 16  2  0
 18 12  1  0
 19 18  2  0
 19  9  1  0
 20 16  1  0
 21 20  1  0
 21 25  1  0
 21 22  1  1
 23 22  1  0
 24 23  2  0
 25 26  2  0
 25 28  1  0
 27 23  1  0
M  END
$$$$
