TYD.pdb
     RDKit          3D

 28 28  0  0  1  0  0  0  0  0999 V2000
   35.0246   -9.9827  -13.3403 C   0  0  0  0  0  0  0  0  0  0  0  0
   35.3189  -10.7380  -14.6322 C   0  0  1  0  0  0  0  0  0  0  0  0
   34.3756  -11.7272  -14.8872 O   0  0  0  0  0  0  0  0  0  0  0  0
   35.2514   -9.7555  -15.8062 C   0  0  2  0  0  0  0  0  0  0  0  0
   35.5422  -10.4793  -17.0390 N   0  0  0  0  0  0  0  0  0  0  0  0
   36.2357   -8.6635  -15.6837 C   0  0  0  0  0  0  0  0  0  0  0  0
   37.4375   -8.8235  -16.0777 O   0  0  0  0  0  0  0  0  0  0  0  0
   31.2729   -3.3414  -15.3298 O   0  0  0  0  0  0  0  0  0  0  0  0
   32.5822   -3.7986  -15.4622 C   0  0  0  0  0  0  0  0  0  0  0  0
   32.9168   -4.7724  -16.3852 C   0  0  0  0  0  0  0  0  0  0  0  0
   34.2124   -5.2266  -16.5180 C   0  0  0  0  0  0  0  0  0  0  0  0
   35.2366   -4.7246  -15.7293 C   0  0  0  0  0  0  0  0  0  0  0  0
   36.6139   -5.2266  -15.8905 C   0  0  0  0  0  0  0  0  0  0  0  0
   36.9394   -6.3445  -14.9235 C   0  0  2  0  0  0  0  0  0  0  0  0
   35.9590   -7.3797  -15.1397 N   0  0  0  0  0  0  0  0  0  0  0  0
   37.0295   -5.9130  -13.5182 C   0  0  0  0  0  0  0  0  0  0  0  0
   36.1460   -6.2879  -12.7155 O   0  0  0  0  0  0  0  0  0  0  0  0
   34.9133   -3.7567  -14.8094 C   0  0  0  0  0  0  0  0  0  0  0  0
   33.5993   -3.2981  -14.6769 C   0  0  0  0  0  0  0  0  0  0  0  0
   38.0791   -5.0922  -13.0434 N   0  0  0  0  0  0  0  0  0  0  0  0
   38.2078   -4.8510  -11.5967 C   0  0  1  0  0  0  0  0  0  0  0  0
   38.5336   -6.1745  -10.9295 C   0  0  0  0  0  0  0  0  0  0  0  0
   38.7790   -6.0303   -9.4783 C   0  0  0  0  0  0  0  0  0  0  0  0
   38.6567   -4.9580   -8.8372 O   0  0  0  0  0  0  0  0  0  0  0  0
   39.3028   -3.8802  -11.3610 C   0  0  0  0  0  0  0  0  0  0  0  0
   40.3411   -3.8548  -12.0660 O   0  0  0  0  0  0  0  0  0  0  0  0
   39.1746   -7.1589   -8.7613 O   0  0  0  0  0  0  0  0  0  0  0  0
   39.2505   -2.9238  -10.3335 O   0  0  0  0  0  0  0  0  0  0  0  0
  2  1  1  1
  2  3  1  0
  4  2  1  0
  4  5  1  6
  6  4  1  0
  6  7  2  0
  8  9  1  0
  9 10  2  0
 10 11  1  0
 12 13  1  0
 12 11  2  0
 14 13  1  6
 14 15  1  0
 15  6  1  0
 16 14  1  0
 17 16  2  0
 18 12  1  0
 19 18  2  0
 19  9  1  0
 20 16  1  0
 21 20  1  0
 21 25  1  0
 21 22  1  1
 23 22  1  0
 24 23  2  0
 25 26  2  0
 25 28  1  0
 27 23  1  0
M  END
$$$$
