TYD.pdb
     RDKit          3D

 28 28  0  0  1  0  0  0  0  0999 V2000
   19.0046   -7.7901  -19.1850 C   0  0  0  0  0  0  0  0  0  0  0  0
   18.9936   -9.2697  -18.8155 C   0  0  1  0  0  0  0  0  0  0  0  0
   19.0830  -10.0899  -19.9348 O   0  0  0  0  0  0  0  0  0  0  0  0
   20.2221   -9.5731  -17.9512 C   0  0  2  0  0  0  0  0  0  0  0  0
   20.2115  -10.9901  -17.6044 N   0  0  0  0  0  0  0  0  0  0  0  0
   20.2291   -8.8031  -16.6929 C   0  0  0  0  0  0  0  0  0  0  0  0
   19.4211   -9.0904  -15.7495 O   0  0  0  0  0  0  0  0  0  0  0  0
   26.6197   -4.8519  -17.6611 O   0  0  0  0  0  0  0  0  0  0  0  0
   25.5748   -5.3646  -16.8955 C   0  0  0  0  0  0  0  0  0  0  0  0
   25.2080   -6.6956  -16.9739 C   0  0  0  0  0  0  0  0  0  0  0  0
   24.1738   -7.2053  -16.2170 C   0  0  0  0  0  0  0  0  0  0  0  0
   23.4563   -6.4023  -15.3431 C   0  0  0  0  0  0  0  0  0  0  0  0
   22.3547   -6.9712  -14.5444 C   0  0  0  0  0  0  0  0  0  0  0  0
   21.0180   -6.8696  -15.2470 C   0  0  2  0  0  0  0  0  0  0  0  0
   21.0971   -7.7123  -16.4147 N   0  0  0  0  0  0  0  0  0  0  0  0
   20.6059   -5.4891  -15.5526 C   0  0  0  0  0  0  0  0  0  0  0  0
   20.8079   -5.0414  -16.7034 O   0  0  0  0  0  0  0  0  0  0  0  0
   23.8139   -5.0785  -15.2586 C   0  0  0  0  0  0  0  0  0  0  0  0
   24.8626   -4.5645  -16.0270 C   0  0  0  0  0  0  0  0  0  0  0  0
   19.9888   -4.6526  -14.5934 N   0  0  0  0  0  0  0  0  0  0  0  0
   19.6795   -3.2569  -14.9462 C   0  0  1  0  0  0  0  0  0  0  0  0
   18.1904   -3.0436  -14.7466 C   0  0  0  0  0  0  0  0  0  0  0  0
   17.7952   -1.6282  -14.9125 C   0  0  0  0  0  0  0  0  0  0  0  0
   18.5786   -0.6524  -14.8124 O   0  0  0  0  0  0  0  0  0  0  0  0
   20.4461   -2.3499  -14.0594 C   0  0  0  0  0  0  0  0  0  0  0  0
   20.9492   -2.7365  -12.9762 O   0  0  0  0  0  0  0  0  0  0  0  0
   16.4605   -1.3459  -15.2007 O   0  0  0  0  0  0  0  0  0  0  0  0
   20.6608   -0.9975  -14.3728 O   0  0  0  0  0  0  0  0  0  0  0  0
  2  1  1  6
  2  3  1  0
  4  2  1  0
  4  5  1  1
  6  4  1  0
  6  7  2  0
  8  9  1  0
  9 10  2  0
 10 11  1  0
 12 13  1  0
 12 11  2  0
 14 13  1  6
 14 15  1  0
 15  6  1  0
 16 14  1  0
 17 16  2  0
 18 12  1  0
 19 18  2  0
 19  9  1  0
 20 16  1  0
 21 20  1  0
 21 25  1  0
 21 22  1  1
 23 22  1  0
 24 23  2  0
 25 26  2  0
 25 28  1  0
 27 23  1  0
M  END
$$$$
