TYD.pdb
     RDKit          3D

 28 28  0  0  1  0  0  0  0  0999 V2000
   18.8755  -14.0647  -18.7596 C   0  0  0  0  0  0  0  0  0  0  0  0
   18.9574  -12.6945  -18.0949 C   0  0  1  0  0  0  0  0  0  0  0  0
   17.7254  -12.0502  -18.0691 O   0  0  0  0  0  0  0  0  0  0  0  0
   19.3865  -12.8774  -16.6352 C   0  0  2  0  0  0  0  0  0  0  0  0
   18.4047  -13.7203  -15.9614 N   0  0  0  0  0  0  0  0  0  0  0  0
   19.4565  -11.5978  -15.9045 C   0  0  0  0  0  0  0  0  0  0  0  0
   18.4507  -11.1655  -15.2512 O   0  0  0  0  0  0  0  0  0  0  0  0
   23.0812   -3.6327  -13.9843 O   0  0  0  0  0  0  0  0  0  0  0  0
   22.8277   -4.9861  -14.1963 C   0  0  0  0  0  0  0  0  0  0  0  0
   23.2399   -5.6254  -15.3511 C   0  0  0  0  0  0  0  0  0  0  0  0
   22.9900   -6.9652  -15.5631 C   0  0  0  0  0  0  0  0  0  0  0  0
   22.3131   -7.7295  -14.6246 C   0  0  0  0  0  0  0  0  0  0  0  0
   22.0583   -9.1604  -14.8747 C   0  0  0  0  0  0  0  0  0  0  0  0
   20.6259   -9.4307  -15.2821 C   0  0  2  0  0  0  0  0  0  0  0  0
   20.5993  -10.7540  -15.8549 N   0  0  0  0  0  0  0  0  0  0  0  0
   20.0508   -8.4026  -16.1660 C   0  0  0  0  0  0  0  0  0  0  0  0
   20.0890   -8.5829  -17.4035 O   0  0  0  0  0  0  0  0  0  0  0  0
   21.8998   -7.1025  -13.4741 C   0  0  0  0  0  0  0  0  0  0  0  0
   22.1544   -5.7444  -13.2618 C   0  0  0  0  0  0  0  0  0  0  0  0
   19.4559   -7.2205  -15.6666 N   0  0  0  0  0  0  0  0  0  0  0  0
   18.9051   -6.2353  -16.6120 C   0  0  1  0  0  0  0  0  0  0  0  0
   17.7663   -6.8970  -17.3657 C   0  0  0  0  0  0  0  0  0  0  0  0
   17.0783   -5.9634  -18.2834 C   0  0  0  0  0  0  0  0  0  0  0  0
   17.4715   -4.8002  -18.5442 O   0  0  0  0  0  0  0  0  0  0  0  0
   18.4013   -5.0644  -15.8558 C   0  0  0  0  0  0  0  0  0  0  0  0
   17.8259   -5.1786  -14.7460 O   0  0  0  0  0  0  0  0  0  0  0  0
   15.9093   -6.3953  -18.9087 O   0  0  0  0  0  0  0  0  0  0  0  0
   18.5351   -3.7493  -16.3308 O   0  0  0  0  0  0  0  0  0  0  0  0
  2  1  1  1
  2  3  1  0
  4  2  1  0
  4  5  1  1
  6  4  1  0
  6  7  2  0
  8  9  1  0
  9 10  2  0
 10 11  1  0
 12 13  1  0
 12 11  2  0
 14 13  1  6
 14 15  1  0
 15  6  1  0
 16 14  1  0
 17 16  2  0
 18 12  1  0
 19 18  2  0
 19  9  1  0
 20 16  1  0
 21 20  1  0
 21 25  1  0
 21 22  1  1
 23 22  1  0
 24 23  2  0
 25 26  2  0
 25 28  1  0
 27 23  1  0
M  END
$$$$
