TYD.pdb
     RDKit          3D

 28 28  0  0  1  0  0  0  0  0999 V2000
   28.7216  -18.7853  -18.7548 C   0  0  0  0  0  0  0  0  0  0  0  0
   27.7438  -19.2237  -17.6695 C   0  0  1  0  0  0  0  0  0  0  0  0
   26.4551  -19.3942  -18.1633 O   0  0  0  0  0  0  0  0  0  0  0  0
   28.1875  -20.5853  -17.1243 C   0  0  2  0  0  0  0  0  0  0  0  0
   28.0524  -21.5796  -18.1833 N   0  0  0  0  0  0  0  0  0  0  0  0
   27.3648  -21.0300  -15.9834 C   0  0  0  0  0  0  0  0  0  0  0  0
   26.4699  -21.9251  -16.1360 O   0  0  0  0  0  0  0  0  0  0  0  0
   23.8747  -20.9782   -7.7501 O   0  0  0  0  0  0  0  0  0  0  0  0
   24.6975  -20.8308   -8.8646 C   0  0  0  0  0  0  0  0  0  0  0  0
   25.5045  -21.8626   -9.3075 C   0  0  0  0  0  0  0  0  0  0  0  0
   26.3199  -21.7189  -10.4106 C   0  0  0  0  0  0  0  0  0  0  0  0
   26.3648  -20.5304  -11.1239 C   0  0  0  0  0  0  0  0  0  0  0  0
   27.2449  -20.4018  -12.3002 C   0  0  0  0  0  0  0  0  0  0  0  0
   26.5582  -20.8131  -13.5847 C   0  0  2  0  0  0  0  0  0  0  0  0
   27.4795  -20.5302  -14.6575 N   0  0  0  0  0  0  0  0  0  0  0  0
   25.2336  -20.1990  -13.7784 C   0  0  0  0  0  0  0  0  0  0  0  0
   25.1702  -18.9837  -14.0689 O   0  0  0  0  0  0  0  0  0  0  0  0
   25.5661  -19.4998  -10.6909 C   0  0  0  0  0  0  0  0  0  0  0  0
   24.7406  -19.6482   -9.5726 C   0  0  0  0  0  0  0  0  0  0  0  0
   24.0318  -20.9336  -13.6496 N   0  0  0  0  0  0  0  0  0  0  0  0
   22.7422  -20.2356  -13.7822 C   0  0  1  0  0  0  0  0  0  0  0  0
   22.3305  -20.2879  -15.2418 C   0  0  0  0  0  0  0  0  0  0  0  0
   21.0348  -19.6186  -15.4877 C   0  0  0  0  0  0  0  0  0  0  0  0
   20.5751  -18.6780  -14.7952 O   0  0  0  0  0  0  0  0  0  0  0  0
   21.7299  -20.9207  -12.9439 C   0  0  0  0  0  0  0  0  0  0  0  0
   20.5297  -20.5549  -12.9067 O   0  0  0  0  0  0  0  0  0  0  0  0
   20.2608  -20.0552  -16.5623 O   0  0  0  0  0  0  0  0  0  0  0  0
   22.0468  -22.0253  -12.1361 O   0  0  0  0  0  0  0  0  0  0  0  0
  2  1  1  6
  2  3  1  0
  4  2  1  0
  4  5  1  6
  6  4  1  0
  6  7  2  0
  8  9  1  0
  9 10  2  0
 10 11  1  0
 12 13  1  0
 12 11  2  0
 14 13  1  1
 14 15  1  0
 15  6  1  0
 16 14  1  0
 17 16  2  0
 18 12  1  0
 19 18  2  0
 19  9  1  0
 20 16  1  0
 21 20  1  0
 21 25  1  0
 21 22  1  6
 23 22  1  0
 24 23  2  0
 25 26  2  0
 25 28  1  0
 27 23  1  0
M  END
$$$$
