TYD.pdb
     RDKit          3D

 28 28  0  0  1  0  0  0  0  0999 V2000
   15.9394  -10.1773  -17.3324 C   0  0  0  0  0  0  0  0  0  0  0  0
   14.8772   -9.1023  -17.1274 C   0  0  1  0  0  0  0  0  0  0  0  0
   14.9659   -8.5108  -15.8720 O   0  0  0  0  0  0  0  0  0  0  0  0
   15.0981   -7.9862  -18.1538 C   0  0  2  0  0  0  0  0  0  0  0  0
   15.0064   -8.5576  -19.4930 N   0  0  0  0  0  0  0  0  0  0  0  0
   16.4261   -7.3570  -18.0242 C   0  0  0  0  0  0  0  0  0  0  0  0
   17.4587   -7.9061  -18.5315 O   0  0  0  0  0  0  0  0  0  0  0  0
   22.5444   -0.9848  -17.2404 O   0  0  0  0  0  0  0  0  0  0  0  0
   21.3629   -1.7228  -17.2279 C   0  0  0  0  0  0  0  0  0  0  0  0
   20.7823   -2.1755  -18.3985 C   0  0  0  0  0  0  0  0  0  0  0  0
   19.6125   -2.9063  -18.3885 C   0  0  0  0  0  0  0  0  0  0  0  0
   18.9677   -3.2185  -17.2011 C   0  0  0  0  0  0  0  0  0  0  0  0
   17.7180   -4.0013  -17.2169 C   0  0  0  0  0  0  0  0  0  0  0  0
   17.9700   -5.4933  -17.2533 C   0  0  2  0  0  0  0  0  0  0  0  0
   16.6800   -6.1304  -17.3521 N   0  0  0  0  0  0  0  0  0  0  0  0
   18.7801   -5.9910  -16.1286 C   0  0  0  0  0  0  0  0  0  0  0  0
   18.2264   -6.1706  -15.0210 O   0  0  0  0  0  0  0  0  0  0  0  0
   19.5375   -2.7726  -16.0331 C   0  0  0  0  0  0  0  0  0  0  0  0
   20.7232   -2.0322  -16.0461 C   0  0  0  0  0  0  0  0  0  0  0  0
   20.1599   -6.2749  -16.2559 N   0  0  0  0  0  0  0  0  0  0  0  0
   20.9108   -6.7452  -15.0799 C   0  0  1  0  0  0  0  0  0  0  0  0
   21.5016   -8.1023  -15.4149 C   0  0  0  0  0  0  0  0  0  0  0  0
   22.3086   -8.6563  -14.3064 C   0  0  0  0  0  0  0  0  0  0  0  0
   22.4557   -8.1069  -13.1872 O   0  0  0  0  0  0  0  0  0  0  0  0
   21.9943   -5.7802  -14.7770 C   0  0  0  0  0  0  0  0  0  0  0  0
   22.7784   -5.3522  -15.6589 O   0  0  0  0  0  0  0  0  0  0  0  0
   22.9564   -9.8746  -14.5074 O   0  0  0  0  0  0  0  0  0  0  0  0
   22.2147   -5.2802  -13.4830 O   0  0  0  0  0  0  0  0  0  0  0  0
  2  1  1  1
  2  3  1  0
  4  2  1  0
  4  5  1  6
  6  4  1  0
  6  7  2  0
  8  9  1  0
  9 10  2  0
 10 11  1  0
 12 13  1  0
 12 11  2  0
 14 13  1  1
 14 15  1  0
 15  6  1  0
 16 14  1  0
 17 16  2  0
 18 12  1  0
 19 18  2  0
 19  9  1  0
 20 16  1  0
 21 20  1  0
 21 25  1  0
 21 22  1  6
 23 22  1  0
 24 23  2  0
 25 26  2  0
 25 28  1  0
 27 23  1  0
M  END
$$$$
