TYD.pdb
     RDKit          3D

 28 28  0  0  1  0  0  0  0  0999 V2000
   17.7980  -11.2200  -19.2898 C   0  0  0  0  0  0  0  0  0  0  0  0
   17.7138  -12.5122  -18.4840 C   0  0  1  0  0  0  0  0  0  0  0  0
   17.6429  -13.6353  -19.3008 O   0  0  0  0  0  0  0  0  0  0  0  0
   18.9900  -12.6584  -17.6485 C   0  0  2  0  0  0  0  0  0  0  0  0
   18.8987  -13.8865  -16.8664 N   0  0  0  0  0  0  0  0  0  0  0  0
   19.1772  -11.5389  -16.7062 C   0  0  0  0  0  0  0  0  0  0  0  0
   18.5418  -11.5049  -15.6014 O   0  0  0  0  0  0  0  0  0  0  0  0
   22.4342   -3.9920  -13.2277 O   0  0  0  0  0  0  0  0  0  0  0  0
   22.2249   -5.2072  -13.8759 C   0  0  0  0  0  0  0  0  0  0  0  0
   22.3010   -5.3134  -15.2525 C   0  0  0  0  0  0  0  0  0  0  0  0
   22.0941   -6.5155  -15.8964 C   0  0  0  0  0  0  0  0  0  0  0  0
   21.8003   -7.6712  -15.1885 C   0  0  0  0  0  0  0  0  0  0  0  0
   21.5834   -8.9446  -15.9002 C   0  0  0  0  0  0  0  0  0  0  0  0
   20.1151   -9.2617  -16.0849 C   0  0  2  0  0  0  0  0  0  0  0  0
   20.0451  -10.4339  -16.9219 N   0  0  0  0  0  0  0  0  0  0  0  0
   19.3188   -8.1332  -16.5964 C   0  0  0  0  0  0  0  0  0  0  0  0
   19.4590   -7.7904  -17.7915 O   0  0  0  0  0  0  0  0  0  0  0  0
   21.7228   -7.5750  -13.8202 C   0  0  0  0  0  0  0  0  0  0  0  0
   21.9329   -6.3554  -13.1701 C   0  0  0  0  0  0  0  0  0  0  0  0
   18.4007   -7.4250  -15.7864 N   0  0  0  0  0  0  0  0  0  0  0  0
   17.6396   -6.3066  -16.3677 C   0  0  1  0  0  0  0  0  0  0  0  0
   16.3217   -6.2013  -15.6228 C   0  0  0  0  0  0  0  0  0  0  0  0
   15.1615   -6.1192  -16.5361 C   0  0  0  0  0  0  0  0  0  0  0  0
   15.2393   -6.1091  -17.7890 O   0  0  0  0  0  0  0  0  0  0  0  0
   18.4158   -5.0543  -16.2064 C   0  0  0  0  0  0  0  0  0  0  0  0
   18.4256   -4.1529  -17.0801 O   0  0  0  0  0  0  0  0  0  0  0  0
   13.8861   -6.0477  -15.9770 O   0  0  0  0  0  0  0  0  0  0  0  0
   19.1914   -4.7931  -15.0647 O   0  0  0  0  0  0  0  0  0  0  0  0
  2  1  1  6
  2  3  1  0
  4  2  1  0
  4  5  1  1
  6  4  1  0
  6  7  2  0
  8  9  1  0
  9 10  2  0
 10 11  1  0
 12 13  1  0
 12 11  2  0
 14 13  1  6
 14 15  1  0
 15  6  1  0
 16 14  1  0
 17 16  2  0
 18 12  1  0
 19 18  2  0
 19  9  1  0
 20 16  1  0
 21 20  1  0
 21 25  1  0
 21 22  1  1
 23 22  1  0
 24 23  2  0
 25 26  2  0
 25 28  1  0
 27 23  1  0
M  END
$$$$
