TYD.pdb
     RDKit          3D

 28 28  0  0  1  0  0  0  0  0999 V2000
   24.4509   -9.3657  -18.8119 C   0  0  0  0  0  0  0  0  0  0  0  0
   24.1767  -10.8156  -19.1975 C   0  0  1  0  0  0  0  0  0  0  0  0
   25.1917  -11.3495  -19.9837 O   0  0  0  0  0  0  0  0  0  0  0  0
   24.1180  -11.6641  -17.9228 C   0  0  2  0  0  0  0  0  0  0  0  0
   23.9241  -13.0602  -18.2989 N   0  0  0  0  0  0  0  0  0  0  0  0
   23.0007  -11.2776  -17.0403 C   0  0  0  0  0  0  0  0  0  0  0  0
   21.7921  -11.4216  -17.4194 O   0  0  0  0  0  0  0  0  0  0  0  0
   20.7277  -16.4711  -14.0566 O   0  0  0  0  0  0  0  0  0  0  0  0
   21.0854  -15.1294  -13.9437 C   0  0  0  0  0  0  0  0  0  0  0  0
   20.1319  -14.1371  -13.8090 C   0  0  0  0  0  0  0  0  0  0  0  0
   20.4837  -12.8081  -13.6972 C   0  0  0  0  0  0  0  0  0  0  0  0
   21.8121  -12.4102  -13.7152 C   0  0  0  0  0  0  0  0  0  0  0  0
   22.1627  -10.9829  -13.5938 C   0  0  0  0  0  0  0  0  0  0  0  0
   22.0670  -10.2490  -14.9140 C   0  0  2  0  0  0  0  0  0  0  0  0
   23.1491  -10.7306  -15.7367 N   0  0  0  0  0  0  0  0  0  0  0  0
   22.0441   -8.7822  -14.7831 C   0  0  0  0  0  0  0  0  0  0  0  0
   23.1202   -8.1519  -14.8843 O   0  0  0  0  0  0  0  0  0  0  0  0
   22.7664  -13.3896  -13.8487 C   0  0  0  0  0  0  0  0  0  0  0  0
   22.4069  -14.7358  -13.9618 C   0  0  0  0  0  0  0  0  0  0  0  0
   20.8501   -8.0609  -14.5491 N   0  0  0  0  0  0  0  0  0  0  0  0
   20.8838   -6.5889  -14.5557 C   0  0  1  0  0  0  0  0  0  0  0  0
   21.4470   -6.1405  -15.8916 C   0  0  0  0  0  0  0  0  0  0  0  0
   21.5195   -4.6680  -16.0086 C   0  0  0  0  0  0  0  0  0  0  0  0
   20.6613   -3.9550  -16.5839 O   0  0  0  0  0  0  0  0  0  0  0  0
   19.5058   -6.0702  -14.3854 C   0  0  0  0  0  0  0  0  0  0  0  0
   18.5009   -6.6728  -14.8357 O   0  0  0  0  0  0  0  0  0  0  0  0
   22.6141   -4.0150  -15.4434 O   0  0  0  0  0  0  0  0  0  0  0  0
   19.2335   -4.8701  -13.7081 O   0  0  0  0  0  0  0  0  0  0  0  0
  2  1  1  1
  2  3  1  0
  4  2  1  0
  4  5  1  6
  6  4  1  0
  6  7  2  0
  8  9  1  0
  9 10  2  0
 10 11  1  0
 12 13  1  0
 12 11  2  0
 14 13  1  1
 14 15  1  0
 15  6  1  0
 16 14  1  0
 17 16  2  0
 18 12  1  0
 19 18  2  0
 19  9  1  0
 20 16  1  0
 21 20  1  0
 21 25  1  0
 21 22  1  6
 23 22  1  0
 24 23  2  0
 25 26  2  0
 25 28  1  0
 27 23  1  0
M  END
$$$$
