TYD.pdb
     RDKit          3D

 28 28  0  0  1  0  0  0  0  0999 V2000
   42.9975   -9.5338   -3.9801 C   0  0  0  0  0  0  0  0  0  0  0  0
   44.1229  -10.0550   -4.8678 C   0  0  1  0  0  0  0  0  0  0  0  0
   45.0387  -10.8223   -4.1563 O   0  0  0  0  0  0  0  0  0  0  0  0
   43.5236  -10.9711   -5.9400 C   0  0  2  0  0  0  0  0  0  0  0  0
   44.6051  -11.4860   -6.7728 N   0  0  0  0  0  0  0  0  0  0  0  0
   42.5770  -10.2617   -6.8215 C   0  0  0  0  0  0  0  0  0  0  0  0
   42.9853   -9.6757   -7.8775 O   0  0  0  0  0  0  0  0  0  0  0  0
   35.0559   -5.6189   -8.1687 O   0  0  0  0  0  0  0  0  0  0  0  0
   35.9941   -6.6064   -7.8766 C   0  0  0  0  0  0  0  0  0  0  0  0
   36.7591   -7.1913   -8.8689 C   0  0  0  0  0  0  0  0  0  0  0  0
   37.6886   -8.1692   -8.5819 C   0  0  0  0  0  0  0  0  0  0  0  0
   37.8955   -8.6081   -7.2828 C   0  0  0  0  0  0  0  0  0  0  0  0
   38.8954   -9.6550   -7.0017 C   0  0  0  0  0  0  0  0  0  0  0  0
   40.3155   -9.1592   -7.1700 C   0  0  2  0  0  0  0  0  0  0  0  0
   41.1770  -10.1630   -6.5956 N   0  0  0  0  0  0  0  0  0  0  0  0
   40.5476   -7.8115   -6.6234 C   0  0  0  0  0  0  0  0  0  0  0  0
   40.5332   -7.6546   -5.3821 O   0  0  0  0  0  0  0  0  0  0  0  0
   37.1397   -8.0324   -6.2904 C   0  0  0  0  0  0  0  0  0  0  0  0
   36.1984   -7.0414   -6.5840 C   0  0  0  0  0  0  0  0  0  0  0  0
   40.7878   -6.6894   -7.4503 N   0  0  0  0  0  0  0  0  0  0  0  0
   40.9849   -5.3674   -6.8328 C   0  0  1  0  0  0  0  0  0  0  0  0
   42.3998   -4.9138   -7.1414 C   0  0  0  0  0  0  0  0  0  0  0  0
   42.7134   -3.5969   -6.5460 C   0  0  0  0  0  0  0  0  0  0  0  0
   41.9248   -2.9312   -5.8313 O   0  0  0  0  0  0  0  0  0  0  0  0
   40.0083   -4.4118   -7.4073 C   0  0  0  0  0  0  0  0  0  0  0  0
   39.3499   -4.6669   -8.4452 O   0  0  0  0  0  0  0  0  0  0  0  0
   43.9711   -3.0463   -6.7892 O   0  0  0  0  0  0  0  0  0  0  0  0
   39.7546   -3.1577   -6.8277 O   0  0  0  0  0  0  0  0  0  0  0  0
  2  1  1  1
  2  3  1  0
  4  2  1  0
  4  5  1  6
  6  4  1  0
  6  7  2  0
  8  9  1  0
  9 10  2  0
 10 11  1  0
 12 13  1  0
 12 11  2  0
 14 13  1  1
 14 15  1  0
 15  6  1  0
 16 14  1  0
 17 16  2  0
 18 12  1  0
 19 18  2  0
 19  9  1  0
 20 16  1  0
 21 20  1  0
 21 25  1  0
 21 22  1  6
 23 22  1  0
 24 23  2  0
 25 26  2  0
 25 28  1  0
 27 23  1  0
M  END
$$$$
