TYD.pdb
     RDKit          3D

 28 28  0  0  1  0  0  0  0  0999 V2000
   19.6518  -23.2836  -12.4431 C   0  0  0  0  0  0  0  0  0  0  0  0
   20.8368  -22.4618  -12.9395 C   0  0  1  0  0  0  0  0  0  0  0  0
   20.5008  -21.6610  -14.0255 O   0  0  0  0  0  0  0  0  0  0  0  0
   21.2864  -21.5160  -11.8207 C   0  0  2  0  0  0  0  0  0  0  0  0
   20.2232  -20.5490  -11.5705 N   0  0  0  0  0  0  0  0  0  0  0  0
   22.5041  -20.7627  -12.1759 C   0  0  0  0  0  0  0  0  0  0  0  0
   22.4437  -19.5184  -12.4466 O   0  0  0  0  0  0  0  0  0  0  0  0
   26.1468  -19.8276   -6.4069 O   0  0  0  0  0  0  0  0  0  0  0  0
   26.1462  -20.1723   -7.7567 C   0  0  0  0  0  0  0  0  0  0  0  0
   26.7254  -19.3555   -8.7104 C   0  0  0  0  0  0  0  0  0  0  0  0
   26.7259  -19.6947  -10.0474 C   0  0  0  0  0  0  0  0  0  0  0  0
   26.1441  -20.8721  -10.4926 C   0  0  0  0  0  0  0  0  0  0  0  0
   26.1578  -21.2124  -11.9275 C   0  0  0  0  0  0  0  0  0  0  0  0
   24.9894  -20.6090  -12.6767 C   0  0  2  0  0  0  0  0  0  0  0  0
   23.8097  -21.3200  -12.2493 N   0  0  0  0  0  0  0  0  0  0  0  0
   25.1606  -20.5923  -14.1394 C   0  0  0  0  0  0  0  0  0  0  0  0
   24.7112  -21.5490  -14.8090 O   0  0  0  0  0  0  0  0  0  0  0  0
   25.5662  -21.6898   -9.5518 C   0  0  0  0  0  0  0  0  0  0  0  0
   25.5671  -21.3436   -8.1974 C   0  0  0  0  0  0  0  0  0  0  0  0
   25.8126  -19.5338  -14.8139 N   0  0  0  0  0  0  0  0  0  0  0  0
   25.3876  -19.1777  -16.1780 C   0  0  1  0  0  0  0  0  0  0  0  0
   23.9423  -18.7198  -16.1125 C   0  0  0  0  0  0  0  0  0  0  0  0
   23.4236  -18.2963  -17.4310 C   0  0  0  0  0  0  0  0  0  0  0  0
   24.0783  -18.3358  -18.5013 O   0  0  0  0  0  0  0  0  0  0  0  0
   26.2458  -18.0803  -16.6838 C   0  0  0  0  0  0  0  0  0  0  0  0
   26.2961  -16.9561  -16.1274 O   0  0  0  0  0  0  0  0  0  0  0  0
   22.1159  -17.8177  -17.5022 O   0  0  0  0  0  0  0  0  0  0  0  0
   27.0603  -18.2260  -17.8190 O   0  0  0  0  0  0  0  0  0  0  0  0
  2  1  1  1
  2  3  1  0
  4  2  1  0
  4  5  1  6
  6  4  1  0
  6  7  2  0
  8  9  1  0
  9 10  2  0
 10 11  1  0
 12 13  1  0
 12 11  2  0
 14 13  1  1
 14 15  1  0
 15  6  1  0
 16 14  1  0
 17 16  2  0
 18 12  1  0
 19 18  2  0
 19  9  1  0
 20 16  1  0
 21 20  1  0
 21 25  1  0
 21 22  1  1
 23 22  1  0
 24 23  2  0
 25 26  2  0
 25 28  1  0
 27 23  1  0
M  END
$$$$
