TYD.pdb
     RDKit          3D

 28 28  0  0  1  0  0  0  0  0999 V2000
   19.6688   -6.7232  -19.5973 C   0  0  0  0  0  0  0  0  0  0  0  0
   18.5141   -7.5872  -20.0936 C   0  0  1  0  0  0  0  0  0  0  0  0
   18.5538   -7.7738  -21.4709 O   0  0  0  0  0  0  0  0  0  0  0  0
   18.6285   -8.9777  -19.4599 C   0  0  2  0  0  0  0  0  0  0  0  0
   17.5366   -9.8086  -19.9555 N   0  0  0  0  0  0  0  0  0  0  0  0
   18.5287   -8.9357  -17.9886 C   0  0  0  0  0  0  0  0  0  0  0  0
   17.4221   -8.6593  -17.4191 O   0  0  0  0  0  0  0  0  0  0  0  0
   16.6818  -14.7979  -16.3582 O   0  0  0  0  0  0  0  0  0  0  0  0
   17.5099  -13.7193  -16.0553 C   0  0  0  0  0  0  0  0  0  0  0  0
   17.3370  -12.9787  -14.9004 C   0  0  0  0  0  0  0  0  0  0  0  0
   18.1556  -11.9104  -14.5985 C   0  0  0  0  0  0  0  0  0  0  0  0
   19.1892  -11.5331  -15.4427 C   0  0  0  0  0  0  0  0  0  0  0  0
   20.0508  -10.3872  -15.0974 C   0  0  0  0  0  0  0  0  0  0  0  0
   19.5304   -9.0817  -15.6592 C   0  0  2  0  0  0  0  0  0  0  0  0
   19.6054   -9.1879  -17.0954 N   0  0  0  0  0  0  0  0  0  0  0  0
   20.2103   -7.8881  -15.1279 C   0  0  0  0  0  0  0  0  0  0  0  0
   21.2060   -7.4405  -15.7390 O   0  0  0  0  0  0  0  0  0  0  0  0
   19.3683  -12.2635  -16.5925 C   0  0  0  0  0  0  0  0  0  0  0  0
   18.5372  -13.3458  -16.8960 C   0  0  0  0  0  0  0  0  0  0  0  0
   19.7772   -7.2292  -13.9536 N   0  0  0  0  0  0  0  0  0  0  0  0
   20.4759   -6.0111  -13.5109 C   0  0  1  0  0  0  0  0  0  0  0  0
   21.9364   -6.1421  -13.9016 C   0  0  0  0  0  0  0  0  0  0  0  0
   22.7277   -4.9466  -13.5386 C   0  0  0  0  0  0  0  0  0  0  0  0
   23.6548   -4.4663  -14.2354 O   0  0  0  0  0  0  0  0  0  0  0  0
   19.8741   -4.8343  -14.1817 C   0  0  0  0  0  0  0  0  0  0  0  0
   19.0404   -4.9459  -15.1135 O   0  0  0  0  0  0  0  0  0  0  0  0
   22.4317   -4.2993  -12.3396 O   0  0  0  0  0  0  0  0  0  0  0  0
   20.1966   -3.5163  -13.8184 O   0  0  0  0  0  0  0  0  0  0  0  0
  2  1  1  1
  2  3  1  0
  4  2  1  0
  4  5  1  6
  6  4  1  0
  6  7  2  0
  8  9  1  0
  9 10  2  0
 10 11  1  0
 12 13  1  0
 12 11  2  0
 14 13  1  1
 14 15  1  0
 15  6  1  0
 16 14  1  0
 17 16  2  0
 18 12  1  0
 19 18  2  0
 19  9  1  0
 20 16  1  0
 21 20  1  0
 21 25  1  0
 21 22  1  6
 23 22  1  0
 24 23  2  0
 25 26  2  0
 25 28  1  0
 27 23  1  0
M  END
$$$$
