TYD.pdb
     RDKit          3D

 28 28  0  0  1  0  0  0  0  0999 V2000
   23.9031  -26.7281  -16.8803 C   0  0  0  0  0  0  0  0  0  0  0  0
   22.9138  -27.4167  -15.9459 C   0  0  1  0  0  0  0  0  0  0  0  0
   21.6431  -26.8574  -16.0239 O   0  0  0  0  0  0  0  0  0  0  0  0
   22.7732  -28.8832  -16.3677 C   0  0  2  0  0  0  0  0  0  0  0  0
   22.1477  -28.9331  -17.6846 N   0  0  0  0  0  0  0  0  0  0  0  0
   21.9276  -29.6574  -15.4393 C   0  0  0  0  0  0  0  0  0  0  0  0
   20.7090  -29.9044  -15.7212 O   0  0  0  0  0  0  0  0  0  0  0  0
   19.5919  -34.4119   -8.2406 O   0  0  0  0  0  0  0  0  0  0  0  0
   20.2857  -33.7341   -9.2405 C   0  0  0  0  0  0  0  0  0  0  0  0
   20.9313  -32.5378   -8.9872 C   0  0  0  0  0  0  0  0  0  0  0  0
   21.6188  -31.8649   -9.9758 C   0  0  0  0  0  0  0  0  0  0  0  0
   21.6916  -32.3612  -11.2687 C   0  0  0  0  0  0  0  0  0  0  0  0
   22.4330  -31.6230  -12.3081 C   0  0  0  0  0  0  0  0  0  0  0  0
   21.5174  -30.8569  -13.2384 C   0  0  2  0  0  0  0  0  0  0  0  0
   22.3634  -30.1839  -14.1929 N   0  0  0  0  0  0  0  0  0  0  0  0
   20.5844  -29.9507  -12.5475 C   0  0  0  0  0  0  0  0  0  0  0  0
   20.9086  -28.7514  -12.3995 O   0  0  0  0  0  0  0  0  0  0  0  0
   21.0529  -33.5494  -11.5294 C   0  0  0  0  0  0  0  0  0  0  0  0
   20.3570  -34.2293  -10.5256 C   0  0  0  0  0  0  0  0  0  0  0  0
   19.3352  -30.3867  -12.0475 N   0  0  0  0  0  0  0  0  0  0  0  0
   18.4211  -29.4070  -11.4370 C   0  0  1  0  0  0  0  0  0  0  0  0
   18.0950  -28.3572  -12.4832 C   0  0  0  0  0  0  0  0  0  0  0  0
   17.0385  -27.4237  -12.0365 C   0  0  0  0  0  0  0  0  0  0  0  0
   16.6016  -27.3500  -10.8620 O   0  0  0  0  0  0  0  0  0  0  0  0
   17.1825  -30.0990  -11.0083 C   0  0  0  0  0  0  0  0  0  0  0  0
   16.8130  -31.1880  -11.5116 O   0  0  0  0  0  0  0  0  0  0  0  0
   16.4811  -26.5597  -12.9784 O   0  0  0  0  0  0  0  0  0  0  0  0
   16.3405  -29.5820  -10.0098 O   0  0  0  0  0  0  0  0  0  0  0  0
  2  1  1  6
  2  3  1  0
  4  2  1  0
  4  5  1  6
  6  4  1  0
  6  7  2  0
  8  9  1  0
  9 10  2  0
 10 11  1  0
 12 13  1  0
 12 11  2  0
 14 13  1  1
 14 15  1  0
 15  6  1  0
 16 14  1  0
 17 16  2  0
 18 12  1  0
 19 18  2  0
 19  9  1  0
 20 16  1  0
 21 20  1  0
 21 25  1  0
 21 22  1  6
 23 22  1  0
 24 23  2  0
 25 26  2  0
 25 28  1  0
 27 23  1  0
M  END
$$$$
