HLR.pdb
     RDKit          3D

 30 30  0  0  1  0  0  0  0  0999 V2000
    9.7536  -12.7828   19.6864 N   0  0  0  0  0  0  0  0  0  0  0  0
    8.5184  -13.3970   20.1779 C   0  0  1  0  0  0  0  0  0  0  0  0
    8.4555  -14.7667   19.5416 C   0  0  0  0  0  0  0  0  0  0  0  0
    8.2365  -14.6746   18.0750 C   0  0  0  0  0  0  0  0  0  0  0  0
    8.2040  -13.5500   17.2949 C   0  0  0  0  0  0  0  0  0  0  0  0
    7.9790  -13.9249   16.0217 N   0  0  0  0  0  0  0  0  0  0  0  0
    7.8727  -15.2675   16.0081 C   0  0  0  0  0  0  0  0  0  0  0  0
    8.0273  -15.7210   17.2440 N   0  0  0  0  0  0  0  0  0  0  0  0
    8.6561  -13.5450   21.6498 C   0  0  0  0  0  0  0  0  0  0  0  0
    9.7646  -13.9073   22.1743 O   0  0  0  0  0  0  0  0  0  0  0  0
    7.8657  -12.1720   26.8294 C   0  0  0  0  0  0  0  0  0  0  0  0
    6.7287  -12.9666   26.2647 C   0  0  1  0  0  0  0  0  0  0  0  0
    5.4483  -12.3851   26.8783 C   0  0  0  0  0  0  0  0  0  0  0  0
    6.5676  -12.8470   24.7710 C   0  0  0  0  0  0  0  0  0  0  0  0
    7.6862  -13.4272   23.9687 C   0  0  2  0  0  0  0  0  0  0  0  0
    7.5942  -13.2998   22.5595 N   0  0  0  0  0  0  0  0  0  0  0  0
    7.8768  -14.8366   24.4227 C   0  0  0  0  0  0  0  0  0  0  0  0
    6.8887  -15.6016   24.2889 O   0  0  0  0  0  0  0  0  0  0  0  0
   12.3855  -20.7347   26.7611 N   0  0  0  0  0  0  0  0  0  0  0  0
   12.8502  -21.0917   25.4731 C   0  0  0  0  0  0  0  0  0  0  0  0
   13.7914  -21.9362   25.3290 N   0  0  0  0  0  0  0  0  0  0  0  0
   12.2614  -20.5002   24.2953 N   0  0  0  0  0  0  0  0  0  0  0  0
   12.0932  -19.0857   24.2037 C   0  0  0  0  0  0  0  0  0  0  0  0
   10.8378  -18.6426   24.9358 C   0  0  0  0  0  0  0  0  0  0  0  0
   10.4288  -17.2502   24.5476 C   0  0  0  0  0  0  0  0  0  0  0  0
    9.2077  -16.7587   25.2475 C   0  0  2  0  0  0  0  0  0  0  0  0
    9.0615  -15.3431   24.9745 N   0  0  0  0  0  0  0  0  0  0  0  0
    9.2001  -16.9732   26.6912 C   0  0  0  0  0  0  0  0  0  0  0  0
    8.7822  -18.0188   27.2600 O   0  0  0  0  0  0  0  0  0  0  0  0
    9.6778  -15.9791   27.5287 O   0  0  0  0  0  0  0  0  0  0  0  0
  2  1  1  6
  2  9  1  0
  2  3  1  0
  3  4  1  0
  4  5  2  0
  4  8  1  0
  5  6  1  0
  6  7  1  0
  8  7  2  0
  9 10  2  0
 12 11  1  1
 12 14  1  0
 13 12  1  0
 15 14  1  1
 16 15  1  0
 16  9  1  0
 17 27  1  0
 17 15  1  0
 18 17  2  0
 19 20  1  0
 20 22  1  0
 21 20  2  0
 23 22  1  0
 23 24  1  0
 24 25  1  0
 26 25  1  1
 26 27  1  0
 26 28  1  0
 28 30  1  0
 29 28  2  0
M  END
$$$$
