HLR.pdb
     RDKit          3D

 30 30  0  0  1  0  0  0  0  0999 V2000
    9.5526  -15.4601   20.0485 N   0  0  0  0  0  0  0  0  0  0  0  0
    8.3129  -15.6115   20.8133 C   0  0  1  0  0  0  0  0  0  0  0  0
    8.0297  -17.0957   20.8528 C   0  0  0  0  0  0  0  0  0  0  0  0
    7.6646  -17.6148   19.5093 C   0  0  0  0  0  0  0  0  0  0  0  0
    7.7323  -16.9653   18.3060 C   0  0  0  0  0  0  0  0  0  0  0  0
    7.3054  -17.8074   17.3465 N   0  0  0  0  0  0  0  0  0  0  0  0
    6.9757  -18.9684   17.9443 C   0  0  0  0  0  0  0  0  0  0  0  0
    7.1911  -18.8543   19.2473 N   0  0  0  0  0  0  0  0  0  0  0  0
    8.5842  -15.1265   22.1913 C   0  0  0  0  0  0  0  0  0  0  0  0
    9.6733  -15.4239   22.7917 O   0  0  0  0  0  0  0  0  0  0  0  0
    8.0073  -11.8168   26.6377 C   0  0  0  0  0  0  0  0  0  0  0  0
    6.9198  -12.8052   26.3491 C   0  0  1  0  0  0  0  0  0  0  0  0
    5.6090  -12.1507   26.8041 C   0  0  0  0  0  0  0  0  0  0  0  0
    6.7416  -13.1247   24.8871 C   0  0  0  0  0  0  0  0  0  0  0  0
    7.7921  -14.0124   24.3040 C   0  0  2  0  0  0  0  0  0  0  0  0
    7.6774  -14.3161   22.9238 N   0  0  0  0  0  0  0  0  0  0  0  0
    7.8822  -15.2255   25.1697 C   0  0  0  0  0  0  0  0  0  0  0  0
    7.1002  -16.1681   24.8879 O   0  0  0  0  0  0  0  0  0  0  0  0
   11.6567  -19.4883   21.0343 N   0  0  0  0  0  0  0  0  0  0  0  0
   11.4584  -20.4190   22.0816 C   0  0  0  0  0  0  0  0  0  0  0  0
   11.4743  -21.6712   21.8545 N   0  0  0  0  0  0  0  0  0  0  0  0
   11.2330  -19.9607   23.4318 N   0  0  0  0  0  0  0  0  0  0  0  0
   11.0741  -18.5689   23.7058 C   0  0  0  0  0  0  0  0  0  0  0  0
   10.6389  -18.3481   25.1446 C   0  0  0  0  0  0  0  0  0  0  0  0
   10.4131  -16.8928   25.4412 C   0  0  0  0  0  0  0  0  0  0  0  0
    9.4102  -16.6404   26.5148 C   0  0  2  0  0  0  0  0  0  0  0  0
    8.7642  -15.3707   26.2493 N   0  0  0  0  0  0  0  0  0  0  0  0
    9.9520  -16.6298   27.8700 C   0  0  0  0  0  0  0  0  0  0  0  0
   10.3180  -15.5935   28.4894 O   0  0  0  0  0  0  0  0  0  0  0  0
   10.0895  -17.8246   28.5566 O   0  0  0  0  0  0  0  0  0  0  0  0
  2  1  1  6
  2  9  1  0
  2  3  1  0
  3  4  1  0
  4  5  2  0
  4  8  1  0
  5  6  1  0
  6  7  1  0
  8  7  2  0
  9 10  2  0
 12 11  1  6
 12 14  1  0
 13 12  1  0
 15 14  1  1
 16 15  1  0
 16  9  1  0
 17 27  1  0
 17 15  1  0
 18 17  2  0
 19 20  1  0
 20 22  1  0
 21 20  2  0
 23 22  1  0
 23 24  1  0
 24 25  1  0
 26 25  1  6
 26 27  1  0
 26 28  1  0
 28 30  1  0
 29 28  2  0
M  END
$$$$
