HLR.pdb
     RDKit          3D

 30 30  0  0  1  0  0  0  0  0999 V2000
   10.9074  -16.4788   16.0843 N   0  0  0  0  0  0  0  0  0  0  0  0
    9.8440  -16.8105   17.0350 C   0  0  1  0  0  0  0  0  0  0  0  0
    9.9549  -18.2984   17.2773 C   0  0  0  0  0  0  0  0  0  0  0  0
    9.6185  -19.0741   16.0555 C   0  0  0  0  0  0  0  0  0  0  0  0
    9.2643  -18.5960   14.8225 C   0  0  0  0  0  0  0  0  0  0  0  0
    9.0472  -19.6459   14.0084 N   0  0  0  0  0  0  0  0  0  0  0  0
    9.2638  -20.7654   14.7252 C   0  0  0  0  0  0  0  0  0  0  0  0
    9.6079  -20.4231   15.9588 N   0  0  0  0  0  0  0  0  0  0  0  0
   10.1398  -16.0840   18.2968 C   0  0  0  0  0  0  0  0  0  0  0  0
   11.2342  -15.4394   18.4446 O   0  0  0  0  0  0  0  0  0  0  0  0
    6.6678  -12.4839   19.4378 C   0  0  0  0  0  0  0  0  0  0  0  0
    7.9330  -13.2836   19.3867 C   0  0  1  0  0  0  0  0  0  0  0  0
    9.0848  -12.2703   19.3791 C   0  0  0  0  0  0  0  0  0  0  0  0
    8.1604  -14.1654   20.5876 C   0  0  0  0  0  0  0  0  0  0  0  0
    9.3085  -15.1132   20.4644 C   0  0  2  0  0  0  0  0  0  0  0  0
    9.2506  -16.0516   19.4031 N   0  0  0  0  0  0  0  0  0  0  0  0
    9.5102  -15.7461   21.8015 C   0  0  0  0  0  0  0  0  0  0  0  0
    9.6602  -14.9604   22.7708 O   0  0  0  0  0  0  0  0  0  0  0  0
   16.0296  -17.0183   19.5068 N   0  0  0  0  0  0  0  0  0  0  0  0
   16.1217  -18.3964   19.8142 C   0  0  0  0  0  0  0  0  0  0  0  0
   17.2540  -18.9599   19.9561 N   0  0  0  0  0  0  0  0  0  0  0  0
   14.9264  -19.1901   19.9720 N   0  0  0  0  0  0  0  0  0  0  0  0
   13.6380  -18.5954   19.8172 C   0  0  0  0  0  0  0  0  0  0  0  0
   12.9152  -18.5179   21.1514 C   0  0  0  0  0  0  0  0  0  0  0  0
   11.5467  -17.9148   21.0094 C   0  0  0  0  0  0  0  0  0  0  0  0
   10.7933  -17.8099   22.2914 C   0  0  2  0  0  0  0  0  0  0  0  0
    9.5411  -17.1281   22.0328 N   0  0  0  0  0  0  0  0  0  0  0  0
   11.5028  -17.1213   23.3651 C   0  0  0  0  0  0  0  0  0  0  0  0
   11.8870  -15.9205   23.3177 O   0  0  0  0  0  0  0  0  0  0  0  0
   11.7932  -17.8031   24.5349 O   0  0  0  0  0  0  0  0  0  0  0  0
  2  1  1  6
  2  9  1  0
  2  3  1  0
  3  4  1  0
  4  5  2  0
  4  8  1  0
  5  6  1  0
  6  7  1  0
  8  7  2  0
  9 10  2  0
 12 11  1  1
 12 14  1  0
 13 12  1  0
 15 14  1  1
 16 15  1  0
 16  9  1  0
 17 27  1  0
 17 15  1  0
 18 17  2  0
 19 20  1  0
 20 22  1  0
 21 20  2  0
 23 22  1  0
 23 24  1  0
 24 25  1  0
 26 25  1  6
 26 27  1  0
 26 28  1  0
 28 30  1  0
 29 28  2  0
M  END
$$$$
