HLR.pdb
     RDKit          3D

 30 30  0  0  1  0  0  0  0  0999 V2000
   10.4343  -14.2872   21.1976 N   0  0  0  0  0  0  0  0  0  0  0  0
    9.0946  -14.0784   21.7510 C   0  0  1  0  0  0  0  0  0  0  0  0
    8.2020  -15.0876   21.0659 C   0  0  0  0  0  0  0  0  0  0  0  0
    7.8582  -14.6595   19.6852 C   0  0  0  0  0  0  0  0  0  0  0  0
    8.3395  -13.5824   18.9905 C   0  0  0  0  0  0  0  0  0  0  0  0
    7.7608  -13.5704   17.7752 N   0  0  0  0  0  0  0  0  0  0  0  0
    6.9287  -14.6276   17.7127 C   0  0  0  0  0  0  0  0  0  0  0  0
    6.9857  -15.2849   18.8624 N   0  0  0  0  0  0  0  0  0  0  0  0
    9.1646  -14.3898   23.2021 C   0  0  0  0  0  0  0  0  0  0  0  0
   10.2493  -14.8088   23.7341 O   0  0  0  0  0  0  0  0  0  0  0  0
    5.2572  -12.2139   26.8319 C   0  0  0  0  0  0  0  0  0  0  0  0
    6.5345  -12.5876   26.1451 C   0  0  1  0  0  0  0  0  0  0  0  0
    7.6498  -11.8062   26.8517 C   0  0  0  0  0  0  0  0  0  0  0  0
    6.9032  -14.0439   26.2667 C   0  0  0  0  0  0  0  0  0  0  0  0
    8.1074  -14.4559   25.4846 C   0  0  2  0  0  0  0  0  0  0  0  0
    8.0604  -14.2474   24.0829 N   0  0  0  0  0  0  0  0  0  0  0  0
    8.4234  -15.8656   25.8613 C   0  0  0  0  0  0  0  0  0  0  0  0
    8.4559  -16.1175   27.0922 O   0  0  0  0  0  0  0  0  0  0  0  0
   12.3881  -21.9071   21.4882 N   0  0  0  0  0  0  0  0  0  0  0  0
   11.9067  -20.7817   20.7784 C   0  0  0  0  0  0  0  0  0  0  0  0
   12.3242  -20.5221   19.6044 N   0  0  0  0  0  0  0  0  0  0  0  0
   10.9294  -19.9045   21.3777 N   0  0  0  0  0  0  0  0  0  0  0  0
   11.0526  -19.5112   22.7444 C   0  0  0  0  0  0  0  0  0  0  0  0
    9.9373  -18.5558   23.1340 C   0  0  0  0  0  0  0  0  0  0  0  0
    9.0599  -19.1324   24.2085 C   0  0  0  0  0  0  0  0  0  0  0  0
    8.9054  -18.2537   25.4027 C   0  0  2  0  0  0  0  0  0  0  0  0
    8.6789  -16.8969   24.9472 N   0  0  0  0  0  0  0  0  0  0  0  0
   10.0362  -18.2686   26.3255 C   0  0  0  0  0  0  0  0  0  0  0  0
   10.3822  -19.2619   27.0220 O   0  0  0  0  0  0  0  0  0  0  0  0
   10.8076  -17.1281   26.4740 O   0  0  0  0  0  0  0  0  0  0  0  0
  2  1  1  6
  2  9  1  0
  2  3  1  0
  3  4  1  0
  4  5  2  0
  4  8  1  0
  5  6  1  0
  6  7  1  0
  8  7  2  0
  9 10  2  0
 12 11  1  1
 12 14  1  0
 13 12  1  0
 15 14  1  1
 16 15  1  0
 16  9  1  0
 17 27  1  0
 17 15  1  0
 18 17  2  0
 19 20  1  0
 20 22  1  0
 21 20  2  0
 23 22  1  0
 23 24  1  0
 24 25  1  0
 26 25  1  6
 26 27  1  0
 26 28  1  0
 28 30  1  0
 29 28  2  0
M  END
$$$$
