HLR.pdb
     RDKit          3D

 30 30  0  0  1  0  0  0  0  0999 V2000
    9.7364  -15.8331   20.1369 N   0  0  0  0  0  0  0  0  0  0  0  0
    8.4198  -15.7313   20.7699 C   0  0  1  0  0  0  0  0  0  0  0  0
    7.8305  -17.1225   20.7255 C   0  0  0  0  0  0  0  0  0  0  0  0
    7.5105  -17.5325   19.3337 C   0  0  0  0  0  0  0  0  0  0  0  0
    7.8277  -16.8867   18.1689 C   0  0  0  0  0  0  0  0  0  0  0  0
    7.3444  -17.6083   17.1404 N   0  0  0  0  0  0  0  0  0  0  0  0
    6.7334  -18.6913   17.6576 C   0  0  0  0  0  0  0  0  0  0  0  0
    6.8320  -18.6475   18.9788 N   0  0  0  0  0  0  0  0  0  0  0  0
    8.6413  -15.3367   22.1850 C   0  0  0  0  0  0  0  0  0  0  0  0
    9.6578  -15.7600   22.8353 O   0  0  0  0  0  0  0  0  0  0  0  0
    8.0786  -12.2136   26.7851 C   0  0  0  0  0  0  0  0  0  0  0  0
    6.9226  -13.0574   26.3437 C   0  0  1  0  0  0  0  0  0  0  0  0
    5.6531  -12.2927   26.7403 C   0  0  0  0  0  0  0  0  0  0  0  0
    6.8370  -13.2645   24.8533 C   0  0  0  0  0  0  0  0  0  0  0  0
    7.8515  -14.2047   24.2890 C   0  0  2  0  0  0  0  0  0  0  0  0
    7.7636  -14.4809   22.9011 N   0  0  0  0  0  0  0  0  0  0  0  0
    7.8415  -15.4335   25.1371 C   0  0  0  0  0  0  0  0  0  0  0  0
    6.7919  -16.1238   25.1021 O   0  0  0  0  0  0  0  0  0  0  0  0
   12.2482  -19.8410   20.9687 N   0  0  0  0  0  0  0  0  0  0  0  0
   12.1951  -20.3665   22.2814 C   0  0  0  0  0  0  0  0  0  0  0  0
   12.4231  -21.5991   22.5015 N   0  0  0  0  0  0  0  0  0  0  0  0
   11.8791  -19.5084   23.3984 N   0  0  0  0  0  0  0  0  0  0  0  0
   10.5283  -19.3573   23.8345 C   0  0  0  0  0  0  0  0  0  0  0  0
   10.4568  -18.4908   25.0805 C   0  0  0  0  0  0  0  0  0  0  0  0
    9.0374  -18.1827   25.4640 C   0  0  0  0  0  0  0  0  0  0  0  0
    8.9081  -17.1693   26.5496 C   0  0  2  0  0  0  0  0  0  0  0  0
    8.9056  -15.8509   25.9481 N   0  0  0  0  0  0  0  0  0  0  0  0
    9.9483  -17.2293   27.5717 C   0  0  0  0  0  0  0  0  0  0  0  0
   10.8145  -16.3335   27.7687 O   0  0  0  0  0  0  0  0  0  0  0  0
   10.0213  -18.3341   28.4035 O   0  0  0  0  0  0  0  0  0  0  0  0
  2  1  1  6
  2  9  1  0
  2  3  1  0
  3  4  1  0
  4  5  2  0
  4  8  1  0
  5  6  1  0
  6  7  1  0
  8  7  2  0
  9 10  2  0
 12 11  1  6
 12 14  1  0
 13 12  1  0
 15 14  1  1
 16 15  1  0
 16  9  1  0
 17 27  1  0
 17 15  1  0
 18 17  2  0
 19 20  1  0
 20 22  1  0
 21 20  2  0
 23 22  1  0
 23 24  1  0
 24 25  1  0
 26 25  1  6
 26 27  1  0
 26 28  1  0
 28 30  1  0
 29 28  2  0
M  END
$$$$
