HLR.pdb
     RDKit          3D

 30 30  0  0  1  0  0  0  0  0999 V2000
    8.9153  -17.7146   15.0405 N   0  0  0  0  0  0  0  0  0  0  0  0
    9.8777  -16.6856   14.6408 C   0  0  1  0  0  0  0  0  0  0  0  0
    9.2997  -16.0364   13.4041 C   0  0  0  0  0  0  0  0  0  0  0  0
    9.1421  -17.0172   12.2992 C   0  0  0  0  0  0  0  0  0  0  0  0
    9.9943  -17.2570   11.2549 C   0  0  0  0  0  0  0  0  0  0  0  0
    9.4620  -18.2280   10.4894 N   0  0  0  0  0  0  0  0  0  0  0  0
    8.2920  -18.5896   11.0499 C   0  0  0  0  0  0  0  0  0  0  0  0
    8.0973  -17.8612   12.1402 N   0  0  0  0  0  0  0  0  0  0  0  0
    9.9348  -15.6864   15.7389 C   0  0  0  0  0  0  0  0  0  0  0  0
   10.7487  -14.7013   15.6912 O   0  0  0  0  0  0  0  0  0  0  0  0
    8.4018  -12.3410   19.6852 C   0  0  0  0  0  0  0  0  0  0  0  0
    8.2100  -13.7831   20.0408 C   0  0  1  0  0  0  0  0  0  0  0  0
    6.9072  -13.8597   20.8474 C   0  0  0  0  0  0  0  0  0  0  0  0
    8.0224  -14.6962   18.8566 C   0  0  0  0  0  0  0  0  0  0  0  0
    9.2507  -14.9261   18.0380 C   0  0  2  0  0  0  0  0  0  0  0  0
    9.1096  -15.7495   16.8924 N   0  0  0  0  0  0  0  0  0  0  0  0
   10.3261  -15.3854   18.9661 C   0  0  0  0  0  0  0  0  0  0  0  0
   10.3347  -16.6113   19.2428 O   0  0  0  0  0  0  0  0  0  0  0  0
   17.8887  -15.2437   19.6880 N   0  0  0  0  0  0  0  0  0  0  0  0
   17.8252  -14.9708   18.3010 C   0  0  0  0  0  0  0  0  0  0  0  0
   18.7080  -15.4250   17.5047 N   0  0  0  0  0  0  0  0  0  0  0  0
   16.7526  -14.1677   17.7639 N   0  0  0  0  0  0  0  0  0  0  0  0
   15.7460  -13.6365   18.6254 C   0  0  0  0  0  0  0  0  0  0  0  0
   14.7016  -14.6911   18.9501 C   0  0  0  0  0  0  0  0  0  0  0  0
   13.6299  -14.1535   19.8552 C   0  0  0  0  0  0  0  0  0  0  0  0
   12.5109  -15.1065   20.1041 C   0  0  2  0  0  0  0  0  0  0  0  0
   11.3006  -14.5518   19.5318 N   0  0  0  0  0  0  0  0  0  0  0  0
   12.2765  -15.4236   21.5094 C   0  0  0  0  0  0  0  0  0  0  0  0
   11.3688  -14.9110   22.2199 O   0  0  0  0  0  0  0  0  0  0  0  0
   13.0896  -16.3488   22.1424 O   0  0  0  0  0  0  0  0  0  0  0  0
  2  1  1  1
  2  9  1  0
  2  3  1  0
  3  4  1  0
  4  5  2  0
  4  8  1  0
  5  6  1  0
  6  7  1  0
  8  7  2  0
  9 10  2  0
 12 11  1  6
 12 14  1  0
 13 12  1  0
 15 14  1  1
 16 15  1  0
 16  9  1  0
 17 27  1  0
 17 15  1  0
 18 17  2  0
 19 20  1  0
 20 22  1  0
 21 20  2  0
 23 22  1  0
 23 24  1  0
 24 25  1  0
 26 25  1  1
 26 27  1  0
 26 28  1  0
 28 30  1  0
 29 28  2  0
M  END
$$$$
