HLR.pdb
     RDKit          3D

 30 30  0  0  1  0  0  0  0  0999 V2000
   12.0826  -16.7707   16.9770 N   0  0  0  0  0  0  0  0  0  0  0  0
   13.0167  -15.7589   17.4752 C   0  0  1  0  0  0  0  0  0  0  0  0
   13.5543  -15.0535   16.2512 C   0  0  0  0  0  0  0  0  0  0  0  0
   14.3173  -15.9840   15.3796 C   0  0  0  0  0  0  0  0  0  0  0  0
   14.6981  -17.2714   15.6476 C   0  0  0  0  0  0  0  0  0  0  0  0
   15.3703  -17.7441   14.5814 N   0  0  0  0  0  0  0  0  0  0  0  0
   15.4080  -16.7632   13.6594 C   0  0  0  0  0  0  0  0  0  0  0  0
   14.7744  -15.7019   14.1383 N   0  0  0  0  0  0  0  0  0  0  0  0
   12.2301  -14.7974   18.2903 C   0  0  0  0  0  0  0  0  0  0  0  0
   12.7769  -13.7536   18.7871 O   0  0  0  0  0  0  0  0  0  0  0  0
    8.4311  -11.4570   19.9272 C   0  0  0  0  0  0  0  0  0  0  0  0
    7.9654  -12.8799   19.9634 C   0  0  1  0  0  0  0  0  0  0  0  0
    6.5075  -12.8699   19.4859 C   0  0  0  0  0  0  0  0  0  0  0  0
    8.7052  -13.8005   19.0270 C   0  0  0  0  0  0  0  0  0  0  0  0
   10.0948  -14.1468   19.4518 C   0  0  2  0  0  0  0  0  0  0  0  0
   10.8479  -14.9619   18.5693 N   0  0  0  0  0  0  0  0  0  0  0  0
   10.0140  -14.6955   20.8380 C   0  0  0  0  0  0  0  0  0  0  0  0
    8.8815  -15.0896   21.2141 O   0  0  0  0  0  0  0  0  0  0  0  0
   10.9160  -21.6089   20.3553 N   0  0  0  0  0  0  0  0  0  0  0  0
   12.1676  -21.7024   21.0088 C   0  0  0  0  0  0  0  0  0  0  0  0
   12.5382  -22.7890   21.5581 N   0  0  0  0  0  0  0  0  0  0  0  0
   13.0488  -20.5604   21.0640 N   0  0  0  0  0  0  0  0  0  0  0  0
   12.6175  -19.2902   20.5760 C   0  0  0  0  0  0  0  0  0  0  0  0
   12.2120  -18.3803   21.7231 C   0  0  0  0  0  0  0  0  0  0  0  0
   11.7680  -17.0311   21.2337 C   0  0  0  0  0  0  0  0  0  0  0  0
   11.4520  -16.0639   22.3232 C   0  0  2  0  0  0  0  0  0  0  0  0
   11.0983  -14.7944   21.7206 N   0  0  0  0  0  0  0  0  0  0  0  0
   12.5265  -15.8550   23.2886 C   0  0  0  0  0  0  0  0  0  0  0  0
   13.5049  -15.0772   23.1174 O   0  0  0  0  0  0  0  0  0  0  0  0
   12.5044  -16.5433   24.4900 O   0  0  0  0  0  0  0  0  0  0  0  0
  2  1  1  6
  2  9  1  0
  2  3  1  0
  3  4  1  0
  4  5  2  0
  4  8  1  0
  5  6  1  0
  6  7  1  0
  8  7  2  0
  9 10  2  0
 12 11  1  6
 12 14  1  0
 13 12  1  0
 15 14  1  6
 16 15  1  0
 16  9  1  0
 17 27  1  0
 17 15  1  0
 18 17  2  0
 19 20  1  0
 20 22  1  0
 21 20  2  0
 23 22  1  0
 23 24  1  0
 24 25  1  0
 26 25  1  6
 26 27  1  0
 26 28  1  0
 28 30  1  0
 29 28  2  0
M  END
$$$$
