HLR.pdb
     RDKit          3D

 30 30  0  0  1  0  0  0  0  0999 V2000
    5.1962  -19.9704   23.4091 N   0  0  0  0  0  0  0  0  0  0  0  0
    5.8206  -19.4967   24.6462 C   0  0  1  0  0  0  0  0  0  0  0  0
    6.9799  -20.4305   24.9085 C   0  0  0  0  0  0  0  0  0  0  0  0
    6.5146  -21.7383   25.4383 C   0  0  0  0  0  0  0  0  0  0  0  0
    6.0455  -22.0228   26.6926 C   0  0  0  0  0  0  0  0  0  0  0  0
    5.7346  -23.3317   26.7409 N   0  0  0  0  0  0  0  0  0  0  0  0
    6.0063  -23.8571   25.5309 C   0  0  0  0  0  0  0  0  0  0  0  0
    6.4765  -22.8989   24.7447 N   0  0  0  0  0  0  0  0  0  0  0  0
    6.3407  -18.1304   24.3812 C   0  0  0  0  0  0  0  0  0  0  0  0
    6.7302  -17.7893   23.2119 O   0  0  0  0  0  0  0  0  0  0  0  0
    6.8144  -12.6122   25.0923 C   0  0  0  0  0  0  0  0  0  0  0  0
    7.5047  -13.5230   26.0603 C   0  0  1  0  0  0  0  0  0  0  0  0
    7.4834  -12.8075   27.4172 C   0  0  0  0  0  0  0  0  0  0  0  0
    6.8115  -14.8441   26.2739 C   0  0  0  0  0  0  0  0  0  0  0  0
    7.0431  -15.8573   25.2008 C   0  0  2  0  0  0  0  0  0  0  0  0
    6.4398  -17.1277   25.3813 N   0  0  0  0  0  0  0  0  0  0  0  0
    8.5158  -15.9312   24.9670 C   0  0  0  0  0  0  0  0  0  0  0  0
    9.1676  -16.6595   25.7570 O   0  0  0  0  0  0  0  0  0  0  0  0
   14.2672  -13.4780   19.5351 N   0  0  0  0  0  0  0  0  0  0  0  0
   14.2329  -14.8075   19.0520 C   0  0  0  0  0  0  0  0  0  0  0  0
   15.2512  -15.3251   18.4907 N   0  0  0  0  0  0  0  0  0  0  0  0
   13.0358  -15.6026   19.1880 N   0  0  0  0  0  0  0  0  0  0  0  0
   11.8999  -15.0862   19.8814 C   0  0  0  0  0  0  0  0  0  0  0  0
   11.7991  -15.6854   21.2740 C   0  0  0  0  0  0  0  0  0  0  0  0
   10.5633  -15.2222   21.9916 C   0  0  0  0  0  0  0  0  0  0  0  0
   10.3889  -15.8180   23.3469 C   0  0  2  0  0  0  0  0  0  0  0  0
    9.1957  -15.2541   23.9454 N   0  0  0  0  0  0  0  0  0  0  0  0
   11.5177  -15.6248   24.2517 C   0  0  0  0  0  0  0  0  0  0  0  0
   11.5437  -14.7943   25.2009 O   0  0  0  0  0  0  0  0  0  0  0  0
   12.6601  -16.3900   24.0866 O   0  0  0  0  0  0  0  0  0  0  0  0
  2  1  1  6
  2  9  1  0
  2  3  1  0
  3  4  1  0
  4  5  2  0
  4  8  1  0
  5  6  1  0
  6  7  1  0
  8  7  2  0
  9 10  2  0
 12 11  1  6
 12 14  1  0
 13 12  1  0
 15 14  1  1
 16 15  1  0
 16  9  1  0
 17 27  1  0
 17 15  1  0
 18 17  2  0
 19 20  1  0
 20 22  1  0
 21 20  2  0
 23 22  1  0
 23 24  1  0
 24 25  1  0
 26 25  1  6
 26 27  1  0
 26 28  1  0
 28 30  1  0
 29 28  2  0
M  END
$$$$
