HLR.pdb
     RDKit          3D

 30 30  0  0  1  0  0  0  0  0999 V2000
   14.1797  -14.3468   18.5885 N   0  0  0  0  0  0  0  0  0  0  0  0
   13.0347  -15.2472   18.7402 C   0  0  1  0  0  0  0  0  0  0  0  0
   13.6153  -16.6022   19.0746 C   0  0  0  0  0  0  0  0  0  0  0  0
   14.0447  -17.3261   17.8503 C   0  0  0  0  0  0  0  0  0  0  0  0
   13.9923  -16.8948   16.5520 C   0  0  0  0  0  0  0  0  0  0  0  0
   14.4844  -17.8682   15.7630 N   0  0  0  0  0  0  0  0  0  0  0  0
   14.8397  -18.8942   16.5599 C   0  0  0  0  0  0  0  0  0  0  0  0
   14.5754  -18.5698   17.8177 N   0  0  0  0  0  0  0  0  0  0  0  0
   12.2385  -14.7556   19.8942 C   0  0  0  0  0  0  0  0  0  0  0  0
   12.8052  -14.1971   20.8952 O   0  0  0  0  0  0  0  0  0  0  0  0
    6.7354  -13.3055   19.3549 C   0  0  0  0  0  0  0  0  0  0  0  0
    8.2043  -13.3914   19.6339 C   0  0  1  0  0  0  0  0  0  0  0  0
    8.6551  -11.9757   20.0167 C   0  0  0  0  0  0  0  0  0  0  0  0
    8.5653  -14.2744   20.8008 C   0  0  0  0  0  0  0  0  0  0  0  0
   10.0308  -14.4164   21.0532 C   0  0  2  0  0  0  0  0  0  0  0  0
   10.8250  -14.8658   19.9680 N   0  0  0  0  0  0  0  0  0  0  0  0
   10.1933  -15.2432   22.2856 C   0  0  0  0  0  0  0  0  0  0  0  0
   10.6536  -16.4010   22.1209 O   0  0  0  0  0  0  0  0  0  0  0  0
    5.9330  -13.2769   25.1429 N   0  0  0  0  0  0  0  0  0  0  0  0
    5.9207  -12.8006   26.4753 C   0  0  0  0  0  0  0  0  0  0  0  0
    5.2224  -11.7875   26.8006 N   0  0  0  0  0  0  0  0  0  0  0  0
    6.7048  -13.4593   27.4927 N   0  0  0  0  0  0  0  0  0  0  0  0
    8.1063  -13.6587   27.3093 C   0  0  0  0  0  0  0  0  0  0  0  0
    8.3739  -14.5158   26.0837 C   0  0  0  0  0  0  0  0  0  0  0  0
    9.8266  -14.8795   25.9647 C   0  0  0  0  0  0  0  0  0  0  0  0
   10.1613  -15.6472   24.7314 C   0  0  2  0  0  0  0  0  0  0  0  0
    9.8713  -14.8153   23.5809 N   0  0  0  0  0  0  0  0  0  0  0  0
    9.4613  -16.9204   24.5926 C   0  0  0  0  0  0  0  0  0  0  0  0
    9.7323  -17.9643   25.2471 O   0  0  0  0  0  0  0  0  0  0  0  0
    8.4195  -17.0283   23.6866 O   0  0  0  0  0  0  0  0  0  0  0  0
  2  1  1  1
  2  9  1  0
  2  3  1  0
  3  4  1  0
  4  5  2  0
  4  8  1  0
  5  6  1  0
  6  7  1  0
  8  7  2  0
  9 10  2  0
 12 11  1  1
 12 14  1  0
 13 12  1  0
 15 14  1  6
 16 15  1  0
 16  9  1  0
 17 27  1  0
 17 15  1  0
 18 17  2  0
 19 20  1  0
 20 22  1  0
 21 20  2  0
 23 22  1  0
 23 24  1  0
 24 25  1  0
 26 25  1  1
 26 27  1  0
 26 28  1  0
 28 30  1  0
 29 28  2  0
M  END
$$$$
