HLR.pdb
     RDKit          3D

 30 30  0  0  1  0  0  0  0  0999 V2000
    9.3824  -15.1307   20.3747 N   0  0  0  0  0  0  0  0  0  0  0  0
    8.2939  -15.5466   21.2617 C   0  0  1  0  0  0  0  0  0  0  0  0
    8.1683  -17.0430   21.0892 C   0  0  0  0  0  0  0  0  0  0  0  0
    7.6243  -17.3916   19.7512 C   0  0  0  0  0  0  0  0  0  0  0  0
    7.3640  -16.5531   18.7008 C   0  0  0  0  0  0  0  0  0  0  0  0
    6.8802  -17.2888   17.6825 N   0  0  0  0  0  0  0  0  0  0  0  0
    6.8396  -18.5708   18.0930 C   0  0  0  0  0  0  0  0  0  0  0  0
    7.2872  -18.6349   19.3391 N   0  0  0  0  0  0  0  0  0  0  0  0
    8.7211  -15.2467   22.6528 C   0  0  0  0  0  0  0  0  0  0  0  0
    9.9568  -15.2674   22.9811 O   0  0  0  0  0  0  0  0  0  0  0  0
    5.4779  -12.3138   26.3545 C   0  0  0  0  0  0  0  0  0  0  0  0
    6.6721  -12.7997   25.5925 C   0  0  1  0  0  0  0  0  0  0  0  0
    7.8316  -11.8666   25.9653 C   0  0  0  0  0  0  0  0  0  0  0  0
    7.1208  -14.1907   25.9600 C   0  0  0  0  0  0  0  0  0  0  0  0
    8.1599  -14.7755   25.0600 C   0  0  2  0  0  0  0  0  0  0  0  0
    7.8117  -14.9219   23.6934 N   0  0  0  0  0  0  0  0  0  0  0  0
    8.6311  -16.0452   25.6883 C   0  0  0  0  0  0  0  0  0  0  0  0
    7.8485  -17.0257   25.6134 O   0  0  0  0  0  0  0  0  0  0  0  0
   15.9841  -20.3202   24.5775 N   0  0  0  0  0  0  0  0  0  0  0  0
   15.2535  -21.1520   25.4588 C   0  0  0  0  0  0  0  0  0  0  0  0
   15.6423  -22.3372   25.7115 N   0  0  0  0  0  0  0  0  0  0  0  0
   14.0483  -20.6673   26.0884 N   0  0  0  0  0  0  0  0  0  0  0  0
   13.5159  -19.3887   25.7426 C   0  0  0  0  0  0  0  0  0  0  0  0
   12.1985  -19.1411   26.4578 C   0  0  0  0  0  0  0  0  0  0  0  0
   11.5940  -17.8214   26.0705 C   0  0  0  0  0  0  0  0  0  0  0  0
   10.3129  -17.5125   26.7675 C   0  0  2  0  0  0  0  0  0  0  0  0
    9.8622  -16.2036   26.3393 N   0  0  0  0  0  0  0  0  0  0  0  0
   10.3848  -17.5431   28.2249 C   0  0  0  0  0  0  0  0  0  0  0  0
   10.7137  -18.5522   28.9070 O   0  0  0  0  0  0  0  0  0  0  0  0
   10.0760  -16.4013   28.9450 O   0  0  0  0  0  0  0  0  0  0  0  0
  2  1  1  6
  2  9  1  0
  2  3  1  0
  3  4  1  0
  4  5  2  0
  4  8  1  0
  5  6  1  0
  6  7  1  0
  8  7  2  0
  9 10  2  0
 12 11  1  1
 12 14  1  0
 13 12  1  0
 15 14  1  1
 16 15  1  0
 16  9  1  0
 17 27  1  0
 17 15  1  0
 18 17  2  0
 19 20  1  0
 20 22  1  0
 21 20  2  0
 23 22  1  0
 23 24  1  0
 24 25  1  0
 26 25  1  6
 26 27  1  0
 26 28  1  0
 28 30  1  0
 29 28  2  0
M  END
$$$$
