DKG.pdb
     RDKit          3D

 22 21  0  0  1  0  0  0  0  0999 V2000
   10.4903  -18.0001   20.6779 N   0  0  0  0  0  0  0  0  0  0  0  0
   11.5368  -17.2811   21.3787 C   0  0  1  0  0  0  0  0  0  0  0  0
   12.4770  -16.6317   20.4060 C   0  0  0  0  0  0  0  0  0  0  0  0
   13.1321  -17.6078   19.5141 C   0  0  0  0  0  0  0  0  0  0  0  0
   13.1705  -18.8166   19.8565 O   0  0  0  0  0  0  0  0  0  0  0  0
   10.9644  -16.2941   22.3426 C   0  0  0  0  0  0  0  0  0  0  0  0
   11.7071  -15.5811   23.0541 O   0  0  0  0  0  0  0  0  0  0  0  0
   13.7181  -17.2725   18.3022 O   0  0  0  0  0  0  0  0  0  0  0  0
    9.5769  -16.1609   22.4554 N   0  0  0  0  0  0  0  0  0  0  0  0
    8.9216  -15.1741   23.3305 C   0  0  1  0  0  0  0  0  0  0  0  0
    7.8694  -14.5018   22.4738 C   0  0  0  0  0  0  0  0  0  0  0  0
    8.3857  -13.7703   21.2942 C   0  0  0  0  0  0  0  0  0  0  0  0
    7.3912  -13.8905   20.1368 C   0  0  0  0  0  0  0  0  0  0  0  0
    7.8900  -13.1227   18.9336 C   0  0  0  0  0  0  0  0  0  0  0  0
    7.0859  -13.4155   17.7646 N   0  0  0  0  0  0  0  0  0  0  0  0
    8.4105  -15.7992   24.5466 C   0  0  0  0  0  0  0  0  0  0  0  0
    7.1493  -15.7307   24.7543 O   0  0  0  0  0  0  0  0  0  0  0  0
    9.1643  -16.4844   25.5312 N   0  0  0  0  0  0  0  0  0  0  0  0
    8.5466  -17.1670   26.6544 C   0  0  0  0  0  0  0  0  0  0  0  0
    9.5934  -17.7911   27.5211 C   0  0  0  0  0  0  0  0  0  0  0  0
    9.2832  -18.5382   28.6308 O   0  0  0  0  0  0  0  0  0  0  0  0
   10.7972  -17.6246   27.2214 O   0  0  0  0  0  0  0  0  0  0  0  0
  2  6  1  0
  2  3  1  0
  2  1  1  6
  3  4  1  0
  4  8  1  0
  4  5  2  0
  6  7  2  0
  9 10  1  0
  9  6  1  0
 10 16  1  0
 11 12  1  0
 10 11  1  6
 12 13  1  0
 13 14  1  0
 14 15  1  0
 16 18  1  0
 16 17  2  0
 18 19  1  0
 20 21  1  0
 20 19  1  0
 22 20  2  0
M  END
$$$$
