DKG.pdb
     RDKit          3D

 22 21  0  0  1  0  0  0  0  0999 V2000
   13.1335  -15.9505   17.7346 N   0  0  0  0  0  0  0  0  0  0  0  0
   14.0468  -15.4875   18.7617 C   0  0  1  0  0  0  0  0  0  0  0  0
   14.8156  -14.2894   18.2867 C   0  0  0  0  0  0  0  0  0  0  0  0
   15.6866  -14.5955   17.1357 C   0  0  0  0  0  0  0  0  0  0  0  0
   15.6496  -15.7465   16.6320 O   0  0  0  0  0  0  0  0  0  0  0  0
   13.3290  -15.2157   20.0429 C   0  0  0  0  0  0  0  0  0  0  0  0
   13.9341  -14.7561   21.0373 O   0  0  0  0  0  0  0  0  0  0  0  0
   16.5582  -13.6802   16.5636 O   0  0  0  0  0  0  0  0  0  0  0  0
   11.9585  -15.4774   20.1379 N   0  0  0  0  0  0  0  0  0  0  0  0
   11.1318  -15.0838   21.2915 C   0  0  1  0  0  0  0  0  0  0  0  0
    9.7240  -14.9335   20.7544 C   0  0  0  0  0  0  0  0  0  0  0  0
    9.5505  -13.8937   19.7144 C   0  0  0  0  0  0  0  0  0  0  0  0
    8.1054  -13.9048   19.2097 C   0  0  0  0  0  0  0  0  0  0  0  0
    7.8972  -12.8097   18.1883 C   0  0  0  0  0  0  0  0  0  0  0  0
    6.5586  -12.8657   17.6369 N   0  0  0  0  0  0  0  0  0  0  0  0
   11.2675  -16.0341   22.3911 C   0  0  0  0  0  0  0  0  0  0  0  0
   11.4835  -17.2579   22.0838 O   0  0  0  0  0  0  0  0  0  0  0  0
   11.1894  -15.7478   23.7764 N   0  0  0  0  0  0  0  0  0  0  0  0
   11.0679  -16.7864   24.7841 C   0  0  0  0  0  0  0  0  0  0  0  0
   12.4222  -17.2457   25.2213 C   0  0  0  0  0  0  0  0  0  0  0  0
   12.6064  -18.0856   26.2920 O   0  0  0  0  0  0  0  0  0  0  0  0
   13.4242  -16.8479   24.5854 O   0  0  0  0  0  0  0  0  0  0  0  0
  2  6  1  0
  2  3  1  0
  2  1  1  6
  3  4  1  0
  4  8  1  0
  4  5  2  0
  6  7  2  0
  9 10  1  0
  9  6  1  0
 10 16  1  0
 11 12  1  0
 10 11  1  6
 12 13  1  0
 13 14  1  0
 14 15  1  0
 16 18  1  0
 16 17  2  0
 18 19  1  0
 20 21  1  0
 20 19  1  0
 22 20  2  0
M  END
$$$$
