DKG.pdb
     RDKit          3D

 22 21  0  0  1  0  0  0  0  0999 V2000
   11.9853  -16.2712   18.7880 N   0  0  0  0  0  0  0  0  0  0  0  0
   12.8860  -15.5796   19.6901 C   0  0  1  0  0  0  0  0  0  0  0  0
   13.5623  -14.4366   18.9913 C   0  0  0  0  0  0  0  0  0  0  0  0
   14.5973  -14.8867   18.0409 C   0  0  0  0  0  0  0  0  0  0  0  0
   14.9752  -16.0851   18.0733 O   0  0  0  0  0  0  0  0  0  0  0  0
   12.1778  -15.1345   20.9275 C   0  0  0  0  0  0  0  0  0  0  0  0
   12.7979  -14.5798   21.8624 O   0  0  0  0  0  0  0  0  0  0  0  0
   15.1903  -14.0596   17.0982 O   0  0  0  0  0  0  0  0  0  0  0  0
   10.7996  -15.3385   21.0479 N   0  0  0  0  0  0  0  0  0  0  0  0
    9.9980  -14.8407   22.1788 C   0  0  1  0  0  0  0  0  0  0  0  0
    8.6336  -14.5217   21.6047 C   0  0  0  0  0  0  0  0  0  0  0  0
    8.6038  -13.4172   20.6187 C   0  0  0  0  0  0  0  0  0  0  0  0
    8.1199  -13.9459   19.2662 C   0  0  0  0  0  0  0  0  0  0  0  0
    8.1552  -12.8463   18.2291 C   0  0  0  0  0  0  0  0  0  0  0  0
    7.6062  -13.3065   16.9698 N   0  0  0  0  0  0  0  0  0  0  0  0
    9.9876  -15.7951   23.2832 C   0  0  0  0  0  0  0  0  0  0  0  0
    9.2683  -15.5042   24.3013 O   0  0  0  0  0  0  0  0  0  0  0  0
   10.6904  -17.0233   23.3517 N   0  0  0  0  0  0  0  0  0  0  0  0
   10.5720  -17.9304   24.4797 C   0  0  0  0  0  0  0  0  0  0  0  0
   11.8363  -17.9321   25.2784 C   0  0  0  0  0  0  0  0  0  0  0  0
   12.0086  -18.7264   26.3853 O   0  0  0  0  0  0  0  0  0  0  0  0
   12.7714  -17.1802   24.9223 O   0  0  0  0  0  0  0  0  0  0  0  0
  2  6  1  0
  2  3  1  0
  2  1  1  6
  3  4  1  0
  4  8  1  0
  4  5  2  0
  6  7  2  0
  9 10  1  0
  9  6  1  0
 10 16  1  0
 11 12  1  0
 10 11  1  6
 12 13  1  0
 13 14  1  0
 14 15  1  0
 16 18  1  0
 16 17  2  0
 18 19  1  0
 20 21  1  0
 20 19  1  0
 22 20  2  0
M  END
$$$$
