DKG.pdb
     RDKit          3D

 22 21  0  0  1  0  0  0  0  0999 V2000
   14.2360  -16.1417   17.8034 N   0  0  0  0  0  0  0  0  0  0  0  0
   14.5140  -15.2879   18.9424 C   0  0  1  0  0  0  0  0  0  0  0  0
   14.8769  -13.9034   18.4913 C   0  0  0  0  0  0  0  0  0  0  0  0
   16.1066  -13.8776   17.6763 C   0  0  0  0  0  0  0  0  0  0  0  0
   16.6529  -14.9652   17.3621 O   0  0  0  0  0  0  0  0  0  0  0  0
   13.3713  -15.2780   19.9042 C   0  0  0  0  0  0  0  0  0  0  0  0
   13.4108  -14.5868   20.9467 O   0  0  0  0  0  0  0  0  0  0  0  0
   16.7092  -12.7117   17.2267 O   0  0  0  0  0  0  0  0  0  0  0  0
   12.2369  -16.0519   19.6399 N   0  0  0  0  0  0  0  0  0  0  0  0
   11.1559  -16.2729   20.6154 C   0  0  1  0  0  0  0  0  0  0  0  0
    9.9458  -16.6793   19.8009 C   0  0  0  0  0  0  0  0  0  0  0  0
    8.7473  -17.0485   20.5884 C   0  0  0  0  0  0  0  0  0  0  0  0
    7.6206  -17.4750   19.6439 C   0  0  0  0  0  0  0  0  0  0  0  0
    6.4142  -17.9264   20.4355 C   0  0  0  0  0  0  0  0  0  0  0  0
    5.3229  -18.2863   19.5531 N   0  0  0  0  0  0  0  0  0  0  0  0
   11.5531  -17.2340   21.6397 C   0  0  0  0  0  0  0  0  0  0  0  0
   12.3902  -18.1405   21.2986 O   0  0  0  0  0  0  0  0  0  0  0  0
   11.1126  -17.2724   22.9856 N   0  0  0  0  0  0  0  0  0  0  0  0
   11.7020  -16.4473   24.0254 C   0  0  0  0  0  0  0  0  0  0  0  0
   12.7892  -17.1965   24.7276 C   0  0  0  0  0  0  0  0  0  0  0  0
   13.0289  -17.0601   26.0729 O   0  0  0  0  0  0  0  0  0  0  0  0
   13.5064  -17.9766   24.0616 O   0  0  0  0  0  0  0  0  0  0  0  0
  2  6  1  0
  2  3  1  0
  2  1  1  6
  3  4  1  0
  4  8  1  0
  4  5  2  0
  6  7  2  0
  9 10  1  0
  9  6  1  0
 10 16  1  0
 11 12  1  0
 10 11  1  6
 12 13  1  0
 13 14  1  0
 14 15  1  0
 16 18  1  0
 16 17  2  0
 18 19  1  0
 20 21  1  0
 20 19  1  0
 22 20  2  0
M  END
$$$$
