DKG.pdb
     RDKit          3D

 22 21  0  0  1  0  0  0  0  0999 V2000
   13.1135  -15.6335   17.3360 N   0  0  0  0  0  0  0  0  0  0  0  0
   13.8998  -15.4993   18.5472 C   0  0  1  0  0  0  0  0  0  0  0  0
   14.8678  -14.3588   18.4274 C   0  0  0  0  0  0  0  0  0  0  0  0
   15.8026  -14.5258   17.2981 C   0  0  0  0  0  0  0  0  0  0  0  0
   15.7878  -15.6016   16.6482 O   0  0  0  0  0  0  0  0  0  0  0  0
   13.0244  -15.3621   19.7495 C   0  0  0  0  0  0  0  0  0  0  0  0
   13.2283  -14.4648   20.5978 O   0  0  0  0  0  0  0  0  0  0  0  0
   16.7121  -13.5567   16.9004 O   0  0  0  0  0  0  0  0  0  0  0  0
   11.9584  -16.2481   19.9347 N   0  0  0  0  0  0  0  0  0  0  0  0
   10.9484  -16.0970   20.9959 C   0  0  1  0  0  0  0  0  0  0  0  0
    9.7504  -16.9026   20.5390 C   0  0  0  0  0  0  0  0  0  0  0  0
    8.6268  -16.9680   21.5013 C   0  0  0  0  0  0  0  0  0  0  0  0
    7.5004  -17.8274   20.9217 C   0  0  0  0  0  0  0  0  0  0  0  0
    6.2908  -17.7891   21.8280 C   0  0  0  0  0  0  0  0  0  0  0  0
    5.2270  -18.6218   21.3047 N   0  0  0  0  0  0  0  0  0  0  0  0
   11.4837  -16.4841   22.2976 C   0  0  0  0  0  0  0  0  0  0  0  0
   12.2167  -17.5327   22.3407 O   0  0  0  0  0  0  0  0  0  0  0  0
   11.2826  -15.8177   23.5315 N   0  0  0  0  0  0  0  0  0  0  0  0
   11.9376  -16.2314   24.7598 C   0  0  0  0  0  0  0  0  0  0  0  0
   11.0897  -17.2227   25.4911 C   0  0  0  0  0  0  0  0  0  0  0  0
   11.4514  -17.7479   26.7074 O   0  0  0  0  0  0  0  0  0  0  0  0
   10.0098  -17.5857   24.9728 O   0  0  0  0  0  0  0  0  0  0  0  0
  2  6  1  0
  2  3  1  0
  2  1  1  6
  3  4  1  0
  4  8  1  0
  4  5  2  0
  6  7  2  0
  9 10  1  0
  9  6  1  0
 10 16  1  0
 11 12  1  0
 10 11  1  6
 12 13  1  0
 13 14  1  0
 14 15  1  0
 16 18  1  0
 16 17  2  0
 18 19  1  0
 20 21  1  0
 20 19  1  0
 22 20  2  0
M  END
$$$$
