DKG.pdb
     RDKit          3D

 22 21  0  0  1  0  0  0  0  0999 V2000
    8.6785  -18.8459   16.0373 N   0  0  0  0  0  0  0  0  0  0  0  0
    8.9487  -17.4322   16.2155 C   0  0  1  0  0  0  0  0  0  0  0  0
    7.9872  -16.6035   15.4151 C   0  0  0  0  0  0  0  0  0  0  0  0
    8.2811  -16.6334   13.9695 C   0  0  0  0  0  0  0  0  0  0  0  0
    8.4519  -17.7433   13.4048 O   0  0  0  0  0  0  0  0  0  0  0  0
    8.9379  -17.0563   17.6609 C   0  0  0  0  0  0  0  0  0  0  0  0
    9.2367  -15.8981   18.0293 O   0  0  0  0  0  0  0  0  0  0  0  0
    8.3829  -15.4973   13.1798 O   0  0  0  0  0  0  0  0  0  0  0  0
    8.5887  -18.0103   18.6220 N   0  0  0  0  0  0  0  0  0  0  0  0
    8.4892  -17.7176   20.0620 C   0  0  1  0  0  0  0  0  0  0  0  0
    7.7542  -18.8939   20.6693 C   0  0  0  0  0  0  0  0  0  0  0  0
    7.6403  -18.8758   22.1457 C   0  0  0  0  0  0  0  0  0  0  0  0
    6.8490  -20.0984   22.6171 C   0  0  0  0  0  0  0  0  0  0  0  0
    6.6815  -20.0685   24.1195 C   0  0  0  0  0  0  0  0  0  0  0  0
    5.7807  -21.1143   24.5594 N   0  0  0  0  0  0  0  0  0  0  0  0
    9.8022  -17.4527   20.6421 C   0  0  0  0  0  0  0  0  0  0  0  0
   10.7613  -18.2274   20.2977 O   0  0  0  0  0  0  0  0  0  0  0  0
   10.1368  -16.4190   21.5514 N   0  0  0  0  0  0  0  0  0  0  0  0
   11.5104  -16.0763   21.8751 C   0  0  0  0  0  0  0  0  0  0  0  0
   11.8947  -16.6659   23.1946 C   0  0  0  0  0  0  0  0  0  0  0  0
   13.0906  -16.3845   23.8081 O   0  0  0  0  0  0  0  0  0  0  0  0
   11.0942  -17.4452   23.7589 O   0  0  0  0  0  0  0  0  0  0  0  0
  2  6  1  0
  2  3  1  0
  2  1  1  1
  3  4  1  0
  4  8  1  0
  4  5  2  0
  6  7  2  0
  9 10  1  0
  9  6  1  0
 10 16  1  0
 11 12  1  0
 10 11  1  1
 12 13  1  0
 13 14  1  0
 14 15  1  0
 16 18  1  0
 16 17  2  0
 18 19  1  0
 20 21  1  0
 20 19  1  0
 22 20  2  0
M  END
$$$$
