DKG.pdb
     RDKit          3D

 22 21  0  0  1  0  0  0  0  0999 V2000
    9.2466  -17.2886   19.9618 N   0  0  0  0  0  0  0  0  0  0  0  0
    9.3986  -17.7715   21.3209 C   0  0  1  0  0  0  0  0  0  0  0  0
    9.9139  -19.1808   21.3284 C   0  0  0  0  0  0  0  0  0  0  0  0
   11.1839  -19.3233   20.5908 C   0  0  0  0  0  0  0  0  0  0  0  0
   11.5543  -20.4689   20.2299 O   0  0  0  0  0  0  0  0  0  0  0  0
   10.2632  -16.8587   22.1271 C   0  0  0  0  0  0  0  0  0  0  0  0
   11.1520  -16.1646   21.5844 O   0  0  0  0  0  0  0  0  0  0  0  0
   12.0096  -18.2572   20.2644 O   0  0  0  0  0  0  0  0  0  0  0  0
   10.0805  -16.7747   23.5110 N   0  0  0  0  0  0  0  0  0  0  0  0
   10.9558  -15.9950   24.4026 C   0  0  1  0  0  0  0  0  0  0  0  0
   10.1743  -15.8121   25.6866 C   0  0  0  0  0  0  0  0  0  0  0  0
   10.8910  -15.0982   26.7681 C   0  0  0  0  0  0  0  0  0  0  0  0
    9.9848  -14.9782   27.9959 C   0  0  0  0  0  0  0  0  0  0  0  0
   10.6836  -14.2047   29.0911 C   0  0  0  0  0  0  0  0  0  0  0  0
    9.8147  -14.0339   30.2377 N   0  0  0  0  0  0  0  0  0  0  0  0
   12.2561  -16.6380   24.5657 C   0  0  0  0  0  0  0  0  0  0  0  0
   12.2900  -17.7280   25.2361 O   0  0  0  0  0  0  0  0  0  0  0  0
   13.4978  -16.1859   24.0550 N   0  0  0  0  0  0  0  0  0  0  0  0
   14.7699  -16.7289   24.4976 C   0  0  0  0  0  0  0  0  0  0  0  0
   15.8871  -16.1658   23.6782 C   0  0  0  0  0  0  0  0  0  0  0  0
   17.2082  -16.3874   23.9808 O   0  0  0  0  0  0  0  0  0  0  0  0
   15.6046  -15.4666   22.6793 O   0  0  0  0  0  0  0  0  0  0  0  0
  2  6  1  0
  2  3  1  0
  2  1  1  6
  3  4  1  0
  4  8  1  0
  4  5  2  0
  6  7  2  0
  9 10  1  0
  9  6  1  0
 10 16  1  0
 11 12  1  0
 10 11  1  1
 12 13  1  0
 13 14  1  0
 14 15  1  0
 16 18  1  0
 16 17  2  0
 18 19  1  0
 20 21  1  0
 20 19  1  0
 22 20  2  0
M  END
$$$$
