DKG.pdb
     RDKit          3D

 22 21  0  0  1  0  0  0  0  0999 V2000
   12.6169  -16.4842   18.4818 N   0  0  0  0  0  0  0  0  0  0  0  0
   13.4350  -15.5541   19.2361 C   0  0  1  0  0  0  0  0  0  0  0  0
   13.9703  -14.4735   18.3427 C   0  0  0  0  0  0  0  0  0  0  0  0
   14.7349  -15.0102   17.2006 C   0  0  0  0  0  0  0  0  0  0  0  0
   14.8261  -16.2559   17.0592 O   0  0  0  0  0  0  0  0  0  0  0  0
   12.6855  -14.9932   20.3998 C   0  0  0  0  0  0  0  0  0  0  0  0
   13.1849  -14.0993   21.1194 O   0  0  0  0  0  0  0  0  0  0  0  0
   15.3704  -14.2163   16.2569 O   0  0  0  0  0  0  0  0  0  0  0  0
   11.4048  -15.4714   20.6942 N   0  0  0  0  0  0  0  0  0  0  0  0
   10.5635  -14.9344   21.7772 C   0  0  1  0  0  0  0  0  0  0  0  0
    9.2512  -14.5521   21.1254 C   0  0  0  0  0  0  0  0  0  0  0  0
    9.3693  -13.7443   19.8899 C   0  0  0  0  0  0  0  0  0  0  0  0
    7.9889  -13.5745   19.2506 C   0  0  0  0  0  0  0  0  0  0  0  0
    8.1025  -12.8120   17.9500 C   0  0  0  0  0  0  0  0  0  0  0  0
    6.8306  -12.7807   17.2571 N   0  0  0  0  0  0  0  0  0  0  0  0
   10.4440  -15.8853   22.8782 C   0  0  0  0  0  0  0  0  0  0  0  0
    9.8824  -15.4707   23.9512 O   0  0  0  0  0  0  0  0  0  0  0  0
   10.8824  -17.2324   22.8890 N   0  0  0  0  0  0  0  0  0  0  0  0
   12.2514  -17.6071   23.1962 C   0  0  0  0  0  0  0  0  0  0  0  0
   12.4033  -17.8596   24.6624 C   0  0  0  0  0  0  0  0  0  0  0  0
   11.3696  -17.6918   25.5508 O   0  0  0  0  0  0  0  0  0  0  0  0
   13.5157  -18.2381   25.0934 O   0  0  0  0  0  0  0  0  0  0  0  0
  2  6  1  0
  2  3  1  0
  2  1  1  6
  3  4  1  0
  4  8  1  0
  4  5  2  0
  6  7  2  0
  9 10  1  0
  9  6  1  0
 10 16  1  0
 11 12  1  0
 10 11  1  6
 12 13  1  0
 13 14  1  0
 14 15  1  0
 16 18  1  0
 16 17  2  0
 18 19  1  0
 20 21  1  0
 20 19  1  0
 22 20  2  0
M  END
$$$$
