DKG.pdb
     RDKit          3D

 22 21  0  0  1  0  0  0  0  0999 V2000
    9.3897  -18.1946   19.5124 N   0  0  0  0  0  0  0  0  0  0  0  0
   10.6734  -17.5201   19.5339 C   0  0  1  0  0  0  0  0  0  0  0  0
   10.9766  -16.9141   18.1950 C   0  0  0  0  0  0  0  0  0  0  0  0
   11.0785  -17.9256   17.1256 C   0  0  0  0  0  0  0  0  0  0  0  0
   11.1084  -19.1427   17.4383 O   0  0  0  0  0  0  0  0  0  0  0  0
   10.7353  -16.5072   20.6299 C   0  0  0  0  0  0  0  0  0  0  0  0
   11.7567  -15.8052   20.8034 O   0  0  0  0  0  0  0  0  0  0  0  0
   11.1445  -17.6157   15.7750 O   0  0  0  0  0  0  0  0  0  0  0  0
    9.6368  -16.3369   21.4783 N   0  0  0  0  0  0  0  0  0  0  0  0
    9.5882  -15.3359   22.5575 C   0  0  1  0  0  0  0  0  0  0  0  0
    8.2272  -14.6811   22.4480 C   0  0  0  0  0  0  0  0  0  0  0  0
    8.1135  -13.6257   21.4155 C   0  0  0  0  0  0  0  0  0  0  0  0
    7.4995  -14.2134   20.1424 C   0  0  0  0  0  0  0  0  0  0  0  0
    7.3525  -13.1413   19.0865 C   0  0  0  0  0  0  0  0  0  0  0  0
    6.9227  -13.7129   17.8266 N   0  0  0  0  0  0  0  0  0  0  0  0
    9.8722  -15.9402   23.8555 C   0  0  0  0  0  0  0  0  0  0  0  0
    9.8154  -15.1768   24.8815 O   0  0  0  0  0  0  0  0  0  0  0  0
   10.2035  -17.2942   24.1084 N   0  0  0  0  0  0  0  0  0  0  0  0
   10.3726  -17.8204   25.4514 C   0  0  0  0  0  0  0  0  0  0  0  0
   11.8249  -17.8926   25.8009 C   0  0  0  0  0  0  0  0  0  0  0  0
   12.2710  -18.3858   27.0024 O   0  0  0  0  0  0  0  0  0  0  0  0
   12.6635  -17.4874   24.9647 O   0  0  0  0  0  0  0  0  0  0  0  0
  2  6  1  0
  2  3  1  0
  2  1  1  6
  3  4  1  0
  4  8  1  0
  4  5  2  0
  6  7  2  0
  9 10  1  0
  9  6  1  0
 10 16  1  0
 11 12  1  0
 10 11  1  1
 12 13  1  0
 13 14  1  0
 14 15  1  0
 16 18  1  0
 16 17  2  0
 18 19  1  0
 20 21  1  0
 20 19  1  0
 22 20  2  0
M  END
$$$$
