DKG.pdb
     RDKit          3D

 22 21  0  0  1  0  0  0  0  0999 V2000
    7.0091  -16.8525   19.6668 N   0  0  0  0  0  0  0  0  0  0  0  0
    8.3689  -16.4086   19.4275 C   0  0  1  0  0  0  0  0  0  0  0  0
    8.4302  -15.5115   18.2261 C   0  0  0  0  0  0  0  0  0  0  0  0
    8.0778  -16.2131   16.9769 C   0  0  0  0  0  0  0  0  0  0  0  0
    8.0005  -17.4677   16.9832 O   0  0  0  0  0  0  0  0  0  0  0  0
    8.9472  -15.7553   20.6398 C   0  0  0  0  0  0  0  0  0  0  0  0
   10.1667  -15.4821   20.7064 O   0  0  0  0  0  0  0  0  0  0  0  0
    7.8219  -15.5676   15.7759 O   0  0  0  0  0  0  0  0  0  0  0  0
    8.1166  -15.4419   21.7203 N   0  0  0  0  0  0  0  0  0  0  0  0
    8.6069  -14.8701   22.9859 C   0  0  1  0  0  0  0  0  0  0  0  0
    7.4273  -14.1359   23.5879 C   0  0  0  0  0  0  0  0  0  0  0  0
    7.6671  -13.5377   24.9212 C   0  0  0  0  0  0  0  0  0  0  0  0
    6.4010  -12.8243   25.4019 C   0  0  0  0  0  0  0  0  0  0  0  0
    6.6548  -12.1378   26.7249 C   0  0  0  0  0  0  0  0  0  0  0  0
    5.4467  -11.5114   27.2217 N   0  0  0  0  0  0  0  0  0  0  0  0
    9.1882  -15.8984   23.8434 C   0  0  0  0  0  0  0  0  0  0  0  0
    8.4580  -16.9135   24.1173 O   0  0  0  0  0  0  0  0  0  0  0  0
   10.4871  -15.8989   24.4090 N   0  0  0  0  0  0  0  0  0  0  0  0
   11.0394  -17.0514   25.0988 C   0  0  0  0  0  0  0  0  0  0  0  0
   12.4560  -16.7866   25.4985 C   0  0  0  0  0  0  0  0  0  0  0  0
   12.8665  -16.7942   26.8089 O   0  0  0  0  0  0  0  0  0  0  0  0
   13.2972  -16.5493   24.6027 O   0  0  0  0  0  0  0  0  0  0  0  0
  2  6  1  0
  2  3  1  0
  2  1  1  1
  3  4  1  0
  4  8  1  0
  4  5  2  0
  6  7  2  0
  9 10  1  0
  9  6  1  0
 10 16  1  0
 11 12  1  0
 10 11  1  1
 12 13  1  0
 13 14  1  0
 14 15  1  0
 16 18  1  0
 16 17  2  0
 18 19  1  0
 20 21  1  0
 20 19  1  0
 22 20  2  0
M  END
$$$$
