DKG.pdb
     RDKit          3D

 22 21  0  0  1  0  0  0  0  0999 V2000
    8.9017  -13.2664   18.4058 N   0  0  0  0  0  0  0  0  0  0  0  0
    9.5236  -14.2941   19.2185 C   0  0  1  0  0  0  0  0  0  0  0  0
   11.0119  -14.1066   19.2630 C   0  0  0  0  0  0  0  0  0  0  0  0
   11.6616  -14.4265   17.9774 C   0  0  0  0  0  0  0  0  0  0  0  0
   10.9770  -14.9484   17.0615 O   0  0  0  0  0  0  0  0  0  0  0  0
    8.9272  -14.3378   20.5871 C   0  0  0  0  0  0  0  0  0  0  0  0
    8.5115  -13.2970   21.1439 O   0  0  0  0  0  0  0  0  0  0  0  0
   13.0011  -14.1847   17.7094 O   0  0  0  0  0  0  0  0  0  0  0  0
    8.8296  -15.5591   21.2613 N   0  0  0  0  0  0  0  0  0  0  0  0
    8.2340  -15.7053   22.6002 C   0  0  1  0  0  0  0  0  0  0  0  0
    7.2246  -16.8276   22.4793 C   0  0  0  0  0  0  0  0  0  0  0  0
    6.0665  -16.5458   21.6004 C   0  0  0  0  0  0  0  0  0  0  0  0
    5.2326  -17.8170   21.4224 C   0  0  0  0  0  0  0  0  0  0  0  0
    4.1491  -17.5946   20.3916 C   0  0  0  0  0  0  0  0  0  0  0  0
    3.3803  -18.8044   20.1813 N   0  0  0  0  0  0  0  0  0  0  0  0
    9.2595  -15.9138   23.6179 C   0  0  0  0  0  0  0  0  0  0  0  0
   10.2902  -16.5933   23.2796 O   0  0  0  0  0  0  0  0  0  0  0  0
    9.2415  -15.4384   24.9524 N   0  0  0  0  0  0  0  0  0  0  0  0
   10.3265  -15.6858   25.8855 C   0  0  0  0  0  0  0  0  0  0  0  0
   10.1856  -17.0435   26.4962 C   0  0  0  0  0  0  0  0  0  0  0  0
    9.2520  -17.9534   26.0645 O   0  0  0  0  0  0  0  0  0  0  0  0
   10.9488  -17.3600   27.4364 O   0  0  0  0  0  0  0  0  0  0  0  0
  2  6  1  0
  2  3  1  0
  2  1  1  6
  3  4  1  0
  4  8  1  0
  4  5  2  0
  6  7  2  0
  9 10  1  0
  9  6  1  0
 10 16  1  0
 11 12  1  0
 10 11  1  6
 12 13  1  0
 13 14  1  0
 14 15  1  0
 16 18  1  0
 16 17  2  0
 18 19  1  0
 20 21  1  0
 20 19  1  0
 22 20  2  0
M  END
$$$$
