DKG.pdb
     RDKit          3D

 22 21  0  0  1  0  0  0  0  0999 V2000
   10.9871  -18.7909   19.9372 N   0  0  0  0  0  0  0  0  0  0  0  0
   12.0940  -17.9248   20.2947 C   0  0  1  0  0  0  0  0  0  0  0  0
   12.6566  -17.2528   19.0765 C   0  0  0  0  0  0  0  0  0  0  0  0
   13.6798  -18.0725   18.3994 C   0  0  0  0  0  0  0  0  0  0  0  0
   13.8380  -19.2673   18.7561 O   0  0  0  0  0  0  0  0  0  0  0  0
   11.6931  -16.9363   21.3401 C   0  0  0  0  0  0  0  0  0  0  0  0
   12.5208  -16.1260   21.8140 O   0  0  0  0  0  0  0  0  0  0  0  0
   14.4920  -17.6023   17.3778 O   0  0  0  0  0  0  0  0  0  0  0  0
   10.3727  -16.9120   21.8001 N   0  0  0  0  0  0  0  0  0  0  0  0
    9.8897  -15.9897   22.8419 C   0  0  1  0  0  0  0  0  0  0  0  0
    8.7192  -15.2525   22.2258 C   0  0  0  0  0  0  0  0  0  0  0  0
    9.0759  -14.2270   21.2188 C   0  0  0  0  0  0  0  0  0  0  0  0
    7.9103  -14.0321   20.2458 C   0  0  0  0  0  0  0  0  0  0  0  0
    8.2414  -12.9543   19.2385 C   0  0  0  0  0  0  0  0  0  0  0  0
    7.1718  -12.8038   18.2730 N   0  0  0  0  0  0  0  0  0  0  0  0
    9.5806  -16.7006   24.0788 C   0  0  0  0  0  0  0  0  0  0  0  0
    8.4233  -17.2400   24.1703 O   0  0  0  0  0  0  0  0  0  0  0  0
   10.4310  -16.8645   25.2000 N   0  0  0  0  0  0  0  0  0  0  0  0
   10.0108  -17.5563   26.4058 C   0  0  0  0  0  0  0  0  0  0  0  0
   11.0614  -17.4390   27.4636 C   0  0  0  0  0  0  0  0  0  0  0  0
   10.9067  -17.9727   28.7194 O   0  0  0  0  0  0  0  0  0  0  0  0
   12.1209  -16.8308   27.1913 O   0  0  0  0  0  0  0  0  0  0  0  0
  2  6  1  0
  2  3  1  0
  2  1  1  6
  3  4  1  0
  4  8  1  0
  4  5  2  0
  6  7  2  0
  9 10  1  0
  9  6  1  0
 10 16  1  0
 11 12  1  0
 10 11  1  6
 12 13  1  0
 13 14  1  0
 14 15  1  0
 16 18  1  0
 16 17  2  0
 18 19  1  0
 20 21  1  0
 20 19  1  0
 22 20  2  0
M  END
$$$$
