DKG.pdb
     RDKit          3D

 22 21  0  0  1  0  0  0  0  0999 V2000
    7.6103  -13.2433   17.3167 N   0  0  0  0  0  0  0  0  0  0  0  0
    8.0000  -14.4546   18.0126 C   0  0  1  0  0  0  0  0  0  0  0  0
    9.3664  -14.8988   17.5794 C   0  0  0  0  0  0  0  0  0  0  0  0
    9.3989  -15.3382   16.1712 C   0  0  0  0  0  0  0  0  0  0  0  0
    8.3212  -15.4025   15.5274 O   0  0  0  0  0  0  0  0  0  0  0  0
    7.9152  -14.2802   19.4935 C   0  0  0  0  0  0  0  0  0  0  0  0
    8.2608  -13.2079   20.0383 O   0  0  0  0  0  0  0  0  0  0  0  0
   10.5608  -15.6909   15.5003 O   0  0  0  0  0  0  0  0  0  0  0  0
    7.4426  -15.3293   20.2884 N   0  0  0  0  0  0  0  0  0  0  0  0
    7.3574  -15.2640   21.7572 C   0  0  1  0  0  0  0  0  0  0  0  0
    6.0489  -15.9334   22.1218 C   0  0  0  0  0  0  0  0  0  0  0  0
    5.8295  -17.2669   21.5164 C   0  0  0  0  0  0  0  0  0  0  0  0
    4.5094  -17.8529   22.0236 C   0  0  0  0  0  0  0  0  0  0  0  0
    4.1446  -19.0885   21.2323 C   0  0  0  0  0  0  0  0  0  0  0  0
    2.9187  -19.6777   21.7311 N   0  0  0  0  0  0  0  0  0  0  0  0
    8.5382  -15.8498   22.3843 C   0  0  0  0  0  0  0  0  0  0  0  0
    8.5683  -15.8779   23.6638 O   0  0  0  0  0  0  0  0  0  0  0  0
    9.6653  -16.4003   21.7259 N   0  0  0  0  0  0  0  0  0  0  0  0
   10.6932  -17.1484   22.4279 C   0  0  0  0  0  0  0  0  0  0  0  0
   11.8432  -16.2551   22.7686 C   0  0  0  0  0  0  0  0  0  0  0  0
   12.3118  -16.1125   24.0515 O   0  0  0  0  0  0  0  0  0  0  0  0
   12.3977  -15.6141   21.8476 O   0  0  0  0  0  0  0  0  0  0  0  0
  2  6  1  0
  2  3  1  0
  2  1  1  6
  3  4  1  0
  4  8  1  0
  4  5  2  0
  6  7  2  0
  9 10  1  0
  9  6  1  0
 10 16  1  0
 11 12  1  0
 10 11  1  1
 12 13  1  0
 13 14  1  0
 14 15  1  0
 16 18  1  0
 16 17  2  0
 18 19  1  0
 20 21  1  0
 20 19  1  0
 22 20  2  0
M  END
$$$$
