DKG.pdb
     RDKit          3D

 22 21  0  0  1  0  0  0  0  0999 V2000
   10.0081  -19.4712   19.6719 N   0  0  0  0  0  0  0  0  0  0  0  0
   10.0561  -18.0811   19.2614 C   0  0  1  0  0  0  0  0  0  0  0  0
    9.5626  -17.9267   17.8526 C   0  0  0  0  0  0  0  0  0  0  0  0
   10.5029  -18.4805   16.8595 C   0  0  0  0  0  0  0  0  0  0  0  0
   11.5400  -19.0657   17.2617 O   0  0  0  0  0  0  0  0  0  0  0  0
    9.3048  -17.2087   20.2128 C   0  0  0  0  0  0  0  0  0  0  0  0
    9.2064  -15.9762   20.0187 O   0  0  0  0  0  0  0  0  0  0  0  0
   10.3136  -18.3959   15.4878 O   0  0  0  0  0  0  0  0  0  0  0  0
    8.6997  -17.7734   21.3400 N   0  0  0  0  0  0  0  0  0  0  0  0
    7.9374  -16.9955   22.3314 C   0  0  1  0  0  0  0  0  0  0  0  0
    6.9208  -17.9560   22.9119 C   0  0  0  0  0  0  0  0  0  0  0  0
    5.8611  -18.3981   21.9768 C   0  0  0  0  0  0  0  0  0  0  0  0
    4.9892  -19.4608   22.6503 C   0  0  0  0  0  0  0  0  0  0  0  0
    3.8765  -19.8928   21.7222 C   0  0  0  0  0  0  0  0  0  0  0  0
    3.0829  -20.9456   22.3227 N   0  0  0  0  0  0  0  0  0  0  0  0
    8.8215  -16.3752   23.3135 C   0  0  0  0  0  0  0  0  0  0  0  0
    8.2715  -15.7043   24.2547 O   0  0  0  0  0  0  0  0  0  0  0  0
   10.2365  -16.4378   23.3424 N   0  0  0  0  0  0  0  0  0  0  0  0
   11.0269  -15.7953   24.3775 C   0  0  0  0  0  0  0  0  0  0  0  0
   12.4842  -16.0297   24.1377 C   0  0  0  0  0  0  0  0  0  0  0  0
   13.4578  -15.5364   24.9712 O   0  0  0  0  0  0  0  0  0  0  0  0
   12.8269  -16.7014   23.1387 O   0  0  0  0  0  0  0  0  0  0  0  0
  2  6  1  0
  2  3  1  0
  2  1  1  1
  3  4  1  0
  4  8  1  0
  4  5  2  0
  6  7  2  0
  9 10  1  0
  9  6  1  0
 10 16  1  0
 11 12  1  0
 10 11  1  1
 12 13  1  0
 13 14  1  0
 14 15  1  0
 16 18  1  0
 16 17  2  0
 18 19  1  0
 20 21  1  0
 20 19  1  0
 22 20  2  0
M  END
$$$$
