MPE.pdb
     RDKit          3D

 25 25  0  0  1  0  0  0  0  0999 V2000
   23.4393  -13.3903  -23.3126 C   0  0  0  0  0  0  0  0  0  0  0  0
   22.8422  -12.3753  -21.9238 S   0  0  0  0  0  0  0  0  0  0  0  0
   24.1456  -12.2181  -20.6925 C   0  0  0  0  0  0  0  0  0  0  0  0
   23.7362  -11.4544  -19.4689 C   0  0  0  0  0  0  0  0  0  0  0  0
   23.6667  -12.3286  -18.2173 C   0  0  2  0  0  0  0  0  0  0  0  0
   22.7544  -13.3895  -18.4163 N   0  0  0  0  0  0  0  0  0  0  0  0
   23.4385  -11.4607  -17.0505 C   0  0  0  0  0  0  0  0  0  0  0  0
   22.2746  -11.4851  -16.5741 O   0  0  0  0  0  0  0  0  0  0  0  0
   24.4072  -10.6441  -16.4687 N   0  0  0  0  0  0  0  0  0  0  0  0
   25.8298  -10.6666  -16.8643 C   0  0  0  0  0  0  0  0  0  0  0  0
   26.6029  -10.1785  -15.6817 C   0  0  0  0  0  0  0  0  0  0  0  0
   25.6120   -9.6639  -14.6893 C   0  0  0  0  0  0  0  0  0  0  0  0
   24.2617   -9.6820  -15.4331 C   0  0  1  0  0  0  0  0  0  0  0  0
   23.9310   -8.3165  -15.9192 C   0  0  0  0  0  0  0  0  0  0  0  0
   24.4455   -7.8319  -16.9619 O   0  0  0  0  0  0  0  0  0  0  0  0
   23.0119   -7.5118  -15.2075 N   0  0  0  0  0  0  0  0  0  0  0  0
   22.4941   -6.2562  -15.6592 C   0  0  1  0  0  0  0  0  0  0  0  0
   20.9983   -6.1301  -15.4030 C   0  0  0  0  0  0  0  0  0  0  0  0
   20.4543   -4.8287  -15.9023 C   0  0  0  0  0  0  0  0  0  0  0  0
   18.9615   -4.8731  -15.9146 C   0  0  0  0  0  0  0  0  0  0  0  0
   18.3690   -5.9300  -15.5572 O   0  0  0  0  0  0  0  0  0  0  0  0
   23.1498   -5.1693  -14.9046 C   0  0  0  0  0  0  0  0  0  0  0  0
   23.2670   -3.9233  -15.4796 O   0  0  0  0  0  0  0  0  0  0  0  0
   18.1942   -3.7873  -16.3074 O   0  0  0  0  0  0  0  0  0  0  0  0
   23.6071   -5.3388  -13.7519 O   0  0  0  0  0  0  0  0  0  0  0  0
  2  1  1  0
  3  2  1  0
  4  3  1  0
  5  4  1  0
  5  6  1  6
  7  8  2  0
  7  5  1  0
  9  7  1  0
 10  9  1  0
 11 10  1  0
 12 11  1  0
 12 13  1  0
 13  9  1  0
 13 14  1  6
 15 14  2  0
 16 14  1  0
 17 16  1  0
 17 18  1  1
 19 18  1  0
 20 19  1  0
 20 21  2  0
 22 17  1  0
 23 22  1  0
 24 20  1  0
 25 22  2  0
M  END
$$$$
