MPE.pdb
     RDKit          3D

 25 25  0  0  1  0  0  0  0  0999 V2000
   18.1346  -13.4818    3.2392 C   0  0  0  0  0  0  0  0  0  0  0  0
   18.7487  -14.5012    1.8610 S   0  0  0  0  0  0  0  0  0  0  0  0
   17.7037  -15.9553    1.6791 C   0  0  0  0  0  0  0  0  0  0  0  0
   17.6142  -16.7974    2.9165 C   0  0  0  0  0  0  0  0  0  0  0  0
   16.5798  -17.9165    2.8012 C   0  0  2  0  0  0  0  0  0  0  0  0
   15.3190  -17.3786    2.4572 N   0  0  0  0  0  0  0  0  0  0  0  0
   16.6447  -18.7428    4.0177 C   0  0  0  0  0  0  0  0  0  0  0  0
   15.7568  -18.5136    4.8787 O   0  0  0  0  0  0  0  0  0  0  0  0
   17.6020  -19.7279    4.2565 N   0  0  0  0  0  0  0  0  0  0  0  0
   18.5729  -20.1777    3.2387 C   0  0  0  0  0  0  0  0  0  0  0  0
   18.9631  -21.5704    3.6165 C   0  0  0  0  0  0  0  0  0  0  0  0
   18.3910  -21.8365    4.9706 C   0  0  0  0  0  0  0  0  0  0  0  0
   17.8397  -20.4757    5.4412 C   0  0  1  0  0  0  0  0  0  0  0  0
   18.8003  -19.8348    6.3776 C   0  0  0  0  0  0  0  0  0  0  0  0
   19.7869  -19.1644    5.9729 O   0  0  0  0  0  0  0  0  0  0  0  0
   18.6258  -19.9654    7.7745 N   0  0  0  0  0  0  0  0  0  0  0  0
   19.3888  -19.2734    8.7684 C   0  0  1  0  0  0  0  0  0  0  0  0
   18.7478  -19.3655   10.1466 C   0  0  0  0  0  0  0  0  0  0  0  0
   17.4221  -18.6732   10.1929 C   0  0  0  0  0  0  0  0  0  0  0  0
   16.8320  -18.7961   11.5594 C   0  0  0  0  0  0  0  0  0  0  0  0
   16.6356  -19.9436   12.0498 O   0  0  0  0  0  0  0  0  0  0  0  0
   20.7201  -19.9037    8.8736 C   0  0  0  0  0  0  0  0  0  0  0  0
   21.7470  -19.2153    9.4808 O   0  0  0  0  0  0  0  0  0  0  0  0
   16.4883  -17.6872   12.3172 O   0  0  0  0  0  0  0  0  0  0  0  0
   20.9530  -21.0498    8.4281 O   0  0  0  0  0  0  0  0  0  0  0  0
  2  1  1  0
  3  2  1  0
  4  3  1  0
  5  4  1  0
  5  6  1  1
  7  8  2  0
  7  5  1  0
  9  7  1  0
 10  9  1  0
 11 10  1  0
 12 11  1  0
 12 13  1  0
 13  9  1  0
 13 14  1  1
 15 14  2  0
 16 14  1  0
 17 16  1  0
 17 18  1  1
 19 18  1  0
 20 19  1  0
 20 21  2  0
 22 17  1  0
 23 22  1  0
 24 20  1  0
 25 22  2  0
M  END
$$$$
