MPE.pdb
     RDKit          3D

 25 25  0  0  1  0  0  0  0  0999 V2000
   17.2113   -8.3223  -20.3728 C   0  0  0  0  0  0  0  0  0  0  0  0
   16.9225   -8.2392  -18.5768 S   0  0  0  0  0  0  0  0  0  0  0  0
   18.2800   -9.0464  -17.7135 C   0  0  0  0  0  0  0  0  0  0  0  0
   18.1301   -9.0570  -16.2217 C   0  0  0  0  0  0  0  0  0  0  0  0
   19.2287   -9.8538  -15.5189 C   0  0  2  0  0  0  0  0  0  0  0  0
   19.1905  -11.2040  -15.9346 N   0  0  0  0  0  0  0  0  0  0  0  0
   19.1424   -9.5971  -14.0720 C   0  0  0  0  0  0  0  0  0  0  0  0
   18.5312  -10.4678  -13.4008 O   0  0  0  0  0  0  0  0  0  0  0  0
   19.6812   -8.4822  -13.4315 N   0  0  0  0  0  0  0  0  0  0  0  0
   20.5131   -7.4752  -14.1205 C   0  0  0  0  0  0  0  0  0  0  0  0
   21.3701   -6.8472  -13.0690 C   0  0  0  0  0  0  0  0  0  0  0  0
   20.8722   -7.3323  -11.7468 C   0  0  0  0  0  0  0  0  0  0  0  0
   19.5702   -8.0925  -12.0694 C   0  0  1  0  0  0  0  0  0  0  0  0
   18.3938   -7.2302  -11.7816 C   0  0  0  0  0  0  0  0  0  0  0  0
   18.0870   -6.2483  -12.5086 O   0  0  0  0  0  0  0  0  0  0  0  0
   17.5740   -7.4971  -10.6611 N   0  0  0  0  0  0  0  0  0  0  0  0
   16.3189   -6.8649  -10.3893 C   0  0  1  0  0  0  0  0  0  0  0  0
   15.3345   -7.8146   -9.7201 C   0  0  0  0  0  0  0  0  0  0  0  0
   14.0157   -7.1581   -9.4585 C   0  0  0  0  0  0  0  0  0  0  0  0
   13.0493   -8.1581   -8.9139 C   0  0  0  0  0  0  0  0  0  0  0  0
   13.3949   -9.3698   -8.8234 O   0  0  0  0  0  0  0  0  0  0  0  0
   16.5401   -5.7473   -9.4497 C   0  0  0  0  0  0  0  0  0  0  0  0
   15.6538   -4.6931   -9.4336 O   0  0  0  0  0  0  0  0  0  0  0  0
   11.7746   -7.8030   -8.5001 O   0  0  0  0  0  0  0  0  0  0  0  0
   17.5110   -5.7213   -8.6603 O   0  0  0  0  0  0  0  0  0  0  0  0
  2  1  1  0
  3  2  1  0
  4  3  1  0
  5  4  1  0
  5  6  1  1
  7  8  2  0
  7  5  1  0
  9  7  1  0
 10  9  1  0
 11 10  1  0
 12 11  1  0
 12 13  1  0
 13  9  1  0
 13 14  1  6
 15 14  2  0
 16 14  1  0
 17 16  1  0
 17 18  1  1
 19 18  1  0
 20 19  1  0
 20 21  2  0
 22 17  1  0
 23 22  1  0
 24 20  1  0
 25 22  2  0
M  END
$$$$
