MPE.pdb
     RDKit          3D

 25 25  0  0  1  0  0  0  0  0999 V2000
   27.7353  -14.1219  -14.9355 C   0  0  0  0  0  0  0  0  0  0  0  0
   27.1901  -15.5147  -15.9740 S   0  0  0  0  0  0  0  0  0  0  0  0
   27.0882  -17.0059  -14.9713 C   0  0  0  0  0  0  0  0  0  0  0  0
   26.7305  -18.2372  -15.7486 C   0  0  0  0  0  0  0  0  0  0  0  0
   27.6945  -19.3973  -15.5028 C   0  0  2  0  0  0  0  0  0  0  0  0
   28.5781  -19.5343  -16.5972 N   0  0  0  0  0  0  0  0  0  0  0  0
   26.9125  -20.5848  -15.1221 C   0  0  0  0  0  0  0  0  0  0  0  0
   26.8135  -21.4763  -16.0040 O   0  0  0  0  0  0  0  0  0  0  0  0
   26.2992  -20.7662  -13.8833 N   0  0  0  0  0  0  0  0  0  0  0  0
   26.4571  -19.8258  -12.7556 C   0  0  0  0  0  0  0  0  0  0  0  0
   26.2118  -20.6167  -11.5112 C   0  0  0  0  0  0  0  0  0  0  0  0
   25.6932  -21.9526  -11.9330 C   0  0  0  0  0  0  0  0  0  0  0  0
   25.4526  -21.8221  -13.4502 C   0  0  1  0  0  0  0  0  0  0  0  0
   24.0091  -21.5876  -13.7175 C   0  0  0  0  0  0  0  0  0  0  0  0
   23.5175  -20.4296  -13.7813 O   0  0  0  0  0  0  0  0  0  0  0  0
   23.1348  -22.6818  -13.9100 N   0  0  0  0  0  0  0  0  0  0  0  0
   21.7767  -22.5835  -14.3513 C   0  0  1  0  0  0  0  0  0  0  0  0
   21.0230  -21.4708  -13.6351 C   0  0  0  0  0  0  0  0  0  0  0  0
   19.6188  -21.3370  -14.1343 C   0  0  0  0  0  0  0  0  0  0  0  0
   18.9638  -20.1552  -13.4980 C   0  0  0  0  0  0  0  0  0  0  0  0
   19.6529  -19.3727  -12.7849 O   0  0  0  0  0  0  0  0  0  0  0  0
   21.7644  -22.2504  -15.7899 C   0  0  0  0  0  0  0  0  0  0  0  0
   20.9433  -22.9577  -16.6398 O   0  0  0  0  0  0  0  0  0  0  0  0
   17.6145  -19.8822  -13.6621 O   0  0  0  0  0  0  0  0  0  0  0  0
   22.4781  -21.3415  -16.2706 O   0  0  0  0  0  0  0  0  0  0  0  0
  2  1  1  0
  3  2  1  0
  4  3  1  0
  5  4  1  0
  5  6  1  6
  7  8  2  0
  7  5  1  0
  9  7  1  0
 10  9  1  0
 11 10  1  0
 12 11  1  0
 12 13  1  0
 13  9  1  0
 13 14  1  1
 15 14  2  0
 16 14  1  0
 17 16  1  0
 17 18  1  1
 19 18  1  0
 20 19  1  0
 20 21  2  0
 22 17  1  0
 23 22  1  0
 24 20  1  0
 25 22  2  0
M  END
$$$$
