MPE.pdb
     RDKit          3D

 25 25  0  0  1  0  0  0  0  0999 V2000
   22.3086  -17.3335  -22.1850 C   0  0  0  0  0  0  0  0  0  0  0  0
   21.6939  -15.9969  -21.1120 S   0  0  0  0  0  0  0  0  0  0  0  0
   21.8635  -16.4863  -19.3883 C   0  0  0  0  0  0  0  0  0  0  0  0
   21.4642  -15.4204  -18.4123 C   0  0  0  0  0  0  0  0  0  0  0  0
   21.6065  -15.8630  -16.9564 C   0  0  2  0  0  0  0  0  0  0  0  0
   20.6986  -16.9092  -16.6763 N   0  0  0  0  0  0  0  0  0  0  0  0
   21.5398  -14.6714  -16.0948 C   0  0  0  0  0  0  0  0  0  0  0  0
   20.4160  -14.4331  -15.5824 O   0  0  0  0  0  0  0  0  0  0  0  0
   22.6152  -13.8253  -15.8277 N   0  0  0  0  0  0  0  0  0  0  0  0
   23.9692  -14.0377  -16.3777 C   0  0  0  0  0  0  0  0  0  0  0  0
   24.9161  -13.3700  -15.4332 C   0  0  0  0  0  0  0  0  0  0  0  0
   24.0928  -12.5843  -14.4656 C   0  0  0  0  0  0  0  0  0  0  0  0
   22.6555  -12.6578  -15.0186 C   0  0  1  0  0  0  0  0  0  0  0  0
   22.3273  -11.4051  -15.7489 C   0  0  0  0  0  0  0  0  0  0  0  0
   22.7295  -11.1869  -16.9224 O   0  0  0  0  0  0  0  0  0  0  0  0
   21.5395  -10.4073  -15.1303 N   0  0  0  0  0  0  0  0  0  0  0  0
   21.0266   -9.2408  -15.7822 C   0  0  1  0  0  0  0  0  0  0  0  0
   19.8337   -8.6511  -15.0417 C   0  0  0  0  0  0  0  0  0  0  0  0
   19.2210   -7.5096  -15.7902 C   0  0  0  0  0  0  0  0  0  0  0  0
   18.0269   -7.0002  -15.0517 C   0  0  0  0  0  0  0  0  0  0  0  0
   17.5156   -7.7052  -14.1367 O   0  0  0  0  0  0  0  0  0  0  0  0
   22.0756   -8.2017  -15.7981 C   0  0  0  0  0  0  0  0  0  0  0  0
   23.1622   -8.3262  -14.9609 O   0  0  0  0  0  0  0  0  0  0  0  0
   17.4529   -5.7705  -15.3357 O   0  0  0  0  0  0  0  0  0  0  0  0
   22.0145   -7.2031  -16.5501 O   0  0  0  0  0  0  0  0  0  0  0  0
  2  1  1  0
  3  2  1  0
  4  3  1  0
  5  4  1  0
  5  6  1  1
  7  8  2  0
  7  5  1  0
  9  7  1  0
 10  9  1  0
 11 10  1  0
 12 11  1  0
 12 13  1  0
 13  9  1  0
 13 14  1  6
 15 14  2  0
 16 14  1  0
 17 16  1  0
 17 18  1  1
 19 18  1  0
 20 19  1  0
 20 21  2  0
 22 17  1  0
 23 22  1  0
 24 20  1  0
 25 22  2  0
M  END
$$$$
