MPE.pdb
     RDKit          3D

 25 25  0  0  1  0  0  0  0  0999 V2000
   20.6921   -9.8031  -22.4761 C   0  0  0  0  0  0  0  0  0  0  0  0
   20.7373  -11.5505  -21.9660 S   0  0  0  0  0  0  0  0  0  0  0  0
   21.8133  -11.7293  -20.5343 C   0  0  0  0  0  0  0  0  0  0  0  0
   21.3849  -10.9190  -19.3477 C   0  0  0  0  0  0  0  0  0  0  0  0
   21.0182  -11.7804  -18.1398 C   0  0  2  0  0  0  0  0  0  0  0  0
   19.8546  -12.5335  -18.4160 N   0  0  0  0  0  0  0  0  0  0  0  0
   20.9917  -10.9239  -16.9430 C   0  0  0  0  0  0  0  0  0  0  0  0
   19.8489  -10.5786  -16.5467 O   0  0  0  0  0  0  0  0  0  0  0  0
   22.1232  -10.4915  -16.2527 N   0  0  0  0  0  0  0  0  0  0  0  0
   23.4986  -10.8718  -16.6327 C   0  0  0  0  0  0  0  0  0  0  0  0
   24.3224  -10.7666  -15.3898 C   0  0  0  0  0  0  0  0  0  0  0  0
   23.4718  -10.1111  -14.3513 C   0  0  0  0  0  0  0  0  0  0  0  0
   22.2067   -9.6562  -15.1061 C   0  0  1  0  0  0  0  0  0  0  0  0
   22.2965   -8.2059  -15.4204 C   0  0  0  0  0  0  0  0  0  0  0  0
   22.9692   -7.7697  -16.3919 O   0  0  0  0  0  0  0  0  0  0  0  0
   21.6148   -7.2614  -14.6190 N   0  0  0  0  0  0  0  0  0  0  0  0
   21.3851   -5.8937  -14.9730 C   0  0  1  0  0  0  0  0  0  0  0  0
   19.9096   -5.5247  -14.8973 C   0  0  0  0  0  0  0  0  0  0  0  0
   19.6826   -4.0722  -15.1759 C   0  0  0  0  0  0  0  0  0  0  0  0
   18.2672   -3.8509  -15.5981 C   0  0  0  0  0  0  0  0  0  0  0  0
   17.4855   -4.8388  -15.6912 O   0  0  0  0  0  0  0  0  0  0  0  0
   22.0924   -5.0254  -14.0105 C   0  0  0  0  0  0  0  0  0  0  0  0
   22.5356   -3.7866  -14.4178 O   0  0  0  0  0  0  0  0  0  0  0  0
   17.7743   -2.5894  -15.8949 O   0  0  0  0  0  0  0  0  0  0  0  0
   22.3063   -5.3755  -12.8281 O   0  0  0  0  0  0  0  0  0  0  0  0
  2  1  1  0
  3  2  1  0
  4  3  1  0
  5  4  1  0
  5  6  1  6
  7  8  2  0
  7  5  1  0
  9  7  1  0
 10  9  1  0
 11 10  1  0
 12 11  1  0
 12 13  1  0
 13  9  1  0
 13 14  1  6
 15 14  2  0
 16 14  1  0
 17 16  1  0
 17 18  1  1
 19 18  1  0
 20 19  1  0
 20 21  2  0
 22 17  1  0
 23 22  1  0
 24 20  1  0
 25 22  2  0
M  END
$$$$
