MPE.pdb
     RDKit          3D

 25 25  0  0  1  0  0  0  0  0999 V2000
   18.3127  -12.8210  -22.0258 C   0  0  0  0  0  0  0  0  0  0  0  0
   18.7505  -11.6305  -20.7194 S   0  0  0  0  0  0  0  0  0  0  0  0
   19.1585  -12.5210  -19.2093 C   0  0  0  0  0  0  0  0  0  0  0  0
   19.6667  -11.6432  -18.1051 C   0  0  0  0  0  0  0  0  0  0  0  0
   19.9139  -12.4061  -16.8042 C   0  0  2  0  0  0  0  0  0  0  0  0
   18.8372  -13.2839  -16.5442 N   0  0  0  0  0  0  0  0  0  0  0  0
   20.2566  -11.4378  -15.7499 C   0  0  0  0  0  0  0  0  0  0  0  0
   19.2946  -11.0386  -15.0447 O   0  0  0  0  0  0  0  0  0  0  0  0
   21.5419  -10.9580  -15.5019 N   0  0  0  0  0  0  0  0  0  0  0  0
   22.7461  -11.4794  -16.1794 C   0  0  0  0  0  0  0  0  0  0  0  0
   23.8954  -11.2058  -15.2635 C   0  0  0  0  0  0  0  0  0  0  0  0
   23.3859  -10.3291  -14.1666 C   0  0  0  0  0  0  0  0  0  0  0  0
   21.9587   -9.9405  -14.6018 C   0  0  1  0  0  0  0  0  0  0  0  0
   21.9613   -8.5758  -15.1918 C   0  0  0  0  0  0  0  0  0  0  0  0
   22.3115   -8.3596  -16.3823 O   0  0  0  0  0  0  0  0  0  0  0  0
   21.5627   -7.4644  -14.4141 N   0  0  0  0  0  0  0  0  0  0  0  0
   21.3288   -6.1462  -14.9203 C   0  0  1  0  0  0  0  0  0  0  0  0
   19.8738   -5.7248  -14.7644 C   0  0  0  0  0  0  0  0  0  0  0  0
   19.6183   -4.3727  -15.3522 C   0  0  0  0  0  0  0  0  0  0  0  0
   18.1608   -4.0546  -15.2806 C   0  0  0  0  0  0  0  0  0  0  0  0
   17.3604   -4.9128  -14.8132 O   0  0  0  0  0  0  0  0  0  0  0  0
   22.1372   -5.1852  -14.1433 C   0  0  0  0  0  0  0  0  0  0  0  0
   22.5347   -4.0054  -14.7324 O   0  0  0  0  0  0  0  0  0  0  0  0
   17.6484   -2.8409  -15.7123 O   0  0  0  0  0  0  0  0  0  0  0  0
   22.4781   -5.4040  -12.9590 O   0  0  0  0  0  0  0  0  0  0  0  0
  2  1  1  0
  3  2  1  0
  4  3  1  0
  5  4  1  0
  5  6  1  1
  7  8  2  0
  7  5  1  0
  9  7  1  0
 10  9  1  0
 11 10  1  0
 12 11  1  0
 12 13  1  0
 13  9  1  0
 13 14  1  6
 15 14  2  0
 16 14  1  0
 17 16  1  0
 17 18  1  1
 19 18  1  0
 20 19  1  0
 20 21  2  0
 22 17  1  0
 23 22  1  0
 24 20  1  0
 25 22  2  0
M  END
$$$$
