MPE.pdb
     RDKit          3D

 25 25  0  0  1  0  0  0  0  0999 V2000
   20.5458  -15.6195    2.3641 C   0  0  0  0  0  0  0  0  0  0  0  0
   19.3515  -14.5472    1.5041 S   0  0  0  0  0  0  0  0  0  0  0  0
   18.4152  -13.6008    2.7155 C   0  0  0  0  0  0  0  0  0  0  0  0
   18.5760  -14.0895    4.1239 C   0  0  0  0  0  0  0  0  0  0  0  0
   17.8870  -13.1890    5.1486 C   0  0  2  0  0  0  0  0  0  0  0  0
   18.3421  -11.8583    5.0090 N   0  0  0  0  0  0  0  0  0  0  0  0
   18.0194  -13.8048    6.4790 C   0  0  0  0  0  0  0  0  0  0  0  0
   18.7209  -13.1673    7.3058 O   0  0  0  0  0  0  0  0  0  0  0  0
   17.4313  -15.0113    6.8559 N   0  0  0  0  0  0  0  0  0  0  0  0
   16.5272  -15.7811    5.9778 C   0  0  0  0  0  0  0  0  0  0  0  0
   15.6589  -16.5972    6.8803 C   0  0  0  0  0  0  0  0  0  0  0  0
   16.2135  -16.4675    8.2613 C   0  0  0  0  0  0  0  0  0  0  0  0
   17.5498  -15.7198    8.0820 C   0  0  1  0  0  0  0  0  0  0  0  0
   18.6804  -16.6847    8.1154 C   0  0  0  0  0  0  0  0  0  0  0  0
   19.1373  -17.2201    7.0708 O   0  0  0  0  0  0  0  0  0  0  0  0
   19.2822  -17.0321    9.3466 N   0  0  0  0  0  0  0  0  0  0  0  0
   20.5247  -17.7284    9.4887 C   0  0  1  0  0  0  0  0  0  0  0  0
   21.5564  -16.9056   10.2487 C   0  0  0  0  0  0  0  0  0  0  0  0
   22.8619  -17.6258   10.3744 C   0  0  0  0  0  0  0  0  0  0  0  0
   23.8124  -16.8157   11.1935 C   0  0  0  0  0  0  0  0  0  0  0  0
   23.3827  -15.8162   11.8354 O   0  0  0  0  0  0  0  0  0  0  0  0
   20.2965  -18.9580   10.2740 C   0  0  0  0  0  0  0  0  0  0  0  0
   21.0606  -20.0748   10.0171 O   0  0  0  0  0  0  0  0  0  0  0  0
   25.1619  -17.1226   11.2766 O   0  0  0  0  0  0  0  0  0  0  0  0
   19.4275  -19.0246   11.1723 O   0  0  0  0  0  0  0  0  0  0  0  0
  2  1  1  0
  3  2  1  0
  4  3  1  0
  5  4  1  0
  5  6  1  1
  7  8  2  0
  7  5  1  0
  9  7  1  0
 10  9  1  0
 11 10  1  0
 12 11  1  0
 12 13  1  0
 13  9  1  0
 13 14  1  6
 15 14  2  0
 16 14  1  0
 17 16  1  0
 17 18  1  1
 19 18  1  0
 20 19  1  0
 20 21  2  0
 22 17  1  0
 23 22  1  0
 24 20  1  0
 25 22  2  0
M  END
$$$$
