MPE.pdb
     RDKit          3D

 25 25  0  0  1  0  0  0  0  0999 V2000
   25.6190  -16.0087  -15.8630 C   0  0  0  0  0  0  0  0  0  0  0  0
   27.4098  -16.2464  -15.6348 S   0  0  0  0  0  0  0  0  0  0  0  0
   27.7676  -18.0045  -15.4914 C   0  0  0  0  0  0  0  0  0  0  0  0
   26.6295  -18.8132  -14.9449 C   0  0  0  0  0  0  0  0  0  0  0  0
   26.9620  -20.2996  -14.8192 C   0  0  2  0  0  0  0  0  0  0  0  0
   27.3882  -20.8088  -16.0667 N   0  0  0  0  0  0  0  0  0  0  0  0
   25.8296  -20.9807  -14.1707 C   0  0  0  0  0  0  0  0  0  0  0  0
   25.1344  -21.7137  -14.9202 O   0  0  0  0  0  0  0  0  0  0  0  0
   25.4997  -20.8604  -12.8214 N   0  0  0  0  0  0  0  0  0  0  0  0
   26.3337  -20.1304  -11.8454 C   0  0  0  0  0  0  0  0  0  0  0  0
   26.0289  -20.7217  -10.5068 C   0  0  0  0  0  0  0  0  0  0  0  0
   24.8587  -21.6332  -10.6836 C   0  0  0  0  0  0  0  0  0  0  0  0
   24.3753  -21.3807  -12.1256 C   0  0  1  0  0  0  0  0  0  0  0  0
   23.1980  -20.4727  -12.1151 C   0  0  0  0  0  0  0  0  0  0  0  0
   23.2845  -19.2652  -11.7672 O   0  0  0  0  0  0  0  0  0  0  0  0
   21.9263  -20.9531  -12.5034 N   0  0  0  0  0  0  0  0  0  0  0  0
   20.8185  -20.1330  -12.8893 C   0  0  1  0  0  0  0  0  0  0  0  0
   20.9864  -19.5715  -14.2949 C   0  0  0  0  0  0  0  0  0  0  0  0
   21.1021  -20.6562  -15.3190 C   0  0  0  0  0  0  0  0  0  0  0  0
   20.9389  -20.0820  -16.6880 C   0  0  0  0  0  0  0  0  0  0  0  0
   20.7027  -18.8480  -16.8195 O   0  0  0  0  0  0  0  0  0  0  0  0
   19.5942  -20.9586  -12.9027 C   0  0  0  0  0  0  0  0  0  0  0  0
   19.7041  -22.3277  -13.0061 O   0  0  0  0  0  0  0  0  0  0  0  0
   21.0380  -20.8602  -17.8312 O   0  0  0  0  0  0  0  0  0  0  0  0
   18.4503  -20.4572  -12.8230 O   0  0  0  0  0  0  0  0  0  0  0  0
  2  1  1  0
  3  2  1  0
  4  3  1  0
  5  4  1  0
  5  6  1  6
  7  8  2  0
  7  5  1  0
  9  7  1  0
 10  9  1  0
 11 10  1  0
 12 11  1  0
 12 13  1  0
 13  9  1  0
 13 14  1  1
 15 14  2  0
 16 14  1  0
 17 16  1  0
 17 18  1  6
 19 18  1  0
 20 19  1  0
 20 21  2  0
 22 17  1  0
 23 22  1  0
 24 20  1  0
 25 22  2  0
M  END
$$$$
