MPE.pdb
     RDKit          3D

 25 25  0  0  1  0  0  0  0  0999 V2000
   18.6761  -20.6848  -16.0502 C   0  0  0  0  0  0  0  0  0  0  0  0
   20.0030  -19.4922  -16.4145 S   0  0  0  0  0  0  0  0  0  0  0  0
   21.5618  -20.1124  -15.7625 C   0  0  0  0  0  0  0  0  0  0  0  0
   21.4149  -20.9362  -14.5184 C   0  0  0  0  0  0  0  0  0  0  0  0
   22.7415  -21.5149  -14.0277 C   0  0  2  0  0  0  0  0  0  0  0  0
   23.3179  -22.3261  -15.0313 N   0  0  0  0  0  0  0  0  0  0  0  0
   22.5248  -22.1343  -12.7101 C   0  0  0  0  0  0  0  0  0  0  0  0
   22.5075  -23.3920  -12.6967 O   0  0  0  0  0  0  0  0  0  0  0  0
   22.3442  -21.4273  -11.5221 N   0  0  0  0  0  0  0  0  0  0  0  0
   22.4098  -19.9544  -11.4379 C   0  0  0  0  0  0  0  0  0  0  0  0
   22.7872  -19.6303  -10.0283 C   0  0  0  0  0  0  0  0  0  0  0  0
   22.7176  -20.9032   -9.2496 C   0  0  0  0  0  0  0  0  0  0  0  0
   22.0845  -21.9239  -10.2163 C   0  0  1  0  0  0  0  0  0  0  0  0
   20.6392  -22.0868   -9.9082 C   0  0  0  0  0  0  0  0  0  0  0  0
   19.7416  -21.4987  -10.5677 O   0  0  0  0  0  0  0  0  0  0  0  0
   20.2290  -22.9231   -8.8447 N   0  0  0  0  0  0  0  0  0  0  0  0
   18.9439  -23.5434   -8.7330 C   0  0  1  0  0  0  0  0  0  0  0  0
   18.8187  -24.3723   -7.4617 C   0  0  0  0  0  0  0  0  0  0  0  0
   17.4932  -25.0607   -7.3726 C   0  0  0  0  0  0  0  0  0  0  0  0
   17.4709  -25.9690   -6.1873 C   0  0  0  0  0  0  0  0  0  0  0  0
   18.5129  -26.0987   -5.4849 O   0  0  0  0  0  0  0  0  0  0  0  0
   17.9100  -22.4915   -8.6605 C   0  0  0  0  0  0  0  0  0  0  0  0
   18.2570  -21.2327   -8.2225 O   0  0  0  0  0  0  0  0  0  0  0  0
   16.3384  -26.6822   -5.8253 O   0  0  0  0  0  0  0  0  0  0  0  0
   16.7197  -22.7022   -8.9849 O   0  0  0  0  0  0  0  0  0  0  0  0
  2  1  1  0
  3  2  1  0
  4  3  1  0
  5  4  1  0
  5  6  1  6
  7  8  2  0
  7  5  1  0
  9  7  1  0
 10  9  1  0
 11 10  1  0
 12 11  1  0
 12 13  1  0
 13  9  1  0
 13 14  1  1
 15 14  2  0
 16 14  1  0
 17 16  1  0
 17 18  1  1
 19 18  1  0
 20 19  1  0
 20 21  2  0
 22 17  1  0
 23 22  1  0
 24 20  1  0
 25 22  2  0
M  END
$$$$
