MPE.pdb
     RDKit          3D

 25 25  0  0  1  0  0  0  0  0999 V2000
   25.3832  -15.3183  -16.7733 C   0  0  0  0  0  0  0  0  0  0  0  0
   26.4138  -15.4165  -15.2754 S   0  0  0  0  0  0  0  0  0  0  0  0
   27.1512  -17.0545  -15.1616 C   0  0  0  0  0  0  0  0  0  0  0  0
   26.2523  -18.1591  -15.6307 C   0  0  0  0  0  0  0  0  0  0  0  0
   26.9330  -19.5273  -15.6154 C   0  0  2  0  0  0  0  0  0  0  0  0
   27.4165  -19.8433  -16.9052 N   0  0  0  0  0  0  0  0  0  0  0  0
   26.0221  -20.4978  -14.9866 C   0  0  0  0  0  0  0  0  0  0  0  0
   25.3157  -21.1727  -15.7789 O   0  0  0  0  0  0  0  0  0  0  0  0
   25.9056  -20.6999  -13.6121 N   0  0  0  0  0  0  0  0  0  0  0  0
   26.8123  -20.0834  -12.6228 C   0  0  0  0  0  0  0  0  0  0  0  0
   26.7876  -20.9706  -11.4200 C   0  0  0  0  0  0  0  0  0  0  0  0
   25.6982  -21.9704  -11.6319 C   0  0  0  0  0  0  0  0  0  0  0  0
   24.9648  -21.4928  -12.9012 C   0  0  1  0  0  0  0  0  0  0  0  0
   23.7226  -20.7665  -12.5273 C   0  0  0  0  0  0  0  0  0  0  0  0
   23.7466  -19.6281  -11.9887 O   0  0  0  0  0  0  0  0  0  0  0  0
   22.4577  -21.3487  -12.7722 N   0  0  0  0  0  0  0  0  0  0  0  0
   21.2941  -20.6380  -13.2078 C   0  0  1  0  0  0  0  0  0  0  0  0
   21.5711  -19.7923  -14.4435 C   0  0  0  0  0  0  0  0  0  0  0  0
   20.3540  -19.0481  -14.8948 C   0  0  0  0  0  0  0  0  0  0  0  0
   20.6234  -18.3789  -16.2025 C   0  0  0  0  0  0  0  0  0  0  0  0
   19.7165  -18.3458  -17.0813 O   0  0  0  0  0  0  0  0  0  0  0  0
   20.2508  -21.6134  -13.5829 C   0  0  0  0  0  0  0  0  0  0  0  0
   20.5849  -22.6876  -14.3775 O   0  0  0  0  0  0  0  0  0  0  0  0
   21.8434  -17.7868  -16.4910 O   0  0  0  0  0  0  0  0  0  0  0  0
   19.0636  -21.5000  -13.2030 O   0  0  0  0  0  0  0  0  0  0  0  0
  2  1  1  0
  3  2  1  0
  4  3  1  0
  5  4  1  0
  5  6  1  6
  7  8  2  0
  7  5  1  0
  9  7  1  0
 10  9  1  0
 11 10  1  0
 12 11  1  0
 12 13  1  0
 13  9  1  0
 13 14  1  1
 15 14  2  0
 16 14  1  0
 17 16  1  0
 17 18  1  6
 19 18  1  0
 20 19  1  0
 20 21  2  0
 22 17  1  0
 23 22  1  0
 24 20  1  0
 25 22  2  0
M  END
$$$$
