MPE.pdb
     RDKit          3D

 25 25  0  0  1  0  0  0  0  0999 V2000
   18.4407  -20.7280  -15.4541 C   0  0  0  0  0  0  0  0  0  0  0  0
   19.0693  -19.0511  -15.1243 S   0  0  0  0  0  0  0  0  0  0  0  0
   20.4410  -19.1430  -13.9626 C   0  0  0  0  0  0  0  0  0  0  0  0
   20.2696  -20.1890  -12.9021 C   0  0  0  0  0  0  0  0  0  0  0  0
   21.5472  -20.9859  -12.6401 C   0  0  2  0  0  0  0  0  0  0  0  0
   21.9718  -21.6259  -13.8265 N   0  0  0  0  0  0  0  0  0  0  0  0
   21.3346  -21.8389  -11.4596 C   0  0  0  0  0  0  0  0  0  0  0  0
   20.9703  -23.0187  -11.6997 O   0  0  0  0  0  0  0  0  0  0  0  0
   21.5086  -21.4237  -10.1401 N   0  0  0  0  0  0  0  0  0  0  0  0
   21.8715  -20.0418   -9.7668 C   0  0  0  0  0  0  0  0  0  0  0  0
   22.5493  -20.1297   -8.4374 C   0  0  0  0  0  0  0  0  0  0  0  0
   22.3749  -21.5293   -7.9453 C   0  0  0  0  0  0  0  0  0  0  0  0
   21.3947  -22.1794   -8.9421 C   0  0  1  0  0  0  0  0  0  0  0  0
   20.0236  -22.1980   -8.3675 C   0  0  0  0  0  0  0  0  0  0  0  0
   19.2941  -21.1716   -8.3375 O   0  0  0  0  0  0  0  0  0  0  0  0
   19.4946  -23.3935   -7.8292 N   0  0  0  0  0  0  0  0  0  0  0  0
   18.1598  -23.5564   -7.3389 C   0  0  1  0  0  0  0  0  0  0  0  0
   17.3408  -24.4955   -8.2143 C   0  0  0  0  0  0  0  0  0  0  0  0
   17.2011  -23.9769   -9.6109 C   0  0  0  0  0  0  0  0  0  0  0  0
   16.4344  -24.9532  -10.4412 C   0  0  0  0  0  0  0  0  0  0  0  0
   16.2869  -26.1380  -10.0285 O   0  0  0  0  0  0  0  0  0  0  0  0
   18.2151  -24.1651   -5.9947 C   0  0  0  0  0  0  0  0  0  0  0  0
   17.0736  -24.2077   -5.2252 O   0  0  0  0  0  0  0  0  0  0  0  0
   15.8729  -24.6046  -11.6600 O   0  0  0  0  0  0  0  0  0  0  0  0
   19.2693  -24.6483   -5.5238 O   0  0  0  0  0  0  0  0  0  0  0  0
  2  1  1  0
  3  2  1  0
  4  3  1  0
  5  4  1  0
  5  6  1  6
  7  8  2  0
  7  5  1  0
  9  7  1  0
 10  9  1  0
 11 10  1  0
 12 11  1  0
 12 13  1  0
 13  9  1  0
 13 14  1  1
 15 14  2  0
 16 14  1  0
 17 16  1  0
 17 18  1  6
 19 18  1  0
 20 19  1  0
 20 21  2  0
 22 17  1  0
 23 22  1  0
 24 20  1  0
 25 22  2  0
M  END
$$$$
