MPE.pdb
     RDKit          3D

 25 25  0  0  1  0  0  0  0  0999 V2000
   13.8336  -26.0204  -14.9287 C   0  0  0  0  0  0  0  0  0  0  0  0
   14.3139  -26.5175  -13.2441 S   0  0  0  0  0  0  0  0  0  0  0  0
   16.0113  -26.0079  -12.9299 C   0  0  0  0  0  0  0  0  0  0  0  0
   16.5118  -26.3722  -11.5643 C   0  0  0  0  0  0  0  0  0  0  0  0
   18.0374  -26.3903  -11.4748 C   0  0  2  0  0  0  0  0  0  0  0  0
   18.5556  -27.4615  -12.2372 N   0  0  0  0  0  0  0  0  0  0  0  0
   18.4252  -26.3304  -10.0561 C   0  0  0  0  0  0  0  0  0  0  0  0
   18.8614  -27.4035   -9.5659 O   0  0  0  0  0  0  0  0  0  0  0  0
   18.3372  -25.1907   -9.2579 N   0  0  0  0  0  0  0  0  0  0  0  0
   17.7850  -23.9073   -9.7361 C   0  0  0  0  0  0  0  0  0  0  0  0
   18.4036  -22.8419   -8.8895 C   0  0  0  0  0  0  0  0  0  0  0  0
   19.1347  -23.5279   -7.7821 C   0  0  0  0  0  0  0  0  0  0  0  0
   18.7370  -25.0124   -7.9060 C   0  0  1  0  0  0  0  0  0  0  0  0
   17.6782  -25.3392   -6.9147 C   0  0  0  0  0  0  0  0  0  0  0  0
   16.4520  -25.2306   -7.1815 O   0  0  0  0  0  0  0  0  0  0  0  0
   18.0298  -25.7889   -5.6213 N   0  0  0  0  0  0  0  0  0  0  0  0
   17.1016  -26.1826   -4.6054 C   0  0  1  0  0  0  0  0  0  0  0  0
   17.8061  -26.6783   -3.3496 C   0  0  0  0  0  0  0  0  0  0  0  0
   16.8376  -27.2002   -2.3355 C   0  0  0  0  0  0  0  0  0  0  0  0
   17.5791  -27.8032   -1.1878 C   0  0  0  0  0  0  0  0  0  0  0  0
   18.8423  -27.7906   -1.1895 O   0  0  0  0  0  0  0  0  0  0  0  0
   16.2994  -25.0078   -4.2094 C   0  0  0  0  0  0  0  0  0  0  0  0
   15.0254  -25.1938   -3.7202 O   0  0  0  0  0  0  0  0  0  0  0  0
   16.9267  -28.3819   -0.1100 O   0  0  0  0  0  0  0  0  0  0  0  0
   16.7370  -23.8389   -4.3024 O   0  0  0  0  0  0  0  0  0  0  0  0
  2  1  1  0
  3  2  1  0
  4  3  1  0
  5  4  1  0
  5  6  1  1
  7  8  2  0
  7  5  1  0
  9  7  1  0
 10  9  1  0
 11 10  1  0
 12 11  1  0
 12 13  1  0
 13  9  1  0
 13 14  1  1
 15 14  2  0
 16 14  1  0
 17 16  1  0
 17 18  1  1
 19 18  1  0
 20 19  1  0
 20 21  2  0
 22 17  1  0
 23 22  1  0
 24 20  1  0
 25 22  2  0
M  END
$$$$
