MPE.pdb
     RDKit          3D

 25 25  0  0  1  0  0  0  0  0999 V2000
   25.6262  -15.5477  -15.1868 C   0  0  0  0  0  0  0  0  0  0  0  0
   27.2250  -15.7141  -16.0423 S   0  0  0  0  0  0  0  0  0  0  0  0
   27.8233  -17.4030  -15.8712 C   0  0  0  0  0  0  0  0  0  0  0  0
   26.7947  -18.3618  -15.3508 C   0  0  0  0  0  0  0  0  0  0  0  0
   27.3136  -19.7960  -15.2532 C   0  0  2  0  0  0  0  0  0  0  0  0
   27.8282  -20.2121  -16.5019 N   0  0  0  0  0  0  0  0  0  0  0  0
   26.2652  -20.6344  -14.6493 C   0  0  0  0  0  0  0  0  0  0  0  0
   25.5877  -21.3225  -15.4554 O   0  0  0  0  0  0  0  0  0  0  0  0
   25.9939  -20.7029  -13.2835 N   0  0  0  0  0  0  0  0  0  0  0  0
   26.7745  -19.9722  -12.2648 C   0  0  0  0  0  0  0  0  0  0  0  0
   26.6216  -20.7370  -10.9896 C   0  0  0  0  0  0  0  0  0  0  0  0
   25.5744  -21.7766  -11.2220 C   0  0  0  0  0  0  0  0  0  0  0  0
   24.9863  -21.4425  -12.6075 C   0  0  1  0  0  0  0  0  0  0  0  0
   23.7017  -20.7105  -12.4512 C   0  0  0  0  0  0  0  0  0  0  0  0
   23.6449  -19.5504  -11.9638 O   0  0  0  0  0  0  0  0  0  0  0  0
   22.4873  -21.3119  -12.8542 N   0  0  0  0  0  0  0  0  0  0  0  0
   21.3413  -20.6071  -13.3425 C   0  0  1  0  0  0  0  0  0  0  0  0
   21.3300  -20.5196  -14.8628 C   0  0  0  0  0  0  0  0  0  0  0  0
   20.1402  -19.7672  -15.3697 C   0  0  0  0  0  0  0  0  0  0  0  0
   20.2241  -19.6238  -16.8539 C   0  0  0  0  0  0  0  0  0  0  0  0
   21.0248  -20.3534  -17.5038 O   0  0  0  0  0  0  0  0  0  0  0  0
   20.1234  -21.3433  -12.9482 C   0  0  0  0  0  0  0  0  0  0  0  0
   18.9754  -20.6413  -12.6545 O   0  0  0  0  0  0  0  0  0  0  0  0
   19.4487  -18.7108  -17.5521 O   0  0  0  0  0  0  0  0  0  0  0  0
   20.0944  -22.5921  -12.8699 O   0  0  0  0  0  0  0  0  0  0  0  0
  2  1  1  0
  3  2  1  0
  4  3  1  0
  5  4  1  0
  5  6  1  6
  7  8  2  0
  7  5  1  0
  9  7  1  0
 10  9  1  0
 11 10  1  0
 12 11  1  0
 12 13  1  0
 13  9  1  0
 13 14  1  1
 15 14  2  0
 16 14  1  0
 17 16  1  0
 17 18  1  6
 19 18  1  0
 20 19  1  0
 20 21  2  0
 22 17  1  0
 23 22  1  0
 24 20  1  0
 25 22  2  0
M  END
$$$$
