AIP.pdb
     RDKit          3D

 21 21  0  0  1  0  0  0  0  0999 V2000
   20.8729  -21.3098  -14.6485 C   0  0  0  0  0  0  0  0  0  0  0  0
   21.2241  -20.9144  -13.2403 C   0  0  2  0  0  0  0  0  0  0  0  0
   20.2262  -19.9761  -12.7683 N   0  0  0  0  0  0  0  0  0  0  0  0
   22.6024  -20.2889  -13.2287 C   0  0  0  0  0  0  0  0  0  0  0  0
   22.7557  -19.0768  -13.3733 O   0  0  0  0  0  0  0  0  0  0  0  0
   25.5755  -20.9697   -9.0554 C   0  0  0  0  0  0  0  0  0  0  0  0
   24.9195  -20.4242  -10.3141 C   0  0  0  0  0  0  0  0  0  0  0  0
   25.5742  -21.1278  -11.4887 C   0  0  2  0  0  0  0  0  0  0  0  0
   27.0872  -20.7967  -11.4826 C   0  0  0  0  0  0  0  0  0  0  0  0
   25.0752  -20.7276  -12.8196 C   0  0  2  0  0  0  0  0  0  0  0  0
   23.7002  -21.1449  -13.0465 N   0  0  0  0  0  0  0  0  0  0  0  0
   25.9408  -20.9111  -13.9878 C   0  0  0  0  0  0  0  0  0  0  0  0
   25.9101  -22.1078  -14.4778 O   0  0  0  0  0  0  0  0  0  0  0  0
   26.7871  -20.0401  -14.6693 N   0  0  0  0  0  0  0  0  0  0  0  0
   27.1392  -18.6991  -14.1411 C   0  0  0  0  0  0  0  0  0  0  0  0
   27.2524  -17.9028  -15.4198 C   0  0  0  0  0  0  0  0  0  0  0  0
   28.1723  -18.8420  -16.2054 C   0  0  0  0  0  0  0  0  0  0  0  0
   27.4820  -20.1816  -15.9168 C   0  0  1  0  0  0  0  0  0  0  0  0
   28.5006  -21.2510  -15.8676 C   0  0  0  0  0  0  0  0  0  0  0  0
   28.9581  -21.7954  -14.8570 O   0  0  0  0  0  0  0  0  0  0  0  0
   28.9976  -21.6905  -17.1102 O   0  0  0  0  0  0  0  0  0  0  0  0
  2  1  1  6
  2  4  1  0
  3  2  1  0
  4  5  2  0
  7  6  1  0
  8  7  1  0
  8  9  1  6
 10  8  1  0
 11  4  1  0
 10 11  1  6
 12 14  1  0
 12 10  1  0
 13 12  2  0
 14 18  1  0
 15 14  1  0
 15 16  1  0
 16 17  1  0
 17 18  1  0
 18 19  1  1
 19 21  1  0
 20 19  2  0
M  END
$$$$
