AIP.pdb
     RDKit          3D

 21 21  0  0  1  0  0  0  0  0999 V2000
   23.1003  -19.9535   -9.8930 C   0  0  0  0  0  0  0  0  0  0  0  0
   24.3604  -20.2993  -10.6383 C   0  0  2  0  0  0  0  0  0  0  0  0
   24.0330  -21.2733  -11.6596 N   0  0  0  0  0  0  0  0  0  0  0  0
   25.3763  -20.8576   -9.6650 C   0  0  0  0  0  0  0  0  0  0  0  0
   25.1759  -21.9143   -9.0677 O   0  0  0  0  0  0  0  0  0  0  0  0
   30.2018  -21.7626  -11.1832 C   0  0  0  0  0  0  0  0  0  0  0  0
   28.8505  -21.7640  -10.4862 C   0  0  0  0  0  0  0  0  0  0  0  0
   28.9204  -20.7123   -9.3943 C   0  0  2  0  0  0  0  0  0  0  0  0
   29.9951  -21.1397   -8.3642 C   0  0  0  0  0  0  0  0  0  0  0  0
   27.6743  -20.5190   -8.6260 C   0  0  2  0  0  0  0  0  0  0  0  0
   26.5569  -20.1234   -9.4694 N   0  0  0  0  0  0  0  0  0  0  0  0
   27.7292  -19.7951   -7.3530 C   0  0  0  0  0  0  0  0  0  0  0  0
   27.4671  -18.5328   -7.4582 O   0  0  0  0  0  0  0  0  0  0  0  0
   28.0081  -20.2106   -6.0535 N   0  0  0  0  0  0  0  0  0  0  0  0
   28.2625  -21.6317   -5.7114 C   0  0  0  0  0  0  0  0  0  0  0  0
   27.6582  -21.7113   -4.3292 C   0  0  0  0  0  0  0  0  0  0  0  0
   28.3347  -20.4890   -3.7019 C   0  0  0  0  0  0  0  0  0  0  0  0
   28.1255  -19.4700   -4.8299 C   0  0  1  0  0  0  0  0  0  0  0  0
   29.2678  -18.5330   -4.8546 C   0  0  0  0  0  0  0  0  0  0  0  0
   30.1874  -18.5042   -5.6795 O   0  0  0  0  0  0  0  0  0  0  0  0
   29.3042  -17.5736   -3.8239 O   0  0  0  0  0  0  0  0  0  0  0  0
  2  1  1  1
  2  4  1  0
  3  2  1  0
  4  5  2  0
  7  6  1  0
  8  7  1  0
  8  9  1  1
 10  8  1  0
 11  4  1  0
 10 11  1  6
 12 14  1  0
 12 10  1  0
 13 12  2  0
 14 18  1  0
 15 14  1  0
 15 16  1  0
 16 17  1  0
 17 18  1  0
 18 19  1  6
 19 21  1  0
 20 19  2  0
M  END
$$$$
