AIP.pdb
     RDKit          3D

 21 21  0  0  1  0  0  0  0  0999 V2000
   24.6659  -21.5060   -9.2775 C   0  0  0  0  0  0  0  0  0  0  0  0
   25.0238  -20.0451   -9.2533 C   0  0  2  0  0  0  0  0  0  0  0  0
   24.9869  -19.5444  -10.6123 N   0  0  0  0  0  0  0  0  0  0  0  0
   26.4044  -19.8815   -8.6545 C   0  0  0  0  0  0  0  0  0  0  0  0
   27.4185  -20.0771   -9.3229 O   0  0  0  0  0  0  0  0  0  0  0  0
   26.8065  -15.6697   -5.7791 C   0  0  0  0  0  0  0  0  0  0  0  0
   27.4325  -16.7203   -6.6826 C   0  0  0  0  0  0  0  0  0  0  0  0
   27.6562  -17.9547   -5.8285 C   0  0  2  0  0  0  0  0  0  0  0  0
   29.0227  -17.8194   -5.1122 C   0  0  0  0  0  0  0  0  0  0  0  0
   27.7093  -19.2311   -6.5691 C   0  0  2  0  0  0  0  0  0  0  0  0
   26.4839  -19.4976   -7.3064 N   0  0  0  0  0  0  0  0  0  0  0  0
   28.2598  -20.4158   -5.9049 C   0  0  0  0  0  0  0  0  0  0  0  0
   27.3775  -21.1144   -5.2673 O   0  0  0  0  0  0  0  0  0  0  0  0
   29.5517  -20.9307   -5.8331 N   0  0  0  0  0  0  0  0  0  0  0  0
   30.6519  -20.4390   -6.6986 C   0  0  0  0  0  0  0  0  0  0  0  0
   31.4437  -21.7076   -6.9122 C   0  0  0  0  0  0  0  0  0  0  0  0
   31.5657  -22.1613   -5.4546 C   0  0  0  0  0  0  0  0  0  0  0  0
   30.1170  -21.9496   -4.9955 C   0  0  1  0  0  0  0  0  0  0  0  0
   30.1122  -21.5627   -3.5693 C   0  0  0  0  0  0  0  0  0  0  0  0
   29.9521  -20.4277   -3.1079 O   0  0  0  0  0  0  0  0  0  0  0  0
   30.3124  -22.6059   -2.6441 O   0  0  0  0  0  0  0  0  0  0  0  0
  2  1  1  6
  2  4  1  0
  3  2  1  0
  4  5  2  0
  7  6  1  0
  8  7  1  0
  8  9  1  6
 10  8  1  0
 11  4  1  0
 10 11  1  1
 12 14  1  0
 12 10  1  0
 13 12  2  0
 14 18  1  0
 15 14  1  0
 15 16  1  0
 16 17  1  0
 17 18  1  0
 18 19  1  1
 19 21  1  0
 20 19  2  0
M  END
$$$$
