AIP.pdb
     RDKit          3D

 21 21  0  0  1  0  0  0  0  0999 V2000
   26.8196  -22.2285  -16.7100 C   0  0  0  0  0  0  0  0  0  0  0  0
   25.7624  -21.2512  -17.1463 C   0  0  2  0  0  0  0  0  0  0  0  0
   26.3249  -20.4008  -18.1754 N   0  0  0  0  0  0  0  0  0  0  0  0
   25.3185  -20.4334  -15.9524 C   0  0  0  0  0  0  0  0  0  0  0  0
   25.9177  -19.4121  -15.6186 O   0  0  0  0  0  0  0  0  0  0  0  0
   20.7894  -18.1890  -13.1466 C   0  0  0  0  0  0  0  0  0  0  0  0
   21.1940  -19.6172  -13.4756 C   0  0  0  0  0  0  0  0  0  0  0  0
   22.3092  -19.5308  -14.5014 C   0  0  2  0  0  0  0  0  0  0  0  0
   21.8364  -20.2210  -15.8049 C   0  0  0  0  0  0  0  0  0  0  0  0
   23.5686  -20.2006  -14.1198 C   0  0  2  0  0  0  0  0  0  0  0  0
   24.1961  -20.8847  -15.2399 N   0  0  0  0  0  0  0  0  0  0  0  0
   23.6174  -20.9630  -12.8692 C   0  0  0  0  0  0  0  0  0  0  0  0
   23.1924  -22.1795  -12.9821 O   0  0  0  0  0  0  0  0  0  0  0  0
   24.0366  -20.6250  -11.5849 N   0  0  0  0  0  0  0  0  0  0  0  0
   24.8323  -19.4045  -11.3047 C   0  0  0  0  0  0  0  0  0  0  0  0
   25.7102  -19.8827  -10.1722 C   0  0  0  0  0  0  0  0  0  0  0  0
   24.6300  -20.4914   -9.2732 C   0  0  0  0  0  0  0  0  0  0  0  0
   23.8320  -21.2764  -10.3227 C   0  0  1  0  0  0  0  0  0  0  0  0
   22.4069  -21.2968   -9.9323 C   0  0  0  0  0  0  0  0  0  0  0  0
   21.4897  -20.6378  -10.4335 O   0  0  0  0  0  0  0  0  0  0  0  0
   22.0669  -22.1632   -8.8749 O   0  0  0  0  0  0  0  0  0  0  0  0
  2  1  1  1
  2  4  1  0
  3  2  1  0
  4  5  2  0
  7  6  1  0
  8  7  1  0
  8  9  1  6
 10  8  1  0
 11  4  1  0
 10 11  1  6
 12 14  1  0
 12 10  1  0
 13 12  2  0
 14 18  1  0
 15 14  1  0
 15 16  1  0
 16 17  1  0
 17 18  1  0
 18 19  1  1
 19 21  1  0
 20 19  2  0
M  END
$$$$
