AIP.pdb
     RDKit          3D

 21 21  0  0  1  0  0  0  0  0999 V2000
   19.0340  -11.5552  -19.6681 C   0  0  0  0  0  0  0  0  0  0  0  0
   20.0364  -10.4423  -19.5288 C   0  0  2  0  0  0  0  0  0  0  0  0
   21.3473  -10.9664  -19.8537 N   0  0  0  0  0  0  0  0  0  0  0  0
   20.0012   -9.9163  -18.1099 C   0  0  0  0  0  0  0  0  0  0  0  0
   18.9435   -9.5816  -17.5781 O   0  0  0  0  0  0  0  0  0  0  0  0
   23.6826  -12.1256  -15.0443 C   0  0  0  0  0  0  0  0  0  0  0  0
   22.2987  -11.5482  -15.2959 C   0  0  0  0  0  0  0  0  0  0  0  0
   22.4540  -10.0390  -15.3311 C   0  0  2  0  0  0  0  0  0  0  0  0
   22.3997   -9.5024  -13.8793 C   0  0  0  0  0  0  0  0  0  0  0  0
   21.4018   -9.3152  -16.0723 C   0  0  2  0  0  0  0  0  0  0  0  0
   21.2222   -9.8248  -17.4229 N   0  0  0  0  0  0  0  0  0  0  0  0
   21.3517   -7.8529  -15.9891 C   0  0  0  0  0  0  0  0  0  0  0  0
   22.3211   -7.2611  -16.6080 O   0  0  0  0  0  0  0  0  0  0  0  0
   20.4570   -6.9825  -15.3717 N   0  0  0  0  0  0  0  0  0  0  0  0
   19.2287   -7.4586  -14.6891 C   0  0  0  0  0  0  0  0  0  0  0  0
   18.2750   -6.3240  -14.9808 C   0  0  0  0  0  0  0  0  0  0  0  0
   19.1599   -5.1511  -14.5488 C   0  0  0  0  0  0  0  0  0  0  0  0
   20.4748   -5.5547  -15.2288 C   0  0  1  0  0  0  0  0  0  0  0  0
   21.6094   -5.0929  -14.4024 C   0  0  0  0  0  0  0  0  0  0  0  0
   22.2999   -5.7771  -13.6395 O   0  0  0  0  0  0  0  0  0  0  0  0
   21.9310   -3.7250  -14.5011 O   0  0  0  0  0  0  0  0  0  0  0  0
  2  1  1  1
  2  4  1  0
  3  2  1  0
  4  5  2  0
  7  6  1  0
  8  7  1  0
  8  9  1  1
 10  8  1  0
 11  4  1  0
 10 11  1  6
 12 14  1  0
 12 10  1  0
 13 12  2  0
 14 18  1  0
 15 14  1  0
 15 16  1  0
 16 17  1  0
 17 18  1  0
 18 19  1  1
 19 21  1  0
 20 19  2  0
M  END
$$$$
