AIP.pdb
     RDKit          3D

 21 21  0  0  1  0  0  0  0  0999 V2000
   19.8457  -21.7522  -17.4294 C   0  0  0  0  0  0  0  0  0  0  0  0
   21.0940  -21.7851  -16.5905 C   0  0  2  0  0  0  0  0  0  0  0  0
   22.0092  -22.7452  -17.1730 N   0  0  0  0  0  0  0  0  0  0  0  0
   20.7307  -22.1755  -15.1739 C   0  0  0  0  0  0  0  0  0  0  0  0
   20.7225  -23.3529  -14.8173 O   0  0  0  0  0  0  0  0  0  0  0  0
   21.2972  -19.4736   -9.7946 C   0  0  0  0  0  0  0  0  0  0  0  0
   20.4215  -20.4804  -10.5236 C   0  0  0  0  0  0  0  0  0  0  0  0
   20.7865  -20.3938  -11.9941 C   0  0  2  0  0  0  0  0  0  0  0  0
   20.4732  -18.9631  -12.4979 C   0  0  0  0  0  0  0  0  0  0  0  0
   20.0430  -21.3100  -12.8820 C   0  0  2  0  0  0  0  0  0  0  0  0
   20.4033  -21.1423  -14.2815 N   0  0  0  0  0  0  0  0  0  0  0  0
   18.6052  -21.4960  -12.6681 C   0  0  0  0  0  0  0  0  0  0  0  0
   17.8712  -20.6011  -13.2455 O   0  0  0  0  0  0  0  0  0  0  0  0
   17.8821  -22.4547  -11.9628 N   0  0  0  0  0  0  0  0  0  0  0  0
   18.5394  -23.5619  -11.2257 C   0  0  0  0  0  0  0  0  0  0  0  0
   17.5341  -24.6737  -11.4129 C   0  0  0  0  0  0  0  0  0  0  0  0
   16.2674  -23.9242  -10.9896 C   0  0  0  0  0  0  0  0  0  0  0  0
   16.4700  -22.6155  -11.7645 C   0  0  1  0  0  0  0  0  0  0  0  0
   15.8866  -21.4994  -10.9915 C   0  0  0  0  0  0  0  0  0  0  0  0
   16.5001  -20.6313  -10.3614 O   0  0  0  0  0  0  0  0  0  0  0  0
   14.4800  -21.4249  -10.9768 O   0  0  0  0  0  0  0  0  0  0  0  0
  2  1  1  6
  2  4  1  0
  3  2  1  0
  4  5  2  0
  7  6  1  0
  8  7  1  0
  8  9  1  6
 10  8  1  0
 11  4  1  0
 10 11  1  6
 12 14  1  0
 12 10  1  0
 13 12  2  0
 14 18  1  0
 15 14  1  0
 15 16  1  0
 16 17  1  0
 17 18  1  0
 18 19  1  1
 19 21  1  0
 20 19  2  0
M  END
$$$$
