AIP.pdb
     RDKit          3D

 21 21  0  0  1  0  0  0  0  0999 V2000
   17.9556  -11.1322  -19.0996 C   0  0  0  0  0  0  0  0  0  0  0  0
   18.6330  -11.6856  -17.8758 C   0  0  2  0  0  0  0  0  0  0  0  0
   17.8363  -12.7860  -17.3724 N   0  0  0  0  0  0  0  0  0  0  0  0
   18.7580  -10.5903  -16.8386 C   0  0  0  0  0  0  0  0  0  0  0  0
   17.8577  -10.3700  -16.0297 O   0  0  0  0  0  0  0  0  0  0  0  0
   23.1757  -10.5078  -14.0419 C   0  0  0  0  0  0  0  0  0  0  0  0
   21.7595  -10.4377  -14.5910 C   0  0  0  0  0  0  0  0  0  0  0  0
   21.6039   -9.0682  -15.2262 C   0  0  2  0  0  0  0  0  0  0  0  0
   21.7609   -7.9913  -14.1241 C   0  0  0  0  0  0  0  0  0  0  0  0
   20.2949   -8.8138  -15.8604 C   0  0  2  0  0  0  0  0  0  0  0  0
   19.9413   -9.8346  -16.8347 N   0  0  0  0  0  0  0  0  0  0  0  0
   19.9690   -7.4532  -16.2966 C   0  0  0  0  0  0  0  0  0  0  0  0
   20.6854   -7.0376  -17.2903 O   0  0  0  0  0  0  0  0  0  0  0  0
   19.0333   -6.5263  -15.8445 N   0  0  0  0  0  0  0  0  0  0  0  0
   18.1145   -6.8115  -14.7150 C   0  0  0  0  0  0  0  0  0  0  0  0
   16.8793   -6.0563  -15.1462 C   0  0  0  0  0  0  0  0  0  0  0  0
   17.5265   -4.7078  -15.4749 C   0  0  0  0  0  0  0  0  0  0  0  0
   18.7380   -5.1920  -16.2825 C   0  0  1  0  0  0  0  0  0  0  0  0
   19.8704   -4.2697  -16.0575 C   0  0  0  0  0  0  0  0  0  0  0  0
   20.8899   -4.4924  -15.3958 O   0  0  0  0  0  0  0  0  0  0  0  0
   19.7680   -3.0035  -16.6662 O   0  0  0  0  0  0  0  0  0  0  0  0
  2  1  1  6
  2  4  1  0
  3  2  1  0
  4  5  2  0
  7  6  1  0
  8  7  1  0
  8  9  1  1
 10  8  1  0
 11  4  1  0
 10 11  1  6
 12 14  1  0
 12 10  1  0
 13 12  2  0
 14 18  1  0
 15 14  1  0
 15 16  1  0
 16 17  1  0
 17 18  1  0
 18 19  1  1
 19 21  1  0
 20 19  2  0
M  END
$$$$
