AIP.pdb
     RDKit          3D

 21 21  0  0  1  0  0  0  0  0999 V2000
   18.6391  -10.1729  -20.1761 C   0  0  0  0  0  0  0  0  0  0  0  0
   19.6267  -11.0423  -19.4471 C   0  0  2  0  0  0  0  0  0  0  0  0
   19.1306  -12.4034  -19.4581 N   0  0  0  0  0  0  0  0  0  0  0  0
   19.7833  -10.5357  -18.0294 C   0  0  0  0  0  0  0  0  0  0  0  0
   18.9016  -10.7061  -17.1885 O   0  0  0  0  0  0  0  0  0  0  0  0
   22.4023  -10.7708  -13.4457 C   0  0  0  0  0  0  0  0  0  0  0  0
   22.9022   -9.7162  -14.4202 C   0  0  0  0  0  0  0  0  0  0  0  0
   22.4649  -10.1575  -15.8049 C   0  0  2  0  0  0  0  0  0  0  0  0
   23.6585   -9.9895  -16.7774 C   0  0  0  0  0  0  0  0  0  0  0  0
   21.3514   -9.3838  -16.3895 C   0  0  2  0  0  0  0  0  0  0  0  0
   20.9739   -9.8636  -17.7100 N   0  0  0  0  0  0  0  0  0  0  0  0
   21.3685   -7.9223  -16.2828 C   0  0  0  0  0  0  0  0  0  0  0  0
   22.2203   -7.3510  -17.0710 O   0  0  0  0  0  0  0  0  0  0  0  0
   20.6398   -7.0346  -15.4951 N   0  0  0  0  0  0  0  0  0  0  0  0
   19.5282   -7.4789  -14.6186 C   0  0  0  0  0  0  0  0  0  0  0  0
   18.5953   -6.2943  -14.7082 C   0  0  0  0  0  0  0  0  0  0  0  0
   19.5989   -5.1767  -14.4097 C   0  0  0  0  0  0  0  0  0  0  0  0
   20.7528   -5.6147  -15.3213 C   0  0  1  0  0  0  0  0  0  0  0  0
   22.0360   -5.2314  -14.6969 C   0  0  0  0  0  0  0  0  0  0  0  0
   22.7878   -5.9576  -14.0378 O   0  0  0  0  0  0  0  0  0  0  0  0
   22.4372   -3.8932  -14.8774 O   0  0  0  0  0  0  0  0  0  0  0  0
  2  1  1  6
  2  4  1  0
  3  2  1  0
  4  5  2  0
  7  6  1  0
  8  7  1  0
  8  9  1  6
 10  8  1  0
 11  4  1  0
 10 11  1  6
 12 14  1  0
 12 10  1  0
 13 12  2  0
 14 18  1  0
 15 14  1  0
 15 16  1  0
 16 17  1  0
 17 18  1  0
 18 19  1  1
 19 21  1  0
 20 19  2  0
M  END
$$$$
