KPQ.pdb
     RDKit          3D

 26 26  0  0  1  0  0  0  0  0999 V2000
   26.5085  -24.1771  -15.3955 N   0  0  0  0  0  0  0  0  0  0  0  0
   27.2700  -22.9766  -15.8937 C   0  0  1  0  0  0  0  0  0  0  0  0
   27.4474  -23.2319  -17.3349 C   0  0  0  0  0  0  0  0  0  0  0  0
   28.5848  -24.0020  -17.8505 C   0  0  0  0  0  0  0  0  0  0  0  0
   29.8257  -24.1087  -17.0480 C   0  0  0  0  0  0  0  0  0  0  0  0
   30.9319  -24.8603  -17.7770 C   0  0  0  0  0  0  0  0  0  0  0  0
   30.9586  -26.2466  -17.4431 N   0  0  0  0  0  0  0  0  0  0  0  0
   26.5163  -21.8397  -15.4343 C   0  0  0  0  0  0  0  0  0  0  0  0
   25.5761  -21.9939  -14.5959 O   0  0  0  0  0  0  0  0  0  0  0  0
   26.7285  -20.4609  -15.8450 N   0  0  0  0  0  0  0  0  0  0  0  0
   27.7756  -20.0369  -16.7409 C   0  0  0  0  0  0  0  0  0  0  0  0
   27.8607  -18.5355  -16.5956 C   0  0  0  0  0  0  0  0  0  0  0  0
   26.9930  -18.2034  -15.3965 C   0  0  0  0  0  0  0  0  0  0  0  0
   25.9861  -19.3167  -15.4517 C   0  0  1  0  0  0  0  0  0  0  0  0
   24.7745  -19.0275  -16.2178 C   0  0  0  0  0  0  0  0  0  0  0  0
   24.7962  -19.1681  -17.4648 O   0  0  0  0  0  0  0  0  0  0  0  0
   20.3089  -21.9887  -13.8673 N   0  0  0  0  0  0  0  0  0  0  0  0
   20.5604  -20.7294  -13.2010 C   0  0  0  0  0  0  0  0  0  0  0  0
   20.1405  -20.6765  -12.0180 O   0  0  0  0  0  0  0  0  0  0  0  0
   21.2575  -19.6419  -13.9152 C   0  0  0  0  0  0  0  0  0  0  0  0
   21.6498  -20.0218  -15.2991 C   0  0  0  0  0  0  0  0  0  0  0  0
   22.2330  -18.9002  -16.0740 C   0  0  2  0  0  0  0  0  0  0  0  0
   23.5888  -18.5993  -15.5901 N   0  0  0  0  0  0  0  0  0  0  0  0
   21.3837  -17.7129  -16.0310 C   0  0  0  0  0  0  0  0  0  0  0  0
   21.7842  -16.5211  -15.3875 O   0  0  0  0  0  0  0  0  0  0  0  0
   20.2336  -17.6348  -16.5533 O   0  0  0  0  0  0  0  0  0  0  0  0
  2  1  1  6
  3  2  1  0
  4  3  1  0
  4  5  1  0
  6  5  1  0
  6  7  1  0
  8  2  1  0
  9  8  2  0
 10  8  1  0
 11 10  1  0
 11 12  1  0
 13 12  1  0
 14 10  1  0
 14 13  1  0
 14 15  1  6
 16 15  2  0
 17 18  1  0
 18 19  2  0
 20 18  1  0
 20 21  1  0
 22 21  1  1
 22 23  1  0
 23 15  1  0
 24 22  1  0
 24 25  1  0
 26 24  2  0
M  END
$$$$
