KPQ.pdb
     RDKit          3D

 26 26  0  0  1  0  0  0  0  0999 V2000
   27.9570  -23.2555  -16.7021 N   0  0  0  0  0  0  0  0  0  0  0  0
   28.2623  -21.7805  -16.7223 C   0  0  1  0  0  0  0  0  0  0  0  0
   28.4607  -21.4706  -18.1500 C   0  0  0  0  0  0  0  0  0  0  0  0
   28.5942  -22.5263  -19.1601 C   0  0  0  0  0  0  0  0  0  0  0  0
   27.5260  -22.7193  -20.1686 C   0  0  0  0  0  0  0  0  0  0  0  0
   27.8773  -23.7866  -21.1969 C   0  0  0  0  0  0  0  0  0  0  0  0
   27.8126  -25.1047  -20.6562 N   0  0  0  0  0  0  0  0  0  0  0  0
   27.1938  -21.1681  -15.9772 C   0  0  0  0  0  0  0  0  0  0  0  0
   26.3110  -21.8885  -15.4185 O   0  0  0  0  0  0  0  0  0  0  0  0
   27.0084  -19.7391  -15.7815 N   0  0  0  0  0  0  0  0  0  0  0  0
   27.8806  -18.7291  -16.3276 C   0  0  0  0  0  0  0  0  0  0  0  0
   27.5494  -17.4538  -15.5885 C   0  0  0  0  0  0  0  0  0  0  0  0
   26.6459  -17.8803  -14.4470 C   0  0  0  0  0  0  0  0  0  0  0  0
   25.9857  -19.0927  -15.0391 C   0  0  1  0  0  0  0  0  0  0  0  0
   24.7275  -18.8406  -15.7404 C   0  0  0  0  0  0  0  0  0  0  0  0
   24.7251  -18.8198  -16.9953 O   0  0  0  0  0  0  0  0  0  0  0  0
   23.7806  -23.4196  -13.8102 N   0  0  0  0  0  0  0  0  0  0  0  0
   22.4730  -22.8315  -14.0034 C   0  0  0  0  0  0  0  0  0  0  0  0
   21.5496  -23.6665  -14.1731 O   0  0  0  0  0  0  0  0  0  0  0  0
   22.3136  -21.3642  -13.9904 C   0  0  0  0  0  0  0  0  0  0  0  0
   22.4245  -20.7617  -15.3462 C   0  0  0  0  0  0  0  0  0  0  0  0
   22.2488  -19.2893  -15.3516 C   0  0  2  0  0  0  0  0  0  0  0  0
   23.5237  -18.6245  -15.0423 N   0  0  0  0  0  0  0  0  0  0  0  0
   21.1978  -18.8659  -14.4303 C   0  0  0  0  0  0  0  0  0  0  0  0
   19.8260  -18.9750  -14.7484 O   0  0  0  0  0  0  0  0  0  0  0  0
   21.4055  -18.3724  -13.2836 O   0  0  0  0  0  0  0  0  0  0  0  0
  2  1  1  6
  3  2  1  0
  4  3  1  0
  4  5  1  0
  6  5  1  0
  6  7  1  0
  8  2  1  0
  9  8  2  0
 10  8  1  0
 11 10  1  0
 11 12  1  0
 13 12  1  0
 14 10  1  0
 14 13  1  0
 14 15  1  6
 16 15  2  0
 17 18  1  0
 18 19  2  0
 20 18  1  0
 20 21  1  0
 22 21  1  1
 22 23  1  0
 23 15  1  0
 24 22  1  0
 24 25  1  0
 26 24  2  0
M  END
$$$$
