KPQ.pdb
     RDKit          3D

 26 26  0  0  1  0  0  0  0  0999 V2000
   26.9900  -16.2238  -17.3164 N   0  0  0  0  0  0  0  0  0  0  0  0
   27.4016  -15.0956  -18.2258 C   0  0  1  0  0  0  0  0  0  0  0  0
   26.5569  -15.2671  -19.4219 C   0  0  0  0  0  0  0  0  0  0  0  0
   25.1794  -15.7641  -19.3322 C   0  0  0  0  0  0  0  0  0  0  0  0
   24.3518  -15.8642  -20.5571 C   0  0  0  0  0  0  0  0  0  0  0  0
   22.9389  -16.3557  -20.2708 C   0  0  0  0  0  0  0  0  0  0  0  0
   22.1433  -16.4412  -21.4514 N   0  0  0  0  0  0  0  0  0  0  0  0
   27.3012  -13.9090  -17.4172 C   0  0  0  0  0  0  0  0  0  0  0  0
   26.5599  -13.8997  -16.3872 O   0  0  0  0  0  0  0  0  0  0  0  0
   27.9962  -12.6556  -17.6627 N   0  0  0  0  0  0  0  0  0  0  0  0
   29.0187  -12.4815  -18.6643 C   0  0  0  0  0  0  0  0  0  0  0  0
   29.7086  -11.1801  -18.3285 C   0  0  0  0  0  0  0  0  0  0  0  0
   29.1836  -10.7950  -16.9584 C   0  0  0  0  0  0  0  0  0  0  0  0
   27.8181  -11.4203  -16.9864 C   0  0  1  0  0  0  0  0  0  0  0  0
   26.7438  -10.5561  -17.4740 C   0  0  0  0  0  0  0  0  0  0  0  0
   26.4921  -10.5346  -18.7034 O   0  0  0  0  0  0  0  0  0  0  0  0
   21.8652   -9.1771  -13.8440 N   0  0  0  0  0  0  0  0  0  0  0  0
   21.5922   -8.3414  -14.9929 C   0  0  0  0  0  0  0  0  0  0  0  0
   20.5115   -7.7041  -14.9246 O   0  0  0  0  0  0  0  0  0  0  0  0
   22.5497   -8.2923  -16.1151 C   0  0  0  0  0  0  0  0  0  0  0  0
   23.7759   -9.0955  -15.8603 C   0  0  0  0  0  0  0  0  0  0  0  0
   24.7551   -9.0430  -16.9725 C   0  0  2  0  0  0  0  0  0  0  0  0
   25.9873   -9.7534  -16.5985 N   0  0  0  0  0  0  0  0  0  0  0  0
   25.0421   -7.6693  -17.3770 C   0  0  0  0  0  0  0  0  0  0  0  0
   26.2710   -7.0374  -17.0847 O   0  0  0  0  0  0  0  0  0  0  0  0
   24.2394   -6.9270  -18.0144 O   0  0  0  0  0  0  0  0  0  0  0  0
  2  1  1  1
  3  2  1  0
  4  3  1  0
  4  5  1  0
  6  5  1  0
  6  7  1  0
  8  2  1  0
  9  8  2  0
 10  8  1  0
 11 10  1  0
 11 12  1  0
 13 12  1  0
 14 10  1  0
 14 13  1  0
 14 15  1  6
 16 15  2  0
 17 18  1  0
 18 19  2  0
 20 18  1  0
 20 21  1  0
 22 21  1  1
 22 23  1  0
 23 15  1  0
 24 22  1  0
 24 25  1  0
 26 24  2  0
M  END
$$$$
