KPQ.pdb
     RDKit          3D

 26 26  0  0  1  0  0  0  0  0999 V2000
   12.6097  -24.7619    0.2076 N   0  0  0  0  0  0  0  0  0  0  0  0
   14.0880  -24.5476    0.4025 C   0  0  1  0  0  0  0  0  0  0  0  0
   14.5984  -24.2839   -0.9553 C   0  0  0  0  0  0  0  0  0  0  0  0
   13.7636  -23.6616   -1.9890 C   0  0  0  0  0  0  0  0  0  0  0  0
   14.3126  -23.4482   -3.3486 C   0  0  0  0  0  0  0  0  0  0  0  0
   13.3304  -22.7397   -4.2723 C   0  0  0  0  0  0  0  0  0  0  0  0
   13.8659  -22.5301   -5.5774 N   0  0  0  0  0  0  0  0  0  0  0  0
   14.1873  -23.5483    1.4337 C   0  0  0  0  0  0  0  0  0  0  0  0
   13.2193  -22.7567    1.6505 O   0  0  0  0  0  0  0  0  0  0  0  0
   15.3347  -23.3386    2.3020 N   0  0  0  0  0  0  0  0  0  0  0  0
   16.5308  -24.1432    2.2688 C   0  0  0  0  0  0  0  0  0  0  0  0
   17.2749  -23.8301    3.5457 C   0  0  0  0  0  0  0  0  0  0  0  0
   16.3030  -23.0200    4.3825 C   0  0  0  0  0  0  0  0  0  0  0  0
   15.4870  -22.3531    3.3122 C   0  0  1  0  0  0  0  0  0  0  0  0
   15.9720  -21.0428    2.8805 C   0  0  0  0  0  0  0  0  0  0  0  0
   16.1920  -20.8483    1.6602 O   0  0  0  0  0  0  0  0  0  0  0  0
   11.4009  -18.6338    3.5331 N   0  0  0  0  0  0  0  0  0  0  0  0
   12.0923  -17.3856    3.2941 C   0  0  0  0  0  0  0  0  0  0  0  0
   11.3354  -16.4132    3.0490 O   0  0  0  0  0  0  0  0  0  0  0  0
   13.5664  -17.3352    3.3495 C   0  0  0  0  0  0  0  0  0  0  0  0
   14.1816  -18.6783    3.5252 C   0  0  0  0  0  0  0  0  0  0  0  0
   15.6577  -18.6362    3.6590 C   0  0  2  0  0  0  0  0  0  0  0  0
   16.1941  -19.9985    3.7988 N   0  0  0  0  0  0  0  0  0  0  0  0
   16.0767  -17.7892    4.7725 C   0  0  0  0  0  0  0  0  0  0  0  0
   16.4406  -16.4359    4.5963 O   0  0  0  0  0  0  0  0  0  0  0  0
   16.1527  -18.1729    5.9761 O   0  0  0  0  0  0  0  0  0  0  0  0
  2  1  1  6
  3  2  1  0
  4  3  1  0
  4  5  1  0
  6  5  1  0
  6  7  1  0
  8  2  1  0
  9  8  2  0
 10  8  1  0
 11 10  1  0
 11 12  1  0
 13 12  1  0
 14 10  1  0
 14 13  1  0
 14 15  1  6
 16 15  2  0
 17 18  1  0
 18 19  2  0
 20 18  1  0
 20 21  1  0
 22 21  1  1
 22 23  1  0
 23 15  1  0
 24 22  1  0
 24 25  1  0
 26 24  2  0
M  END
$$$$
