KPQ.pdb
     RDKit          3D

 26 26  0  0  1  0  0  0  0  0999 V2000
   23.5166  -21.6312  -11.7871 N   0  0  0  0  0  0  0  0  0  0  0  0
   24.8914  -21.1938  -12.2205 C   0  0  1  0  0  0  0  0  0  0  0  0
   25.5295  -22.4310  -12.7060 C   0  0  0  0  0  0  0  0  0  0  0  0
   25.0012  -23.1754  -13.8547 C   0  0  0  0  0  0  0  0  0  0  0  0
   25.6181  -23.0023  -15.1907 C   0  0  0  0  0  0  0  0  0  0  0  0
   24.8367  -23.7063  -16.2923 C   0  0  0  0  0  0  0  0  0  0  0  0
   25.6528  -24.0292  -17.4165 N   0  0  0  0  0  0  0  0  0  0  0  0
   24.6669  -20.0834  -13.1085 C   0  0  0  0  0  0  0  0  0  0  0  0
   23.5022  -19.5971  -13.2403 O   0  0  0  0  0  0  0  0  0  0  0  0
   25.6836  -19.4210  -13.9098 N   0  0  0  0  0  0  0  0  0  0  0  0
   27.0749  -19.7992  -13.9233 C   0  0  0  0  0  0  0  0  0  0  0  0
   27.8092  -18.6495  -14.5726 C   0  0  0  0  0  0  0  0  0  0  0  0
   26.7880  -17.5322  -14.6717 C   0  0  0  0  0  0  0  0  0  0  0  0
   25.5120  -18.3167  -14.7852 C   0  0  1  0  0  0  0  0  0  0  0  0
   25.0850  -18.6234  -16.1498 C   0  0  0  0  0  0  0  0  0  0  0  0
   25.7255  -19.4780  -16.8092 O   0  0  0  0  0  0  0  0  0  0  0  0
   26.6199  -14.2657  -18.0591 N   0  0  0  0  0  0  0  0  0  0  0  0
   25.5805  -14.1487  -19.0586 C   0  0  0  0  0  0  0  0  0  0  0  0
   25.8366  -13.3328  -19.9790 O   0  0  0  0  0  0  0  0  0  0  0  0
   24.3482  -14.9526  -18.9405 C   0  0  0  0  0  0  0  0  0  0  0  0
   24.3293  -15.7999  -17.7177 C   0  0  0  0  0  0  0  0  0  0  0  0
   24.0186  -17.2233  -17.9933 C   0  0  2  0  0  0  0  0  0  0  0  0
   23.9748  -17.9862  -16.7367 N   0  0  0  0  0  0  0  0  0  0  0  0
   24.9680  -17.8127  -18.9335 C   0  0  0  0  0  0  0  0  0  0  0  0
   26.3566  -17.5653  -18.8591 O   0  0  0  0  0  0  0  0  0  0  0  0
   24.6499  -18.5851  -19.8842 O   0  0  0  0  0  0  0  0  0  0  0  0
  2  1  1  6
  3  2  1  0
  4  3  1  0
  4  5  1  0
  6  5  1  0
  6  7  1  0
  8  2  1  0
  9  8  2  0
 10  8  1  0
 11 10  1  0
 11 12  1  0
 13 12  1  0
 14 10  1  0
 14 13  1  0
 14 15  1  6
 16 15  2  0
 17 18  1  0
 18 19  2  0
 20 18  1  0
 20 21  1  0
 22 21  1  1
 22 23  1  0
 23 15  1  0
 24 22  1  0
 24 25  1  0
 26 24  2  0
M  END
$$$$
