KPQ.pdb
     RDKit          3D

 26 26  0  0  1  0  0  0  0  0999 V2000
   20.6816  -15.8088  -18.7258 N   0  0  0  0  0  0  0  0  0  0  0  0
   20.0722  -15.1223  -17.5314 C   0  0  1  0  0  0  0  0  0  0  0  0
   20.7082  -15.7767  -16.3733 C   0  0  0  0  0  0  0  0  0  0  0  0
   20.6327  -17.2271  -16.1658 C   0  0  0  0  0  0  0  0  0  0  0  0
   21.8110  -18.0753  -16.4619 C   0  0  0  0  0  0  0  0  0  0  0  0
   21.5547  -19.5510  -16.1855 C   0  0  0  0  0  0  0  0  0  0  0  0
   22.5995  -20.3862  -16.6803 N   0  0  0  0  0  0  0  0  0  0  0  0
   20.2562  -13.7158  -17.7754 C   0  0  0  0  0  0  0  0  0  0  0  0
   21.1419  -13.3206  -18.5939 O   0  0  0  0  0  0  0  0  0  0  0  0
   19.4951  -12.6423  -17.1566 N   0  0  0  0  0  0  0  0  0  0  0  0
   18.3966  -12.8514  -16.2463 C   0  0  0  0  0  0  0  0  0  0  0  0
   17.6808  -11.5244  -16.1509 C   0  0  0  0  0  0  0  0  0  0  0  0
   18.2875  -10.6671  -17.2454 C   0  0  0  0  0  0  0  0  0  0  0  0
   19.6716  -11.2445  -17.3304 C   0  0  1  0  0  0  0  0  0  0  0  0
   20.6720  -10.6004  -16.4803 C   0  0  0  0  0  0  0  0  0  0  0  0
   20.8108  -10.9975  -15.2977 O   0  0  0  0  0  0  0  0  0  0  0  0
   25.9174   -8.0966  -18.7246 N   0  0  0  0  0  0  0  0  0  0  0  0
   26.0856   -7.9488  -17.2953 C   0  0  0  0  0  0  0  0  0  0  0  0
   27.2419   -7.6068  -16.9426 O   0  0  0  0  0  0  0  0  0  0  0  0
   24.9479   -8.1964  -16.3880 C   0  0  0  0  0  0  0  0  0  0  0  0
   23.7354   -8.6767  -17.1040 C   0  0  0  0  0  0  0  0  0  0  0  0
   22.5872   -8.9415  -16.2039 C   0  0  2  0  0  0  0  0  0  0  0  0
   21.4811   -9.5512  -16.9575 N   0  0  0  0  0  0  0  0  0  0  0  0
   22.1493   -7.7309  -15.5142 C   0  0  0  0  0  0  0  0  0  0  0  0
   22.7193   -7.3100  -14.2924 O   0  0  0  0  0  0  0  0  0  0  0  0
   21.2391   -6.9571  -15.9321 O   0  0  0  0  0  0  0  0  0  0  0  0
  2  1  1  6
  3  2  1  0
  4  3  1  0
  4  5  1  0
  6  5  1  0
  6  7  1  0
  8  2  1  0
  9  8  2  0
 10  8  1  0
 11 10  1  0
 11 12  1  0
 13 12  1  0
 14 10  1  0
 14 13  1  0
 14 15  1  1
 16 15  2  0
 17 18  1  0
 18 19  2  0
 20 18  1  0
 20 21  1  0
 22 21  1  6
 22 23  1  0
 23 15  1  0
 24 22  1  0
 24 25  1  0
 26 24  2  0
M  END
$$$$
