KPQ.pdb
     RDKit          3D

 26 26  0  0  1  0  0  0  0  0999 V2000
   21.7635  -21.2734  -13.9600 N   0  0  0  0  0  0  0  0  0  0  0  0
   21.6267  -20.4211  -12.7254 C   0  0  1  0  0  0  0  0  0  0  0  0
   20.5515  -19.4692  -13.0591 C   0  0  0  0  0  0  0  0  0  0  0  0
   19.9632  -19.4051  -14.4016 C   0  0  0  0  0  0  0  0  0  0  0  0
   18.5170  -19.6706  -14.5848 C   0  0  0  0  0  0  0  0  0  0  0  0
   17.7818  -18.4969  -15.2187 C   0  0  0  0  0  0  0  0  0  0  0  0
   16.3940  -18.7642  -15.4103 N   0  0  0  0  0  0  0  0  0  0  0  0
   21.4728  -21.3559  -11.6418 C   0  0  0  0  0  0  0  0  0  0  0  0
   21.1895  -22.5695  -11.8815 O   0  0  0  0  0  0  0  0  0  0  0  0
   21.6182  -21.0457  -10.2286 N   0  0  0  0  0  0  0  0  0  0  0  0
   21.8536  -19.7201   -9.7125 C   0  0  0  0  0  0  0  0  0  0  0  0
   22.3030  -19.9074   -8.2824 C   0  0  0  0  0  0  0  0  0  0  0  0
   22.5457  -21.3975   -8.1349 C   0  0  0  0  0  0  0  0  0  0  0  0
   21.5698  -21.9491   -9.1348 C   0  0  1  0  0  0  0  0  0  0  0  0
   20.2438  -22.2663   -8.6059 C   0  0  0  0  0  0  0  0  0  0  0  0
   19.3334  -21.4068   -8.6934 O   0  0  0  0  0  0  0  0  0  0  0  0
   18.0487  -27.8754   -9.4582 N   0  0  0  0  0  0  0  0  0  0  0  0
   16.9401  -27.2744   -8.7491 C   0  0  0  0  0  0  0  0  0  0  0  0
   15.9028  -27.9825   -8.7141 O   0  0  0  0  0  0  0  0  0  0  0  0
   17.0887  -25.9367   -8.1430 C   0  0  0  0  0  0  0  0  0  0  0  0
   18.4644  -25.3892   -8.2882 C   0  0  0  0  0  0  0  0  0  0  0  0
   18.6148  -24.0221   -7.7343 C   0  0  2  0  0  0  0  0  0  0  0  0
   19.9664  -23.5098   -8.0060 N   0  0  0  0  0  0  0  0  0  0  0  0
   18.3139  -23.9804   -6.3058 C   0  0  0  0  0  0  0  0  0  0  0  0
   16.9929  -23.8858   -5.8150 O   0  0  0  0  0  0  0  0  0  0  0  0
   19.1843  -24.0246   -5.3881 O   0  0  0  0  0  0  0  0  0  0  0  0
  2  1  1  6
  3  2  1  0
  4  3  1  0
  4  5  1  0
  6  5  1  0
  6  7  1  0
  8  2  1  0
  9  8  2  0
 10  8  1  0
 11 10  1  0
 11 12  1  0
 13 12  1  0
 14 10  1  0
 14 13  1  0
 14 15  1  1
 16 15  2  0
 17 18  1  0
 18 19  2  0
 20 18  1  0
 20 21  1  0
 22 21  1  1
 22 23  1  0
 23 15  1  0
 24 22  1  0
 24 25  1  0
 26 24  2  0
M  END
$$$$
