KPQ.pdb
     RDKit          3D

 26 26  0  0  1  0  0  0  0  0999 V2000
   23.2593  -15.2789  -17.7982 N   0  0  0  0  0  0  0  0  0  0  0  0
   24.0622  -14.0485  -18.1313 C   0  0  1  0  0  0  0  0  0  0  0  0
   23.7630  -13.7939  -19.5523 C   0  0  0  0  0  0  0  0  0  0  0  0
   23.4793  -14.8848  -20.4914 C   0  0  0  0  0  0  0  0  0  0  0  0
   23.1975  -14.5775  -21.9132 C   0  0  0  0  0  0  0  0  0  0  0  0
   22.9266  -15.8276  -22.7401 C   0  0  0  0  0  0  0  0  0  0  0  0
   22.6282  -15.5248  -24.1014 N   0  0  0  0  0  0  0  0  0  0  0  0
   23.7083  -13.0871  -17.1202 C   0  0  0  0  0  0  0  0  0  0  0  0
   22.5403  -13.0835  -16.6240 O   0  0  0  0  0  0  0  0  0  0  0  0
   24.5910  -12.0687  -16.5741 N   0  0  0  0  0  0  0  0  0  0  0  0
   25.9865  -11.9422  -16.9143 C   0  0  0  0  0  0  0  0  0  0  0  0
   26.5852  -11.0296  -15.8698 C   0  0  0  0  0  0  0  0  0  0  0  0
   25.5099  -10.8804  -14.8103 C   0  0  0  0  0  0  0  0  0  0  0  0
   24.2664  -11.0554  -15.6345 C   0  0  1  0  0  0  0  0  0  0  0  0
   23.6939   -9.8223  -16.1733 C   0  0  0  0  0  0  0  0  0  0  0  0
   24.1664   -9.3459  -17.2340 O   0  0  0  0  0  0  0  0  0  0  0  0
   17.9529   -9.5950  -17.2305 N   0  0  0  0  0  0  0  0  0  0  0  0
   18.2503   -8.2032  -17.4899 C   0  0  0  0  0  0  0  0  0  0  0  0
   17.2909   -7.5495  -17.9703 O   0  0  0  0  0  0  0  0  0  0  0  0
   19.5921   -7.6661  -17.1903 C   0  0  0  0  0  0  0  0  0  0  0  0
   20.4699   -8.6573  -16.5118 C   0  0  0  0  0  0  0  0  0  0  0  0
   21.8021   -8.1144  -16.1525 C   0  0  2  0  0  0  0  0  0  0  0  0
   22.6274   -9.1622  -15.5329 N   0  0  0  0  0  0  0  0  0  0  0  0
   21.6942   -6.9465  -15.2822 C   0  0  0  0  0  0  0  0  0  0  0  0
   21.4419   -5.6510  -15.7851 O   0  0  0  0  0  0  0  0  0  0  0  0
   21.8120   -6.9778  -14.0225 O   0  0  0  0  0  0  0  0  0  0  0  0
  2  1  1  1
  3  2  1  0
  4  3  1  0
  4  5  1  0
  6  5  1  0
  6  7  1  0
  8  2  1  0
  9  8  2  0
 10  8  1  0
 11 10  1  0
 11 12  1  0
 13 12  1  0
 14 10  1  0
 14 13  1  0
 14 15  1  6
 16 15  2  0
 17 18  1  0
 18 19  2  0
 20 18  1  0
 20 21  1  0
 22 21  1  1
 22 23  1  0
 23 15  1  0
 24 22  1  0
 24 25  1  0
 26 24  2  0
M  END
$$$$
