KPQ.pdb
     RDKit          3D

 26 26  0  0  1  0  0  0  0  0999 V2000
   26.9012  -24.9736  -15.5176 N   0  0  0  0  0  0  0  0  0  0  0  0
   27.4014  -23.7359  -16.2155 C   0  0  1  0  0  0  0  0  0  0  0  0
   27.4663  -24.1220  -17.6369 C   0  0  0  0  0  0  0  0  0  0  0  0
   28.4734  -25.0640  -18.1380 C   0  0  0  0  0  0  0  0  0  0  0  0
   28.5227  -26.4438  -17.6003 C   0  0  0  0  0  0  0  0  0  0  0  0
   29.6171  -27.2847  -18.2445 C   0  0  0  0  0  0  0  0  0  0  0  0
   29.6977  -28.5937  -17.6842 N   0  0  0  0  0  0  0  0  0  0  0  0
   26.5250  -22.6811  -15.7781 C   0  0  0  0  0  0  0  0  0  0  0  0
   25.4786  -22.9550  -15.1144 O   0  0  0  0  0  0  0  0  0  0  0  0
   26.7206  -21.2612  -16.0234 N   0  0  0  0  0  0  0  0  0  0  0  0
   27.7964  -20.7189  -16.8157 C   0  0  0  0  0  0  0  0  0  0  0  0
   27.8366  -19.2417  -16.5017 C   0  0  0  0  0  0  0  0  0  0  0  0
   26.9071  -19.0628  -15.3163 C   0  0  0  0  0  0  0  0  0  0  0  0
   25.9324  -20.1831  -15.5423 C   0  0  1  0  0  0  0  0  0  0  0  0
   24.7499  -19.8348  -16.3291 C   0  0  0  0  0  0  0  0  0  0  0  0
   24.6009  -20.3516  -17.4632 O   0  0  0  0  0  0  0  0  0  0  0  0
   21.9347  -21.4665  -12.0478 N   0  0  0  0  0  0  0  0  0  0  0  0
   20.8166  -21.4862  -12.9656 C   0  0  0  0  0  0  0  0  0  0  0  0
   19.7677  -21.9913  -12.4932 O   0  0  0  0  0  0  0  0  0  0  0  0
   20.9698  -20.9407  -14.3286 C   0  0  0  0  0  0  0  0  0  0  0  0
   22.3461  -20.4442  -14.5979 C   0  0  0  0  0  0  0  0  0  0  0  0
   22.3849  -19.3018  -15.5425 C   0  0  2  0  0  0  0  0  0  0  0  0
   23.7779  -18.9388  -15.8437 N   0  0  0  0  0  0  0  0  0  0  0  0
   21.6403  -18.1530  -15.0338 C   0  0  0  0  0  0  0  0  0  0  0  0
   20.3367  -17.8409  -15.4790 O   0  0  0  0  0  0  0  0  0  0  0  0
   22.0771  -17.3433  -14.1647 O   0  0  0  0  0  0  0  0  0  0  0  0
  2  1  1  1
  3  2  1  0
  4  3  1  0
  4  5  1  0
  6  5  1  0
  6  7  1  0
  8  2  1  0
  9  8  2  0
 10  8  1  0
 11 10  1  0
 11 12  1  0
 13 12  1  0
 14 10  1  0
 14 13  1  0
 14 15  1  6
 16 15  2  0
 17 18  1  0
 18 19  2  0
 20 18  1  0
 20 21  1  0
 22 21  1  1
 22 23  1  0
 23 15  1  0
 24 22  1  0
 24 25  1  0
 26 24  2  0
M  END
$$$$
