KPQ.pdb
     RDKit          3D

 26 26  0  0  1  0  0  0  0  0999 V2000
   22.8710  -34.7122  -12.1221 N   0  0  0  0  0  0  0  0  0  0  0  0
   23.7953  -33.6523  -11.5822 C   0  0  1  0  0  0  0  0  0  0  0  0
   23.0653  -32.3898  -11.7986 C   0  0  0  0  0  0  0  0  0  0  0  0
   22.9624  -31.7726  -13.1256 C   0  0  0  0  0  0  0  0  0  0  0  0
   21.6520  -31.7251  -13.8156 C   0  0  0  0  0  0  0  0  0  0  0  0
   21.7475  -31.1273  -15.2133 C   0  0  0  0  0  0  0  0  0  0  0  0
   20.4723  -31.0037  -15.8399 N   0  0  0  0  0  0  0  0  0  0  0  0
   24.1300  -34.0911  -10.2528 C   0  0  0  0  0  0  0  0  0  0  0  0
   23.2809  -34.7299   -9.5590 O   0  0  0  0  0  0  0  0  0  0  0  0
   25.4033  -33.8741   -9.5849 N   0  0  0  0  0  0  0  0  0  0  0  0
   26.4834  -33.0954  -10.1380 C   0  0  0  0  0  0  0  0  0  0  0  0
   27.7034  -33.4383   -9.3155 C   0  0  0  0  0  0  0  0  0  0  0  0
   27.2882  -34.6245   -8.4660 C   0  0  0  0  0  0  0  0  0  0  0  0
   25.8141  -34.3740   -8.3214 C   0  0  1  0  0  0  0  0  0  0  0  0
   25.4242  -33.5911   -7.1495 C   0  0  0  0  0  0  0  0  0  0  0  0
   25.4406  -32.3383   -7.2229 O   0  0  0  0  0  0  0  0  0  0  0  0
   23.4954  -35.7698   -1.6307 N   0  0  0  0  0  0  0  0  0  0  0  0
   22.9611  -34.4256   -1.6068 C   0  0  0  0  0  0  0  0  0  0  0  0
   22.4549  -34.0890   -0.5072 O   0  0  0  0  0  0  0  0  0  0  0  0
   23.0393  -33.5778   -2.8126 C   0  0  0  0  0  0  0  0  0  0  0  0
   23.6147  -34.2941   -3.9827 C   0  0  0  0  0  0  0  0  0  0  0  0
   24.6019  -33.4867   -4.7393 C   0  0  2  0  0  0  0  0  0  0  0  0
   25.0300  -34.2088   -5.9468 N   0  0  0  0  0  0  0  0  0  0  0  0
   25.7480  -33.1186   -3.9124 C   0  0  0  0  0  0  0  0  0  0  0  0
   27.0281  -33.6848   -4.1014 O   0  0  0  0  0  0  0  0  0  0  0  0
   25.7102  -32.2764   -2.9685 O   0  0  0  0  0  0  0  0  0  0  0  0
  2  1  1  1
  3  2  1  0
  4  3  1  0
  4  5  1  0
  6  5  1  0
  6  7  1  0
  8  2  1  0
  9  8  2  0
 10  8  1  0
 11 10  1  0
 11 12  1  0
 13 12  1  0
 14 10  1  0
 14 13  1  0
 14 15  1  1
 16 15  2  0
 17 18  1  0
 18 19  2  0
 20 18  1  0
 20 21  1  0
 22 21  1  1
 22 23  1  0
 23 15  1  0
 24 22  1  0
 24 25  1  0
 26 24  2  0
M  END
$$$$
