KPQ.pdb
     RDKit          3D

 26 26  0  0  1  0  0  0  0  0999 V2000
   21.6845  -17.7983  -14.6178 N   0  0  0  0  0  0  0  0  0  0  0  0
   22.3257  -17.1607  -15.8226 C   0  0  1  0  0  0  0  0  0  0  0  0
   21.3445  -17.3614  -16.9045 C   0  0  0  0  0  0  0  0  0  0  0  0
   21.3616  -18.5581  -17.7530 C   0  0  0  0  0  0  0  0  0  0  0  0
   20.1225  -19.3503  -17.9332 C   0  0  0  0  0  0  0  0  0  0  0  0
   20.3203  -20.5450  -18.8571 C   0  0  0  0  0  0  0  0  0  0  0  0
   19.1265  -21.3075  -19.0231 N   0  0  0  0  0  0  0  0  0  0  0  0
   22.6891  -15.8354  -15.3942 C   0  0  0  0  0  0  0  0  0  0  0  0
   22.0032  -15.2410  -14.5072 O   0  0  0  0  0  0  0  0  0  0  0  0
   23.8180  -15.0648  -15.8905 N   0  0  0  0  0  0  0  0  0  0  0  0
   24.8020  -15.5755  -16.8123 C   0  0  0  0  0  0  0  0  0  0  0  0
   25.9588  -14.6051  -16.7613 C   0  0  0  0  0  0  0  0  0  0  0  0
   25.6616  -13.6956  -15.5843 C   0  0  0  0  0  0  0  0  0  0  0  0
   24.1599  -13.7252  -15.5687 C   0  0  1  0  0  0  0  0  0  0  0  0
   23.5050  -12.6768  -16.3499 C   0  0  0  0  0  0  0  0  0  0  0  0
   23.0429  -12.9614  -17.4817 O   0  0  0  0  0  0  0  0  0  0  0  0
   22.1937   -7.0136  -13.8297 N   0  0  0  0  0  0  0  0  0  0  0  0
   21.5248   -8.2515  -13.4932 C   0  0  0  0  0  0  0  0  0  0  0  0
   20.8814   -8.2159  -12.4146 O   0  0  0  0  0  0  0  0  0  0  0  0
   21.6346   -9.4182  -14.3907 C   0  0  0  0  0  0  0  0  0  0  0  0
   22.4545   -9.1382  -15.6001 C   0  0  0  0  0  0  0  0  0  0  0  0
   22.5844  -10.3051  -16.5057 C   0  0  2  0  0  0  0  0  0  0  0  0
   23.3793  -11.3618  -15.8618 N   0  0  0  0  0  0  0  0  0  0  0  0
   23.1567   -9.9287  -17.7955 C   0  0  0  0  0  0  0  0  0  0  0  0
   24.4113  -10.4072  -18.2334 O   0  0  0  0  0  0  0  0  0  0  0  0
   22.5995   -9.1565  -18.6292 O   0  0  0  0  0  0  0  0  0  0  0  0
  2  1  1  1
  3  2  1  0
  4  3  1  0
  4  5  1  0
  6  5  1  0
  6  7  1  0
  8  2  1  0
  9  8  2  0
 10  8  1  0
 11 10  1  0
 11 12  1  0
 13 12  1  0
 14 10  1  0
 14 13  1  0
 14 15  1  6
 16 15  2  0
 17 18  1  0
 18 19  2  0
 20 18  1  0
 20 21  1  0
 22 21  1  1
 22 23  1  0
 23 15  1  0
 24 22  1  0
 24 25  1  0
 26 24  2  0
M  END
$$$$
