KPQ.pdb
     RDKit          3D

 26 26  0  0  1  0  0  0  0  0999 V2000
   23.6234  -15.2615  -16.6974 N   0  0  0  0  0  0  0  0  0  0  0  0
   23.6838  -13.8810  -17.2975 C   0  0  1  0  0  0  0  0  0  0  0  0
   22.7235  -13.9290  -18.4151 C   0  0  0  0  0  0  0  0  0  0  0  0
   22.8871  -14.8600  -19.5372 C   0  0  0  0  0  0  0  0  0  0  0  0
   21.9662  -14.7858  -20.6955 C   0  0  0  0  0  0  0  0  0  0  0  0
   22.2021  -15.9027  -21.7038 C   0  0  0  0  0  0  0  0  0  0  0  0
   21.2955  -15.8431  -22.8032 N   0  0  0  0  0  0  0  0  0  0  0  0
   23.4814  -12.9838  -16.1904 C   0  0  0  0  0  0  0  0  0  0  0  0
   22.6231  -13.2570  -15.2963 O   0  0  0  0  0  0  0  0  0  0  0  0
   24.1933  -11.7349  -15.9713 N   0  0  0  0  0  0  0  0  0  0  0  0
   25.2326  -11.2349  -16.8367 C   0  0  0  0  0  0  0  0  0  0  0  0
   25.9312  -10.1458  -16.0568 C   0  0  0  0  0  0  0  0  0  0  0  0
   25.3897  -10.2600  -14.6444 C   0  0  0  0  0  0  0  0  0  0  0  0
   24.0182  -10.8144  -14.9051 C   0  0  1  0  0  0  0  0  0  0  0  0
   22.9607   -9.8176  -15.0679 C   0  0  0  0  0  0  0  0  0  0  0  0
   22.6976   -9.3936  -16.2196 O   0  0  0  0  0  0  0  0  0  0  0  0
   18.2321   -9.9042  -11.0424 N   0  0  0  0  0  0  0  0  0  0  0  0
   17.7979   -8.8716  -11.9580 C   0  0  0  0  0  0  0  0  0  0  0  0
   16.6230   -8.4700  -11.7662 O   0  0  0  0  0  0  0  0  0  0  0  0
   18.7142   -8.3804  -13.0059 C   0  0  0  0  0  0  0  0  0  0  0  0
   20.0248   -9.0844  -12.9999 C   0  0  0  0  0  0  0  0  0  0  0  0
   20.9465   -8.6205  -14.0648 C   0  0  2  0  0  0  0  0  0  0  0  0
   22.2326   -9.3271  -13.9668 N   0  0  0  0  0  0  0  0  0  0  0  0
   21.1371   -7.1732  -14.0235 C   0  0  0  0  0  0  0  0  0  0  0  0
   20.2208   -6.2739  -14.6122 O   0  0  0  0  0  0  0  0  0  0  0  0
   22.1168   -6.5946  -13.4694 O   0  0  0  0  0  0  0  0  0  0  0  0
  2  1  1  1
  3  2  1  0
  4  3  1  0
  4  5  1  0
  6  5  1  0
  6  7  1  0
  8  2  1  0
  9  8  2  0
 10  8  1  0
 11 10  1  0
 11 12  1  0
 13 12  1  0
 14 10  1  0
 14 13  1  0
 14 15  1  6
 16 15  2  0
 17 18  1  0
 18 19  2  0
 20 18  1  0
 20 21  1  0
 22 21  1  1
 22 23  1  0
 23 15  1  0
 24 22  1  0
 24 25  1  0
 26 24  2  0
M  END
$$$$
