KPQ.pdb
     RDKit          3D

 26 26  0  0  1  0  0  0  0  0999 V2000
   28.2686  -20.4820  -18.8334 N   0  0  0  0  0  0  0  0  0  0  0  0
   27.8393  -19.5264  -17.7509 C   0  0  1  0  0  0  0  0  0  0  0  0
   27.2765  -18.3774  -18.4834 C   0  0  0  0  0  0  0  0  0  0  0  0
   28.0851  -17.5804  -19.4127 C   0  0  0  0  0  0  0  0  0  0  0  0
   28.5643  -16.2384  -19.0067 C   0  0  0  0  0  0  0  0  0  0  0  0
   29.3107  -15.5204  -20.1235 C   0  0  0  0  0  0  0  0  0  0  0  0
   28.4348  -14.7934  -20.9828 N   0  0  0  0  0  0  0  0  0  0  0  0
   27.0177  -20.3099  -16.8660 C   0  0  0  0  0  0  0  0  0  0  0  0
   26.3636  -21.3012  -17.3131 O   0  0  0  0  0  0  0  0  0  0  0  0
   26.8500  -20.0793  -15.4401 N   0  0  0  0  0  0  0  0  0  0  0  0
   27.4704  -18.9961  -14.7184 C   0  0  0  0  0  0  0  0  0  0  0  0
   27.3393  -19.3464  -13.2546 C   0  0  0  0  0  0  0  0  0  0  0  0
   26.8532  -20.7832  -13.2328 C   0  0  0  0  0  0  0  0  0  0  0  0
   26.0866  -20.8480  -14.5229 C   0  0  1  0  0  0  0  0  0  0  0  0
   24.6640  -20.5244  -14.4227 C   0  0  0  0  0  0  0  0  0  0  0  0
   24.3029  -19.3287  -14.5460 O   0  0  0  0  0  0  0  0  0  0  0  0
   20.1580  -24.9329  -15.0614 N   0  0  0  0  0  0  0  0  0  0  0  0
   19.3835  -23.7260  -14.8703 C   0  0  0  0  0  0  0  0  0  0  0  0
   18.1396  -23.8954  -14.9216 O   0  0  0  0  0  0  0  0  0  0  0  0
   20.0670  -22.4382  -14.6395 C   0  0  0  0  0  0  0  0  0  0  0  0
   21.5444  -22.5813  -14.5390 C   0  0  0  0  0  0  0  0  0  0  0  0
   22.2419  -21.3019  -14.2644 C   0  0  2  0  0  0  0  0  0  0  0  0
   23.6946  -21.5201  -14.1946 N   0  0  0  0  0  0  0  0  0  0  0  0
   21.7466  -20.6656  -13.0467 C   0  0  0  0  0  0  0  0  0  0  0  0
   20.6631  -19.7596  -13.0554 O   0  0  0  0  0  0  0  0  0  0  0  0
   22.2258  -20.8581  -11.8913 O   0  0  0  0  0  0  0  0  0  0  0  0
  2  1  1  6
  3  2  1  0
  4  3  1  0
  4  5  1  0
  6  5  1  0
  6  7  1  0
  8  2  1  0
  9  8  2  0
 10  8  1  0
 11 10  1  0
 11 12  1  0
 13 12  1  0
 14 10  1  0
 14 13  1  0
 14 15  1  1
 16 15  2  0
 17 18  1  0
 18 19  2  0
 20 18  1  0
 20 21  1  0
 22 21  1  1
 22 23  1  0
 23 15  1  0
 24 22  1  0
 24 25  1  0
 26 24  2  0
M  END
$$$$
