NCW.pdb
     RDKit          3D

 29 30  0  0  1  0  0  0  0  0999 V2000
   28.2596  -22.1949  -18.2018 N   0  0  0  0  0  0  0  0  0  0  0  0
   28.8244  -21.3782  -17.1839 C   0  0  0  0  0  0  0  0  0  0  0  0
   30.0779  -21.3611  -17.0901 O   0  0  0  0  0  0  0  0  0  0  0  0
   28.0460  -20.5631  -16.2459 C   0  0  0  0  0  0  0  0  0  0  0  0
   26.5638  -20.8560  -16.3056 C   0  0  2  0  0  0  0  0  0  0  0  0
   25.9921  -20.1578  -17.4482 N   0  0  0  0  0  0  0  0  0  0  0  0
   25.9658  -20.2433  -15.0764 C   0  0  0  0  0  0  0  0  0  0  0  0
   25.9616  -18.9905  -14.8842 O   0  0  0  0  0  0  0  0  0  0  0  0
   25.3697  -21.0371  -14.0582 N   0  0  0  0  0  0  0  0  0  0  0  0
   24.6270  -20.4041  -12.9471 C   0  0  1  0  0  0  0  0  0  0  0  0
   23.1405  -20.6177  -13.1698 C   0  0  0  0  0  0  0  0  0  0  0  0
   22.1928  -20.4294  -11.6650 S   0  0  0  0  0  0  0  0  0  0  0  0
   25.1291  -20.9315  -11.6790 C   0  0  0  0  0  0  0  0  0  0  0  0
   25.3501  -22.1918  -11.5853 O   0  0  0  0  0  0  0  0  0  0  0  0
   25.4035  -20.1899  -10.5259 N   0  0  0  0  0  0  0  0  0  0  0  0
   25.6997  -20.8309   -9.2285 C   0  0  1  0  0  0  0  0  0  0  0  0
   26.7562  -20.0290   -8.5524 C   0  0  0  0  0  0  0  0  0  0  0  0
   27.0533  -20.3973   -7.1624 C   0  0  0  0  0  0  0  0  0  0  0  0
   26.5879  -21.5673   -6.5532 C   0  0  0  0  0  0  0  0  0  0  0  0
   27.0602  -21.6136   -5.3027 N   0  0  0  0  0  0  0  0  0  0  0  0
   27.8118  -20.5386   -5.0505 C   0  0  0  0  0  0  0  0  0  0  0  0
   28.4852  -20.1592   -3.9206 C   0  0  0  0  0  0  0  0  0  0  0  0
   29.1830  -18.9739   -3.9444 C   0  0  0  0  0  0  0  0  0  0  0  0
   29.1876  -18.2102   -5.0837 C   0  0  0  0  0  0  0  0  0  0  0  0
   28.5150  -18.5815   -6.2247 C   0  0  0  0  0  0  0  0  0  0  0  0
   27.8091  -19.7788   -6.2064 C   0  0  0  0  0  0  0  0  0  0  0  0
   24.4934  -21.1400   -8.4713 C   0  0  0  0  0  0  0  0  0  0  0  0
   23.3190  -20.4129   -8.4892 O   0  0  0  0  0  0  0  0  0  0  0  0
   24.5076  -22.1672   -7.7175 O   0  0  0  0  0  0  0  0  0  0  0  0
  1  2  1  0
  2  4  1  0
  3  2  2  0
  4  5  1  0
  5  6  1  6
  7  8  2  0
  7  5  1  0
  9  7  1  0
 10 11  1  6
 10  9  1  0
 11 12  1  0
 13 10  1  0
 14 13  2  0
 15 13  1  0
 16 15  1  0
 16 17  1  1
 18 17  1  0
 19 18  2  0
 20 19  1  0
 21 20  1  0
 21 26  2  0
 22 23  2  0
 22 21  1  0
 23 24  1  0
 24 25  2  0
 26 25  1  0
 26 18  1  0
 27 16  1  0
 27 28  1  0
 29 27  2  0
M  END
$$$$
