NCW.pdb
     RDKit          3D

 29 30  0  0  1  0  0  0  0  0999 V2000
   31.7202  -24.4888  -19.6645 N   0  0  0  0  0  0  0  0  0  0  0  0
   30.6703  -25.2396  -20.2613 C   0  0  0  0  0  0  0  0  0  0  0  0
   29.6208  -24.6184  -20.5663 O   0  0  0  0  0  0  0  0  0  0  0  0
   30.7329  -26.6777  -20.5408 C   0  0  0  0  0  0  0  0  0  0  0  0
   32.0284  -27.3078  -20.0815 C   0  0  2  0  0  0  0  0  0  0  0  0
   33.0700  -27.0021  -21.0517 N   0  0  0  0  0  0  0  0  0  0  0  0
   31.8124  -28.7895  -20.1261 C   0  0  0  0  0  0  0  0  0  0  0  0
   32.5338  -29.5525  -20.8359 O   0  0  0  0  0  0  0  0  0  0  0  0
   30.7843  -29.4194  -19.3722 N   0  0  0  0  0  0  0  0  0  0  0  0
   30.9511  -30.8039  -18.8801 C   0  0  1  0  0  0  0  0  0  0  0  0
   32.2741  -30.9031  -18.1419 C   0  0  0  0  0  0  0  0  0  0  0  0
   32.6231  -32.5683  -17.5910 S   0  0  0  0  0  0  0  0  0  0  0  0
   29.7837  -31.1665  -18.0775 C   0  0  0  0  0  0  0  0  0  0  0  0
   29.6870  -32.3717  -17.6483 O   0  0  0  0  0  0  0  0  0  0  0  0
   28.7330  -30.3179  -17.7161 N   0  0  0  0  0  0  0  0  0  0  0  0
   27.6739  -30.7321  -16.7735 C   0  0  1  0  0  0  0  0  0  0  0  0
   27.5819  -29.6990  -15.7055 C   0  0  0  0  0  0  0  0  0  0  0  0
   27.2578  -28.3384  -16.1524 C   0  0  0  0  0  0  0  0  0  0  0  0
   25.9544  -27.8892  -16.3893 C   0  0  0  0  0  0  0  0  0  0  0  0
   26.0064  -26.6032  -16.7532 N   0  0  0  0  0  0  0  0  0  0  0  0
   27.2721  -26.1767  -16.7708 C   0  0  0  0  0  0  0  0  0  0  0  0
   27.8032  -24.9544  -17.0840 C   0  0  0  0  0  0  0  0  0  0  0  0
   29.1690  -24.8020  -17.0235 C   0  0  0  0  0  0  0  0  0  0  0  0
   29.9561  -25.8635  -16.6561 C   0  0  0  0  0  0  0  0  0  0  0  0
   29.4336  -27.0958  -16.3391 C   0  0  0  0  0  0  0  0  0  0  0  0
   28.0540  -27.2551  -16.3977 C   0  0  0  0  0  0  0  0  0  0  0  0
   26.4434  -31.1179  -17.4524 C   0  0  0  0  0  0  0  0  0  0  0  0
   26.1067  -30.8057  -18.7552 O   0  0  0  0  0  0  0  0  0  0  0  0
   25.5892  -31.8013  -16.7990 O   0  0  0  0  0  0  0  0  0  0  0  0
  1  2  1  0
  2  4  1  0
  3  2  2  0
  4  5  1  0
  5  6  1  6
  7  8  2  0
  7  5  1  0
  9  7  1  0
 10 11  1  1
 10  9  1  0
 11 12  1  0
 13 10  1  0
 14 13  2  0
 15 13  1  0
 16 15  1  0
 16 17  1  1
 18 17  1  0
 19 18  2  0
 20 19  1  0
 21 20  1  0
 21 26  2  0
 22 23  2  0
 22 21  1  0
 23 24  1  0
 24 25  2  0
 26 25  1  0
 26 18  1  0
 27 16  1  0
 27 28  1  0
 29 27  2  0
M  END
$$$$
