NCW.pdb
     RDKit          3D

 29 30  0  0  1  0  0  0  0  0999 V2000
   16.1069  -12.3780  -19.6682 N   0  0  0  0  0  0  0  0  0  0  0  0
   15.9982  -13.2598  -18.5579 C   0  0  0  0  0  0  0  0  0  0  0  0
   15.6371  -14.4404  -18.7947 O   0  0  0  0  0  0  0  0  0  0  0  0
   16.2776  -12.8838  -17.1685 C   0  0  0  0  0  0  0  0  0  0  0  0
   16.7139  -11.4429  -17.0279 C   0  0  2  0  0  0  0  0  0  0  0  0
   18.1202  -11.3398  -17.3905 N   0  0  0  0  0  0  0  0  0  0  0  0
   16.6145  -11.1154  -15.5696 C   0  0  0  0  0  0  0  0  0  0  0  0
   16.4888  -12.0154  -14.6860 O   0  0  0  0  0  0  0  0  0  0  0  0
   16.6563   -9.7743  -15.0987 N   0  0  0  0  0  0  0  0  0  0  0  0
   16.9403   -9.4833  -13.6770 C   0  0  1  0  0  0  0  0  0  0  0  0
   18.3077  -10.0433  -13.3282 C   0  0  0  0  0  0  0  0  0  0  0  0
   18.8580   -9.5341  -11.7046 S   0  0  0  0  0  0  0  0  0  0  0  0
   16.8013   -8.0454  -13.4495 C   0  0  0  0  0  0  0  0  0  0  0  0
   17.4312   -7.2398  -14.2243 O   0  0  0  0  0  0  0  0  0  0  0  0
   16.0335   -7.4366  -12.4523 N   0  0  0  0  0  0  0  0  0  0  0  0
   15.9372   -5.9689  -12.3174 C   0  0  1  0  0  0  0  0  0  0  0  0
   14.7986   -5.6665  -11.4072 C   0  0  0  0  0  0  0  0  0  0  0  0
   14.8493   -6.2961  -10.0817 C   0  0  0  0  0  0  0  0  0  0  0  0
   15.9957   -6.3274   -9.2808 C   0  0  0  0  0  0  0  0  0  0  0  0
   15.6968   -6.9451   -8.1327 N   0  0  0  0  0  0  0  0  0  0  0  0
   14.4162   -7.3249   -8.1299 C   0  0  0  0  0  0  0  0  0  0  0  0
   13.6781   -7.9862   -7.1854 C   0  0  0  0  0  0  0  0  0  0  0  0
   12.3583   -8.2581   -7.4619 C   0  0  0  0  0  0  0  0  0  0  0  0
   11.8200   -7.8659   -8.6610 C   0  0  0  0  0  0  0  0  0  0  0  0
   12.5518   -7.2008   -9.6171 C   0  0  0  0  0  0  0  0  0  0  0  0
   13.8857   -6.9226   -9.3424 C   0  0  0  0  0  0  0  0  0  0  0  0
   17.2239   -5.3507  -12.0232 C   0  0  0  0  0  0  0  0  0  0  0  0
   17.5352   -4.0148  -12.1865 O   0  0  0  0  0  0  0  0  0  0  0  0
   18.1572   -6.0955  -11.5786 O   0  0  0  0  0  0  0  0  0  0  0  0
  1  2  1  0
  2  4  1  0
  3  2  2  0
  4  5  1  0
  5  6  1  1
  7  8  2  0
  7  5  1  0
  9  7  1  0
 10 11  1  6
 10  9  1  0
 11 12  1  0
 13 10  1  0
 14 13  2  0
 15 13  1  0
 16 15  1  0
 16 17  1  1
 18 17  1  0
 19 18  2  0
 20 19  1  0
 21 20  1  0
 21 26  2  0
 22 23  2  0
 22 21  1  0
 23 24  1  0
 24 25  2  0
 26 25  1  0
 26 18  1  0
 27 16  1  0
 27 28  1  0
 29 27  2  0
M  END
$$$$
