NCW.pdb
     RDKit          3D

 29 30  0  0  1  0  0  0  0  0999 V2000
   30.5836  -20.0048  -20.2529 N   0  0  0  0  0  0  0  0  0  0  0  0
   31.0670  -18.9519  -19.4285 C   0  0  0  0  0  0  0  0  0  0  0  0
   32.1532  -18.4136  -19.7614 O   0  0  0  0  0  0  0  0  0  0  0  0
   30.3865  -18.4588  -18.2269 C   0  0  0  0  0  0  0  0  0  0  0  0
   29.1545  -19.2636  -17.8796 C   0  0  2  0  0  0  0  0  0  0  0  0
   28.0485  -18.8136  -18.7127 N   0  0  0  0  0  0  0  0  0  0  0  0
   28.8076  -18.9096  -16.4659 C   0  0  0  0  0  0  0  0  0  0  0  0
   29.3399  -17.9258  -15.8698 O   0  0  0  0  0  0  0  0  0  0  0  0
   27.8604  -19.6604  -15.7168 N   0  0  0  0  0  0  0  0  0  0  0  0
   27.3697  -19.1667  -14.4122 C   0  0  1  0  0  0  0  0  0  0  0  0
   26.3469  -18.0720  -14.6582 C   0  0  0  0  0  0  0  0  0  0  0  0
   24.9101  -18.6685  -15.5403 S   0  0  0  0  0  0  0  0  0  0  0  0
   26.8668  -20.2987  -13.6347 C   0  0  0  0  0  0  0  0  0  0  0  0
   26.4513  -21.3366  -14.2642 O   0  0  0  0  0  0  0  0  0  0  0  0
   26.7890  -20.3748  -12.2409 N   0  0  0  0  0  0  0  0  0  0  0  0
   26.0786  -21.4700  -11.5498 C   0  0  1  0  0  0  0  0  0  0  0  0
   26.8784  -21.8513  -10.3534 C   0  0  0  0  0  0  0  0  0  0  0  0
   26.9199  -20.8655   -9.2660 C   0  0  0  0  0  0  0  0  0  0  0  0
   25.9523  -19.8723   -9.0815 C   0  0  0  0  0  0  0  0  0  0  0  0
   26.2694  -19.1657   -7.9910 N   0  0  0  0  0  0  0  0  0  0  0  0
   27.3937  -19.6359   -7.4441 C   0  0  0  0  0  0  0  0  0  0  0  0
   28.0919  -19.2305   -6.3385 C   0  0  0  0  0  0  0  0  0  0  0  0
   29.2438  -19.9072   -6.0104 C   0  0  0  0  0  0  0  0  0  0  0  0
   29.6603  -20.9576   -6.7878 C   0  0  0  0  0  0  0  0  0  0  0  0
   28.9669  -21.3738   -7.9005 C   0  0  0  0  0  0  0  0  0  0  0  0
   27.8017  -20.6942   -8.2361 C   0  0  0  0  0  0  0  0  0  0  0  0
   24.6632  -21.1814  -11.3562 C   0  0  0  0  0  0  0  0  0  0  0  0
   23.6859  -22.1043  -11.0380 O   0  0  0  0  0  0  0  0  0  0  0  0
   24.2750  -19.9755  -11.4926 O   0  0  0  0  0  0  0  0  0  0  0  0
  1  2  1  0
  2  4  1  0
  3  2  2  0
  4  5  1  0
  5  6  1  6
  7  8  2  0
  7  5  1  0
  9  7  1  0
 10 11  1  6
 10  9  1  0
 11 12  1  0
 13 10  1  0
 14 13  2  0
 15 13  1  0
 16 15  1  0
 16 17  1  1
 18 17  1  0
 19 18  2  0
 20 19  1  0
 21 20  1  0
 21 26  2  0
 22 23  2  0
 22 21  1  0
 23 24  1  0
 24 25  2  0
 26 25  1  0
 26 18  1  0
 27 16  1  0
 27 28  1  0
 29 27  2  0
M  END
$$$$
