NCW.pdb
     RDKit          3D

 29 30  0  0  1  0  0  0  0  0999 V2000
   34.7586  -20.7201  -20.1245 N   0  0  0  0  0  0  0  0  0  0  0  0
   33.5182  -21.3493  -20.4206 C   0  0  0  0  0  0  0  0  0  0  0  0
   32.7221  -20.7271  -21.1685 O   0  0  0  0  0  0  0  0  0  0  0  0
   33.1124  -22.6642  -19.9143 C   0  0  0  0  0  0  0  0  0  0  0  0
   34.0900  -23.2327  -18.9106 C   0  0  2  0  0  0  0  0  0  0  0  0
   35.2135  -23.8182  -19.6281 N   0  0  0  0  0  0  0  0  0  0  0  0
   33.3782  -24.3571  -18.2229 C   0  0  0  0  0  0  0  0  0  0  0  0
   33.1509  -25.4619  -18.8012 O   0  0  0  0  0  0  0  0  0  0  0  0
   32.9191  -24.2439  -16.8819 N   0  0  0  0  0  0  0  0  0  0  0  0
   32.3614  -25.4168  -16.1747 C   0  0  1  0  0  0  0  0  0  0  0  0
   32.8963  -25.4296  -14.7540 C   0  0  0  0  0  0  0  0  0  0  0  0
   34.5865  -26.0075  -14.6681 S   0  0  0  0  0  0  0  0  0  0  0  0
   30.9026  -25.3793  -16.2700 C   0  0  0  0  0  0  0  0  0  0  0  0
   30.2973  -24.2909  -15.9616 O   0  0  0  0  0  0  0  0  0  0  0  0
   30.0732  -26.4300  -16.6735 N   0  0  0  0  0  0  0  0  0  0  0  0
   28.6110  -26.2718  -16.8108 C   0  0  1  0  0  0  0  0  0  0  0  0
   28.3553  -25.0108  -17.5597 C   0  0  0  0  0  0  0  0  0  0  0  0
   26.9701  -24.7894  -17.9935 C   0  0  0  0  0  0  0  0  0  0  0  0
   26.6238  -24.2066  -19.2170 C   0  0  0  0  0  0  0  0  0  0  0  0
   25.2900  -24.1787  -19.3135 N   0  0  0  0  0  0  0  0  0  0  0  0
   24.7346  -24.7103  -18.2212 C   0  0  0  0  0  0  0  0  0  0  0  0
   23.4213  -24.8861  -17.8769 C   0  0  0  0  0  0  0  0  0  0  0  0
   23.1377  -25.4640  -16.6612 C   0  0  0  0  0  0  0  0  0  0  0  0
   24.1629  -25.8451  -15.8336 C   0  0  0  0  0  0  0  0  0  0  0  0
   25.4858  -25.6737  -16.1692 C   0  0  0  0  0  0  0  0  0  0  0  0
   25.7781  -25.0911  -17.3969 C   0  0  0  0  0  0  0  0  0  0  0  0
   27.9612  -27.4869  -17.2857 C   0  0  0  0  0  0  0  0  0  0  0  0
   26.7916  -28.0263  -16.7865 O   0  0  0  0  0  0  0  0  0  0  0  0
   28.5099  -28.1228  -18.2438 O   0  0  0  0  0  0  0  0  0  0  0  0
  1  2  1  0
  2  4  1  0
  3  2  2  0
  4  5  1  0
  5  6  1  6
  7  8  2  0
  7  5  1  0
  9  7  1  0
 10 11  1  1
 10  9  1  0
 11 12  1  0
 13 10  1  0
 14 13  2  0
 15 13  1  0
 16 15  1  0
 16 17  1  6
 18 17  1  0
 19 18  2  0
 20 19  1  0
 21 20  1  0
 21 26  2  0
 22 23  2  0
 22 21  1  0
 23 24  1  0
 24 25  2  0
 26 25  1  0
 26 18  1  0
 27 16  1  0
 27 28  1  0
 29 27  2  0
M  END
$$$$
