NCW.pdb
     RDKit          3D

 29 30  0  0  1  0  0  0  0  0999 V2000
   31.3949  -23.9991  -19.8629 N   0  0  0  0  0  0  0  0  0  0  0  0
   30.2599  -23.4853  -19.1774 C   0  0  0  0  0  0  0  0  0  0  0  0
   29.1584  -24.0558  -19.3810 O   0  0  0  0  0  0  0  0  0  0  0  0
   30.2920  -22.3438  -18.2575 C   0  0  0  0  0  0  0  0  0  0  0  0
   28.9464  -21.6693  -18.1139 C   0  0  2  0  0  0  0  0  0  0  0  0
   28.8102  -20.6643  -19.1585 N   0  0  0  0  0  0  0  0  0  0  0  0
   28.9818  -20.9379  -16.8071 C   0  0  0  0  0  0  0  0  0  0  0  0
   29.8487  -20.0472  -16.5590 O   0  0  0  0  0  0  0  0  0  0  0  0
   28.0421  -21.2049  -15.7737 N   0  0  0  0  0  0  0  0  0  0  0  0
   27.9456  -20.3172  -14.5950 C   0  0  1  0  0  0  0  0  0  0  0  0
   27.7983  -18.8842  -15.0744 C   0  0  0  0  0  0  0  0  0  0  0  0
   27.0799  -17.8203  -13.8292 S   0  0  0  0  0  0  0  0  0  0  0  0
   26.8554  -20.7820  -13.7384 C   0  0  0  0  0  0  0  0  0  0  0  0
   25.7132  -21.0150  -14.2742 O   0  0  0  0  0  0  0  0  0  0  0  0
   26.9256  -21.0078  -12.3604 N   0  0  0  0  0  0  0  0  0  0  0  0
   25.7937  -21.5690  -11.5950 C   0  0  1  0  0  0  0  0  0  0  0  0
   26.3275  -22.0980  -10.3099 C   0  0  0  0  0  0  0  0  0  0  0  0
   26.5737  -21.1043   -9.2574 C   0  0  0  0  0  0  0  0  0  0  0  0
   25.6471  -20.1260   -8.8816 C   0  0  0  0  0  0  0  0  0  0  0  0
   26.1685  -19.4069   -7.8816 N   0  0  0  0  0  0  0  0  0  0  0  0
   27.3891  -19.8547   -7.5753 C   0  0  0  0  0  0  0  0  0  0  0  0
   28.2918  -19.4303   -6.6377 C   0  0  0  0  0  0  0  0  0  0  0  0
   29.4982  -20.0856   -6.5504 C   0  0  0  0  0  0  0  0  0  0  0  0
   29.7650  -21.1342   -7.3933 C   0  0  0  0  0  0  0  0  0  0  0  0
   28.8656  -21.5694   -8.3388 C   0  0  0  0  0  0  0  0  0  0  0  0
   27.6447  -20.9114   -8.4306 C   0  0  0  0  0  0  0  0  0  0  0  0
   24.6565  -20.6594  -11.5344 C   0  0  0  0  0  0  0  0  0  0  0  0
   23.3519  -21.0138  -11.2504 O   0  0  0  0  0  0  0  0  0  0  0  0
   24.8662  -19.4240  -11.7652 O   0  0  0  0  0  0  0  0  0  0  0  0
  1  2  1  0
  2  4  1  0
  3  2  2  0
  4  5  1  0
  5  6  1  6
  7  8  2  0
  7  5  1  0
  9  7  1  0
 10 11  1  6
 10  9  1  0
 11 12  1  0
 13 10  1  0
 14 13  2  0
 15 13  1  0
 16 15  1  0
 16 17  1  1
 18 17  1  0
 19 18  2  0
 20 19  1  0
 21 20  1  0
 21 26  2  0
 22 23  2  0
 22 21  1  0
 23 24  1  0
 24 25  2  0
 26 25  1  0
 26 18  1  0
 27 16  1  0
 27 28  1  0
 29 27  2  0
M  END
$$$$
