NCW.pdb
     RDKit          3D

 29 30  0  0  1  0  0  0  0  0999 V2000
   30.8703  -19.7759  -18.9513 N   0  0  0  0  0  0  0  0  0  0  0  0
   30.1349  -18.5601  -19.0072 C   0  0  0  0  0  0  0  0  0  0  0  0
   30.2975  -17.8360  -20.0219 O   0  0  0  0  0  0  0  0  0  0  0  0
   29.2084  -18.1016  -17.9673 C   0  0  0  0  0  0  0  0  0  0  0  0
   29.1307  -19.0500  -16.7923 C   0  0  2  0  0  0  0  0  0  0  0  0
   28.4231  -20.2535  -17.2053 N   0  0  0  0  0  0  0  0  0  0  0  0
   28.2771  -18.3737  -15.7637 C   0  0  0  0  0  0  0  0  0  0  0  0
   28.3586  -17.1295  -15.5358 O   0  0  0  0  0  0  0  0  0  0  0  0
   27.3280  -19.0937  -14.9873 N   0  0  0  0  0  0  0  0  0  0  0  0
   25.8888  -18.7619  -15.0588 C   0  0  1  0  0  0  0  0  0  0  0  0
   25.4750  -18.6973  -16.5181 C   0  0  0  0  0  0  0  0  0  0  0  0
   23.7104  -18.4846  -16.7165 S   0  0  0  0  0  0  0  0  0  0  0  0
   25.1379  -19.7306  -14.2610 C   0  0  0  0  0  0  0  0  0  0  0  0
   23.8717  -19.5677  -14.1337 O   0  0  0  0  0  0  0  0  0  0  0  0
   25.6651  -20.8469  -13.6049 N   0  0  0  0  0  0  0  0  0  0  0  0
   24.8796  -21.6333  -12.6321 C   0  0  1  0  0  0  0  0  0  0  0  0
   25.8348  -22.3062  -11.7096 C   0  0  0  0  0  0  0  0  0  0  0  0
   26.3363  -21.4916  -10.5957 C   0  0  0  0  0  0  0  0  0  0  0  0
   25.5080  -20.8559   -9.6648 C   0  0  0  0  0  0  0  0  0  0  0  0
   26.2772  -20.2256   -8.7703 N   0  0  0  0  0  0  0  0  0  0  0  0
   27.5687  -20.4085   -9.0582 C   0  0  0  0  0  0  0  0  0  0  0  0
   28.7002  -19.9541   -8.4358 C   0  0  0  0  0  0  0  0  0  0  0  0
   29.9206  -20.2981   -8.9691 C   0  0  0  0  0  0  0  0  0  0  0  0
   29.9748  -21.0775  -10.0965 C   0  0  0  0  0  0  0  0  0  0  0  0
   28.8448  -21.5399  -10.7299 C   0  0  0  0  0  0  0  0  0  0  0  0
   27.6089  -21.1961  -10.1947 C   0  0  0  0  0  0  0  0  0  0  0  0
   23.7933  -20.8627  -12.0403 C   0  0  0  0  0  0  0  0  0  0  0  0
   22.6487  -21.3851  -11.4699 O   0  0  0  0  0  0  0  0  0  0  0  0
   23.8902  -19.5922  -12.0445 O   0  0  0  0  0  0  0  0  0  0  0  0
  1  2  1  0
  2  4  1  0
  3  2  2  0
  4  5  1  0
  5  6  1  6
  7  8  2  0
  7  5  1  0
  9  7  1  0
 10 11  1  6
 10  9  1  0
 11 12  1  0
 13 10  1  0
 14 13  2  0
 15 13  1  0
 16 15  1  0
 16 17  1  1
 18 17  1  0
 19 18  2  0
 20 19  1  0
 21 20  1  0
 21 26  2  0
 22 23  2  0
 22 21  1  0
 23 24  1  0
 24 25  2  0
 26 25  1  0
 26 18  1  0
 27 16  1  0
 27 28  1  0
 29 27  2  0
M  END
$$$$
