NCW.pdb
     RDKit          3D

 29 30  0  0  1  0  0  0  0  0999 V2000
   31.0279  -24.2782  -17.3963 N   0  0  0  0  0  0  0  0  0  0  0  0
   30.3671  -23.5793  -18.4437 C   0  0  0  0  0  0  0  0  0  0  0  0
   30.9770  -23.4727  -19.5378 O   0  0  0  0  0  0  0  0  0  0  0  0
   29.0333  -22.9809  -18.3303 C   0  0  0  0  0  0  0  0  0  0  0  0
   28.4276  -23.1561  -16.9560 C   0  0  2  0  0  0  0  0  0  0  0  0
   28.0656  -24.5549  -16.7764 N   0  0  0  0  0  0  0  0  0  0  0  0
   27.1510  -22.3722  -16.9577 C   0  0  0  0  0  0  0  0  0  0  0  0
   27.1140  -21.1494  -17.2893 O   0  0  0  0  0  0  0  0  0  0  0  0
   25.9106  -22.9603  -16.5868 N   0  0  0  0  0  0  0  0  0  0  0  0
   24.6836  -22.1396  -16.5000 C   0  0  1  0  0  0  0  0  0  0  0  0
   23.6389  -22.7239  -17.4340 C   0  0  0  0  0  0  0  0  0  0  0  0
   23.3521  -24.4630  -17.1318 S   0  0  0  0  0  0  0  0  0  0  0  0
   24.2646  -22.0582  -15.1013 C   0  0  0  0  0  0  0  0  0  0  0  0
   24.4426  -23.0821  -14.3489 O   0  0  0  0  0  0  0  0  0  0  0  0
   23.6760  -20.9541  -14.4776 N   0  0  0  0  0  0  0  0  0  0  0  0
   23.2782  -20.9717  -13.0552 C   0  0  1  0  0  0  0  0  0  0  0  0
   23.9967  -19.8653  -12.3652 C   0  0  0  0  0  0  0  0  0  0  0  0
   25.2164  -20.2432  -11.6403 C   0  0  0  0  0  0  0  0  0  0  0  0
   26.4453  -20.4864  -12.2627 C   0  0  0  0  0  0  0  0  0  0  0  0
   27.3499  -20.7766  -11.3212 N   0  0  0  0  0  0  0  0  0  0  0  0
   26.7875  -20.7394  -10.1102 C   0  0  0  0  0  0  0  0  0  0  0  0
   27.3147  -20.9707   -8.8682 C   0  0  0  0  0  0  0  0  0  0  0  0
   26.4829  -20.8684   -7.7773 C   0  0  0  0  0  0  0  0  0  0  0  0
   25.1629  -20.5418   -7.9568 C   0  0  0  0  0  0  0  0  0  0  0  0
   24.6224  -20.3070   -9.1997 C   0  0  0  0  0  0  0  0  0  0  0  0
   25.4587  -20.4080  -10.3054 C   0  0  0  0  0  0  0  0  0  0  0  0
   21.8336  -21.0551  -12.8814 C   0  0  0  0  0  0  0  0  0  0  0  0
   21.1770  -21.3591  -11.7047 O   0  0  0  0  0  0  0  0  0  0  0  0
   21.0957  -20.8345  -13.8965 O   0  0  0  0  0  0  0  0  0  0  0  0
  1  2  1  0
  2  4  1  0
  3  2  2  0
  4  5  1  0
  5  6  1  6
  7  8  2  0
  7  5  1  0
  9  7  1  0
 10 11  1  6
 10  9  1  0
 11 12  1  0
 13 10  1  0
 14 13  2  0
 15 13  1  0
 16 15  1  0
 16 17  1  6
 18 17  1  0
 19 18  2  0
 20 19  1  0
 21 20  1  0
 21 26  2  0
 22 23  2  0
 22 21  1  0
 23 24  1  0
 24 25  2  0
 26 25  1  0
 26 18  1  0
 27 16  1  0
 27 28  1  0
 29 27  2  0
M  END
$$$$
