NCW.pdb
     RDKit          3D

 29 30  0  0  1  0  0  0  0  0999 V2000
   30.5392  -23.5540  -16.3858 N   0  0  0  0  0  0  0  0  0  0  0  0
   30.2589  -22.7920  -17.5532 C   0  0  0  0  0  0  0  0  0  0  0  0
   31.2409  -22.3984  -18.2323 O   0  0  0  0  0  0  0  0  0  0  0  0
   28.9113  -22.4394  -18.0109 C   0  0  0  0  0  0  0  0  0  0  0  0
   27.8239  -23.1147  -17.2060 C   0  0  2  0  0  0  0  0  0  0  0  0
   27.7974  -24.5302  -17.5460 N   0  0  0  0  0  0  0  0  0  0  0  0
   26.5284  -22.5287  -17.6775 C   0  0  0  0  0  0  0  0  0  0  0  0
   26.2792  -22.3520  -18.9077 O   0  0  0  0  0  0  0  0  0  0  0  0
   25.5075  -22.1391  -16.7675 N   0  0  0  0  0  0  0  0  0  0  0  0
   24.1724  -21.7370  -17.2599 C   0  0  1  0  0  0  0  0  0  0  0  0
   23.5942  -22.8730  -18.0848 C   0  0  0  0  0  0  0  0  0  0  0  0
   21.8060  -22.8612  -18.1006 S   0  0  0  0  0  0  0  0  0  0  0  0
   23.3467  -21.3374  -16.1210 C   0  0  0  0  0  0  0  0  0  0  0  0
   23.3212  -22.0972  -15.0875 O   0  0  0  0  0  0  0  0  0  0  0  0
   22.5615  -20.1840  -16.0336 N   0  0  0  0  0  0  0  0  0  0  0  0
   21.8028  -19.8375  -14.8145 C   0  0  1  0  0  0  0  0  0  0  0  0
   22.0545  -18.4019  -14.5112 C   0  0  0  0  0  0  0  0  0  0  0  0
   21.5444  -17.4374  -15.4938 C   0  0  0  0  0  0  0  0  0  0  0  0
   20.2152  -17.0036  -15.5377 C   0  0  0  0  0  0  0  0  0  0  0  0
   20.0909  -16.1102  -16.5253 N   0  0  0  0  0  0  0  0  0  0  0  0
   21.2641  -15.9292  -17.1377 C   0  0  0  0  0  0  0  0  0  0  0  0
   21.6122  -15.1282  -18.1919 C   0  0  0  0  0  0  0  0  0  0  0  0
   22.9172  -15.1523  -18.6261 C   0  0  0  0  0  0  0  0  0  0  0  0
   23.8267  -15.9672  -18.0016 C   0  0  0  0  0  0  0  0  0  0  0  0
   23.4884  -16.7758  -16.9416 C   0  0  0  0  0  0  0  0  0  0  0  0
   22.1713  -16.7547  -16.4981 C   0  0  0  0  0  0  0  0  0  0  0  0
   20.4174  -20.2858  -14.8741 C   0  0  0  0  0  0  0  0  0  0  0  0
   19.5620  -20.4141  -13.7970 O   0  0  0  0  0  0  0  0  0  0  0  0
   19.9375  -20.5948  -16.0133 O   0  0  0  0  0  0  0  0  0  0  0  0
  1  2  1  0
  2  4  1  0
  3  2  2  0
  4  5  1  0
  5  6  1  6
  7  8  2  0
  7  5  1  0
  9  7  1  0
 10 11  1  1
 10  9  1  0
 11 12  1  0
 13 10  1  0
 14 13  2  0
 15 13  1  0
 16 15  1  0
 16 17  1  6
 18 17  1  0
 19 18  2  0
 20 19  1  0
 21 20  1  0
 21 26  2  0
 22 23  2  0
 22 21  1  0
 23 24  1  0
 24 25  2  0
 26 25  1  0
 26 18  1  0
 27 16  1  0
 27 28  1  0
 29 27  2  0
M  END
$$$$
