NCW.pdb
     RDKit          3D

 29 30  0  0  1  0  0  0  0  0999 V2000
   30.6524  -24.4040  -17.6342 N   0  0  0  0  0  0  0  0  0  0  0  0
   30.5824  -23.0412  -18.0343 C   0  0  0  0  0  0  0  0  0  0  0  0
   31.3838  -22.6618  -18.9254 O   0  0  0  0  0  0  0  0  0  0  0  0
   29.6446  -22.0601  -17.4793 C   0  0  0  0  0  0  0  0  0  0  0  0
   28.7626  -22.6399  -16.3968 C   0  0  2  0  0  0  0  0  0  0  0  0
   27.7131  -23.4335  -17.0201 N   0  0  0  0  0  0  0  0  0  0  0  0
   28.0931  -21.4756  -15.7334 C   0  0  0  0  0  0  0  0  0  0  0  0
   28.1403  -20.3065  -16.2208 O   0  0  0  0  0  0  0  0  0  0  0  0
   27.3673  -21.6212  -14.5192 N   0  0  0  0  0  0  0  0  0  0  0  0
   26.4525  -20.5558  -14.0557 C   0  0  1  0  0  0  0  0  0  0  0  0
   25.5297  -20.1737  -15.1991 C   0  0  0  0  0  0  0  0  0  0  0  0
   23.9596  -19.5394  -14.6238 S   0  0  0  0  0  0  0  0  0  0  0  0
   25.7624  -21.0136  -12.8505 C   0  0  0  0  0  0  0  0  0  0  0  0
   25.3036  -22.2114  -12.8260 O   0  0  0  0  0  0  0  0  0  0  0  0
   25.5438  -20.2667  -11.6890 N   0  0  0  0  0  0  0  0  0  0  0  0
   24.8506  -20.8264  -10.5108 C   0  0  1  0  0  0  0  0  0  0  0  0
   25.3847  -20.1457   -9.2993 C   0  0  0  0  0  0  0  0  0  0  0  0
   26.7687  -20.4731   -8.9344 C   0  0  0  0  0  0  0  0  0  0  0  0
   27.6164  -21.2537   -9.7274 C   0  0  0  0  0  0  0  0  0  0  0  0
   28.8081  -21.3347   -9.1255 N   0  0  0  0  0  0  0  0  0  0  0  0
   28.7957  -20.6515   -7.9778 C   0  0  0  0  0  0  0  0  0  0  0  0
   29.7710  -20.4606   -7.0362 C   0  0  0  0  0  0  0  0  0  0  0  0
   29.4682  -19.7042   -5.9279 C   0  0  0  0  0  0  0  0  0  0  0  0
   28.2135  -19.1665   -5.7935 C   0  0  0  0  0  0  0  0  0  0  0  0
   27.2260  -19.3515   -6.7331 C   0  0  0  0  0  0  0  0  0  0  0  0
   27.5269  -20.1141   -7.8555 C   0  0  0  0  0  0  0  0  0  0  0  0
   23.4041  -20.8687  -10.6834 C   0  0  0  0  0  0  0  0  0  0  0  0
   22.5070  -21.4936   -9.8390 O   0  0  0  0  0  0  0  0  0  0  0  0
   22.9061  -20.2854  -11.7009 O   0  0  0  0  0  0  0  0  0  0  0  0
  1  2  1  0
  2  4  1  0
  3  2  2  0
  4  5  1  0
  5  6  1  6
  7  8  2  0
  7  5  1  0
  9  7  1  0
 10 11  1  6
 10  9  1  0
 11 12  1  0
 13 10  1  0
 14 13  2  0
 15 13  1  0
 16 15  1  0
 16 17  1  1
 18 17  1  0
 19 18  2  0
 20 19  1  0
 21 20  1  0
 21 26  2  0
 22 23  2  0
 22 21  1  0
 23 24  1  0
 24 25  2  0
 26 25  1  0
 26 18  1  0
 27 16  1  0
 27 28  1  0
 29 27  2  0
M  END
$$$$
