NCW.pdb
     RDKit          3D

 29 30  0  0  1  0  0  0  0  0999 V2000
   28.8792  -18.8556  -16.9037 N   0  0  0  0  0  0  0  0  0  0  0  0
   27.4674  -18.7478  -16.7720 C   0  0  0  0  0  0  0  0  0  0  0  0
   26.8877  -17.8877  -17.4823 O   0  0  0  0  0  0  0  0  0  0  0  0
   26.6527  -19.5673  -15.8694 C   0  0  0  0  0  0  0  0  0  0  0  0
   27.4723  -20.5684  -15.0869 C   0  0  2  0  0  0  0  0  0  0  0  0
   27.8789  -21.6440  -15.9801 N   0  0  0  0  0  0  0  0  0  0  0  0
   26.5454  -21.1690  -14.0749 C   0  0  0  0  0  0  0  0  0  0  0  0
   25.8398  -22.1900  -14.3327 O   0  0  0  0  0  0  0  0  0  0  0  0
   26.4083  -20.6241  -12.7686 N   0  0  0  0  0  0  0  0  0  0  0  0
   25.4179  -21.1788  -11.8209 C   0  0  1  0  0  0  0  0  0  0  0  0
   25.9245  -20.9656  -10.4057 C   0  0  0  0  0  0  0  0  0  0  0  0
   24.6092  -21.0257   -9.1955 S   0  0  0  0  0  0  0  0  0  0  0  0
   24.1128  -20.5772  -12.0917 C   0  0  0  0  0  0  0  0  0  0  0  0
   24.0243  -19.2977  -12.1258 O   0  0  0  0  0  0  0  0  0  0  0  0
   22.9181  -21.2647  -12.3253 N   0  0  0  0  0  0  0  0  0  0  0  0
   21.6380  -20.5646  -12.5558 C   0  0  1  0  0  0  0  0  0  0  0  0
   21.8361  -19.6056  -13.6772 C   0  0  0  0  0  0  0  0  0  0  0  0
   22.2951  -20.1848  -14.9460 C   0  0  0  0  0  0  0  0  0  0  0  0
   22.0248  -21.4988  -15.3421 C   0  0  0  0  0  0  0  0  0  0  0  0
   22.5566  -21.6968  -16.5533 N   0  0  0  0  0  0  0  0  0  0  0  0
   23.1645  -20.5867  -16.9802 C   0  0  0  0  0  0  0  0  0  0  0  0
   23.8428  -20.3241  -18.1401 C   0  0  0  0  0  0  0  0  0  0  0  0
   24.3835  -19.0707  -18.3098 C   0  0  0  0  0  0  0  0  0  0  0  0
   24.2327  -18.1262  -17.3267 C   0  0  0  0  0  0  0  0  0  0  0  0
   23.5532  -18.3786  -16.1577 C   0  0  0  0  0  0  0  0  0  0  0  0
   23.0040  -19.6433  -15.9814 C   0  0  0  0  0  0  0  0  0  0  0  0
   20.5083  -21.4817  -12.6387 C   0  0  0  0  0  0  0  0  0  0  0  0
   19.1740  -21.1265  -12.6003 O   0  0  0  0  0  0  0  0  0  0  0  0
   20.7560  -22.7264  -12.7532 O   0  0  0  0  0  0  0  0  0  0  0  0
  1  2  1  0
  2  4  1  0
  3  2  2  0
  4  5  1  0
  5  6  1  6
  7  8  2  0
  7  5  1  0
  9  7  1  0
 10 11  1  1
 10  9  1  0
 11 12  1  0
 13 10  1  0
 14 13  2  0
 15 13  1  0
 16 15  1  0
 16 17  1  6
 18 17  1  0
 19 18  2  0
 20 19  1  0
 21 20  1  0
 21 26  2  0
 22 23  2  0
 22 21  1  0
 23 24  1  0
 24 25  2  0
 26 25  1  0
 26 18  1  0
 27 16  1  0
 27 28  1  0
 29 27  2  0
M  END
$$$$
