NCW.pdb
     RDKit          3D

 29 30  0  0  1  0  0  0  0  0999 V2000
   30.5495  -24.6647  -18.4336 N   0  0  0  0  0  0  0  0  0  0  0  0
   29.7465  -23.5045  -18.6107 C   0  0  0  0  0  0  0  0  0  0  0  0
   29.1081  -23.4065  -19.6893 O   0  0  0  0  0  0  0  0  0  0  0  0
   29.6168  -22.4261  -17.6257 C   0  0  0  0  0  0  0  0  0  0  0  0
   28.3408  -22.5190  -16.8199 C   0  0  2  0  0  0  0  0  0  0  0  0
   27.2407  -21.9991  -17.6195 N   0  0  0  0  0  0  0  0  0  0  0  0
   28.5112  -21.5905  -15.6568 C   0  0  0  0  0  0  0  0  0  0  0  0
   29.6372  -21.4041  -15.1055 O   0  0  0  0  0  0  0  0  0  0  0  0
   27.4161  -20.8677  -15.1090 N   0  0  0  0  0  0  0  0  0  0  0  0
   27.5993  -20.0100  -13.9183 C   0  0  1  0  0  0  0  0  0  0  0  0
   27.0527  -18.6271  -14.2245 C   0  0  0  0  0  0  0  0  0  0  0  0
   26.2320  -17.8923  -12.8157 S   0  0  0  0  0  0  0  0  0  0  0  0
   26.9810  -20.6614  -12.7642 C   0  0  0  0  0  0  0  0  0  0  0  0
   25.7928  -21.1289  -12.8896 O   0  0  0  0  0  0  0  0  0  0  0  0
   27.5614  -20.8360  -11.5043 N   0  0  0  0  0  0  0  0  0  0  0  0
   26.8143  -21.4054  -10.3644 C   0  0  1  0  0  0  0  0  0  0  0  0
   27.7610  -21.5545   -9.2252 C   0  0  0  0  0  0  0  0  0  0  0  0
   27.5381  -20.6607   -8.0818 C   0  0  0  0  0  0  0  0  0  0  0  0
   26.5055  -19.7188   -8.0228 C   0  0  0  0  0  0  0  0  0  0  0  0
   26.5655  -19.0942   -6.8416 N   0  0  0  0  0  0  0  0  0  0  0  0
   27.5810  -19.5700   -6.1161 C   0  0  0  0  0  0  0  0  0  0  0  0
   28.0259  -19.2339   -4.8657 C   0  0  0  0  0  0  0  0  0  0  0  0
   29.1217  -19.8966   -4.3635 C   0  0  0  0  0  0  0  0  0  0  0  0
   29.7349  -20.8650   -5.1168 C   0  0  0  0  0  0  0  0  0  0  0  0
   29.2967  -21.2111   -6.3738 C   0  0  0  0  0  0  0  0  0  0  0  0
   28.1891  -20.5454   -6.8857 C   0  0  0  0  0  0  0  0  0  0  0  0
   25.5588  -20.7080  -10.1167 C   0  0  0  0  0  0  0  0  0  0  0  0
   25.3656  -19.3419  -10.1849 O   0  0  0  0  0  0  0  0  0  0  0  0
   24.5391  -21.4053   -9.8044 O   0  0  0  0  0  0  0  0  0  0  0  0
  1  2  1  0
  2  4  1  0
  3  2  2  0
  4  5  1  0
  5  6  1  6
  7  8  2  0
  7  5  1  0
  9  7  1  0
 10 11  1  6
 10  9  1  0
 11 12  1  0
 13 10  1  0
 14 13  2  0
 15 13  1  0
 16 15  1  0
 16 17  1  1
 18 17  1  0
 19 18  2  0
 20 19  1  0
 21 20  1  0
 21 26  2  0
 22 23  2  0
 22 21  1  0
 23 24  1  0
 24 25  2  0
 26 25  1  0
 26 18  1  0
 27 16  1  0
 27 28  1  0
 29 27  2  0
M  END
$$$$
