NCW.pdb
     RDKit          3D

 29 30  0  0  1  0  0  0  0  0999 V2000
   24.4219  -15.4082  -14.9056 N   0  0  0  0  0  0  0  0  0  0  0  0
   25.7067  -15.9433  -14.6141 C   0  0  0  0  0  0  0  0  0  0  0  0
   26.6975  -15.1913  -14.7961 O   0  0  0  0  0  0  0  0  0  0  0  0
   25.9474  -17.3027  -14.1198 C   0  0  0  0  0  0  0  0  0  0  0  0
   27.0255  -18.0256  -14.8951 C   0  0  2  0  0  0  0  0  0  0  0  0
   26.5739  -18.2118  -16.2667 N   0  0  0  0  0  0  0  0  0  0  0  0
   27.1382  -19.3888  -14.2844 C   0  0  0  0  0  0  0  0  0  0  0  0
   26.3164  -20.3155  -14.5536 O   0  0  0  0  0  0  0  0  0  0  0  0
   28.1757  -19.7156  -13.3685 N   0  0  0  0  0  0  0  0  0  0  0  0
   28.1676  -21.0084  -12.6507 C   0  0  1  0  0  0  0  0  0  0  0  0
   29.5284  -21.6627  -12.8087 C   0  0  0  0  0  0  0  0  0  0  0  0
   30.8332  -20.7152  -12.0353 S   0  0  0  0  0  0  0  0  0  0  0  0
   27.7658  -20.7789  -11.2634 C   0  0  0  0  0  0  0  0  0  0  0  0
   28.6474  -20.9138  -10.3410 O   0  0  0  0  0  0  0  0  0  0  0  0
   26.4899  -20.4166  -10.8214 N   0  0  0  0  0  0  0  0  0  0  0  0
   25.6897  -21.2809   -9.9301 C   0  0  1  0  0  0  0  0  0  0  0  0
   26.5012  -21.5601   -8.7136 C   0  0  0  0  0  0  0  0  0  0  0  0
   26.9686  -20.3848   -7.9679 C   0  0  0  0  0  0  0  0  0  0  0  0
   26.7716  -19.0669   -8.3934 C   0  0  0  0  0  0  0  0  0  0  0  0
   27.2894  -18.2414   -7.4772 N   0  0  0  0  0  0  0  0  0  0  0  0
   27.8187  -18.9400   -6.4693 C   0  0  0  0  0  0  0  0  0  0  0  0
   28.4553  -18.5291   -5.3291 C   0  0  0  0  0  0  0  0  0  0  0  0
   28.9141  -19.4884   -4.4565 C   0  0  0  0  0  0  0  0  0  0  0  0
   28.7259  -20.8161   -4.7452 C   0  0  0  0  0  0  0  0  0  0  0  0
   28.0876  -21.2405   -5.8873 C   0  0  0  0  0  0  0  0  0  0  0  0
   27.6211  -20.2753   -6.7720 C   0  0  0  0  0  0  0  0  0  0  0  0
   24.3332  -20.7826   -9.7412 C   0  0  0  0  0  0  0  0  0  0  0  0
   23.4578  -21.1772   -8.7482 O   0  0  0  0  0  0  0  0  0  0  0  0
   23.8987  -19.9072  -10.5588 O   0  0  0  0  0  0  0  0  0  0  0  0
  1  2  1  0
  2  4  1  0
  3  2  2  0
  4  5  1  0
  5  6  1  6
  7  8  2  0
  7  5  1  0
  9  7  1  0
 10 11  1  1
 10  9  1  0
 11 12  1  0
 13 10  1  0
 14 13  2  0
 15 13  1  0
 16 15  1  0
 16 17  1  1
 18 17  1  0
 19 18  2  0
 20 19  1  0
 21 20  1  0
 21 26  2  0
 22 23  2  0
 22 21  1  0
 23 24  1  0
 24 25  2  0
 26 25  1  0
 26 18  1  0
 27 16  1  0
 27 28  1  0
 29 27  2  0
M  END
$$$$
