NCW.pdb
     RDKit          3D

 29 30  0  0  1  0  0  0  0  0999 V2000
   25.7950  -17.9971  -17.6148 N   0  0  0  0  0  0  0  0  0  0  0  0
   24.9616  -18.3255  -16.5103 C   0  0  0  0  0  0  0  0  0  0  0  0
   23.8585  -17.7287  -16.4251 O   0  0  0  0  0  0  0  0  0  0  0  0
   25.3034  -19.3059  -15.4749 C   0  0  0  0  0  0  0  0  0  0  0  0
   26.7287  -19.7990  -15.5826 C   0  0  2  0  0  0  0  0  0  0  0  0
   26.8090  -20.7732  -16.6616 N   0  0  0  0  0  0  0  0  0  0  0  0
   27.0150  -20.5341  -14.3092 C   0  0  0  0  0  0  0  0  0  0  0  0
   26.4486  -21.6318  -14.0252 O   0  0  0  0  0  0  0  0  0  0  0  0
   27.9399  -20.0378  -13.3498 N   0  0  0  0  0  0  0  0  0  0  0  0
   28.1685  -20.7600  -12.0797 C   0  0  1  0  0  0  0  0  0  0  0  0
   29.5251  -20.3593  -11.5282 C   0  0  0  0  0  0  0  0  0  0  0  0
   29.9084  -21.1917   -9.9925 S   0  0  0  0  0  0  0  0  0  0  0  0
   27.0487  -20.4984  -11.1764 C   0  0  0  0  0  0  0  0  0  0  0  0
   26.5391  -19.3211  -11.1590 O   0  0  0  0  0  0  0  0  0  0  0  0
   26.4558  -21.4185  -10.3067 N   0  0  0  0  0  0  0  0  0  0  0  0
   25.3886  -21.0341   -9.3606 C   0  0  1  0  0  0  0  0  0  0  0  0
   25.6546  -19.6396   -8.9123 C   0  0  0  0  0  0  0  0  0  0  0  0
   26.7289  -19.4748   -7.9250 C   0  0  0  0  0  0  0  0  0  0  0  0
   27.7731  -18.5539   -8.0607 C   0  0  0  0  0  0  0  0  0  0  0  0
   28.5584  -18.6379   -6.9813 N   0  0  0  0  0  0  0  0  0  0  0  0
   28.0920  -19.5638   -6.1391 C   0  0  0  0  0  0  0  0  0  0  0  0
   28.5633  -19.9945   -4.9280 C   0  0  0  0  0  0  0  0  0  0  0  0
   27.8712  -20.9879   -4.2749 C   0  0  0  0  0  0  0  0  0  0  0  0
   26.7409  -21.5166   -4.8443 C   0  0  0  0  0  0  0  0  0  0  0  0
   26.2581  -21.0915   -6.0602 C   0  0  0  0  0  0  0  0  0  0  0  0
   26.9530  -20.0873   -6.7240 C   0  0  0  0  0  0  0  0  0  0  0  0
   24.0572  -21.3417   -9.8673 C   0  0  0  0  0  0  0  0  0  0  0  0
   23.7719  -21.9462  -11.0762 O   0  0  0  0  0  0  0  0  0  0  0  0
   23.0555  -21.0281   -9.1450 O   0  0  0  0  0  0  0  0  0  0  0  0
  1  2  1  0
  2  4  1  0
  3  2  2  0
  4  5  1  0
  5  6  1  6
  7  8  2  0
  7  5  1  0
  9  7  1  0
 10 11  1  1
 10  9  1  0
 11 12  1  0
 13 10  1  0
 14 13  2  0
 15 13  1  0
 16 15  1  0
 16 17  1  6
 18 17  1  0
 19 18  2  0
 20 19  1  0
 21 20  1  0
 21 26  2  0
 22 23  2  0
 22 21  1  0
 23 24  1  0
 24 25  2  0
 26 25  1  0
 26 18  1  0
 27 16  1  0
 27 28  1  0
 29 27  2  0
M  END
$$$$
