NCW.pdb
     RDKit          3D

 29 30  0  0  1  0  0  0  0  0999 V2000
   22.5763   -1.1732  -20.1796 N   0  0  0  0  0  0  0  0  0  0  0  0
   23.0511   -2.4676  -20.5279 C   0  0  0  0  0  0  0  0  0  0  0  0
   23.0280   -2.7800  -21.7454 O   0  0  0  0  0  0  0  0  0  0  0  0
   23.5608   -3.4513  -19.5675 C   0  0  0  0  0  0  0  0  0  0  0  0
   24.2878   -2.8131  -18.4054 C   0  0  2  0  0  0  0  0  0  0  0  0
   25.7036   -2.7178  -18.7316 N   0  0  0  0  0  0  0  0  0  0  0  0
   24.1679   -3.7705  -17.2595 C   0  0  0  0  0  0  0  0  0  0  0  0
   25.1364   -4.0054  -16.4763 O   0  0  0  0  0  0  0  0  0  0  0  0
   22.9583   -4.4675  -16.9895 N   0  0  0  0  0  0  0  0  0  0  0  0
   22.8363   -5.3304  -15.7948 C   0  0  1  0  0  0  0  0  0  0  0  0
   23.1407   -4.5004  -14.5605 C   0  0  0  0  0  0  0  0  0  0  0  0
   21.7990   -3.3976  -14.1339 S   0  0  0  0  0  0  0  0  0  0  0  0
   21.5132   -5.9533  -15.7919 C   0  0  0  0  0  0  0  0  0  0  0  0
   20.4857   -5.2075  -15.9763 O   0  0  0  0  0  0  0  0  0  0  0  0
   21.2394   -7.3116  -15.6062 N   0  0  0  0  0  0  0  0  0  0  0  0
   19.8604   -7.8389  -15.5624 C   0  0  1  0  0  0  0  0  0  0  0  0
   19.8900   -9.2407  -16.0626 C   0  0  0  0  0  0  0  0  0  0  0  0
   18.5963   -9.9333  -16.1144 C   0  0  0  0  0  0  0  0  0  0  0  0
   17.3985   -9.3134  -16.4856 C   0  0  0  0  0  0  0  0  0  0  0  0
   16.4202  -10.2249  -16.4569 N   0  0  0  0  0  0  0  0  0  0  0  0
   16.9042  -11.4136  -16.0867 C   0  0  0  0  0  0  0  0  0  0  0  0
   16.2831  -12.6213  -15.9139 C   0  0  0  0  0  0  0  0  0  0  0  0
   17.0439  -13.6939  -15.5100 C   0  0  0  0  0  0  0  0  0  0  0  0
   18.3883  -13.5306  -15.2925 C   0  0  0  0  0  0  0  0  0  0  0  0
   19.0228  -12.3222  -15.4631 C   0  0  0  0  0  0  0  0  0  0  0  0
   18.2590  -11.2353  -15.8721 C   0  0  0  0  0  0  0  0  0  0  0  0
   19.2084   -7.5885  -14.2832 C   0  0  0  0  0  0  0  0  0  0  0  0
   17.8658   -7.3209  -14.0986 O   0  0  0  0  0  0  0  0  0  0  0  0
   19.9273   -7.6109  -13.2314 O   0  0  0  0  0  0  0  0  0  0  0  0
  1  2  1  0
  2  4  1  0
  3  2  2  0
  4  5  1  0
  5  6  1  6
  7  8  2  0
  7  5  1  0
  9  7  1  0
 10 11  1  1
 10  9  1  0
 11 12  1  0
 13 10  1  0
 14 13  2  0
 15 13  1  0
 16 15  1  0
 16 17  1  1
 18 17  1  0
 19 18  2  0
 20 19  1  0
 21 20  1  0
 21 26  2  0
 22 23  2  0
 22 21  1  0
 23 24  1  0
 24 25  2  0
 26 25  1  0
 26 18  1  0
 27 16  1  0
 27 28  1  0
 29 27  2  0
M  END
$$$$
