DHR.pdb
     RDKit          3D

 30 30  0  0  1  0  0  0  0  0999 V2000
   12.2435  -14.9382   16.6114 N   0  0  0  0  0  0  0  0  0  0  0  0
   12.8416  -15.3224   17.8721 C   0  0  1  0  0  0  0  0  0  0  0  0
   14.2585  -14.7771   17.8814 C   0  0  0  0  0  0  0  0  0  0  0  0
   15.0114  -15.2159   16.6780 C   0  0  0  0  0  0  0  0  0  0  0  0
   14.7929  -16.3796   16.2634 O   0  0  0  0  0  0  0  0  0  0  0  0
   12.1206  -14.7151   18.9943 C   0  0  0  0  0  0  0  0  0  0  0  0
   12.6489  -13.6966   19.5581 O   0  0  0  0  0  0  0  0  0  0  0  0
   15.9137  -14.4302   16.0117 O   0  0  0  0  0  0  0  0  0  0  0  0
   10.8721  -15.1975   19.4846 N   0  0  0  0  0  0  0  0  0  0  0  0
   10.2668  -14.5717   20.6102 C   0  0  1  0  0  0  0  0  0  0  0  0
    8.7577  -14.5123   20.5216 C   0  0  0  0  0  0  0  0  0  0  0  0
    8.2938  -14.0409   19.2040 C   0  0  0  0  0  0  0  0  0  0  0  0
    7.9184  -12.7799   18.7937 C   0  0  0  0  0  0  0  0  0  0  0  0
    7.5620  -12.8257   17.4769 N   0  0  0  0  0  0  0  0  0  0  0  0
    7.7116  -14.0852   17.0763 C   0  0  0  0  0  0  0  0  0  0  0  0
    8.1561  -14.8282   18.1218 N   0  0  0  0  0  0  0  0  0  0  0  0
   10.6003  -15.2313   21.8981 C   0  0  0  0  0  0  0  0  0  0  0  0
    9.7262  -15.2528   22.8071 O   0  0  0  0  0  0  0  0  0  0  0  0
   14.3005  -22.3721   23.1314 N   0  0  0  0  0  0  0  0  0  0  0  0
   13.2945  -22.5092   24.1295 C   0  0  0  0  0  0  0  0  0  0  0  0
   13.4448  -23.3471   25.0911 N   0  0  0  0  0  0  0  0  0  0  0  0
   12.1106  -21.7301   24.0874 N   0  0  0  0  0  0  0  0  0  0  0  0
   11.9715  -20.7168   23.0454 C   0  0  0  0  0  0  0  0  0  0  0  0
   12.1289  -19.3396   23.5709 C   0  0  0  0  0  0  0  0  0  0  0  0
   11.9141  -18.1590   22.7379 C   0  0  0  0  0  0  0  0  0  0  0  0
   11.9939  -16.8120   23.3258 C   0  0  2  0  0  0  0  0  0  0  0  0
   11.8359  -15.8349   22.1651 N   0  0  0  0  0  0  0  0  0  0  0  0
   13.2326  -16.4057   23.9806 C   0  0  0  0  0  0  0  0  0  0  0  0
   13.5166  -16.4902   25.1865 O   0  0  0  0  0  0  0  0  0  0  0  0
   14.2604  -15.8435   23.1815 O   0  0  0  0  0  0  0  0  0  0  0  0
  2  1  1  6
  2  3  1  0
  4  3  1  0
  4  5  2  0
  6  2  1  0
  6  7  2  0
  8  4  1  0
  9  6  1  0
 10  9  1  0
 11 12  1  0
 10 11  1  6
 12 13  2  0
 12 16  1  0
 13 14  1  0
 14 15  1  0
 16 15  2  0
 17 10  1  0
 18 17  2  0
 19 20  1  0
 20 21  2  0
 22 20  1  0
 23 22  1  0
 24 23  1  0
 25 24  1  0
 26 25  1  6
 26 27  1  0
 27 17  1  0
 28 26  1  0
 29 28  2  0
 30 28  1  0
M  END
$$$$
