DHR.pdb
     RDKit          3D

 30 30  0  0  1  0  0  0  0  0999 V2000
   10.8709  -16.0709   13.8233 N   0  0  0  0  0  0  0  0  0  0  0  0
   11.1166  -16.9704   14.9300 C   0  0  1  0  0  0  0  0  0  0  0  0
   12.4565  -17.6380   14.6770 C   0  0  0  0  0  0  0  0  0  0  0  0
   12.3639  -18.6282   13.5732 C   0  0  0  0  0  0  0  0  0  0  0  0
   13.1533  -18.4810   12.6092 O   0  0  0  0  0  0  0  0  0  0  0  0
   11.2171  -16.2275   16.1894 C   0  0  0  0  0  0  0  0  0  0  0  0
   12.1627  -15.3746   16.3019 O   0  0  0  0  0  0  0  0  0  0  0  0
   11.4783  -19.6727   13.5549 O   0  0  0  0  0  0  0  0  0  0  0  0
   10.3228  -16.4058   17.2850 N   0  0  0  0  0  0  0  0  0  0  0  0
   10.5205  -15.6664   18.4847 C   0  0  1  0  0  0  0  0  0  0  0  0
    9.2691  -15.5467   19.3264 C   0  0  0  0  0  0  0  0  0  0  0  0
    8.3695  -14.4842   18.8415 C   0  0  0  0  0  0  0  0  0  0  0  0
    8.4971  -13.6366   17.7622 C   0  0  0  0  0  0  0  0  0  0  0  0
    7.4089  -12.8144   17.7081 N   0  0  0  0  0  0  0  0  0  0  0  0
    6.6220  -13.1419   18.7292 C   0  0  0  0  0  0  0  0  0  0  0  0
    7.2007  -14.1561   19.4215 N   0  0  0  0  0  0  0  0  0  0  0  0
   11.5779  -16.2364   19.3576 C   0  0  0  0  0  0  0  0  0  0  0  0
   11.7617  -17.4842   19.3436 O   0  0  0  0  0  0  0  0  0  0  0  0
   19.4839  -13.3274   22.1076 N   0  0  0  0  0  0  0  0  0  0  0  0
   19.3104  -14.5847   22.7526 C   0  0  0  0  0  0  0  0  0  0  0  0
   20.2765  -15.1132   23.4136 N   0  0  0  0  0  0  0  0  0  0  0  0
   18.0766  -15.2796   22.6822 N   0  0  0  0  0  0  0  0  0  0  0  0
   16.9844  -14.6980   21.9070 C   0  0  0  0  0  0  0  0  0  0  0  0
   15.7874  -15.5717   21.8723 C   0  0  0  0  0  0  0  0  0  0  0  0
   14.5935  -15.2265   21.1046 C   0  0  0  0  0  0  0  0  0  0  0  0
   13.4276  -16.1249   21.1027 C   0  0  2  0  0  0  0  0  0  0  0  0
   12.3884  -15.4658   20.2012 N   0  0  0  0  0  0  0  0  0  0  0  0
   12.7245  -16.3629   22.3587 C   0  0  0  0  0  0  0  0  0  0  0  0
   11.6807  -15.8219   22.7583 O   0  0  0  0  0  0  0  0  0  0  0  0
   13.2630  -17.3179   23.2581 O   0  0  0  0  0  0  0  0  0  0  0  0
  2  1  1  6
  2  3  1  0
  4  3  1  0
  4  5  2  0
  6  2  1  0
  6  7  2  0
  8  4  1  0
  9  6  1  0
 10  9  1  0
 11 12  1  0
 10 11  1  1
 12 13  2  0
 12 16  1  0
 13 14  1  0
 14 15  1  0
 16 15  2  0
 17 10  1  0
 18 17  2  0
 19 20  1  0
 20 21  2  0
 22 20  1  0
 23 22  1  0
 24 23  1  0
 25 24  1  0
 26 25  1  1
 26 27  1  0
 27 17  1  0
 28 26  1  0
 29 28  2  0
 30 28  1  0
M  END
$$$$
