DHR.pdb
     RDKit          3D

 30 30  0  0  1  0  0  0  0  0999 V2000
   10.4238  -17.5711   16.1739 N   0  0  0  0  0  0  0  0  0  0  0  0
   11.5952  -16.7375   16.3395 C   0  0  1  0  0  0  0  0  0  0  0  0
   11.6076  -15.7469   15.1890 C   0  0  0  0  0  0  0  0  0  0  0  0
   11.8261  -16.4343   13.8900 C   0  0  0  0  0  0  0  0  0  0  0  0
   12.1177  -15.7123   12.9064 O   0  0  0  0  0  0  0  0  0  0  0  0
   11.5153  -15.9732   17.5876 C   0  0  0  0  0  0  0  0  0  0  0  0
   12.4582  -15.1476   17.8397 O   0  0  0  0  0  0  0  0  0  0  0  0
   11.7274  -17.7891   13.7155 O   0  0  0  0  0  0  0  0  0  0  0  0
   10.4501  -16.1024   18.5259 N   0  0  0  0  0  0  0  0  0  0  0  0
   10.5376  -15.4489   19.7869 C   0  0  1  0  0  0  0  0  0  0  0  0
    9.1890  -15.1977   20.4251 C   0  0  0  0  0  0  0  0  0  0  0  0
    8.4054  -14.1851   19.6942 C   0  0  0  0  0  0  0  0  0  0  0  0
    8.7275  -13.4530   18.5719 C   0  0  0  0  0  0  0  0  0  0  0  0
    7.6818  -12.6344   18.2565 N   0  0  0  0  0  0  0  0  0  0  0  0
    6.7307  -12.8514   19.1607 C   0  0  0  0  0  0  0  0  0  0  0  0
    7.1649  -13.7928   20.0370 N   0  0  0  0  0  0  0  0  0  0  0  0
   11.3547  -16.1936   20.7782 C   0  0  0  0  0  0  0  0  0  0  0  0
   11.3079  -17.4540   20.7712 O   0  0  0  0  0  0  0  0  0  0  0  0
   16.3821  -13.5477   17.6576 N   0  0  0  0  0  0  0  0  0  0  0  0
   16.8983  -13.6989   18.9758 C   0  0  0  0  0  0  0  0  0  0  0  0
   17.4189  -12.6967   19.5874 N   0  0  0  0  0  0  0  0  0  0  0  0
   16.8511  -14.9498   19.6415 N   0  0  0  0  0  0  0  0  0  0  0  0
   16.4160  -14.9897   21.0348 C   0  0  0  0  0  0  0  0  0  0  0  0
   15.0989  -15.6502   21.1974 C   0  0  0  0  0  0  0  0  0  0  0  0
   14.4399  -15.7640   22.4961 C   0  0  0  0  0  0  0  0  0  0  0  0
   13.1170  -16.4003   22.6033 C   0  0  2  0  0  0  0  0  0  0  0  0
   12.1798  -15.5755   21.7267 N   0  0  0  0  0  0  0  0  0  0  0  0
   12.4613  -16.4380   23.9060 C   0  0  0  0  0  0  0  0  0  0  0  0
   11.4646  -15.7946   24.2728 O   0  0  0  0  0  0  0  0  0  0  0  0
   12.9928  -17.2990   24.8996 O   0  0  0  0  0  0  0  0  0  0  0  0
  2  1  1  6
  2  3  1  0
  4  3  1  0
  4  5  2  0
  6  2  1  0
  6  7  2  0
  8  4  1  0
  9  6  1  0
 10  9  1  0
 11 12  1  0
 10 11  1  1
 12 13  2  0
 12 16  1  0
 13 14  1  0
 14 15  1  0
 16 15  2  0
 17 10  1  0
 18 17  2  0
 19 20  1  0
 20 21  2  0
 22 20  1  0
 23 22  1  0
 24 23  1  0
 25 24  1  0
 26 25  1  1
 26 27  1  0
 27 17  1  0
 28 26  1  0
 29 28  2  0
 30 28  1  0
M  END
$$$$
