DHR.pdb
     RDKit          3D

 30 30  0  0  1  0  0  0  0  0999 V2000
    8.3333  -17.1250   19.6852 N   0  0  0  0  0  0  0  0  0  0  0  0
    9.6332  -16.6461   20.1040 C   0  0  1  0  0  0  0  0  0  0  0  0
   10.2071  -15.8399   18.9525 C   0  0  0  0  0  0  0  0  0  0  0  0
   10.0330  -16.5506   17.6594 C   0  0  0  0  0  0  0  0  0  0  0  0
    9.4391  -17.6552   17.6928 O   0  0  0  0  0  0  0  0  0  0  0  0
    9.5090  -15.7519   21.2586 C   0  0  0  0  0  0  0  0  0  0  0  0
   10.5641  -15.1536   21.6626 O   0  0  0  0  0  0  0  0  0  0  0  0
   10.4790  -16.0706   16.4568 O   0  0  0  0  0  0  0  0  0  0  0  0
    8.2834  -15.5176   21.9477 N   0  0  0  0  0  0  0  0  0  0  0  0
    8.3013  -14.8950   23.2271 C   0  0  1  0  0  0  0  0  0  0  0  0
    7.1350  -13.9579   23.4524 C   0  0  0  0  0  0  0  0  0  0  0  0
    7.1501  -13.3618   24.8007 C   0  0  0  0  0  0  0  0  0  0  0  0
    7.5509  -12.1094   25.2135 C   0  0  0  0  0  0  0  0  0  0  0  0
    7.3822  -12.0085   26.5642 N   0  0  0  0  0  0  0  0  0  0  0  0
    6.8881  -13.1702   26.9831 C   0  0  0  0  0  0  0  0  0  0  0  0
    6.7449  -13.9965   25.9156 N   0  0  0  0  0  0  0  0  0  0  0  0
    8.3023  -15.8647   24.3516 C   0  0  0  0  0  0  0  0  0  0  0  0
    7.4690  -16.8113   24.3305 O   0  0  0  0  0  0  0  0  0  0  0  0
   14.5995  -20.6497   23.7393 N   0  0  0  0  0  0  0  0  0  0  0  0
   13.9873  -19.3807   23.5349 C   0  0  0  0  0  0  0  0  0  0  0  0
   14.7084  -18.3395   23.3218 N   0  0  0  0  0  0  0  0  0  0  0  0
   12.5772  -19.2354   23.5611 N   0  0  0  0  0  0  0  0  0  0  0  0
   11.8197  -19.9083   24.6125 C   0  0  0  0  0  0  0  0  0  0  0  0
   11.2486  -18.9571   25.5956 C   0  0  0  0  0  0  0  0  0  0  0  0
   10.5138  -17.7626   25.1870 C   0  0  0  0  0  0  0  0  0  0  0  0
    9.6547  -17.0547   26.1500 C   0  0  2  0  0  0  0  0  0  0  0  0
    9.1793  -15.7902   25.4415 N   0  0  0  0  0  0  0  0  0  0  0  0
   10.2447  -16.5766   27.3956 C   0  0  0  0  0  0  0  0  0  0  0  0
   10.6533  -17.2558   28.3515 O   0  0  0  0  0  0  0  0  0  0  0  0
   10.3875  -15.1773   27.5764 O   0  0  0  0  0  0  0  0  0  0  0  0
  2  1  1  6
  2  3  1  0
  4  3  1  0
  4  5  2  0
  6  2  1  0
  6  7  2  0
  8  4  1  0
  9  6  1  0
 10  9  1  0
 11 12  1  0
 10 11  1  1
 12 13  2  0
 12 16  1  0
 13 14  1  0
 14 15  1  0
 16 15  2  0
 17 10  1  0
 18 17  2  0
 19 20  1  0
 20 21  2  0
 22 20  1  0
 23 22  1  0
 24 23  1  0
 25 24  1  0
 26 25  1  6
 26 27  1  0
 27 17  1  0
 28 26  1  0
 29 28  2  0
 30 28  1  0
M  END
$$$$
