DHR.pdb
     RDKit          3D

 30 30  0  0  1  0  0  0  0  0999 V2000
   14.6829  -22.4444   20.8455 N   0  0  0  0  0  0  0  0  0  0  0  0
   14.9115  -21.0230   20.9932 C   0  0  1  0  0  0  0  0  0  0  0  0
   14.6849  -20.3881   19.6328 C   0  0  0  0  0  0  0  0  0  0  0  0
   15.8236  -20.6577   18.7173 C   0  0  0  0  0  0  0  0  0  0  0  0
   16.6060  -21.5838   19.0400 O   0  0  0  0  0  0  0  0  0  0  0  0
   13.9460  -20.4370   21.9273 C   0  0  0  0  0  0  0  0  0  0  0  0
   14.0568  -19.1912   22.1921 O   0  0  0  0  0  0  0  0  0  0  0  0
   16.0578  -19.9605   17.5620 O   0  0  0  0  0  0  0  0  0  0  0  0
   12.8996  -21.1782   22.5498 N   0  0  0  0  0  0  0  0  0  0  0  0
   12.0478  -20.5394   23.4939 C   0  0  1  0  0  0  0  0  0  0  0  0
   10.5888  -20.5622   23.0942 C   0  0  0  0  0  0  0  0  0  0  0  0
   10.3388  -19.8115   21.8503 C   0  0  0  0  0  0  0  0  0  0  0  0
   10.4873  -18.4685   21.5785 C   0  0  0  0  0  0  0  0  0  0  0  0
   10.1325  -18.2327   20.2817 N   0  0  0  0  0  0  0  0  0  0  0  0
    9.7717  -19.4009   19.7580 C   0  0  0  0  0  0  0  0  0  0  0  0
    9.8950  -20.3640   20.7066 N   0  0  0  0  0  0  0  0  0  0  0  0
   12.1342  -21.1280   24.8545 C   0  0  0  0  0  0  0  0  0  0  0  0
   11.9707  -22.3719   24.9833 O   0  0  0  0  0  0  0  0  0  0  0  0
   19.1530  -20.0900   27.7977 N   0  0  0  0  0  0  0  0  0  0  0  0
   18.3721  -20.2707   28.9744 C   0  0  0  0  0  0  0  0  0  0  0  0
   18.9432  -20.4252   30.1143 N   0  0  0  0  0  0  0  0  0  0  0  0
   16.9555  -20.2844   28.9180 N   0  0  0  0  0  0  0  0  0  0  0  0
   16.3013  -20.1420   27.6203 C   0  0  0  0  0  0  0  0  0  0  0  0
   14.8262  -20.0537   27.7370 C   0  0  0  0  0  0  0  0  0  0  0  0
   13.9631  -21.2247   27.6043 C   0  0  0  0  0  0  0  0  0  0  0  0
   12.5195  -21.0593   27.3696 C   0  0  2  0  0  0  0  0  0  0  0  0
   12.3882  -20.3789   26.0106 N   0  0  0  0  0  0  0  0  0  0  0  0
   11.7545  -20.2125   28.2785 C   0  0  0  0  0  0  0  0  0  0  0  0
   11.2216  -19.1190   28.0292 O   0  0  0  0  0  0  0  0  0  0  0  0
   11.5738  -20.6539   29.6140 O   0  0  0  0  0  0  0  0  0  0  0  0
  2  1  1  6
  2  3  1  0
  4  3  1  0
  4  5  2  0
  6  2  1  0
  6  7  2  0
  8  4  1  0
  9  6  1  0
 10  9  1  0
 11 12  1  0
 10 11  1  6
 12 13  2  0
 12 16  1  0
 13 14  1  0
 14 15  1  0
 16 15  2  0
 17 10  1  0
 18 17  2  0
 19 20  1  0
 20 21  2  0
 22 20  1  0
 23 22  1  0
 24 23  1  0
 25 24  1  0
 26 25  1  1
 26 27  1  0
 27 17  1  0
 28 26  1  0
 29 28  2  0
 30 28  1  0
M  END
$$$$
