DHR.pdb
     RDKit          3D

 30 30  0  0  1  0  0  0  0  0999 V2000
   10.0060  -18.3208   18.0596 N   0  0  0  0  0  0  0  0  0  0  0  0
   11.0809  -17.4078   18.3843 C   0  0  1  0  0  0  0  0  0  0  0  0
   11.2906  -16.5133   17.1755 C   0  0  0  0  0  0  0  0  0  0  0  0
   11.7163  -17.3020   15.9905 C   0  0  0  0  0  0  0  0  0  0  0  0
   11.7930  -18.5461   16.1328 O   0  0  0  0  0  0  0  0  0  0  0  0
   10.7108  -16.5525   19.5155 C   0  0  0  0  0  0  0  0  0  0  0  0
   11.5041  -15.5984   19.8231 O   0  0  0  0  0  0  0  0  0  0  0  0
   12.0230  -16.7508   14.7749 O   0  0  0  0  0  0  0  0  0  0  0  0
    9.5226  -16.7285   20.2830 N   0  0  0  0  0  0  0  0  0  0  0  0
    9.2628  -15.8704   21.3880 C   0  0  1  0  0  0  0  0  0  0  0  0
    7.9426  -15.1394   21.2800 C   0  0  0  0  0  0  0  0  0  0  0  0
    7.8489  -14.3350   20.0482 C   0  0  0  0  0  0  0  0  0  0  0  0
    8.1124  -12.9986   19.8381 C   0  0  0  0  0  0  0  0  0  0  0  0
    7.8829  -12.6984   18.5265 N   0  0  0  0  0  0  0  0  0  0  0  0
    7.4859  -13.8208   17.9335 C   0  0  0  0  0  0  0  0  0  0  0  0
    7.4634  -14.8188   18.8534 N   0  0  0  0  0  0  0  0  0  0  0  0
    9.2613  -16.5786   22.6932 C   0  0  0  0  0  0  0  0  0  0  0  0
    8.6006  -17.6479   22.7966 O   0  0  0  0  0  0  0  0  0  0  0  0
   15.2731  -21.0171   25.2425 N   0  0  0  0  0  0  0  0  0  0  0  0
   14.2686  -21.2247   24.2552 C   0  0  0  0  0  0  0  0  0  0  0  0
   14.2144  -22.3327   23.6081 N   0  0  0  0  0  0  0  0  0  0  0  0
   13.3102  -20.2213   23.9636 N   0  0  0  0  0  0  0  0  0  0  0  0
   13.4693  -18.9001   24.5645 C   0  0  0  0  0  0  0  0  0  0  0  0
   12.3995  -17.9595   24.1544 C   0  0  0  0  0  0  0  0  0  0  0  0
   10.9992  -18.1680   24.5146 C   0  0  0  0  0  0  0  0  0  0  0  0
   10.1880  -17.0474   25.0171 C   0  0  2  0  0  0  0  0  0  0  0  0
    9.9546  -16.1267   23.8234 N   0  0  0  0  0  0  0  0  0  0  0  0
   10.7528  -16.1790   26.0444 C   0  0  0  0  0  0  0  0  0  0  0  0
   11.1757  -15.0194   25.9093 O   0  0  0  0  0  0  0  0  0  0  0  0
   10.8474  -16.6796   27.3679 O   0  0  0  0  0  0  0  0  0  0  0  0
  2  1  1  6
  2  3  1  0
  4  3  1  0
  4  5  2  0
  6  2  1  0
  6  7  2  0
  8  4  1  0
  9  6  1  0
 10  9  1  0
 11 12  1  0
 10 11  1  6
 12 13  2  0
 12 16  1  0
 13 14  1  0
 14 15  1  0
 16 15  2  0
 17 10  1  0
 18 17  2  0
 19 20  1  0
 20 21  2  0
 22 20  1  0
 23 22  1  0
 24 23  1  0
 25 24  1  0
 26 25  1  6
 26 27  1  0
 27 17  1  0
 28 26  1  0
 29 28  2  0
 30 28  1  0
M  END
$$$$
