DHR.pdb
     RDKit          3D

 30 30  0  0  1  0  0  0  0  0999 V2000
    9.8539  -18.4161   20.1172 N   0  0  0  0  0  0  0  0  0  0  0  0
   10.8738  -17.4873   20.5552 C   0  0  1  0  0  0  0  0  0  0  0  0
   11.5462  -16.9387   19.3094 C   0  0  0  0  0  0  0  0  0  0  0  0
   12.2572  -18.0108   18.5659 C   0  0  0  0  0  0  0  0  0  0  0  0
   12.0130  -19.1945   18.9025 O   0  0  0  0  0  0  0  0  0  0  0  0
   10.2737  -16.3595   21.2737 C   0  0  0  0  0  0  0  0  0  0  0  0
   11.0556  -15.4393   21.6937 O   0  0  0  0  0  0  0  0  0  0  0  0
   13.1477  -17.7772   17.5520 O   0  0  0  0  0  0  0  0  0  0  0  0
    8.8761  -16.2373   21.5257 N   0  0  0  0  0  0  0  0  0  0  0  0
    8.3972  -15.1785   22.3470 C   0  0  1  0  0  0  0  0  0  0  0  0
    7.1508  -14.5162   21.8024 C   0  0  0  0  0  0  0  0  0  0  0  0
    7.3500  -13.9847   20.4418 C   0  0  0  0  0  0  0  0  0  0  0  0
    6.8626  -14.4331   19.2331 C   0  0  0  0  0  0  0  0  0  0  0  0
    7.3165  -13.6172   18.2374 N   0  0  0  0  0  0  0  0  0  0  0  0
    8.0688  -12.6828   18.8120 C   0  0  0  0  0  0  0  0  0  0  0  0
    8.0927  -12.9011   20.1515 N   0  0  0  0  0  0  0  0  0  0  0  0
    8.0901  -15.6060   23.7355 C   0  0  0  0  0  0  0  0  0  0  0  0
    7.1862  -16.4673   23.9138 O   0  0  0  0  0  0  0  0  0  0  0  0
   13.4477  -21.1645   25.0825 N   0  0  0  0  0  0  0  0  0  0  0  0
   12.6559  -21.2672   26.2612 C   0  0  0  0  0  0  0  0  0  0  0  0
   12.7155  -22.3210   26.9929 N   0  0  0  0  0  0  0  0  0  0  0  0
   11.7882  -20.2168   26.6540 N   0  0  0  0  0  0  0  0  0  0  0  0
   11.2791  -19.3055   25.6331 C   0  0  0  0  0  0  0  0  0  0  0  0
   10.5121  -18.1775   26.2135 C   0  0  0  0  0  0  0  0  0  0  0  0
    9.9383  -17.1188   25.3865 C   0  0  0  0  0  0  0  0  0  0  0  0
    9.1595  -16.0341   26.0054 C   0  0  2  0  0  0  0  0  0  0  0  0
    8.7489  -15.1062   24.8663 N   0  0  0  0  0  0  0  0  0  0  0  0
    9.8190  -15.1603   26.9698 C   0  0  0  0  0  0  0  0  0  0  0  0
    9.8204  -15.2604   28.2074 O   0  0  0  0  0  0  0  0  0  0  0  0
   10.5571  -14.0541   26.4772 O   0  0  0  0  0  0  0  0  0  0  0  0
  2  1  1  6
  2  3  1  0
  4  3  1  0
  4  5  2  0
  6  2  1  0
  6  7  2  0
  8  4  1  0
  9  6  1  0
 10  9  1  0
 11 12  1  0
 10 11  1  6
 12 13  2  0
 12 16  1  0
 13 14  1  0
 14 15  1  0
 16 15  2  0
 17 10  1  0
 18 17  2  0
 19 20  1  0
 20 21  2  0
 22 20  1  0
 23 22  1  0
 24 23  1  0
 25 24  1  0
 26 25  1  6
 26 27  1  0
 27 17  1  0
 28 26  1  0
 29 28  2  0
 30 28  1  0
M  END
$$$$
