DHR.pdb
     RDKit          3D

 30 30  0  0  1  0  0  0  0  0999 V2000
    7.1797  -18.7711   19.5395 N   0  0  0  0  0  0  0  0  0  0  0  0
    8.6201  -18.6709   19.4411 C   0  0  1  0  0  0  0  0  0  0  0  0
    8.9706  -18.6754   17.9639 C   0  0  0  0  0  0  0  0  0  0  0  0
    8.0960  -19.6078   17.2067 C   0  0  0  0  0  0  0  0  0  0  0  0
    7.6912  -19.2224   16.0835 O   0  0  0  0  0  0  0  0  0  0  0  0
    9.0916  -17.4048   20.0093 C   0  0  0  0  0  0  0  0  0  0  0  0
   10.3270  -17.1111   19.8614 O   0  0  0  0  0  0  0  0  0  0  0  0
    7.7169  -20.8420   17.6635 O   0  0  0  0  0  0  0  0  0  0  0  0
    8.2510  -16.4928   20.7118 N   0  0  0  0  0  0  0  0  0  0  0  0
    8.8199  -15.3497   21.3401 C   0  0  1  0  0  0  0  0  0  0  0  0
    7.9974  -14.0936   21.1539 C   0  0  0  0  0  0  0  0  0  0  0  0
    7.9604  -13.6538   19.7472 C   0  0  0  0  0  0  0  0  0  0  0  0
    8.6200  -14.1507   18.6439 C   0  0  0  0  0  0  0  0  0  0  0  0
    8.2718  -13.4171   17.5467 N   0  0  0  0  0  0  0  0  0  0  0  0
    7.4157  -12.4854   17.9567 C   0  0  0  0  0  0  0  0  0  0  0  0
    7.2227  -12.6244   19.2932 N   0  0  0  0  0  0  0  0  0  0  0  0
    9.0227  -15.5231   22.8008 C   0  0  0  0  0  0  0  0  0  0  0  0
    8.0069  -15.6281   23.5410 O   0  0  0  0  0  0  0  0  0  0  0  0
    7.8405  -19.0119   28.0853 N   0  0  0  0  0  0  0  0  0  0  0  0
    7.8949  -20.2058   27.3115 C   0  0  0  0  0  0  0  0  0  0  0  0
    7.7129  -21.3485   27.8686 N   0  0  0  0  0  0  0  0  0  0  0  0
    8.1492  -20.1636   25.9173 N   0  0  0  0  0  0  0  0  0  0  0  0
    9.5286  -20.0316   25.4571 C   0  0  0  0  0  0  0  0  0  0  0  0
   10.0462  -18.6509   25.6097 C   0  0  0  0  0  0  0  0  0  0  0  0
    9.9263  -17.6528   24.5499 C   0  0  0  0  0  0  0  0  0  0  0  0
   10.4795  -16.3018   24.7375 C   0  0  2  0  0  0  0  0  0  0  0  0
   10.2833  -15.5773   23.4095 N   0  0  0  0  0  0  0  0  0  0  0  0
   11.9030  -16.1613   25.0244 C   0  0  0  0  0  0  0  0  0  0  0  0
   12.8208  -15.9363   24.2189 O   0  0  0  0  0  0  0  0  0  0  0  0
   12.3316  -16.2890   26.3701 O   0  0  0  0  0  0  0  0  0  0  0  0
  2  1  1  6
  2  3  1  0
  4  3  1  0
  4  5  2  0
  6  2  1  0
  6  7  2  0
  8  4  1  0
  9  6  1  0
 10  9  1  0
 11 12  1  0
 10 11  1  1
 12 13  2  0
 12 16  1  0
 13 14  1  0
 14 15  1  0
 16 15  2  0
 17 10  1  0
 18 17  2  0
 19 20  1  0
 20 21  2  0
 22 20  1  0
 23 22  1  0
 24 23  1  0
 25 24  1  0
 26 25  1  6
 26 27  1  0
 27 17  1  0
 28 26  1  0
 29 28  2  0
 30 28  1  0
M  END
$$$$
