DHR.pdb
     RDKit          3D

 30 30  0  0  1  0  0  0  0  0999 V2000
    8.1332  -18.2797   17.5262 N   0  0  0  0  0  0  0  0  0  0  0  0
    9.3685  -17.5301   17.4447 C   0  0  1  0  0  0  0  0  0  0  0  0
    9.1481  -16.4087   16.4452 C   0  0  0  0  0  0  0  0  0  0  0  0
    8.8262  -16.9453   15.0976 C   0  0  0  0  0  0  0  0  0  0  0  0
    8.5440  -18.1655   15.0237 O   0  0  0  0  0  0  0  0  0  0  0  0
    9.6911  -16.9203   18.7379 C   0  0  0  0  0  0  0  0  0  0  0  0
   10.7591  -16.2220   18.8153 O   0  0  0  0  0  0  0  0  0  0  0  0
    8.8221  -16.1906   13.9548 O   0  0  0  0  0  0  0  0  0  0  0  0
    8.8824  -17.0648   19.9028 N   0  0  0  0  0  0  0  0  0  0  0  0
    9.2596  -16.4109   21.1091 C   0  0  1  0  0  0  0  0  0  0  0  0
    8.1797  -15.5071   21.6623 C   0  0  0  0  0  0  0  0  0  0  0  0
    7.8589  -14.3961   20.7479 C   0  0  0  0  0  0  0  0  0  0  0  0
    6.7482  -14.1878   19.9590 C   0  0  0  0  0  0  0  0  0  0  0  0
    6.8965  -13.0135   19.2790 N   0  0  0  0  0  0  0  0  0  0  0  0
    8.0715  -12.5024   19.6358 C   0  0  0  0  0  0  0  0  0  0  0  0
    8.6608  -13.3384   20.5283 N   0  0  0  0  0  0  0  0  0  0  0  0
    9.6354  -17.3525   22.1941 C   0  0  0  0  0  0  0  0  0  0  0  0
    8.8606  -18.3138   22.4515 O   0  0  0  0  0  0  0  0  0  0  0  0
   17.3491  -21.1175   24.0055 N   0  0  0  0  0  0  0  0  0  0  0  0
   16.2489  -21.4578   23.1684 C   0  0  0  0  0  0  0  0  0  0  0  0
   16.4218  -22.2154   22.1459 N   0  0  0  0  0  0  0  0  0  0  0  0
   14.9446  -20.9727   23.4404 N   0  0  0  0  0  0  0  0  0  0  0  0
   14.3673  -19.9690   22.5509 C   0  0  0  0  0  0  0  0  0  0  0  0
   12.9525  -19.6703   22.8775 C   0  0  0  0  0  0  0  0  0  0  0  0
   12.5754  -18.6072   23.8057 C   0  0  0  0  0  0  0  0  0  0  0  0
   11.1570  -18.2739   24.0147 C   0  0  2  0  0  0  0  0  0  0  0  0
   10.8067  -17.2356   22.9535 N   0  0  0  0  0  0  0  0  0  0  0  0
   10.7610  -17.6566   25.2758 C   0  0  0  0  0  0  0  0  0  0  0  0
   10.6273  -16.4463   25.5192 O   0  0  0  0  0  0  0  0  0  0  0  0
   10.4863  -18.5032   26.3798 O   0  0  0  0  0  0  0  0  0  0  0  0
  2  1  1  1
  2  3  1  0
  4  3  1  0
  4  5  2  0
  6  2  1  0
  6  7  2  0
  8  4  1  0
  9  6  1  0
 10  9  1  0
 11 12  1  0
 10 11  1  1
 12 13  2  0
 12 16  1  0
 13 14  1  0
 14 15  1  0
 16 15  2  0
 17 10  1  0
 18 17  2  0
 19 20  1  0
 20 21  2  0
 22 20  1  0
 23 22  1  0
 24 23  1  0
 25 24  1  0
 26 25  1  1
 26 27  1  0
 27 17  1  0
 28 26  1  0
 29 28  2  0
 30 28  1  0
M  END
$$$$
