DHR.pdb
     RDKit          3D

 30 30  0  0  1  0  0  0  0  0999 V2000
    9.6311  -15.8067   19.4201 N   0  0  0  0  0  0  0  0  0  0  0  0
    8.3490  -15.9606   20.0738 C   0  0  1  0  0  0  0  0  0  0  0  0
    8.0082  -17.4399   20.0510 C   0  0  0  0  0  0  0  0  0  0  0  0
    7.9001  -17.9454   18.6581 C   0  0  0  0  0  0  0  0  0  0  0  0
    7.4854  -17.1390   17.7910 O   0  0  0  0  0  0  0  0  0  0  0  0
    8.4283  -15.5408   21.4758 C   0  0  0  0  0  0  0  0  0  0  0  0
    9.3783  -16.0179   22.1858 O   0  0  0  0  0  0  0  0  0  0  0  0
    8.2237  -19.2213   18.2801 O   0  0  0  0  0  0  0  0  0  0  0  0
    7.5088  -14.6361   22.0824 N   0  0  0  0  0  0  0  0  0  0  0  0
    7.6550  -14.2974   23.4568 C   0  0  1  0  0  0  0  0  0  0  0  0
    6.7335  -13.1820   23.8991 C   0  0  0  0  0  0  0  0  0  0  0  0
    6.9568  -12.7975   25.3047 C   0  0  0  0  0  0  0  0  0  0  0  0
    7.6889  -11.7573   25.8351 C   0  0  0  0  0  0  0  0  0  0  0  0
    7.6048  -11.7999   27.1968 N   0  0  0  0  0  0  0  0  0  0  0  0
    6.8386  -12.8419   27.5074 C   0  0  0  0  0  0  0  0  0  0  0  0
    6.4419  -13.4519   26.3614 N   0  0  0  0  0  0  0  0  0  0  0  0
    7.4199  -15.4431   24.3716 C   0  0  0  0  0  0  0  0  0  0  0  0
    6.3020  -16.0257   24.3312 O   0  0  0  0  0  0  0  0  0  0  0  0
    4.8923  -22.6567   24.1151 N   0  0  0  0  0  0  0  0  0  0  0  0
    5.5999  -22.7504   25.3470 C   0  0  0  0  0  0  0  0  0  0  0  0
    5.3039  -23.6667   26.1968 N   0  0  0  0  0  0  0  0  0  0  0  0
    6.6410  -21.8417   25.6643 N   0  0  0  0  0  0  0  0  0  0  0  0
    6.6275  -20.5151   25.0543 C   0  0  0  0  0  0  0  0  0  0  0  0
    7.6767  -19.6268   25.6088 C   0  0  0  0  0  0  0  0  0  0  0  0
    7.8594  -18.2537   25.1449 C   0  0  0  0  0  0  0  0  0  0  0  0
    8.1040  -17.1708   26.1113 C   0  0  2  0  0  0  0  0  0  0  0  0
    8.3720  -15.9183   25.2827 N   0  0  0  0  0  0  0  0  0  0  0  0
    9.2547  -17.2736   27.0023 C   0  0  0  0  0  0  0  0  0  0  0  0
   10.3631  -16.7284   26.8761 O   0  0  0  0  0  0  0  0  0  0  0  0
    9.1349  -18.0811   28.1618 O   0  0  0  0  0  0  0  0  0  0  0  0
  2  1  1  1
  2  3  1  0
  4  3  1  0
  4  5  2  0
  6  2  1  0
  6  7  2  0
  8  4  1  0
  9  6  1  0
 10  9  1  0
 11 12  1  0
 10 11  1  1
 12 13  2  0
 12 16  1  0
 13 14  1  0
 14 15  1  0
 16 15  2  0
 17 10  1  0
 18 17  2  0
 19 20  1  0
 20 21  2  0
 22 20  1  0
 23 22  1  0
 24 23  1  0
 25 24  1  0
 26 25  1  6
 26 27  1  0
 27 17  1  0
 28 26  1  0
 29 28  2  0
 30 28  1  0
M  END
$$$$
