DHR.pdb
     RDKit          3D

 30 30  0  0  1  0  0  0  0  0999 V2000
   13.1799  -16.5537   18.5447 N   0  0  0  0  0  0  0  0  0  0  0  0
   13.6069  -15.3715   19.2620 C   0  0  1  0  0  0  0  0  0  0  0  0
   13.8240  -14.2762   18.2333 C   0  0  0  0  0  0  0  0  0  0  0  0
   15.0607  -14.5159   17.4456 C   0  0  0  0  0  0  0  0  0  0  0  0
   15.0807  -15.5352   16.7143 O   0  0  0  0  0  0  0  0  0  0  0  0
   12.5615  -14.9190   20.1843 C   0  0  0  0  0  0  0  0  0  0  0  0
   12.7745  -13.8435   20.8418 O   0  0  0  0  0  0  0  0  0  0  0  0
   16.1580  -13.6971   17.4765 O   0  0  0  0  0  0  0  0  0  0  0  0
   11.3309  -15.6102   20.3837 N   0  0  0  0  0  0  0  0  0  0  0  0
   10.4723  -15.2282   21.4522 C   0  0  1  0  0  0  0  0  0  0  0  0
    9.0035  -15.3773   21.1214 C   0  0  0  0  0  0  0  0  0  0  0  0
    8.5703  -14.4405   20.0686 C   0  0  0  0  0  0  0  0  0  0  0  0
    8.3957  -14.6432   18.7167 C   0  0  0  0  0  0  0  0  0  0  0  0
    7.9812  -13.4777   18.1396 N   0  0  0  0  0  0  0  0  0  0  0  0
    7.8995  -12.5705   19.1089 C   0  0  0  0  0  0  0  0  0  0  0  0
    8.2564  -13.1500   20.2834 N   0  0  0  0  0  0  0  0  0  0  0  0
   10.7154  -15.9922   22.7020 C   0  0  0  0  0  0  0  0  0  0  0  0
   11.1990  -17.1536   22.6128 O   0  0  0  0  0  0  0  0  0  0  0  0
   12.0398  -19.1515   28.7515 N   0  0  0  0  0  0  0  0  0  0  0  0
   11.8901  -18.2819   29.8687 C   0  0  0  0  0  0  0  0  0  0  0  0
   12.3475  -18.6205   31.0201 N   0  0  0  0  0  0  0  0  0  0  0  0
   11.2373  -17.0298   29.7396 N   0  0  0  0  0  0  0  0  0  0  0  0
   10.5226  -16.7331   28.5015 C   0  0  0  0  0  0  0  0  0  0  0  0
   11.2121  -15.7083   27.6819 C   0  0  0  0  0  0  0  0  0  0  0  0
   10.7413  -15.3286   26.3522 C   0  0  0  0  0  0  0  0  0  0  0  0
   10.8537  -16.2724   25.2282 C   0  0  2  0  0  0  0  0  0  0  0  0
   10.4377  -15.4964   23.9825 N   0  0  0  0  0  0  0  0  0  0  0  0
   10.0041  -17.4583   25.2217 C   0  0  0  0  0  0  0  0  0  0  0  0
   10.2875  -18.5970   25.6278 O   0  0  0  0  0  0  0  0  0  0  0  0
    8.6912  -17.3398   24.6989 O   0  0  0  0  0  0  0  0  0  0  0  0
  2  1  1  6
  2  3  1  0
  4  3  1  0
  4  5  2  0
  6  2  1  0
  6  7  2  0
  8  4  1  0
  9  6  1  0
 10  9  1  0
 11 12  1  0
 10 11  1  6
 12 13  2  0
 12 16  1  0
 13 14  1  0
 14 15  1  0
 16 15  2  0
 17 10  1  0
 18 17  2  0
 19 20  1  0
 20 21  2  0
 22 20  1  0
 23 22  1  0
 24 23  1  0
 25 24  1  0
 26 25  1  1
 26 27  1  0
 27 17  1  0
 28 26  1  0
 29 28  2  0
 30 28  1  0
M  END
$$$$
