DHR.pdb
     RDKit          3D

 30 30  0  0  1  0  0  0  0  0999 V2000
   12.6619  -15.6707   17.9710 N   0  0  0  0  0  0  0  0  0  0  0  0
   13.2571  -15.2259   19.2129 C   0  0  1  0  0  0  0  0  0  0  0  0
   13.9288  -13.8926   18.9366 C   0  0  0  0  0  0  0  0  0  0  0  0
   15.0104  -14.0343   17.9279 C   0  0  0  0  0  0  0  0  0  0  0  0
   15.6150  -15.1330   17.8927 O   0  0  0  0  0  0  0  0  0  0  0  0
   12.2269  -15.0057   20.2319 C   0  0  0  0  0  0  0  0  0  0  0  0
   12.5860  -14.4621   21.3317 O   0  0  0  0  0  0  0  0  0  0  0  0
   15.3736  -13.0462   17.0520 O   0  0  0  0  0  0  0  0  0  0  0  0
   10.8577  -15.3635   20.0608 N   0  0  0  0  0  0  0  0  0  0  0  0
    9.9340  -15.1464   21.1212 C   0  0  1  0  0  0  0  0  0  0  0  0
    8.4969  -15.0648   20.6551 C   0  0  0  0  0  0  0  0  0  0  0  0
    8.3435  -14.2068   19.4660 C   0  0  0  0  0  0  0  0  0  0  0  0
    8.1156  -12.8508   19.3728 C   0  0  0  0  0  0  0  0  0  0  0  0
    8.0458  -12.4985   18.0559 N   0  0  0  0  0  0  0  0  0  0  0  0
    8.2260  -13.6085   17.3456 C   0  0  0  0  0  0  0  0  0  0  0  0
    8.4074  -14.6499   18.1972 N   0  0  0  0  0  0  0  0  0  0  0  0
    9.9904  -16.1939   22.1721 C   0  0  0  0  0  0  0  0  0  0  0  0
   10.4225  -17.3369   21.8597 O   0  0  0  0  0  0  0  0  0  0  0  0
   15.7282  -17.9734   21.9915 N   0  0  0  0  0  0  0  0  0  0  0  0
   15.6694  -16.9027   22.9281 C   0  0  0  0  0  0  0  0  0  0  0  0
   16.6990  -16.1629   23.1329 N   0  0  0  0  0  0  0  0  0  0  0  0
   14.4819  -16.6283   23.6526 N   0  0  0  0  0  0  0  0  0  0  0  0
   14.0696  -17.5531   24.7045 C   0  0  0  0  0  0  0  0  0  0  0  0
   12.5965  -17.6976   24.7854 C   0  0  0  0  0  0  0  0  0  0  0  0
   11.6881  -16.5953   24.4794 C   0  0  0  0  0  0  0  0  0  0  0  0
   10.2349  -16.7653   24.6405 C   0  0  2  0  0  0  0  0  0  0  0  0
    9.5898  -15.9867   23.4984 N   0  0  0  0  0  0  0  0  0  0  0  0
    9.5979  -16.2440   25.8449 C   0  0  0  0  0  0  0  0  0  0  0  0
    9.0962  -15.1205   26.0124 O   0  0  0  0  0  0  0  0  0  0  0  0
    9.5208  -17.0880   26.9819 O   0  0  0  0  0  0  0  0  0  0  0  0
  2  1  1  6
  2  3  1  0
  4  3  1  0
  4  5  2  0
  6  2  1  0
  6  7  2  0
  8  4  1  0
  9  6  1  0
 10  9  1  0
 11 12  1  0
 10 11  1  6
 12 13  2  0
 12 16  1  0
 13 14  1  0
 14 15  1  0
 16 15  2  0
 17 10  1  0
 18 17  2  0
 19 20  1  0
 20 21  2  0
 22 20  1  0
 23 22  1  0
 24 23  1  0
 25 24  1  0
 26 25  1  1
 26 27  1  0
 27 17  1  0
 28 26  1  0
 29 28  2  0
 30 28  1  0
M  END
$$$$
