DHR.pdb
     RDKit          3D

 30 30  0  0  1  0  0  0  0  0999 V2000
    9.9140  -18.3116   20.6834 N   0  0  0  0  0  0  0  0  0  0  0  0
   10.9021  -17.3339   21.0861 C   0  0  1  0  0  0  0  0  0  0  0  0
   11.5698  -16.8235   19.8217 C   0  0  0  0  0  0  0  0  0  0  0  0
   12.1016  -17.9445   19.0044 C   0  0  0  0  0  0  0  0  0  0  0  0
   13.2482  -18.3645   19.2923 O   0  0  0  0  0  0  0  0  0  0  0  0
   10.2627  -16.1926   21.7470 C   0  0  0  0  0  0  0  0  0  0  0  0
   11.0217  -15.2818   22.2254 O   0  0  0  0  0  0  0  0  0  0  0  0
   11.4172  -18.5310   17.9732 O   0  0  0  0  0  0  0  0  0  0  0  0
    8.8512  -16.0476   21.8823 N   0  0  0  0  0  0  0  0  0  0  0  0
    8.3214  -14.9378   22.5983 C   0  0  1  0  0  0  0  0  0  0  0  0
    7.1272  -14.3034   21.9197 C   0  0  0  0  0  0  0  0  0  0  0  0
    7.4028  -13.9572   20.5134 C   0  0  0  0  0  0  0  0  0  0  0  0
    6.9682  -14.5550   19.3502 C   0  0  0  0  0  0  0  0  0  0  0  0
    7.4850  -13.8817   18.2812 N   0  0  0  0  0  0  0  0  0  0  0  0
    8.2239  -12.8880   18.7668 C   0  0  0  0  0  0  0  0  0  0  0  0
    8.1776  -12.9290   20.1229 N   0  0  0  0  0  0  0  0  0  0  0  0
    7.9043  -15.2775   23.9823 C   0  0  0  0  0  0  0  0  0  0  0  0
    6.6842  -15.1756   24.2851 O   0  0  0  0  0  0  0  0  0  0  0  0
    5.6950  -22.6785   24.6968 N   0  0  0  0  0  0  0  0  0  0  0  0
    5.7992  -22.4061   26.0904 C   0  0  0  0  0  0  0  0  0  0  0  0
    5.4361  -23.2862   26.9523 N   0  0  0  0  0  0  0  0  0  0  0  0
    6.3027  -21.1659   26.5582 N   0  0  0  0  0  0  0  0  0  0  0  0
    6.6082  -20.1190   25.5872 C   0  0  0  0  0  0  0  0  0  0  0  0
    7.2483  -18.9370   26.2123 C   0  0  0  0  0  0  0  0  0  0  0  0
    7.6911  -17.7861   25.4291 C   0  0  0  0  0  0  0  0  0  0  0  0
    8.3227  -16.6351   26.0945 C   0  0  2  0  0  0  0  0  0  0  0  0
    8.7911  -15.7071   24.9780 N   0  0  0  0  0  0  0  0  0  0  0  0
    9.5137  -16.8619   26.9059 C   0  0  0  0  0  0  0  0  0  0  0  0
   10.6999  -16.8184   26.5414 O   0  0  0  0  0  0  0  0  0  0  0  0
    9.3407  -17.1707   28.2792 O   0  0  0  0  0  0  0  0  0  0  0  0
  2  1  1  6
  2  3  1  0
  4  3  1  0
  4  5  2  0
  6  2  1  0
  6  7  2  0
  8  4  1  0
  9  6  1  0
 10  9  1  0
 11 12  1  0
 10 11  1  6
 12 13  2  0
 12 16  1  0
 13 14  1  0
 14 15  1  0
 16 15  2  0
 17 10  1  0
 18 17  2  0
 19 20  1  0
 20 21  2  0
 22 20  1  0
 23 22  1  0
 24 23  1  0
 25 24  1  0
 26 25  1  6
 26 27  1  0
 27 17  1  0
 28 26  1  0
 29 28  2  0
 30 28  1  0
M  END
$$$$
