CEP.pdb
     RDKit          3D

 23 23  0  0  1  0  0  0  0  0999 V2000
    6.8712  -15.2371   19.1546 N   0  0  0  0  0  0  0  0  0  0  0  0
    7.8141  -14.6238   20.0739 C   0  0  1  0  0  0  0  0  0  0  0  0
    8.0060  -13.1470   19.8166 C   0  0  0  0  0  0  0  0  0  0  0  0
    8.8389  -12.8347   18.2462 S   0  0  0  0  0  0  0  0  0  0  0  0
    7.3026  -14.7913   21.4503 C   0  0  0  0  0  0  0  0  0  0  0  0
    6.1470  -14.3567   21.7855 O   0  0  0  0  0  0  0  0  0  0  0  0
    8.1044  -15.4447   22.4226 N   0  0  0  0  0  0  0  0  0  0  0  0
    7.6628  -15.6660   23.7976 C   0  0  1  0  0  0  0  0  0  0  0  0
    7.6231  -17.1227   24.1198 C   0  0  0  0  0  0  0  0  0  0  0  0
    7.2815  -17.3045   25.5958 C   0  0  0  0  0  0  0  0  0  0  0  0
    7.3315  -18.7503   25.8706 C   0  0  0  0  0  0  0  0  0  0  0  0
    6.6956  -19.1781   26.8849 O   0  0  0  0  0  0  0  0  0  0  0  0
    8.4832  -14.8862   24.7564 C   0  0  0  0  0  0  0  0  0  0  0  0
    9.7338  -14.8680   24.4995 O   0  0  0  0  0  0  0  0  0  0  0  0
    8.0353  -19.6597   25.0768 O   0  0  0  0  0  0  0  0  0  0  0  0
    8.0100  -14.1888   25.8742 N   0  0  0  0  0  0  0  0  0  0  0  0
    6.6539  -13.9692   26.2890 C   0  0  0  0  0  0  0  0  0  0  0  0
    6.6834  -12.6810   27.1293 C   0  0  0  0  0  0  0  0  0  0  0  0
    8.0791  -12.1808   26.8679 C   0  0  0  0  0  0  0  0  0  0  0  0
    8.8448  -13.5159   26.8602 C   0  0  1  0  0  0  0  0  0  0  0  0
    8.7426  -14.1198   28.2036 C   0  0  0  0  0  0  0  0  0  0  0  0
    7.8828  -15.2162   28.3529 O   0  0  0  0  0  0  0  0  0  0  0  0
    9.3658  -13.7289   29.2249 O   0  0  0  0  0  0  0  0  0  0  0  0
  2  5  1  0
  2  1  1  6
  2  3  1  0
  4  3  1  0
  5  6  2  0
  7  8  1  0
  7  5  1  0
  8 13  1  0
  8  9  1  1
 10  9  1  0
 10 11  1  0
 11 15  1  0
 11 12  2  0
 13 14  2  0
 13 16  1  0
 16 20  1  0
 16 17  1  0
 17 18  1  0
 19 18  1  0
 20 19  1  0
 21 22  1  0
 20 21  1  1
 23 21  2  0
M  END
$$$$
