CEP.pdb
     RDKit          3D

 23 23  0  0  1  0  0  0  0  0999 V2000
    7.5430  -15.1786   18.8701 N   0  0  0  0  0  0  0  0  0  0  0  0
    7.9849  -14.2771   19.9200 C   0  0  1  0  0  0  0  0  0  0  0  0
    7.5939  -12.8404   19.6606 C   0  0  0  0  0  0  0  0  0  0  0  0
    8.7713  -12.0016   18.5802 S   0  0  0  0  0  0  0  0  0  0  0  0
    7.3668  -14.7025   21.1932 C   0  0  0  0  0  0  0  0  0  0  0  0
    6.1243  -14.9997   21.2603 O   0  0  0  0  0  0  0  0  0  0  0  0
    8.1614  -14.7835   22.3668 N   0  0  0  0  0  0  0  0  0  0  0  0
    7.6523  -15.2956   23.6369 C   0  0  1  0  0  0  0  0  0  0  0  0
    7.5215  -16.7818   23.6017 C   0  0  0  0  0  0  0  0  0  0  0  0
    7.0892  -17.2836   24.9763 C   0  0  0  0  0  0  0  0  0  0  0  0
    6.9307  -18.7435   24.8674 C   0  0  0  0  0  0  0  0  0  0  0  0
    5.8294  -19.1826   24.4086 O   0  0  0  0  0  0  0  0  0  0  0  0
    8.4731  -14.8165   24.7759 C   0  0  0  0  0  0  0  0  0  0  0  0
    9.7344  -14.9271   24.6106 O   0  0  0  0  0  0  0  0  0  0  0  0
    7.9231  -19.6543   25.2392 O   0  0  0  0  0  0  0  0  0  0  0  0
    7.9910  -14.2663   25.9695 N   0  0  0  0  0  0  0  0  0  0  0  0
    6.6318  -14.1048   26.4005 C   0  0  0  0  0  0  0  0  0  0  0  0
    6.6516  -12.9321   27.3959 C   0  0  0  0  0  0  0  0  0  0  0  0
    8.0468  -12.3986   27.2076 C   0  0  0  0  0  0  0  0  0  0  0  0
    8.8177  -13.7198   27.0371 C   0  0  1  0  0  0  0  0  0  0  0  0
    8.7104  -14.4877   28.2935 C   0  0  0  0  0  0  0  0  0  0  0  0
    9.5397  -14.1034   29.3557 O   0  0  0  0  0  0  0  0  0  0  0  0
    7.9341  -15.4595   28.4868 O   0  0  0  0  0  0  0  0  0  0  0  0
  2  5  1  0
  2  1  1  6
  2  3  1  0
  4  3  1  0
  5  6  2  0
  7  8  1  0
  7  5  1  0
  8 13  1  0
  8  9  1  6
 10  9  1  0
 10 11  1  0
 11 15  1  0
 11 12  2  0
 13 14  2  0
 13 16  1  0
 16 20  1  0
 16 17  1  0
 17 18  1  0
 19 18  1  0
 20 19  1  0
 21 22  1  0
 20 21  1  1
 23 21  2  0
M  END
$$$$
