CEP.pdb
     RDKit          3D

 23 23  0  0  1  0  0  0  0  0999 V2000
    7.9877  -15.6760   18.5538 N   0  0  0  0  0  0  0  0  0  0  0  0
    8.6946  -15.1037   19.6865 C   0  0  1  0  0  0  0  0  0  0  0  0
    9.2196  -13.7142   19.4075 C   0  0  0  0  0  0  0  0  0  0  0  0
    7.8931  -12.4938   19.3159 S   0  0  0  0  0  0  0  0  0  0  0  0
    7.7614  -15.0252   20.8298 C   0  0  0  0  0  0  0  0  0  0  0  0
    6.5009  -15.1720   20.6679 O   0  0  0  0  0  0  0  0  0  0  0  0
    8.2673  -14.7814   22.1336 N   0  0  0  0  0  0  0  0  0  0  0  0
    7.4419  -14.8724   23.3356 C   0  0  1  0  0  0  0  0  0  0  0  0
    6.8122  -16.2204   23.4526 C   0  0  0  0  0  0  0  0  0  0  0  0
    7.9044  -17.2818   23.5459 C   0  0  0  0  0  0  0  0  0  0  0  0
    7.2268  -18.5780   23.7156 C   0  0  0  0  0  0  0  0  0  0  0  0
    7.9555  -19.6169   23.7912 O   0  0  0  0  0  0  0  0  0  0  0  0
    8.2112  -14.4892   24.5447 C   0  0  0  0  0  0  0  0  0  0  0  0
    9.4780  -14.6025   24.4311 O   0  0  0  0  0  0  0  0  0  0  0  0
    5.8385  -18.7146   23.7974 O   0  0  0  0  0  0  0  0  0  0  0  0
    7.6772  -14.0233   25.7520 N   0  0  0  0  0  0  0  0  0  0  0  0
    6.3113  -14.0273   26.1918 C   0  0  0  0  0  0  0  0  0  0  0  0
    6.2037  -12.8816   27.2127 C   0  0  0  0  0  0  0  0  0  0  0  0
    7.5277  -12.1885   27.0307 C   0  0  0  0  0  0  0  0  0  0  0  0
    8.4430  -13.4091   26.8281 C   0  0  1  0  0  0  0  0  0  0  0  0
    8.4321  -14.2111   28.0677 C   0  0  0  0  0  0  0  0  0  0  0  0
    7.7142  -15.4144   28.0497 O   0  0  0  0  0  0  0  0  0  0  0  0
    9.0158  -13.9006   29.1388 O   0  0  0  0  0  0  0  0  0  0  0  0
  2  5  1  0
  2  1  1  6
  2  3  1  0
  4  3  1  0
  5  6  2  0
  7  8  1  0
  7  5  1  0
  8 13  1  0
  8  9  1  1
 10  9  1  0
 10 11  1  0
 11 15  1  0
 11 12  2  0
 13 14  2  0
 13 16  1  0
 16 20  1  0
 16 17  1  0
 17 18  1  0
 19 18  1  0
 20 19  1  0
 21 22  1  0
 20 21  1  1
 23 21  2  0
M  END
$$$$
