CEP.pdb
     RDKit          3D

 23 23  0  0  1  0  0  0  0  0999 V2000
    6.7220  -14.8026   19.1085 N   0  0  0  0  0  0  0  0  0  0  0  0
    7.8553  -14.9323   20.0080 C   0  0  1  0  0  0  0  0  0  0  0  0
    8.8443  -13.7978   19.8707 C   0  0  0  0  0  0  0  0  0  0  0  0
    8.0436  -12.1837   19.9746 S   0  0  0  0  0  0  0  0  0  0  0  0
    7.3517  -14.9419   21.3973 C   0  0  0  0  0  0  0  0  0  0  0  0
    6.2997  -14.2921   21.7256 O   0  0  0  0  0  0  0  0  0  0  0  0
    8.0446  -15.6830   22.3903 N   0  0  0  0  0  0  0  0  0  0  0  0
    7.5721  -15.8008   23.7677 C   0  0  1  0  0  0  0  0  0  0  0  0
    7.4450  -17.2323   24.1701 C   0  0  0  0  0  0  0  0  0  0  0  0
    6.9683  -17.3099   25.6175 C   0  0  0  0  0  0  0  0  0  0  0  0
    7.0509  -18.7241   26.0190 C   0  0  0  0  0  0  0  0  0  0  0  0
    6.4107  -19.0784   27.0585 O   0  0  0  0  0  0  0  0  0  0  0  0
    8.4221  -15.0150   24.6953 C   0  0  0  0  0  0  0  0  0  0  0  0
    9.6492  -14.9281   24.3531 O   0  0  0  0  0  0  0  0  0  0  0  0
    7.7898  -19.6804   25.3174 O   0  0  0  0  0  0  0  0  0  0  0  0
    7.9982  -14.3791   25.8682 N   0  0  0  0  0  0  0  0  0  0  0  0
    6.6904  -14.3607   26.4586 C   0  0  0  0  0  0  0  0  0  0  0  0
    6.6327  -13.0693   27.2925 C   0  0  0  0  0  0  0  0  0  0  0  0
    7.8897  -12.3677   26.8515 C   0  0  0  0  0  0  0  0  0  0  0  0
    8.8422  -13.5714   26.7383 C   0  0  1  0  0  0  0  0  0  0  0  0
    9.0096  -14.1616   28.0812 C   0  0  0  0  0  0  0  0  0  0  0  0
    9.8944  -13.5221   28.9598 O   0  0  0  0  0  0  0  0  0  0  0  0
    8.4213  -15.1925   28.4999 O   0  0  0  0  0  0  0  0  0  0  0  0
  2  5  1  0
  2  1  1  6
  2  3  1  0
  4  3  1  0
  5  6  2  0
  7  8  1  0
  7  5  1  0
  8 13  1  0
  8  9  1  1
 10  9  1  0
 10 11  1  0
 11 15  1  0
 11 12  2  0
 13 14  2  0
 13 16  1  0
 16 20  1  0
 16 17  1  0
 17 18  1  0
 19 18  1  0
 20 19  1  0
 21 22  1  0
 20 21  1  1
 23 21  2  0
M  END
$$$$
