CEP.pdb
     RDKit          3D

 23 23  0  0  1  0  0  0  0  0999 V2000
    7.5335  -16.0228   19.1229 N   0  0  0  0  0  0  0  0  0  0  0  0
    8.4419  -15.5553   20.1556 C   0  0  1  0  0  0  0  0  0  0  0  0
    9.0198  -14.1918   19.8533 C   0  0  0  0  0  0  0  0  0  0  0  0
    7.7353  -12.9730   19.5044 S   0  0  0  0  0  0  0  0  0  0  0  0
    7.6985  -15.4708   21.4300 C   0  0  0  0  0  0  0  0  0  0  0  0
    6.4911  -15.0494   21.4665 O   0  0  0  0  0  0  0  0  0  0  0  0
    8.3311  -15.8619   22.6392 N   0  0  0  0  0  0  0  0  0  0  0  0
    7.7002  -15.7162   23.9489 C   0  0  1  0  0  0  0  0  0  0  0  0
    7.4394  -17.0482   24.5693 C   0  0  0  0  0  0  0  0  0  0  0  0
    6.5413  -17.8677   23.6474 C   0  0  0  0  0  0  0  0  0  0  0  0
    6.3406  -19.1738   24.2972 C   0  0  0  0  0  0  0  0  0  0  0  0
    6.4565  -20.2136   23.5751 O   0  0  0  0  0  0  0  0  0  0  0  0
    8.4881  -14.8164   24.8265 C   0  0  0  0  0  0  0  0  0  0  0  0
    9.7158  -14.6900   24.4992 O   0  0  0  0  0  0  0  0  0  0  0  0
    6.0344  -19.3188   25.6529 O   0  0  0  0  0  0  0  0  0  0  0  0
    8.0068  -14.1156   25.9387 N   0  0  0  0  0  0  0  0  0  0  0  0
    6.6552  -13.9841   26.4025 C   0  0  0  0  0  0  0  0  0  0  0  0
    6.6182  -12.6669   27.1963 C   0  0  0  0  0  0  0  0  0  0  0  0
    7.9598  -12.0725   26.8595 C   0  0  0  0  0  0  0  0  0  0  0  0
    8.8253  -13.3453   26.8652 C   0  0  1  0  0  0  0  0  0  0  0  0
    8.8229  -13.9047   28.2315 C   0  0  0  0  0  0  0  0  0  0  0  0
    9.6870  -13.3209   29.1677 O   0  0  0  0  0  0  0  0  0  0  0  0
    8.1073  -14.8635   28.6226 O   0  0  0  0  0  0  0  0  0  0  0  0
  2  5  1  0
  2  1  1  6
  2  3  1  0
  4  3  1  0
  5  6  2  0
  7  8  1  0
  7  5  1  0
  8 13  1  0
  8  9  1  1
 10  9  1  0
 10 11  1  0
 11 15  1  0
 11 12  2  0
 13 14  2  0
 13 16  1  0
 16 20  1  0
 16 17  1  0
 17 18  1  0
 19 18  1  0
 20 19  1  0
 21 22  1  0
 20 21  1  1
 23 21  2  0
M  END
$$$$
