CEP.pdb
     RDKit          3D

 23 23  0  0  1  0  0  0  0  0999 V2000
    7.3959  -15.4681   18.5338 N   0  0  0  0  0  0  0  0  0  0  0  0
    7.9986  -14.5773   19.5102 C   0  0  1  0  0  0  0  0  0  0  0  0
    7.6535  -13.1257   19.2696 C   0  0  0  0  0  0  0  0  0  0  0  0
    8.2094  -12.0638   20.6189 S   0  0  0  0  0  0  0  0  0  0  0  0
    7.5082  -14.9535   20.8527 C   0  0  0  0  0  0  0  0  0  0  0  0
    6.2659  -15.1709   21.0678 O   0  0  0  0  0  0  0  0  0  0  0  0
    8.4278  -15.0760   21.9272 N   0  0  0  0  0  0  0  0  0  0  0  0
    8.0302  -15.4961   23.2688 C   0  0  1  0  0  0  0  0  0  0  0  0
    8.2113  -16.9669   23.4455 C   0  0  0  0  0  0  0  0  0  0  0  0
    7.7928  -17.3613   24.8588 C   0  0  0  0  0  0  0  0  0  0  0  0
    7.9695  -18.8193   24.9653 C   0  0  0  0  0  0  0  0  0  0  0  0
    6.9573  -19.5526   24.7336 O   0  0  0  0  0  0  0  0  0  0  0  0
    8.7281  -14.7009   24.3086 C   0  0  0  0  0  0  0  0  0  0  0  0
    9.9858  -14.5727   24.1299 O   0  0  0  0  0  0  0  0  0  0  0  0
    9.1832  -19.4237   25.3034 O   0  0  0  0  0  0  0  0  0  0  0  0
    8.1362  -14.0965   25.4240 N   0  0  0  0  0  0  0  0  0  0  0  0
    6.7444  -13.9943   25.7584 C   0  0  0  0  0  0  0  0  0  0  0  0
    6.6268  -12.7518   26.6578 C   0  0  0  0  0  0  0  0  0  0  0  0
    7.9956  -12.1420   26.5124 C   0  0  0  0  0  0  0  0  0  0  0  0
    8.8562  -13.4179   26.4931 C   0  0  1  0  0  0  0  0  0  0  0  0
    8.7151  -14.0953   27.7973 C   0  0  0  0  0  0  0  0  0  0  0  0
    9.4892  -13.6121   28.8608 O   0  0  0  0  0  0  0  0  0  0  0  0
    7.9556  -15.0716   28.0302 O   0  0  0  0  0  0  0  0  0  0  0  0
  2  5  1  0
  2  1  1  6
  2  3  1  0
  4  3  1  0
  5  6  2  0
  7  8  1  0
  7  5  1  0
  8 13  1  0
  8  9  1  1
 10  9  1  0
 10 11  1  0
 11 15  1  0
 11 12  2  0
 13 14  2  0
 13 16  1  0
 16 20  1  0
 16 17  1  0
 17 18  1  0
 19 18  1  0
 20 19  1  0
 21 22  1  0
 20 21  1  1
 23 21  2  0
M  END
$$$$
