CEP.pdb
     RDKit          3D

 23 23  0  0  1  0  0  0  0  0999 V2000
    7.4919  -16.1064   18.8821 N   0  0  0  0  0  0  0  0  0  0  0  0
    7.9319  -15.0145   19.7332 C   0  0  1  0  0  0  0  0  0  0  0  0
    7.5402  -13.6579   19.1942 C   0  0  0  0  0  0  0  0  0  0  0  0
    7.9600  -12.3266   20.3381 S   0  0  0  0  0  0  0  0  0  0  0  0
    7.3126  -15.1800   21.0649 C   0  0  0  0  0  0  0  0  0  0  0  0
    6.0466  -15.3099   21.1957 O   0  0  0  0  0  0  0  0  0  0  0  0
    8.1326  -15.1945   22.2236 N   0  0  0  0  0  0  0  0  0  0  0  0
    7.6121  -15.4656   23.5616 C   0  0  1  0  0  0  0  0  0  0  0  0
    7.5674  -16.9325   23.8321 C   0  0  0  0  0  0  0  0  0  0  0  0
    7.0412  -17.1699   25.2446 C   0  0  0  0  0  0  0  0  0  0  0  0
    6.9905  -18.6283   25.4418 C   0  0  0  0  0  0  0  0  0  0  0  0
    7.4829  -19.0934   26.5176 O   0  0  0  0  0  0  0  0  0  0  0  0
    8.3665  -14.7124   24.5931 C   0  0  0  0  0  0  0  0  0  0  0  0
    9.6281  -14.6614   24.4030 O   0  0  0  0  0  0  0  0  0  0  0  0
    6.4320  -19.5105   24.5132 O   0  0  0  0  0  0  0  0  0  0  0  0
    7.8226  -14.0709   25.7123 N   0  0  0  0  0  0  0  0  0  0  0  0
    6.4440  -13.9231   26.0821 C   0  0  0  0  0  0  0  0  0  0  0  0
    6.3858  -12.6613   26.9603 C   0  0  0  0  0  0  0  0  0  0  0  0
    7.7665  -12.0934   26.7662 C   0  0  0  0  0  0  0  0  0  0  0  0
    8.5904  -13.3933   26.7482 C   0  0  1  0  0  0  0  0  0  0  0  0
    8.4665  -14.0423   28.0686 C   0  0  0  0  0  0  0  0  0  0  0  0
    9.1710  -13.4696   29.1360 O   0  0  0  0  0  0  0  0  0  0  0  0
    7.7790  -15.0682   28.3120 O   0  0  0  0  0  0  0  0  0  0  0  0
  2  5  1  0
  2  1  1  6
  2  3  1  0
  4  3  1  0
  5  6  2  0
  7  8  1  0
  7  5  1  0
  8 13  1  0
  8  9  1  1
 10  9  1  0
 10 11  1  0
 11 15  1  0
 11 12  2  0
 13 14  2  0
 13 16  1  0
 16 20  1  0
 16 17  1  0
 17 18  1  0
 19 18  1  0
 20 19  1  0
 21 22  1  0
 20 21  1  1
 23 21  2  0
M  END
$$$$
