CEP.pdb
     RDKit          3D

 23 23  0  0  1  0  0  0  0  0999 V2000
    7.2188  -15.2780   18.8521 N   0  0  0  0  0  0  0  0  0  0  0  0
    7.9518  -14.4947   19.8317 C   0  0  1  0  0  0  0  0  0  0  0  0
    7.7752  -13.0059   19.6412 C   0  0  0  0  0  0  0  0  0  0  0  0
    8.6712  -12.0521   20.8841 S   0  0  0  0  0  0  0  0  0  0  0  0
    7.4597  -14.8507   21.1790 C   0  0  0  0  0  0  0  0  0  0  0  0
    6.2073  -14.9318   21.4273 O   0  0  0  0  0  0  0  0  0  0  0  0
    8.3892  -15.1072   22.2209 N   0  0  0  0  0  0  0  0  0  0  0  0
    7.9920  -15.6120   23.5331 C   0  0  1  0  0  0  0  0  0  0  0  0
    8.1871  -17.0890   23.6207 C   0  0  0  0  0  0  0  0  0  0  0  0
    7.8330  -17.5629   25.0272 C   0  0  0  0  0  0  0  0  0  0  0  0
    8.0579  -19.0178   25.0568 C   0  0  0  0  0  0  0  0  0  0  0  0
    9.2609  -19.4274   25.0271 O   0  0  0  0  0  0  0  0  0  0  0  0
    8.6790  -14.8747   24.6217 C   0  0  0  0  0  0  0  0  0  0  0  0
    9.9352  -14.7199   24.4533 O   0  0  0  0  0  0  0  0  0  0  0  0
    7.0226  -19.9545   25.1168 O   0  0  0  0  0  0  0  0  0  0  0  0
    8.0787  -14.3487   25.7718 N   0  0  0  0  0  0  0  0  0  0  0  0
    6.6890  -14.3222   26.1286 C   0  0  0  0  0  0  0  0  0  0  0  0
    6.5321  -13.1290   27.0867 C   0  0  0  0  0  0  0  0  0  0  0  0
    7.8715  -12.4546   26.9523 C   0  0  0  0  0  0  0  0  0  0  0  0
    8.7851  -13.6899   26.8621 C   0  0  1  0  0  0  0  0  0  0  0  0
    8.6924  -14.4325   28.1348 C   0  0  0  0  0  0  0  0  0  0  0  0
    7.9640  -15.6296   28.1302 O   0  0  0  0  0  0  0  0  0  0  0  0
    9.2152  -14.0765   29.2231 O   0  0  0  0  0  0  0  0  0  0  0  0
  2  5  1  0
  2  1  1  6
  2  3  1  0
  4  3  1  0
  5  6  2  0
  7  8  1  0
  7  5  1  0
  8 13  1  0
  8  9  1  6
 10  9  1  0
 10 11  1  0
 11 15  1  0
 11 12  2  0
 13 14  2  0
 13 16  1  0
 16 20  1  0
 16 17  1  0
 17 18  1  0
 19 18  1  0
 20 19  1  0
 21 22  1  0
 20 21  1  1
 23 21  2  0
M  END
$$$$
