CEP.pdb
     RDKit          3D

 23 23  0  0  1  0  0  0  0  0999 V2000
    7.4104  -15.8525   18.8144 N   0  0  0  0  0  0  0  0  0  0  0  0
    8.0570  -14.9037   19.7043 C   0  0  1  0  0  0  0  0  0  0  0  0
    7.8993  -13.4717   19.2475 C   0  0  0  0  0  0  0  0  0  0  0  0
    8.5257  -12.2980   20.4670 S   0  0  0  0  0  0  0  0  0  0  0  0
    7.4500  -15.0314   21.0458 C   0  0  0  0  0  0  0  0  0  0  0  0
    6.1864  -14.9245   21.2145 O   0  0  0  0  0  0  0  0  0  0  0  0
    8.2797  -15.2758   22.1715 N   0  0  0  0  0  0  0  0  0  0  0  0
    7.7520  -15.4693   23.5200 C   0  0  1  0  0  0  0  0  0  0  0  0
    7.7161  -16.9174   23.8788 C   0  0  0  0  0  0  0  0  0  0  0  0
    7.2092  -17.0710   25.3098 C   0  0  0  0  0  0  0  0  0  0  0  0
    7.2003  -18.5131   25.6071 C   0  0  0  0  0  0  0  0  0  0  0  0
    6.1771  -18.9858   26.1951 O   0  0  0  0  0  0  0  0  0  0  0  0
    8.4936  -14.6491   24.5089 C   0  0  0  0  0  0  0  0  0  0  0  0
    9.7416  -14.5225   24.2706 O   0  0  0  0  0  0  0  0  0  0  0  0
    8.2507  -19.3728   25.2752 O   0  0  0  0  0  0  0  0  0  0  0  0
    7.9508  -14.0206   25.6359 N   0  0  0  0  0  0  0  0  0  0  0  0
    6.5801  -13.9544   26.0555 C   0  0  0  0  0  0  0  0  0  0  0  0
    6.4722  -12.6808   26.9116 C   0  0  0  0  0  0  0  0  0  0  0  0
    7.8048  -12.0290   26.6540 C   0  0  0  0  0  0  0  0  0  0  0  0
    8.7106  -13.2731   26.6288 C   0  0  1  0  0  0  0  0  0  0  0  0
    8.6784  -13.9007   27.9648 C   0  0  0  0  0  0  0  0  0  0  0  0
    7.9465  -15.0879   28.1010 O   0  0  0  0  0  0  0  0  0  0  0  0
    9.2555  -13.4548   28.9907 O   0  0  0  0  0  0  0  0  0  0  0  0
  2  5  1  0
  2  1  1  6
  2  3  1  0
  4  3  1  0
  5  6  2  0
  7  8  1  0
  7  5  1  0
  8 13  1  0
  8  9  1  1
 10  9  1  0
 10 11  1  0
 11 15  1  0
 11 12  2  0
 13 14  2  0
 13 16  1  0
 16 20  1  0
 16 17  1  0
 17 18  1  0
 19 18  1  0
 20 19  1  0
 21 22  1  0
 20 21  1  1
 23 21  2  0
M  END
$$$$
