CEP.pdb
     RDKit          3D

 23 23  0  0  1  0  0  0  0  0999 V2000
    7.8669  -16.5936   19.0521 N   0  0  0  0  0  0  0  0  0  0  0  0
    8.1906  -15.3737   19.7713 C   0  0  1  0  0  0  0  0  0  0  0  0
    7.8951  -14.1264   18.9707 C   0  0  0  0  0  0  0  0  0  0  0  0
    8.1487  -12.6238   19.9378 S   0  0  0  0  0  0  0  0  0  0  0  0
    7.3839  -15.3316   21.0088 C   0  0  0  0  0  0  0  0  0  0  0  0
    6.1272  -15.5708   20.9894 O   0  0  0  0  0  0  0  0  0  0  0  0
    8.0093  -15.0194   22.2444 N   0  0  0  0  0  0  0  0  0  0  0  0
    7.2896  -14.9973   23.5156 C   0  0  1  0  0  0  0  0  0  0  0  0
    6.7199  -16.3398   23.8323 C   0  0  0  0  0  0  0  0  0  0  0  0
    7.8578  -17.3279   24.0714 C   0  0  0  0  0  0  0  0  0  0  0  0
    7.2616  -18.5245   24.6886 C   0  0  0  0  0  0  0  0  0  0  0  0
    8.0539  -19.4202   25.1199 O   0  0  0  0  0  0  0  0  0  0  0  0
    8.1420  -14.4618   24.6052 C   0  0  0  0  0  0  0  0  0  0  0  0
    9.3980  -14.5343   24.3868 O   0  0  0  0  0  0  0  0  0  0  0  0
    5.8837  -18.7157   24.8206 O   0  0  0  0  0  0  0  0  0  0  0  0
    7.6935  -13.8974   25.8052 N   0  0  0  0  0  0  0  0  0  0  0  0
    6.3576  -13.8357   26.3256 C   0  0  0  0  0  0  0  0  0  0  0  0
    6.3369  -12.6175   27.2648 C   0  0  0  0  0  0  0  0  0  0  0  0
    7.6612  -11.9724   26.9532 C   0  0  0  0  0  0  0  0  0  0  0  0
    8.5369  -13.2270   26.7855 C   0  0  1  0  0  0  0  0  0  0  0  0
    8.5863  -13.9375   28.0787 C   0  0  0  0  0  0  0  0  0  0  0  0
    7.8790  -15.1432   28.1783 O   0  0  0  0  0  0  0  0  0  0  0  0
    9.2126  -13.5472   29.0984 O   0  0  0  0  0  0  0  0  0  0  0  0
  2  5  1  0
  2  1  1  6
  2  3  1  0
  4  3  1  0
  5  6  2  0
  7  8  1  0
  7  5  1  0
  8 13  1  0
  8  9  1  1
 10  9  1  0
 10 11  1  0
 11 15  1  0
 11 12  2  0
 13 14  2  0
 13 16  1  0
 16 20  1  0
 16 17  1  0
 17 18  1  0
 19 18  1  0
 20 19  1  0
 21 22  1  0
 20 21  1  1
 23 21  2  0
M  END
$$$$
