CEP.pdb
     RDKit          3D

 23 23  0  0  1  0  0  0  0  0999 V2000
    7.5116  -16.2096   18.9710 N   0  0  0  0  0  0  0  0  0  0  0  0
    8.0187  -15.1096   19.7730 C   0  0  1  0  0  0  0  0  0  0  0  0
    7.7784  -13.7607   19.1349 C   0  0  0  0  0  0  0  0  0  0  0  0
    8.2137  -12.4011   20.2390 S   0  0  0  0  0  0  0  0  0  0  0  0
    7.3344  -15.1307   21.0827 C   0  0  0  0  0  0  0  0  0  0  0  0
    6.0674  -15.2864   21.1664 O   0  0  0  0  0  0  0  0  0  0  0  0
    8.0920  -14.9746   22.2732 N   0  0  0  0  0  0  0  0  0  0  0  0
    7.5765  -15.3258   23.5944 C   0  0  1  0  0  0  0  0  0  0  0  0
    7.4206  -16.8035   23.7333 C   0  0  0  0  0  0  0  0  0  0  0  0
    6.9975  -17.1348   25.1614 C   0  0  0  0  0  0  0  0  0  0  0  0
    6.9425  -18.6029   25.2608 C   0  0  0  0  0  0  0  0  0  0  0  0
    7.6971  -19.1628   26.1170 O   0  0  0  0  0  0  0  0  0  0  0  0
    8.4072  -14.7306   24.6696 C   0  0  0  0  0  0  0  0  0  0  0  0
    9.6673  -14.8166   24.4821 O   0  0  0  0  0  0  0  0  0  0  0  0
    6.1086  -19.3962   24.4682 O   0  0  0  0  0  0  0  0  0  0  0  0
    7.9349  -14.0992   25.8264 N   0  0  0  0  0  0  0  0  0  0  0  0
    6.5788  -13.8632   26.2320 C   0  0  0  0  0  0  0  0  0  0  0  0
    6.6341  -12.6403   27.1636 C   0  0  0  0  0  0  0  0  0  0  0  0
    8.0506  -12.1711   26.9637 C   0  0  0  0  0  0  0  0  0  0  0  0
    8.7715  -13.5280   26.8731 C   0  0  1  0  0  0  0  0  0  0  0  0
    8.6224  -14.2227   28.1673 C   0  0  0  0  0  0  0  0  0  0  0  0
    9.4592  -13.8174   29.2157 O   0  0  0  0  0  0  0  0  0  0  0  0
    7.8041  -15.1493   28.4042 O   0  0  0  0  0  0  0  0  0  0  0  0
  2  5  1  0
  2  1  1  6
  2  3  1  0
  4  3  1  0
  5  6  2  0
  7  8  1  0
  7  5  1  0
  8 13  1  0
  8  9  1  1
 10  9  1  0
 10 11  1  0
 11 15  1  0
 11 12  2  0
 13 14  2  0
 13 16  1  0
 16 20  1  0
 16 17  1  0
 17 18  1  0
 19 18  1  0
 20 19  1  0
 21 22  1  0
 20 21  1  1
 23 21  2  0
M  END
$$$$
