CEP.pdb
     RDKit          3D

 23 23  0  0  1  0  0  0  0  0999 V2000
    9.5674  -16.6892   13.3105 N   0  0  0  0  0  0  0  0  0  0  0  0
    9.9264  -17.2494   14.6018 C   0  0  1  0  0  0  0  0  0  0  0  0
   11.4119  -17.1886   14.8735 C   0  0  0  0  0  0  0  0  0  0  0  0
   11.8407  -17.9219   16.4659 S   0  0  0  0  0  0  0  0  0  0  0  0
    9.2312  -16.4807   15.6553 C   0  0  0  0  0  0  0  0  0  0  0  0
    9.0799  -15.2138   15.5611 O   0  0  0  0  0  0  0  0  0  0  0  0
    8.7211  -17.1550   16.7957 N   0  0  0  0  0  0  0  0  0  0  0  0
    7.8955  -16.4959   17.8048 C   0  0  1  0  0  0  0  0  0  0  0  0
    6.8575  -17.4258   18.3387 C   0  0  0  0  0  0  0  0  0  0  0  0
    7.5405  -18.6039   19.0271 C   0  0  0  0  0  0  0  0  0  0  0  0
    6.5113  -19.2839   19.8311 C   0  0  0  0  0  0  0  0  0  0  0  0
    5.7485  -20.1076   19.2346 O   0  0  0  0  0  0  0  0  0  0  0  0
    8.7317  -15.8927   18.8713 C   0  0  0  0  0  0  0  0  0  0  0  0
    9.9512  -16.2711   18.8736 O   0  0  0  0  0  0  0  0  0  0  0  0
    6.3393  -19.0681   21.2010 O   0  0  0  0  0  0  0  0  0  0  0  0
    8.3059  -14.9699   19.8341 N   0  0  0  0  0  0  0  0  0  0  0  0
    6.9810  -14.4786   20.0845 C   0  0  0  0  0  0  0  0  0  0  0  0
    7.1697  -13.1004   20.7413 C   0  0  0  0  0  0  0  0  0  0  0  0
    8.6454  -12.8725   20.5482 C   0  0  0  0  0  0  0  0  0  0  0  0
    9.1707  -14.2981   20.7945 C   0  0  1  0  0  0  0  0  0  0  0  0
    8.8716  -14.6704   22.1916 C   0  0  0  0  0  0  0  0  0  0  0  0
    9.7326  -14.1859   23.1854 O   0  0  0  0  0  0  0  0  0  0  0  0
    7.9056  -15.3878   22.5612 O   0  0  0  0  0  0  0  0  0  0  0  0
  2  5  1  0
  2  1  1  6
  2  3  1  0
  4  3  1  0
  5  6  2  0
  7  8  1  0
  7  5  1  0
  8 13  1  0
  8  9  1  1
 10  9  1  0
 10 11  1  0
 11 15  1  0
 11 12  2  0
 13 14  2  0
 13 16  1  0
 16 20  1  0
 16 17  1  0
 17 18  1  0
 19 18  1  0
 20 19  1  0
 21 22  1  0
 20 21  1  1
 23 21  2  0
M  END
$$$$
