KKW.pdb
     RDKit          3D

 33 34  0  0  1  0  0  0  0  0999 V2000
    8.9678  -20.4255   20.0594 N   0  0  0  0  0  0  0  0  0  0  0  0
    8.1949  -19.7452   21.0693 C   0  0  1  0  0  0  0  0  0  0  0  0
    8.4562  -20.3282   22.4266 C   0  0  0  0  0  0  0  0  0  0  0  0
    8.5808  -21.8195   22.4452 C   0  0  0  0  0  0  0  0  0  0  0  0
    8.6712  -22.3956   23.8284 C   0  0  0  0  0  0  0  0  0  0  0  0
    8.8136  -23.9050   23.7024 C   0  0  0  0  0  0  0  0  0  0  0  0
    8.8765  -24.5183   24.9988 N   0  0  0  0  0  0  0  0  0  0  0  0
    8.4882  -18.2813   21.0903 C   0  0  0  0  0  0  0  0  0  0  0  0
    9.7026  -17.9363   21.0306 O   0  0  0  0  0  0  0  0  0  0  0  0
    7.4908  -17.2850   21.1721 N   0  0  0  0  0  0  0  0  0  0  0  0
    7.8432  -15.9136   21.4138 C   0  0  1  0  0  0  0  0  0  0  0  0
    6.8029  -14.9700   20.8865 C   0  0  0  0  0  0  0  0  0  0  0  0
    7.2719  -13.5351   20.8357 C   0  0  0  0  0  0  0  0  0  0  0  0
    7.8821  -13.3418   19.4509 C   0  0  0  0  0  0  0  0  0  0  0  0
    8.3083  -11.8943   19.2913 C   0  0  0  0  0  0  0  0  0  0  0  0
    8.8248  -11.6434   17.9611 N   0  0  0  0  0  0  0  0  0  0  0  0
    8.1463  -15.6945   22.8455 C   0  0  0  0  0  0  0  0  0  0  0  0
    7.3654  -14.9853   23.5198 O   0  0  0  0  0  0  0  0  0  0  0  0
    9.2775  -16.2484   23.4927 N   0  0  0  0  0  0  0  0  0  0  0  0
    9.9562  -15.5527   24.5662 C   0  0  1  0  0  0  0  0  0  0  0  0
    9.3228  -15.8551   25.9076 C   0  0  0  0  0  0  0  0  0  0  0  0
    7.9616  -15.3142   26.0235 C   0  0  0  0  0  0  0  0  0  0  0  0
    6.7385  -15.9330   25.8985 C   0  0  0  0  0  0  0  0  0  0  0  0
    5.7652  -15.0460   26.0829 N   0  0  0  0  0  0  0  0  0  0  0  0
    6.2847  -13.8235   26.3334 C   0  0  0  0  0  0  0  0  0  0  0  0
    5.7470  -12.5800   26.5898 C   0  0  0  0  0  0  0  0  0  0  0  0
    6.5650  -11.4947   26.8110 C   0  0  0  0  0  0  0  0  0  0  0  0
    7.9497  -11.6225   26.7821 C   0  0  0  0  0  0  0  0  0  0  0  0
    8.4539  -12.8806   26.5229 C   0  0  0  0  0  0  0  0  0  0  0  0
    7.6531  -13.9822   26.2982 C   0  0  0  0  0  0  0  0  0  0  0  0
   11.3505  -16.0590   24.6106 C   0  0  0  0  0  0  0  0  0  0  0  0
   11.8007  -17.0804   23.7826 O   0  0  0  0  0  0  0  0  0  0  0  0
   12.1909  -15.5779   25.4098 O   0  0  0  0  0  0  0  0  0  0  0  0
  2  1  1  6
  2  3  1  0
  3  4  1  0
  4  5  1  0
  5  6  1  0
  6  7  1  0
  8  2  1  0
  9  8  2  0
 10  8  1  0
 11 17  1  0
 11 10  1  0
 11 12  1  1
 13 12  1  0
 14 13  1  0
 15 14  1  0
 16 15  1  0
 17 19  1  0
 18 17  2  0
 19 20  1  0
 20 21  1  1
 20 31  1  0
 22 21  1  0
 23 22  2  0
 24 23  1  0
 25 24  1  0
 25 30  2  0
 26 25  1  0
 27 26  2  0
 27 28  1  0
 28 29  2  0
 29 30  1  0
 30 22  1  0
 31 33  2  0
 31 32  1  0
M  END
$$$$
