KKW.pdb
     RDKit          3D

 33 34  0  0  1  0  0  0  0  0999 V2000
    8.6397  -20.3375   20.8939 N   0  0  0  0  0  0  0  0  0  0  0  0
    9.8072  -19.6735   20.3685 C   0  0  1  0  0  0  0  0  0  0  0  0
    9.8839  -19.8247   18.8779 C   0  0  0  0  0  0  0  0  0  0  0  0
    8.8839  -20.7771   18.3010 C   0  0  0  0  0  0  0  0  0  0  0  0
    8.9842  -20.9201   16.8101 C   0  0  0  0  0  0  0  0  0  0  0  0
    7.8312  -21.7951   16.3415 C   0  0  0  0  0  0  0  0  0  0  0  0
    7.8757  -21.9728   14.9178 N   0  0  0  0  0  0  0  0  0  0  0  0
    9.8195  -18.2234   20.7241 C   0  0  0  0  0  0  0  0  0  0  0  0
   10.7895  -17.5342   20.2982 O   0  0  0  0  0  0  0  0  0  0  0  0
    8.8171  -17.5997   21.4989 N   0  0  0  0  0  0  0  0  0  0  0  0
    8.9355  -16.2187   21.8758 C   0  0  1  0  0  0  0  0  0  0  0  0
    7.9968  -15.3461   21.0960 C   0  0  0  0  0  0  0  0  0  0  0  0
    8.6945  -14.2178   20.3736 C   0  0  0  0  0  0  0  0  0  0  0  0
    7.6436  -13.5882   19.4645 C   0  0  0  0  0  0  0  0  0  0  0  0
    8.2895  -12.4882   18.6427 C   0  0  0  0  0  0  0  0  0  0  0  0
    7.3525  -11.9249   17.6921 N   0  0  0  0  0  0  0  0  0  0  0  0
    8.7870  -16.0600   23.3395 C   0  0  0  0  0  0  0  0  0  0  0  0
    7.7333  -15.5480   23.7810 O   0  0  0  0  0  0  0  0  0  0  0  0
    9.7789  -16.4596   24.2677 N   0  0  0  0  0  0  0  0  0  0  0  0
   10.1207  -15.6436   25.4142 C   0  0  1  0  0  0  0  0  0  0  0  0
    9.0997  -15.7924   26.5221 C   0  0  0  0  0  0  0  0  0  0  0  0
    7.8295  -15.1219   26.2123 C   0  0  0  0  0  0  0  0  0  0  0  0
    6.6074  -15.6417   25.8509 C   0  0  0  0  0  0  0  0  0  0  0  0
    5.7362  -14.6546   25.6649 N   0  0  0  0  0  0  0  0  0  0  0  0
    6.3258  -13.4590   25.8893 C   0  0  0  0  0  0  0  0  0  0  0  0
    5.9001  -12.1485   25.8417 C   0  0  0  0  0  0  0  0  0  0  0  0
    6.7669  -11.1189   26.1324 C   0  0  0  0  0  0  0  0  0  0  0  0
    8.0896  -11.3716   26.4806 C   0  0  0  0  0  0  0  0  0  0  0  0
    8.4820  -12.6940   26.5186 C   0  0  0  0  0  0  0  0  0  0  0  0
    7.6305  -13.7416   26.2310 C   0  0  0  0  0  0  0  0  0  0  0  0
   11.4182  -16.1373   25.9386 C   0  0  0  0  0  0  0  0  0  0  0  0
   12.1194  -17.1764   25.3385 O   0  0  0  0  0  0  0  0  0  0  0  0
   11.9416  -15.6285   26.9602 O   0  0  0  0  0  0  0  0  0  0  0  0
  2  1  1  6
  2  3  1  0
  3  4  1  0
  4  5  1  0
  5  6  1  0
  6  7  1  0
  8  2  1  0
  9  8  2  0
 10  8  1  0
 11 17  1  0
 11 10  1  0
 11 12  1  6
 13 12  1  0
 14 13  1  0
 15 14  1  0
 16 15  1  0
 17 19  1  0
 18 17  2  0
 19 20  1  0
 20 21  1  1
 20 31  1  0
 22 21  1  0
 23 22  2  0
 24 23  1  0
 25 24  1  0
 25 30  2  0
 26 25  1  0
 27 26  2  0
 27 28  1  0
 28 29  2  0
 29 30  1  0
 30 22  1  0
 31 33  2  0
 31 32  1  0
M  END
$$$$
