KKW.pdb
     RDKit          3D

 33 34  0  0  1  0  0  0  0  0999 V2000
    6.1229  -16.4040   20.9232 N   0  0  0  0  0  0  0  0  0  0  0  0
    7.5645  -16.3608   20.9242 C   0  0  1  0  0  0  0  0  0  0  0  0
    8.0580  -14.9516   20.7788 C   0  0  0  0  0  0  0  0  0  0  0  0
    7.7140  -14.3079   19.4722 C   0  0  0  0  0  0  0  0  0  0  0  0
    8.3360  -12.9540   19.2896 C   0  0  0  0  0  0  0  0  0  0  0  0
    7.8806  -12.4029   17.9467 C   0  0  0  0  0  0  0  0  0  0  0  0
    8.3705  -11.0674   17.7542 N   0  0  0  0  0  0  0  0  0  0  0  0
    8.1300  -16.9614   22.1687 C   0  0  0  0  0  0  0  0  0  0  0  0
    7.3766  -17.0017   23.1826 O   0  0  0  0  0  0  0  0  0  0  0  0
    9.4416  -17.4761   22.2625 N   0  0  0  0  0  0  0  0  0  0  0  0
    9.9006  -18.0958   23.4743 C   0  0  1  0  0  0  0  0  0  0  0  0
   10.9130  -19.1690   23.2024 C   0  0  0  0  0  0  0  0  0  0  0  0
   11.4084  -19.8514   24.4556 C   0  0  0  0  0  0  0  0  0  0  0  0
   12.4545  -20.8627   23.9972 C   0  0  0  0  0  0  0  0  0  0  0  0
   12.9916  -21.6071   25.2054 C   0  0  0  0  0  0  0  0  0  0  0  0
   14.0764  -22.4934   24.8356 N   0  0  0  0  0  0  0  0  0  0  0  0
   10.3844  -17.0778   24.4332 C   0  0  0  0  0  0  0  0  0  0  0  0
   11.3102  -16.3140   24.0772 O   0  0  0  0  0  0  0  0  0  0  0  0
    9.8510  -16.9237   25.7359 N   0  0  0  0  0  0  0  0  0  0  0  0
   10.5864  -16.2466   26.7838 C   0  0  1  0  0  0  0  0  0  0  0  0
   10.0125  -14.8737   27.0626 C   0  0  0  0  0  0  0  0  0  0  0  0
    8.6249  -14.7375   26.5992 C   0  0  0  0  0  0  0  0  0  0  0  0
    7.6828  -15.6952   26.2994 C   0  0  0  0  0  0  0  0  0  0  0  0
    6.5534  -15.1093   25.9133 N   0  0  0  0  0  0  0  0  0  0  0  0
    6.6892  -13.7646   25.9380 C   0  0  0  0  0  0  0  0  0  0  0  0
    5.8580  -12.7047   25.6437 C   0  0  0  0  0  0  0  0  0  0  0  0
    6.3033  -11.4080   25.7719 C   0  0  0  0  0  0  0  0  0  0  0  0
    7.5979  -11.1333   26.2001 C   0  0  0  0  0  0  0  0  0  0  0  0
    8.4026  -12.2172   26.4860 C   0  0  0  0  0  0  0  0  0  0  0  0
    7.9774  -13.5248   26.3646 C   0  0  0  0  0  0  0  0  0  0  0  0
   10.4343  -17.0500   28.0221 C   0  0  0  0  0  0  0  0  0  0  0  0
    9.6311  -18.1826   28.0835 O   0  0  0  0  0  0  0  0  0  0  0  0
   11.0337  -16.7339   29.0790 O   0  0  0  0  0  0  0  0  0  0  0  0
  2  1  1  1
  2  3  1  0
  3  4  1  0
  4  5  1  0
  5  6  1  0
  6  7  1  0
  8  2  1  0
  9  8  2  0
 10  8  1  0
 11 17  1  0
 11 10  1  0
 11 12  1  6
 13 12  1  0
 14 13  1  0
 15 14  1  0
 16 15  1  0
 17 19  1  0
 18 17  2  0
 19 20  1  0
 20 21  1  1
 20 31  1  0
 22 21  1  0
 23 22  2  0
 24 23  1  0
 25 24  1  0
 25 30  2  0
 26 25  1  0
 27 26  2  0
 27 28  1  0
 28 29  2  0
 29 30  1  0
 30 22  1  0
 31 33  2  0
 31 32  1  0
M  END
$$$$
