KKW.pdb
     RDKit          3D

 33 34  0  0  1  0  0  0  0  0999 V2000
   12.2398  -20.5468   18.3248 N   0  0  0  0  0  0  0  0  0  0  0  0
   12.5985  -19.1666   18.5407 C   0  0  1  0  0  0  0  0  0  0  0  0
   12.9094  -18.4846   17.2413 C   0  0  0  0  0  0  0  0  0  0  0  0
   14.2140  -18.8875   16.6283 C   0  0  0  0  0  0  0  0  0  0  0  0
   14.0614  -19.7191   15.3880 C   0  0  0  0  0  0  0  0  0  0  0  0
   15.4441  -19.9337   14.7909 C   0  0  0  0  0  0  0  0  0  0  0  0
   15.3556  -20.6573   13.5543 N   0  0  0  0  0  0  0  0  0  0  0  0
   11.5139  -18.4227   19.2476 C   0  0  0  0  0  0  0  0  0  0  0  0
   11.6169  -17.1640   19.2974 O   0  0  0  0  0  0  0  0  0  0  0  0
   10.4010  -19.0486   19.8506 N   0  0  0  0  0  0  0  0  0  0  0  0
    9.3383  -18.2659   20.4176 C   0  0  1  0  0  0  0  0  0  0  0  0
    8.0272  -18.9938   20.3761 C   0  0  0  0  0  0  0  0  0  0  0  0
    7.4263  -19.0594   18.9918 C   0  0  0  0  0  0  0  0  0  0  0  0
    6.1281  -19.8478   19.1347 C   0  0  0  0  0  0  0  0  0  0  0  0
    5.3695  -19.8018   17.8214 C   0  0  0  0  0  0  0  0  0  0  0  0
    4.1658  -20.6057   17.8827 N   0  0  0  0  0  0  0  0  0  0  0  0
    9.6962  -17.8018   21.7763 C   0  0  0  0  0  0  0  0  0  0  0  0
   10.3579  -18.5668   22.5140 O   0  0  0  0  0  0  0  0  0  0  0  0
    9.3275  -16.5326   22.2848 N   0  0  0  0  0  0  0  0  0  0  0  0
    9.5346  -16.1804   23.6741 C   0  0  1  0  0  0  0  0  0  0  0  0
    9.1911  -14.7288   23.9329 C   0  0  0  0  0  0  0  0  0  0  0  0
    7.9695  -14.5724   24.7342 C   0  0  0  0  0  0  0  0  0  0  0  0
    7.0362  -15.5013   25.1347 C   0  0  0  0  0  0  0  0  0  0  0  0
    6.0873  -14.9053   25.8505 N   0  0  0  0  0  0  0  0  0  0  0  0
    6.3403  -13.5817   25.9568 C   0  0  0  0  0  0  0  0  0  0  0  0
    5.7032  -12.5231   26.5687 C   0  0  0  0  0  0  0  0  0  0  0  0
    6.2268  -11.2517   26.4938 C   0  0  0  0  0  0  0  0  0  0  0  0
    7.4074  -11.0019   25.8020 C   0  0  0  0  0  0  0  0  0  0  0  0
    8.0186  -12.0837   25.2018 C   0  0  0  0  0  0  0  0  0  0  0  0
    7.5118  -13.3661   25.2638 C   0  0  0  0  0  0  0  0  0  0  0  0
    8.6053  -17.0065   24.4841 C   0  0  0  0  0  0  0  0  0  0  0  0
    8.8373  -17.2955   25.8236 O   0  0  0  0  0  0  0  0  0  0  0  0
    7.5574  -17.4843   23.9841 O   0  0  0  0  0  0  0  0  0  0  0  0
  2  1  1  6
  2  3  1  0
  3  4  1  0
  4  5  1  0
  5  6  1  0
  6  7  1  0
  8  2  1  0
  9  8  2  0
 10  8  1  0
 11 17  1  0
 11 10  1  0
 11 12  1  1
 13 12  1  0
 14 13  1  0
 15 14  1  0
 16 15  1  0
 17 19  1  0
 18 17  2  0
 19 20  1  0
 20 21  1  6
 20 31  1  0
 22 21  1  0
 23 22  2  0
 24 23  1  0
 25 24  1  0
 25 30  2  0
 26 25  1  0
 27 26  2  0
 27 28  1  0
 28 29  2  0
 29 30  1  0
 30 22  1  0
 31 33  2  0
 31 32  1  0
M  END
$$$$
