KKW.pdb
     RDKit          3D

 33 34  0  0  1  0  0  0  0  0999 V2000
    8.4963  -16.0301   18.9501 N   0  0  0  0  0  0  0  0  0  0  0  0
    8.6257  -14.9418   19.8876 C   0  0  1  0  0  0  0  0  0  0  0  0
    7.9837  -13.6957   19.3533 C   0  0  0  0  0  0  0  0  0  0  0  0
    7.4932  -13.8085   17.9438 C   0  0  0  0  0  0  0  0  0  0  0  0
    8.5005  -13.3670   16.9221 C   0  0  0  0  0  0  0  0  0  0  0  0
    7.8732  -13.5199   15.5446 C   0  0  0  0  0  0  0  0  0  0  0  0
    8.8369  -13.2486   14.5158 N   0  0  0  0  0  0  0  0  0  0  0  0
    8.0252  -15.2843   21.2110 C   0  0  0  0  0  0  0  0  0  0  0  0
    8.1447  -14.4312   22.1358 O   0  0  0  0  0  0  0  0  0  0  0  0
    7.3436  -16.4933   21.4711 N   0  0  0  0  0  0  0  0  0  0  0  0
    7.5937  -17.2304   22.6784 C   0  0  1  0  0  0  0  0  0  0  0  0
    7.7837  -18.6938   22.4083 C   0  0  0  0  0  0  0  0  0  0  0  0
    7.9239  -19.5180   23.6664 C   0  0  0  0  0  0  0  0  0  0  0  0
    8.2189  -20.9417   23.2047 C   0  0  0  0  0  0  0  0  0  0  0  0
    8.3132  -21.8497   24.4167 C   0  0  0  0  0  0  0  0  0  0  0  0
    8.5441  -23.2252   24.0248 N   0  0  0  0  0  0  0  0  0  0  0  0
    8.7177  -16.6338   23.4337 C   0  0  0  0  0  0  0  0  0  0  0  0
    9.3688  -15.7059   22.9023 O   0  0  0  0  0  0  0  0  0  0  0  0
    9.0941  -17.0604   24.7304 N   0  0  0  0  0  0  0  0  0  0  0  0
    9.7976  -16.1851   25.6449 C   0  0  1  0  0  0  0  0  0  0  0  0
    8.9617  -15.8790   26.8695 C   0  0  0  0  0  0  0  0  0  0  0  0
    7.7273  -15.1522   26.5426 C   0  0  0  0  0  0  0  0  0  0  0  0
    6.4713  -15.6175   26.2257 C   0  0  0  0  0  0  0  0  0  0  0  0
    5.6556  -14.5920   26.0004 N   0  0  0  0  0  0  0  0  0  0  0  0
    6.3169  -13.4230   26.1537 C   0  0  0  0  0  0  0  0  0  0  0  0
    5.9667  -12.0940   26.0435 C   0  0  0  0  0  0  0  0  0  0  0  0
    6.8963  -11.1033   26.2680 C   0  0  0  0  0  0  0  0  0  0  0  0
    8.2079  -11.4147   26.6107 C   0  0  0  0  0  0  0  0  0  0  0  0
    8.5239  -12.7541   26.7124 C   0  0  0  0  0  0  0  0  0  0  0  0
    7.6087  -13.7635   26.4918 C   0  0  0  0  0  0  0  0  0  0  0  0
   11.0097  -16.9070   26.1052 C   0  0  0  0  0  0  0  0  0  0  0  0
   11.3294  -18.1859   25.6651 O   0  0  0  0  0  0  0  0  0  0  0  0
   11.8060  -16.3835   26.9226 O   0  0  0  0  0  0  0  0  0  0  0  0
  2  1  1  6
  2  3  1  0
  3  4  1  0
  4  5  1  0
  5  6  1  0
  6  7  1  0
  8  2  1  0
  9  8  2  0
 10  8  1  0
 11 17  1  0
 11 10  1  0
 11 12  1  6
 13 12  1  0
 14 13  1  0
 15 14  1  0
 16 15  1  0
 17 19  1  0
 18 17  2  0
 19 20  1  0
 20 21  1  1
 20 31  1  0
 22 21  1  0
 23 22  2  0
 24 23  1  0
 25 24  1  0
 25 30  2  0
 26 25  1  0
 27 26  2  0
 27 28  1  0
 28 29  2  0
 29 30  1  0
 30 22  1  0
 31 33  2  0
 31 32  1  0
M  END
$$$$
