KKW.pdb
     RDKit          3D

 33 34  0  0  1  0  0  0  0  0999 V2000
    6.1881  -15.7299   19.9717 N   0  0  0  0  0  0  0  0  0  0  0  0
    7.5618  -15.5250   20.3603 C   0  0  1  0  0  0  0  0  0  0  0  0
    7.9597  -14.0894   20.1838 C   0  0  0  0  0  0  0  0  0  0  0  0
    7.5970  -13.5064   18.8540 C   0  0  0  0  0  0  0  0  0  0  0  0
    8.6380  -13.7334   17.7966 C   0  0  0  0  0  0  0  0  0  0  0  0
    8.1735  -13.0450   16.5218 C   0  0  0  0  0  0  0  0  0  0  0  0
    9.0455  -13.3635   15.4270 N   0  0  0  0  0  0  0  0  0  0  0  0
    7.7983  -15.9378   21.7756 C   0  0  0  0  0  0  0  0  0  0  0  0
    6.7804  -16.0876   22.5096 O   0  0  0  0  0  0  0  0  0  0  0  0
    9.0814  -16.1640   22.3202 N   0  0  0  0  0  0  0  0  0  0  0  0
    9.3547  -17.3494   23.0839 C   0  0  1  0  0  0  0  0  0  0  0  0
    9.9284  -18.4418   22.2307 C   0  0  0  0  0  0  0  0  0  0  0  0
    9.0783  -19.6902   22.2109 C   0  0  0  0  0  0  0  0  0  0  0  0
   10.0522  -20.8595   22.1037 C   0  0  0  0  0  0  0  0  0  0  0  0
    9.2686  -22.1574   22.0426 C   0  0  0  0  0  0  0  0  0  0  0  0
   10.1543  -23.3031   21.9987 N   0  0  0  0  0  0  0  0  0  0  0  0
   10.1975  -17.0337   24.2585 C   0  0  0  0  0  0  0  0  0  0  0  0
   10.9932  -17.9061   24.6746 O   0  0  0  0  0  0  0  0  0  0  0  0
   10.1493  -15.7915   24.9366 N   0  0  0  0  0  0  0  0  0  0  0  0
   10.0724  -15.7157   26.3808 C   0  0  1  0  0  0  0  0  0  0  0  0
    8.7246  -16.1835   26.8873 C   0  0  0  0  0  0  0  0  0  0  0  0
    7.6224  -15.3238   26.4344 C   0  0  0  0  0  0  0  0  0  0  0  0
    6.4207  -15.6446   25.8449 C   0  0  0  0  0  0  0  0  0  0  0  0
    5.7291  -14.5353   25.6018 N   0  0  0  0  0  0  0  0  0  0  0  0
    6.4236  -13.4496   26.0094 C   0  0  0  0  0  0  0  0  0  0  0  0
    6.1863  -12.0915   25.9981 C   0  0  0  0  0  0  0  0  0  0  0  0
    7.1190  -11.2127   26.5019 C   0  0  0  0  0  0  0  0  0  0  0  0
    8.3205  -11.6690   27.0337 C   0  0  0  0  0  0  0  0  0  0  0  0
    8.5253  -13.0336   27.0293 C   0  0  0  0  0  0  0  0  0  0  0  0
    7.6047  -13.9326   26.5297 C   0  0  0  0  0  0  0  0  0  0  0  0
   11.0963  -16.6398   26.9283 C   0  0  0  0  0  0  0  0  0  0  0  0
   11.8693  -16.3243   28.0393 O   0  0  0  0  0  0  0  0  0  0  0  0
   11.3081  -17.7598   26.4017 O   0  0  0  0  0  0  0  0  0  0  0  0
  2  1  1  1
  2  3  1  0
  3  4  1  0
  4  5  1  0
  5  6  1  0
  6  7  1  0
  8  2  1  0
  9  8  2  0
 10  8  1  0
 11 17  1  0
 11 10  1  0
 11 12  1  6
 13 12  1  0
 14 13  1  0
 15 14  1  0
 16 15  1  0
 17 19  1  0
 18 17  2  0
 19 20  1  0
 20 21  1  1
 20 31  1  0
 22 21  1  0
 23 22  2  0
 24 23  1  0
 25 24  1  0
 25 30  2  0
 26 25  1  0
 27 26  2  0
 27 28  1  0
 28 29  2  0
 29 30  1  0
 30 22  1  0
 31 33  2  0
 31 32  1  0
M  END
$$$$
