KKW.pdb
     RDKit          3D

 33 34  0  0  1  0  0  0  0  0999 V2000
    7.4831  -19.1578   20.4950 N   0  0  0  0  0  0  0  0  0  0  0  0
    8.8384  -19.2026   20.9861 C   0  0  1  0  0  0  0  0  0  0  0  0
    9.7250  -19.9604   20.0426 C   0  0  0  0  0  0  0  0  0  0  0  0
    9.3949  -21.4148   19.9177 C   0  0  0  0  0  0  0  0  0  0  0  0
    9.9042  -22.2447   21.0602 C   0  0  0  0  0  0  0  0  0  0  0  0
    9.6294  -23.7065   20.7406 C   0  0  0  0  0  0  0  0  0  0  0  0
   10.0057  -24.5458   21.8427 N   0  0  0  0  0  0  0  0  0  0  0  0
    9.3905  -17.8314   21.1968 C   0  0  0  0  0  0  0  0  0  0  0  0
   10.6378  -17.6848   21.0551 O   0  0  0  0  0  0  0  0  0  0  0  0
    8.5987  -16.7138   21.5400 N   0  0  0  0  0  0  0  0  0  0  0  0
    9.2089  -15.4513   21.8516 C   0  0  1  0  0  0  0  0  0  0  0  0
    8.5524  -14.3192   21.1183 C   0  0  0  0  0  0  0  0  0  0  0  0
    8.6455  -14.4493   19.6163 C   0  0  0  0  0  0  0  0  0  0  0  0
    7.9594  -13.2126   19.0445 C   0  0  0  0  0  0  0  0  0  0  0  0
    7.9386  -13.3088   17.5304 C   0  0  0  0  0  0  0  0  0  0  0  0
    7.2743  -12.1640   16.9413 N   0  0  0  0  0  0  0  0  0  0  0  0
    9.2560  -15.2387   23.3153 C   0  0  0  0  0  0  0  0  0  0  0  0
    9.1636  -14.0692   23.7523 O   0  0  0  0  0  0  0  0  0  0  0  0
    9.4001  -16.2942   24.2483 N   0  0  0  0  0  0  0  0  0  0  0  0
   10.0905  -16.1073   25.5075 C   0  0  1  0  0  0  0  0  0  0  0  0
    9.1256  -16.1224   26.6740 C   0  0  0  0  0  0  0  0  0  0  0  0
    7.8690  -15.4217   26.3756 C   0  0  0  0  0  0  0  0  0  0  0  0
    6.6783  -15.8938   25.8719 C   0  0  0  0  0  0  0  0  0  0  0  0
    5.8083  -14.8941   25.7632 N   0  0  0  0  0  0  0  0  0  0  0  0
    6.3681  -13.7365   26.1805 C   0  0  0  0  0  0  0  0  0  0  0  0
    5.9302  -12.4329   26.2796 C   0  0  0  0  0  0  0  0  0  0  0  0
    6.7645  -11.4476   26.7582 C   0  0  0  0  0  0  0  0  0  0  0  0
    8.0659  -11.7392   27.1531 C   0  0  0  0  0  0  0  0  0  0  0  0
    8.4714  -13.0534   27.0408 C   0  0  0  0  0  0  0  0  0  0  0  0
    7.6524  -14.0569   26.5639 C   0  0  0  0  0  0  0  0  0  0  0  0
   11.0136  -17.2562   25.6816 C   0  0  0  0  0  0  0  0  0  0  0  0
   11.8896  -17.3541   26.7561 O   0  0  0  0  0  0  0  0  0  0  0  0
   11.0404  -18.1989   24.8528 O   0  0  0  0  0  0  0  0  0  0  0  0
  2  1  1  6
  2  3  1  0
  3  4  1  0
  4  5  1  0
  5  6  1  0
  6  7  1  0
  8  2  1  0
  9  8  2  0
 10  8  1  0
 11 17  1  0
 11 10  1  0
 11 12  1  6
 13 12  1  0
 14 13  1  0
 15 14  1  0
 16 15  1  0
 17 19  1  0
 18 17  2  0
 19 20  1  0
 20 21  1  1
 20 31  1  0
 22 21  1  0
 23 22  2  0
 24 23  1  0
 25 24  1  0
 25 30  2  0
 26 25  1  0
 27 26  2  0
 27 28  1  0
 28 29  2  0
 29 30  1  0
 30 22  1  0
 31 33  2  0
 31 32  1  0
M  END
$$$$
