KKW.pdb
     RDKit          3D

 33 34  0  0  1  0  0  0  0  0999 V2000
    5.9995  -16.2665   21.0207 N   0  0  0  0  0  0  0  0  0  0  0  0
    7.4095  -15.9674   21.0683 C   0  0  1  0  0  0  0  0  0  0  0  0
    7.6400  -14.4889   21.1742 C   0  0  0  0  0  0  0  0  0  0  0  0
    7.4948  -13.7466   19.8828 C   0  0  0  0  0  0  0  0  0  0  0  0
    8.6310  -13.9764   18.9291 C   0  0  0  0  0  0  0  0  0  0  0  0
    8.3074  -13.2577   17.6278 C   0  0  0  0  0  0  0  0  0  0  0  0
    8.6923  -11.8768   17.7020 N   0  0  0  0  0  0  0  0  0  0  0  0
    8.0783  -16.6595   22.2099 C   0  0  0  0  0  0  0  0  0  0  0  0
    7.3965  -16.8278   23.2607 O   0  0  0  0  0  0  0  0  0  0  0  0
    9.4108  -17.1252   22.1697 N   0  0  0  0  0  0  0  0  0  0  0  0
    9.9794  -17.8170   23.2928 C   0  0  1  0  0  0  0  0  0  0  0  0
   11.1435  -18.6728   22.8887 C   0  0  0  0  0  0  0  0  0  0  0  0
   11.6670  -19.5350   24.0130 C   0  0  0  0  0  0  0  0  0  0  0  0
   12.8697  -20.2816   23.4443 C   0  0  0  0  0  0  0  0  0  0  0  0
   13.4646  -21.1655   24.5246 C   0  0  0  0  0  0  0  0  0  0  0  0
   14.5929  -21.9219   24.0209 N   0  0  0  0  0  0  0  0  0  0  0  0
   10.3117  -16.8690   24.3793 C   0  0  0  0  0  0  0  0  0  0  0  0
   10.9580  -15.8356   24.0935 O   0  0  0  0  0  0  0  0  0  0  0  0
    9.9340  -17.0724   25.7288 N   0  0  0  0  0  0  0  0  0  0  0  0
   10.2646  -16.1149   26.7638 C   0  0  1  0  0  0  0  0  0  0  0  0
    9.0708  -15.8230   27.6479 C   0  0  0  0  0  0  0  0  0  0  0  0
    7.9191  -15.3142   26.8906 C   0  0  0  0  0  0  0  0  0  0  0  0
    6.8643  -15.9807   26.3095 C   0  0  0  0  0  0  0  0  0  0  0  0
    6.0509  -15.1088   25.7213 N   0  0  0  0  0  0  0  0  0  0  0  0
    6.5169  -13.8499   25.8806 C   0  0  0  0  0  0  0  0  0  0  0  0
    6.0819  -12.6023   25.4866 C   0  0  0  0  0  0  0  0  0  0  0  0
    6.8002  -11.4739   25.8136 C   0  0  0  0  0  0  0  0  0  0  0  0
    7.9787  -11.5615   26.5471 C   0  0  0  0  0  0  0  0  0  0  0  0
    8.3848  -12.8250   26.9251 C   0  0  0  0  0  0  0  0  0  0  0  0
    7.6809  -13.9693   26.6085 C   0  0  0  0  0  0  0  0  0  0  0  0
   11.3094  -16.7303   27.6194 C   0  0  0  0  0  0  0  0  0  0  0  0
   11.9147  -16.0466   28.6671 O   0  0  0  0  0  0  0  0  0  0  0  0
   11.6936  -17.9101   27.4279 O   0  0  0  0  0  0  0  0  0  0  0  0
  2  1  1  1
  2  3  1  0
  3  4  1  0
  4  5  1  0
  5  6  1  0
  6  7  1  0
  8  2  1  0
  9  8  2  0
 10  8  1  0
 11 17  1  0
 11 10  1  0
 11 12  1  6
 13 12  1  0
 14 13  1  0
 15 14  1  0
 16 15  1  0
 17 19  1  0
 18 17  2  0
 19 20  1  0
 20 21  1  1
 20 31  1  0
 22 21  1  0
 23 22  2  0
 24 23  1  0
 25 24  1  0
 25 30  2  0
 26 25  1  0
 27 26  2  0
 27 28  1  0
 28 29  2  0
 29 30  1  0
 30 22  1  0
 31 33  2  0
 31 32  1  0
M  END
$$$$
