KKW.pdb
     RDKit          3D

 33 34  0  0  1  0  0  0  0  0999 V2000
    5.8206  -15.8054   20.3356 N   0  0  0  0  0  0  0  0  0  0  0  0
    7.2531  -15.9714   20.3134 C   0  0  1  0  0  0  0  0  0  0  0  0
    7.9421  -14.6520   20.1264 C   0  0  0  0  0  0  0  0  0  0  0  0
    8.0368  -14.2004   18.7026 C   0  0  0  0  0  0  0  0  0  0  0  0
    8.9088  -12.9933   18.5141 C   0  0  0  0  0  0  0  0  0  0  0  0
    8.8410  -12.5864   17.0497 C   0  0  0  0  0  0  0  0  0  0  0  0
    9.6310  -11.4115   16.8128 N   0  0  0  0  0  0  0  0  0  0  0  0
    7.7490  -16.6204   21.5633 C   0  0  0  0  0  0  0  0  0  0  0  0
    7.1938  -16.2823   22.6472 O   0  0  0  0  0  0  0  0  0  0  0  0
    8.7890  -17.5753   21.5890 N   0  0  0  0  0  0  0  0  0  0  0  0
    9.2041  -18.1734   22.8273 C   0  0  1  0  0  0  0  0  0  0  0  0
   10.0241  -19.4093   22.6016 C   0  0  0  0  0  0  0  0  0  0  0  0
    9.3898  -20.3750   21.6286 C   0  0  0  0  0  0  0  0  0  0  0  0
   10.5380  -21.1795   21.0271 C   0  0  0  0  0  0  0  0  0  0  0  0
   10.9624  -22.2546   22.0101 C   0  0  0  0  0  0  0  0  0  0  0  0
   10.6197  -23.5753   21.5230 N   0  0  0  0  0  0  0  0  0  0  0  0
    9.8848  -17.1801   23.6872 C   0  0  0  0  0  0  0  0  0  0  0  0
   10.6278  -16.3304   23.1456 O   0  0  0  0  0  0  0  0  0  0  0  0
    9.7372  -17.1420   25.0951 N   0  0  0  0  0  0  0  0  0  0  0  0
   10.5035  -16.2275   25.9158 C   0  0  1  0  0  0  0  0  0  0  0  0
    9.8764  -14.8498   25.9406 C   0  0  0  0  0  0  0  0  0  0  0  0
    8.4358  -14.8908   26.2265 C   0  0  0  0  0  0  0  0  0  0  0  0
    7.5603  -15.9522   26.2652 C   0  0  0  0  0  0  0  0  0  0  0  0
    6.3402  -15.5178   26.5661 N   0  0  0  0  0  0  0  0  0  0  0  0
    6.3478  -14.1769   26.7377 C   0  0  0  0  0  0  0  0  0  0  0  0
    5.3878  -13.2383   27.0511 C   0  0  0  0  0  0  0  0  0  0  0  0
    5.7183  -11.9057   27.1563 C   0  0  0  0  0  0  0  0  0  0  0  0
    7.0238  -11.4722   26.9503 C   0  0  0  0  0  0  0  0  0  0  0  0
    7.9590  -12.4378   26.6385 C   0  0  0  0  0  0  0  0  0  0  0  0
    7.6502  -13.7785   26.5279 C   0  0  0  0  0  0  0  0  0  0  0  0
   10.4782  -16.7506   27.3043 C   0  0  0  0  0  0  0  0  0  0  0  0
   11.2347  -16.1909   28.3271 O   0  0  0  0  0  0  0  0  0  0  0  0
    9.7621  -17.7341   27.6147 O   0  0  0  0  0  0  0  0  0  0  0  0
  2  1  1  1
  2  3  1  0
  3  4  1  0
  4  5  1  0
  5  6  1  0
  6  7  1  0
  8  2  1  0
  9  8  2  0
 10  8  1  0
 11 17  1  0
 11 10  1  0
 11 12  1  6
 13 12  1  0
 14 13  1  0
 15 14  1  0
 16 15  1  0
 17 19  1  0
 18 17  2  0
 19 20  1  0
 20 21  1  1
 20 31  1  0
 22 21  1  0
 23 22  2  0
 24 23  1  0
 25 24  1  0
 25 30  2  0
 26 25  1  0
 27 26  2  0
 27 28  1  0
 28 29  2  0
 29 30  1  0
 30 22  1  0
 31 33  2  0
 31 32  1  0
M  END
$$$$
