KKW.pdb
     RDKit          3D

 33 34  0  0  1  0  0  0  0  0999 V2000
    5.5075  -16.1158   20.0152 N   0  0  0  0  0  0  0  0  0  0  0  0
    6.8077  -15.8094   20.5588 C   0  0  1  0  0  0  0  0  0  0  0  0
    7.0935  -14.3396   20.4670 C   0  0  0  0  0  0  0  0  0  0  0  0
    7.0857  -13.7941   19.0733 C   0  0  0  0  0  0  0  0  0  0  0  0
    8.4571  -13.5054   18.5356 C   0  0  0  0  0  0  0  0  0  0  0  0
    8.3001  -12.8131   17.1900 C   0  0  0  0  0  0  0  0  0  0  0  0
    9.5631  -12.3118   16.7273 N   0  0  0  0  0  0  0  0  0  0  0  0
    6.9261  -16.2528   21.9796 C   0  0  0  0  0  0  0  0  0  0  0  0
    6.2480  -15.6208   22.8386 O   0  0  0  0  0  0  0  0  0  0  0  0
    7.7446  -17.3245   22.3987 N   0  0  0  0  0  0  0  0  0  0  0  0
    7.8201  -17.6899   23.7858 C   0  0  1  0  0  0  0  0  0  0  0  0
    7.5060  -19.1415   23.9974 C   0  0  0  0  0  0  0  0  0  0  0  0
    6.1741  -19.5532   23.4159 C   0  0  0  0  0  0  0  0  0  0  0  0
    6.0594  -21.0559   23.6524 C   0  0  0  0  0  0  0  0  0  0  0  0
    4.7199  -21.5421   23.1312 C   0  0  0  0  0  0  0  0  0  0  0  0
    4.5756  -22.9725   23.3098 N   0  0  0  0  0  0  0  0  0  0  0  0
    9.1239  -17.2931   24.3623 C   0  0  0  0  0  0  0  0  0  0  0  0
   10.1493  -17.4029   23.6525 O   0  0  0  0  0  0  0  0  0  0  0  0
    9.2700  -16.7937   25.6794 N   0  0  0  0  0  0  0  0  0  0  0  0
   10.5694  -16.4682   26.2297 C   0  0  1  0  0  0  0  0  0  0  0  0
   10.6820  -14.9915   26.5437 C   0  0  0  0  0  0  0  0  0  0  0  0
    9.4509  -14.4440   27.1300 C   0  0  0  0  0  0  0  0  0  0  0  0
    8.9492  -14.5377   28.4083 C   0  0  0  0  0  0  0  0  0  0  0  0
    7.7945  -13.8832   28.4871 N   0  0  0  0  0  0  0  0  0  0  0  0
    7.4820  -13.3359   27.2912 C   0  0  0  0  0  0  0  0  0  0  0  0
    6.4313  -12.5765   26.8220 C   0  0  0  0  0  0  0  0  0  0  0  0
    6.3988  -12.1593   25.5101 C   0  0  0  0  0  0  0  0  0  0  0  0
    7.4205  -12.4910   24.6265 C   0  0  0  0  0  0  0  0  0  0  0  0
    8.4563  -13.2517   25.1292 C   0  0  0  0  0  0  0  0  0  0  0  0
    8.5094  -13.6808   26.4400 C   0  0  0  0  0  0  0  0  0  0  0  0
   10.7055  -17.2050   27.5106 C   0  0  0  0  0  0  0  0  0  0  0  0
   11.9162  -17.3145   28.1841 O   0  0  0  0  0  0  0  0  0  0  0  0
    9.7178  -17.7670   28.0445 O   0  0  0  0  0  0  0  0  0  0  0  0
  2  1  1  1
  2  3  1  0
  3  4  1  0
  4  5  1  0
  5  6  1  0
  6  7  1  0
  8  2  1  0
  9  8  2  0
 10  8  1  0
 11 17  1  0
 11 10  1  0
 11 12  1  6
 13 12  1  0
 14 13  1  0
 15 14  1  0
 16 15  1  0
 17 19  1  0
 18 17  2  0
 19 20  1  0
 20 21  1  1
 20 31  1  0
 22 21  1  0
 23 22  2  0
 24 23  1  0
 25 24  1  0
 25 30  2  0
 26 25  1  0
 27 26  2  0
 27 28  1  0
 28 29  2  0
 29 30  1  0
 30 22  1  0
 31 33  2  0
 31 32  1  0
M  END
$$$$
