KKW.pdb
     RDKit          3D

 33 34  0  0  1  0  0  0  0  0999 V2000
    7.4550  -19.7120   20.1635 N   0  0  0  0  0  0  0  0  0  0  0  0
    6.7340  -18.6480   20.8178 C   0  0  1  0  0  0  0  0  0  0  0  0
    6.0365  -19.1507   22.0471 C   0  0  0  0  0  0  0  0  0  0  0  0
    6.8356  -20.1228   22.8573 C   0  0  0  0  0  0  0  0  0  0  0  0
    6.0583  -20.7494   23.9782 C   0  0  0  0  0  0  0  0  0  0  0  0
    6.9941  -21.6747   24.7416 C   0  0  0  0  0  0  0  0  0  0  0  0
    6.8204  -21.5158   26.1576 N   0  0  0  0  0  0  0  0  0  0  0  0
    7.6383  -17.5179   21.1843 C   0  0  0  0  0  0  0  0  0  0  0  0
    8.8665  -17.7835   21.3196 O   0  0  0  0  0  0  0  0  0  0  0  0
    7.1928  -16.1926   21.3826 N   0  0  0  0  0  0  0  0  0  0  0  0
    8.1340  -15.1173   21.5286 C   0  0  1  0  0  0  0  0  0  0  0  0
    7.5987  -13.8297   20.9754 C   0  0  0  0  0  0  0  0  0  0  0  0
    7.0448  -13.9672   19.5769 C   0  0  0  0  0  0  0  0  0  0  0  0
    8.2203  -13.7274   18.6345 C   0  0  0  0  0  0  0  0  0  0  0  0
    7.7328  -13.8037   17.1996 C   0  0  0  0  0  0  0  0  0  0  0  0
    8.3687  -12.7961   16.3755 N   0  0  0  0  0  0  0  0  0  0  0  0
    8.5805  -14.9985   22.9343 C   0  0  0  0  0  0  0  0  0  0  0  0
    7.8836  -14.3260   23.7277 O   0  0  0  0  0  0  0  0  0  0  0  0
    9.7589  -15.6090   23.4283 N   0  0  0  0  0  0  0  0  0  0  0  0
   10.2764  -15.3075   24.7468 C   0  0  1  0  0  0  0  0  0  0  0  0
    9.3871  -15.8755   25.8324 C   0  0  0  0  0  0  0  0  0  0  0  0
    8.1099  -15.1583   25.9480 C   0  0  0  0  0  0  0  0  0  0  0  0
    6.8149  -15.6142   25.8508 C   0  0  0  0  0  0  0  0  0  0  0  0
    5.9684  -14.6033   26.0224 N   0  0  0  0  0  0  0  0  0  0  0  0
    6.6465  -13.4537   26.2369 C   0  0  0  0  0  0  0  0  0  0  0  0
    6.2795  -12.1448   26.4672 C   0  0  0  0  0  0  0  0  0  0  0  0
    7.2352  -11.1711   26.6529 C   0  0  0  0  0  0  0  0  0  0  0  0
    8.5908  -11.4800   26.6136 C   0  0  0  0  0  0  0  0  0  0  0  0
    8.9227  -12.7990   26.3811 C   0  0  0  0  0  0  0  0  0  0  0  0
    7.9819  -13.7912   26.1922 C   0  0  0  0  0  0  0  0  0  0  0  0
   11.5989  -15.9702   24.8660 C   0  0  0  0  0  0  0  0  0  0  0  0
   12.3709  -15.8945   26.0192 O   0  0  0  0  0  0  0  0  0  0  0  0
   12.0799  -16.6351   23.9158 O   0  0  0  0  0  0  0  0  0  0  0  0
  2  1  1  1
  2  3  1  0
  3  4  1  0
  4  5  1  0
  5  6  1  0
  6  7  1  0
  8  2  1  0
  9  8  2  0
 10  8  1  0
 11 17  1  0
 11 10  1  0
 11 12  1  1
 13 12  1  0
 14 13  1  0
 15 14  1  0
 16 15  1  0
 17 19  1  0
 18 17  2  0
 19 20  1  0
 20 21  1  1
 20 31  1  0
 22 21  1  0
 23 22  2  0
 24 23  1  0
 25 24  1  0
 25 30  2  0
 26 25  1  0
 27 26  2  0
 27 28  1  0
 28 29  2  0
 29 30  1  0
 30 22  1  0
 31 33  2  0
 31 32  1  0
M  END
$$$$
