PCV.pdb
     RDKit          3D

 21 21  0  0  1  0  0  0  0  0999 V2000
    7.9232  -14.9387   18.5147 N   0  0  0  0  0  0  0  0  0  0  0  0
    7.0851  -13.7940   18.3068 C   0  0  0  0  0  0  0  0  0  0  0  0
    7.4984  -12.7390   19.3109 C   0  0  0  0  0  0  0  0  0  0  0  0
    8.9244  -13.1935   19.6183 C   0  0  0  0  0  0  0  0  0  0  0  0
    8.6960  -14.7089   19.7052 C   0  0  1  0  0  0  0  0  0  0  0  0
    7.8852  -15.0188   20.8967 C   0  0  0  0  0  0  0  0  0  0  0  0
    6.7183  -14.5192   21.0217 O   0  0  0  0  0  0  0  0  0  0  0  0
    8.3104  -15.8556   21.9520 N   0  0  0  0  0  0  0  0  0  0  0  0
    7.5526  -16.0815   23.1530 C   0  0  1  0  0  0  0  0  0  0  0  0
    7.5084  -17.5297   23.5626 C   0  0  0  0  0  0  0  0  0  0  0  0
    6.6682  -17.7773   25.1308 S   0  0  0  0  0  0  0  0  0  0  0  0
    8.1552  -15.3069   24.2684 C   0  0  0  0  0  0  0  0  0  0  0  0
    9.4095  -15.3075   24.4806 O   0  0  0  0  0  0  0  0  0  0  0  0
    7.4224  -11.8431   27.6978 C   0  0  0  0  0  0  0  0  0  0  0  0
    6.8476  -12.7213   26.6299 C   0  0  1  0  0  0  0  0  0  0  0  0
    6.2382  -11.9615   25.4958 C   0  0  0  0  0  0  0  0  0  0  0  0
    7.9461  -13.6719   26.1481 C   0  0  2  0  0  0  0  0  0  0  0  0
    7.3343  -14.5269   25.1493 N   0  0  0  0  0  0  0  0  0  0  0  0
    8.3506  -14.4684   27.3309 C   0  0  0  0  0  0  0  0  0  0  0  0
    7.7400  -15.6927   27.5413 O   0  0  0  0  0  0  0  0  0  0  0  0
    9.2181  -14.0982   28.1582 O   0  0  0  0  0  0  0  0  0  0  0  0
  1  2  1  0
  3  2  1  0
  4  5  1  0
  4  3  1  0
  5  1  1  0
  5  6  1  1
  6  8  1  0
  7  6  2  0
  9 10  1  1
  9  8  1  0
  9 12  1  0
 11 10  1  0
 12 18  1  0
 13 12  2  0
 15 14  1  1
 15 16  1  0
 17 15  1  0
 17 18  1  6
 19 17  1  0
 19 20  1  0
 21 19  2  0
M  END
$$$$
