PCV.pdb
     RDKit          3D

 21 21  0  0  1  0  0  0  0  0999 V2000
    7.7491  -15.1685   18.7317 N   0  0  0  0  0  0  0  0  0  0  0  0
    6.9678  -13.9872   18.5081 C   0  0  0  0  0  0  0  0  0  0  0  0
    7.4988  -12.9095   19.4294 C   0  0  0  0  0  0  0  0  0  0  0  0
    8.9115  -13.4334   19.6825 C   0  0  0  0  0  0  0  0  0  0  0  0
    8.6015  -14.9257   19.8638 C   0  0  1  0  0  0  0  0  0  0  0  0
    7.8445  -15.1248   21.1130 C   0  0  0  0  0  0  0  0  0  0  0  0
    6.7596  -14.4837   21.3104 O   0  0  0  0  0  0  0  0  0  0  0  0
    8.2365  -16.0006   22.1493 N   0  0  0  0  0  0  0  0  0  0  0  0
    7.5112  -16.1640   23.3801 C   0  0  1  0  0  0  0  0  0  0  0  0
    7.5244  -17.5798   23.8925 C   0  0  0  0  0  0  0  0  0  0  0  0
    6.3216  -18.6245   23.0626 S   0  0  0  0  0  0  0  0  0  0  0  0
    8.1096  -15.2922   24.4238 C   0  0  0  0  0  0  0  0  0  0  0  0
    9.3650  -15.0982   24.4925 O   0  0  0  0  0  0  0  0  0  0  0  0
    7.2873  -11.9201   27.9119 C   0  0  0  0  0  0  0  0  0  0  0  0
    6.7251  -12.8761   26.9059 C   0  0  1  0  0  0  0  0  0  0  0  0
    5.9613  -12.2073   25.8085 C   0  0  0  0  0  0  0  0  0  0  0  0
    7.8739  -13.7264   26.3583 C   0  0  2  0  0  0  0  0  0  0  0  0
    7.2832  -14.6359   25.3956 N   0  0  0  0  0  0  0  0  0  0  0  0
    8.4167  -14.4797   27.5137 C   0  0  0  0  0  0  0  0  0  0  0  0
    8.0038  -15.7875   27.7006 O   0  0  0  0  0  0  0  0  0  0  0  0
    9.2329  -14.0012   28.3377 O   0  0  0  0  0  0  0  0  0  0  0  0
  1  2  1  0
  3  2  1  0
  4  5  1  0
  4  3  1  0
  5  1  1  0
  5  6  1  1
  6  8  1  0
  7  6  2  0
  9 10  1  1
  9  8  1  0
  9 12  1  0
 11 10  1  0
 12 18  1  0
 13 12  2  0
 15 14  1  1
 15 16  1  0
 17 15  1  0
 17 18  1  6
 19 17  1  0
 19 20  1  0
 21 19  2  0
M  END
$$$$
