PCV.pdb
     RDKit          3D

 21 21  0  0  1  0  0  0  0  0999 V2000
    8.3809  -14.8757   18.1915 N   0  0  0  0  0  0  0  0  0  0  0  0
    7.2882  -13.9858   17.9268 C   0  0  0  0  0  0  0  0  0  0  0  0
    7.3776  -12.8473   18.9206 C   0  0  0  0  0  0  0  0  0  0  0  0
    8.8584  -12.9185   19.2902 C   0  0  0  0  0  0  0  0  0  0  0  0
    9.0200  -14.4407   19.4037 C   0  0  1  0  0  0  0  0  0  0  0  0
    8.2666  -14.9318   20.5717 C   0  0  0  0  0  0  0  0  0  0  0  0
    6.9923  -14.9760   20.5361 O   0  0  0  0  0  0  0  0  0  0  0  0
    8.8623  -15.3745   21.7733 N   0  0  0  0  0  0  0  0  0  0  0  0
    8.1195  -15.7917   22.9317 C   0  0  1  0  0  0  0  0  0  0  0  0
    8.3283  -17.2419   23.2792 C   0  0  0  0  0  0  0  0  0  0  0  0
   10.0639  -17.7047   23.2920 S   0  0  0  0  0  0  0  0  0  0  0  0
    8.5327  -14.9750   24.1020 C   0  0  0  0  0  0  0  0  0  0  0  0
    9.7397  -14.6088   24.2681 O   0  0  0  0  0  0  0  0  0  0  0  0
    7.1373  -11.9345   27.6536 C   0  0  0  0  0  0  0  0  0  0  0  0
    6.7758  -12.8220   26.5030 C   0  0  1  0  0  0  0  0  0  0  0  0
    6.3110  -12.0739   25.2950 C   0  0  0  0  0  0  0  0  0  0  0  0
    7.9799  -13.7127   26.1879 C   0  0  2  0  0  0  0  0  0  0  0  0
    7.5751  -14.5698   25.0904 N   0  0  0  0  0  0  0  0  0  0  0  0
    8.2275  -14.5183   27.4072 C   0  0  0  0  0  0  0  0  0  0  0  0
    9.1481  -14.0519   28.3296 O   0  0  0  0  0  0  0  0  0  0  0  0
    7.6499  -15.6040   27.6556 O   0  0  0  0  0  0  0  0  0  0  0  0
  1  2  1  0
  3  2  1  0
  4  5  1  0
  4  3  1  0
  5  1  1  0
  5  6  1  1
  6  8  1  0
  7  6  2  0
  9 10  1  1
  9  8  1  0
  9 12  1  0
 11 10  1  0
 12 18  1  0
 13 12  2  0
 15 14  1  1
 15 16  1  0
 17 15  1  0
 17 18  1  6
 19 17  1  0
 19 20  1  0
 21 19  2  0
M  END
$$$$
