PCV.pdb
     RDKit          3D

 21 21  0  0  1  0  0  0  0  0999 V2000
    8.0234  -15.1315   18.3631 N   0  0  0  0  0  0  0  0  0  0  0  0
    7.1171  -14.0597   18.0697 C   0  0  0  0  0  0  0  0  0  0  0  0
    7.4471  -12.9159   19.0050 C   0  0  0  0  0  0  0  0  0  0  0  0
    8.8944  -13.2558   19.3576 C   0  0  0  0  0  0  0  0  0  0  0  0
    8.7620  -14.7736   19.5436 C   0  0  1  0  0  0  0  0  0  0  0  0
    7.9548  -15.0555   20.7445 C   0  0  0  0  0  0  0  0  0  0  0  0
    6.7175  -14.7466   20.7684 O   0  0  0  0  0  0  0  0  0  0  0  0
    8.4579  -15.6630   21.9160 N   0  0  0  0  0  0  0  0  0  0  0  0
    7.6637  -15.9375   23.0829 C   0  0  1  0  0  0  0  0  0  0  0  0
    7.6121  -17.4008   23.4341 C   0  0  0  0  0  0  0  0  0  0  0  0
    6.7148  -17.7125   24.9588 S   0  0  0  0  0  0  0  0  0  0  0  0
    8.2283  -15.2056   24.2461 C   0  0  0  0  0  0  0  0  0  0  0  0
    9.4752  -15.2129   24.4984 O   0  0  0  0  0  0  0  0  0  0  0  0
    7.3813  -11.8553   27.7585 C   0  0  0  0  0  0  0  0  0  0  0  0
    6.8172  -12.7723   26.7178 C   0  0  1  0  0  0  0  0  0  0  0  0
    6.0980  -12.0578   25.6191 C   0  0  0  0  0  0  0  0  0  0  0  0
    7.9550  -13.6415   26.1771 C   0  0  2  0  0  0  0  0  0  0  0  0
    7.3776  -14.4610   25.1293 N   0  0  0  0  0  0  0  0  0  0  0  0
    8.4002  -14.4891   27.3085 C   0  0  0  0  0  0  0  0  0  0  0  0
    9.5111  -14.0919   28.0325 O   0  0  0  0  0  0  0  0  0  0  0  0
    7.8279  -15.5514   27.6522 O   0  0  0  0  0  0  0  0  0  0  0  0
  1  2  1  0
  3  2  1  0
  4  5  1  0
  4  3  1  0
  5  1  1  0
  5  6  1  1
  6  8  1  0
  7  6  2  0
  9 10  1  1
  9  8  1  0
  9 12  1  0
 11 10  1  0
 12 18  1  0
 13 12  2  0
 15 14  1  1
 15 16  1  0
 17 15  1  0
 17 18  1  6
 19 17  1  0
 19 20  1  0
 21 19  2  0
M  END
$$$$
