PCV.pdb
     RDKit          3D

 21 21  0  0  1  0  0  0  0  0999 V2000
    8.0085  -15.0340   18.5647 N   0  0  0  0  0  0  0  0  0  0  0  0
    7.1042  -13.9476   18.3245 C   0  0  0  0  0  0  0  0  0  0  0  0
    7.4491  -12.8439   19.3016 C   0  0  0  0  0  0  0  0  0  0  0  0
    8.8985  -13.2036   19.6247 C   0  0  0  0  0  0  0  0  0  0  0  0
    8.7610  -14.7272   19.7509 C   0  0  1  0  0  0  0  0  0  0  0  0
    7.9652  -15.0540   20.9479 C   0  0  0  0  0  0  0  0  0  0  0  0
    6.7723  -14.6167   21.0597 O   0  0  0  0  0  0  0  0  0  0  0  0
    8.4328  -15.8419   22.0227 N   0  0  0  0  0  0  0  0  0  0  0  0
    7.6898  -16.0726   23.2320 C   0  0  1  0  0  0  0  0  0  0  0  0
    7.7546  -17.5009   23.7043 C   0  0  0  0  0  0  0  0  0  0  0  0
    6.8938  -17.7520   25.2608 S   0  0  0  0  0  0  0  0  0  0  0  0
    8.2274  -15.2067   24.3130 C   0  0  0  0  0  0  0  0  0  0  0  0
    9.4776  -15.0964   24.5208 O   0  0  0  0  0  0  0  0  0  0  0  0
    7.2375  -11.7624   27.6967 C   0  0  0  0  0  0  0  0  0  0  0  0
    6.7293  -12.6852   26.6327 C   0  0  1  0  0  0  0  0  0  0  0  0
    6.0924  -11.9757   25.4813 C   0  0  0  0  0  0  0  0  0  0  0  0
    7.8876  -13.5759   26.1772 C   0  0  2  0  0  0  0  0  0  0  0  0
    7.3457  -14.4608   25.1642 N   0  0  0  0  0  0  0  0  0  0  0  0
    8.3054  -14.3512   27.3693 C   0  0  0  0  0  0  0  0  0  0  0  0
    7.8147  -15.6361   27.5252 O   0  0  0  0  0  0  0  0  0  0  0  0
    9.0817  -13.9112   28.2513 O   0  0  0  0  0  0  0  0  0  0  0  0
  1  2  1  0
  3  2  1  0
  4  5  1  0
  4  3  1  0
  5  1  1  0
  5  6  1  1
  6  8  1  0
  7  6  2  0
  9 10  1  1
  9  8  1  0
  9 12  1  0
 11 10  1  0
 12 18  1  0
 13 12  2  0
 15 14  1  1
 15 16  1  0
 17 15  1  0
 17 18  1  6
 19 17  1  0
 19 20  1  0
 21 19  2  0
M  END
$$$$
