PCV.pdb
     RDKit          3D

 21 21  0  0  1  0  0  0  0  0999 V2000
    8.1923  -15.0640   19.6354 N   0  0  0  0  0  0  0  0  0  0  0  0
    7.0412  -14.3036   19.2447 C   0  0  0  0  0  0  0  0  0  0  0  0
    7.0928  -12.9856   19.9879 C   0  0  0  0  0  0  0  0  0  0  0  0
    8.5857  -12.9039   20.3025 C   0  0  0  0  0  0  0  0  0  0  0  0
    8.8409  -14.3617   20.7094 C   0  0  1  0  0  0  0  0  0  0  0  0
    8.1536  -14.6469   21.9819 C   0  0  0  0  0  0  0  0  0  0  0  0
    7.1097  -13.9888   22.3046 O   0  0  0  0  0  0  0  0  0  0  0  0
    8.5718  -15.6267   22.9092 N   0  0  0  0  0  0  0  0  0  0  0  0
    8.0938  -15.7071   24.2630 C   0  0  1  0  0  0  0  0  0  0  0  0
    7.2283  -16.9131   24.5155 C   0  0  0  0  0  0  0  0  0  0  0  0
    8.0968  -18.4582   24.2235 S   0  0  0  0  0  0  0  0  0  0  0  0
    9.2521  -15.7706   25.1912 C   0  0  0  0  0  0  0  0  0  0  0  0
   10.4323  -15.9943   24.7721 O   0  0  0  0  0  0  0  0  0  0  0  0
   10.5694  -13.2307   27.5301 C   0  0  0  0  0  0  0  0  0  0  0  0
   10.1611  -14.4020   28.3688 C   0  0  1  0  0  0  0  0  0  0  0  0
    8.8242  -14.2354   29.0167 C   0  0  0  0  0  0  0  0  0  0  0  0
   10.2138  -15.6583   27.4961 C   0  0  2  0  0  0  0  0  0  0  0  0
    9.0748  -15.5800   26.6021 N   0  0  0  0  0  0  0  0  0  0  0  0
   10.0667  -16.8085   28.4193 C   0  0  0  0  0  0  0  0  0  0  0  0
   11.1606  -17.1896   29.1770 O   0  0  0  0  0  0  0  0  0  0  0  0
    9.0045  -17.4619   28.5567 O   0  0  0  0  0  0  0  0  0  0  0  0
  1  2  1  0
  3  2  1  0
  4  5  1  0
  4  3  1  0
  5  1  1  0
  5  6  1  1
  6  8  1  0
  7  6  2  0
  9 10  1  6
  9  8  1  0
  9 12  1  0
 11 10  1  0
 12 18  1  0
 13 12  2  0
 15 14  1  6
 15 16  1  0
 17 15  1  0
 17 18  1  6
 19 17  1  0
 19 20  1  0
 21 19  2  0
M  END
$$$$
