PCV.pdb
     RDKit          3D

 21 21  0  0  1  0  0  0  0  0999 V2000
    7.6004  -14.1219   19.9316 N   0  0  0  0  0  0  0  0  0  0  0  0
    8.1952  -15.3669   19.5415 C   0  0  0  0  0  0  0  0  0  0  0  0
    7.5176  -16.4634   20.3354 C   0  0  0  0  0  0  0  0  0  0  0  0
    6.2007  -15.7746   20.6902 C   0  0  0  0  0  0  0  0  0  0  0  0
    6.7310  -14.3792   21.0475 C   0  0  1  0  0  0  0  0  0  0  0  0
    7.5198  -14.4538   22.2906 C   0  0  0  0  0  0  0  0  0  0  0  0
    8.7849  -14.6062   22.2351 O   0  0  0  0  0  0  0  0  0  0  0  0
    6.9689  -14.3671   23.5882 N   0  0  0  0  0  0  0  0  0  0  0  0
    7.7463  -14.4274   24.7964 C   0  0  1  0  0  0  0  0  0  0  0  0
    6.9523  -14.0877   26.0298 C   0  0  0  0  0  0  0  0  0  0  0  0
    6.1960  -12.4610   25.9366 S   0  0  0  0  0  0  0  0  0  0  0  0
    8.2904  -15.7997   24.9639 C   0  0  0  0  0  0  0  0  0  0  0  0
    7.5653  -16.8309   24.7931 O   0  0  0  0  0  0  0  0  0  0  0  0
   12.2060  -18.6859   25.1395 C   0  0  0  0  0  0  0  0  0  0  0  0
   11.5649  -17.3644   24.8484 C   0  0  1  0  0  0  0  0  0  0  0  0
   11.4997  -17.0407   23.3904 C   0  0  0  0  0  0  0  0  0  0  0  0
   10.1766  -17.3528   25.4927 C   0  0  2  0  0  0  0  0  0  0  0  0
    9.6628  -16.0070   25.3266 N   0  0  0  0  0  0  0  0  0  0  0  0
   10.3860  -17.6513   26.9294 C   0  0  0  0  0  0  0  0  0  0  0  0
   10.3789  -16.5994   27.8290 O   0  0  0  0  0  0  0  0  0  0  0  0
   10.5705  -18.8066   27.3826 O   0  0  0  0  0  0  0  0  0  0  0  0
  1  2  1  0
  3  2  1  0
  4  5  1  0
  4  3  1  0
  5  1  1  0
  5  6  1  1
  6  8  1  0
  7  6  2  0
  9 10  1  1
  9  8  1  0
  9 12  1  0
 11 10  1  0
 12 18  1  0
 13 12  2  0
 15 14  1  6
 15 16  1  0
 17 15  1  0
 17 18  1  1
 19 17  1  0
 19 20  1  0
 21 19  2  0
M  END
$$$$
