PCV.pdb
     RDKit          3D

 21 21  0  0  1  0  0  0  0  0999 V2000
    9.2217  -15.0463   15.2334 N   0  0  0  0  0  0  0  0  0  0  0  0
   10.1239  -16.1542   15.1127 C   0  0  0  0  0  0  0  0  0  0  0  0
    9.5750  -17.2825   15.9597 C   0  0  0  0  0  0  0  0  0  0  0  0
    8.1016  -16.8840   16.0300 C   0  0  0  0  0  0  0  0  0  0  0  0
    8.2564  -15.3725   16.2479 C   0  0  1  0  0  0  0  0  0  0  0  0
    8.8283  -15.1218   17.5832 C   0  0  0  0  0  0  0  0  0  0  0  0
   10.0858  -15.2283   17.7687 O   0  0  0  0  0  0  0  0  0  0  0  0
    8.0695  -14.7596   18.7179 N   0  0  0  0  0  0  0  0  0  0  0  0
    8.6435  -14.3947   19.9848 C   0  0  1  0  0  0  0  0  0  0  0  0
    7.7184  -13.5691   20.8391 C   0  0  0  0  0  0  0  0  0  0  0  0
    7.5632  -11.8785   20.2523 S   0  0  0  0  0  0  0  0  0  0  0  0
    8.9908  -15.6256   20.7409 C   0  0  0  0  0  0  0  0  0  0  0  0
    8.2674  -16.6704   20.6843 O   0  0  0  0  0  0  0  0  0  0  0  0
   12.5509  -18.1722   22.8937 C   0  0  0  0  0  0  0  0  0  0  0  0
   12.0900  -16.9451   22.1700 C   0  0  1  0  0  0  0  0  0  0  0  0
   12.6225  -16.8379   20.7772 C   0  0  0  0  0  0  0  0  0  0  0  0
   10.5598  -16.9208   22.1937 C   0  0  2  0  0  0  0  0  0  0  0  0
   10.1634  -15.6751   21.5659 N   0  0  0  0  0  0  0  0  0  0  0  0
   10.1692  -16.9249   23.6235 C   0  0  0  0  0  0  0  0  0  0  0  0
   10.0765  -15.7126   24.2850 O   0  0  0  0  0  0  0  0  0  0  0  0
    9.9157  -17.9669   24.2748 O   0  0  0  0  0  0  0  0  0  0  0  0
  1  2  1  0
  3  2  1  0
  4  5  1  0
  4  3  1  0
  5  1  1  0
  5  6  1  1
  6  8  1  0
  7  6  2  0
  9 10  1  1
  9  8  1  0
  9 12  1  0
 11 10  1  0
 12 18  1  0
 13 12  2  0
 15 14  1  6
 15 16  1  0
 17 15  1  0
 17 18  1  1
 19 17  1  0
 19 20  1  0
 21 19  2  0
M  END
$$$$
