PCV.pdb
     RDKit          3D

 21 21  0  0  1  0  0  0  0  0999 V2000
    8.3733  -15.2359   20.0951 N   0  0  0  0  0  0  0  0  0  0  0  0
    7.0754  -14.8881   19.5949 C   0  0  0  0  0  0  0  0  0  0  0  0
    6.7789  -13.4730   20.0439 C   0  0  0  0  0  0  0  0  0  0  0  0
    8.1968  -12.9556   20.2816 C   0  0  0  0  0  0  0  0  0  0  0  0
    8.8033  -14.1833   20.9750 C   0  0  1  0  0  0  0  0  0  0  0  0
    8.1861  -14.3562   22.3025 C   0  0  0  0  0  0  0  0  0  0  0  0
    7.6828  -13.3524   22.9075 O   0  0  0  0  0  0  0  0  0  0  0  0
    8.1027  -15.5893   22.9860 N   0  0  0  0  0  0  0  0  0  0  0  0
    7.7628  -15.7148   24.3776 C   0  0  1  0  0  0  0  0  0  0  0  0
    6.9127  -16.9218   24.6737 C   0  0  0  0  0  0  0  0  0  0  0  0
    7.8380  -18.4581   24.5728 S   0  0  0  0  0  0  0  0  0  0  0  0
    9.0080  -15.8217   25.1809 C   0  0  0  0  0  0  0  0  0  0  0  0
   10.1078  -16.1946   24.6615 O   0  0  0  0  0  0  0  0  0  0  0  0
   10.3940  -13.1325   27.4687 C   0  0  0  0  0  0  0  0  0  0  0  0
   10.2324  -14.3753   28.2882 C   0  0  1  0  0  0  0  0  0  0  0  0
    9.0150  -14.3642   29.1558 C   0  0  0  0  0  0  0  0  0  0  0  0
   10.2413  -15.5782   27.3418 C   0  0  2  0  0  0  0  0  0  0  0  0
    9.0095  -15.5050   26.5801 N   0  0  0  0  0  0  0  0  0  0  0  0
   10.2428  -16.7827   28.2056 C   0  0  0  0  0  0  0  0  0  0  0  0
   11.4057  -17.1068   28.8827 O   0  0  0  0  0  0  0  0  0  0  0  0
    9.2479  -17.5311   28.3613 O   0  0  0  0  0  0  0  0  0  0  0  0
  1  2  1  0
  3  2  1  0
  4  5  1  0
  4  3  1  0
  5  1  1  0
  5  6  1  1
  6  8  1  0
  7  6  2  0
  9 10  1  6
  9  8  1  0
  9 12  1  0
 11 10  1  0
 12 18  1  0
 13 12  2  0
 15 14  1  6
 15 16  1  0
 17 15  1  0
 17 18  1  6
 19 17  1  0
 19 20  1  0
 21 19  2  0
M  END
$$$$
