PCV.pdb
     RDKit          3D

 21 21  0  0  1  0  0  0  0  0999 V2000
    8.2348  -14.9565   18.0879 N   0  0  0  0  0  0  0  0  0  0  0  0
    7.3586  -13.8594   17.7976 C   0  0  0  0  0  0  0  0  0  0  0  0
    7.6218  -12.7818   18.8279 C   0  0  0  0  0  0  0  0  0  0  0  0
    9.0365  -13.1578   19.2659 C   0  0  0  0  0  0  0  0  0  0  0  0
    8.8831  -14.6831   19.3418 C   0  0  1  0  0  0  0  0  0  0  0  0
    7.9856  -15.0345   20.4572 C   0  0  0  0  0  0  0  0  0  0  0  0
    6.8271  -15.5113   20.2178 O   0  0  0  0  0  0  0  0  0  0  0  0
    8.3155  -14.8806   21.8219 N   0  0  0  0  0  0  0  0  0  0  0  0
    7.6741  -15.5999   22.8891 C   0  0  1  0  0  0  0  0  0  0  0  0
    7.8549  -17.0915   22.7914 C   0  0  0  0  0  0  0  0  0  0  0  0
    7.8080  -17.8981   24.3957 S   0  0  0  0  0  0  0  0  0  0  0  0
    8.2351  -15.1535   24.1905 C   0  0  0  0  0  0  0  0  0  0  0  0
    9.4812  -15.2186   24.4380 O   0  0  0  0  0  0  0  0  0  0  0  0
    7.2965  -11.9792   27.8010 C   0  0  0  0  0  0  0  0  0  0  0  0
    6.7774  -12.8859   26.7284 C   0  0  1  0  0  0  0  0  0  0  0  0
    6.1360  -12.1587   25.5906 C   0  0  0  0  0  0  0  0  0  0  0  0
    7.9289  -13.7754   26.2537 C   0  0  2  0  0  0  0  0  0  0  0  0
    7.3816  -14.6303   25.2181 N   0  0  0  0  0  0  0  0  0  0  0  0
    8.3369  -14.5835   27.4273 C   0  0  0  0  0  0  0  0  0  0  0  0
    9.2748  -14.0552   28.2974 O   0  0  0  0  0  0  0  0  0  0  0  0
    7.8811  -15.7244   27.6818 O   0  0  0  0  0  0  0  0  0  0  0  0
  1  2  1  0
  3  2  1  0
  4  5  1  0
  4  3  1  0
  5  1  1  0
  5  6  1  1
  6  8  1  0
  7  6  2  0
  9 10  1  6
  9  8  1  0
  9 12  1  0
 11 10  1  0
 12 18  1  0
 13 12  2  0
 15 14  1  1
 15 16  1  0
 17 15  1  0
 17 18  1  6
 19 17  1  0
 19 20  1  0
 21 19  2  0
M  END
$$$$
