NHT.pdb
     RDKit          3D

 26 26  0  0  1  0  0  0  0  0999 V2000
   11.5545  -17.9016   13.3750 N   0  0  0  0  0  0  0  0  0  0  0  0
   10.7083  -18.5600   14.2957 C   0  0  0  0  0  0  0  0  0  0  0  0
   10.9455  -19.7947   14.5111 O   0  0  0  0  0  0  0  0  0  0  0  0
    9.5866  -17.8863   15.0004 C   0  0  0  0  0  0  0  0  0  0  0  0
    9.6567  -16.4253   14.6717 C   0  0  2  0  0  0  0  0  0  0  0  0
   10.1543  -16.2595   13.3279 N   0  0  0  0  0  0  0  0  0  0  0  0
   10.4970  -15.6745   15.6563 C   0  0  0  0  0  0  0  0  0  0  0  0
   11.3680  -14.9386   15.1802 O   0  0  0  0  0  0  0  0  0  0  0  0
   10.3073  -15.7989   17.0331 N   0  0  0  0  0  0  0  0  0  0  0  0
   10.9452  -15.1223   18.0892 C   0  0  1  0  0  0  0  0  0  0  0  0
   10.1412  -14.9200   19.3605 C   0  0  0  0  0  0  0  0  0  0  0  0
    8.9770  -14.0523   19.2240 C   0  0  0  0  0  0  0  0  0  0  0  0
    8.7214  -13.3225   18.0702 C   0  0  0  0  0  0  0  0  0  0  0  0
    7.5844  -12.6331   18.2671 N   0  0  0  0  0  0  0  0  0  0  0  0
    7.1129  -12.8932   19.4865 C   0  0  0  0  0  0  0  0  0  0  0  0
    7.9697  -13.7555   20.0526 N   0  0  0  0  0  0  0  0  0  0  0  0
   12.2793  -15.6032   18.4341 C   0  0  0  0  0  0  0  0  0  0  0  0
   12.4208  -16.8644   18.5899 O   0  0  0  0  0  0  0  0  0  0  0  0
   15.5171  -14.5495   16.5339 C   0  0  0  0  0  0  0  0  0  0  0  0
   15.7645  -14.5834   18.0267 C   0  0  1  0  0  0  0  0  0  0  0  0
   15.8578  -13.2944   18.5063 O   0  0  0  0  0  0  0  0  0  0  0  0
   14.7250  -15.4141   18.7468 C   0  0  2  0  0  0  0  0  0  0  0  0
   13.4067  -14.8009   18.6056 N   0  0  0  0  0  0  0  0  0  0  0  0
   15.1144  -15.4498   20.1773 C   0  0  0  0  0  0  0  0  0  0  0  0
   14.4024  -14.9627   21.0681 O   0  0  0  0  0  0  0  0  0  0  0  0
   16.3085  -16.0453   20.5236 O   0  0  0  0  0  0  0  0  0  0  0  0
  2  3  2  0
  2  1  1  0
  4  2  1  0
  5  4  1  0
  5  6  1  6
  7  5  1  0
  7  9  1  0
  8  7  2  0
 10  9  1  0
 11 12  1  0
 10 11  1  1
 12 13  2  0
 13 14  1  0
 15 14  1  0
 16 12  1  0
 16 15  2  0
 17 18  2  0
 17 10  1  0
 20 19  1  6
 20 21  1  0
 22 23  1  1
 22 20  1  0
 23 17  1  0
 24 22  1  0
 25 24  2  0
 26 24  1  0
M  END
$$$$
