NHT.pdb
     RDKit          3D

 26 26  0  0  1  0  0  0  0  0999 V2000
   15.2303  -15.2940   16.5814 N   0  0  0  0  0  0  0  0  0  0  0  0
   15.1261  -14.1263   17.3706 C   0  0  0  0  0  0  0  0  0  0  0  0
   15.9834  -13.2075   17.1515 O   0  0  0  0  0  0  0  0  0  0  0  0
   14.0857  -13.9361   18.4147 C   0  0  0  0  0  0  0  0  0  0  0  0
   13.5344  -15.2876   18.7572 C   0  0  2  0  0  0  0  0  0  0  0  0
   12.7859  -15.7986   17.6349 N   0  0  0  0  0  0  0  0  0  0  0  0
   12.6939  -15.2468   19.9946 C   0  0  0  0  0  0  0  0  0  0  0  0
   13.2092  -14.7200   20.9865 O   0  0  0  0  0  0  0  0  0  0  0  0
   11.4022  -15.7738   20.0258 N   0  0  0  0  0  0  0  0  0  0  0  0
   10.4706  -15.7979   21.0801 C   0  0  1  0  0  0  0  0  0  0  0  0
    9.0103  -15.6123   20.7108 C   0  0  0  0  0  0  0  0  0  0  0  0
    8.7191  -14.4216   19.9207 C   0  0  0  0  0  0  0  0  0  0  0  0
    8.4984  -14.4710   18.5502 C   0  0  0  0  0  0  0  0  0  0  0  0
    8.2602  -13.2166   18.1300 N   0  0  0  0  0  0  0  0  0  0  0  0
    8.3202  -12.3818   19.1675 C   0  0  0  0  0  0  0  0  0  0  0  0
    8.5993  -13.1294   20.2451 N   0  0  0  0  0  0  0  0  0  0  0  0
   10.5946  -16.9175   22.0080 C   0  0  0  0  0  0  0  0  0  0  0  0
   10.3744  -18.0873   21.5409 O   0  0  0  0  0  0  0  0  0  0  0  0
   13.4522  -18.4486   23.6770 C   0  0  0  0  0  0  0  0  0  0  0  0
   12.4320  -18.1374   24.7508 C   0  0  1  0  0  0  0  0  0  0  0  0
   12.8297  -17.0192   25.4521 O   0  0  0  0  0  0  0  0  0  0  0  0
   11.0367  -18.0174   24.1782 C   0  0  2  0  0  0  0  0  0  0  0  0
   10.9331  -16.8141   23.3566 N   0  0  0  0  0  0  0  0  0  0  0  0
   10.1036  -17.9259   25.3272 C   0  0  0  0  0  0  0  0  0  0  0  0
    9.4124  -16.9183   25.5382 O   0  0  0  0  0  0  0  0  0  0  0  0
   10.0046  -18.9992   26.1867 O   0  0  0  0  0  0  0  0  0  0  0  0
  2  3  2  0
  2  1  1  0
  4  2  1  0
  5  4  1  0
  5  6  1  6
  7  5  1  0
  7  9  1  0
  8  7  2  0
 10  9  1  0
 11 12  1  0
 10 11  1  6
 12 13  2  0
 13 14  1  0
 15 14  1  0
 16 12  1  0
 16 15  2  0
 17 18  2  0
 17 10  1  0
 20 19  1  6
 20 21  1  0
 22 23  1  6
 22 20  1  0
 23 17  1  0
 24 22  1  0
 25 24  2  0
 26 24  1  0
M  END
$$$$
