NHT.pdb
     RDKit          3D

 26 26  0  0  1  0  0  0  0  0999 V2000
   12.2154  -15.9099   14.0818 N   0  0  0  0  0  0  0  0  0  0  0  0
   12.6171  -16.0881   15.4249 C   0  0  0  0  0  0  0  0  0  0  0  0
   13.6580  -16.7984   15.6229 O   0  0  0  0  0  0  0  0  0  0  0  0
   11.8926  -15.4960   16.5796 C   0  0  0  0  0  0  0  0  0  0  0  0
   12.0154  -16.4499   17.7296 C   0  0  2  0  0  0  0  0  0  0  0  0
   11.2855  -17.6578   17.4307 N   0  0  0  0  0  0  0  0  0  0  0  0
   11.5458  -15.8372   19.0116 C   0  0  0  0  0  0  0  0  0  0  0  0
   12.2648  -14.9526   19.4884 O   0  0  0  0  0  0  0  0  0  0  0  0
   10.3635  -16.2422   19.6323 N   0  0  0  0  0  0  0  0  0  0  0  0
    9.8187  -15.8432   20.8668 C   0  0  1  0  0  0  0  0  0  0  0  0
    8.3796  -15.3612   20.8588 C   0  0  0  0  0  0  0  0  0  0  0  0
    8.0557  -14.3995   19.8113 C   0  0  0  0  0  0  0  0  0  0  0  0
    8.2165  -13.0301   19.9798 C   0  0  0  0  0  0  0  0  0  0  0  0
    7.8318  -12.4310   18.8397 N   0  0  0  0  0  0  0  0  0  0  0  0
    7.4375  -13.3550   17.9636 C   0  0  0  0  0  0  0  0  0  0  0  0
    7.5799  -14.5428   18.5694 N   0  0  0  0  0  0  0  0  0  0  0  0
   10.0082  -16.7763   21.9729 C   0  0  0  0  0  0  0  0  0  0  0  0
    9.2948  -17.8374   21.9675 O   0  0  0  0  0  0  0  0  0  0  0  0
   13.1414  -18.5704   22.8094 C   0  0  0  0  0  0  0  0  0  0  0  0
   12.5930  -17.9964   24.0981 C   0  0  1  0  0  0  0  0  0  0  0  0
   13.3509  -16.9086   24.4757 O   0  0  0  0  0  0  0  0  0  0  0  0
   11.1165  -17.6854   23.9878 C   0  0  2  0  0  0  0  0  0  0  0  0
   10.9015  -16.6042   23.0295 N   0  0  0  0  0  0  0  0  0  0  0  0
   10.6611  -17.2640   25.3347 C   0  0  0  0  0  0  0  0  0  0  0  0
   10.6487  -18.0410   26.3010 O   0  0  0  0  0  0  0  0  0  0  0  0
   10.2382  -15.9641   25.5139 O   0  0  0  0  0  0  0  0  0  0  0  0
  2  3  2  0
  2  1  1  0
  4  2  1  0
  5  4  1  0
  5  6  1  6
  7  5  1  0
  7  9  1  0
  8  7  2  0
 10  9  1  0
 11 12  1  0
 10 11  1  6
 12 13  2  0
 13 14  1  0
 15 14  1  0
 16 12  1  0
 16 15  2  0
 17 18  2  0
 17 10  1  0
 20 19  1  6
 20 21  1  0
 22 23  1  6
 22 20  1  0
 23 17  1  0
 24 22  1  0
 25 24  2  0
 26 24  1  0
M  END
$$$$
