NHT.pdb
     RDKit          3D

 26 26  0  0  1  0  0  0  0  0999 V2000
   11.3026  -17.0487   14.5556 N   0  0  0  0  0  0  0  0  0  0  0  0
   10.2838  -17.4663   15.4414 C   0  0  0  0  0  0  0  0  0  0  0  0
    9.6075  -18.4910   15.0955 O   0  0  0  0  0  0  0  0  0  0  0  0
    9.9811  -16.7757   16.7222 C   0  0  0  0  0  0  0  0  0  0  0  0
   10.7567  -17.4657   17.8038 C   0  0  2  0  0  0  0  0  0  0  0  0
   10.2049  -18.7800   18.0256 N   0  0  0  0  0  0  0  0  0  0  0  0
   10.7761  -16.6666   19.0689 C   0  0  0  0  0  0  0  0  0  0  0  0
   11.6833  -15.8342   19.1739 O   0  0  0  0  0  0  0  0  0  0  0  0
    9.8239  -16.8515   20.0721 N   0  0  0  0  0  0  0  0  0  0  0  0
    9.6731  -16.1775   21.2980 C   0  0  1  0  0  0  0  0  0  0  0  0
    8.3780  -15.4146   21.5077 C   0  0  0  0  0  0  0  0  0  0  0  0
    7.9973  -14.5304   20.4122 C   0  0  0  0  0  0  0  0  0  0  0  0
    8.2628  -13.1670   20.4268 C   0  0  0  0  0  0  0  0  0  0  0  0
    7.7881  -12.6467   19.2819 N   0  0  0  0  0  0  0  0  0  0  0  0
    7.2377  -13.6146   18.5489 C   0  0  0  0  0  0  0  0  0  0  0  0
    7.3734  -14.7500   19.2494 N   0  0  0  0  0  0  0  0  0  0  0  0
    9.9683  -16.9632   22.4920 C   0  0  0  0  0  0  0  0  0  0  0  0
    9.4313  -18.1207   22.5742 O   0  0  0  0  0  0  0  0  0  0  0  0
   13.1409  -18.3094   25.9364 C   0  0  0  0  0  0  0  0  0  0  0  0
   12.6697  -17.3285   24.8844 C   0  0  1  0  0  0  0  0  0  0  0  0
   13.4858  -17.4155   23.7768 O   0  0  0  0  0  0  0  0  0  0  0  0
   11.2036  -17.5168   24.5614 C   0  0  2  0  0  0  0  0  0  0  0  0
   10.7860  -16.5545   23.5449 N   0  0  0  0  0  0  0  0  0  0  0  0
   10.4503  -17.2833   25.8172 C   0  0  0  0  0  0  0  0  0  0  0  0
    9.7695  -16.2629   25.9992 O   0  0  0  0  0  0  0  0  0  0  0  0
   10.5116  -18.2349   26.8128 O   0  0  0  0  0  0  0  0  0  0  0  0
  2  3  2  0
  2  1  1  0
  4  2  1  0
  5  4  1  0
  5  6  1  1
  7  5  1  0
  7  9  1  0
  8  7  2  0
 10  9  1  0
 11 12  1  0
 10 11  1  1
 12 13  2  0
 13 14  1  0
 15 14  1  0
 16 12  1  0
 16 15  2  0
 17 18  2  0
 17 10  1  0
 20 19  1  1
 20 21  1  0
 22 23  1  6
 22 20  1  0
 23 17  1  0
 24 22  1  0
 25 24  2  0
 26 24  1  0
M  END
$$$$
