NHT.pdb
     RDKit          3D

 26 26  0  0  1  0  0  0  0  0999 V2000
    7.5123  -13.2047   13.7396 N   0  0  0  0  0  0  0  0  0  0  0  0
    7.5744  -14.6150   13.8049 C   0  0  0  0  0  0  0  0  0  0  0  0
    7.5501  -15.2422   12.6944 O   0  0  0  0  0  0  0  0  0  0  0  0
    7.6644  -15.3705   15.0815 C   0  0  0  0  0  0  0  0  0  0  0  0
    8.6580  -14.6665   15.9561 C   0  0  2  0  0  0  0  0  0  0  0  0
    9.9168  -14.5574   15.2601 N   0  0  0  0  0  0  0  0  0  0  0  0
    8.8259  -15.3574   17.2729 C   0  0  0  0  0  0  0  0  0  0  0  0
    7.7923  -15.5547   17.9206 O   0  0  0  0  0  0  0  0  0  0  0  0
   10.0784  -15.7557   17.7417 N   0  0  0  0  0  0  0  0  0  0  0  0
   10.4136  -16.4548   18.9160 C   0  0  1  0  0  0  0  0  0  0  0  0
   11.7593  -17.1562   18.9374 C   0  0  0  0  0  0  0  0  0  0  0  0
   11.9049  -18.2434   17.9762 C   0  0  0  0  0  0  0  0  0  0  0  0
   11.1459  -19.4048   18.0426 C   0  0  0  0  0  0  0  0  0  0  0  0
   11.5206  -20.1959   17.0225 N   0  0  0  0  0  0  0  0  0  0  0  0
   12.4767  -19.5898   16.3187 C   0  0  0  0  0  0  0  0  0  0  0  0
   12.6972  -18.4071   16.9110 N   0  0  0  0  0  0  0  0  0  0  0  0
   10.2341  -15.7185   20.1632 C   0  0  0  0  0  0  0  0  0  0  0  0
   11.0007  -14.7145   20.3617 O   0  0  0  0  0  0  0  0  0  0  0  0
    7.6907  -13.4209   21.2950 C   0  0  0  0  0  0  0  0  0  0  0  0
    7.8054  -14.5062   22.3437 C   0  0  1  0  0  0  0  0  0  0  0  0
    6.7702  -15.4037   22.1911 O   0  0  0  0  0  0  0  0  0  0  0  0
    9.1696  -15.1602   22.3243 C   0  0  2  0  0  0  0  0  0  0  0  0
    9.2972  -16.0205   21.1507 N   0  0  0  0  0  0  0  0  0  0  0  0
    9.2777  -15.9729   23.5600 C   0  0  0  0  0  0  0  0  0  0  0  0
    9.2941  -17.2126   23.5360 O   0  0  0  0  0  0  0  0  0  0  0  0
    9.3625  -15.3244   24.7736 O   0  0  0  0  0  0  0  0  0  0  0  0
  2  3  2  0
  2  1  1  0
  4  2  1  0
  5  4  1  0
  5  6  1  6
  7  5  1  0
  7  9  1  0
  8  7  2  0
 10  9  1  0
 11 12  1  0
 10 11  1  6
 12 13  2  0
 13 14  1  0
 15 14  1  0
 16 12  1  0
 16 15  2  0
 17 18  2  0
 17 10  1  0
 20 19  1  6
 20 21  1  0
 22 23  1  6
 22 20  1  0
 23 17  1  0
 24 22  1  0
 25 24  2  0
 26 24  1  0
M  END
$$$$
