NHT.pdb
     RDKit          3D

 26 26  0  0  1  0  0  0  0  0999 V2000
   11.2453  -20.3240   18.4140 N   0  0  0  0  0  0  0  0  0  0  0  0
   10.4689  -19.1446   18.3552 C   0  0  0  0  0  0  0  0  0  0  0  0
    9.5802  -19.0878   17.4419 O   0  0  0  0  0  0  0  0  0  0  0  0
   10.6450  -18.0032   19.2905 C   0  0  0  0  0  0  0  0  0  0  0  0
    9.7408  -18.2345   20.4638 C   0  0  2  0  0  0  0  0  0  0  0  0
    8.4150  -18.5518   19.9921 N   0  0  0  0  0  0  0  0  0  0  0  0
    9.7190  -17.0578   21.3881 C   0  0  0  0  0  0  0  0  0  0  0  0
   10.8169  -16.6667   21.7986 O   0  0  0  0  0  0  0  0  0  0  0  0
    8.5266  -16.4384   21.7646 N   0  0  0  0  0  0  0  0  0  0  0  0
    8.3208  -15.3310   22.6080 C   0  0  1  0  0  0  0  0  0  0  0  0
    7.4015  -14.2380   22.0947 C   0  0  0  0  0  0  0  0  0  0  0  0
    7.6758  -13.7877   20.7350 C   0  0  0  0  0  0  0  0  0  0  0  0
    6.7646  -13.9452   19.6985 C   0  0  0  0  0  0  0  0  0  0  0  0
    7.3180  -13.4303   18.5870 N   0  0  0  0  0  0  0  0  0  0  0  0
    8.5309  -12.9573   18.8731 C   0  0  0  0  0  0  0  0  0  0  0  0
    8.7316  -13.1824   20.1797 N   0  0  0  0  0  0  0  0  0  0  0  0
    7.9716  -15.6450   23.9899 C   0  0  0  0  0  0  0  0  0  0  0  0
    6.7597  -15.4426   24.3439 O   0  0  0  0  0  0  0  0  0  0  0  0
    6.2478  -17.5930   25.0690 C   0  0  0  0  0  0  0  0  0  0  0  0
    7.4929  -17.9621   25.8464 C   0  0  1  0  0  0  0  0  0  0  0  0
    8.1930  -18.9308   25.1596 O   0  0  0  0  0  0  0  0  0  0  0  0
    8.3275  -16.7439   26.1763 C   0  0  2  0  0  0  0  0  0  0  0  0
    8.8496  -16.1462   24.9500 N   0  0  0  0  0  0  0  0  0  0  0  0
    9.4488  -17.2056   27.0298 C   0  0  0  0  0  0  0  0  0  0  0  0
    9.2703  -17.6376   28.1784 O   0  0  0  0  0  0  0  0  0  0  0  0
   10.7307  -17.1510   26.5255 O   0  0  0  0  0  0  0  0  0  0  0  0
  2  3  2  0
  2  1  1  0
  4  2  1  0
  5  4  1  0
  5  6  1  6
  7  5  1  0
  7  9  1  0
  8  7  2  0
 10  9  1  0
 11 12  1  0
 10 11  1  6
 12 13  2  0
 13 14  1  0
 15 14  1  0
 16 12  1  0
 16 15  2  0
 17 18  2  0
 17 10  1  0
 20 19  1  6
 20 21  1  0
 22 23  1  6
 22 20  1  0
 23 17  1  0
 24 22  1  0
 25 24  2  0
 26 24  1  0
M  END
$$$$
