NHT.pdb
     RDKit          3D

 26 26  0  0  1  0  0  0  0  0999 V2000
   11.4642  -17.6799   17.6008 N   0  0  0  0  0  0  0  0  0  0  0  0
   10.5248  -16.7217   18.0443 C   0  0  0  0  0  0  0  0  0  0  0  0
    9.5484  -16.4712   17.2626 O   0  0  0  0  0  0  0  0  0  0  0  0
   10.6304  -16.0170   19.3485 C   0  0  0  0  0  0  0  0  0  0  0  0
    9.7081  -16.7034   20.3108 C   0  0  2  0  0  0  0  0  0  0  0  0
    8.3763  -16.7370   19.7575 N   0  0  0  0  0  0  0  0  0  0  0  0
    9.7191  -16.0459   21.6550 C   0  0  0  0  0  0  0  0  0  0  0  0
   10.8320  -15.8076   22.1362 O   0  0  0  0  0  0  0  0  0  0  0  0
    8.5396  -15.7208   22.3261 N   0  0  0  0  0  0  0  0  0  0  0  0
    8.3604  -15.2134   23.6262 C   0  0  1  0  0  0  0  0  0  0  0  0
    7.0893  -14.4262   23.8872 C   0  0  0  0  0  0  0  0  0  0  0  0
    7.0367  -13.7471   25.1767 C   0  0  0  0  0  0  0  0  0  0  0  0
    8.0209  -13.9051   26.1441 C   0  0  0  0  0  0  0  0  0  0  0  0
    7.6769  -13.1517   27.2028 N   0  0  0  0  0  0  0  0  0  0  0  0
    6.5262  -12.5285   26.9492 C   0  0  0  0  0  0  0  0  0  0  0  0
    6.1523  -12.9009   25.7165 N   0  0  0  0  0  0  0  0  0  0  0  0
    8.5681  -16.1669   24.7114 C   0  0  0  0  0  0  0  0  0  0  0  0
    7.6218  -16.9936   24.9484 O   0  0  0  0  0  0  0  0  0  0  0  0
   10.7494  -18.9632   24.6992 C   0  0  0  0  0  0  0  0  0  0  0  0
   11.0489  -18.2281   25.9879 C   0  0  1  0  0  0  0  0  0  0  0  0
   12.2233  -17.5196   25.8503 O   0  0  0  0  0  0  0  0  0  0  0  0
    9.8823  -17.3701   26.4260 C   0  0  2  0  0  0  0  0  0  0  0  0
    9.7109  -16.2485   25.5060 N   0  0  0  0  0  0  0  0  0  0  0  0
   10.2020  -16.8652   27.7832 C   0  0  0  0  0  0  0  0  0  0  0  0
   10.4379  -15.6681   28.0042 O   0  0  0  0  0  0  0  0  0  0  0  0
   10.2369  -17.7602   28.8313 O   0  0  0  0  0  0  0  0  0  0  0  0
  2  3  2  0
  2  1  1  0
  4  2  1  0
  5  4  1  0
  5  6  1  6
  7  5  1  0
  7  9  1  0
  8  7  2  0
 10  9  1  0
 11 12  1  0
 10 11  1  6
 12 13  2  0
 13 14  1  0
 15 14  1  0
 16 12  1  0
 16 15  2  0
 17 18  2  0
 17 10  1  0
 20 19  1  6
 20 21  1  0
 22 23  1  6
 22 20  1  0
 23 17  1  0
 24 22  1  0
 25 24  2  0
 26 24  1  0
M  END
$$$$
