NHT.pdb
     RDKit          3D

 26 26  0  0  1  0  0  0  0  0999 V2000
    8.4548  -18.6143   16.3509 N   0  0  0  0  0  0  0  0  0  0  0  0
    9.8000  -18.1812   16.3505 C   0  0  0  0  0  0  0  0  0  0  0  0
   10.6218  -18.8628   15.6524 O   0  0  0  0  0  0  0  0  0  0  0  0
   10.2771  -16.9966   17.1107 C   0  0  0  0  0  0  0  0  0  0  0  0
   11.3259  -17.4675   18.0729 C   0  0  2  0  0  0  0  0  0  0  0  0
   11.2652  -18.9046   18.1828 N   0  0  0  0  0  0  0  0  0  0  0  0
   11.1829  -16.8159   19.4124 C   0  0  0  0  0  0  0  0  0  0  0  0
   12.1813  -16.2280   19.8420 O   0  0  0  0  0  0  0  0  0  0  0  0
    9.9900  -16.8695   20.1344 N   0  0  0  0  0  0  0  0  0  0  0  0
    9.6558  -16.2587   21.3572 C   0  0  1  0  0  0  0  0  0  0  0  0
    8.2684  -15.6533   21.4661 C   0  0  0  0  0  0  0  0  0  0  0  0
    7.9002  -14.7525   20.3799 C   0  0  0  0  0  0  0  0  0  0  0  0
    8.3191  -13.4290   20.3335 C   0  0  0  0  0  0  0  0  0  0  0  0
    7.8124  -12.8796   19.2162 N   0  0  0  0  0  0  0  0  0  0  0  0
    7.0964  -13.7914   18.5584 C   0  0  0  0  0  0  0  0  0  0  0  0
    7.1604  -14.9211   19.2782 N   0  0  0  0  0  0  0  0  0  0  0  0
    9.9331  -17.0465   22.5541 C   0  0  0  0  0  0  0  0  0  0  0  0
    9.3478  -18.1790   22.6537 O   0  0  0  0  0  0  0  0  0  0  0  0
   12.9696  -18.3331   26.1952 C   0  0  0  0  0  0  0  0  0  0  0  0
   12.5631  -17.3724   25.0986 C   0  0  1  0  0  0  0  0  0  0  0  0
   13.4911  -17.4182   24.0803 O   0  0  0  0  0  0  0  0  0  0  0  0
   11.1480  -17.6279   24.6280 C   0  0  2  0  0  0  0  0  0  0  0  0
   10.7820  -16.6650   23.5924 N   0  0  0  0  0  0  0  0  0  0  0  0
   10.2633  -17.4623   25.8065 C   0  0  0  0  0  0  0  0  0  0  0  0
    9.5263  -16.4749   25.9458 O   0  0  0  0  0  0  0  0  0  0  0  0
   10.2635  -18.4413   26.7772 O   0  0  0  0  0  0  0  0  0  0  0  0
  2  3  2  0
  2  1  1  0
  4  2  1  0
  5  4  1  0
  5  6  1  1
  7  5  1  0
  7  9  1  0
  8  7  2  0
 10  9  1  0
 11 12  1  0
 10 11  1  6
 12 13  2  0
 13 14  1  0
 15 14  1  0
 16 12  1  0
 16 15  2  0
 17 18  2  0
 17 10  1  0
 20 19  1  1
 20 21  1  0
 22 23  1  6
 22 20  1  0
 23 17  1  0
 24 22  1  0
 25 24  2  0
 26 24  1  0
M  END
$$$$
