NHT.pdb
     RDKit          3D

 26 26  0  0  1  0  0  0  0  0999 V2000
   15.4579  -16.1107   15.4477 N   0  0  0  0  0  0  0  0  0  0  0  0
   15.2802  -14.7547   15.8036 C   0  0  0  0  0  0  0  0  0  0  0  0
   16.0349  -13.9057   15.2233 O   0  0  0  0  0  0  0  0  0  0  0  0
   14.2765  -14.2962   16.7992 C   0  0  0  0  0  0  0  0  0  0  0  0
   13.6141  -15.5142   17.3694 C   0  0  2  0  0  0  0  0  0  0  0  0
   12.5632  -15.9485   16.4818 N   0  0  0  0  0  0  0  0  0  0  0  0
   13.0892  -15.2662   18.7487 C   0  0  0  0  0  0  0  0  0  0  0  0
   13.8739  -14.7377   19.5436 O   0  0  0  0  0  0  0  0  0  0  0  0
   11.7881  -15.6121   19.1153 N   0  0  0  0  0  0  0  0  0  0  0  0
   11.1485  -15.4941   20.3632 C   0  0  1  0  0  0  0  0  0  0  0  0
    9.6318  -15.4419   20.3555 C   0  0  0  0  0  0  0  0  0  0  0  0
    9.0560  -14.3105   19.6377 C   0  0  0  0  0  0  0  0  0  0  0  0
    9.8327  -13.2824   19.1188 C   0  0  0  0  0  0  0  0  0  0  0  0
    9.0049  -12.4061   18.5241 N   0  0  0  0  0  0  0  0  0  0  0  0
    7.7474  -12.8319   18.6432 C   0  0  0  0  0  0  0  0  0  0  0  0
    7.7970  -13.9879   19.3211 N   0  0  0  0  0  0  0  0  0  0  0  0
   11.5934  -16.4282   21.3925 C   0  0  0  0  0  0  0  0  0  0  0  0
   11.2390  -17.6498   21.2619 O   0  0  0  0  0  0  0  0  0  0  0  0
   15.2088  -17.0323   22.6315 C   0  0  0  0  0  0  0  0  0  0  0  0
   14.2685  -16.8904   23.8091 C   0  0  1  0  0  0  0  0  0  0  0  0
   14.4594  -15.6616   24.4039 O   0  0  0  0  0  0  0  0  0  0  0  0
   12.8312  -17.1433   23.4103 C   0  0  2  0  0  0  0  0  0  0  0  0
   12.3709  -16.0965   22.5014 N   0  0  0  0  0  0  0  0  0  0  0  0
   12.0260  -17.1204   24.6554 C   0  0  0  0  0  0  0  0  0  0  0  0
   11.1868  -16.2365   24.8833 O   0  0  0  0  0  0  0  0  0  0  0  0
   12.2203  -18.1171   25.5878 O   0  0  0  0  0  0  0  0  0  0  0  0
  2  3  2  0
  2  1  1  0
  4  2  1  0
  5  4  1  0
  5  6  1  6
  7  5  1  0
  7  9  1  0
  8  7  2  0
 10  9  1  0
 11 12  1  0
 10 11  1  6
 12 13  2  0
 13 14  1  0
 15 14  1  0
 16 12  1  0
 16 15  2  0
 17 18  2  0
 17 10  1  0
 20 19  1  6
 20 21  1  0
 22 23  1  6
 22 20  1  0
 23 17  1  0
 24 22  1  0
 25 24  2  0
 26 24  1  0
M  END
$$$$
