NHT.pdb
     RDKit          3D

 26 26  0  0  1  0  0  0  0  0999 V2000
    9.5056  -16.9545   13.9962 N   0  0  0  0  0  0  0  0  0  0  0  0
   10.4539  -17.4143   14.9377 C   0  0  0  0  0  0  0  0  0  0  0  0
   10.9609  -18.5655   14.7257 O   0  0  0  0  0  0  0  0  0  0  0  0
   10.8690  -16.6291   16.1292 C   0  0  0  0  0  0  0  0  0  0  0  0
   10.9159  -17.5678   17.2972 C   0  0  2  0  0  0  0  0  0  0  0  0
    9.7981  -18.4770   17.2268 N   0  0  0  0  0  0  0  0  0  0  0  0
   10.9337  -16.8321   18.6002 C   0  0  0  0  0  0  0  0  0  0  0  0
   11.9324  -16.1389   18.8211 O   0  0  0  0  0  0  0  0  0  0  0  0
    9.8823  -16.9243   19.5130 N   0  0  0  0  0  0  0  0  0  0  0  0
    9.7086  -16.2708   20.7470 C   0  0  1  0  0  0  0  0  0  0  0  0
    8.3813  -15.5703   20.9725 C   0  0  0  0  0  0  0  0  0  0  0  0
    7.9781  -14.6539   19.9121 C   0  0  0  0  0  0  0  0  0  0  0  0
    8.4537  -13.3513   19.8306 C   0  0  0  0  0  0  0  0  0  0  0  0
    7.8940  -12.7796   18.7505 N   0  0  0  0  0  0  0  0  0  0  0  0
    7.0908  -13.6573   18.1494 C   0  0  0  0  0  0  0  0  0  0  0  0
    7.1539  -14.7883   18.8671 N   0  0  0  0  0  0  0  0  0  0  0  0
   10.0470  -17.0547   21.9307 C   0  0  0  0  0  0  0  0  0  0  0  0
    9.5631  -18.2359   22.0041 O   0  0  0  0  0  0  0  0  0  0  0  0
   13.1243  -18.3041   25.5025 C   0  0  0  0  0  0  0  0  0  0  0  0
   12.6870  -17.3482   24.4135 C   0  0  1  0  0  0  0  0  0  0  0  0
   13.5426  -17.4547   23.3379 O   0  0  0  0  0  0  0  0  0  0  0  0
   11.2343  -17.5504   24.0425 C   0  0  2  0  0  0  0  0  0  0  0  0
   10.8528  -16.6205   22.9826 N   0  0  0  0  0  0  0  0  0  0  0  0
   10.4345  -17.2813   25.2619 C   0  0  0  0  0  0  0  0  0  0  0  0
    9.7943  -16.2303   25.4135 O   0  0  0  0  0  0  0  0  0  0  0  0
   10.4048  -18.2343   26.2578 O   0  0  0  0  0  0  0  0  0  0  0  0
  2  3  2  0
  2  1  1  0
  4  2  1  0
  5  4  1  0
  5  6  1  1
  7  5  1  0
  7  9  1  0
  8  7  2  0
 10  9  1  0
 11 12  1  0
 10 11  1  1
 12 13  2  0
 13 14  1  0
 15 14  1  0
 16 12  1  0
 16 15  2  0
 17 18  2  0
 17 10  1  0
 20 19  1  1
 20 21  1  0
 22 23  1  6
 22 20  1  0
 23 17  1  0
 24 22  1  0
 25 24  2  0
 26 24  1  0
M  END
$$$$
