NHT.pdb
     RDKit          3D

 26 26  0  0  1  0  0  0  0  0999 V2000
   16.0315  -17.5047   15.6893 N   0  0  0  0  0  0  0  0  0  0  0  0
   16.5731  -16.8636   16.8263 C   0  0  0  0  0  0  0  0  0  0  0  0
   17.8435  -16.8744   16.9402 O   0  0  0  0  0  0  0  0  0  0  0  0
   15.7413  -16.1977   17.8624 C   0  0  0  0  0  0  0  0  0  0  0  0
   14.9262  -15.1409   17.1794 C   0  0  2  0  0  0  0  0  0  0  0  0
   15.7872  -14.0543   16.7808 N   0  0  0  0  0  0  0  0  0  0  0  0
   13.8082  -14.6549   18.0473 C   0  0  0  0  0  0  0  0  0  0  0  0
   14.1081  -13.8163   18.9038 O   0  0  0  0  0  0  0  0  0  0  0  0
   12.5021  -15.1225   17.8973 N   0  0  0  0  0  0  0  0  0  0  0  0
   11.3481  -14.8078   18.6385 C   0  0  1  0  0  0  0  0  0  0  0  0
   10.0557  -14.6425   17.8603 C   0  0  0  0  0  0  0  0  0  0  0  0
    8.8893  -14.2983   18.6652 C   0  0  0  0  0  0  0  0  0  0  0  0
    8.5383  -12.9841   18.9467 C   0  0  0  0  0  0  0  0  0  0  0  0
    7.4270  -13.0116   19.7024 N   0  0  0  0  0  0  0  0  0  0  0  0
    7.0623  -14.2769   19.9097 C   0  0  0  0  0  0  0  0  0  0  0  0
    7.9600  -15.0436   19.2737 N   0  0  0  0  0  0  0  0  0  0  0  0
   11.1019  -15.6426   19.8100 C   0  0  0  0  0  0  0  0  0  0  0  0
   11.3858  -16.8853   19.7089 O   0  0  0  0  0  0  0  0  0  0  0  0
    9.5558  -16.3647   24.4747 C   0  0  0  0  0  0  0  0  0  0  0  0
    9.8575  -15.4072   23.3420 C   0  0  1  0  0  0  0  0  0  0  0  0
   10.6639  -14.3889   23.8037 O   0  0  0  0  0  0  0  0  0  0  0  0
   10.4325  -16.1256   22.1410 C   0  0  2  0  0  0  0  0  0  0  0  0
   10.5849  -15.1953   21.0252 N   0  0  0  0  0  0  0  0  0  0  0  0
    9.4737  -17.1969   21.7775 C   0  0  0  0  0  0  0  0  0  0  0  0
    9.4949  -18.3132   22.3169 O   0  0  0  0  0  0  0  0  0  0  0  0
    8.5292  -16.9387   20.8070 O   0  0  0  0  0  0  0  0  0  0  0  0
  2  3  2  0
  2  1  1  0
  4  2  1  0
  5  4  1  0
  5  6  1  1
  7  5  1  0
  7  9  1  0
  8  7  2  0
 10  9  1  0
 11 12  1  0
 10 11  1  6
 12 13  2  0
 13 14  1  0
 15 14  1  0
 16 12  1  0
 16 15  2  0
 17 18  2  0
 17 10  1  0
 20 19  1  1
 20 21  1  0
 22 23  1  6
 22 20  1  0
 23 17  1  0
 24 22  1  0
 25 24  2  0
 26 24  1  0
M  END
$$$$
