NHT.pdb
     RDKit          3D

 26 26  0  0  1  0  0  0  0  0999 V2000
   10.0422  -19.1265   14.9821 N   0  0  0  0  0  0  0  0  0  0  0  0
   10.4175  -17.7645   14.9504 C   0  0  0  0  0  0  0  0  0  0  0  0
   10.6834  -17.2693   13.8053 O   0  0  0  0  0  0  0  0  0  0  0  0
   10.5106  -16.9143   16.1658 C   0  0  0  0  0  0  0  0  0  0  0  0
   10.3483  -17.8083   17.3582 C   0  0  2  0  0  0  0  0  0  0  0  0
    9.0270  -18.3870   17.3473 N   0  0  0  0  0  0  0  0  0  0  0  0
   10.6088  -17.0786   18.6386 C   0  0  0  0  0  0  0  0  0  0  0  0
   11.7731  -16.7115   18.8295 O   0  0  0  0  0  0  0  0  0  0  0  0
    9.5944  -16.8276   19.5633 N   0  0  0  0  0  0  0  0  0  0  0  0
    9.6471  -16.1240   20.7807 C   0  0  1  0  0  0  0  0  0  0  0  0
    8.4318  -15.2916   21.1462 C   0  0  0  0  0  0  0  0  0  0  0  0
    7.9698  -14.3818   20.1043 C   0  0  0  0  0  0  0  0  0  0  0  0
    8.4836  -13.1004   19.9507 C   0  0  0  0  0  0  0  0  0  0  0  0
    7.8513  -12.5293   18.9111 N   0  0  0  0  0  0  0  0  0  0  0  0
    6.9663  -13.3873   18.4038 C   0  0  0  0  0  0  0  0  0  0  0  0
    7.0515  -14.5053   19.1394 N   0  0  0  0  0  0  0  0  0  0  0  0
   10.0661  -16.9012   21.9427 C   0  0  0  0  0  0  0  0  0  0  0  0
    9.3442  -17.9077   22.2604 O   0  0  0  0  0  0  0  0  0  0  0  0
   13.4636  -18.2788   25.2708 C   0  0  0  0  0  0  0  0  0  0  0  0
   13.0132  -17.3178   24.1917 C   0  0  1  0  0  0  0  0  0  0  0  0
   13.8991  -17.3641   23.1365 O   0  0  0  0  0  0  0  0  0  0  0  0
   11.5801  -17.5724   23.7790 C   0  0  2  0  0  0  0  0  0  0  0  0
   11.1859  -16.6357   22.7299 N   0  0  0  0  0  0  0  0  0  0  0  0
   10.7395  -17.3647   24.9829 C   0  0  0  0  0  0  0  0  0  0  0  0
   10.1235  -16.3075   25.1841 O   0  0  0  0  0  0  0  0  0  0  0  0
   10.6427  -18.3835   25.9066 O   0  0  0  0  0  0  0  0  0  0  0  0
  2  3  2  0
  2  1  1  0
  4  2  1  0
  5  4  1  0
  5  6  1  1
  7  5  1  0
  7  9  1  0
  8  7  2  0
 10  9  1  0
 11 12  1  0
 10 11  1  1
 12 13  2  0
 13 14  1  0
 15 14  1  0
 16 12  1  0
 16 15  2  0
 17 18  2  0
 17 10  1  0
 20 19  1  1
 20 21  1  0
 22 23  1  6
 22 20  1  0
 23 17  1  0
 24 22  1  0
 25 24  2  0
 26 24  1  0
M  END
$$$$
