NHT.pdb
     RDKit          3D

 26 26  0  0  1  0  0  0  0  0999 V2000
   12.3518  -17.8462   14.1147 N   0  0  0  0  0  0  0  0  0  0  0  0
   11.9153  -16.5064   14.2215 C   0  0  0  0  0  0  0  0  0  0  0  0
   11.9520  -15.8046   13.1569 O   0  0  0  0  0  0  0  0  0  0  0  0
   11.4300  -15.9040   15.4905 C   0  0  0  0  0  0  0  0  0  0  0  0
   11.5852  -16.9331   16.5695 C   0  0  2  0  0  0  0  0  0  0  0  0
   10.5388  -17.9184   16.4465 N   0  0  0  0  0  0  0  0  0  0  0  0
   11.5873  -16.3132   17.9316 C   0  0  0  0  0  0  0  0  0  0  0  0
   12.5514  -15.5881   18.1989 O   0  0  0  0  0  0  0  0  0  0  0  0
   10.5589  -16.5415   18.8467 N   0  0  0  0  0  0  0  0  0  0  0  0
   10.4024  -16.0536   20.1572 C   0  0  1  0  0  0  0  0  0  0  0  0
    8.9984  -15.6644   20.5822 C   0  0  0  0  0  0  0  0  0  0  0  0
    8.4502  -14.4941   19.9065 C   0  0  0  0  0  0  0  0  0  0  0  0
    9.2113  -13.6943   19.0636 C   0  0  0  0  0  0  0  0  0  0  0  0
    8.4170  -12.7103   18.6077 N   0  0  0  0  0  0  0  0  0  0  0  0
    7.1953  -12.8518   19.1218 C   0  0  0  0  0  0  0  0  0  0  0  0
    7.2334  -13.9383   19.9068 N   0  0  0  0  0  0  0  0  0  0  0  0
   11.0192  -16.8562   21.2087 C   0  0  0  0  0  0  0  0  0  0  0  0
   10.6759  -18.0859   21.2788 O   0  0  0  0  0  0  0  0  0  0  0  0
   14.7593  -17.3901   21.9417 C   0  0  0  0  0  0  0  0  0  0  0  0
   14.0275  -17.0563   23.2239 C   0  0  1  0  0  0  0  0  0  0  0  0
   14.3259  -15.7642   23.6002 O   0  0  0  0  0  0  0  0  0  0  0  0
   12.5416  -17.3143   23.1027 C   0  0  2  0  0  0  0  0  0  0  0  0
   11.9490  -16.3914   22.1379 N   0  0  0  0  0  0  0  0  0  0  0  0
   11.9522  -17.0886   24.4446 C   0  0  0  0  0  0  0  0  0  0  0  0
   11.1491  -16.1705   24.6675 O   0  0  0  0  0  0  0  0  0  0  0  0
   12.3120  -17.9301   25.4757 O   0  0  0  0  0  0  0  0  0  0  0  0
  2  3  2  0
  2  1  1  0
  4  2  1  0
  5  4  1  0
  5  6  1  1
  7  5  1  0
  7  9  1  0
  8  7  2  0
 10  9  1  0
 11 12  1  0
 10 11  1  1
 12 13  2  0
 13 14  1  0
 15 14  1  0
 16 12  1  0
 16 15  2  0
 17 18  2  0
 17 10  1  0
 20 19  1  6
 20 21  1  0
 22 23  1  6
 22 20  1  0
 23 17  1  0
 24 22  1  0
 25 24  2  0
 26 24  1  0
M  END
$$$$
