KGR.pdb
     RDKit          3D

 25 24  0  0  1  0  0  0  0  0999 V2000
   27.4536  -22.3309  -16.0177 N   0  0  0  0  0  0  0  0  0  0  0  0
   27.1223  -20.9437  -16.0611 C   0  0  1  0  0  0  0  0  0  0  0  0
   26.4819  -20.5287  -17.3343 C   0  0  0  0  0  0  0  0  0  0  0  0
   26.1965  -21.5972  -18.3271 C   0  0  0  0  0  0  0  0  0  0  0  0
   25.6130  -21.1352  -19.6327 C   0  0  0  0  0  0  0  0  0  0  0  0
   25.2276  -22.4179  -20.3881 C   0  0  0  0  0  0  0  0  0  0  0  0
   24.7056  -22.0970  -21.6955 N   0  0  0  0  0  0  0  0  0  0  0  0
   26.2596  -20.6575  -14.8750 C   0  0  0  0  0  0  0  0  0  0  0  0
   25.6951  -19.5409  -14.7041 O   0  0  0  0  0  0  0  0  0  0  0  0
   26.0403  -21.6433  -13.8845 N   0  0  0  0  0  0  0  0  0  0  0  0
   25.2002  -21.3921  -12.7539 C   0  0  0  0  0  0  0  0  0  0  0  0
   23.7656  -21.6548  -13.0879 C   0  0  0  0  0  0  0  0  0  0  0  0
   23.4253  -22.6497  -13.7960 O   0  0  0  0  0  0  0  0  0  0  0  0
   18.9150  -24.4243   -8.5732 N   0  0  0  0  0  0  0  0  0  0  0  0
   17.9147  -24.5969   -9.6077 C   0  0  0  0  0  0  0  0  0  0  0  0
   17.1762  -25.6507   -9.5549 N   0  0  0  0  0  0  0  0  0  0  0  0
   17.7864  -23.6293  -10.6149 N   0  0  0  0  0  0  0  0  0  0  0  0
   18.5890  -22.3825  -10.5469 C   0  0  0  0  0  0  0  0  0  0  0  0
   19.8678  -22.6420  -11.2364 C   0  0  0  0  0  0  0  0  0  0  0  0
   20.8661  -21.6270  -11.4901 C   0  0  0  0  0  0  0  0  0  0  0  0
   21.2809  -21.2527  -12.8745 C   0  0  2  0  0  0  0  0  0  0  0  0
   22.7243  -20.8184  -12.6377 N   0  0  0  0  0  0  0  0  0  0  0  0
   20.5839  -20.0383  -13.3326 C   0  0  0  0  0  0  0  0  0  0  0  0
   20.9765  -18.7557  -13.1636 O   0  0  0  0  0  0  0  0  0  0  0  0
   19.4761  -20.2014  -13.9579 O   0  0  0  0  0  0  0  0  0  0  0  0
  2  1  1  6
  3  2  1  0
  4  3  1  0
  5  4  1  0
  5  6  1  0
  6  7  1  0
  8  9  2  0
  8  2  1  0
 10  8  1  0
 11 10  1  0
 12 11  1  0
 12 22  1  0
 13 12  2  0
 15 14  1  0
 16 15  2  0
 17 15  1  0
 18 17  1  0
 19 18  1  0
 21 20  1  1
 20 19  1  0
 21 22  1  0
 23 21  1  0
 24 23  1  0
 25 23  2  0
M  END
$$$$
