KGR.pdb
     RDKit          3D

 25 24  0  0  1  0  0  0  0  0999 V2000
   28.1768  -18.2970  -18.3448 N   0  0  0  0  0  0  0  0  0  0  0  0
   28.1765  -16.9124  -17.9996 C   0  0  1  0  0  0  0  0  0  0  0  0
   28.3727  -16.0131  -19.1642 C   0  0  0  0  0  0  0  0  0  0  0  0
   29.6763  -16.0995  -19.8729 C   0  0  0  0  0  0  0  0  0  0  0  0
   29.8440  -15.1732  -21.0443 C   0  0  0  0  0  0  0  0  0  0  0  0
   31.2747  -15.4111  -21.5553 C   0  0  0  0  0  0  0  0  0  0  0  0
   31.5777  -14.5142  -22.6456 N   0  0  0  0  0  0  0  0  0  0  0  0
   26.8957  -16.6358  -17.2813 C   0  0  0  0  0  0  0  0  0  0  0  0
   26.6047  -15.4903  -16.8365 O   0  0  0  0  0  0  0  0  0  0  0  0
   25.9472  -17.6638  -17.0705 N   0  0  0  0  0  0  0  0  0  0  0  0
   24.6802  -17.3974  -16.4614 C   0  0  0  0  0  0  0  0  0  0  0  0
   23.8605  -18.6457  -16.3701 C   0  0  0  0  0  0  0  0  0  0  0  0
   24.0253  -19.6035  -17.1842 O   0  0  0  0  0  0  0  0  0  0  0  0
   25.9335  -22.7517  -11.7191 N   0  0  0  0  0  0  0  0  0  0  0  0
   26.1878  -21.7646  -12.7494 C   0  0  0  0  0  0  0  0  0  0  0  0
   27.2298  -21.9273  -13.4885 N   0  0  0  0  0  0  0  0  0  0  0  0
   25.3079  -20.6835  -12.9045 N   0  0  0  0  0  0  0  0  0  0  0  0
   24.0887  -20.5977  -12.0623 C   0  0  0  0  0  0  0  0  0  0  0  0
   22.9580  -21.0958  -12.8695 C   0  0  0  0  0  0  0  0  0  0  0  0
   22.1282  -20.2516  -13.7000 C   0  0  0  0  0  0  0  0  0  0  0  0
   22.2733  -20.2136  -15.1854 C   0  0  2  0  0  0  0  0  0  0  0  0
   22.8699  -18.8233  -15.3834 N   0  0  0  0  0  0  0  0  0  0  0  0
   20.9597  -20.1671  -15.8509 C   0  0  0  0  0  0  0  0  0  0  0  0
   20.2802  -21.2016  -16.3947 O   0  0  0  0  0  0  0  0  0  0  0  0
   20.3885  -19.0220  -15.9364 O   0  0  0  0  0  0  0  0  0  0  0  0
  2  1  1  6
  3  2  1  0
  4  3  1  0
  5  4  1  0
  5  6  1  0
  6  7  1  0
  8  9  2  0
  8  2  1  0
 10  8  1  0
 11 10  1  0
 12 11  1  0
 12 22  1  0
 13 12  2  0
 15 14  1  0
 16 15  2  0
 17 15  1  0
 18 17  1  0
 19 18  1  0
 21 20  1  1
 20 19  1  0
 21 22  1  0
 23 21  1  0
 24 23  1  0
 25 23  2  0
M  END
$$$$
