KGR.pdb
     RDKit          3D

 25 24  0  0  1  0  0  0  0  0999 V2000
   24.6478  -22.4828  -13.8771 N   0  0  0  0  0  0  0  0  0  0  0  0
   25.1044  -21.2064  -13.4317 C   0  0  1  0  0  0  0  0  0  0  0  0
   25.9556  -20.5039  -14.4243 C   0  0  0  0  0  0  0  0  0  0  0  0
   26.1094  -21.1445  -15.7566 C   0  0  0  0  0  0  0  0  0  0  0  0
   26.8424  -22.4563  -15.7686 C   0  0  0  0  0  0  0  0  0  0  0  0
   26.8968  -22.8838  -17.2447 C   0  0  0  0  0  0  0  0  0  0  0  0
   27.3551  -24.2482  -17.3592 N   0  0  0  0  0  0  0  0  0  0  0  0
   23.8964  -20.4098  -13.0587 C   0  0  0  0  0  0  0  0  0  0  0  0
   23.9621  -19.1863  -12.7531 O   0  0  0  0  0  0  0  0  0  0  0  0
   22.6144  -21.0072  -13.0344 N   0  0  0  0  0  0  0  0  0  0  0  0
   21.6115  -20.6625  -13.9950 C   0  0  0  0  0  0  0  0  0  0  0  0
   20.4133  -21.5473  -13.8544 C   0  0  0  0  0  0  0  0  0  0  0  0
   19.4061  -21.4183  -14.6134 O   0  0  0  0  0  0  0  0  0  0  0  0
   18.3543  -25.3337   -6.0580 N   0  0  0  0  0  0  0  0  0  0  0  0
   17.1252  -25.1543   -6.8048 C   0  0  0  0  0  0  0  0  0  0  0  0
   16.0175  -25.4252   -6.2063 N   0  0  0  0  0  0  0  0  0  0  0  0
   17.1808  -24.7011   -8.1309 N   0  0  0  0  0  0  0  0  0  0  0  0
   18.4953  -24.4165   -8.7589 C   0  0  0  0  0  0  0  0  0  0  0  0
   18.2350  -23.9290  -10.1273 C   0  0  0  0  0  0  0  0  0  0  0  0
   19.2744  -23.5451  -11.0565 C   0  0  0  0  0  0  0  0  0  0  0  0
   18.9650  -23.0491  -12.4302 C   0  0  2  0  0  0  0  0  0  0  0  0
   20.3396  -22.5628  -12.8798 N   0  0  0  0  0  0  0  0  0  0  0  0
   18.1243  -21.8400  -12.3865 C   0  0  0  0  0  0  0  0  0  0  0  0
   18.4981  -20.5958  -12.0123 O   0  0  0  0  0  0  0  0  0  0  0  0
   16.8966  -21.9693  -12.7340 O   0  0  0  0  0  0  0  0  0  0  0  0
  2  1  1  6
  3  2  1  0
  4  3  1  0
  5  4  1  0
  5  6  1  0
  6  7  1  0
  8  9  2  0
  8  2  1  0
 10  8  1  0
 11 10  1  0
 12 11  1  0
 12 22  1  0
 13 12  2  0
 15 14  1  0
 16 15  2  0
 17 15  1  0
 18 17  1  0
 19 18  1  0
 21 20  1  1
 20 19  1  0
 21 22  1  0
 23 21  1  0
 24 23  1  0
 25 23  2  0
M  END
$$$$
