KGR.pdb
     RDKit          3D

 25 24  0  0  1  0  0  0  0  0999 V2000
   26.1359  -22.5843  -13.3349 N   0  0  0  0  0  0  0  0  0  0  0  0
   26.9170  -21.6756  -12.5600 C   0  0  1  0  0  0  0  0  0  0  0  0
   27.5909  -20.6331  -13.3739 C   0  0  0  0  0  0  0  0  0  0  0  0
   26.7878  -19.9875  -14.4449 C   0  0  0  0  0  0  0  0  0  0  0  0
   27.5188  -18.9861  -15.2941 C   0  0  0  0  0  0  0  0  0  0  0  0
   26.5014  -18.5203  -16.3488 C   0  0  0  0  0  0  0  0  0  0  0  0
   27.0570  -17.4567  -17.1519 N   0  0  0  0  0  0  0  0  0  0  0  0
   26.0143  -21.0882  -11.5242 C   0  0  0  0  0  0  0  0  0  0  0  0
   26.4035  -20.2016  -10.7136 O   0  0  0  0  0  0  0  0  0  0  0  0
   24.6689  -21.5107  -11.4126 N   0  0  0  0  0  0  0  0  0  0  0  0
   23.7501  -20.8535  -10.5344 C   0  0  0  0  0  0  0  0  0  0  0  0
   22.5703  -20.3317  -11.2922 C   0  0  0  0  0  0  0  0  0  0  0  0
   21.5896  -19.7933  -10.6958 O   0  0  0  0  0  0  0  0  0  0  0  0
   23.5628  -21.4444  -19.2775 N   0  0  0  0  0  0  0  0  0  0  0  0
   24.0414  -21.8381  -17.9673 C   0  0  0  0  0  0  0  0  0  0  0  0
   25.2199  -22.3517  -17.8912 N   0  0  0  0  0  0  0  0  0  0  0  0
   23.2203  -21.6516  -16.8457 N   0  0  0  0  0  0  0  0  0  0  0  0
   21.8066  -21.2369  -17.0268 C   0  0  0  0  0  0  0  0  0  0  0  0
   21.2449  -20.9846  -15.6856 C   0  0  0  0  0  0  0  0  0  0  0  0
   21.6756  -19.9076  -14.8220 C   0  0  0  0  0  0  0  0  0  0  0  0
   21.2587  -19.8252  -13.3908 C   0  0  2  0  0  0  0  0  0  0  0  0
   22.4855  -20.4095  -12.6969 N   0  0  0  0  0  0  0  0  0  0  0  0
   20.1648  -20.7671  -13.0963 C   0  0  0  0  0  0  0  0  0  0  0  0
   18.8380  -20.5077  -13.0981 O   0  0  0  0  0  0  0  0  0  0  0  0
   20.4944  -21.9699  -12.7973 O   0  0  0  0  0  0  0  0  0  0  0  0
  2  1  1  6
  3  2  1  0
  4  3  1  0
  5  4  1  0
  5  6  1  0
  6  7  1  0
  8  9  2  0
  8  2  1  0
 10  8  1  0
 11 10  1  0
 12 11  1  0
 12 22  1  0
 13 12  2  0
 15 14  1  0
 16 15  2  0
 17 15  1  0
 18 17  1  0
 19 18  1  0
 21 20  1  6
 20 19  1  0
 21 22  1  0
 23 21  1  0
 24 23  1  0
 25 23  2  0
M  END
$$$$
