KGR.pdb
     RDKit          3D

 25 24  0  0  1  0  0  0  0  0999 V2000
   26.6888  -16.6332  -14.6622 N   0  0  0  0  0  0  0  0  0  0  0  0
   25.9849  -16.8797  -15.8786 C   0  0  1  0  0  0  0  0  0  0  0  0
   26.6966  -17.8043  -16.7962 C   0  0  0  0  0  0  0  0  0  0  0  0
   27.7860  -18.6300  -16.2128 C   0  0  0  0  0  0  0  0  0  0  0  0
   27.4277  -20.0557  -15.9007 C   0  0  0  0  0  0  0  0  0  0  0  0
   28.3011  -20.9127  -16.8319 C   0  0  0  0  0  0  0  0  0  0  0  0
   28.0897  -22.3173  -16.5722 N   0  0  0  0  0  0  0  0  0  0  0  0
   24.6272  -17.3833  -15.5099 C   0  0  0  0  0  0  0  0  0  0  0  0
   24.2394  -17.4638  -14.3109 O   0  0  0  0  0  0  0  0  0  0  0  0
   23.7120  -17.7944  -16.5071 N   0  0  0  0  0  0  0  0  0  0  0  0
   22.3310  -18.0179  -16.2069 C   0  0  0  0  0  0  0  0  0  0  0  0
   22.1066  -19.4247  -15.7497 C   0  0  0  0  0  0  0  0  0  0  0  0
   22.8310  -20.3772  -16.1682 O   0  0  0  0  0  0  0  0  0  0  0  0
   15.3156  -22.7650  -11.8350 N   0  0  0  0  0  0  0  0  0  0  0  0
   16.2620  -23.8156  -11.5166 C   0  0  0  0  0  0  0  0  0  0  0  0
   15.7884  -24.9708  -11.2007 N   0  0  0  0  0  0  0  0  0  0  0  0
   17.6374  -23.5448  -11.5608 N   0  0  0  0  0  0  0  0  0  0  0  0
   18.1095  -22.1659  -11.8420 C   0  0  0  0  0  0  0  0  0  0  0  0
   19.1782  -22.2627  -12.8551 C   0  0  0  0  0  0  0  0  0  0  0  0
   19.9248  -21.1269  -13.3488 C   0  0  0  0  0  0  0  0  0  0  0  0
   20.8598  -21.2368  -14.5075 C   0  0  2  0  0  0  0  0  0  0  0  0
   21.0873  -19.7646  -14.8375 N   0  0  0  0  0  0  0  0  0  0  0  0
   20.1832  -21.7962  -15.6906 C   0  0  0  0  0  0  0  0  0  0  0  0
   20.2655  -23.0617  -16.1590 O   0  0  0  0  0  0  0  0  0  0  0  0
   19.4337  -21.0031  -16.3644 O   0  0  0  0  0  0  0  0  0  0  0  0
  2  1  1  1
  3  2  1  0
  4  3  1  0
  5  4  1  0
  5  6  1  0
  6  7  1  0
  8  9  2  0
  8  2  1  0
 10  8  1  0
 11 10  1  0
 12 11  1  0
 12 22  1  0
 13 12  2  0
 15 14  1  0
 16 15  2  0
 17 15  1  0
 18 17  1  0
 19 18  1  0
 21 20  1  1
 20 19  1  0
 21 22  1  0
 23 21  1  0
 24 23  1  0
 25 23  2  0
M  END
$$$$
