KGR.pdb
     RDKit          3D

 25 24  0  0  1  0  0  0  0  0999 V2000
   28.2438  -19.1240  -19.8470 N   0  0  0  0  0  0  0  0  0  0  0  0
   28.0827  -17.7063  -19.8628 C   0  0  1  0  0  0  0  0  0  0  0  0
   26.9407  -17.2506  -20.6943 C   0  0  0  0  0  0  0  0  0  0  0  0
   25.7202  -18.0988  -20.6896 C   0  0  0  0  0  0  0  0  0  0  0  0
   24.4543  -17.4172  -20.2521 C   0  0  0  0  0  0  0  0  0  0  0  0
   23.3535  -18.4855  -20.3597 C   0  0  0  0  0  0  0  0  0  0  0  0
   22.0865  -17.9518  -19.9185 N   0  0  0  0  0  0  0  0  0  0  0  0
   27.9615  -17.2589  -18.4422 C   0  0  0  0  0  0  0  0  0  0  0  0
   28.1263  -16.0555  -18.0967 O   0  0  0  0  0  0  0  0  0  0  0  0
   27.6523  -18.1823  -17.4162 N   0  0  0  0  0  0  0  0  0  0  0  0
   27.2451  -17.7453  -16.1160 C   0  0  0  0  0  0  0  0  0  0  0  0
   26.8945  -18.9123  -15.2478 C   0  0  0  0  0  0  0  0  0  0  0  0
   26.8487  -20.0903  -15.7140 O   0  0  0  0  0  0  0  0  0  0  0  0
   26.4275  -19.8076   -6.8873 N   0  0  0  0  0  0  0  0  0  0  0  0
   25.6892  -20.9649   -7.3522 C   0  0  0  0  0  0  0  0  0  0  0  0
   24.7031  -21.3736   -6.6316 N   0  0  0  0  0  0  0  0  0  0  0  0
   26.0662  -21.5916   -8.5489 N   0  0  0  0  0  0  0  0  0  0  0  0
   26.8738  -20.8485   -9.5484 C   0  0  0  0  0  0  0  0  0  0  0  0
   25.9374  -20.2710  -10.5320 C   0  0  0  0  0  0  0  0  0  0  0  0
   26.3524  -19.4936  -11.6786 C   0  0  0  0  0  0  0  0  0  0  0  0
   26.2181  -20.0070  -13.0741 C   0  0  2  0  0  0  0  0  0  0  0  0
   26.5987  -18.7669  -13.8775 N   0  0  0  0  0  0  0  0  0  0  0  0
   24.8090  -20.2690  -13.4152 C   0  0  0  0  0  0  0  0  0  0  0  0
   24.2034  -21.4726  -13.5254 O   0  0  0  0  0  0  0  0  0  0  0  0
   24.0636  -19.2502  -13.6414 O   0  0  0  0  0  0  0  0  0  0  0  0
  2  1  1  1
  3  2  1  0
  4  3  1  0
  5  4  1  0
  5  6  1  0
  6  7  1  0
  8  9  2  0
  8  2  1  0
 10  8  1  0
 11 10  1  0
 12 11  1  0
 12 22  1  0
 13 12  2  0
 15 14  1  0
 16 15  2  0
 17 15  1  0
 18 17  1  0
 19 18  1  0
 21 20  1  1
 20 19  1  0
 21 22  1  0
 23 21  1  0
 24 23  1  0
 25 23  2  0
M  END
$$$$
