KGR.pdb
     RDKit          3D

 25 24  0  0  1  0  0  0  0  0999 V2000
   24.5231  -16.6499  -15.9176 N   0  0  0  0  0  0  0  0  0  0  0  0
   25.5897  -16.0750  -16.6712 C   0  0  1  0  0  0  0  0  0  0  0  0
   25.7391  -14.6129  -16.4630 C   0  0  0  0  0  0  0  0  0  0  0  0
   25.0467  -13.7185  -17.4272 C   0  0  0  0  0  0  0  0  0  0  0  0
   23.7632  -14.2485  -18.0020 C   0  0  0  0  0  0  0  0  0  0  0  0
   23.2860  -13.1788  -18.9983 C   0  0  0  0  0  0  0  0  0  0  0  0
   22.0631  -13.5973  -19.6419 N   0  0  0  0  0  0  0  0  0  0  0  0
   26.8334  -16.8258  -16.3215 C   0  0  0  0  0  0  0  0  0  0  0  0
   27.9391  -16.6029  -16.8893 O   0  0  0  0  0  0  0  0  0  0  0  0
   26.8170  -17.8296  -15.3249 N   0  0  0  0  0  0  0  0  0  0  0  0
   27.9978  -18.5619  -14.9831 C   0  0  0  0  0  0  0  0  0  0  0  0
   27.7281  -19.5124  -13.8596 C   0  0  0  0  0  0  0  0  0  0  0  0
   28.5737  -20.3962  -13.5266 O   0  0  0  0  0  0  0  0  0  0  0  0
   22.2159  -20.4404   -8.9623 N   0  0  0  0  0  0  0  0  0  0  0  0
   22.8297  -21.3465   -8.0120 C   0  0  0  0  0  0  0  0  0  0  0  0
   22.0550  -21.9638   -7.1890 N   0  0  0  0  0  0  0  0  0  0  0  0
   24.2217  -21.5175   -8.0185 N   0  0  0  0  0  0  0  0  0  0  0  0
   25.0646  -20.6748   -8.9031 C   0  0  0  0  0  0  0  0  0  0  0  0
   24.5113  -20.7753  -10.2675 C   0  0  0  0  0  0  0  0  0  0  0  0
   25.0651  -20.0889  -11.4135 C   0  0  0  0  0  0  0  0  0  0  0  0
   26.2009  -20.6526  -12.2017 C   0  0  2  0  0  0  0  0  0  0  0  0
   26.5306  -19.4773  -13.1171 N   0  0  0  0  0  0  0  0  0  0  0  0
   25.7471  -21.7265  -13.1024 C   0  0  0  0  0  0  0  0  0  0  0  0
   25.9782  -23.0526  -12.9771 O   0  0  0  0  0  0  0  0  0  0  0  0
   25.0599  -21.3776  -14.1275 O   0  0  0  0  0  0  0  0  0  0  0  0
  2  1  1  1
  3  2  1  0
  4  3  1  0
  5  4  1  0
  5  6  1  0
  6  7  1  0
  8  9  2  0
  8  2  1  0
 10  8  1  0
 11 10  1  0
 12 11  1  0
 12 22  1  0
 13 12  2  0
 15 14  1  0
 16 15  2  0
 17 15  1  0
 18 17  1  0
 19 18  1  0
 21 20  1  1
 20 19  1  0
 21 22  1  0
 23 21  1  0
 24 23  1  0
 25 23  2  0
M  END
$$$$
