KGR.pdb
     RDKit          3D

 25 24  0  0  1  0  0  0  0  0999 V2000
   26.5204  -16.2057  -19.7658 N   0  0  0  0  0  0  0  0  0  0  0  0
   26.9513  -15.3688  -18.6934 C   0  0  1  0  0  0  0  0  0  0  0  0
   26.4633  -13.9711  -18.8020 C   0  0  0  0  0  0  0  0  0  0  0  0
   25.0193  -13.7369  -18.5394 C   0  0  0  0  0  0  0  0  0  0  0  0
   24.5657  -12.3064  -18.6194 C   0  0  0  0  0  0  0  0  0  0  0  0
   23.0445  -12.3441  -18.3982 C   0  0  0  0  0  0  0  0  0  0  0  0
   22.4949  -11.0095  -18.4364 N   0  0  0  0  0  0  0  0  0  0  0  0
   26.5178  -16.0215  -17.4210 C   0  0  0  0  0  0  0  0  0  0  0  0
   25.5069  -16.7757  -17.3592 O   0  0  0  0  0  0  0  0  0  0  0  0
   27.2363  -15.8152  -16.2201 N   0  0  0  0  0  0  0  0  0  0  0  0
   26.8152  -16.4061  -14.9869 C   0  0  0  0  0  0  0  0  0  0  0  0
   27.3920  -17.7776  -14.8296 C   0  0  0  0  0  0  0  0  0  0  0  0
   28.1017  -18.3025  -15.7395 O   0  0  0  0  0  0  0  0  0  0  0  0
   23.2699  -19.7589  -11.1067 N   0  0  0  0  0  0  0  0  0  0  0  0
   23.2126  -21.2062  -11.0571 C   0  0  0  0  0  0  0  0  0  0  0  0
   22.0992  -21.7713  -11.3727 N   0  0  0  0  0  0  0  0  0  0  0  0
   24.3501  -21.9312  -10.6729 N   0  0  0  0  0  0  0  0  0  0  0  0
   25.6587  -21.2411  -10.5512 C   0  0  0  0  0  0  0  0  0  0  0  0
   26.1295  -20.9426  -11.9177 C   0  0  0  0  0  0  0  0  0  0  0  0
   27.4168  -20.3548  -12.2152 C   0  0  0  0  0  0  0  0  0  0  0  0
   27.7999  -19.9456  -13.5989 C   0  0  2  0  0  0  0  0  0  0  0  0
   27.1798  -18.5534  -13.6721 N   0  0  0  0  0  0  0  0  0  0  0  0
   27.0820  -20.7403  -14.6106 C   0  0  0  0  0  0  0  0  0  0  0  0
   27.5273  -21.8437  -15.2524 O   0  0  0  0  0  0  0  0  0  0  0  0
   25.9037  -20.3491  -14.9324 O   0  0  0  0  0  0  0  0  0  0  0  0
  2  1  1  6
  3  2  1  0
  4  3  1  0
  5  4  1  0
  5  6  1  0
  6  7  1  0
  8  9  2  0
  8  2  1  0
 10  8  1  0
 11 10  1  0
 12 11  1  0
 12 22  1  0
 13 12  2  0
 15 14  1  0
 16 15  2  0
 17 15  1  0
 18 17  1  0
 19 18  1  0
 21 20  1  1
 20 19  1  0
 21 22  1  0
 23 21  1  0
 24 23  1  0
 25 23  2  0
M  END
$$$$
