KGR.pdb
     RDKit          3D

 25 24  0  0  1  0  0  0  0  0999 V2000
   27.0145  -24.4771  -16.7102 N   0  0  0  0  0  0  0  0  0  0  0  0
   27.6292  -23.2014  -16.8856 C   0  0  1  0  0  0  0  0  0  0  0  0
   28.0479  -22.9346  -18.2845 C   0  0  0  0  0  0  0  0  0  0  0  0
   29.4028  -22.3580  -18.4863 C   0  0  0  0  0  0  0  0  0  0  0  0
   29.4412  -20.9630  -19.0441 C   0  0  0  0  0  0  0  0  0  0  0  0
   30.9329  -20.6164  -19.1830 C   0  0  0  0  0  0  0  0  0  0  0  0
   31.0948  -19.2740  -19.6894 N   0  0  0  0  0  0  0  0  0  0  0  0
   26.6702  -22.1744  -16.3771 C   0  0  0  0  0  0  0  0  0  0  0  0
   25.5924  -21.9016  -16.9759 O   0  0  0  0  0  0  0  0  0  0  0  0
   26.9392  -21.4593  -15.1866 N   0  0  0  0  0  0  0  0  0  0  0  0
   26.0677  -20.4226  -14.7251 C   0  0  0  0  0  0  0  0  0  0  0  0
   24.9010  -20.9979  -13.9859 C   0  0  0  0  0  0  0  0  0  0  0  0
   24.3537  -22.0794  -14.3573 O   0  0  0  0  0  0  0  0  0  0  0  0
   19.6389  -21.4682   -8.4903 N   0  0  0  0  0  0  0  0  0  0  0  0
   20.7081  -22.2903   -7.9596 C   0  0  0  0  0  0  0  0  0  0  0  0
   20.4042  -23.4712   -7.5450 N   0  0  0  0  0  0  0  0  0  0  0  0
   22.0146  -21.7823   -7.9144 N   0  0  0  0  0  0  0  0  0  0  0  0
   22.2900  -20.4095   -8.4074 C   0  0  0  0  0  0  0  0  0  0  0  0
   22.1246  -20.4252   -9.8738 C   0  0  0  0  0  0  0  0  0  0  0  0
   23.2253  -20.3536  -10.8090 C   0  0  0  0  0  0  0  0  0  0  0  0
   23.1924  -21.0556  -12.1262 C   0  0  2  0  0  0  0  0  0  0  0  0
   24.3520  -20.3748  -12.8471 N   0  0  0  0  0  0  0  0  0  0  0  0
   21.9918  -20.6905  -12.8980 C   0  0  0  0  0  0  0  0  0  0  0  0
   21.8234  -19.6046  -13.6854 O   0  0  0  0  0  0  0  0  0  0  0  0
   20.9838  -21.4794  -12.8180 O   0  0  0  0  0  0  0  0  0  0  0  0
  2  1  1  6
  3  2  1  0
  4  3  1  0
  5  4  1  0
  5  6  1  0
  6  7  1  0
  8  9  2  0
  8  2  1  0
 10  8  1  0
 11 10  1  0
 12 11  1  0
 12 22  1  0
 13 12  2  0
 15 14  1  0
 16 15  2  0
 17 15  1  0
 18 17  1  0
 19 18  1  0
 21 20  1  1
 20 19  1  0
 21 22  1  0
 23 21  1  0
 24 23  1  0
 25 23  2  0
M  END
$$$$
