KGR.pdb
     RDKit          3D

 25 24  0  0  1  0  0  0  0  0999 V2000
   27.0908  -20.4317  -12.0475 N   0  0  0  0  0  0  0  0  0  0  0  0
   26.4458  -21.5046  -11.3627 C   0  0  1  0  0  0  0  0  0  0  0  0
   26.1692  -21.2122   -9.9339 C   0  0  0  0  0  0  0  0  0  0  0  0
   27.1125  -20.3004   -9.2356 C   0  0  0  0  0  0  0  0  0  0  0  0
   26.7658  -19.9700   -7.8111 C   0  0  0  0  0  0  0  0  0  0  0  0
   27.9744  -19.1932   -7.2630 C   0  0  0  0  0  0  0  0  0  0  0  0
   27.7226  -18.7554   -5.9103 N   0  0  0  0  0  0  0  0  0  0  0  0
   25.2022  -21.8314  -12.1239 C   0  0  0  0  0  0  0  0  0  0  0  0
   24.3787  -22.7038  -11.7297 O   0  0  0  0  0  0  0  0  0  0  0  0
   24.8972  -21.1639  -13.3332 N   0  0  0  0  0  0  0  0  0  0  0  0
   23.5502  -20.8328  -13.6843 C   0  0  0  0  0  0  0  0  0  0  0  0
   23.4915  -19.5102  -14.3811 C   0  0  0  0  0  0  0  0  0  0  0  0
   24.4229  -18.6589  -14.2589 O   0  0  0  0  0  0  0  0  0  0  0  0
   16.8544  -20.6940  -16.8259 N   0  0  0  0  0  0  0  0  0  0  0  0
   17.5024  -20.5942  -18.1185 C   0  0  0  0  0  0  0  0  0  0  0  0
   16.8043  -20.8853  -19.1609 N   0  0  0  0  0  0  0  0  0  0  0  0
   18.8441  -20.1923  -18.1910 N   0  0  0  0  0  0  0  0  0  0  0  0
   19.5914  -19.8875  -16.9452 C   0  0  0  0  0  0  0  0  0  0  0  0
   20.9427  -19.4428  -17.3381 C   0  0  0  0  0  0  0  0  0  0  0  0
   21.4643  -18.1206  -17.0719 C   0  0  0  0  0  0  0  0  0  0  0  0
   22.5269  -17.8790  -16.0514 C   0  0  2  0  0  0  0  0  0  0  0  0
   22.4078  -19.1419  -15.2036 N   0  0  0  0  0  0  0  0  0  0  0  0
   22.1613  -16.7735  -15.1488 C   0  0  0  0  0  0  0  0  0  0  0  0
   22.4376  -15.4599  -15.3090 O   0  0  0  0  0  0  0  0  0  0  0  0
   21.5133  -17.0783  -14.0848 O   0  0  0  0  0  0  0  0  0  0  0  0
  2  1  1  6
  3  2  1  0
  4  3  1  0
  5  4  1  0
  5  6  1  0
  6  7  1  0
  8  9  2  0
  8  2  1  0
 10  8  1  0
 11 10  1  0
 12 11  1  0
 12 22  1  0
 13 12  2  0
 15 14  1  0
 16 15  2  0
 17 15  1  0
 18 17  1  0
 19 18  1  0
 21 20  1  6
 20 19  1  0
 21 22  1  0
 23 21  1  0
 24 23  1  0
 25 23  2  0
M  END
$$$$
