KGR.pdb
     RDKit          3D

 25 24  0  0  1  0  0  0  0  0999 V2000
   29.0032  -21.7378  -16.0319 N   0  0  0  0  0  0  0  0  0  0  0  0
   27.8043  -21.1427  -15.5373 C   0  0  1  0  0  0  0  0  0  0  0  0
   26.6067  -21.4592  -16.3551 C   0  0  0  0  0  0  0  0  0  0  0  0
   26.3507  -20.5992  -17.5400 C   0  0  0  0  0  0  0  0  0  0  0  0
   26.0785  -19.1505  -17.2476 C   0  0  0  0  0  0  0  0  0  0  0  0
   25.7934  -18.5018  -18.6123 C   0  0  0  0  0  0  0  0  0  0  0  0
   25.5385  -17.0891  -18.4570 N   0  0  0  0  0  0  0  0  0  0  0  0
   27.6488  -21.5763  -14.1158 C   0  0  0  0  0  0  0  0  0  0  0  0
   28.1353  -22.6580  -13.6826 O   0  0  0  0  0  0  0  0  0  0  0  0
   26.9396  -20.7773  -13.1886 N   0  0  0  0  0  0  0  0  0  0  0  0
   26.9303  -21.0849  -11.7913 C   0  0  0  0  0  0  0  0  0  0  0  0
   25.9747  -20.1980  -11.0573 C   0  0  0  0  0  0  0  0  0  0  0  0
   26.0800  -18.9354  -11.1023 O   0  0  0  0  0  0  0  0  0  0  0  0
   18.9178  -21.2077  -12.6211 N   0  0  0  0  0  0  0  0  0  0  0  0
   19.2139  -20.7889  -13.9767 C   0  0  0  0  0  0  0  0  0  0  0  0
   18.2194  -20.5648  -14.7635 N   0  0  0  0  0  0  0  0  0  0  0  0
   20.5493  -20.6452  -14.3806 N   0  0  0  0  0  0  0  0  0  0  0  0
   21.5997  -21.5017  -13.7752 C   0  0  0  0  0  0  0  0  0  0  0  0
   21.8983  -20.9555  -12.4371 C   0  0  0  0  0  0  0  0  0  0  0  0
   23.2317  -20.8605  -11.8855 C   0  0  0  0  0  0  0  0  0  0  0  0
   23.4977  -20.2225  -10.5623 C   0  0  2  0  0  0  0  0  0  0  0  0
   24.9154  -20.7129  -10.2833 N   0  0  0  0  0  0  0  0  0  0  0  0
   22.6678  -20.8211   -9.5024 C   0  0  0  0  0  0  0  0  0  0  0  0
   22.8176  -22.0388   -8.9347 O   0  0  0  0  0  0  0  0  0  0  0  0
   21.6859  -20.1219   -9.0644 O   0  0  0  0  0  0  0  0  0  0  0  0
  2  1  1  6
  3  2  1  0
  4  3  1  0
  5  4  1  0
  5  6  1  0
  6  7  1  0
  8  9  2  0
  8  2  1  0
 10  8  1  0
 11 10  1  0
 12 11  1  0
 12 22  1  0
 13 12  2  0
 15 14  1  0
 16 15  2  0
 17 15  1  0
 18 17  1  0
 19 18  1  0
 21 20  1  6
 20 19  1  0
 21 22  1  0
 23 21  1  0
 24 23  1  0
 25 23  2  0
M  END
$$$$
