KGR.pdb
     RDKit          3D

 25 24  0  0  1  0  0  0  0  0999 V2000
   27.6136  -17.3912  -18.7036 N   0  0  0  0  0  0  0  0  0  0  0  0
   26.2187  -17.2359  -18.4461 C   0  0  1  0  0  0  0  0  0  0  0  0
   25.4760  -16.6140  -19.5707 C   0  0  0  0  0  0  0  0  0  0  0  0
   25.0525  -15.1995  -19.4011 C   0  0  0  0  0  0  0  0  0  0  0  0
   24.1420  -14.6592  -20.4677 C   0  0  0  0  0  0  0  0  0  0  0  0
   23.8733  -13.1964  -20.0769 C   0  0  0  0  0  0  0  0  0  0  0  0
   22.8636  -12.6216  -20.9342 N   0  0  0  0  0  0  0  0  0  0  0  0
   25.6816  -18.5843  -18.0908 C   0  0  0  0  0  0  0  0  0  0  0  0
   25.7602  -19.5707  -18.8753 O   0  0  0  0  0  0  0  0  0  0  0  0
   25.0556  -18.8083  -16.8423 N   0  0  0  0  0  0  0  0  0  0  0  0
   24.4644  -20.0705  -16.5191 C   0  0  0  0  0  0  0  0  0  0  0  0
   23.8223  -20.0273  -15.1684 C   0  0  0  0  0  0  0  0  0  0  0  0
   23.8985  -18.9960  -14.4350 O   0  0  0  0  0  0  0  0  0  0  0  0
   18.6428  -24.8508   -9.6669 N   0  0  0  0  0  0  0  0  0  0  0  0
   17.9941  -23.5959   -9.9914 C   0  0  0  0  0  0  0  0  0  0  0  0
   16.7995  -23.4088   -9.5484 N   0  0  0  0  0  0  0  0  0  0  0  0
   18.6754  -22.6442  -10.7642 N   0  0  0  0  0  0  0  0  0  0  0  0
   19.7655  -23.0760  -11.6744 C   0  0  0  0  0  0  0  0  0  0  0  0
   20.2712  -21.8715  -12.3609 C   0  0  0  0  0  0  0  0  0  0  0  0
   21.3307  -21.8907  -13.3449 C   0  0  0  0  0  0  0  0  0  0  0  0
   22.5321  -21.0116  -13.2324 C   0  0  2  0  0  0  0  0  0  0  0  0
   23.1046  -21.1205  -14.6425 N   0  0  0  0  0  0  0  0  0  0  0  0
   23.5534  -21.6098  -12.3552 C   0  0  0  0  0  0  0  0  0  0  0  0
   23.7780  -21.3312  -11.0515 O   0  0  0  0  0  0  0  0  0  0  0  0
   24.3270  -22.4905  -12.8755 O   0  0  0  0  0  0  0  0  0  0  0  0
  2  1  1  6
  3  2  1  0
  4  3  1  0
  5  4  1  0
  5  6  1  0
  6  7  1  0
  8  9  2  0
  8  2  1  0
 10  8  1  0
 11 10  1  0
 12 11  1  0
 12 22  1  0
 13 12  2  0
 15 14  1  0
 16 15  2  0
 17 15  1  0
 18 17  1  0
 19 18  1  0
 21 20  1  6
 20 19  1  0
 21 22  1  0
 23 21  1  0
 24 23  1  0
 25 23  2  0
M  END
$$$$
