KGR.pdb
     RDKit          3D

 25 24  0  0  1  0  0  0  0  0999 V2000
   21.9091  -12.9477  -21.4590 N   0  0  0  0  0  0  0  0  0  0  0  0
   21.4104  -12.8501  -22.7923 C   0  0  1  0  0  0  0  0  0  0  0  0
   20.4122  -13.8962  -23.1278 C   0  0  0  0  0  0  0  0  0  0  0  0
   20.8296  -15.3113  -22.9482 C   0  0  0  0  0  0  0  0  0  0  0  0
   19.7994  -16.3454  -23.3057 C   0  0  0  0  0  0  0  0  0  0  0  0
   20.4972  -17.7029  -23.1197 C   0  0  0  0  0  0  0  0  0  0  0  0
   19.6218  -18.7800  -23.5178 N   0  0  0  0  0  0  0  0  0  0  0  0
   20.8612  -11.4705  -22.9594 C   0  0  0  0  0  0  0  0  0  0  0  0
   20.3565  -11.0715  -24.0460 O   0  0  0  0  0  0  0  0  0  0  0  0
   20.8868  -10.5464  -21.8887 N   0  0  0  0  0  0  0  0  0  0  0  0
   20.3637   -9.2224  -22.0322 C   0  0  0  0  0  0  0  0  0  0  0  0
   20.4170   -8.4851  -20.7315 C   0  0  0  0  0  0  0  0  0  0  0  0
   20.6217   -9.0923  -19.6376 O   0  0  0  0  0  0  0  0  0  0  0  0
   18.8787    0.2211  -18.8336 N   0  0  0  0  0  0  0  0  0  0  0  0
   19.7167   -0.3493  -17.7978 C   0  0  0  0  0  0  0  0  0  0  0  0
   20.2300    0.4559  -16.9336 N   0  0  0  0  0  0  0  0  0  0  0  0
   19.9386   -1.7340  -17.7713 N   0  0  0  0  0  0  0  0  0  0  0  0
   20.0767   -2.4837  -19.0449 C   0  0  0  0  0  0  0  0  0  0  0  0
   20.2299   -3.9111  -18.7030 C   0  0  0  0  0  0  0  0  0  0  0  0
   20.3007   -4.9709  -19.6843 C   0  0  0  0  0  0  0  0  0  0  0  0
   20.3786   -6.4094  -19.2923 C   0  0  2  0  0  0  0  0  0  0  0  0
   20.2444   -7.0885  -20.6520 N   0  0  0  0  0  0  0  0  0  0  0  0
   19.1845   -6.8238  -18.5355 C   0  0  0  0  0  0  0  0  0  0  0  0
   19.0699   -6.9567  -17.1951 O   0  0  0  0  0  0  0  0  0  0  0  0
   18.1302   -7.0982  -19.2123 O   0  0  0  0  0  0  0  0  0  0  0  0
  2  1  1  1
  3  2  1  0
  4  3  1  0
  5  4  1  0
  5  6  1  0
  6  7  1  0
  8  9  2  0
  8  2  1  0
 10  8  1  0
 11 10  1  0
 12 11  1  0
 12 22  1  0
 13 12  2  0
 15 14  1  0
 16 15  2  0
 17 15  1  0
 18 17  1  0
 19 18  1  0
 21 20  1  6
 20 19  1  0
 21 22  1  0
 23 21  1  0
 24 23  1  0
 25 23  2  0
M  END
$$$$
