CCS.pdb
     RDKit          3D

 19 18  0  0  1  0  0  0  0  0999 V2000
    8.2351  -13.6008   20.1976 N   0  0  0  0  0  0  0  0  0  0  0  0
    7.4456  -14.1757   21.2634 C   0  0  1  0  0  0  0  0  0  0  0  0
    7.1299  -15.6127   20.9276 C   0  0  0  0  0  0  0  0  0  0  0  0
    5.6077  -15.6590   19.9765 S   0  0  0  0  0  0  0  0  0  0  0  0
    8.1698  -14.1284   22.5626 C   0  0  0  0  0  0  0  0  0  0  0  0
    9.4205  -14.2425   22.6577 O   0  0  0  0  0  0  0  0  0  0  0  0
    7.3852  -13.9442   23.7384 N   0  0  0  0  0  0  0  0  0  0  0  0
    7.9653  -13.9274   25.0659 C   0  0  1  0  0  0  0  0  0  0  0  0
    7.0904  -13.1407   26.0262 C   0  0  0  0  0  0  0  0  0  0  0  0
    8.0620  -12.8189   27.5210 S   0  0  0  0  0  0  0  0  0  0  0  0
    8.0940  -15.3478   25.5075 C   0  0  0  0  0  0  0  0  0  0  0  0
    7.0954  -16.1317   25.5573 O   0  0  0  0  0  0  0  0  0  0  0  0
   11.3977  -17.4372   25.1306 O   0  0  0  0  0  0  0  0  0  0  0  0
   10.1792  -18.0526   25.2959 C   0  0  0  0  0  0  0  0  0  0  0  0
    9.4325  -17.2749   26.3898 C   0  0  2  0  0  0  0  0  0  0  0  0
    9.3399  -15.9094   25.8988 N   0  0  0  0  0  0  0  0  0  0  0  0
   10.1495  -17.3795   27.6571 C   0  0  0  0  0  0  0  0  0  0  0  0
   10.3033  -18.4906   28.1999 O   0  0  0  0  0  0  0  0  0  0  0  0
   10.6675  -16.2648   28.2766 O   0  0  0  0  0  0  0  0  0  0  0  0
  2  3  1  0
  2  1  1  6
  3  4  1  0
  5  6  2  0
  5  2  1  0
  7  5  1  0
  8  7  1  0
  9 10  1  0
  8  9  1  1
 11 12  2  0
 11  8  1  0
 13 14  1  0
 15 14  1  6
 15 16  1  0
 16 11  1  0
 17 15  1  0
 18 17  2  0
 19 17  1  0
M  END
$$$$
