CCS.pdb
     RDKit          3D

 19 18  0  0  1  0  0  0  0  0999 V2000
    7.9359  -13.4648   19.8767 N   0  0  0  0  0  0  0  0  0  0  0  0
    7.1414  -13.6192   21.0744 C   0  0  1  0  0  0  0  0  0  0  0  0
    6.2590  -14.8351   20.9313 C   0  0  0  0  0  0  0  0  0  0  0  0
    7.3025  -16.2915   20.8160 S   0  0  0  0  0  0  0  0  0  0  0  0
    7.9998  -13.7811   22.2791 C   0  0  0  0  0  0  0  0  0  0  0  0
    9.2282  -14.0523   22.2172 O   0  0  0  0  0  0  0  0  0  0  0  0
    7.3753  -13.6158   23.5499 N   0  0  0  0  0  0  0  0  0  0  0  0
    8.1022  -13.7452   24.7965 C   0  0  1  0  0  0  0  0  0  0  0  0
    7.3259  -13.1163   25.9404 C   0  0  0  0  0  0  0  0  0  0  0  0
    8.3472  -13.2357   27.4321 S   0  0  0  0  0  0  0  0  0  0  0  0
    8.3098  -15.2043   25.0350 C   0  0  0  0  0  0  0  0  0  0  0  0
    7.3655  -16.0469   24.9242 O   0  0  0  0  0  0  0  0  0  0  0  0
   10.5431  -17.6531   23.6014 O   0  0  0  0  0  0  0  0  0  0  0  0
   10.9389  -17.6287   24.9180 C   0  0  0  0  0  0  0  0  0  0  0  0
    9.7325  -17.1454   25.7366 C   0  0  2  0  0  0  0  0  0  0  0  0
    9.5752  -15.7395   25.4003 N   0  0  0  0  0  0  0  0  0  0  0  0
    9.9702  -17.3698   27.1594 C   0  0  0  0  0  0  0  0  0  0  0  0
   10.0122  -16.4053   27.9471 O   0  0  0  0  0  0  0  0  0  0  0  0
   10.1516  -18.6392   27.6597 O   0  0  0  0  0  0  0  0  0  0  0  0
  2  3  1  0
  2  1  1  6
  3  4  1  0
  5  6  2  0
  5  2  1  0
  7  5  1  0
  8  7  1  0
  9 10  1  0
  8  9  1  1
 11 12  2  0
 11  8  1  0
 13 14  1  0
 15 14  1  6
 15 16  1  0
 16 11  1  0
 17 15  1  0
 18 17  2  0
 19 17  1  0
M  END
$$$$
