CCS.pdb
     RDKit          3D

 19 18  0  0  1  0  0  0  0  0999 V2000
    6.0726  -15.0515   20.5146 N   0  0  0  0  0  0  0  0  0  0  0  0
    7.2720  -15.8348   20.7083 C   0  0  1  0  0  0  0  0  0  0  0  0
    7.9814  -15.9917   19.3856 C   0  0  0  0  0  0  0  0  0  0  0  0
    7.0634  -15.0926   18.1315 S   0  0  0  0  0  0  0  0  0  0  0  0
    8.1938  -15.1862   21.6799 C   0  0  0  0  0  0  0  0  0  0  0  0
    9.3496  -14.7908   21.3732 O   0  0  0  0  0  0  0  0  0  0  0  0
    7.7196  -15.0175   23.0136 N   0  0  0  0  0  0  0  0  0  0  0  0
    8.5936  -14.6508   24.1094 C   0  0  1  0  0  0  0  0  0  0  0  0
    7.8887  -13.7066   25.0678 C   0  0  0  0  0  0  0  0  0  0  0  0
    6.2639  -14.4138   25.4443 S   0  0  0  0  0  0  0  0  0  0  0  0
    8.9852  -15.9144   24.8014 C   0  0  0  0  0  0  0  0  0  0  0  0
    8.1524  -16.8479   25.0231 O   0  0  0  0  0  0  0  0  0  0  0  0
   12.8886  -16.8073   25.3163 O   0  0  0  0  0  0  0  0  0  0  0  0
   11.9907  -17.8318   25.1301 C   0  0  0  0  0  0  0  0  0  0  0  0
   10.6941  -17.4228   25.8447 C   0  0  2  0  0  0  0  0  0  0  0  0
   10.3120  -16.1502   25.2541 N   0  0  0  0  0  0  0  0  0  0  0  0
   10.9203  -17.3400   27.2845 C   0  0  0  0  0  0  0  0  0  0  0  0
   10.7800  -16.2540   27.8791 O   0  0  0  0  0  0  0  0  0  0  0  0
   11.2901  -18.4482   28.0123 O   0  0  0  0  0  0  0  0  0  0  0  0
  2  3  1  0
  2  1  1  6
  3  4  1  0
  5  6  2  0
  5  2  1  0
  7  5  1  0
  8  7  1  0
  9 10  1  0
  8  9  1  1
 11 12  2  0
 11  8  1  0
 13 14  1  0
 15 14  1  6
 15 16  1  0
 16 11  1  0
 17 15  1  0
 18 17  2  0
 19 17  1  0
M  END
$$$$
