CCS.pdb
     RDKit          3D

 19 18  0  0  1  0  0  0  0  0999 V2000
    8.3906  -14.6312   20.2636 N   0  0  0  0  0  0  0  0  0  0  0  0
    7.5518  -14.6939   21.4392 C   0  0  1  0  0  0  0  0  0  0  0  0
    6.7707  -15.9850   21.4233 C   0  0  0  0  0  0  0  0  0  0  0  0
    5.3744  -15.7978   20.3103 S   0  0  0  0  0  0  0  0  0  0  0  0
    8.3596  -14.6303   22.6874 C   0  0  0  0  0  0  0  0  0  0  0  0
    9.5717  -14.9684   22.7404 O   0  0  0  0  0  0  0  0  0  0  0  0
    7.7045  -14.1604   23.8631 N   0  0  0  0  0  0  0  0  0  0  0  0
    8.3811  -14.0513   25.1395 C   0  0  1  0  0  0  0  0  0  0  0  0
    7.6260  -13.1195   26.0714 C   0  0  0  0  0  0  0  0  0  0  0  0
    8.4379  -13.1803   27.6898 S   0  0  0  0  0  0  0  0  0  0  0  0
    8.4602  -15.4269   25.7143 C   0  0  0  0  0  0  0  0  0  0  0  0
    7.4296  -16.1537   25.8685 O   0  0  0  0  0  0  0  0  0  0  0  0
   11.7752  -17.4778   25.6014 O   0  0  0  0  0  0  0  0  0  0  0  0
   10.6120  -18.1794   25.8151 C   0  0  0  0  0  0  0  0  0  0  0  0
    9.7390  -17.3217   26.7431 C   0  0  2  0  0  0  0  0  0  0  0  0
    9.6918  -16.0070   26.1237 N   0  0  0  0  0  0  0  0  0  0  0  0
   10.3076  -17.3003   28.0875 C   0  0  0  0  0  0  0  0  0  0  0  0
   10.6221  -16.2173   28.6173 O   0  0  0  0  0  0  0  0  0  0  0  0
   10.5079  -18.4640   28.7947 O   0  0  0  0  0  0  0  0  0  0  0  0
  2  3  1  0
  2  1  1  6
  3  4  1  0
  5  6  2  0
  5  2  1  0
  7  5  1  0
  8  7  1  0
  9 10  1  0
  8  9  1  1
 11 12  2  0
 11  8  1  0
 13 14  1  0
 15 14  1  6
 15 16  1  0
 16 11  1  0
 17 15  1  0
 18 17  2  0
 19 17  1  0
M  END
$$$$
