CCS.pdb
     RDKit          3D

 19 18  0  0  1  0  0  0  0  0999 V2000
    7.6114  -17.3780   18.1157 N   0  0  0  0  0  0  0  0  0  0  0  0
    7.3299  -17.2884   19.5307 C   0  0  1  0  0  0  0  0  0  0  0  0
    7.1223  -18.6768   20.0844 C   0  0  0  0  0  0  0  0  0  0  0  0
    5.5979  -19.3425   19.4085 S   0  0  0  0  0  0  0  0  0  0  0  0
    8.4457  -16.6339   20.2665 C   0  0  0  0  0  0  0  0  0  0  0  0
    9.6170  -16.5539   19.8107 O   0  0  0  0  0  0  0  0  0  0  0  0
    8.1452  -16.0803   21.5454 N   0  0  0  0  0  0  0  0  0  0  0  0
    9.1340  -15.3841   22.3433 C   0  0  1  0  0  0  0  0  0  0  0  0
    8.4638  -14.4762   23.3597 C   0  0  0  0  0  0  0  0  0  0  0  0
    7.3422  -15.4938   24.3541 S   0  0  0  0  0  0  0  0  0  0  0  0
    9.9608  -16.4240   23.0245 C   0  0  0  0  0  0  0  0  0  0  0  0
    9.5611  -17.6225   23.1581 O   0  0  0  0  0  0  0  0  0  0  0  0
   13.2612  -17.0845   21.8538 O   0  0  0  0  0  0  0  0  0  0  0  0
   12.4783  -17.9302   22.6038 C   0  0  0  0  0  0  0  0  0  0  0  0
   12.1696  -17.2010   23.9199 C   0  0  2  0  0  0  0  0  0  0  0  0
   11.2441  -16.1372   23.5647 N   0  0  0  0  0  0  0  0  0  0  0  0
   13.4050  -16.7073   24.5208 C   0  0  0  0  0  0  0  0  0  0  0  0
   13.6358  -15.4835   24.5621 O   0  0  0  0  0  0  0  0  0  0  0  0
   14.3348  -17.5728   25.0508 O   0  0  0  0  0  0  0  0  0  0  0  0
  2  3  1  0
  2  1  1  6
  3  4  1  0
  5  6  2  0
  5  2  1  0
  7  5  1  0
  8  7  1  0
  9 10  1  0
  8  9  1  1
 11 12  2  0
 11  8  1  0
 13 14  1  0
 15 14  1  6
 15 16  1  0
 16 11  1  0
 17 15  1  0
 18 17  2  0
 19 17  1  0
M  END
$$$$
