CCS.pdb
     RDKit          3D

 19 18  0  0  1  0  0  0  0  0999 V2000
    8.6675  -14.8876   20.2910 N   0  0  0  0  0  0  0  0  0  0  0  0
    7.6409  -14.6832   21.2880 C   0  0  1  0  0  0  0  0  0  0  0  0
    6.7539  -15.9028   21.3442 C   0  0  0  0  0  0  0  0  0  0  0  0
    7.7050  -17.2746   22.0054 S   0  0  0  0  0  0  0  0  0  0  0  0
    8.2298  -14.4484   22.6343 C   0  0  0  0  0  0  0  0  0  0  0  0
    9.4346  -14.6904   22.9101 O   0  0  0  0  0  0  0  0  0  0  0  0
    7.3658  -13.9241   23.6398 N   0  0  0  0  0  0  0  0  0  0  0  0
    7.8020  -13.7074   25.0043 C   0  0  1  0  0  0  0  0  0  0  0  0
    6.8195  -12.8207   25.7494 C   0  0  0  0  0  0  0  0  0  0  0  0
    7.5025  -12.5029   27.3971 S   0  0  0  0  0  0  0  0  0  0  0  0
    7.9028  -15.0488   25.6520 C   0  0  0  0  0  0  0  0  0  0  0  0
    7.2424  -16.0507   25.2345 O   0  0  0  0  0  0  0  0  0  0  0  0
   11.0100  -17.9009   25.8802 O   0  0  0  0  0  0  0  0  0  0  0  0
   10.3758  -16.6870   25.7573 C   0  0  0  0  0  0  0  0  0  0  0  0
    9.4209  -16.5605   26.9536 C   0  0  2  0  0  0  0  0  0  0  0  0
    8.7426  -15.2869   26.7740 N   0  0  0  0  0  0  0  0  0  0  0  0
   10.1709  -16.6376   28.2037 C   0  0  0  0  0  0  0  0  0  0  0  0
   10.6004  -17.7346   28.6097 O   0  0  0  0  0  0  0  0  0  0  0  0
   10.4192  -15.5120   28.9560 O   0  0  0  0  0  0  0  0  0  0  0  0
  2  3  1  0
  2  1  1  6
  3  4  1  0
  5  6  2  0
  5  2  1  0
  7  5  1  0
  8  7  1  0
  9 10  1  0
  8  9  1  1
 11 12  2  0
 11  8  1  0
 13 14  1  0
 15 14  1  6
 15 16  1  0
 16 11  1  0
 17 15  1  0
 18 17  2  0
 19 17  1  0
M  END
$$$$
