CCS.pdb
     RDKit          3D

 19 18  0  0  1  0  0  0  0  0999 V2000
    7.9118  -14.4708   19.9449 N   0  0  0  0  0  0  0  0  0  0  0  0
    7.2143  -14.7598   21.1776 C   0  0  1  0  0  0  0  0  0  0  0  0
    6.6527  -16.1590   21.1139 C   0  0  0  0  0  0  0  0  0  0  0  0
    5.4489  -16.2346   19.7839 S   0  0  0  0  0  0  0  0  0  0  0  0
    8.1209  -14.6534   22.3530 C   0  0  0  0  0  0  0  0  0  0  0  0
    9.3533  -14.9068   22.2964 O   0  0  0  0  0  0  0  0  0  0  0  0
    7.5394  -14.2430   23.5881 N   0  0  0  0  0  0  0  0  0  0  0  0
    8.2975  -14.1773   24.8209 C   0  0  1  0  0  0  0  0  0  0  0  0
    7.5737  -13.3313   25.8540 C   0  0  0  0  0  0  0  0  0  0  0  0
    5.8942  -13.9882   26.0269 S   0  0  0  0  0  0  0  0  0  0  0  0
    8.4678  -15.5784   25.3076 C   0  0  0  0  0  0  0  0  0  0  0  0
    7.5494  -16.4486   25.1927 O   0  0  0  0  0  0  0  0  0  0  0  0
   11.8065  -17.2934   25.1286 O   0  0  0  0  0  0  0  0  0  0  0  0
   10.6875  -18.0760   25.2897 C   0  0  0  0  0  0  0  0  0  0  0  0
    9.8239  -17.4018   26.3661 C   0  0  2  0  0  0  0  0  0  0  0  0
    9.6665  -16.0240   25.9287 N   0  0  0  0  0  0  0  0  0  0  0  0
   10.4688  -17.5173   27.6708 C   0  0  0  0  0  0  0  0  0  0  0  0
   10.8017  -16.4932   28.2977 O   0  0  0  0  0  0  0  0  0  0  0  0
   10.7218  -18.7475   28.2338 O   0  0  0  0  0  0  0  0  0  0  0  0
  2  3  1  0
  2  1  1  6
  3  4  1  0
  5  6  2  0
  5  2  1  0
  7  5  1  0
  8  7  1  0
  9 10  1  0
  8  9  1  1
 11 12  2  0
 11  8  1  0
 13 14  1  0
 15 14  1  6
 15 16  1  0
 16 11  1  0
 17 15  1  0
 18 17  2  0
 19 17  1  0
M  END
$$$$
