CCS.pdb
     RDKit          3D

 19 18  0  0  1  0  0  0  0  0999 V2000
    8.1602  -12.7703   19.5634 N   0  0  0  0  0  0  0  0  0  0  0  0
    7.2664  -13.2260   20.6040 C   0  0  1  0  0  0  0  0  0  0  0  0
    6.5451  -14.4646   20.1316 C   0  0  0  0  0  0  0  0  0  0  0  0
    7.7568  -15.7547   19.8297 S   0  0  0  0  0  0  0  0  0  0  0  0
    8.0061  -13.5426   21.8559 C   0  0  0  0  0  0  0  0  0  0  0  0
    9.2611  -13.6344   21.9089 O   0  0  0  0  0  0  0  0  0  0  0  0
    7.2318  -13.7465   23.0353 N   0  0  0  0  0  0  0  0  0  0  0  0
    7.8318  -14.0743   24.3126 C   0  0  1  0  0  0  0  0  0  0  0  0
    6.8204  -13.9279   25.4362 C   0  0  0  0  0  0  0  0  0  0  0  0
    6.9160  -12.2248   26.0467 S   0  0  0  0  0  0  0  0  0  0  0  0
    8.3219  -15.4815   24.2200 C   0  0  0  0  0  0  0  0  0  0  0  0
    7.5854  -16.4257   23.7956 O   0  0  0  0  0  0  0  0  0  0  0  0
   12.1951  -16.2903   24.3204 O   0  0  0  0  0  0  0  0  0  0  0  0
   11.3776  -17.2501   23.7717 C   0  0  0  0  0  0  0  0  0  0  0  0
   10.0724  -17.2391   24.5813 C   0  0  2  0  0  0  0  0  0  0  0  0
    9.6410  -15.8506   24.6005 N   0  0  0  0  0  0  0  0  0  0  0  0
   10.3058  -17.7838   25.9155 C   0  0  0  0  0  0  0  0  0  0  0  0
   10.1366  -17.0692   26.9221 O   0  0  0  0  0  0  0  0  0  0  0  0
   10.7142  -19.0864   26.0916 O   0  0  0  0  0  0  0  0  0  0  0  0
  2  3  1  0
  2  1  1  6
  3  4  1  0
  5  6  2  0
  5  2  1  0
  7  5  1  0
  8  7  1  0
  9 10  1  0
  8  9  1  1
 11 12  2  0
 11  8  1  0
 13 14  1  0
 15 14  1  6
 15 16  1  0
 16 11  1  0
 17 15  1  0
 18 17  2  0
 19 17  1  0
M  END
$$$$
