CCS.pdb
     RDKit          3D

 19 18  0  0  1  0  0  0  0  0999 V2000
   -5.2703  -27.2432   34.1134 N   0  0  0  0  0  0  0  0  0  0  0  0
   -5.9837  -27.1680   32.8585 C   0  0  1  0  0  0  0  0  0  0  0  0
   -7.3675  -27.7426   33.0390 C   0  0  0  0  0  0  0  0  0  0  0  0
   -7.2664  -29.5313   32.9217 S   0  0  0  0  0  0  0  0  0  0  0  0
   -6.0996  -25.7628   32.3823 C   0  0  0  0  0  0  0  0  0  0  0  0
   -6.2276  -24.7810   33.1607 O   0  0  0  0  0  0  0  0  0  0  0  0
   -6.0606  -25.5480   30.9736 N   0  0  0  0  0  0  0  0  0  0  0  0
   -6.1147  -24.2244   30.3869 C   0  0  1  0  0  0  0  0  0  0  0  0
   -4.8359  -23.9197   29.6263 C   0  0  0  0  0  0  0  0  0  0  0  0
   -3.6681  -23.1668   30.7889 S   0  0  0  0  0  0  0  0  0  0  0  0
   -7.2951  -24.1964   29.4731 C   0  0  0  0  0  0  0  0  0  0  0  0
   -7.3704  -24.9398   28.4456 O   0  0  0  0  0  0  0  0  0  0  0  0
  -10.3843  -21.7484   30.3075 O   0  0  0  0  0  0  0  0  0  0  0  0
  -10.7494  -22.9282   29.7029 C   0  0  0  0  0  0  0  0  0  0  0  0
   -9.5676  -23.3617   28.8228 C   0  0  2  0  0  0  0  0  0  0  0  0
   -8.4055  -23.3373   29.6964 N   0  0  0  0  0  0  0  0  0  0  0  0
   -9.4408  -22.4658   27.6773 C   0  0  0  0  0  0  0  0  0  0  0  0
   -8.4509  -21.7160   27.5752 O   0  0  0  0  0  0  0  0  0  0  0  0
  -10.4018  -22.4282   26.6926 O   0  0  0  0  0  0  0  0  0  0  0  0
  2  3  1  0
  2  1  1  1
  3  4  1  0
  5  6  2  0
  5  2  1  0
  7  5  1  0
  8  7  1  0
  9 10  1  0
  8  9  1  6
 11 12  2  0
 11  8  1  0
 13 14  1  0
 15 14  1  1
 15 16  1  0
 16 11  1  0
 17 15  1  0
 18 17  2  0
 19 17  1  0
M  END
$$$$
