CCS.pdb
     RDKit          3D

 19 18  0  0  1  0  0  0  0  0999 V2000
    5.2806  -13.6307   26.3331 N   0  0  0  0  0  0  0  0  0  0  0  0
    6.5085  -13.2717   25.6600 C   0  0  1  0  0  0  0  0  0  0  0  0
    7.4564  -12.6487   26.6554 C   0  0  0  0  0  0  0  0  0  0  0  0
    6.8315  -11.0269   27.1061 S   0  0  0  0  0  0  0  0  0  0  0  0
    7.1603  -14.4609   25.0473 C   0  0  0  0  0  0  0  0  0  0  0  0
    7.1412  -15.6043   25.5752 O   0  0  0  0  0  0  0  0  0  0  0  0
    7.8306  -14.2671   23.8042 N   0  0  0  0  0  0  0  0  0  0  0  0
    8.4402  -15.3579   23.0709 C   0  0  1  0  0  0  0  0  0  0  0  0
    8.8647  -14.9044   21.6849 C   0  0  0  0  0  0  0  0  0  0  0  0
    7.3661  -14.4780   20.7604 S   0  0  0  0  0  0  0  0  0  0  0  0
    9.6195  -15.8159   23.8637 C   0  0  0  0  0  0  0  0  0  0  0  0
   10.5325  -15.0156   24.2379 O   0  0  0  0  0  0  0  0  0  0  0  0
    9.5965  -19.3601   25.5482 O   0  0  0  0  0  0  0  0  0  0  0  0
   10.5751  -18.5289   26.0402 C   0  0  0  0  0  0  0  0  0  0  0  0
   11.0214  -17.6299   24.8776 C   0  0  2  0  0  0  0  0  0  0  0  0
    9.7927  -17.1736   24.2479 N   0  0  0  0  0  0  0  0  0  0  0  0
   11.8859  -18.3774   23.9694 C   0  0  0  0  0  0  0  0  0  0  0  0
   12.9726  -18.8342   24.3732 O   0  0  0  0  0  0  0  0  0  0  0  0
   11.5251  -18.5934   22.6588 O   0  0  0  0  0  0  0  0  0  0  0  0
  2  3  1  0
  2  1  1  1
  3  4  1  0
  5  6  2  0
  5  2  1  0
  7  5  1  0
  8  7  1  0
  9 10  1  0
  8  9  1  6
 11 12  2  0
 11  8  1  0
 13 14  1  0
 15 14  1  1
 15 16  1  0
 16 11  1  0
 17 15  1  0
 18 17  2  0
 19 17  1  0
M  END
$$$$
