CCS.pdb
     RDKit          3D

 19 18  0  0  1  0  0  0  0  0999 V2000
    8.1206  -13.9027   19.9703 N   0  0  0  0  0  0  0  0  0  0  0  0
    7.2841  -13.9275   21.1489 C   0  0  1  0  0  0  0  0  0  0  0  0
    6.3210  -15.0851   21.0498 C   0  0  0  0  0  0  0  0  0  0  0  0
    7.2434  -16.6158   21.2221 S   0  0  0  0  0  0  0  0  0  0  0  0
    8.0950  -14.0750   22.3880 C   0  0  0  0  0  0  0  0  0  0  0  0
    9.2978  -14.4483   22.3827 O   0  0  0  0  0  0  0  0  0  0  0  0
    7.4539  -13.7727   23.6249 N   0  0  0  0  0  0  0  0  0  0  0  0
    8.1410  -13.8554   24.8977 C   0  0  1  0  0  0  0  0  0  0  0  0
    7.4241  -13.0294   25.9515 C   0  0  0  0  0  0  0  0  0  0  0  0
    5.7454  -13.6889   26.1223 S   0  0  0  0  0  0  0  0  0  0  0  0
    8.1753  -15.2966   25.2860 C   0  0  0  0  0  0  0  0  0  0  0  0
    7.1854  -16.0700   25.0961 O   0  0  0  0  0  0  0  0  0  0  0  0
   11.3059  -17.4511   24.9953 O   0  0  0  0  0  0  0  0  0  0  0  0
   10.0508  -18.0055   25.0848 C   0  0  0  0  0  0  0  0  0  0  0  0
    9.3347  -17.3009   26.2466 C   0  0  2  0  0  0  0  0  0  0  0  0
    9.3160  -15.8910   25.8913 N   0  0  0  0  0  0  0  0  0  0  0  0
   10.0341  -17.5653   27.5004 C   0  0  0  0  0  0  0  0  0  0  0  0
   10.5096  -16.6233   28.1631 O   0  0  0  0  0  0  0  0  0  0  0  0
   10.1835  -18.8484   27.9757 O   0  0  0  0  0  0  0  0  0  0  0  0
  2  3  1  0
  2  1  1  6
  3  4  1  0
  5  6  2  0
  5  2  1  0
  7  5  1  0
  8  7  1  0
  9 10  1  0
  8  9  1  1
 11 12  2  0
 11  8  1  0
 13 14  1  0
 15 14  1  6
 15 16  1  0
 16 11  1  0
 17 15  1  0
 18 17  2  0
 19 17  1  0
M  END
$$$$
