CCS.pdb
     RDKit          3D

 19 18  0  0  1  0  0  0  0  0999 V2000
    5.8023  -19.8191   25.6515 N   0  0  0  0  0  0  0  0  0  0  0  0
    6.3615  -18.5103   25.3986 C   0  0  1  0  0  0  0  0  0  0  0  0
    7.7958  -18.4844   25.8673 C   0  0  0  0  0  0  0  0  0  0  0  0
    7.8124  -18.4154   27.6614 S   0  0  0  0  0  0  0  0  0  0  0  0
    6.3176  -18.1710   23.9503 C   0  0  0  0  0  0  0  0  0  0  0  0
    5.4605  -18.6447   23.1584 O   0  0  0  0  0  0  0  0  0  0  0  0
    7.3047  -17.2645   23.4643 N   0  0  0  0  0  0  0  0  0  0  0  0
    7.3111  -16.7805   22.0988 C   0  0  1  0  0  0  0  0  0  0  0  0
    6.9509  -15.3059   22.0483 C   0  0  0  0  0  0  0  0  0  0  0  0
    6.9624  -14.7939   20.3105 S   0  0  0  0  0  0  0  0  0  0  0  0
    8.6833  -17.0104   21.5572 C   0  0  0  0  0  0  0  0  0  0  0  0
    9.7049  -16.4297   22.0399 O   0  0  0  0  0  0  0  0  0  0  0  0
    9.1834  -19.1428   18.1702 O   0  0  0  0  0  0  0  0  0  0  0  0
   10.1860  -19.3640   19.0848 C   0  0  0  0  0  0  0  0  0  0  0  0
   10.2755  -18.1053   19.9603 C   0  0  2  0  0  0  0  0  0  0  0  0
    8.9304  -17.8920   20.4697 N   0  0  0  0  0  0  0  0  0  0  0  0
   10.7736  -16.9815   19.1728 C   0  0  0  0  0  0  0  0  0  0  0  0
   10.0305  -16.0127   18.9244 O   0  0  0  0  0  0  0  0  0  0  0  0
   12.0627  -16.9655   18.6907 O   0  0  0  0  0  0  0  0  0  0  0  0
  2  3  1  0
  2  1  1  6
  3  4  1  0
  5  6  2  0
  5  2  1  0
  7  5  1  0
  8  7  1  0
  9 10  1  0
  8  9  1  1
 11 12  2  0
 11  8  1  0
 13 14  1  0
 15 14  1  6
 15 16  1  0
 16 11  1  0
 17 15  1  0
 18 17  2  0
 19 17  1  0
M  END
$$$$
