YIA.pdb
     RDKit          3D

 26 26  0  0  1  0  0  0  0  0999 V2000
   26.1394  -23.7302  -15.9416 O   0  0  0  0  0  0  0  0  0  0  0  0
   25.0855  -23.4367  -15.1028 C   0  0  0  0  0  0  0  0  0  0  0  0
   24.4278  -24.4736  -14.4638 C   0  0  0  0  0  0  0  0  0  0  0  0
   23.3614  -24.1523  -13.6174 C   0  0  0  0  0  0  0  0  0  0  0  0
   22.9658  -22.8643  -13.4142 C   0  0  0  0  0  0  0  0  0  0  0  0
   21.8317  -22.5562  -12.5109 C   0  0  0  0  0  0  0  0  0  0  0  0
   20.5586  -23.0456  -13.2044 C   0  0  2  0  0  0  0  0  0  0  0  0
   20.3067  -22.2685  -14.3780 N   0  0  0  0  0  0  0  0  0  0  0  0
   19.4203  -22.9254  -12.2640 C   0  0  0  0  0  0  0  0  0  0  0  0
   18.5018  -22.0658  -12.4178 O   0  0  0  0  0  0  0  0  0  0  0  0
   23.6310  -21.8528  -14.0570 C   0  0  0  0  0  0  0  0  0  0  0  0
   24.7031  -22.1289  -14.9124 C   0  0  0  0  0  0  0  0  0  0  0  0
   16.1641  -26.6247  -10.7051 C   0  0  0  0  0  0  0  0  0  0  0  0
   17.1489  -25.8163  -11.5635 C   0  0  0  0  0  0  0  0  0  0  0  0
   17.0536  -24.3643  -11.2459 C   0  0  2  0  0  0  0  0  0  0  0  0
   16.8910  -23.5173  -12.4809 C   0  0  0  0  0  0  0  0  0  0  0  0
   18.1096  -23.8366  -10.3052 C   0  0  2  0  0  0  0  0  0  0  0  0
   19.3251  -23.7765  -11.1546 N   0  0  0  0  0  0  0  0  0  0  0  0
   18.3970  -24.7188   -9.1634 C   0  0  0  0  0  0  0  0  0  0  0  0
   19.1367  -25.7375   -9.3407 O   0  0  0  0  0  0  0  0  0  0  0  0
   18.2088  -24.6407   -5.4458 C   0  0  0  0  0  0  0  0  0  0  0  0
   18.2769  -25.3603   -6.7872 C   0  0  2  0  0  0  0  0  0  0  0  0
   17.8887  -24.4848   -7.8675 N   0  0  0  0  0  0  0  0  0  0  0  0
   17.3565  -26.5197   -6.7719 C   0  0  0  0  0  0  0  0  0  0  0  0
   17.7062  -27.6727   -6.0740 O   0  0  0  0  0  0  0  0  0  0  0  0
   16.2747  -26.4665   -7.3792 O   0  0  0  0  0  0  0  0  0  0  0  0
  2  1  1  0
  2  3  2  0
  4  3  1  0
  5  4  2  0
  6  5  1  0
  7  9  1  0
  7  6  1  0
  7  8  1  6
  9 18  1  0
  9 10  2  0
 11 12  2  0
 11  5  1  0
 12  2  1  0
 14 15  1  0
 14 13  1  0
 15 16  1  6
 17 15  1  0
 17 18  1  6
 19 23  1  0
 19 17  1  0
 20 19  2  0
 22 21  1  1
 22 24  1  0
 22 23  1  0
 24 25  1  0
 26 24  2  0
M  END
$$$$
