YIA.pdb
     RDKit          3D

 26 26  0  0  1  0  0  0  0  0999 V2000
   28.1478  -29.8658  -17.3920 O   0  0  0  0  0  0  0  0  0  0  0  0
   27.9400  -28.5667  -16.9800 C   0  0  0  0  0  0  0  0  0  0  0  0
   29.0343  -27.7797  -16.6647 C   0  0  0  0  0  0  0  0  0  0  0  0
   28.7996  -26.4649  -16.2491 C   0  0  0  0  0  0  0  0  0  0  0  0
   27.5401  -25.9543  -16.1507 C   0  0  0  0  0  0  0  0  0  0  0  0
   27.3242  -24.5566  -15.7070 C   0  0  0  0  0  0  0  0  0  0  0  0
   27.0627  -23.7216  -16.9623 C   0  0  2  0  0  0  0  0  0  0  0  0
   28.2904  -23.4675  -17.6498 N   0  0  0  0  0  0  0  0  0  0  0  0
   26.4297  -22.4419  -16.5672 C   0  0  0  0  0  0  0  0  0  0  0  0
   27.1017  -21.4588  -16.1333 O   0  0  0  0  0  0  0  0  0  0  0  0
   26.4708  -26.7510  -16.4678 C   0  0  0  0  0  0  0  0  0  0  0  0
   26.6595  -28.0721  -16.8880 C   0  0  0  0  0  0  0  0  0  0  0  0
   24.6115  -19.3808  -19.7510 C   0  0  0  0  0  0  0  0  0  0  0  0
   25.1201  -19.9666  -18.4250 C   0  0  0  0  0  0  0  0  0  0  0  0
   23.9796  -20.3880  -17.5648 C   0  0  2  0  0  0  0  0  0  0  0  0
   22.9456  -19.3033  -17.4127 C   0  0  0  0  0  0  0  0  0  0  0  0
   24.3606  -21.0263  -16.2511 C   0  0  2  0  0  0  0  0  0  0  0  0
   25.0411  -22.2789  -16.6641 N   0  0  0  0  0  0  0  0  0  0  0  0
   23.2158  -21.3905  -15.4018 C   0  0  0  0  0  0  0  0  0  0  0  0
   22.3738  -22.2408  -15.8313 O   0  0  0  0  0  0  0  0  0  0  0  0
   21.8583  -20.6569  -11.9657 C   0  0  0  0  0  0  0  0  0  0  0  0
   21.7902  -21.1480  -13.4066 C   0  0  2  0  0  0  0  0  0  0  0  0
   23.0068  -20.8386  -14.1196 N   0  0  0  0  0  0  0  0  0  0  0  0
   20.6615  -20.4870  -14.0998 C   0  0  0  0  0  0  0  0  0  0  0  0
   19.3701  -20.9864  -13.9527 O   0  0  0  0  0  0  0  0  0  0  0  0
   20.8634  -19.4895  -14.8113 O   0  0  0  0  0  0  0  0  0  0  0  0
  2  1  1  0
  2  3  2  0
  4  3  1  0
  5  4  2  0
  6  5  1  0
  7  9  1  0
  7  6  1  0
  7  8  1  1
  9 18  1  0
  9 10  2  0
 11 12  2  0
 11  5  1  0
 12  2  1  0
 14 15  1  0
 14 13  1  0
 15 16  1  1
 17 15  1  0
 17 18  1  6
 19 23  1  0
 19 17  1  0
 20 19  2  0
 22 21  1  1
 22 24  1  0
 22 23  1  0
 24 25  1  0
 26 24  2  0
M  END
$$$$
