YIA.pdb
     RDKit          3D

 26 26  0  0  1  0  0  0  0  0999 V2000
   31.3307  -10.3549  -18.3358 O   0  0  0  0  0  0  0  0  0  0  0  0
   29.9708  -10.1284  -18.3452 C   0  0  0  0  0  0  0  0  0  0  0  0
   29.2402  -10.4782  -19.4677 C   0  0  0  0  0  0  0  0  0  0  0  0
   27.8621  -10.2394  -19.4549 C   0  0  0  0  0  0  0  0  0  0  0  0
   27.2377   -9.6803  -18.3805 C   0  0  0  0  0  0  0  0  0  0  0  0
   25.7752   -9.4398  -18.3976 C   0  0  0  0  0  0  0  0  0  0  0  0
   25.1177  -10.6147  -17.6704 C   0  0  2  0  0  0  0  0  0  0  0  0
   25.1739  -11.7905  -18.4822 N   0  0  0  0  0  0  0  0  0  0  0  0
   23.7074  -10.2707  -17.3750 C   0  0  0  0  0  0  0  0  0  0  0  0
   22.7392  -10.7537  -18.0351 O   0  0  0  0  0  0  0  0  0  0  0  0
   27.9802   -9.3416  -17.2793 C   0  0  0  0  0  0  0  0  0  0  0  0
   29.3614   -9.5628  -17.2491 C   0  0  0  0  0  0  0  0  0  0  0  0
   22.3121  -10.8290  -12.5530 C   0  0  0  0  0  0  0  0  0  0  0  0
   22.2050  -10.7178  -14.0816 C   0  0  0  0  0  0  0  0  0  0  0  0
   21.9489   -9.3083  -14.4891 C   0  0  2  0  0  0  0  0  0  0  0  0
   20.7203   -8.7362  -13.8317 C   0  0  0  0  0  0  0  0  0  0  0  0
   21.9984   -9.0447  -15.9746 C   0  0  2  0  0  0  0  0  0  0  0  0
   23.3976   -9.3831  -16.3356 N   0  0  0  0  0  0  0  0  0  0  0  0
   21.7602   -7.6415  -16.3474 C   0  0  0  0  0  0  0  0  0  0  0  0
   22.4584   -6.7302  -15.8013 O   0  0  0  0  0  0  0  0  0  0  0  0
   19.6929   -5.6494  -18.7827 C   0  0  0  0  0  0  0  0  0  0  0  0
   20.5748   -5.8513  -17.5566 C   0  0  2  0  0  0  0  0  0  0  0  0
   20.7867   -7.2549  -17.2936 N   0  0  0  0  0  0  0  0  0  0  0  0
   19.9201   -5.2480  -16.3738 C   0  0  0  0  0  0  0  0  0  0  0  0
   20.1322   -3.9049  -16.0743 O   0  0  0  0  0  0  0  0  0  0  0  0
   19.1831   -5.9362  -15.6490 O   0  0  0  0  0  0  0  0  0  0  0  0
  2  1  1  0
  2  3  2  0
  4  3  1  0
  5  4  2  0
  6  5  1  0
  7  9  1  0
  7  6  1  0
  7  8  1  6
  9 18  1  0
  9 10  2  0
 11 12  2  0
 11  5  1  0
 12  2  1  0
 14 15  1  0
 14 13  1  0
 15 16  1  6
 17 15  1  0
 17 18  1  1
 19 23  1  0
 19 17  1  0
 20 19  2  0
 22 21  1  6
 22 24  1  0
 22 23  1  0
 24 25  1  0
 26 24  2  0
M  END
$$$$
