YIA.pdb
     RDKit          3D

 26 26  0  0  1  0  0  0  0  0999 V2000
   16.6833  -15.2141  -16.9462 O   0  0  0  0  0  0  0  0  0  0  0  0
   16.8907  -13.9260  -16.5007 C   0  0  0  0  0  0  0  0  0  0  0  0
   16.6051  -12.8691  -17.3477 C   0  0  0  0  0  0  0  0  0  0  0  0
   16.8232  -11.5709  -16.8745 C   0  0  0  0  0  0  0  0  0  0  0  0
   17.3017  -11.3319  -15.6212 C   0  0  0  0  0  0  0  0  0  0  0  0
   17.5222   -9.9443  -15.1489 C   0  0  0  0  0  0  0  0  0  0  0  0
   18.7838   -9.4278  -15.8439 C   0  0  2  0  0  0  0  0  0  0  0  0
   19.9399  -10.0859  -15.3195 N   0  0  0  0  0  0  0  0  0  0  0  0
   18.8908   -7.9665  -15.6258 C   0  0  0  0  0  0  0  0  0  0  0  0
   19.4925   -7.4727  -14.6255 O   0  0  0  0  0  0  0  0  0  0  0  0
   17.5778  -12.3932  -14.7989 C   0  0  0  0  0  0  0  0  0  0  0  0
   17.3745  -13.7082  -15.2313 C   0  0  0  0  0  0  0  0  0  0  0  0
   20.2123   -3.0409  -18.0632 C   0  0  0  0  0  0  0  0  0  0  0  0
   18.8138   -3.6712  -17.9777 C   0  0  0  0  0  0  0  0  0  0  0  0
   18.9122   -5.1366  -17.7305 C   0  0  2  0  0  0  0  0  0  0  0  0
   18.3459   -5.9484  -18.8660 C   0  0  0  0  0  0  0  0  0  0  0  0
   18.4278   -5.5990  -16.3777 C   0  0  2  0  0  0  0  0  0  0  0  0
   18.3178   -7.0703  -16.5383 N   0  0  0  0  0  0  0  0  0  0  0  0
   17.1021   -5.0832  -16.0019 C   0  0  0  0  0  0  0  0  0  0  0  0
   16.0886   -5.4257  -16.6889 O   0  0  0  0  0  0  0  0  0  0  0  0
   15.2981   -3.8620  -13.0865 C   0  0  0  0  0  0  0  0  0  0  0  0
   15.5599   -3.7842  -14.5856 C   0  0  2  0  0  0  0  0  0  0  0  0
   16.8988   -4.2208  -14.9031 N   0  0  0  0  0  0  0  0  0  0  0  0
   15.4048   -2.3841  -15.0410 C   0  0  0  0  0  0  0  0  0  0  0  0
   14.1330   -1.8279  -15.1501 O   0  0  0  0  0  0  0  0  0  0  0  0
   16.4050   -1.7054  -15.3256 O   0  0  0  0  0  0  0  0  0  0  0  0
  2  1  1  0
  2  3  2  0
  4  3  1  0
  5  4  2  0
  6  5  1  0
  7  9  1  0
  7  6  1  0
  7  8  1  1
  9 18  1  0
  9 10  2  0
 11 12  2  0
 11  5  1  0
 12  2  1  0
 14 15  1  0
 14 13  1  0
 15 16  1  6
 17 15  1  0
 17 18  1  6
 19 23  1  0
 19 17  1  0
 20 19  2  0
 22 21  1  1
 22 24  1  0
 22 23  1  0
 24 25  1  0
 26 24  2  0
M  END
$$$$
