YIA.pdb
     RDKit          3D

 26 26  0  0  1  0  0  0  0  0999 V2000
   20.5368  -12.4396  -25.1472 O   0  0  0  0  0  0  0  0  0  0  0  0
   20.1464  -11.9753  -23.9092 C   0  0  0  0  0  0  0  0  0  0  0  0
   21.0641  -11.2946  -23.1280 C   0  0  0  0  0  0  0  0  0  0  0  0
   20.6460  -10.8327  -21.8756 C   0  0  0  0  0  0  0  0  0  0  0  0
   19.3782  -11.0359  -21.4193 C   0  0  0  0  0  0  0  0  0  0  0  0
   18.9654  -10.5339  -20.0872 C   0  0  0  0  0  0  0  0  0  0  0  0
   19.7547  -11.3270  -19.0434 C   0  0  2  0  0  0  0  0  0  0  0  0
   19.2230  -12.6489  -18.9233 N   0  0  0  0  0  0  0  0  0  0  0  0
   19.6700  -10.6271  -17.7405 C   0  0  0  0  0  0  0  0  0  0  0  0
   18.7484  -10.8631  -16.9030 O   0  0  0  0  0  0  0  0  0  0  0  0
   18.4854  -11.7125  -22.2092 C   0  0  0  0  0  0  0  0  0  0  0  0
   18.8612  -12.1920  -23.4687 C   0  0  0  0  0  0  0  0  0  0  0  0
   23.6363  -10.9548  -14.7633 C   0  0  0  0  0  0  0  0  0  0  0  0
   22.2167  -10.7389  -15.3097 C   0  0  0  0  0  0  0  0  0  0  0  0
   21.9330   -9.2863  -15.4761 C   0  0  2  0  0  0  0  0  0  0  0  0
   22.2182   -8.4999  -14.2234 C   0  0  0  0  0  0  0  0  0  0  0  0
   20.5935   -8.9541  -16.0873 C   0  0  2  0  0  0  0  0  0  0  0  0
   20.6263   -9.6645  -17.3900 N   0  0  0  0  0  0  0  0  0  0  0  0
   20.3907   -7.5219  -16.3565 C   0  0  0  0  0  0  0  0  0  0  0  0
   21.2721   -6.8866  -17.0167 O   0  0  0  0  0  0  0  0  0  0  0  0
   17.7372   -4.8911  -15.8850 C   0  0  0  0  0  0  0  0  0  0  0  0
   19.1276   -5.4099  -16.2308 C   0  0  2  0  0  0  0  0  0  0  0  0
   19.2524   -6.8132  -15.9157 N   0  0  0  0  0  0  0  0  0  0  0  0
   20.1403   -4.6639  -15.4500 C   0  0  0  0  0  0  0  0  0  0  0  0
   20.6238   -3.4478  -15.9253 O   0  0  0  0  0  0  0  0  0  0  0  0
   20.5591   -5.1197  -14.3734 O   0  0  0  0  0  0  0  0  0  0  0  0
  2  1  1  0
  2  3  2  0
  4  3  1  0
  5  4  2  0
  6  5  1  0
  7  9  1  0
  7  6  1  0
  7  8  1  1
  9 18  1  0
  9 10  2  0
 11 12  2  0
 11  5  1  0
 12  2  1  0
 14 15  1  0
 14 13  1  0
 15 16  1  1
 17 15  1  0
 17 18  1  6
 19 23  1  0
 19 17  1  0
 20 19  2  0
 22 21  1  1
 22 24  1  0
 22 23  1  0
 24 25  1  0
 26 24  2  0
M  END
$$$$
