YIA.pdb
     RDKit          3D

 26 26  0  0  1  0  0  0  0  0999 V2000
   24.0258  -20.8663   -6.4819 O   0  0  0  0  0  0  0  0  0  0  0  0
   24.1673  -20.6923   -7.8422 C   0  0  0  0  0  0  0  0  0  0  0  0
   25.3273  -20.1133   -8.3274 C   0  0  0  0  0  0  0  0  0  0  0  0
   25.4490  -19.9466   -9.7109 C   0  0  0  0  0  0  0  0  0  0  0  0
   24.4676  -20.3353  -10.5725 C   0  0  0  0  0  0  0  0  0  0  0  0
   24.6265  -20.1451  -12.0338 C   0  0  0  0  0  0  0  0  0  0  0  0
   25.1857  -21.4524  -12.5994 C   0  0  2  0  0  0  0  0  0  0  0  0
   26.5637  -21.5934  -12.2443 N   0  0  0  0  0  0  0  0  0  0  0  0
   25.0417  -21.4408  -14.0737 C   0  0  0  0  0  0  0  0  0  0  0  0
   25.6388  -20.5965  -14.8065 O   0  0  0  0  0  0  0  0  0  0  0  0
   23.3272  -20.9066  -10.0706 C   0  0  0  0  0  0  0  0  0  0  0  0
   23.1634  -21.0923   -8.6936 C   0  0  0  0  0  0  0  0  0  0  0  0
   26.6697  -25.3385  -16.4113 C   0  0  0  0  0  0  0  0  0  0  0  0
   26.1717  -23.9088  -16.1497 C   0  0  0  0  0  0  0  0  0  0  0  0
   24.7392  -23.7728  -16.5338 C   0  0  2  0  0  0  0  0  0  0  0  0
   24.4850  -24.1960  -17.9569 C   0  0  0  0  0  0  0  0  0  0  0  0
   24.0995  -22.4494  -16.1903 C   0  0  2  0  0  0  0  0  0  0  0  0
   24.2240  -22.3826  -14.7129 N   0  0  0  0  0  0  0  0  0  0  0  0
   22.6706  -22.3629  -16.5296 C   0  0  0  0  0  0  0  0  0  0  0  0
   21.8502  -23.1443  -15.9527 O   0  0  0  0  0  0  0  0  0  0  0  0
   20.3125  -20.0315  -18.2336 C   0  0  0  0  0  0  0  0  0  0  0  0
   20.7398  -21.4014  -17.7212 C   0  0  2  0  0  0  0  0  0  0  0  0
   22.1611  -21.4432  -17.4715 N   0  0  0  0  0  0  0  0  0  0  0  0
   20.4130  -22.4305  -18.7341 C   0  0  0  0  0  0  0  0  0  0  0  0
   19.1013  -22.8770  -18.8698 O   0  0  0  0  0  0  0  0  0  0  0  0
   21.3050  -22.8958  -19.4620 O   0  0  0  0  0  0  0  0  0  0  0  0
  2  1  1  0
  2  3  2  0
  4  3  1  0
  5  4  2  0
  6  5  1  0
  7  9  1  0
  7  6  1  0
  7  8  1  6
  9 18  1  0
  9 10  2  0
 11 12  2  0
 11  5  1  0
 12  2  1  0
 14 15  1  0
 14 13  1  0
 15 16  1  6
 17 15  1  0
 17 18  1  1
 19 23  1  0
 19 17  1  0
 20 19  2  0
 22 21  1  6
 22 24  1  0
 22 23  1  0
 24 25  1  0
 26 24  2  0
M  END
$$$$
