YIA.pdb
     RDKit          3D

 26 26  0  0  1  0  0  0  0  0999 V2000
   20.1011  -22.8170   -7.8142 O   0  0  0  0  0  0  0  0  0  0  0  0
   21.1092  -22.0752   -8.3920 C   0  0  0  0  0  0  0  0  0  0  0  0
   21.0946  -21.8753   -9.7616 C   0  0  0  0  0  0  0  0  0  0  0  0
   22.1274  -21.1195  -10.3260 C   0  0  0  0  0  0  0  0  0  0  0  0
   23.1273  -20.5870   -9.5688 C   0  0  0  0  0  0  0  0  0  0  0  0
   24.2080  -19.7904  -10.1968 C   0  0  0  0  0  0  0  0  0  0  0  0
   25.0567  -20.7578  -11.0247 C   0  0  2  0  0  0  0  0  0  0  0  0
   25.8459  -21.5823  -10.1633 N   0  0  0  0  0  0  0  0  0  0  0  0
   25.9375  -19.9777  -11.9249 C   0  0  0  0  0  0  0  0  0  0  0  0
   26.8960  -19.2714  -11.4904 O   0  0  0  0  0  0  0  0  0  0  0  0
   23.1225  -20.7972   -8.2143 C   0  0  0  0  0  0  0  0  0  0  0  0
   22.1088  -21.5471   -7.6079 C   0  0  0  0  0  0  0  0  0  0  0  0
   28.5891  -22.3117  -15.3954 C   0  0  0  0  0  0  0  0  0  0  0  0
   27.9758  -21.3124  -14.4027 C   0  0  0  0  0  0  0  0  0  0  0  0
   27.2005  -20.2646  -15.1233 C   0  0  2  0  0  0  0  0  0  0  0  0
   27.9643  -19.6839  -16.2845 C   0  0  0  0  0  0  0  0  0  0  0  0
   26.5687  -19.2096  -14.2479 C   0  0  2  0  0  0  0  0  0  0  0  0
   25.7313  -19.9992  -13.3110 N   0  0  0  0  0  0  0  0  0  0  0  0
   25.6880  -18.2759  -14.9670 C   0  0  0  0  0  0  0  0  0  0  0  0
   24.6638  -18.7309  -15.5674 O   0  0  0  0  0  0  0  0  0  0  0  0
   25.3103  -14.5618  -15.4819 C   0  0  0  0  0  0  0  0  0  0  0  0
   24.9841  -16.0332  -15.7066 C   0  0  2  0  0  0  0  0  0  0  0  0
   25.9257  -16.8855  -15.0203 N   0  0  0  0  0  0  0  0  0  0  0  0
   25.0482  -16.3368  -17.1542 C   0  0  0  0  0  0  0  0  0  0  0  0
   23.9369  -16.1051  -17.9605 O   0  0  0  0  0  0  0  0  0  0  0  0
   26.0894  -16.7969  -17.6504 O   0  0  0  0  0  0  0  0  0  0  0  0
  2  1  1  0
  2  3  2  0
  4  3  1  0
  5  4  2  0
  6  5  1  0
  7  9  1  0
  7  6  1  0
  7  8  1  1
  9 18  1  0
  9 10  2  0
 11 12  2  0
 11  5  1  0
 12  2  1  0
 14 15  1  0
 14 13  1  0
 15 16  1  6
 17 15  1  0
 17 18  1  1
 19 23  1  0
 19 17  1  0
 20 19  2  0
 22 21  1  6
 22 24  1  0
 22 23  1  0
 24 25  1  0
 26 24  2  0
M  END
$$$$
