YIA.pdb
     RDKit          3D

 26 26  0  0  1  0  0  0  0  0999 V2000
   29.3758  -14.0865  -17.1692 O   0  0  0  0  0  0  0  0  0  0  0  0
   28.6573  -15.1990  -16.7861 C   0  0  0  0  0  0  0  0  0  0  0  0
   28.5636  -16.2701  -17.6579 C   0  0  0  0  0  0  0  0  0  0  0  0
   27.8296  -17.3881  -17.2481 C   0  0  0  0  0  0  0  0  0  0  0  0
   27.2175  -17.4418  -16.0319 C   0  0  0  0  0  0  0  0  0  0  0  0
   26.4466  -18.6412  -15.6266 C   0  0  0  0  0  0  0  0  0  0  0  0
   27.3402  -19.4539  -14.6872 C   0  0  2  0  0  0  0  0  0  0  0  0
   28.3755  -20.1024  -15.4302 N   0  0  0  0  0  0  0  0  0  0  0  0
   26.5120  -20.4629  -13.9867 C   0  0  0  0  0  0  0  0  0  0  0  0
   26.4006  -21.6551  -14.4022 O   0  0  0  0  0  0  0  0  0  0  0  0
   27.3231  -16.3700  -15.1841 C   0  0  0  0  0  0  0  0  0  0  0  0
   28.0474  -15.2314  -15.5533 C   0  0  0  0  0  0  0  0  0  0  0  0
   26.5715  -20.4609   -8.6841 C   0  0  0  0  0  0  0  0  0  0  0  0
   26.4788  -20.9293  -10.1444 C   0  0  0  0  0  0  0  0  0  0  0  0
   25.0988  -20.7378  -10.6710 C   0  0  2  0  0  0  0  0  0  0  0  0
   24.0552  -21.3651   -9.7842 C   0  0  0  0  0  0  0  0  0  0  0  0
   24.9103  -21.0741  -12.1304 C   0  0  2  0  0  0  0  0  0  0  0  0
   25.8140  -20.1204  -12.8206 N   0  0  0  0  0  0  0  0  0  0  0  0
   23.5452  -20.8489  -12.6308 C   0  0  0  0  0  0  0  0  0  0  0  0
   23.0622  -19.6732  -12.6002 O   0  0  0  0  0  0  0  0  0  0  0  0
   21.0175  -22.5562  -14.7558 C   0  0  0  0  0  0  0  0  0  0  0  0
   21.4309  -21.5678  -13.6723 C   0  0  2  0  0  0  0  0  0  0  0  0
   22.7394  -21.8844  -13.1513 N   0  0  0  0  0  0  0  0  0  0  0  0
   20.4583  -21.6231  -12.5576 C   0  0  0  0  0  0  0  0  0  0  0  0
   19.2351  -20.9679  -12.6722 O   0  0  0  0  0  0  0  0  0  0  0  0
   20.7305  -22.2517  -11.5218 O   0  0  0  0  0  0  0  0  0  0  0  0
  2  1  1  0
  2  3  2  0
  4  3  1  0
  5  4  2  0
  6  5  1  0
  7  9  1  0
  7  6  1  0
  7  8  1  6
  9 18  1  0
  9 10  2  0
 11 12  2  0
 11  5  1  0
 12  2  1  0
 14 15  1  0
 14 13  1  0
 15 16  1  1
 17 15  1  0
 17 18  1  6
 19 23  1  0
 19 17  1  0
 20 19  2  0
 22 21  1  6
 22 24  1  0
 22 23  1  0
 24 25  1  0
 26 24  2  0
M  END
$$$$
