YIA.pdb
     RDKit          3D

 26 26  0  0  1  0  0  0  0  0999 V2000
   28.4836  -19.4384   -5.6207 O   0  0  0  0  0  0  0  0  0  0  0  0
   28.0557  -19.6299   -6.9172 C   0  0  0  0  0  0  0  0  0  0  0  0
   26.7762  -19.2339   -7.2667 C   0  0  0  0  0  0  0  0  0  0  0  0
   26.3636  -19.4379   -8.5876 C   0  0  0  0  0  0  0  0  0  0  0  0
   27.1804  -20.0073   -9.5178 C   0  0  0  0  0  0  0  0  0  0  0  0
   26.7136  -20.2100  -10.9100 C   0  0  0  0  0  0  0  0  0  0  0  0
   25.7357  -21.3868  -10.8895 C   0  0  2  0  0  0  0  0  0  0  0  0
   26.4522  -22.6216  -10.8081 N   0  0  0  0  0  0  0  0  0  0  0  0
   24.9185  -21.3565  -12.1247 C   0  0  0  0  0  0  0  0  0  0  0  0
   25.3433  -21.8091  -13.2298 O   0  0  0  0  0  0  0  0  0  0  0  0
   28.4435  -20.3920   -9.1502 C   0  0  0  0  0  0  0  0  0  0  0  0
   28.8975  -20.2068   -7.8398 C   0  0  0  0  0  0  0  0  0  0  0  0
   19.9655  -22.9545  -11.5838 C   0  0  0  0  0  0  0  0  0  0  0  0
   21.3707  -22.6320  -12.1148 C   0  0  0  0  0  0  0  0  0  0  0  0
   21.4050  -21.2704  -12.7173 C   0  0  2  0  0  0  0  0  0  0  0  0
   20.2556  -21.0326  -13.6613 C   0  0  0  0  0  0  0  0  0  0  0  0
   22.7357  -20.8504  -13.2928 C   0  0  2  0  0  0  0  0  0  0  0  0
   23.6259  -20.8151  -12.1058 N   0  0  0  0  0  0  0  0  0  0  0  0
   22.7355  -19.5102  -13.8999 C   0  0  0  0  0  0  0  0  0  0  0  0
   22.4257  -18.5072  -13.1827 O   0  0  0  0  0  0  0  0  0  0  0  0
   23.8184  -17.8201  -17.0670 C   0  0  0  0  0  0  0  0  0  0  0  0
   23.0187  -17.9371  -15.7753 C   0  0  2  0  0  0  0  0  0  0  0  0
   23.0691  -19.2817  -15.2523 N   0  0  0  0  0  0  0  0  0  0  0  0
   21.6035  -17.5910  -16.0386 C   0  0  0  0  0  0  0  0  0  0  0  0
   21.2012  -16.2582  -16.0196 O   0  0  0  0  0  0  0  0  0  0  0  0
   20.7756  -18.4855  -16.2761 O   0  0  0  0  0  0  0  0  0  0  0  0
  2  1  1  0
  2  3  2  0
  4  3  1  0
  5  4  2  0
  6  5  1  0
  7  9  1  0
  7  6  1  0
  7  8  1  6
  9 18  1  0
  9 10  2  0
 11 12  2  0
 11  5  1  0
 12  2  1  0
 14 15  1  0
 14 13  1  0
 15 16  1  6
 17 15  1  0
 17 18  1  1
 19 23  1  0
 19 17  1  0
 20 19  2  0
 22 21  1  6
 22 24  1  0
 22 23  1  0
 24 25  1  0
 26 24  2  0
M  END
$$$$
