YIA.pdb
     RDKit          3D

 26 26  0  0  1  0  0  0  0  0999 V2000
   30.9171  -31.5446  -18.1731 O   0  0  0  0  0  0  0  0  0  0  0  0
   29.8150  -31.6680  -17.3542 C   0  0  0  0  0  0  0  0  0  0  0  0
   29.9484  -32.3278  -16.1447 C   0  0  0  0  0  0  0  0  0  0  0  0
   28.8170  -32.4410  -15.3300 C   0  0  0  0  0  0  0  0  0  0  0  0
   27.6105  -31.9247  -15.6969 C   0  0  0  0  0  0  0  0  0  0  0  0
   26.4298  -32.0611  -14.8113 C   0  0  0  0  0  0  0  0  0  0  0  0
   25.8875  -33.4795  -15.0002 C   0  0  2  0  0  0  0  0  0  0  0  0
   25.1194  -33.5573  -16.2038 N   0  0  0  0  0  0  0  0  0  0  0  0
   25.0412  -33.8313  -13.8363 C   0  0  0  0  0  0  0  0  0  0  0  0
   23.7844  -33.9670  -13.9283 O   0  0  0  0  0  0  0  0  0  0  0  0
   27.5006  -31.2752  -16.8989 C   0  0  0  0  0  0  0  0  0  0  0  0
   28.6066  -31.1389  -17.7449 C   0  0  0  0  0  0  0  0  0  0  0  0
   23.5956  -37.8897  -12.5519 C   0  0  0  0  0  0  0  0  0  0  0  0
   23.6476  -36.3551  -12.5006 C   0  0  0  0  0  0  0  0  0  0  0  0
   24.6676  -35.8965  -11.5169 C   0  0  2  0  0  0  0  0  0  0  0  0
   24.5356  -36.5933  -10.1880 C   0  0  0  0  0  0  0  0  0  0  0  0
   24.8128  -34.3999  -11.3848 C   0  0  2  0  0  0  0  0  0  0  0  0
   25.6185  -34.0281  -12.5744 N   0  0  0  0  0  0  0  0  0  0  0  0
   25.5477  -33.9676  -10.1858 C   0  0  0  0  0  0  0  0  0  0  0  0
   26.7035  -34.4483   -9.9630 O   0  0  0  0  0  0  0  0  0  0  0  0
   25.2635  -31.4604   -7.4036 C   0  0  0  0  0  0  0  0  0  0  0  0
   25.7728  -32.7360   -8.0635 C   0  0  2  0  0  0  0  0  0  0  0  0
   25.0281  -33.0337   -9.2638 N   0  0  0  0  0  0  0  0  0  0  0  0
   25.6200  -33.8710   -7.1254 C   0  0  0  0  0  0  0  0  0  0  0  0
   26.5217  -34.0289   -6.0763 O   0  0  0  0  0  0  0  0  0  0  0  0
   24.6908  -34.6817   -7.2719 O   0  0  0  0  0  0  0  0  0  0  0  0
  2  1  1  0
  2  3  2  0
  4  3  1  0
  5  4  2  0
  6  5  1  0
  7  9  1  0
  7  6  1  0
  7  8  1  6
  9 18  1  0
  9 10  2  0
 11 12  2  0
 11  5  1  0
 12  2  1  0
 14 15  1  0
 14 13  1  0
 15 16  1  1
 17 15  1  0
 17 18  1  6
 19 23  1  0
 19 17  1  0
 20 19  2  0
 22 21  1  1
 22 24  1  0
 22 23  1  0
 24 25  1  0
 26 24  2  0
M  END
$$$$
