YIA.pdb
     RDKit          3D

 26 26  0  0  1  0  0  0  0  0999 V2000
   29.5182  -15.1872  -19.1774 O   0  0  0  0  0  0  0  0  0  0  0  0
   28.7598  -15.6102  -18.1066 C   0  0  0  0  0  0  0  0  0  0  0  0
   27.6206  -14.9000  -17.7691 C   0  0  0  0  0  0  0  0  0  0  0  0
   26.8667  -15.3474  -16.6791 C   0  0  0  0  0  0  0  0  0  0  0  0
   27.2249  -16.4467  -15.9580 C   0  0  0  0  0  0  0  0  0  0  0  0
   26.4048  -16.8957  -14.8079 C   0  0  0  0  0  0  0  0  0  0  0  0
   25.8186  -18.2596  -15.1788 C   0  0  2  0  0  0  0  0  0  0  0  0
   24.8195  -18.1081  -16.1905 N   0  0  0  0  0  0  0  0  0  0  0  0
   25.2245  -18.8744  -13.9690 C   0  0  0  0  0  0  0  0  0  0  0  0
   24.0843  -18.5393  -13.5286 O   0  0  0  0  0  0  0  0  0  0  0  0
   28.3567  -17.1352  -16.3095 C   0  0  0  0  0  0  0  0  0  0  0  0
   29.1405  -16.7229  -17.3927 C   0  0  0  0  0  0  0  0  0  0  0  0
   24.3405  -23.7564  -13.9764 C   0  0  0  0  0  0  0  0  0  0  0  0
   24.3583  -22.2560  -13.6465 C   0  0  0  0  0  0  0  0  0  0  0  0
   25.2601  -21.9823  -12.4932 C   0  0  2  0  0  0  0  0  0  0  0  0
   25.0142  -22.9184  -11.3390 C   0  0  0  0  0  0  0  0  0  0  0  0
   25.3487  -20.5362  -12.0695 C   0  0  2  0  0  0  0  0  0  0  0  0
   25.9210  -19.8646  -13.2628 N   0  0  0  0  0  0  0  0  0  0  0  0
   26.2530  -20.2934  -10.9347 C   0  0  0  0  0  0  0  0  0  0  0  0
   27.4495  -20.7188  -10.9963 O   0  0  0  0  0  0  0  0  0  0  0  0
   26.5117  -18.2979   -7.8068 C   0  0  0  0  0  0  0  0  0  0  0  0
   26.7436  -19.5555   -8.6354 C   0  0  2  0  0  0  0  0  0  0  0  0
   25.8534  -19.6016   -9.7710 N   0  0  0  0  0  0  0  0  0  0  0  0
   26.4946  -20.7505   -7.7978 C   0  0  0  0  0  0  0  0  0  0  0  0
   27.3586  -21.0536   -6.7489 O   0  0  0  0  0  0  0  0  0  0  0  0
   25.5182  -21.4823   -8.0282 O   0  0  0  0  0  0  0  0  0  0  0  0
  2  1  1  0
  2  3  2  0
  4  3  1  0
  5  4  2  0
  6  5  1  0
  7  9  1  0
  7  6  1  0
  7  8  1  6
  9 18  1  0
  9 10  2  0
 11 12  2  0
 11  5  1  0
 12  2  1  0
 14 15  1  0
 14 13  1  0
 15 16  1  1
 17 15  1  0
 17 18  1  6
 19 23  1  0
 19 17  1  0
 20 19  2  0
 22 21  1  1
 22 24  1  0
 22 23  1  0
 24 25  1  0
 26 24  2  0
M  END
$$$$
