YIA.pdb
     RDKit          3D

 26 26  0  0  1  0  0  0  0  0999 V2000
   30.3828  -32.5515  -21.8163 O   0  0  0  0  0  0  0  0  0  0  0  0
   29.7672  -31.7192  -20.9059 C   0  0  0  0  0  0  0  0  0  0  0  0
   29.4496  -32.2136  -19.6526 C   0  0  0  0  0  0  0  0  0  0  0  0
   28.8254  -31.3512  -18.7452 C   0  0  0  0  0  0  0  0  0  0  0  0
   28.5301  -30.0600  -19.0650 C   0  0  0  0  0  0  0  0  0  0  0  0
   27.8681  -29.1708  -18.0811 C   0  0  0  0  0  0  0  0  0  0  0  0
   28.9649  -28.3269  -17.4283 C   0  0  2  0  0  0  0  0  0  0  0  0
   29.7551  -29.1366  -16.5539 N   0  0  0  0  0  0  0  0  0  0  0  0
   28.3353  -27.2240  -16.6656 C   0  0  0  0  0  0  0  0  0  0  0  0
   28.2260  -27.2491  -15.4031 O   0  0  0  0  0  0  0  0  0  0  0  0
   28.8533  -29.5909  -20.3116 C   0  0  0  0  0  0  0  0  0  0  0  0
   29.4783  -30.4189  -21.2504 C   0  0  0  0  0  0  0  0  0  0  0  0
   30.3739  -22.7228  -17.5556 C   0  0  0  0  0  0  0  0  0  0  0  0
   29.6237  -23.9003  -16.9145 C   0  0  0  0  0  0  0  0  0  0  0  0
   28.1580  -23.7803  -17.1500 C   0  0  2  0  0  0  0  0  0  0  0  0
   27.6269  -22.4216  -16.7747 C   0  0  0  0  0  0  0  0  0  0  0  0
   27.3198  -24.9110  -16.6046 C   0  0  2  0  0  0  0  0  0  0  0  0
   27.8323  -26.0985  -17.3323 N   0  0  0  0  0  0  0  0  0  0  0  0
   25.8817  -24.7893  -16.8903 C   0  0  0  0  0  0  0  0  0  0  0  0
   25.4878  -24.8140  -18.0989 O   0  0  0  0  0  0  0  0  0  0  0  0
   22.6359  -25.3034  -15.2474 C   0  0  0  0  0  0  0  0  0  0  0  0
   23.5152  -24.5579  -16.2439 C   0  0  2  0  0  0  0  0  0  0  0  0
   24.9086  -24.6485  -15.8776 N   0  0  0  0  0  0  0  0  0  0  0  0
   23.1303  -23.1286  -16.2679 C   0  0  0  0  0  0  0  0  0  0  0  0
   21.9501  -22.7394  -16.8956 O   0  0  0  0  0  0  0  0  0  0  0  0
   23.8568  -22.2770  -15.7302 O   0  0  0  0  0  0  0  0  0  0  0  0
  2  1  1  0
  2  3  2  0
  4  3  1  0
  5  4  2  0
  6  5  1  0
  7  9  1  0
  7  6  1  0
  7  8  1  1
  9 18  1  0
  9 10  2  0
 11 12  2  0
 11  5  1  0
 12  2  1  0
 14 15  1  0
 14 13  1  0
 15 16  1  1
 17 15  1  0
 17 18  1  6
 19 23  1  0
 19 17  1  0
 20 19  2  0
 22 21  1  1
 22 24  1  0
 22 23  1  0
 24 25  1  0
 26 24  2  0
M  END
$$$$
