YIA.pdb
     RDKit          3D

 26 26  0  0  1  0  0  0  0  0999 V2000
   21.9770  -16.0616  -20.6817 O   0  0  0  0  0  0  0  0  0  0  0  0
   21.3175  -14.9871  -20.1237 C   0  0  0  0  0  0  0  0  0  0  0  0
   20.1716  -14.5111  -20.7371 C   0  0  0  0  0  0  0  0  0  0  0  0
   19.5191  -13.4202  -20.1533 C   0  0  0  0  0  0  0  0  0  0  0  0
   19.9805  -12.8292  -19.0155 C   0  0  0  0  0  0  0  0  0  0  0  0
   19.2664  -11.6744  -18.4211 C   0  0  0  0  0  0  0  0  0  0  0  0
   18.5879  -12.1742  -17.1438 C   0  0  2  0  0  0  0  0  0  0  0  0
   17.5977  -13.1551  -17.4632 N   0  0  0  0  0  0  0  0  0  0  0  0
   17.9580  -11.0260  -16.4514 C   0  0  0  0  0  0  0  0  0  0  0  0
   16.7105  -10.8070  -16.4991 O   0  0  0  0  0  0  0  0  0  0  0  0
   21.1171  -13.3167  -18.4245 C   0  0  0  0  0  0  0  0  0  0  0  0
   21.8015  -14.4061  -18.9744 C   0  0  0  0  0  0  0  0  0  0  0  0
   17.2174   -9.2285  -11.2274 C   0  0  0  0  0  0  0  0  0  0  0  0
   17.4560   -8.5377  -12.5788 C   0  0  0  0  0  0  0  0  0  0  0  0
   18.0548   -9.4883  -13.5565 C   0  0  2  0  0  0  0  0  0  0  0  0
   19.3451  -10.0852  -13.0586 C   0  0  0  0  0  0  0  0  0  0  0  0
   18.1490   -8.9836  -14.9759 C   0  0  2  0  0  0  0  0  0  0  0  0
   18.7399  -10.1311  -15.7085 N   0  0  0  0  0  0  0  0  0  0  0  0
   19.0421   -7.8271  -15.1479 C   0  0  0  0  0  0  0  0  0  0  0  0
   20.2614   -7.9315  -14.8032 O   0  0  0  0  0  0  0  0  0  0  0  0
   20.0368   -5.0483  -14.4400 C   0  0  0  0  0  0  0  0  0  0  0  0
   19.5465   -5.5072  -15.8079 C   0  0  2  0  0  0  0  0  0  0  0  0
   18.6071   -6.5964  -15.6852 N   0  0  0  0  0  0  0  0  0  0  0  0
   20.6981   -5.9720  -16.6138 C   0  0  0  0  0  0  0  0  0  0  0  0
   20.9146   -5.4418  -17.8829 O   0  0  0  0  0  0  0  0  0  0  0  0
   21.4705   -6.8326  -16.1611 O   0  0  0  0  0  0  0  0  0  0  0  0
  2  1  1  0
  2  3  2  0
  4  3  1  0
  5  4  2  0
  6  5  1  0
  7  9  1  0
  7  6  1  0
  7  8  1  6
  9 18  1  0
  9 10  2  0
 11 12  2  0
 11  5  1  0
 12  2  1  0
 14 15  1  0
 14 13  1  0
 15 16  1  1
 17 15  1  0
 17 18  1  6
 19 23  1  0
 19 17  1  0
 20 19  2  0
 22 21  1  1
 22 24  1  0
 22 23  1  0
 24 25  1  0
 26 24  2  0
M  END
$$$$
