WDR.pdb
     RDKit          3D

 34 35  0  0  1  0  0  0  0  0999 V2000
   25.6012  -23.5463  -15.1989 N   0  0  0  0  0  0  0  0  0  0  0  0
   24.6306  -24.5834  -15.4405 C   0  0  1  0  0  0  0  0  0  0  0  0
   25.3042  -25.9198  -15.3813 C   0  0  0  0  0  0  0  0  0  0  0  0
   26.1268  -26.1032  -16.6001 C   0  0  0  0  0  0  0  0  0  0  0  0
   26.0644  -25.3357  -17.7691 C   0  0  0  0  0  0  0  0  0  0  0  0
   26.9828  -25.7616  -18.6491 N   0  0  0  0  0  0  0  0  0  0  0  0
   27.6496  -26.7885  -18.0955 C   0  0  0  0  0  0  0  0  0  0  0  0
   28.6850  -27.5559  -18.6303 C   0  0  0  0  0  0  0  0  0  0  0  0
   29.2239  -28.5783  -17.8871 C   0  0  0  0  0  0  0  0  0  0  0  0
   28.7087  -28.8011  -16.6311 C   0  0  0  0  0  0  0  0  0  0  0  0
   27.6742  -28.0362  -16.0925 C   0  0  0  0  0  0  0  0  0  0  0  0
   27.1439  -27.0180  -16.8403 C   0  0  0  0  0  0  0  0  0  0  0  0
   23.5341  -24.4685  -14.4393 C   0  0  0  0  0  0  0  0  0  0  0  0
   23.8441  -24.3731  -13.2291 O   0  0  0  0  0  0  0  0  0  0  0  0
   22.1517  -24.4597  -14.7685 N   0  0  0  0  0  0  0  0  0  0  0  0
   21.1126  -24.3692  -13.7803 C   0  0  1  0  0  0  0  0  0  0  0  0
   20.2570  -23.1338  -14.0781 C   0  0  0  0  0  0  0  0  0  0  0  0
   19.1062  -23.0127  -13.1576 C   0  0  0  0  0  0  0  0  0  0  0  0
   17.9789  -22.5874  -13.5153 O   0  0  0  0  0  0  0  0  0  0  0  0
   20.2579  -25.5994  -13.7448 C   0  0  0  0  0  0  0  0  0  0  0  0
   19.6379  -25.9363  -14.7805 O   0  0  0  0  0  0  0  0  0  0  0  0
   19.2638  -23.3826  -11.8319 O   0  0  0  0  0  0  0  0  0  0  0  0
   23.1502  -32.1995   -9.6271 N   0  0  0  0  0  0  0  0  0  0  0  0
   22.8867  -30.8606   -9.2184 C   0  0  0  0  0  0  0  0  0  0  0  0
   23.1240  -30.4962   -7.9916 N   0  0  0  0  0  0  0  0  0  0  0  0
   22.3670  -29.8800  -10.1001 N   0  0  0  0  0  0  0  0  0  0  0  0
   21.7398  -30.2788  -11.3579 C   0  0  0  0  0  0  0  0  0  0  0  0
   21.3015  -29.0244  -12.0723 C   0  0  0  0  0  0  0  0  0  0  0  0
   19.9073  -28.6851  -11.6939 C   0  0  0  0  0  0  0  0  0  0  0  0
   19.2908  -27.5110  -12.3513 C   0  0  2  0  0  0  0  0  0  0  0  0
   20.1320  -26.3890  -12.5787 N   0  0  0  0  0  0  0  0  0  0  0  0
   18.0020  -27.2348  -11.6616 C   0  0  0  0  0  0  0  0  0  0  0  0
   17.0903  -28.2696  -11.5577 O   0  0  0  0  0  0  0  0  0  0  0  0
   17.7374  -26.1303  -11.1928 O   0  0  0  0  0  0  0  0  0  0  0  0
  2  1  1  1
  2  3  1  0
  3  4  1  0
  4  5  2  0
  5  6  1  0
  7  6  1  0
  8  7  2  0
  9  8  1  0
 10 11  1  0
 10  9  2  0
 11 12  2  0
 12  4  1  0
 12  7  1  0
 13  2  1  0
 13 14  2  0
 15 13  1  0
 16 15  1  0
 16 17  1  6
 18 17  1  0
 19 18  2  0
 20 21  2  0
 20 16  1  0
 22 18  1  0
 23 24  1  0
 24 25  2  0
 26 27  1  0
 26 24  1  0
 27 28  1  0
 29 28  1  0
 30 31  1  0
 30 29  1  1
 31 20  1  0
 32 30  1  0
 33 32  1  0
 34 32  2  0
M  END
$$$$
