WDR.pdb
     RDKit          3D

 34 35  0  0  1  0  0  0  0  0999 V2000
   26.0734  -21.9279  -12.1433 N   0  0  0  0  0  0  0  0  0  0  0  0
   25.5020  -21.1069  -11.1062 C   0  0  1  0  0  0  0  0  0  0  0  0
   26.3775  -19.9138  -10.8762 C   0  0  0  0  0  0  0  0  0  0  0  0
   27.6428  -20.3549  -10.2435 C   0  0  0  0  0  0  0  0  0  0  0  0
   28.8100  -20.7519  -10.9065 C   0  0  0  0  0  0  0  0  0  0  0  0
   29.7685  -21.0459  -10.0152 N   0  0  0  0  0  0  0  0  0  0  0  0
   29.2679  -20.8552   -8.7828 C   0  0  0  0  0  0  0  0  0  0  0  0
   29.8845  -21.0380   -7.5446 C   0  0  0  0  0  0  0  0  0  0  0  0
   29.1773  -20.7911   -6.3927 C   0  0  0  0  0  0  0  0  0  0  0  0
   27.8737  -20.3693   -6.5163 C   0  0  0  0  0  0  0  0  0  0  0  0
   27.2536  -20.1849   -7.7519 C   0  0  0  0  0  0  0  0  0  0  0  0
   27.9669  -20.4322   -8.8952 C   0  0  0  0  0  0  0  0  0  0  0  0
   24.1202  -20.7150  -11.4998 C   0  0  0  0  0  0  0  0  0  0  0  0
   23.8905  -19.5055  -11.7321 O   0  0  0  0  0  0  0  0  0  0  0  0
   23.0392  -21.6283  -11.6301 N   0  0  0  0  0  0  0  0  0  0  0  0
   21.7397  -21.2401  -12.1047 C   0  0  1  0  0  0  0  0  0  0  0  0
   21.8876  -20.6375  -13.5055 C   0  0  0  0  0  0  0  0  0  0  0  0
   20.8182  -19.6640  -13.8137 C   0  0  0  0  0  0  0  0  0  0  0  0
   21.0376  -18.5387  -14.3286 O   0  0  0  0  0  0  0  0  0  0  0  0
   20.7805  -22.3908  -12.1306 C   0  0  0  0  0  0  0  0  0  0  0  0
   20.9443  -23.2969  -12.9808 O   0  0  0  0  0  0  0  0  0  0  0  0
   19.5042  -19.9952  -13.5259 O   0  0  0  0  0  0  0  0  0  0  0  0
   16.8441  -24.5889   -4.7665 N   0  0  0  0  0  0  0  0  0  0  0  0
   17.2581  -25.6046   -5.6755 C   0  0  0  0  0  0  0  0  0  0  0  0
   16.9139  -26.8427   -5.4685 N   0  0  0  0  0  0  0  0  0  0  0  0
   18.0445  -25.3303   -6.8225 N   0  0  0  0  0  0  0  0  0  0  0  0
   18.4542  -23.9608   -7.1241 C   0  0  0  0  0  0  0  0  0  0  0  0
   19.2167  -23.9841   -8.4257 C   0  0  0  0  0  0  0  0  0  0  0  0
   18.3084  -23.6562   -9.5525 C   0  0  0  0  0  0  0  0  0  0  0  0
   18.8970  -23.6128  -10.9099 C   0  0  2  0  0  0  0  0  0  0  0  0
   19.6989  -22.4832  -11.2246 N   0  0  0  0  0  0  0  0  0  0  0  0
   17.8168  -23.9402  -11.8788 C   0  0  0  0  0  0  0  0  0  0  0  0
   17.3211  -25.2313  -11.8817 O   0  0  0  0  0  0  0  0  0  0  0  0
   17.3662  -23.1048  -12.6593 O   0  0  0  0  0  0  0  0  0  0  0  0
  2  1  1  6
  2  3  1  0
  3  4  1  0
  4  5  2  0
  5  6  1  0
  7  6  1  0
  8  7  2  0
  9  8  1  0
 10 11  1  0
 10  9  2  0
 11 12  2  0
 12  4  1  0
 12  7  1  0
 13  2  1  0
 13 14  2  0
 15 13  1  0
 16 15  1  0
 16 17  1  6
 18 17  1  0
 19 18  2  0
 20 21  2  0
 20 16  1  0
 22 18  1  0
 23 24  1  0
 24 25  2  0
 26 27  1  0
 26 24  1  0
 27 28  1  0
 29 28  1  0
 30 31  1  0
 30 29  1  1
 31 20  1  0
 32 30  1  0
 33 32  1  0
 34 32  2  0
M  END
$$$$
