WDR.pdb
     RDKit          3D

 34 35  0  0  1  0  0  0  0  0999 V2000
   26.0681  -22.8953  -12.6280 N   0  0  0  0  0  0  0  0  0  0  0  0
   25.4512  -21.8345  -11.8729 C   0  0  1  0  0  0  0  0  0  0  0  0
   26.3336  -20.6247  -11.9007 C   0  0  0  0  0  0  0  0  0  0  0  0
   27.4490  -20.8154  -10.9440 C   0  0  0  0  0  0  0  0  0  0  0  0
   28.7758  -21.1260  -11.2645 C   0  0  0  0  0  0  0  0  0  0  0  0
   29.5178  -21.1832  -10.1484 N   0  0  0  0  0  0  0  0  0  0  0  0
   28.7193  -20.9200   -9.1000 C   0  0  0  0  0  0  0  0  0  0  0  0
   29.0367  -20.8735   -7.7421 C   0  0  0  0  0  0  0  0  0  0  0  0
   28.0523  -20.5922   -6.8257 C   0  0  0  0  0  0  0  0  0  0  0  0
   26.7798  -20.3667   -7.2976 C   0  0  0  0  0  0  0  0  0  0  0  0
   26.4583  -20.4118   -8.6540 C   0  0  0  0  0  0  0  0  0  0  0  0
   27.4466  -20.6917   -9.5606 C   0  0  0  0  0  0  0  0  0  0  0  0
   24.1030  -21.5526  -12.4394 C   0  0  0  0  0  0  0  0  0  0  0  0
   23.8725  -21.8985  -13.6213 O   0  0  0  0  0  0  0  0  0  0  0  0
   23.0550  -20.9137  -11.7231 N   0  0  0  0  0  0  0  0  0  0  0  0
   21.7007  -20.8600  -12.2000 C   0  0  1  0  0  0  0  0  0  0  0  0
   20.7546  -20.8623  -10.9951 C   0  0  0  0  0  0  0  0  0  0  0  0
   19.3468  -21.0882  -11.3870 C   0  0  0  0  0  0  0  0  0  0  0  0
   18.9794  -21.2436  -12.5788 O   0  0  0  0  0  0  0  0  0  0  0  0
   21.4507  -19.6567  -13.0572 C   0  0  0  0  0  0  0  0  0  0  0  0
   21.0176  -18.6103  -12.5206 O   0  0  0  0  0  0  0  0  0  0  0  0
   18.3737  -21.1333  -10.4021 O   0  0  0  0  0  0  0  0  0  0  0  0
   24.0208  -21.7101  -19.5954 N   0  0  0  0  0  0  0  0  0  0  0  0
   24.7100  -21.2729  -18.4279 C   0  0  0  0  0  0  0  0  0  0  0  0
   25.9827  -21.0064  -18.4850 N   0  0  0  0  0  0  0  0  0  0  0  0
   24.0657  -21.1084  -17.1760 N   0  0  0  0  0  0  0  0  0  0  0  0
   22.6439  -21.4129  -17.0339 C   0  0  0  0  0  0  0  0  0  0  0  0
   21.8651  -20.2304  -17.5547 C   0  0  0  0  0  0  0  0  0  0  0  0
   20.6876  -19.9761  -16.6881 C   0  0  0  0  0  0  0  0  0  0  0  0
   20.8929  -19.1261  -15.4940 C   0  0  2  0  0  0  0  0  0  0  0  0
   21.6898  -19.6687  -14.4507 N   0  0  0  0  0  0  0  0  0  0  0  0
   19.5658  -18.5871  -15.0924 C   0  0  0  0  0  0  0  0  0  0  0  0
   18.6280  -19.4780  -14.6028 O   0  0  0  0  0  0  0  0  0  0  0  0
   19.2924  -17.3927  -15.1850 O   0  0  0  0  0  0  0  0  0  0  0  0
  2  1  1  6
  2  3  1  0
  3  4  1  0
  4  5  2  0
  5  6  1  0
  7  6  1  0
  8  7  2  0
  9  8  1  0
 10 11  1  0
 10  9  2  0
 11 12  2  0
 12  4  1  0
 12  7  1  0
 13  2  1  0
 13 14  2  0
 15 13  1  0
 16 15  1  0
 16 17  1  1
 18 17  1  0
 19 18  2  0
 20 21  2  0
 20 16  1  0
 22 18  1  0
 23 24  1  0
 24 25  2  0
 26 27  1  0
 26 24  1  0
 27 28  1  0
 29 28  1  0
 30 31  1  0
 30 29  1  6
 31 20  1  0
 32 30  1  0
 33 32  1  0
 34 32  2  0
M  END
$$$$
