WDR.pdb
     RDKit          3D

 34 35  0  0  1  0  0  0  0  0999 V2000
   28.4853  -21.2451  -14.5545 N   0  0  0  0  0  0  0  0  0  0  0  0
   27.3693  -21.0975  -13.6551 C   0  0  1  0  0  0  0  0  0  0  0  0
   27.5830  -19.8942  -12.7894 C   0  0  0  0  0  0  0  0  0  0  0  0
   28.7055  -20.1588  -11.8589 C   0  0  0  0  0  0  0  0  0  0  0  0
   30.0609  -19.9025  -12.0966 C   0  0  0  0  0  0  0  0  0  0  0  0
   30.7877  -20.2305  -11.0179 N   0  0  0  0  0  0  0  0  0  0  0  0
   29.9515  -20.6966  -10.0748 C   0  0  0  0  0  0  0  0  0  0  0  0
   30.2436  -21.1642   -8.7931 C   0  0  0  0  0  0  0  0  0  0  0  0
   29.2248  -21.6100   -7.9862 C   0  0  0  0  0  0  0  0  0  0  0  0
   27.9443  -21.5742   -8.4880 C   0  0  0  0  0  0  0  0  0  0  0  0
   27.6478  -21.1072   -9.7683 C   0  0  0  0  0  0  0  0  0  0  0  0
   28.6700  -20.6635  -10.5654 C   0  0  0  0  0  0  0  0  0  0  0  0
   26.1132  -20.9956  -14.4487 C   0  0  0  0  0  0  0  0  0  0  0  0
   26.0647  -20.1548  -15.3763 O   0  0  0  0  0  0  0  0  0  0  0  0
   24.9598  -21.7942  -14.2216 N   0  0  0  0  0  0  0  0  0  0  0  0
   23.6991  -21.5490  -14.8659 C   0  0  1  0  0  0  0  0  0  0  0  0
   23.4149  -22.6946  -15.8424 C   0  0  0  0  0  0  0  0  0  0  0  0
   22.1173  -22.5347  -16.5332 C   0  0  0  0  0  0  0  0  0  0  0  0
   21.3828  -21.5242  -16.3954 O   0  0  0  0  0  0  0  0  0  0  0  0
   22.5782  -21.4130  -13.8809 C   0  0  0  0  0  0  0  0  0  0  0  0
   22.0407  -22.4506  -13.4280 O   0  0  0  0  0  0  0  0  0  0  0  0
   21.6766  -23.5408  -17.3773 O   0  0  0  0  0  0  0  0  0  0  0  0
   17.6181  -19.0205  -17.7667 N   0  0  0  0  0  0  0  0  0  0  0  0
   17.1160  -17.7697  -17.3056 C   0  0  0  0  0  0  0  0  0  0  0  0
   15.9107  -17.3951  -17.6238 N   0  0  0  0  0  0  0  0  0  0  0  0
   17.8793  -16.8900  -16.4976 N   0  0  0  0  0  0  0  0  0  0  0  0
   19.2663  -17.2096  -16.1682 C   0  0  0  0  0  0  0  0  0  0  0  0
   19.2526  -18.2388  -15.0652 C   0  0  0  0  0  0  0  0  0  0  0  0
   20.6422  -18.5967  -14.6870 C   0  0  0  0  0  0  0  0  0  0  0  0
   20.8178  -19.5823  -13.5968 C   0  0  2  0  0  0  0  0  0  0  0  0
   22.1116  -20.1502  -13.4488 N   0  0  0  0  0  0  0  0  0  0  0  0
   19.6850  -20.5435  -13.6729 C   0  0  0  0  0  0  0  0  0  0  0  0
   18.4462  -20.1183  -13.2285 O   0  0  0  0  0  0  0  0  0  0  0  0
   19.8249  -21.6821  -14.1131 O   0  0  0  0  0  0  0  0  0  0  0  0
  2  1  1  6
  2  3  1  0
  3  4  1  0
  4  5  2  0
  5  6  1  0
  7  6  1  0
  8  7  2  0
  9  8  1  0
 10 11  1  0
 10  9  2  0
 11 12  2  0
 12  4  1  0
 12  7  1  0
 13  2  1  0
 13 14  2  0
 15 13  1  0
 16 15  1  0
 16 17  1  6
 18 17  1  0
 19 18  2  0
 20 21  2  0
 20 16  1  0
 22 18  1  0
 23 24  1  0
 24 25  2  0
 26 27  1  0
 26 24  1  0
 27 28  1  0
 29 28  1  0
 30 31  1  0
 30 29  1  6
 31 20  1  0
 32 30  1  0
 33 32  1  0
 34 32  2  0
M  END
$$$$
