WDR.pdb
     RDKit          3D

 34 35  0  0  1  0  0  0  0  0999 V2000
   24.4607  -20.0149  -14.7982 N   0  0  0  0  0  0  0  0  0  0  0  0
   24.1929  -20.6606  -13.5382 C   0  0  1  0  0  0  0  0  0  0  0  0
   24.6570  -19.7805  -12.4188 C   0  0  0  0  0  0  0  0  0  0  0  0
   26.1386  -19.7595  -12.4001 C   0  0  0  0  0  0  0  0  0  0  0  0
   26.9717  -19.0592  -13.2804 C   0  0  0  0  0  0  0  0  0  0  0  0
   28.2567  -19.2396  -12.9401 N   0  0  0  0  0  0  0  0  0  0  0  0
   28.2963  -20.0394  -11.8609 C   0  0  0  0  0  0  0  0  0  0  0  0
   29.4039  -20.5109  -11.1553 C   0  0  0  0  0  0  0  0  0  0  0  0
   29.2163  -21.3369  -10.0734 C   0  0  0  0  0  0  0  0  0  0  0  0
   27.9250  -21.6659   -9.7317 C   0  0  0  0  0  0  0  0  0  0  0  0
   26.8150  -21.1965  -10.4339 C   0  0  0  0  0  0  0  0  0  0  0  0
   27.0116  -20.3723  -11.5105 C   0  0  0  0  0  0  0  0  0  0  0  0
   22.7372  -20.9602  -13.4431 C   0  0  0  0  0  0  0  0  0  0  0  0
   21.9254  -20.0305  -13.6585 O   0  0  0  0  0  0  0  0  0  0  0  0
   22.2058  -22.2386  -13.1225 N   0  0  0  0  0  0  0  0  0  0  0  0
   20.7995  -22.4821  -12.9561 C   0  0  1  0  0  0  0  0  0  0  0  0
   20.3323  -23.4387  -14.0577 C   0  0  0  0  0  0  0  0  0  0  0  0
   18.8602  -23.5709  -14.0994 C   0  0  0  0  0  0  0  0  0  0  0  0
   18.2120  -24.3111  -13.3174 O   0  0  0  0  0  0  0  0  0  0  0  0
   20.4796  -23.0461  -11.6053 C   0  0  0  0  0  0  0  0  0  0  0  0
   21.2652  -23.8786  -11.0950 O   0  0  0  0  0  0  0  0  0  0  0  0
   18.1468  -22.8490  -15.0423 O   0  0  0  0  0  0  0  0  0  0  0  0
   12.5772  -22.2008   -7.6522 N   0  0  0  0  0  0  0  0  0  0  0  0
   13.7275  -21.3605   -7.6621 C   0  0  0  0  0  0  0  0  0  0  0  0
   13.5900  -20.0683   -7.5888 N   0  0  0  0  0  0  0  0  0  0  0  0
   15.0469  -21.8711   -7.7493 N   0  0  0  0  0  0  0  0  0  0  0  0
   15.2756  -23.2541   -8.1610 C   0  0  0  0  0  0  0  0  0  0  0  0
   16.7662  -23.4857   -8.1898 C   0  0  0  0  0  0  0  0  0  0  0  0
   17.3155  -23.0959   -9.5121 C   0  0  0  0  0  0  0  0  0  0  0  0
   18.7754  -23.2372   -9.7105 C   0  0  2  0  0  0  0  0  0  0  0  0
   19.3196  -22.6659  -10.8918 N   0  0  0  0  0  0  0  0  0  0  0  0
   19.1295  -24.6577   -9.4462 C   0  0  0  0  0  0  0  0  0  0  0  0
   19.5175  -24.9987   -8.1633 O   0  0  0  0  0  0  0  0  0  0  0  0
   19.0851  -25.5148  -10.3255 O   0  0  0  0  0  0  0  0  0  0  0  0
  2  1  1  6
  2  3  1  0
  3  4  1  0
  4  5  2  0
  5  6  1  0
  7  6  1  0
  8  7  2  0
  9  8  1  0
 10 11  1  0
 10  9  2  0
 11 12  2  0
 12  4  1  0
 12  7  1  0
 13  2  1  0
 13 14  2  0
 15 13  1  0
 16 15  1  0
 16 17  1  6
 18 17  1  0
 19 18  2  0
 20 21  2  0
 20 16  1  0
 22 18  1  0
 23 24  1  0
 24 25  2  0
 26 27  1  0
 26 24  1  0
 27 28  1  0
 29 28  1  0
 30 31  1  0
 30 29  1  6
 31 20  1  0
 32 30  1  0
 33 32  1  0
 34 32  2  0
M  END
$$$$
