WDR.pdb
     RDKit          3D

 34 35  0  0  1  0  0  0  0  0999 V2000
   27.6017  -21.7400  -10.5184 N   0  0  0  0  0  0  0  0  0  0  0  0
   26.6369  -20.8798   -9.8818 C   0  0  1  0  0  0  0  0  0  0  0  0
   27.3399  -19.7023   -9.2799 C   0  0  0  0  0  0  0  0  0  0  0  0
   28.4257  -20.1855   -8.3948 C   0  0  0  0  0  0  0  0  0  0  0  0
   29.6217  -20.7899   -8.7995 C   0  0  0  0  0  0  0  0  0  0  0  0
   30.3854  -21.0608   -7.7305 N   0  0  0  0  0  0  0  0  0  0  0  0
   29.7282  -20.6534   -6.6315 C   0  0  0  0  0  0  0  0  0  0  0  0
   30.1174  -20.7316   -5.2939 C   0  0  0  0  0  0  0  0  0  0  0  0
   29.2774  -20.2578   -4.3152 C   0  0  0  0  0  0  0  0  0  0  0  0
   28.0727  -19.7207   -4.7063 C   0  0  0  0  0  0  0  0  0  0  0  0
   27.6799  -19.6402   -6.0422 C   0  0  0  0  0  0  0  0  0  0  0  0
   28.5245  -20.1140   -7.0113 C   0  0  0  0  0  0  0  0  0  0  0  0
   25.6163  -20.4654  -10.8841 C   0  0  0  0  0  0  0  0  0  0  0  0
   25.4024  -19.2408  -11.0408 O   0  0  0  0  0  0  0  0  0  0  0  0
   24.8652  -21.3729  -11.6790 N   0  0  0  0  0  0  0  0  0  0  0  0
   23.8882  -20.9460  -12.6422 C   0  0  1  0  0  0  0  0  0  0  0  0
   24.5048  -21.0374  -14.0417 C   0  0  0  0  0  0  0  0  0  0  0  0
   25.1097  -22.3611  -14.3033 C   0  0  0  0  0  0  0  0  0  0  0  0
   25.1154  -23.2949  -13.4622 O   0  0  0  0  0  0  0  0  0  0  0  0
   22.6319  -21.7595  -12.5715 C   0  0  0  0  0  0  0  0  0  0  0  0
   22.7131  -23.0074  -12.6535 O   0  0  0  0  0  0  0  0  0  0  0  0
   25.7032  -22.5979  -15.5324 O   0  0  0  0  0  0  0  0  0  0  0  0
   14.6339  -20.8492  -10.9753 N   0  0  0  0  0  0  0  0  0  0  0  0
   14.7200  -22.2474  -11.2339 C   0  0  0  0  0  0  0  0  0  0  0  0
   13.6390  -22.9337  -11.4676 N   0  0  0  0  0  0  0  0  0  0  0  0
   15.9524  -22.9476  -11.2511 N   0  0  0  0  0  0  0  0  0  0  0  0
   17.2079  -22.2339  -11.0306 C   0  0  0  0  0  0  0  0  0  0  0  0
   17.5665  -21.5252  -12.3134 C   0  0  0  0  0  0  0  0  0  0  0  0
   18.9124  -20.9113  -12.1955 C   0  0  0  0  0  0  0  0  0  0  0  0
   20.0764  -21.7489  -12.5619 C   0  0  2  0  0  0  0  0  0  0  0  0
   21.3609  -21.1603  -12.4147 N   0  0  0  0  0  0  0  0  0  0  0  0
   19.7866  -22.3680  -13.8831 C   0  0  0  0  0  0  0  0  0  0  0  0
   20.1048  -21.6455  -15.0187 O   0  0  0  0  0  0  0  0  0  0  0  0
   19.2815  -23.4836  -13.9833 O   0  0  0  0  0  0  0  0  0  0  0  0
  2  1  1  6
  2  3  1  0
  3  4  1  0
  4  5  2  0
  5  6  1  0
  7  6  1  0
  8  7  2  0
  9  8  1  0
 10 11  1  0
 10  9  2  0
 11 12  2  0
 12  4  1  0
 12  7  1  0
 13  2  1  0
 13 14  2  0
 15 13  1  0
 16 15  1  0
 16 17  1  6
 18 17  1  0
 19 18  2  0
 20 21  2  0
 20 16  1  0
 22 18  1  0
 23 24  1  0
 24 25  2  0
 26 27  1  0
 26 24  1  0
 27 28  1  0
 29 28  1  0
 30 31  1  0
 30 29  1  6
 31 20  1  0
 32 30  1  0
 33 32  1  0
 34 32  2  0
M  END
$$$$
