WDR.pdb
     RDKit          3D

 34 35  0  0  1  0  0  0  0  0999 V2000
   27.7682  -21.2937  -10.1393 N   0  0  0  0  0  0  0  0  0  0  0  0
   26.5670  -20.8670   -9.4676 C   0  0  1  0  0  0  0  0  0  0  0  0
   26.7479  -19.4683   -8.9637 C   0  0  0  0  0  0  0  0  0  0  0  0
   27.7426  -19.4731   -7.8653 C   0  0  0  0  0  0  0  0  0  0  0  0
   29.0514  -18.9803   -7.9262 C   0  0  0  0  0  0  0  0  0  0  0  0
   29.6497  -19.1138   -6.7330 N   0  0  0  0  0  0  0  0  0  0  0  0
   28.7742  -19.6812   -5.8861 C   0  0  0  0  0  0  0  0  0  0  0  0
   28.9436  -20.0230   -4.5439 C   0  0  0  0  0  0  0  0  0  0  0  0
   27.9079  -20.6111   -3.8588 C   0  0  0  0  0  0  0  0  0  0  0  0
   26.7342  -20.8394   -4.5393 C   0  0  0  0  0  0  0  0  0  0  0  0
   26.5605  -20.4990   -5.8807 C   0  0  0  0  0  0  0  0  0  0  0  0
   27.5983  -19.9118   -6.5554 C   0  0  0  0  0  0  0  0  0  0  0  0
   25.4175  -20.9747  -10.4084 C   0  0  0  0  0  0  0  0  0  0  0  0
   25.6571  -21.2397  -11.6092 O   0  0  0  0  0  0  0  0  0  0  0  0
   24.0591  -20.7959  -10.0310 N   0  0  0  0  0  0  0  0  0  0  0  0
   22.9617  -21.0077  -10.9339 C   0  0  1  0  0  0  0  0  0  0  0  0
   21.6674  -21.1068  -10.1203 C   0  0  0  0  0  0  0  0  0  0  0  0
   20.5050  -21.4747  -10.9569 C   0  0  0  0  0  0  0  0  0  0  0  0
   20.5691  -21.6106  -12.2047 O   0  0  0  0  0  0  0  0  0  0  0  0
   22.8529  -19.9180  -11.9566 C   0  0  0  0  0  0  0  0  0  0  0  0
   22.6346  -18.7456  -11.5714 O   0  0  0  0  0  0  0  0  0  0  0  0
   19.2779  -21.6829  -10.3487 O   0  0  0  0  0  0  0  0  0  0  0  0
   28.7202  -19.1412  -15.1289 N   0  0  0  0  0  0  0  0  0  0  0  0
   28.1814  -18.8762  -16.4207 C   0  0  0  0  0  0  0  0  0  0  0  0
   28.8939  -19.1127  -17.4839 N   0  0  0  0  0  0  0  0  0  0  0  0
   26.8770  -18.3560  -16.6134 N   0  0  0  0  0  0  0  0  0  0  0  0
   26.0628  -17.9657  -15.4648 C   0  0  0  0  0  0  0  0  0  0  0  0
   25.4175  -19.2126  -14.9125 C   0  0  0  0  0  0  0  0  0  0  0  0
   24.0275  -19.3321  -15.4183 C   0  0  0  0  0  0  0  0  0  0  0  0
   22.9335  -19.2581  -14.4242 C   0  0  2  0  0  0  0  0  0  0  0  0
   22.9897  -20.1747  -13.3402 N   0  0  0  0  0  0  0  0  0  0  0  0
   21.6489  -19.2062  -15.1725 C   0  0  0  0  0  0  0  0  0  0  0  0
   20.6542  -18.3744  -14.6915 O   0  0  0  0  0  0  0  0  0  0  0  0
   21.4583  -19.8728  -16.1871 O   0  0  0  0  0  0  0  0  0  0  0  0
  2  1  1  6
  2  3  1  0
  3  4  1  0
  4  5  2  0
  5  6  1  0
  7  6  1  0
  8  7  2  0
  9  8  1  0
 10 11  1  0
 10  9  2  0
 11 12  2  0
 12  4  1  0
 12  7  1  0
 13  2  1  0
 13 14  2  0
 15 13  1  0
 16 15  1  0
 16 17  1  1
 18 17  1  0
 19 18  2  0
 20 21  2  0
 20 16  1  0
 22 18  1  0
 23 24  1  0
 24 25  2  0
 26 27  1  0
 26 24  1  0
 27 28  1  0
 29 28  1  0
 30 31  1  0
 30 29  1  6
 31 20  1  0
 32 30  1  0
 33 32  1  0
 34 32  2  0
M  END
$$$$
