WDR.pdb
     RDKit          3D

 34 35  0  0  1  0  0  0  0  0999 V2000
   25.1167  -19.3899  -10.3037 N   0  0  0  0  0  0  0  0  0  0  0  0
   25.9602  -20.3871  -10.9123 C   0  0  1  0  0  0  0  0  0  0  0  0
   26.2111  -21.4924   -9.9334 C   0  0  0  0  0  0  0  0  0  0  0  0
   26.8139  -20.9248   -8.7044 C   0  0  0  0  0  0  0  0  0  0  0  0
   26.1243  -20.3817   -7.6140 C   0  0  0  0  0  0  0  0  0  0  0  0
   26.9916  -20.0014   -6.6639 N   0  0  0  0  0  0  0  0  0  0  0  0
   28.2339  -20.2770   -7.0955 C   0  0  0  0  0  0  0  0  0  0  0  0
   29.4559  -20.0544   -6.4598 C   0  0  0  0  0  0  0  0  0  0  0  0
   30.6231  -20.4075   -7.0930 C   0  0  0  0  0  0  0  0  0  0  0  0
   30.5306  -20.9722   -8.3440 C   0  0  0  0  0  0  0  0  0  0  0  0
   29.3113  -21.1969   -8.9829 C   0  0  0  0  0  0  0  0  0  0  0  0
   28.1526  -20.8429   -8.3434 C   0  0  0  0  0  0  0  0  0  0  0  0
   25.3093  -20.8833  -12.1565 C   0  0  0  0  0  0  0  0  0  0  0  0
   24.0701  -21.0676  -12.1443 O   0  0  0  0  0  0  0  0  0  0  0  0
   26.0056  -21.1628  -13.3634 N   0  0  0  0  0  0  0  0  0  0  0  0
   25.3400  -21.5139  -14.5875 C   0  0  1  0  0  0  0  0  0  0  0  0
   26.3519  -21.4423  -15.7355 C   0  0  0  0  0  0  0  0  0  0  0  0
   25.7292  -21.7077  -17.0501 C   0  0  0  0  0  0  0  0  0  0  0  0
   24.9118  -22.6412  -17.2500 O   0  0  0  0  0  0  0  0  0  0  0  0
   24.7200  -22.8764  -14.5229 C   0  0  0  0  0  0  0  0  0  0  0  0
   25.4564  -23.8673  -14.3073 O   0  0  0  0  0  0  0  0  0  0  0  0
   26.0535  -20.8948  -18.1240 O   0  0  0  0  0  0  0  0  0  0  0  0
   18.7262  -23.1912  -10.6459 N   0  0  0  0  0  0  0  0  0  0  0  0
   18.1888  -22.5346  -11.7901 C   0  0  0  0  0  0  0  0  0  0  0  0
   17.4527  -21.4711  -11.6441 N   0  0  0  0  0  0  0  0  0  0  0  0
   18.4201  -22.9900  -13.1123 N   0  0  0  0  0  0  0  0  0  0  0  0
   19.3761  -24.0657  -13.3640 C   0  0  0  0  0  0  0  0  0  0  0  0
   20.7589  -23.5253  -13.0955 C   0  0  0  0  0  0  0  0  0  0  0  0
   21.7797  -24.5414  -13.4529 C   0  0  0  0  0  0  0  0  0  0  0  0
   22.5954  -24.2898  -14.6621 C   0  0  2  0  0  0  0  0  0  0  0  0
   23.3310  -23.0750  -14.6972 N   0  0  0  0  0  0  0  0  0  0  0  0
   21.7420  -24.5737  -15.8471 C   0  0  0  0  0  0  0  0  0  0  0  0
   21.6827  -25.8782  -16.3027 O   0  0  0  0  0  0  0  0  0  0  0  0
   21.1031  -23.6919  -16.4163 O   0  0  0  0  0  0  0  0  0  0  0  0
  2  1  1  1
  2  3  1  0
  3  4  1  0
  4  5  2  0
  5  6  1  0
  7  6  1  0
  8  7  2  0
  9  8  1  0
 10 11  1  0
 10  9  2  0
 11 12  2  0
 12  4  1  0
 12  7  1  0
 13  2  1  0
 13 14  2  0
 15 13  1  0
 16 15  1  0
 16 17  1  6
 18 17  1  0
 19 18  2  0
 20 21  2  0
 20 16  1  0
 22 18  1  0
 23 24  1  0
 24 25  2  0
 26 27  1  0
 26 24  1  0
 27 28  1  0
 29 28  1  0
 30 31  1  0
 30 29  1  1
 31 20  1  0
 32 30  1  0
 33 32  1  0
 34 32  2  0
M  END
$$$$
