WDR.pdb
     RDKit          3D

 34 35  0  0  1  0  0  0  0  0999 V2000
   27.4210  -20.3745  -15.7362 N   0  0  0  0  0  0  0  0  0  0  0  0
   26.8205  -21.0170  -14.5948 C   0  0  1  0  0  0  0  0  0  0  0  0
   26.8164  -20.0696  -13.4348 C   0  0  0  0  0  0  0  0  0  0  0  0
   28.2027  -19.9048  -12.9378 C   0  0  0  0  0  0  0  0  0  0  0  0
   29.1322  -18.9503  -13.3669 C   0  0  0  0  0  0  0  0  0  0  0  0
   30.2714  -19.0706  -12.6689 N   0  0  0  0  0  0  0  0  0  0  0  0
   30.1214  -20.0774  -11.7916 C   0  0  0  0  0  0  0  0  0  0  0  0
   31.0334  -20.5773  -10.8616 C   0  0  0  0  0  0  0  0  0  0  0  0
   30.6729  -21.6330  -10.0594 C   0  0  0  0  0  0  0  0  0  0  0  0
   29.4099  -22.1560  -10.2137 C   0  0  0  0  0  0  0  0  0  0  0  0
   28.4949  -21.6591  -11.1418 C   0  0  0  0  0  0  0  0  0  0  0  0
   28.8627  -20.6055  -11.9365 C   0  0  0  0  0  0  0  0  0  0  0  0
   25.4456  -21.4631  -14.9532 C   0  0  0  0  0  0  0  0  0  0  0  0
   24.7297  -20.6906  -15.6317 O   0  0  0  0  0  0  0  0  0  0  0  0
   24.8895  -22.7148  -14.5741 N   0  0  0  0  0  0  0  0  0  0  0  0
   23.4754  -22.9685  -14.5530 C   0  0  1  0  0  0  0  0  0  0  0  0
   23.2481  -24.4686  -14.3406 C   0  0  0  0  0  0  0  0  0  0  0  0
   21.8198  -24.8392  -14.4366 C   0  0  0  0  0  0  0  0  0  0  0  0
   21.0237  -24.3105  -15.2529 O   0  0  0  0  0  0  0  0  0  0  0  0
   22.7754  -22.1791  -13.4891 C   0  0  0  0  0  0  0  0  0  0  0  0
   22.8058  -22.5952  -12.3074 O   0  0  0  0  0  0  0  0  0  0  0  0
   21.3205  -25.8162  -13.5909 O   0  0  0  0  0  0  0  0  0  0  0  0
   19.9101  -20.2012  -18.1419 N   0  0  0  0  0  0  0  0  0  0  0  0
   20.7948  -19.0924  -18.0103 C   0  0  0  0  0  0  0  0  0  0  0  0
   21.8298  -18.9893  -18.7928 N   0  0  0  0  0  0  0  0  0  0  0  0
   20.6016  -18.0698  -17.0479 N   0  0  0  0  0  0  0  0  0  0  0  0
   20.1106  -18.3992  -15.7119 C   0  0  0  0  0  0  0  0  0  0  0  0
   21.3026  -18.4854  -14.7912 C   0  0  0  0  0  0  0  0  0  0  0  0
   20.8630  -18.8622  -13.4248 C   0  0  0  0  0  0  0  0  0  0  0  0
   21.2680  -20.1945  -12.9233 C   0  0  2  0  0  0  0  0  0  0  0  0
   22.0838  -20.9807  -13.7803 N   0  0  0  0  0  0  0  0  0  0  0  0
   20.0522  -20.8603  -12.3834 C   0  0  0  0  0  0  0  0  0  0  0  0
   19.6986  -22.0878  -12.9135 O   0  0  0  0  0  0  0  0  0  0  0  0
   19.3711  -20.3526  -11.4956 O   0  0  0  0  0  0  0  0  0  0  0  0
  2  1  1  6
  2  3  1  0
  3  4  1  0
  4  5  2  0
  5  6  1  0
  7  6  1  0
  8  7  2  0
  9  8  1  0
 10 11  1  0
 10  9  2  0
 11 12  2  0
 12  4  1  0
 12  7  1  0
 13  2  1  0
 13 14  2  0
 15 13  1  0
 16 15  1  0
 16 17  1  1
 18 17  1  0
 19 18  2  0
 20 21  2  0
 20 16  1  0
 22 18  1  0
 23 24  1  0
 24 25  2  0
 26 27  1  0
 26 24  1  0
 27 28  1  0
 29 28  1  0
 30 31  1  0
 30 29  1  6
 31 20  1  0
 32 30  1  0
 33 32  1  0
 34 32  2  0
M  END
$$$$
