WDR.pdb
     RDKit          3D

 34 35  0  0  1  0  0  0  0  0999 V2000
   29.1852  -21.7884  -10.3839 N   0  0  0  0  0  0  0  0  0  0  0  0
   27.8928  -21.2747  -10.0071 C   0  0  1  0  0  0  0  0  0  0  0  0
   28.0663  -19.9874   -9.2616 C   0  0  0  0  0  0  0  0  0  0  0  0
   28.8741  -20.2364   -8.0445 C   0  0  0  0  0  0  0  0  0  0  0  0
   30.1496  -20.8109   -7.9959 C   0  0  0  0  0  0  0  0  0  0  0  0
   30.5918  -20.8439   -6.7298 N   0  0  0  0  0  0  0  0  0  0  0  0
   29.6449  -20.3085   -5.9408 C   0  0  0  0  0  0  0  0  0  0  0  0
   29.6481  -20.1346   -4.5564 C   0  0  0  0  0  0  0  0  0  0  0  0
   28.5575  -19.5673   -3.9425 C   0  0  0  0  0  0  0  0  0  0  0  0
   27.4969  -19.1919   -4.7342 C   0  0  0  0  0  0  0  0  0  0  0  0
   27.4897  -19.3634   -6.1183 C   0  0  0  0  0  0  0  0  0  0  0  0
   28.5820  -19.9289   -6.7219 C   0  0  0  0  0  0  0  0  0  0  0  0
   27.0612  -21.1012  -11.2303 C   0  0  0  0  0  0  0  0  0  0  0  0
   27.6456  -20.9711  -12.3309 O   0  0  0  0  0  0  0  0  0  0  0  0
   25.6403  -21.0735  -11.2310 N   0  0  0  0  0  0  0  0  0  0  0  0
   24.8570  -21.1384  -12.4338 C   0  0  1  0  0  0  0  0  0  0  0  0
   25.1469  -22.4675  -13.1384 C   0  0  0  0  0  0  0  0  0  0  0  0
   24.3582  -22.6292  -14.3786 C   0  0  0  0  0  0  0  0  0  0  0  0
   24.3641  -21.7896  -15.3138 O   0  0  0  0  0  0  0  0  0  0  0  0
   23.3901  -21.0018  -12.1608 C   0  0  0  0  0  0  0  0  0  0  0  0
   22.8412  -21.8137  -11.3797 O   0  0  0  0  0  0  0  0  0  0  0  0
   23.5688  -23.7573  -14.5311 O   0  0  0  0  0  0  0  0  0  0  0  0
   18.4879  -15.1496  -14.6882 N   0  0  0  0  0  0  0  0  0  0  0  0
   19.4581  -15.7278  -15.5563 C   0  0  0  0  0  0  0  0  0  0  0  0
   20.0621  -14.9888  -16.4413 N   0  0  0  0  0  0  0  0  0  0  0  0
   19.8093  -17.1001  -15.5049 N   0  0  0  0  0  0  0  0  0  0  0  0
   18.7921  -18.1104  -15.2235 C   0  0  0  0  0  0  0  0  0  0  0  0
   19.1886  -18.8222  -13.9537 C   0  0  0  0  0  0  0  0  0  0  0  0
   20.6343  -19.1552  -13.9881 C   0  0  0  0  0  0  0  0  0  0  0  0
   21.1953  -19.8707  -12.8202 C   0  0  2  0  0  0  0  0  0  0  0  0
   22.6099  -19.9848  -12.7577 N   0  0  0  0  0  0  0  0  0  0  0  0
   20.4280  -21.1345  -12.6562 C   0  0  0  0  0  0  0  0  0  0  0  0
   19.4707  -21.1844  -11.6592 O   0  0  0  0  0  0  0  0  0  0  0  0
   20.6233  -22.1132  -13.3731 O   0  0  0  0  0  0  0  0  0  0  0  0
  2  1  1  6
  2  3  1  0
  3  4  1  0
  4  5  2  0
  5  6  1  0
  7  6  1  0
  8  7  2  0
  9  8  1  0
 10 11  1  0
 10  9  2  0
 11 12  2  0
 12  4  1  0
 12  7  1  0
 13  2  1  0
 13 14  2  0
 15 13  1  0
 16 15  1  0
 16 17  1  1
 18 17  1  0
 19 18  2  0
 20 21  2  0
 20 16  1  0
 22 18  1  0
 23 24  1  0
 24 25  2  0
 26 27  1  0
 26 24  1  0
 27 28  1  0
 29 28  1  0
 30 31  1  0
 30 29  1  6
 31 20  1  0
 32 30  1  0
 33 32  1  0
 34 32  2  0
M  END
$$$$
