WDR.pdb
     RDKit          3D

 34 35  0  0  1  0  0  0  0  0999 V2000
   24.8400  -16.2377  -16.9810 N   0  0  0  0  0  0  0  0  0  0  0  0
   25.7474  -16.6590  -15.9440 C   0  0  1  0  0  0  0  0  0  0  0  0
   25.9908  -15.5203  -15.0021 C   0  0  0  0  0  0  0  0  0  0  0  0
   27.0586  -14.6536  -15.5541 C   0  0  0  0  0  0  0  0  0  0  0  0
   27.0370  -13.2563  -15.6349 C   0  0  0  0  0  0  0  0  0  0  0  0
   28.1896  -12.8072  -16.1538 N   0  0  0  0  0  0  0  0  0  0  0  0
   28.9716  -13.8675  -16.4186 C   0  0  0  0  0  0  0  0  0  0  0  0
   30.2530  -13.9000  -16.9698 C   0  0  0  0  0  0  0  0  0  0  0  0
   30.8750  -15.1092  -17.1670 C   0  0  0  0  0  0  0  0  0  0  0  0
   30.1941  -16.2490  -16.8066 C   0  0  0  0  0  0  0  0  0  0  0  0
   28.9134  -16.2211  -16.2549 C   0  0  0  0  0  0  0  0  0  0  0  0
   28.3015  -15.0108  -16.0607 C   0  0  0  0  0  0  0  0  0  0  0  0
   25.1755  -17.8444  -15.2471 C   0  0  0  0  0  0  0  0  0  0  0  0
   23.9309  -17.9880  -15.2458 O   0  0  0  0  0  0  0  0  0  0  0  0
   25.9534  -18.8291  -14.5801 N   0  0  0  0  0  0  0  0  0  0  0  0
   25.3747  -19.9533  -13.8975 C   0  0  1  0  0  0  0  0  0  0  0  0
   26.3714  -21.1162  -13.9326 C   0  0  0  0  0  0  0  0  0  0  0  0
   26.4508  -21.7476  -15.2673 C   0  0  0  0  0  0  0  0  0  0  0  0
   25.7446  -21.3885  -16.2430 O   0  0  0  0  0  0  0  0  0  0  0  0
   25.0045  -19.6260  -12.4830 C   0  0  0  0  0  0  0  0  0  0  0  0
   25.8395  -19.0340  -11.7598 O   0  0  0  0  0  0  0  0  0  0  0  0
   27.3436  -22.7879  -15.4669 O   0  0  0  0  0  0  0  0  0  0  0  0
   18.6058  -24.7351   -8.7454 N   0  0  0  0  0  0  0  0  0  0  0  0
   19.4210  -24.2228   -7.6956 C   0  0  0  0  0  0  0  0  0  0  0  0
   19.2487  -24.6406   -6.4749 N   0  0  0  0  0  0  0  0  0  0  0  0
   20.4357  -23.2580   -7.9165 N   0  0  0  0  0  0  0  0  0  0  0  0
   20.7847  -22.8547   -9.2767 C   0  0  0  0  0  0  0  0  0  0  0  0
   21.8920  -21.8340   -9.1848 C   0  0  0  0  0  0  0  0  0  0  0  0
   22.3124  -21.4166  -10.5454 C   0  0  0  0  0  0  0  0  0  0  0  0
   23.4335  -20.4555  -10.6459 C   0  0  2  0  0  0  0  0  0  0  0  0
   23.7426  -19.9651  -11.9428 N   0  0  0  0  0  0  0  0  0  0  0  0
   24.5725  -21.0105   -9.8664 C   0  0  0  0  0  0  0  0  0  0  0  0
   24.8170  -20.4797   -8.6129 O   0  0  0  0  0  0  0  0  0  0  0  0
   25.2845  -21.9112  -10.3044 O   0  0  0  0  0  0  0  0  0  0  0  0
  2  1  1  6
  2  3  1  0
  3  4  1  0
  4  5  2  0
  5  6  1  0
  7  6  1  0
  8  7  2  0
  9  8  1  0
 10 11  1  0
 10  9  2  0
 11 12  2  0
 12  4  1  0
 12  7  1  0
 13  2  1  0
 13 14  2  0
 15 13  1  0
 16 15  1  0
 16 17  1  1
 18 17  1  0
 19 18  2  0
 20 21  2  0
 20 16  1  0
 22 18  1  0
 23 24  1  0
 24 25  2  0
 26 27  1  0
 26 24  1  0
 27 28  1  0
 29 28  1  0
 30 31  1  0
 30 29  1  6
 31 20  1  0
 32 30  1  0
 33 32  1  0
 34 32  2  0
M  END
$$$$
