WDR.pdb
     RDKit          3D

 34 35  0  0  1  0  0  0  0  0999 V2000
   27.4650  -19.1279  -12.3654 N   0  0  0  0  0  0  0  0  0  0  0  0
   28.1066  -20.3657  -12.7293 C   0  0  1  0  0  0  0  0  0  0  0  0
   27.5537  -21.4782  -11.8929 C   0  0  0  0  0  0  0  0  0  0  0  0
   27.9979  -21.2982  -10.4907 C   0  0  0  0  0  0  0  0  0  0  0  0
   27.1842  -20.9949   -9.3928 C   0  0  0  0  0  0  0  0  0  0  0  0
   27.9211  -20.9466   -8.2729 N   0  0  0  0  0  0  0  0  0  0  0  0
   29.1980  -21.2085   -8.5995 C   0  0  0  0  0  0  0  0  0  0  0  0
   30.3235  -21.2621   -7.7766 C   0  0  0  0  0  0  0  0  0  0  0  0
   31.5517  -21.5405   -8.3260 C   0  0  0  0  0  0  0  0  0  0  0  0
   31.6151  -21.7561   -9.6833 C   0  0  0  0  0  0  0  0  0  0  0  0
   30.4926  -21.7040  -10.5095 C   0  0  0  0  0  0  0  0  0  0  0  0
   29.2719  -21.4270   -9.9526 C   0  0  0  0  0  0  0  0  0  0  0  0
   27.9045  -20.6107  -14.1843 C   0  0  0  0  0  0  0  0  0  0  0  0
   26.9604  -20.0208  -14.7593 O   0  0  0  0  0  0  0  0  0  0  0  0
   28.7170  -21.4743  -14.9678 N   0  0  0  0  0  0  0  0  0  0  0  0
   28.4516  -21.7565  -16.3514 C   0  0  1  0  0  0  0  0  0  0  0  0
   29.6621  -22.4833  -16.9460 C   0  0  0  0  0  0  0  0  0  0  0  0
   29.4998  -22.7554  -18.3903 C   0  0  0  0  0  0  0  0  0  0  0  0
   28.4523  -22.4840  -19.0296 O   0  0  0  0  0  0  0  0  0  0  0  0
   27.2103  -22.5757  -16.5330 C   0  0  0  0  0  0  0  0  0  0  0  0
   27.2110  -23.7692  -16.1507 O   0  0  0  0  0  0  0  0  0  0  0  0
   30.5462  -23.3382  -19.0863 O   0  0  0  0  0  0  0  0  0  0  0  0
   20.6706  -20.5370  -13.3708 N   0  0  0  0  0  0  0  0  0  0  0  0
   20.4136  -21.8469  -13.8679 C   0  0  0  0  0  0  0  0  0  0  0  0
   19.1971  -22.2043  -14.1618 N   0  0  0  0  0  0  0  0  0  0  0  0
   21.4394  -22.8052  -14.0647 N   0  0  0  0  0  0  0  0  0  0  0  0
   22.8372  -22.4444  -13.8401 C   0  0  0  0  0  0  0  0  0  0  0  0
   23.3855  -21.8971  -15.1347 C   0  0  0  0  0  0  0  0  0  0  0  0
   24.1227  -22.9589  -15.8634 C   0  0  0  0  0  0  0  0  0  0  0  0
   24.7333  -22.5945  -17.1616 C   0  0  2  0  0  0  0  0  0  0  0  0
   26.0411  -22.0412  -17.1215 N   0  0  0  0  0  0  0  0  0  0  0  0
   23.7204  -21.8273  -17.9351 C   0  0  0  0  0  0  0  0  0  0  0  0
   22.6690  -22.5289  -18.4965 O   0  0  0  0  0  0  0  0  0  0  0  0
   23.7976  -20.6098  -18.0819 O   0  0  0  0  0  0  0  0  0  0  0  0
  2  1  1  1
  2  3  1  0
  3  4  1  0
  4  5  2  0
  5  6  1  0
  7  6  1  0
  8  7  2  0
  9  8  1  0
 10 11  1  0
 10  9  2  0
 11 12  2  0
 12  4  1  0
 12  7  1  0
 13  2  1  0
 13 14  2  0
 15 13  1  0
 16 15  1  0
 16 17  1  1
 18 17  1  0
 19 18  2  0
 20 21  2  0
 20 16  1  0
 22 18  1  0
 23 24  1  0
 24 25  2  0
 26 27  1  0
 26 24  1  0
 27 28  1  0
 29 28  1  0
 30 31  1  0
 30 29  1  1
 31 20  1  0
 32 30  1  0
 33 32  1  0
 34 32  2  0
M  END
$$$$
