WDR.pdb
     RDKit          3D

 34 35  0  0  1  0  0  0  0  0999 V2000
   26.1225  -21.0165  -13.6401 N   0  0  0  0  0  0  0  0  0  0  0  0
   25.4253  -21.0431  -12.3794 C   0  0  1  0  0  0  0  0  0  0  0  0
   26.0311  -20.0336  -11.4536 C   0  0  0  0  0  0  0  0  0  0  0  0
   27.1868  -20.6459  -10.7570 C   0  0  0  0  0  0  0  0  0  0  0  0
   28.3902  -21.0547  -11.3435 C   0  0  0  0  0  0  0  0  0  0  0  0
   29.2232  -21.5271  -10.4040 N   0  0  0  0  0  0  0  0  0  0  0  0
   28.6044  -21.4426   -9.2142 C   0  0  0  0  0  0  0  0  0  0  0  0
   29.0679  -21.8181   -7.9528 C   0  0  0  0  0  0  0  0  0  0  0  0
   28.2569  -21.6520   -6.8561 C   0  0  0  0  0  0  0  0  0  0  0  0
   27.0060  -21.1155   -7.0566 C   0  0  0  0  0  0  0  0  0  0  0  0
   26.5390  -20.7384   -8.3156 C   0  0  0  0  0  0  0  0  0  0  0  0
   27.3551  -20.9065   -9.4031 C   0  0  0  0  0  0  0  0  0  0  0  0
   23.9783  -20.7824  -12.6164 C   0  0  0  0  0  0  0  0  0  0  0  0
   23.6176  -19.6041  -12.8428 O   0  0  0  0  0  0  0  0  0  0  0  0
   22.9744  -21.7882  -12.6028 N   0  0  0  0  0  0  0  0  0  0  0  0
   21.5740  -21.4942  -12.4731 C   0  0  1  0  0  0  0  0  0  0  0  0
   21.0284  -21.0841  -13.8446 C   0  0  0  0  0  0  0  0  0  0  0  0
   19.6078  -20.6783  -13.7853 C   0  0  0  0  0  0  0  0  0  0  0  0
   18.9113  -20.4550  -14.8073 O   0  0  0  0  0  0  0  0  0  0  0  0
   20.8004  -22.6571  -11.9304 C   0  0  0  0  0  0  0  0  0  0  0  0
   20.8011  -23.7357  -12.5685 O   0  0  0  0  0  0  0  0  0  0  0  0
   19.0012  -20.5329  -12.5484 O   0  0  0  0  0  0  0  0  0  0  0  0
   16.2332  -24.2356   -5.2323 N   0  0  0  0  0  0  0  0  0  0  0  0
   16.7762  -25.5194   -5.5262 C   0  0  0  0  0  0  0  0  0  0  0  0
   16.1029  -26.5937   -5.2318 N   0  0  0  0  0  0  0  0  0  0  0  0
   18.0429  -25.6921   -6.1385 N   0  0  0  0  0  0  0  0  0  0  0  0
   18.7008  -24.5676   -6.7996 C   0  0  0  0  0  0  0  0  0  0  0  0
   17.9311  -24.2597   -8.0602 C   0  0  0  0  0  0  0  0  0  0  0  0
   18.6145  -23.1861   -8.8232 C   0  0  0  0  0  0  0  0  0  0  0  0
   19.2907  -23.5713  -10.0822 C   0  0  2  0  0  0  0  0  0  0  0  0
   20.0721  -22.5719  -10.7215 N   0  0  0  0  0  0  0  0  0  0  0  0
   18.2898  -24.2663  -10.9356 C   0  0  0  0  0  0  0  0  0  0  0  0
   18.3552  -25.6455  -11.0150 O   0  0  0  0  0  0  0  0  0  0  0  0
   17.4255  -23.6529  -11.5573 O   0  0  0  0  0  0  0  0  0  0  0  0
  2  1  1  6
  2  3  1  0
  3  4  1  0
  4  5  2  0
  5  6  1  0
  7  6  1  0
  8  7  2  0
  9  8  1  0
 10 11  1  0
 10  9  2  0
 11 12  2  0
 12  4  1  0
 12  7  1  0
 13  2  1  0
 13 14  2  0
 15 13  1  0
 16 15  1  0
 16 17  1  6
 18 17  1  0
 19 18  2  0
 20 21  2  0
 20 16  1  0
 22 18  1  0
 23 24  1  0
 24 25  2  0
 26 27  1  0
 26 24  1  0
 27 28  1  0
 29 28  1  0
 30 31  1  0
 30 29  1  1
 31 20  1  0
 32 30  1  0
 33 32  1  0
 34 32  2  0
M  END
$$$$
