WDR.pdb
     RDKit          3D

 34 35  0  0  1  0  0  0  0  0999 V2000
   26.0171  -22.3348  -13.9686 N   0  0  0  0  0  0  0  0  0  0  0  0
   25.4038  -21.4787  -12.9852 C   0  0  1  0  0  0  0  0  0  0  0  0
   26.0933  -20.1492  -12.9826 C   0  0  0  0  0  0  0  0  0  0  0  0
   27.4213  -20.2924  -12.3409 C   0  0  0  0  0  0  0  0  0  0  0  0
   28.6649  -20.0728  -12.9448 C   0  0  0  0  0  0  0  0  0  0  0  0
   29.6493  -20.2585  -12.0526 N   0  0  0  0  0  0  0  0  0  0  0  0
   29.0918  -20.5950  -10.8771 C   0  0  0  0  0  0  0  0  0  0  0  0
   29.7111  -20.8915   -9.6625 C   0  0  0  0  0  0  0  0  0  0  0  0
   28.9421  -21.2252   -8.5738 C   0  0  0  0  0  0  0  0  0  0  0  0
   27.5761  -21.2523   -8.7353 C   0  0  0  0  0  0  0  0  0  0  0  0
   26.9530  -20.9562   -9.9475 C   0  0  0  0  0  0  0  0  0  0  0  0
   27.7277  -20.6233  -11.0273 C   0  0  0  0  0  0  0  0  0  0  0  0
   23.9511  -21.3510  -13.2873 C   0  0  0  0  0  0  0  0  0  0  0  0
   23.5956  -21.3238  -14.4884 O   0  0  0  0  0  0  0  0  0  0  0  0
   22.9361  -21.2578  -12.2970 N   0  0  0  0  0  0  0  0  0  0  0  0
   21.5349  -21.2239  -12.6134 C   0  0  1  0  0  0  0  0  0  0  0  0
   20.7419  -21.6768  -11.3834 C   0  0  0  0  0  0  0  0  0  0  0  0
   19.3179  -21.9261  -11.6940 C   0  0  0  0  0  0  0  0  0  0  0  0
   18.8275  -21.7837  -12.8424 O   0  0  0  0  0  0  0  0  0  0  0  0
   21.0871  -19.8625  -13.0506 C   0  0  0  0  0  0  0  0  0  0  0  0
   21.1462  -18.9141  -12.2335 O   0  0  0  0  0  0  0  0  0  0  0  0
   18.4703  -22.3377  -10.6784 O   0  0  0  0  0  0  0  0  0  0  0  0
   21.5907  -14.2941  -19.3889 N   0  0  0  0  0  0  0  0  0  0  0  0
   22.3272  -15.3888  -18.8519 C   0  0  0  0  0  0  0  0  0  0  0  0
   23.6281  -15.3821  -18.8962 N   0  0  0  0  0  0  0  0  0  0  0  0
   21.7018  -16.5129  -18.2565 N   0  0  0  0  0  0  0  0  0  0  0  0
   20.2451  -16.6239  -18.2432 C   0  0  0  0  0  0  0  0  0  0  0  0
   19.8102  -16.8094  -16.8105 C   0  0  0  0  0  0  0  0  0  0  0  0
   20.4029  -18.0519  -16.2565 C   0  0  0  0  0  0  0  0  0  0  0  0
   20.0167  -18.4346  -14.8798 C   0  0  2  0  0  0  0  0  0  0  0  0
   20.6017  -19.6184  -14.3559 N   0  0  0  0  0  0  0  0  0  0  0  0
   18.5352  -18.3384  -14.7855 C   0  0  0  0  0  0  0  0  0  0  0  0
   17.8008  -19.4987  -14.9505 O   0  0  0  0  0  0  0  0  0  0  0  0
   17.9638  -17.2724  -14.5686 O   0  0  0  0  0  0  0  0  0  0  0  0
  2  1  1  6
  2  3  1  0
  3  4  1  0
  4  5  2  0
  5  6  1  0
  7  6  1  0
  8  7  2  0
  9  8  1  0
 10 11  1  0
 10  9  2  0
 11 12  2  0
 12  4  1  0
 12  7  1  0
 13  2  1  0
 13 14  2  0
 15 13  1  0
 16 15  1  0
 16 17  1  1
 18 17  1  0
 19 18  2  0
 20 21  2  0
 20 16  1  0
 22 18  1  0
 23 24  1  0
 24 25  2  0
 26 27  1  0
 26 24  1  0
 27 28  1  0
 29 28  1  0
 30 31  1  0
 30 29  1  6
 31 20  1  0
 32 30  1  0
 33 32  1  0
 34 32  2  0
M  END
$$$$
