WDR.pdb
     RDKit          3D

 34 35  0  0  1  0  0  0  0  0999 V2000
   26.2708  -21.9345  -12.6968 N   0  0  0  0  0  0  0  0  0  0  0  0
   25.3119  -21.5412  -11.6958 C   0  0  1  0  0  0  0  0  0  0  0  0
   25.8276  -20.3468  -10.9539 C   0  0  0  0  0  0  0  0  0  0  0  0
   27.0866  -20.7113  -10.2625 C   0  0  0  0  0  0  0  0  0  0  0  0
   28.2255  -21.2741  -10.8503 C   0  0  0  0  0  0  0  0  0  0  0  0
   29.1882  -21.4327   -9.9297 N   0  0  0  0  0  0  0  0  0  0  0  0
   28.7179  -20.9915   -8.7508 C   0  0  0  0  0  0  0  0  0  0  0  0
   29.3497  -20.9612   -7.5071 C   0  0  0  0  0  0  0  0  0  0  0  0
   28.6736  -20.4718   -6.4157 C   0  0  0  0  0  0  0  0  0  0  0  0
   27.3850  -20.0281   -6.6032 C   0  0  0  0  0  0  0  0  0  0  0  0
   26.7498  -20.0562   -7.8446 C   0  0  0  0  0  0  0  0  0  0  0  0
   27.4321  -20.5447   -8.9276 C   0  0  0  0  0  0  0  0  0  0  0  0
   24.0048  -21.2651  -12.3540 C   0  0  0  0  0  0  0  0  0  0  0  0
   23.0207  -20.9942  -11.6274 O   0  0  0  0  0  0  0  0  0  0  0  0
   23.7995  -21.2887  -13.7600 N   0  0  0  0  0  0  0  0  0  0  0  0
   22.5571  -21.6855  -14.3629 C   0  0  1  0  0  0  0  0  0  0  0  0
   21.7567  -20.4272  -14.7137 C   0  0  0  0  0  0  0  0  0  0  0  0
   20.9981  -19.9038  -13.5574 C   0  0  0  0  0  0  0  0  0  0  0  0
   20.1659  -20.5891  -12.9115 O   0  0  0  0  0  0  0  0  0  0  0  0
   22.7654  -22.5286  -15.5840 C   0  0  0  0  0  0  0  0  0  0  0  0
   21.8000  -23.1867  -16.0374 O   0  0  0  0  0  0  0  0  0  0  0  0
   21.2048  -18.5945  -13.1548 O   0  0  0  0  0  0  0  0  0  0  0  0
   29.9853  -26.7999  -15.9688 N   0  0  0  0  0  0  0  0  0  0  0  0
   30.0651  -26.0016  -17.1459 C   0  0  0  0  0  0  0  0  0  0  0  0
   30.6564  -26.4661  -18.2083 N   0  0  0  0  0  0  0  0  0  0  0  0
   29.5200  -24.6954  -17.2226 N   0  0  0  0  0  0  0  0  0  0  0  0
   28.6711  -24.1874  -16.1475 C   0  0  0  0  0  0  0  0  0  0  0  0
   27.2518  -24.6037  -16.4453 C   0  0  0  0  0  0  0  0  0  0  0  0
   26.3207  -23.4895  -16.1392 C   0  0  0  0  0  0  0  0  0  0  0  0
   24.8795  -23.7209  -16.3839 C   0  0  2  0  0  0  0  0  0  0  0  0
   24.0170  -22.6016  -16.2376 N   0  0  0  0  0  0  0  0  0  0  0  0
   24.4894  -24.9502  -15.6425 C   0  0  0  0  0  0  0  0  0  0  0  0
   24.5288  -26.1542  -16.3220 O   0  0  0  0  0  0  0  0  0  0  0  0
   24.1407  -24.9179  -14.4647 O   0  0  0  0  0  0  0  0  0  0  0  0
  2  1  1  6
  2  3  1  0
  3  4  1  0
  4  5  2  0
  5  6  1  0
  7  6  1  0
  8  7  2  0
  9  8  1  0
 10 11  1  0
 10  9  2  0
 11 12  2  0
 12  4  1  0
 12  7  1  0
 13  2  1  0
 13 14  2  0
 15 13  1  0
 16 15  1  0
 16 17  1  6
 18 17  1  0
 19 18  2  0
 20 21  2  0
 20 16  1  0
 22 18  1  0
 23 24  1  0
 24 25  2  0
 26 27  1  0
 26 24  1  0
 27 28  1  0
 29 28  1  0
 30 31  1  0
 30 29  1  1
 31 20  1  0
 32 30  1  0
 33 32  1  0
 34 32  2  0
M  END
$$$$
