QKH.pdb
     RDKit          3D

 29 29  0  0  1  0  0  0  0  0999 V2000
   27.1988  -23.5381  -21.1561 N   0  0  0  0  0  0  0  0  0  0  0  0
   27.6307  -24.6432  -20.3830 C   0  0  0  0  0  0  0  0  0  0  0  0
   28.3238  -25.5442  -20.9050 O   0  0  0  0  0  0  0  0  0  0  0  0
   27.2617  -24.7239  -18.9739 C   0  0  0  0  0  0  0  0  0  0  0  0
   26.3474  -23.6011  -18.5313 C   0  0  0  0  0  0  0  0  0  0  0  0
   27.0080  -22.9486  -17.3390 C   0  0  2  0  0  0  0  0  0  0  0  0
   28.1074  -23.7607  -16.9246 N   0  0  0  0  0  0  0  0  0  0  0  0
   26.0434  -22.6892  -16.2419 C   0  0  0  0  0  0  0  0  0  0  0  0
   24.8454  -23.0398  -16.2973 O   0  0  0  0  0  0  0  0  0  0  0  0
   26.4749  -22.0179  -15.0737 N   0  0  0  0  0  0  0  0  0  0  0  0
   25.5649  -21.6713  -13.9708 C   0  0  1  0  0  0  0  0  0  0  0  0
   26.3353  -21.0381  -12.8462 C   0  0  0  0  0  0  0  0  0  0  0  0
   25.4211  -20.7439  -11.6939 C   0  0  0  0  0  0  0  0  0  0  0  0
   26.0751  -21.1230  -10.3561 C   0  0  0  0  0  0  0  0  0  0  0  0
   25.1315  -20.8527   -9.2354 C   0  0  0  0  0  0  0  0  0  0  0  0
   25.7640  -21.0766   -7.9367 N   0  0  0  0  0  0  0  0  0  0  0  0
   24.4246  -20.8932  -14.4766 C   0  0  0  0  0  0  0  0  0  0  0  0
   24.5195  -19.7900  -15.0584 O   0  0  0  0  0  0  0  0  0  0  0  0
   23.0622  -21.3776  -14.3256 N   0  0  0  0  0  0  0  0  0  0  0  0
   21.9261  -20.5300  -14.5743 C   0  0  1  0  0  0  0  0  0  0  0  0
   20.9495  -21.0341  -15.5699 C   0  0  0  0  0  0  0  0  0  0  0  0
   21.3026  -20.9373  -16.9791 C   0  0  0  0  0  0  0  0  0  0  0  0
   22.5064  -21.1024  -17.5879 C   0  0  0  0  0  0  0  0  0  0  0  0
   22.3572  -20.9488  -18.9433 N   0  0  0  0  0  0  0  0  0  0  0  0
   21.0606  -20.6948  -19.1132 C   0  0  0  0  0  0  0  0  0  0  0  0
   20.4083  -20.6824  -17.9572 N   0  0  0  0  0  0  0  0  0  0  0  0
   21.2733  -20.1094  -13.2950 C   0  0  0  0  0  0  0  0  0  0  0  0
   21.6435  -20.6014  -12.0548 O   0  0  0  0  0  0  0  0  0  0  0  0
   20.3409  -19.2678  -13.3359 O   0  0  0  0  0  0  0  0  0  0  0  0
  2  1  1  0
  2  3  2  0
  4  2  1  0
  5  4  1  0
  5  6  1  0
  6  7  1  1
  8  6  1  0
  8  9  2  0
 10  8  1  0
 11 10  1  0
 11 12  1  1
 13 12  1  0
 13 14  1  0
 15 14  1  0
 16 15  1  0
 17 11  1  0
 18 17  2  0
 19 17  1  0
 20 19  1  0
 20 27  1  0
 20 21  1  6
 22 23  2  0
 22 21  1  0
 24 23  1  0
 25 26  2  0
 25 24  1  0
 26 22  1  0
 27 28  1  0
 29 27  2  0
M  END
$$$$
