QKH.pdb
     RDKit          3D

 29 29  0  0  1  0  0  0  0  0999 V2000
   22.8458  -12.9035  -15.6164 N   0  0  0  0  0  0  0  0  0  0  0  0
   24.2589  -12.8142  -15.6352 C   0  0  0  0  0  0  0  0  0  0  0  0
   24.8180  -11.7012  -15.7505 O   0  0  0  0  0  0  0  0  0  0  0  0
   25.0584  -14.0290  -15.5196 C   0  0  0  0  0  0  0  0  0  0  0  0
   24.2221  -15.2804  -15.3552 C   0  0  0  0  0  0  0  0  0  0  0  0
   24.4752  -16.1343  -16.5760 C   0  0  2  0  0  0  0  0  0  0  0  0
   23.9583  -15.4573  -17.7224 N   0  0  0  0  0  0  0  0  0  0  0  0
   23.9216  -17.5023  -16.4220 C   0  0  0  0  0  0  0  0  0  0  0  0
   22.7003  -17.7262  -16.2829 O   0  0  0  0  0  0  0  0  0  0  0  0
   24.7939  -18.6161  -16.4299 N   0  0  0  0  0  0  0  0  0  0  0  0
   24.3626  -19.9697  -16.0473 C   0  0  1  0  0  0  0  0  0  0  0  0
   25.2333  -20.9966  -16.7154 C   0  0  0  0  0  0  0  0  0  0  0  0
   24.7778  -22.3783  -16.3499 C   0  0  0  0  0  0  0  0  0  0  0  0
   25.6094  -23.4468  -17.0763 C   0  0  0  0  0  0  0  0  0  0  0  0
   25.0533  -24.8001  -16.7955 C   0  0  0  0  0  0  0  0  0  0  0  0
   25.8353  -25.8472  -17.4504 N   0  0  0  0  0  0  0  0  0  0  0  0
   24.2613  -20.0778  -14.5845 C   0  0  0  0  0  0  0  0  0  0  0  0
   25.1849  -19.8049  -13.7864 O   0  0  0  0  0  0  0  0  0  0  0  0
   23.0323  -20.5263  -13.9506 N   0  0  0  0  0  0  0  0  0  0  0  0
   23.0345  -21.1536  -12.6554 C   0  0  1  0  0  0  0  0  0  0  0  0
   23.2427  -20.2483  -11.4994 C   0  0  0  0  0  0  0  0  0  0  0  0
   23.0319  -20.7896  -10.1644 C   0  0  0  0  0  0  0  0  0  0  0  0
   22.6973  -22.0492   -9.7790 C   0  0  0  0  0  0  0  0  0  0  0  0
   22.6403  -22.1073   -8.4091 N   0  0  0  0  0  0  0  0  0  0  0  0
   22.9444  -20.8745   -8.0064 C   0  0  0  0  0  0  0  0  0  0  0  0
   23.1828  -20.0684   -9.0337 N   0  0  0  0  0  0  0  0  0  0  0  0
   21.8413  -22.0397  -12.4803 C   0  0  0  0  0  0  0  0  0  0  0  0
   21.8147  -23.1162  -11.6099 O   0  0  0  0  0  0  0  0  0  0  0  0
   20.8054  -21.8047  -13.1518 O   0  0  0  0  0  0  0  0  0  0  0  0
  2  1  1  0
  2  3  2  0
  4  2  1  0
  5  4  1  0
  5  6  1  0
  6  7  1  6
  8  6  1  0
  8  9  2  0
 10  8  1  0
 11 10  1  0
 11 12  1  1
 13 12  1  0
 13 14  1  0
 15 14  1  0
 16 15  1  0
 17 11  1  0
 18 17  2  0
 19 17  1  0
 20 19  1  0
 20 27  1  0
 20 21  1  1
 22 23  2  0
 22 21  1  0
 24 23  1  0
 25 26  2  0
 25 24  1  0
 26 22  1  0
 27 28  1  0
 29 27  2  0
M  END
$$$$
