QKH.pdb
     RDKit          3D

 29 29  0  0  1  0  0  0  0  0999 V2000
   21.2524  -32.3577  -13.3034 N   0  0  0  0  0  0  0  0  0  0  0  0
   21.4692  -32.1819  -14.6917 C   0  0  0  0  0  0  0  0  0  0  0  0
   21.4878  -33.1717  -15.4563 O   0  0  0  0  0  0  0  0  0  0  0  0
   21.6710  -30.8388  -15.2242 C   0  0  0  0  0  0  0  0  0  0  0  0
   21.6884  -29.7686  -14.1533 C   0  0  0  0  0  0  0  0  0  0  0  0
   21.8254  -28.4436  -14.8667 C   0  0  2  0  0  0  0  0  0  0  0  0
   23.1270  -28.3713  -15.4504 N   0  0  0  0  0  0  0  0  0  0  0  0
   21.5364  -27.2971  -13.9703 C   0  0  0  0  0  0  0  0  0  0  0  0
   22.2953  -26.9602  -13.0367 O   0  0  0  0  0  0  0  0  0  0  0  0
   20.3577  -26.5383  -14.1612 N   0  0  0  0  0  0  0  0  0  0  0  0
   20.0297  -25.3564  -13.3487 C   0  0  1  0  0  0  0  0  0  0  0  0
   19.5305  -24.2465  -14.2309 C   0  0  0  0  0  0  0  0  0  0  0  0
   20.6755  -23.6145  -14.9655 C   0  0  0  0  0  0  0  0  0  0  0  0
   20.1920  -22.4644  -15.8624 C   0  0  0  0  0  0  0  0  0  0  0  0
   21.3238  -21.9516  -16.6843 C   0  0  0  0  0  0  0  0  0  0  0  0
   20.8866  -20.9012  -17.6021 N   0  0  0  0  0  0  0  0  0  0  0  0
   19.1431  -25.7320  -12.2376 C   0  0  0  0  0  0  0  0  0  0  0  0
   18.1296  -26.4562  -12.3512 O   0  0  0  0  0  0  0  0  0  0  0  0
   19.4004  -25.2663  -10.8847 N   0  0  0  0  0  0  0  0  0  0  0  0
   18.4979  -25.5539   -9.8013 C   0  0  1  0  0  0  0  0  0  0  0  0
   19.0958  -25.5515   -8.4443 C   0  0  0  0  0  0  0  0  0  0  0  0
   18.2035  -25.7250   -7.3070 C   0  0  0  0  0  0  0  0  0  0  0  0
   16.8475  -25.8079   -7.2696 C   0  0  0  0  0  0  0  0  0  0  0  0
   16.4379  -26.0052   -5.9748 N   0  0  0  0  0  0  0  0  0  0  0  0
   17.5651  -26.0362   -5.2655 C   0  0  0  0  0  0  0  0  0  0  0  0
   18.6334  -25.8717   -6.0361 N   0  0  0  0  0  0  0  0  0  0  0  0
   17.2649  -24.7098   -9.8845 C   0  0  0  0  0  0  0  0  0  0  0  0
   16.0423  -25.0959   -9.3616 O   0  0  0  0  0  0  0  0  0  0  0  0
   17.3302  -23.5922  -10.4554 O   0  0  0  0  0  0  0  0  0  0  0  0
  2  1  1  0
  2  3  2  0
  4  2  1  0
  5  4  1  0
  5  6  1  0
  6  7  1  1
  8  6  1  0
  8  9  2  0
 10  8  1  0
 11 10  1  0
 11 12  1  6
 13 12  1  0
 13 14  1  0
 15 14  1  0
 16 15  1  0
 17 11  1  0
 18 17  2  0
 19 17  1  0
 20 19  1  0
 20 27  1  0
 20 21  1  1
 22 23  2  0
 22 21  1  0
 24 23  1  0
 25 26  2  0
 25 24  1  0
 26 22  1  0
 27 28  1  0
 29 27  2  0
M  END
$$$$
