QKH.pdb
     RDKit          3D

 29 29  0  0  1  0  0  0  0  0999 V2000
   24.6179  -20.5656   -9.6307 N   0  0  0  0  0  0  0  0  0  0  0  0
   25.9628  -20.9953   -9.7405 C   0  0  0  0  0  0  0  0  0  0  0  0
   26.5082  -21.6047   -8.7941 O   0  0  0  0  0  0  0  0  0  0  0  0
   26.7079  -20.7222  -10.9647 C   0  0  0  0  0  0  0  0  0  0  0  0
   25.9333  -19.8851  -11.9605 C   0  0  0  0  0  0  0  0  0  0  0  0
   25.0556  -20.8383  -12.7381 C   0  0  2  0  0  0  0  0  0  0  0  0
   25.8719  -21.8862  -13.2630 N   0  0  0  0  0  0  0  0  0  0  0  0
   24.2733  -20.1420  -13.7891 C   0  0  0  0  0  0  0  0  0  0  0  0
   23.6685  -19.0683  -13.5828 O   0  0  0  0  0  0  0  0  0  0  0  0
   24.1943  -20.6979  -15.0877 N   0  0  0  0  0  0  0  0  0  0  0  0
   23.3427  -20.1336  -16.1464 C   0  0  1  0  0  0  0  0  0  0  0  0
   23.8707  -20.5270  -17.4975 C   0  0  0  0  0  0  0  0  0  0  0  0
   23.9328  -19.3289  -18.3980 C   0  0  0  0  0  0  0  0  0  0  0  0
   25.3203  -19.1916  -19.0438 C   0  0  0  0  0  0  0  0  0  0  0  0
   25.3093  -18.0831  -20.0390 C   0  0  0  0  0  0  0  0  0  0  0  0
   26.6146  -17.9230  -20.6772 N   0  0  0  0  0  0  0  0  0  0  0  0
   21.9320  -20.4630  -15.8954 C   0  0  0  0  0  0  0  0  0  0  0  0
   21.5331  -21.5271  -15.3729 O   0  0  0  0  0  0  0  0  0  0  0  0
   20.8717  -19.5349  -16.2532 N   0  0  0  0  0  0  0  0  0  0  0  0
   19.8842  -19.1094  -15.2967 C   0  0  1  0  0  0  0  0  0  0  0  0
   20.4085  -18.6487  -13.9883 C   0  0  0  0  0  0  0  0  0  0  0  0
   20.0884  -19.4413  -12.8096 C   0  0  0  0  0  0  0  0  0  0  0  0
   19.3971  -20.6068  -12.7062 C   0  0  0  0  0  0  0  0  0  0  0  0
   19.3729  -21.0081  -11.3941 N   0  0  0  0  0  0  0  0  0  0  0  0
   20.0545  -20.0680  -10.7413 C   0  0  0  0  0  0  0  0  0  0  0  0
   20.4927  -19.1214  -11.5623 N   0  0  0  0  0  0  0  0  0  0  0  0
   18.9261  -18.1336  -15.9046 C   0  0  0  0  0  0  0  0  0  0  0  0
   17.5579  -18.3405  -15.9525 O   0  0  0  0  0  0  0  0  0  0  0  0
   19.3744  -17.0690  -16.3998 O   0  0  0  0  0  0  0  0  0  0  0  0
  2  1  1  0
  2  3  2  0
  4  2  1  0
  5  4  1  0
  5  6  1  0
  6  7  1  6
  8  6  1  0
  8  9  2  0
 10  8  1  0
 11 10  1  0
 11 12  1  6
 13 12  1  0
 13 14  1  0
 15 14  1  0
 16 15  1  0
 17 11  1  0
 18 17  2  0
 19 17  1  0
 20 19  1  0
 20 27  1  0
 20 21  1  1
 22 23  2  0
 22 21  1  0
 24 23  1  0
 25 26  2  0
 25 24  1  0
 26 22  1  0
 27 28  1  0
 29 27  2  0
M  END
$$$$
