QKH.pdb
     RDKit          3D

 29 29  0  0  1  0  0  0  0  0999 V2000
   22.0008  -15.2318  -20.5881 N   0  0  0  0  0  0  0  0  0  0  0  0
   23.1368  -14.8164  -21.3243 C   0  0  0  0  0  0  0  0  0  0  0  0
   23.0696  -13.8188  -22.0759 O   0  0  0  0  0  0  0  0  0  0  0  0
   24.3860  -15.5597  -21.2005 C   0  0  0  0  0  0  0  0  0  0  0  0
   24.2549  -16.8107  -20.3577 C   0  0  0  0  0  0  0  0  0  0  0  0
   24.4350  -16.3849  -18.9190 C   0  0  2  0  0  0  0  0  0  0  0  0
   25.6576  -15.6550  -18.8081 N   0  0  0  0  0  0  0  0  0  0  0  0
   24.3701  -17.5368  -17.9861 C   0  0  0  0  0  0  0  0  0  0  0  0
   23.4082  -18.3339  -17.9612 O   0  0  0  0  0  0  0  0  0  0  0  0
   25.4304  -17.7627  -17.0770 N   0  0  0  0  0  0  0  0  0  0  0  0
   25.4346  -18.8784  -16.1179 C   0  0  1  0  0  0  0  0  0  0  0  0
   26.8266  -19.1073  -15.5992 C   0  0  0  0  0  0  0  0  0  0  0  0
   27.6095  -19.9422  -16.5688 C   0  0  0  0  0  0  0  0  0  0  0  0
   27.5418  -21.4320  -16.1988 C   0  0  0  0  0  0  0  0  0  0  0  0
   28.3153  -22.2358  -17.1863 C   0  0  0  0  0  0  0  0  0  0  0  0
   28.3635  -23.6469  -16.8082 N   0  0  0  0  0  0  0  0  0  0  0  0
   24.4007  -18.6731  -15.0930 C   0  0  0  0  0  0  0  0  0  0  0  0
   24.3639  -17.7020  -14.3055 O   0  0  0  0  0  0  0  0  0  0  0  0
   23.3140  -19.6242  -14.9252 N   0  0  0  0  0  0  0  0  0  0  0  0
   22.1021  -19.2737  -14.2328 C   0  0  1  0  0  0  0  0  0  0  0  0
   21.4941  -17.9752  -14.6114 C   0  0  0  0  0  0  0  0  0  0  0  0
   20.2295  -17.6088  -13.9899 C   0  0  0  0  0  0  0  0  0  0  0  0
   19.4926  -18.2717  -13.0601 C   0  0  0  0  0  0  0  0  0  0  0  0
   18.3843  -17.5280  -12.7413 N   0  0  0  0  0  0  0  0  0  0  0  0
   18.4861  -16.4322  -13.4920 C   0  0  0  0  0  0  0  0  0  0  0  0
   19.5781  -16.4549  -14.2462 N   0  0  0  0  0  0  0  0  0  0  0  0
   21.1152  -20.3983  -14.2645 C   0  0  0  0  0  0  0  0  0  0  0  0
   21.4003  -21.6455  -14.7941 O   0  0  0  0  0  0  0  0  0  0  0  0
   19.9666  -20.2132  -13.7894 O   0  0  0  0  0  0  0  0  0  0  0  0
  2  1  1  0
  2  3  2  0
  4  2  1  0
  5  4  1  0
  5  6  1  0
  6  7  1  6
  8  6  1  0
  8  9  2  0
 10  8  1  0
 11 10  1  0
 11 12  1  1
 13 12  1  0
 13 14  1  0
 15 14  1  0
 16 15  1  0
 17 11  1  0
 18 17  2  0
 19 17  1  0
 20 19  1  0
 20 27  1  0
 20 21  1  6
 22 23  2  0
 22 21  1  0
 24 23  1  0
 25 26  2  0
 25 24  1  0
 26 22  1  0
 27 28  1  0
 29 27  2  0
M  END
$$$$
