QKH.pdb
     RDKit          3D

 29 29  0  0  1  0  0  0  0  0999 V2000
   21.2934  -18.8889  -14.2311 N   0  0  0  0  0  0  0  0  0  0  0  0
   20.4600  -17.7618  -14.4318 C   0  0  0  0  0  0  0  0  0  0  0  0
   20.0040  -17.1334  -13.4510 O   0  0  0  0  0  0  0  0  0  0  0  0
   20.1366  -17.3384  -15.7899 C   0  0  0  0  0  0  0  0  0  0  0  0
   20.5560  -15.9142  -16.0867 C   0  0  0  0  0  0  0  0  0  0  0  0
   19.5356  -15.0155  -15.4274 C   0  0  2  0  0  0  0  0  0  0  0  0
   18.2754  -15.6875  -15.4145 N   0  0  0  0  0  0  0  0  0  0  0  0
   19.4664  -13.6831  -16.0765 C   0  0  0  0  0  0  0  0  0  0  0  0
   20.4793  -12.9874  -16.3031 O   0  0  0  0  0  0  0  0  0  0  0  0
   18.2117  -13.1569  -16.4643 N   0  0  0  0  0  0  0  0  0  0  0  0
   18.0614  -11.8377  -17.0980 C   0  0  1  0  0  0  0  0  0  0  0  0
   16.6581  -11.6678  -17.6089 C   0  0  0  0  0  0  0  0  0  0  0  0
   16.5499  -10.4078  -18.4156 C   0  0  0  0  0  0  0  0  0  0  0  0
   15.1123  -10.1885  -18.9117 C   0  0  0  0  0  0  0  0  0  0  0  0
   15.0404   -8.9417  -19.7240 C   0  0  0  0  0  0  0  0  0  0  0  0
   13.7245   -8.7780  -20.3390 N   0  0  0  0  0  0  0  0  0  0  0  0
   18.5407  -10.7811  -16.1950 C   0  0  0  0  0  0  0  0  0  0  0  0
   18.3930  -10.7871  -14.9530 O   0  0  0  0  0  0  0  0  0  0  0  0
   19.2439   -9.6179  -16.7109 N   0  0  0  0  0  0  0  0  0  0  0  0
   19.7096   -8.5689  -15.8427 C   0  0  1  0  0  0  0  0  0  0  0  0
   20.9015   -7.8224  -16.3129 C   0  0  0  0  0  0  0  0  0  0  0  0
   21.4125   -6.7534  -15.4669 C   0  0  0  0  0  0  0  0  0  0  0  0
   21.0637   -6.4036  -14.2007 C   0  0  0  0  0  0  0  0  0  0  0  0
   21.8388   -5.3487  -13.7888 N   0  0  0  0  0  0  0  0  0  0  0  0
   22.6370   -5.0923  -14.8240 C   0  0  0  0  0  0  0  0  0  0  0  0
   22.4036   -5.9160  -15.8384 N   0  0  0  0  0  0  0  0  0  0  0  0
   18.5893   -7.6624  -15.4390 C   0  0  0  0  0  0  0  0  0  0  0  0
   18.2860   -7.3691  -14.1203 O   0  0  0  0  0  0  0  0  0  0  0  0
   17.8813   -7.1348  -16.3333 O   0  0  0  0  0  0  0  0  0  0  0  0
  2  1  1  0
  2  3  2  0
  4  2  1  0
  5  4  1  0
  5  6  1  0
  6  7  1  6
  8  6  1  0
  8  9  2  0
 10  8  1  0
 11 10  1  0
 11 12  1  1
 13 12  1  0
 13 14  1  0
 15 14  1  0
 16 15  1  0
 17 11  1  0
 18 17  2  0
 19 17  1  0
 20 19  1  0
 20 27  1  0
 20 21  1  6
 22 23  2  0
 22 21  1  0
 24 23  1  0
 25 26  2  0
 25 24  1  0
 26 22  1  0
 27 28  1  0
 29 27  2  0
M  END
$$$$
