QKH.pdb
     RDKit          3D

 29 29  0  0  1  0  0  0  0  0999 V2000
   26.9435  -34.9305   -8.9852 N   0  0  0  0  0  0  0  0  0  0  0  0
   25.9960  -33.9322   -8.6517 C   0  0  0  0  0  0  0  0  0  0  0  0
   25.3693  -33.9950   -7.5710 O   0  0  0  0  0  0  0  0  0  0  0  0
   25.7557  -32.8302   -9.5770 C   0  0  0  0  0  0  0  0  0  0  0  0
   24.6534  -31.8978   -9.1210 C   0  0  0  0  0  0  0  0  0  0  0  0
   23.3509  -32.5059   -9.5869 C   0  0  2  0  0  0  0  0  0  0  0  0
   23.2823  -32.4043  -11.0099 N   0  0  0  0  0  0  0  0  0  0  0  0
   22.1792  -31.8941   -8.9129 C   0  0  0  0  0  0  0  0  0  0  0  0
   21.9327  -30.6702   -8.9632 O   0  0  0  0  0  0  0  0  0  0  0  0
   21.2892  -32.7107   -8.1763 N   0  0  0  0  0  0  0  0  0  0  0  0
   20.1112  -32.1764   -7.4753 C   0  0  1  0  0  0  0  0  0  0  0  0
   18.8974  -32.2771   -8.3559 C   0  0  0  0  0  0  0  0  0  0  0  0
   17.7221  -31.6200   -7.6946 C   0  0  0  0  0  0  0  0  0  0  0  0
   16.4528  -31.7649   -8.5482 C   0  0  0  0  0  0  0  0  0  0  0  0
   15.3110  -31.0799   -7.8799 C   0  0  0  0  0  0  0  0  0  0  0  0
   14.0663  -31.2635   -8.6240 N   0  0  0  0  0  0  0  0  0  0  0  0
   19.9852  -32.7939   -6.1470 C   0  0  0  0  0  0  0  0  0  0  0  0
   19.9331  -34.0261   -5.9385 O   0  0  0  0  0  0  0  0  0  0  0  0
   19.9105  -31.9776   -4.9463 N   0  0  0  0  0  0  0  0  0  0  0  0
   19.8414  -32.5660   -3.6348 C   0  0  1  0  0  0  0  0  0  0  0  0
   21.0017  -32.3068   -2.7484 C   0  0  0  0  0  0  0  0  0  0  0  0
   22.3197  -32.7107   -3.2167 C   0  0  0  0  0  0  0  0  0  0  0  0
   22.6865  -33.2890   -4.3906 C   0  0  0  0  0  0  0  0  0  0  0  0
   24.0479  -33.4601   -4.4092 N   0  0  0  0  0  0  0  0  0  0  0  0
   24.4646  -32.9767   -3.2399 C   0  0  0  0  0  0  0  0  0  0  0  0
   23.4535  -32.5230   -2.5092 N   0  0  0  0  0  0  0  0  0  0  0  0
   18.5352  -32.2598   -2.9716 C   0  0  0  0  0  0  0  0  0  0  0  0
   18.1758  -32.7612   -1.7320 O   0  0  0  0  0  0  0  0  0  0  0  0
   17.7152  -31.5108   -3.5598 O   0  0  0  0  0  0  0  0  0  0  0  0
  2  1  1  0
  2  3  2  0
  4  2  1  0
  5  4  1  0
  5  6  1  0
  6  7  1  6
  8  6  1  0
  8  9  2  0
 10  8  1  0
 11 10  1  0
 11 12  1  6
 13 12  1  0
 13 14  1  0
 15 14  1  0
 16 15  1  0
 17 11  1  0
 18 17  2  0
 19 17  1  0
 20 19  1  0
 20 27  1  0
 20 21  1  1
 22 23  2  0
 22 21  1  0
 24 23  1  0
 25 26  2  0
 25 24  1  0
 26 22  1  0
 27 28  1  0
 29 27  2  0
M  END
$$$$
