QKH.pdb
     RDKit          3D

 29 29  0  0  1  0  0  0  0  0999 V2000
   17.6038  -27.3822   -5.5378 N   0  0  0  0  0  0  0  0  0  0  0  0
   16.2214  -27.5797   -5.7730 C   0  0  0  0  0  0  0  0  0  0  0  0
   15.8312  -28.0767   -6.8525 O   0  0  0  0  0  0  0  0  0  0  0  0
   15.2554  -27.1994   -4.7480 C   0  0  0  0  0  0  0  0  0  0  0  0
   15.9001  -26.6258   -3.5039 C   0  0  0  0  0  0  0  0  0  0  0  0
   15.4445  -25.1886   -3.4029 C   0  0  2  0  0  0  0  0  0  0  0  0
   16.0411  -24.4443   -4.4659 N   0  0  0  0  0  0  0  0  0  0  0  0
   15.7298  -24.6076   -2.0678 C   0  0  0  0  0  0  0  0  0  0  0  0
   16.8618  -24.1944   -1.7376 O   0  0  0  0  0  0  0  0  0  0  0  0
   14.6921  -24.5065   -1.1114 N   0  0  0  0  0  0  0  0  0  0  0  0
   14.8984  -23.9456    0.2330 C   0  0  1  0  0  0  0  0  0  0  0  0
   13.5975  -23.4307    0.7822 C   0  0  0  0  0  0  0  0  0  0  0  0
   13.4260  -21.9817    0.4340 C   0  0  0  0  0  0  0  0  0  0  0  0
   12.1061  -21.4292    0.9938 C   0  0  0  0  0  0  0  0  0  0  0  0
   12.0015  -19.9720    0.7018 C   0  0  0  0  0  0  0  0  0  0  0  0
   10.7364  -19.4189    1.1816 N   0  0  0  0  0  0  0  0  0  0  0  0
   15.6095  -24.9108    1.0842 C   0  0  0  0  0  0  0  0  0  0  0  0
   15.4809  -26.1528    1.0102 O   0  0  0  0  0  0  0  0  0  0  0  0
   16.5430  -24.4630    2.1048 N   0  0  0  0  0  0  0  0  0  0  0  0
   17.1387  -25.3805    3.0399 C   0  0  1  0  0  0  0  0  0  0  0  0
   18.6209  -25.3859    3.0847 C   0  0  0  0  0  0  0  0  0  0  0  0
   19.2694  -26.2556    4.0557 C   0  0  0  0  0  0  0  0  0  0  0  0
   18.7910  -27.3557    4.6945 C   0  0  0  0  0  0  0  0  0  0  0  0
   19.7718  -27.8784    5.4995 N   0  0  0  0  0  0  0  0  0  0  0  0
   20.8187  -27.0742    5.3212 C   0  0  0  0  0  0  0  0  0  0  0  0
   20.5459  -26.0977    4.4644 N   0  0  0  0  0  0  0  0  0  0  0  0
   16.5259  -25.2438    4.3983 C   0  0  0  0  0  0  0  0  0  0  0  0
   16.8598  -26.0565    5.4685 O   0  0  0  0  0  0  0  0  0  0  0  0
   15.6635  -24.3499    4.5895 O   0  0  0  0  0  0  0  0  0  0  0  0
  2  1  1  0
  2  3  2  0
  4  2  1  0
  5  4  1  0
  5  6  1  0
  6  7  1  6
  8  6  1  0
  8  9  2  0
 10  8  1  0
 11 10  1  0
 11 12  1  1
 13 12  1  0
 13 14  1  0
 15 14  1  0
 16 15  1  0
 17 11  1  0
 18 17  2  0
 19 17  1  0
 20 19  1  0
 20 27  1  0
 20 21  1  1
 22 23  2  0
 22 21  1  0
 24 23  1  0
 25 26  2  0
 25 24  1  0
 26 22  1  0
 27 28  1  0
 29 27  2  0
M  END
$$$$
