QKH.pdb
     RDKit          3D

 29 29  0  0  1  0  0  0  0  0999 V2000
   27.7613  -22.2409  -21.0950 N   0  0  0  0  0  0  0  0  0  0  0  0
   28.7343  -21.3016  -20.6750 C   0  0  0  0  0  0  0  0  0  0  0  0
   29.7565  -21.1017  -21.3677 O   0  0  0  0  0  0  0  0  0  0  0  0
   28.5368  -20.5689  -19.4291 C   0  0  0  0  0  0  0  0  0  0  0  0
   27.2767  -20.9723  -18.6930 C   0  0  0  0  0  0  0  0  0  0  0  0
   27.0902  -19.9744  -17.5736 C   0  0  2  0  0  0  0  0  0  0  0  0
   28.3767  -19.5569  -17.1147 N   0  0  0  0  0  0  0  0  0  0  0  0
   26.2417  -20.5146  -16.4829 C   0  0  0  0  0  0  0  0  0  0  0  0
   25.2353  -21.2236  -16.6966 O   0  0  0  0  0  0  0  0  0  0  0  0
   26.5659  -20.2283  -15.1359 N   0  0  0  0  0  0  0  0  0  0  0  0
   25.7003  -20.6094  -14.0089 C   0  0  1  0  0  0  0  0  0  0  0  0
   26.4129  -20.3700  -12.7073 C   0  0  0  0  0  0  0  0  0  0  0  0
   25.5508  -20.8018  -11.5582 C   0  0  0  0  0  0  0  0  0  0  0  0
   26.2604  -20.5709  -10.2150 C   0  0  0  0  0  0  0  0  0  0  0  0
   25.4063  -21.0643   -9.0985 C   0  0  0  0  0  0  0  0  0  0  0  0
   25.9770  -20.7238   -7.7966 N   0  0  0  0  0  0  0  0  0  0  0  0
   24.3832  -19.9691  -14.1389 C   0  0  0  0  0  0  0  0  0  0  0  0
   24.2034  -18.7699  -14.4455 O   0  0  0  0  0  0  0  0  0  0  0  0
   23.1599  -20.7207  -13.9101 N   0  0  0  0  0  0  0  0  0  0  0  0
   21.8672  -20.1791  -14.2364 C   0  0  1  0  0  0  0  0  0  0  0  0
   21.6896  -19.7309  -15.6388 C   0  0  0  0  0  0  0  0  0  0  0  0
   20.3954  -19.1836  -16.0198 C   0  0  0  0  0  0  0  0  0  0  0  0
   19.6262  -18.2531  -15.3956 C   0  0  0  0  0  0  0  0  0  0  0  0
   18.4971  -18.0207  -16.1400 N   0  0  0  0  0  0  0  0  0  0  0  0
   18.6193  -18.8218  -17.1973 C   0  0  0  0  0  0  0  0  0  0  0  0
   19.7431  -19.5266  -17.1505 N   0  0  0  0  0  0  0  0  0  0  0  0
   20.7685  -21.0886  -13.7832 C   0  0  0  0  0  0  0  0  0  0  0  0
   20.6119  -22.3830  -14.2493 O   0  0  0  0  0  0  0  0  0  0  0  0
   19.9402  -20.6674  -12.9372 O   0  0  0  0  0  0  0  0  0  0  0  0
  2  1  1  0
  2  3  2  0
  4  2  1  0
  5  4  1  0
  5  6  1  0
  6  7  1  1
  8  6  1  0
  8  9  2  0
 10  8  1  0
 11 10  1  0
 11 12  1  1
 13 12  1  0
 13 14  1  0
 15 14  1  0
 16 15  1  0
 17 11  1  0
 18 17  2  0
 19 17  1  0
 20 19  1  0
 20 27  1  0
 20 21  1  6
 22 23  2  0
 22 21  1  0
 24 23  1  0
 25 26  2  0
 25 24  1  0
 26 22  1  0
 27 28  1  0
 29 27  2  0
M  END
$$$$
