QKH.pdb
     RDKit          3D

 29 29  0  0  1  0  0  0  0  0999 V2000
   25.8147  -13.0578  -16.1749 N   0  0  0  0  0  0  0  0  0  0  0  0
   27.0239  -13.5968  -16.6774 C   0  0  0  0  0  0  0  0  0  0  0  0
   27.8350  -12.8641  -17.2856 O   0  0  0  0  0  0  0  0  0  0  0  0
   27.3173  -15.0123  -16.4812 C   0  0  0  0  0  0  0  0  0  0  0  0
   26.2320  -15.7472  -15.7233 C   0  0  0  0  0  0  0  0  0  0  0  0
   26.7426  -17.1495  -15.4859 C   0  0  2  0  0  0  0  0  0  0  0  0
   27.9536  -17.3257  -16.2222 N   0  0  0  0  0  0  0  0  0  0  0  0
   25.7213  -18.1755  -15.8112 C   0  0  0  0  0  0  0  0  0  0  0  0
   25.2468  -18.3178  -16.9582 O   0  0  0  0  0  0  0  0  0  0  0  0
   25.2494  -19.0408  -14.7962 N   0  0  0  0  0  0  0  0  0  0  0  0
   24.3236  -20.1527  -15.0629 C   0  0  1  0  0  0  0  0  0  0  0  0
   24.8286  -21.4111  -14.4142 C   0  0  0  0  0  0  0  0  0  0  0  0
   23.9459  -22.5692  -14.7744 C   0  0  0  0  0  0  0  0  0  0  0  0
   24.3329  -23.8285  -13.9836 C   0  0  0  0  0  0  0  0  0  0  0  0
   23.5014  -24.9821  -14.4278 C   0  0  0  0  0  0  0  0  0  0  0  0
   23.8537  -26.2049  -13.7086 N   0  0  0  0  0  0  0  0  0  0  0  0
   22.9488  -19.7660  -14.7140 C   0  0  0  0  0  0  0  0  0  0  0  0
   22.6035  -19.2885  -13.6107 O   0  0  0  0  0  0  0  0  0  0  0  0
   21.8628  -19.9209  -15.6680 N   0  0  0  0  0  0  0  0  0  0  0  0
   20.5090  -19.5610  -15.3381 C   0  0  1  0  0  0  0  0  0  0  0  0
   19.6199  -19.2678  -16.4881 C   0  0  0  0  0  0  0  0  0  0  0  0
   18.2598  -18.8333  -16.2034 C   0  0  0  0  0  0  0  0  0  0  0  0
   17.6843  -18.4946  -15.0197 C   0  0  0  0  0  0  0  0  0  0  0  0
   16.3839  -18.1139  -15.2369 N   0  0  0  0  0  0  0  0  0  0  0  0
   16.2125  -18.2343  -16.5525 C   0  0  0  0  0  0  0  0  0  0  0  0
   17.3164  -18.6616  -17.1532 N   0  0  0  0  0  0  0  0  0  0  0  0
   19.9047  -20.5425  -14.3836 C   0  0  0  0  0  0  0  0  0  0  0  0
   19.2884  -20.1718  -13.2004 O   0  0  0  0  0  0  0  0  0  0  0  0
   19.9529  -21.7677  -14.6591 O   0  0  0  0  0  0  0  0  0  0  0  0
  2  1  1  0
  2  3  2  0
  4  2  1  0
  5  4  1  0
  5  6  1  0
  6  7  1  6
  8  6  1  0
  8  9  2  0
 10  8  1  0
 11 10  1  0
 11 12  1  1
 13 12  1  0
 13 14  1  0
 15 14  1  0
 16 15  1  0
 17 11  1  0
 18 17  2  0
 19 17  1  0
 20 19  1  0
 20 27  1  0
 20 21  1  6
 22 23  2  0
 22 21  1  0
 24 23  1  0
 25 26  2  0
 25 24  1  0
 26 22  1  0
 27 28  1  0
 29 27  2  0
M  END
$$$$
