QKH.pdb
     RDKit          3D

 29 29  0  0  1  0  0  0  0  0999 V2000
   14.8099   -5.4869   -8.3123 N   0  0  0  0  0  0  0  0  0  0  0  0
   13.7587   -6.4198   -8.4858 C   0  0  0  0  0  0  0  0  0  0  0  0
   12.6523   -6.2315   -7.9333 O   0  0  0  0  0  0  0  0  0  0  0  0
   13.9747   -7.6019   -9.3129 C   0  0  0  0  0  0  0  0  0  0  0  0
   15.3799   -7.6921   -9.8695 C   0  0  0  0  0  0  0  0  0  0  0  0
   15.4215   -8.9236  -10.7442 C   0  0  2  0  0  0  0  0  0  0  0  0
   15.4206  -10.0799   -9.9057 N   0  0  0  0  0  0  0  0  0  0  0  0
   16.5695   -8.8997  -11.6837 C   0  0  0  0  0  0  0  0  0  0  0  0
   17.7493   -9.0832  -11.3153 O   0  0  0  0  0  0  0  0  0  0  0  0
   16.3439   -8.6608  -13.0598 N   0  0  0  0  0  0  0  0  0  0  0  0
   17.4256   -8.6602  -14.0571 C   0  0  1  0  0  0  0  0  0  0  0  0
   16.8610   -8.8934  -15.4304 C   0  0  0  0  0  0  0  0  0  0  0  0
   16.6439  -10.3601  -15.6585 C   0  0  0  0  0  0  0  0  0  0  0  0
   15.1797  -10.6545  -16.0195 C   0  0  0  0  0  0  0  0  0  0  0  0
   15.0087  -12.1075  -16.3007 C   0  0  0  0  0  0  0  0  0  0  0  0
   13.6503  -12.4106  -16.7475 N   0  0  0  0  0  0  0  0  0  0  0  0
   18.2555   -7.4558  -13.9078 C   0  0  0  0  0  0  0  0  0  0  0  0
   17.8083   -6.3061  -13.7007 O   0  0  0  0  0  0  0  0  0  0  0  0
   19.7047   -7.5301  -13.9951 N   0  0  0  0  0  0  0  0  0  0  0  0
   20.5322   -6.3617  -13.8493 C   0  0  1  0  0  0  0  0  0  0  0  0
   21.4838   -6.3817  -12.7122 C   0  0  0  0  0  0  0  0  0  0  0  0
   20.9432   -6.2257  -11.3694 C   0  0  0  0  0  0  0  0  0  0  0  0
   19.6581   -6.0492  -10.9638 C   0  0  0  0  0  0  0  0  0  0  0  0
   19.6169   -5.9841   -9.5937 N   0  0  0  0  0  0  0  0  0  0  0  0
   20.8851   -6.1246   -9.2111 C   0  0  0  0  0  0  0  0  0  0  0  0
   21.6972   -6.2707  -10.2509 N   0  0  0  0  0  0  0  0  0  0  0  0
   21.1937   -6.0013  -15.1425 C   0  0  0  0  0  0  0  0  0  0  0  0
   21.0669   -6.7546  -16.2973 O   0  0  0  0  0  0  0  0  0  0  0  0
   21.9025   -4.9649  -15.1951 O   0  0  0  0  0  0  0  0  0  0  0  0
  2  1  1  0
  2  3  2  0
  4  2  1  0
  5  4  1  0
  5  6  1  0
  6  7  1  1
  8  6  1  0
  8  9  2  0
 10  8  1  0
 11 10  1  0
 11 12  1  6
 13 12  1  0
 13 14  1  0
 15 14  1  0
 16 15  1  0
 17 11  1  0
 18 17  2  0
 19 17  1  0
 20 19  1  0
 20 27  1  0
 20 21  1  1
 22 23  2  0
 22 21  1  0
 24 23  1  0
 25 26  2  0
 25 24  1  0
 26 22  1  0
 27 28  1  0
 29 27  2  0
M  END
$$$$
