LHM.pdb
     RDKit          3D

 27 27  0  0  1  0  0  0  0  0999 V2000
   17.5209  -11.9710  -20.8109 C   0  0  0  0  0  0  0  0  0  0  0  0
   18.2036  -10.5972  -20.8208 C   0  0  1  0  0  0  0  0  0  0  0  0
   17.1447   -9.5203  -21.0451 C   0  0  0  0  0  0  0  0  0  0  0  0
   18.8871  -10.3931  -19.5007 C   0  0  0  0  0  0  0  0  0  0  0  0
   19.4713   -9.0283  -19.2954 C   0  0  2  0  0  0  0  0  0  0  0  0
   20.4754   -8.7387  -20.3219 N   0  0  0  0  0  0  0  0  0  0  0  0
   20.0740   -8.9104  -17.9445 C   0  0  0  0  0  0  0  0  0  0  0  0
   19.4676   -9.1280  -16.8730 O   0  0  0  0  0  0  0  0  0  0  0  0
   21.4568   -8.5202  -17.7837 N   0  0  0  0  0  0  0  0  0  0  0  0
   22.0788   -8.5246  -16.4795 C   0  0  1  0  0  0  0  0  0  0  0  0
   23.2068   -9.5198  -16.3957 C   0  0  0  0  0  0  0  0  0  0  0  0
   22.7289  -10.9183  -16.4062 C   0  0  0  0  0  0  0  0  0  0  0  0
   22.8592  -11.8150  -17.4388 C   0  0  0  0  0  0  0  0  0  0  0  0
   22.2988  -13.0000  -17.0799 N   0  0  0  0  0  0  0  0  0  0  0  0
   21.8249  -12.8486  -15.8420 C   0  0  0  0  0  0  0  0  0  0  0  0
   22.0854  -11.5963  -15.4411 N   0  0  0  0  0  0  0  0  0  0  0  0
   22.4493   -7.1503  -16.0981 C   0  0  0  0  0  0  0  0  0  0  0  0
   23.0586   -6.4341  -16.9205 O   0  0  0  0  0  0  0  0  0  0  0  0
   20.8312   -0.3236  -16.4583 C   0  0  0  0  0  0  0  0  0  0  0  0
   20.7544   -2.0940  -16.5611 S   0  0  0  0  0  0  0  0  0  0  0  0
   21.8075   -2.9583  -15.4333 C   0  0  0  0  0  0  0  0  0  0  0  0
   21.7538   -4.4236  -15.5755 C   0  0  0  0  0  0  0  0  0  0  0  0
   22.5642   -5.2156  -14.5854 C   0  0  2  0  0  0  0  0  0  0  0  0
   22.1351   -6.6189  -14.8348 N   0  0  0  0  0  0  0  0  0  0  0  0
   22.0855   -4.8474  -13.2206 C   0  0  0  0  0  0  0  0  0  0  0  0
   22.4720   -3.7079  -12.5683 O   0  0  0  0  0  0  0  0  0  0  0  0
   21.2818   -5.6015  -12.6050 O   0  0  0  0  0  0  0  0  0  0  0  0
  2  4  1  0
  2  1  1  1
  3  2  1  0
  4  5  1  0
  5  6  1  6
  7  8  2  0
  7  5  1  0
  9  7  1  0
 10  9  1  0
 10 11  1  6
 12 16  1  0
 12 11  1  0
 13 12  2  0
 14 13  1  0
 14 15  1  0
 15 16  2  0
 17 10  1  0
 18 17  2  0
 20 19  1  0
 21 20  1  0
 22 21  1  0
 23 22  1  6
 23 24  1  0
 24 17  1  0
 25 23  1  0
 26 25  1  0
 27 25  2  0
M  END
$$$$
