LHM.pdb
     RDKit          3D

 27 27  0  0  1  0  0  0  0  0999 V2000
   21.5261  -22.6837  -17.4875 C   0  0  0  0  0  0  0  0  0  0  0  0
   21.7116  -21.6003  -16.4173 C   0  0  1  0  0  0  0  0  0  0  0  0
   20.3379  -21.1019  -15.9748 C   0  0  0  0  0  0  0  0  0  0  0  0
   22.4517  -22.1965  -15.2562 C   0  0  0  0  0  0  0  0  0  0  0  0
   22.6707  -21.2669  -14.1011 C   0  0  2  0  0  0  0  0  0  0  0  0
   22.7616  -19.8809  -14.5663 N   0  0  0  0  0  0  0  0  0  0  0  0
   23.8980  -21.6356  -13.3529 C   0  0  0  0  0  0  0  0  0  0  0  0
   24.1206  -22.7637  -12.8621 O   0  0  0  0  0  0  0  0  0  0  0  0
   24.9518  -20.6690  -13.1396 N   0  0  0  0  0  0  0  0  0  0  0  0
   26.0918  -20.9896  -12.3118 C   0  0  1  0  0  0  0  0  0  0  0  0
   27.3683  -20.4052  -12.8585 C   0  0  0  0  0  0  0  0  0  0  0  0
   28.5505  -20.7765  -12.0530 C   0  0  0  0  0  0  0  0  0  0  0  0
   29.3408  -21.8861  -12.2312 C   0  0  0  0  0  0  0  0  0  0  0  0
   30.3313  -21.8878  -11.3007 N   0  0  0  0  0  0  0  0  0  0  0  0
   30.1647  -20.7968  -10.5512 C   0  0  0  0  0  0  0  0  0  0  0  0
   29.0936  -20.1319  -11.0068 N   0  0  0  0  0  0  0  0  0  0  0  0
   25.8086  -20.6309  -10.9109 C   0  0  0  0  0  0  0  0  0  0  0  0
   24.9336  -19.7732  -10.6675 O   0  0  0  0  0  0  0  0  0  0  0  0
   28.9906  -20.5080   -3.7282 C   0  0  0  0  0  0  0  0  0  0  0  0
   28.9520  -20.9725   -5.4410 S   0  0  0  0  0  0  0  0  0  0  0  0
   27.4519  -20.5803   -6.2920 C   0  0  0  0  0  0  0  0  0  0  0  0
   27.4209  -21.0508   -7.6877 C   0  0  0  0  0  0  0  0  0  0  0  0
   26.1982  -20.6832   -8.4839 C   0  0  2  0  0  0  0  0  0  0  0  0
   26.4934  -21.2275   -9.8374 N   0  0  0  0  0  0  0  0  0  0  0  0
   26.1752  -19.1959   -8.6056 C   0  0  0  0  0  0  0  0  0  0  0  0
   25.5284  -18.3772   -7.7198 O   0  0  0  0  0  0  0  0  0  0  0  0
   26.7722  -18.6281   -9.5620 O   0  0  0  0  0  0  0  0  0  0  0  0
  2  4  1  0
  2  1  1  6
  3  2  1  0
  4  5  1  0
  5  6  1  6
  7  8  2  0
  7  5  1  0
  9  7  1  0
 10  9  1  0
 10 11  1  6
 12 16  1  0
 12 11  1  0
 13 12  2  0
 14 13  1  0
 14 15  1  0
 15 16  2  0
 17 10  1  0
 18 17  2  0
 20 19  1  0
 21 20  1  0
 22 21  1  0
 23 22  1  1
 23 24  1  0
 24 17  1  0
 25 23  1  0
 26 25  1  0
 27 25  2  0
M  END
$$$$
