LHM.pdb
     RDKit          3D

 27 27  0  0  1  0  0  0  0  0999 V2000
   27.2530  -16.5584  -17.0411 C   0  0  0  0  0  0  0  0  0  0  0  0
   27.4100  -17.9474  -16.4089 C   0  0  1  0  0  0  0  0  0  0  0  0
   28.7009  -18.5811  -16.9219 C   0  0  0  0  0  0  0  0  0  0  0  0
   27.4596  -17.7913  -14.9174 C   0  0  0  0  0  0  0  0  0  0  0  0
   27.6021  -19.0718  -14.1519 C   0  0  2  0  0  0  0  0  0  0  0  0
   27.4050  -20.2238  -15.0350 N   0  0  0  0  0  0  0  0  0  0  0  0
   26.6383  -19.1224  -13.0246 C   0  0  0  0  0  0  0  0  0  0  0  0
   26.3928  -18.1684  -12.2547 O   0  0  0  0  0  0  0  0  0  0  0  0
   25.8963  -20.3302  -12.7403 N   0  0  0  0  0  0  0  0  0  0  0  0
   24.9851  -20.3911  -11.6207 C   0  0  1  0  0  0  0  0  0  0  0  0
   23.7345  -21.1630  -11.9522 C   0  0  0  0  0  0  0  0  0  0  0  0
   22.8421  -20.4260  -12.8713 C   0  0  0  0  0  0  0  0  0  0  0  0
   22.4442  -19.1172  -12.7439 C   0  0  0  0  0  0  0  0  0  0  0  0
   21.6266  -18.7921  -13.7797 N   0  0  0  0  0  0  0  0  0  0  0  0
   21.5139  -19.8796  -14.5442 C   0  0  0  0  0  0  0  0  0  0  0  0
   22.2458  -20.8590  -13.9946 N   0  0  0  0  0  0  0  0  0  0  0  0
   25.6971  -20.8701  -10.4227 C   0  0  0  0  0  0  0  0  0  0  0  0
   26.2631  -21.9832  -10.4558 O   0  0  0  0  0  0  0  0  0  0  0  0
   30.1690  -18.7382   -5.6629 C   0  0  0  0  0  0  0  0  0  0  0  0
   28.4616  -18.8235   -5.1848 S   0  0  0  0  0  0  0  0  0  0  0  0
   27.5268  -20.1071   -5.9635 C   0  0  0  0  0  0  0  0  0  0  0  0
   27.0668  -19.7664   -7.3210 C   0  0  0  0  0  0  0  0  0  0  0  0
   26.2547  -20.8169   -8.0288 C   0  0  2  0  0  0  0  0  0  0  0  0
   25.7606  -20.1096   -9.2416 N   0  0  0  0  0  0  0  0  0  0  0  0
   25.0645  -21.1098   -7.1773 C   0  0  0  0  0  0  0  0  0  0  0  0
   25.1195  -21.8713   -6.0414 O   0  0  0  0  0  0  0  0  0  0  0  0
   23.9318  -20.6482   -7.4895 O   0  0  0  0  0  0  0  0  0  0  0  0
  2  4  1  0
  2  1  1  6
  3  2  1  0
  4  5  1  0
  5  6  1  6
  7  8  2  0
  7  5  1  0
  9  7  1  0
 10  9  1  0
 10 11  1  6
 12 16  1  0
 12 11  1  0
 13 12  2  0
 14 13  1  0
 14 15  1  0
 15 16  2  0
 17 10  1  0
 18 17  2  0
 20 19  1  0
 21 20  1  0
 22 21  1  0
 23 22  1  1
 23 24  1  0
 24 17  1  0
 25 23  1  0
 26 25  1  0
 27 25  2  0
M  END
$$$$
