LHM.pdb
     RDKit          3D

 27 27  0  0  1  0  0  0  0  0999 V2000
   23.4043  -26.0159  -17.5662 C   0  0  0  0  0  0  0  0  0  0  0  0
   23.7381  -24.5726  -17.9650 C   0  0  1  0  0  0  0  0  0  0  0  0
   22.6245  -23.6527  -17.4704 C   0  0  0  0  0  0  0  0  0  0  0  0
   25.0478  -24.1938  -17.3384 C   0  0  0  0  0  0  0  0  0  0  0  0
   25.4315  -22.7537  -17.4967 C   0  0  2  0  0  0  0  0  0  0  0  0
   26.3055  -22.5790  -18.6592 N   0  0  0  0  0  0  0  0  0  0  0  0
   26.1029  -22.2493  -16.2732 C   0  0  0  0  0  0  0  0  0  0  0  0
   27.2573  -22.5663  -15.9126 O   0  0  0  0  0  0  0  0  0  0  0  0
   25.4309  -21.3225  -15.3902 N   0  0  0  0  0  0  0  0  0  0  0  0
   26.1375  -20.7037  -14.2923 C   0  0  1  0  0  0  0  0  0  0  0  0
   26.1627  -19.2021  -14.4121 C   0  0  0  0  0  0  0  0  0  0  0  0
   27.1199  -18.7327  -15.4357 C   0  0  0  0  0  0  0  0  0  0  0  0
   27.9092  -19.5234  -16.2352 C   0  0  0  0  0  0  0  0  0  0  0  0
   28.6564  -18.7347  -17.0517 N   0  0  0  0  0  0  0  0  0  0  0  0
   28.3405  -17.4698  -16.7687 C   0  0  0  0  0  0  0  0  0  0  0  0
   27.4170  -17.4732  -15.7971 N   0  0  0  0  0  0  0  0  0  0  0  0
   25.6070  -21.2038  -13.0116 C   0  0  0  0  0  0  0  0  0  0  0  0
   24.4161  -21.5758  -12.9503 O   0  0  0  0  0  0  0  0  0  0  0  0
   28.8484  -20.0133   -7.3592 C   0  0  0  0  0  0  0  0  0  0  0  0
   27.1306  -19.6211   -7.1444 S   0  0  0  0  0  0  0  0  0  0  0  0
   26.0250  -20.4663   -8.2358 C   0  0  0  0  0  0  0  0  0  0  0  0
   26.5495  -20.6294   -9.6027 C   0  0  0  0  0  0  0  0  0  0  0  0
   25.6758  -21.3923  -10.5613 C   0  0  2  0  0  0  0  0  0  0  0  0
   26.4030  -21.2771  -11.8548 N   0  0  0  0  0  0  0  0  0  0  0  0
   24.4009  -20.6302  -10.7064 C   0  0  0  0  0  0  0  0  0  0  0  0
   24.2816  -19.4986  -11.4671 O   0  0  0  0  0  0  0  0  0  0  0  0
   23.3576  -21.0196  -10.1118 O   0  0  0  0  0  0  0  0  0  0  0  0
  2  4  1  0
  2  1  1  1
  3  2  1  0
  4  5  1  0
  5  6  1  6
  7  8  2  0
  7  5  1  0
  9  7  1  0
 10  9  1  0
 10 11  1  1
 12 16  1  0
 12 11  1  0
 13 12  2  0
 14 13  1  0
 14 15  1  0
 15 16  2  0
 17 10  1  0
 18 17  2  0
 20 19  1  0
 21 20  1  0
 22 21  1  0
 23 22  1  1
 23 24  1  0
 24 17  1  0
 25 23  1  0
 26 25  1  0
 27 25  2  0
M  END
$$$$
