LHM.pdb
     RDKit          3D

 27 27  0  0  1  0  0  0  0  0999 V2000
   23.2570  -14.5195  -14.5258 C   0  0  0  0  0  0  0  0  0  0  0  0
   22.2004  -14.4255  -15.6342 C   0  0  1  0  0  0  0  0  0  0  0  0
   20.8933  -15.0273  -15.1237 C   0  0  0  0  0  0  0  0  0  0  0  0
   22.0081  -12.9807  -15.9905 C   0  0  0  0  0  0  0  0  0  0  0  0
   21.0063  -12.7248  -17.0755 C   0  0  2  0  0  0  0  0  0  0  0  0
   21.4876  -13.2517  -18.3547 N   0  0  0  0  0  0  0  0  0  0  0  0
   20.7194  -11.2739  -17.1968 C   0  0  0  0  0  0  0  0  0  0  0  0
   21.4774  -10.4414  -17.7403 O   0  0  0  0  0  0  0  0  0  0  0  0
   19.4937  -10.7165  -16.6703 N   0  0  0  0  0  0  0  0  0  0  0  0
   19.2073   -9.3064  -16.8013 C   0  0  1  0  0  0  0  0  0  0  0  0
   17.7385   -9.0117  -16.6422 C   0  0  0  0  0  0  0  0  0  0  0  0
   17.4267   -7.5782  -16.8219 C   0  0  0  0  0  0  0  0  0  0  0  0
   17.2392   -6.9300  -18.0186 C   0  0  0  0  0  0  0  0  0  0  0  0
   16.9697   -5.6189  -17.7834 N   0  0  0  0  0  0  0  0  0  0  0  0
   16.9879   -5.4479  -16.4604 C   0  0  0  0  0  0  0  0  0  0  0  0
   17.2630   -6.6277  -15.8866 N   0  0  0  0  0  0  0  0  0  0  0  0
   20.0844   -8.5331  -15.9045 C   0  0  0  0  0  0  0  0  0  0  0  0
   20.5468   -9.0833  -14.8827 O   0  0  0  0  0  0  0  0  0  0  0  0
   25.4426   -7.7917  -17.3797 C   0  0  0  0  0  0  0  0  0  0  0  0
   25.4371   -7.2919  -15.6765 S   0  0  0  0  0  0  0  0  0  0  0  0
   23.9331   -6.5484  -15.1167 C   0  0  0  0  0  0  0  0  0  0  0  0
   22.7216   -7.1418  -15.7086 C   0  0  0  0  0  0  0  0  0  0  0  0
   21.4092   -6.5697  -15.2454 C   0  0  2  0  0  0  0  0  0  0  0  0
   20.4191   -7.1926  -16.1657 N   0  0  0  0  0  0  0  0  0  0  0  0
   21.4281   -5.1081  -15.5468 C   0  0  0  0  0  0  0  0  0  0  0  0
   22.0663   -4.1852  -14.7632 O   0  0  0  0  0  0  0  0  0  0  0  0
   20.8359   -4.6633  -16.5691 O   0  0  0  0  0  0  0  0  0  0  0  0
  2  4  1  0
  2  1  1  1
  3  2  1  0
  4  5  1  0
  5  6  1  6
  7  8  2  0
  7  5  1  0
  9  7  1  0
 10  9  1  0
 10 11  1  1
 12 16  1  0
 12 11  1  0
 13 12  2  0
 14 13  1  0
 14 15  1  0
 15 16  2  0
 17 10  1  0
 18 17  2  0
 20 19  1  0
 21 20  1  0
 22 21  1  0
 23 22  1  6
 23 24  1  0
 24 17  1  0
 25 23  1  0
 26 25  1  0
 27 25  2  0
M  END
$$$$
