LHM.pdb
     RDKit          3D

 27 27  0  0  1  0  0  0  0  0999 V2000
   16.5131  -24.4219  -16.7281 C   0  0  0  0  0  0  0  0  0  0  0  0
   17.2437  -23.9581  -15.4613 C   0  0  1  0  0  0  0  0  0  0  0  0
   18.6109  -23.4034  -15.8540 C   0  0  0  0  0  0  0  0  0  0  0  0
   16.4191  -22.8963  -14.7951 C   0  0  0  0  0  0  0  0  0  0  0  0
   17.0065  -22.3372  -13.5347 C   0  0  2  0  0  0  0  0  0  0  0  0
   18.3415  -22.8920  -13.2990 N   0  0  0  0  0  0  0  0  0  0  0  0
   16.1257  -22.6162  -12.3734 C   0  0  0  0  0  0  0  0  0  0  0  0
   14.9016  -22.3652  -12.3319 O   0  0  0  0  0  0  0  0  0  0  0  0
   16.6563  -23.2201  -11.1717 N   0  0  0  0  0  0  0  0  0  0  0  0
   15.7779  -23.6233  -10.0977 C   0  0  1  0  0  0  0  0  0  0  0  0
   14.6611  -24.5095  -10.5846 C   0  0  0  0  0  0  0  0  0  0  0  0
   13.4543  -23.7435  -10.9602 C   0  0  0  0  0  0  0  0  0  0  0  0
   13.1085  -22.4946  -10.5041 C   0  0  0  0  0  0  0  0  0  0  0  0
   11.9334  -22.1167  -11.0726 N   0  0  0  0  0  0  0  0  0  0  0  0
   11.5487  -23.1128  -11.8725 C   0  0  0  0  0  0  0  0  0  0  0  0
   12.4654  -24.0882  -11.8018 N   0  0  0  0  0  0  0  0  0  0  0  0
   16.5691  -24.1920   -8.9921 C   0  0  0  0  0  0  0  0  0  0  0  0
   16.0319  -25.0136   -8.2196 O   0  0  0  0  0  0  0  0  0  0  0  0
   22.9458  -22.4572   -7.5883 C   0  0  0  0  0  0  0  0  0  0  0  0
   21.4874  -21.5716   -8.0776 S   0  0  0  0  0  0  0  0  0  0  0  0
   20.0754  -22.5803   -8.4196 C   0  0  0  0  0  0  0  0  0  0  0  0
   19.7213  -23.4972   -7.3222 C   0  0  0  0  0  0  0  0  0  0  0  0
   18.5701  -24.4302   -7.5837 C   0  0  2  0  0  0  0  0  0  0  0  0
   17.9137  -23.8386   -8.7814 N   0  0  0  0  0  0  0  0  0  0  0  0
   17.6142  -24.2895   -6.4462 C   0  0  0  0  0  0  0  0  0  0  0  0
   17.5599  -25.1641   -5.3948 O   0  0  0  0  0  0  0  0  0  0  0  0
   16.7987  -23.3263   -6.4179 O   0  0  0  0  0  0  0  0  0  0  0  0
  2  4  1  0
  2  1  1  6
  3  2  1  0
  4  5  1  0
  5  6  1  1
  7  8  2  0
  7  5  1  0
  9  7  1  0
 10  9  1  0
 10 11  1  6
 12 16  1  0
 12 11  1  0
 13 12  2  0
 14 13  1  0
 14 15  1  0
 15 16  2  0
 17 10  1  0
 18 17  2  0
 20 19  1  0
 21 20  1  0
 22 21  1  0
 23 22  1  1
 23 24  1  0
 24 17  1  0
 25 23  1  0
 26 25  1  0
 27 25  2  0
M  END
$$$$
