LHM.pdb
     RDKit          3D

 27 27  0  0  1  0  0  0  0  0999 V2000
   23.9229  -11.5208  -20.3516 C   0  0  0  0  0  0  0  0  0  0  0  0
   24.5612  -11.1232  -19.0144 C   0  0  1  0  0  0  0  0  0  0  0  0
   25.9024  -10.4470  -19.2883 C   0  0  0  0  0  0  0  0  0  0  0  0
   23.6348  -10.1809  -18.3036 C   0  0  0  0  0  0  0  0  0  0  0  0
   24.1595   -9.6332  -17.0109 C   0  0  2  0  0  0  0  0  0  0  0  0
   24.3329  -10.7069  -16.0298 N   0  0  0  0  0  0  0  0  0  0  0  0
   23.2504   -8.5914  -16.4719 C   0  0  0  0  0  0  0  0  0  0  0  0
   22.1125   -8.8128  -16.0035 O   0  0  0  0  0  0  0  0  0  0  0  0
   23.6460   -7.2010  -16.4575 N   0  0  0  0  0  0  0  0  0  0  0  0
   22.7622   -6.1868  -15.9301 C   0  0  1  0  0  0  0  0  0  0  0  0
   23.5093   -4.9437  -15.5225 C   0  0  0  0  0  0  0  0  0  0  0  0
   22.6169   -3.9038  -14.9688 C   0  0  0  0  0  0  0  0  0  0  0  0
   21.2675   -4.0262  -14.7414 C   0  0  0  0  0  0  0  0  0  0  0  0
   20.7902   -2.8630  -14.2258 N   0  0  0  0  0  0  0  0  0  0  0  0
   21.8237   -2.0247  -14.1314 C   0  0  0  0  0  0  0  0  0  0  0  0
   22.9193   -2.6541  -14.5790 N   0  0  0  0  0  0  0  0  0  0  0  0
   21.6544   -5.9503  -16.8727 C   0  0  0  0  0  0  0  0  0  0  0  0
   21.9084   -5.8155  -18.0883 O   0  0  0  0  0  0  0  0  0  0  0  0
   17.6625   -9.1120  -21.3282 C   0  0  0  0  0  0  0  0  0  0  0  0
   17.7612   -8.6801  -19.6093 S   0  0  0  0  0  0  0  0  0  0  0  0
   18.5136   -7.1158  -19.2699 C   0  0  0  0  0  0  0  0  0  0  0  0
   18.6898   -6.8412  -17.8333 C   0  0  0  0  0  0  0  0  0  0  0  0
   19.3126   -5.5170  -17.4832 C   0  0  2  0  0  0  0  0  0  0  0  0
   20.3172   -5.8738  -16.4446 N   0  0  0  0  0  0  0  0  0  0  0  0
   18.2637   -4.6935  -16.8132 C   0  0  0  0  0  0  0  0  0  0  0  0
   17.4933   -3.7733  -17.4713 O   0  0  0  0  0  0  0  0  0  0  0  0
   18.0472   -4.8252  -15.5765 O   0  0  0  0  0  0  0  0  0  0  0  0
  2  4  1  0
  2  1  1  6
  3  2  1  0
  4  5  1  0
  5  6  1  1
  7  8  2  0
  7  5  1  0
  9  7  1  0
 10  9  1  0
 10 11  1  6
 12 16  1  0
 12 11  1  0
 13 12  2  0
 14 13  1  0
 14 15  1  0
 15 16  2  0
 17 10  1  0
 18 17  2  0
 20 19  1  0
 21 20  1  0
 22 21  1  0
 23 22  1  1
 23 24  1  0
 24 17  1  0
 25 23  1  0
 26 25  1  0
 27 25  2  0
M  END
$$$$
