LHM.pdb
     RDKit          3D

 27 27  0  0  1  0  0  0  0  0999 V2000
   23.1195  -14.8560  -18.9611 C   0  0  0  0  0  0  0  0  0  0  0  0
   24.1262  -15.9259  -18.5189 C   0  0  1  0  0  0  0  0  0  0  0  0
   25.5099  -15.5497  -19.0432 C   0  0  0  0  0  0  0  0  0  0  0  0
   24.1325  -15.9864  -17.0197 C   0  0  0  0  0  0  0  0  0  0  0  0
   25.1287  -16.9379  -16.4294 C   0  0  2  0  0  0  0  0  0  0  0  0
   25.5064  -17.9601  -17.4082 N   0  0  0  0  0  0  0  0  0  0  0  0
   24.5851  -17.5788  -15.2063 C   0  0  0  0  0  0  0  0  0  0  0  0
   24.1855  -16.9600  -14.1960 O   0  0  0  0  0  0  0  0  0  0  0  0
   24.4823  -19.0176  -15.1092 N   0  0  0  0  0  0  0  0  0  0  0  0
   24.0032  -19.6441  -13.8986 C   0  0  1  0  0  0  0  0  0  0  0  0
   22.9974  -20.7287  -14.1845 C   0  0  0  0  0  0  0  0  0  0  0  0
   21.6191  -20.2067  -14.2954 C   0  0  0  0  0  0  0  0  0  0  0  0
   21.2020  -18.9367  -13.9781 C   0  0  0  0  0  0  0  0  0  0  0  0
   19.8676  -18.8293  -14.2121 N   0  0  0  0  0  0  0  0  0  0  0  0
   19.4548  -20.0129  -14.6688 C   0  0  0  0  0  0  0  0  0  0  0  0
   20.5105  -20.8375  -14.7171 N   0  0  0  0  0  0  0  0  0  0  0  0
   25.1454  -20.0746  -13.0731 C   0  0  0  0  0  0  0  0  0  0  0  0
   26.1488  -20.5659  -13.6319 O   0  0  0  0  0  0  0  0  0  0  0  0
   27.3709  -18.2744   -6.6152 C   0  0  0  0  0  0  0  0  0  0  0  0
   26.8058  -19.9313   -6.9089 S   0  0  0  0  0  0  0  0  0  0  0  0
   27.0832  -20.5404   -8.5460 C   0  0  0  0  0  0  0  0  0  0  0  0
   26.0943  -20.0681   -9.5305 C   0  0  0  0  0  0  0  0  0  0  0  0
   26.3386  -20.4692  -10.9600 C   0  0  2  0  0  0  0  0  0  0  0  0
   25.1409  -19.9469  -11.6728 N   0  0  0  0  0  0  0  0  0  0  0  0
   26.2710  -21.9587  -11.0235 C   0  0  0  0  0  0  0  0  0  0  0  0
   27.3747  -22.7663  -10.9684 O   0  0  0  0  0  0  0  0  0  0  0  0
   25.1555  -22.5393  -11.1336 O   0  0  0  0  0  0  0  0  0  0  0  0
  2  4  1  0
  2  1  1  1
  3  2  1  0
  4  5  1  0
  5  6  1  6
  7  8  2  0
  7  5  1  0
  9  7  1  0
 10  9  1  0
 10 11  1  6
 12 16  1  0
 12 11  1  0
 13 12  2  0
 14 13  1  0
 14 15  1  0
 15 16  2  0
 17 10  1  0
 18 17  2  0
 20 19  1  0
 21 20  1  0
 22 21  1  0
 23 22  1  1
 23 24  1  0
 24 17  1  0
 25 23  1  0
 26 25  1  0
 27 25  2  0
M  END
$$$$
