LHM.pdb
     RDKit          3D

 27 27  0  0  1  0  0  0  0  0999 V2000
   26.6211  -16.5444  -17.9231 C   0  0  0  0  0  0  0  0  0  0  0  0
   27.1099  -17.7603  -17.1254 C   0  0  1  0  0  0  0  0  0  0  0  0
   28.6302  -17.8463  -17.2372 C   0  0  0  0  0  0  0  0  0  0  0  0
   26.6987  -17.5892  -15.6926 C   0  0  0  0  0  0  0  0  0  0  0  0
   27.2426  -18.6207  -14.7511 C   0  0  2  0  0  0  0  0  0  0  0  0
   27.3467  -19.9212  -15.4170 N   0  0  0  0  0  0  0  0  0  0  0  0
   26.3894  -18.7333  -13.5421 C   0  0  0  0  0  0  0  0  0  0  0  0
   26.0104  -17.7665  -12.8459 O   0  0  0  0  0  0  0  0  0  0  0  0
   25.9282  -20.0234  -13.0808 N   0  0  0  0  0  0  0  0  0  0  0  0
   25.0402  -20.1279  -11.9457 C   0  0  1  0  0  0  0  0  0  0  0  0
   23.7777  -20.8771  -12.2839 C   0  0  0  0  0  0  0  0  0  0  0  0
   22.8121  -20.0477  -13.0349 C   0  0  0  0  0  0  0  0  0  0  0  0
   22.6204  -20.0527  -14.3953 C   0  0  0  0  0  0  0  0  0  0  0  0
   21.6487  -19.1586  -14.7166 N   0  0  0  0  0  0  0  0  0  0  0  0
   21.2376  -18.6020  -13.5759 C   0  0  0  0  0  0  0  0  0  0  0  0
   21.9394  -19.1391  -12.5680 N   0  0  0  0  0  0  0  0  0  0  0  0
   25.7739  -20.6630  -10.7851 C   0  0  0  0  0  0  0  0  0  0  0  0
   26.4448  -21.7082  -10.9189 O   0  0  0  0  0  0  0  0  0  0  0  0
   28.5535  -19.2603   -3.5763 C   0  0  0  0  0  0  0  0  0  0  0  0
   27.9660  -18.7908   -5.1842 S   0  0  0  0  0  0  0  0  0  0  0  0
   27.3442  -20.1181   -6.1739 C   0  0  0  0  0  0  0  0  0  0  0  0
   26.9115  -19.7029   -7.5195 C   0  0  0  0  0  0  0  0  0  0  0  0
   26.3441  -20.7858   -8.3968 C   0  0  2  0  0  0  0  0  0  0  0  0
   25.7433  -20.0304   -9.5297 N   0  0  0  0  0  0  0  0  0  0  0  0
   25.2197  -21.4222   -7.6497 C   0  0  0  0  0  0  0  0  0  0  0  0
   25.4028  -22.3311   -6.6428 O   0  0  0  0  0  0  0  0  0  0  0  0
   24.0244  -21.1316   -7.9331 O   0  0  0  0  0  0  0  0  0  0  0  0
  2  4  1  0
  2  1  1  6
  3  2  1  0
  4  5  1  0
  5  6  1  6
  7  8  2  0
  7  5  1  0
  9  7  1  0
 10  9  1  0
 10 11  1  6
 12 16  1  0
 12 11  1  0
 13 12  2  0
 14 13  1  0
 14 15  1  0
 15 16  2  0
 17 10  1  0
 18 17  2  0
 20 19  1  0
 21 20  1  0
 22 21  1  0
 23 22  1  1
 23 24  1  0
 24 17  1  0
 25 23  1  0
 26 25  1  0
 27 25  2  0
M  END
$$$$
