LHM.pdb
     RDKit          3D

 27 27  0  0  1  0  0  0  0  0999 V2000
   19.4955  -13.1280  -18.1323 C   0  0  0  0  0  0  0  0  0  0  0  0
   20.0616  -11.8471  -18.7588 C   0  0  1  0  0  0  0  0  0  0  0  0
   19.5244  -11.7134  -20.1817 C   0  0  0  0  0  0  0  0  0  0  0  0
   19.6323  -10.6763  -17.9244 C   0  0  0  0  0  0  0  0  0  0  0  0
   20.0204   -9.3352  -18.4694 C   0  0  2  0  0  0  0  0  0  0  0  0
   21.4771   -9.1816  -18.4689 N   0  0  0  0  0  0  0  0  0  0  0  0
   19.3921   -8.2446  -17.6832 C   0  0  0  0  0  0  0  0  0  0  0  0
   18.1599   -8.0915  -17.5366 O   0  0  0  0  0  0  0  0  0  0  0  0
   20.2046   -7.2540  -17.0132 N   0  0  0  0  0  0  0  0  0  0  0  0
   19.6012   -6.2643  -16.1506 C   0  0  1  0  0  0  0  0  0  0  0  0
   20.2827   -6.1943  -14.8089 C   0  0  0  0  0  0  0  0  0  0  0  0
   19.8910   -7.3058  -13.9170 C   0  0  0  0  0  0  0  0  0  0  0  0
   19.0494   -8.3447  -14.2330 C   0  0  0  0  0  0  0  0  0  0  0  0
   18.9298   -9.1700  -13.1599 N   0  0  0  0  0  0  0  0  0  0  0  0
   19.6844   -8.6567  -12.1867 C   0  0  0  0  0  0  0  0  0  0  0  0
   20.2600   -7.5366  -12.6460 N   0  0  0  0  0  0  0  0  0  0  0  0
   19.5120   -4.9739  -16.8567 C   0  0  0  0  0  0  0  0  0  0  0  0
   20.4291   -4.6434  -17.6378 O   0  0  0  0  0  0  0  0  0  0  0  0
   14.7905    1.1033  -18.6215 C   0  0  0  0  0  0  0  0  0  0  0  0
   15.1228   -0.5009  -17.9383 S   0  0  0  0  0  0  0  0  0  0  0  0
   16.8166   -1.0064  -17.9975 C   0  0  0  0  0  0  0  0  0  0  0  0
   17.0612   -2.3327  -17.4048 C   0  0  0  0  0  0  0  0  0  0  0  0
   18.4889   -2.8081  -17.4104 C   0  0  2  0  0  0  0  0  0  0  0  0
   18.4227   -4.1027  -16.6791 N   0  0  0  0  0  0  0  0  0  0  0  0
   19.2764   -1.8659  -16.5622 C   0  0  0  0  0  0  0  0  0  0  0  0
   19.9690   -0.7980  -17.0654 O   0  0  0  0  0  0  0  0  0  0  0  0
   19.3294   -2.0306  -15.3117 O   0  0  0  0  0  0  0  0  0  0  0  0
  2  4  1  0
  2  1  1  1
  3  2  1  0
  4  5  1  0
  5  6  1  1
  7  8  2  0
  7  5  1  0
  9  7  1  0
 10  9  1  0
 10 11  1  1
 12 16  1  0
 12 11  1  0
 13 12  2  0
 14 13  1  0
 14 15  1  0
 15 16  2  0
 17 10  1  0
 18 17  2  0
 20 19  1  0
 21 20  1  0
 22 21  1  0
 23 22  1  1
 23 24  1  0
 24 17  1  0
 25 23  1  0
 26 25  1  0
 27 25  2  0
M  END
$$$$
