LHM.pdb
     RDKit          3D

 27 27  0  0  1  0  0  0  0  0999 V2000
   31.3379  -19.6879  -10.3931 C   0  0  0  0  0  0  0  0  0  0  0  0
   30.4693  -20.8897   -9.9996 C   0  0  1  0  0  0  0  0  0  0  0  0
   30.1297  -20.7892   -8.5144 C   0  0  0  0  0  0  0  0  0  0  0  0
   29.2173  -20.8662  -10.8262 C   0  0  0  0  0  0  0  0  0  0  0  0
   28.2385  -21.9598  -10.5227 C   0  0  2  0  0  0  0  0  0  0  0  0
   28.8310  -23.2712  -10.7963 N   0  0  0  0  0  0  0  0  0  0  0  0
   26.9938  -21.7875  -11.3121 C   0  0  0  0  0  0  0  0  0  0  0  0
   26.8828  -22.0430  -12.5310 O   0  0  0  0  0  0  0  0  0  0  0  0
   25.7864  -21.2927  -10.6896 N   0  0  0  0  0  0  0  0  0  0  0  0
   24.5539  -21.1999  -11.4380 C   0  0  1  0  0  0  0  0  0  0  0  0
   23.3847  -20.8428  -10.5577 C   0  0  0  0  0  0  0  0  0  0  0  0
   22.1040  -20.8325  -11.2953 C   0  0  0  0  0  0  0  0  0  0  0  0
   21.9398  -21.0392  -12.6435 C   0  0  0  0  0  0  0  0  0  0  0  0
   20.6196  -20.9549  -12.9547 N   0  0  0  0  0  0  0  0  0  0  0  0
   19.9665  -20.6996  -11.8197 C   0  0  0  0  0  0  0  0  0  0  0  0
   20.8623  -20.6268  -10.8252 N   0  0  0  0  0  0  0  0  0  0  0  0
   24.7389  -20.3083  -12.5966 C   0  0  0  0  0  0  0  0  0  0  0  0
   25.5286  -19.3450  -12.5028 O   0  0  0  0  0  0  0  0  0  0  0  0
   29.1389  -19.7684  -15.3752 C   0  0  0  0  0  0  0  0  0  0  0  0
   28.0657  -19.8235  -16.7880 S   0  0  0  0  0  0  0  0  0  0  0  0
   26.3874  -19.3618  -16.4748 C   0  0  0  0  0  0  0  0  0  0  0  0
   25.8132  -19.9908  -15.2728 C   0  0  0  0  0  0  0  0  0  0  0  0
   24.4048  -19.5918  -14.9245 C   0  0  2  0  0  0  0  0  0  0  0  0
   24.0536  -20.5108  -13.8076 N   0  0  0  0  0  0  0  0  0  0  0  0
   23.5376  -19.9586  -16.0825 C   0  0  0  0  0  0  0  0  0  0  0  0
   23.3977  -21.2398  -16.5433 O   0  0  0  0  0  0  0  0  0  0  0  0
   22.8839  -19.0678  -16.6931 O   0  0  0  0  0  0  0  0  0  0  0  0
  2  4  1  0
  2  1  1  6
  3  2  1  0
  4  5  1  0
  5  6  1  6
  7  8  2  0
  7  5  1  0
  9  7  1  0
 10  9  1  0
 10 11  1  1
 12 16  1  0
 12 11  1  0
 13 12  2  0
 14 13  1  0
 14 15  1  0
 15 16  2  0
 17 10  1  0
 18 17  2  0
 20 19  1  0
 21 20  1  0
 22 21  1  0
 23 22  1  6
 23 24  1  0
 24 17  1  0
 25 23  1  0
 26 25  1  0
 27 25  2  0
M  END
$$$$
