LHM.pdb
     RDKit          3D

 27 27  0  0  1  0  0  0  0  0999 V2000
   26.7416  -20.0793   -8.8571 C   0  0  0  0  0  0  0  0  0  0  0  0
   26.6869  -20.6539  -10.2785 C   0  0  1  0  0  0  0  0  0  0  0  0
   27.1848  -22.0970  -10.2480 C   0  0  0  0  0  0  0  0  0  0  0  0
   25.2677  -20.5994  -10.7623 C   0  0  0  0  0  0  0  0  0  0  0  0
   25.0446  -21.1639  -12.1327 C   0  0  2  0  0  0  0  0  0  0  0  0
   26.0455  -20.6494  -13.0703 N   0  0  0  0  0  0  0  0  0  0  0  0
   23.6790  -20.8451  -12.6184 C   0  0  0  0  0  0  0  0  0  0  0  0
   22.8657  -20.1063  -12.0218 O   0  0  0  0  0  0  0  0  0  0  0  0
   23.1904  -21.3948  -13.8630 N   0  0  0  0  0  0  0  0  0  0  0  0
   21.8821  -21.0408  -14.3639 C   0  0  1  0  0  0  0  0  0  0  0  0
   21.8975  -20.7797  -15.8475 C   0  0  0  0  0  0  0  0  0  0  0  0
   22.7184  -19.6043  -16.2063 C   0  0  0  0  0  0  0  0  0  0  0  0
   23.3374  -18.7460  -15.3301 C   0  0  0  0  0  0  0  0  0  0  0  0
   24.0005  -17.7884  -16.0303 N   0  0  0  0  0  0  0  0  0  0  0  0
   23.8006  -18.0423  -17.3246 C   0  0  0  0  0  0  0  0  0  0  0  0
   23.0297  -19.1343  -17.4258 N   0  0  0  0  0  0  0  0  0  0  0  0
   20.8934  -22.0447  -13.9321 C   0  0  0  0  0  0  0  0  0  0  0  0
   21.0377  -23.2331  -14.2888 O   0  0  0  0  0  0  0  0  0  0  0  0
   19.5483  -23.3193   -8.3076 C   0  0  0  0  0  0  0  0  0  0  0  0
   18.3718  -24.3892   -9.0963 S   0  0  0  0  0  0  0  0  0  0  0  0
   18.0220  -24.0046  -10.7868 C   0  0  0  0  0  0  0  0  0  0  0  0
   18.9617  -23.0389  -11.3825 C   0  0  0  0  0  0  0  0  0  0  0  0
   18.8117  -22.7928  -12.8593 C   0  0  2  0  0  0  0  0  0  0  0  0
   19.7915  -21.7049  -13.1274 N   0  0  0  0  0  0  0  0  0  0  0  0
   17.4510  -22.2209  -13.0805 C   0  0  0  0  0  0  0  0  0  0  0  0
   16.3382  -22.9868  -13.3003 O   0  0  0  0  0  0  0  0  0  0  0  0
   17.2790  -20.9703  -13.0712 O   0  0  0  0  0  0  0  0  0  0  0  0
  2  4  1  0
  2  1  1  1
  3  2  1  0
  4  5  1  0
  5  6  1  6
  7  8  2  0
  7  5  1  0
  9  7  1  0
 10  9  1  0
 10 11  1  6
 12 16  1  0
 12 11  1  0
 13 12  2  0
 14 13  1  0
 14 15  1  0
 15 16  2  0
 17 10  1  0
 18 17  2  0
 20 19  1  0
 21 20  1  0
 22 21  1  0
 23 22  1  1
 23 24  1  0
 24 17  1  0
 25 23  1  0
 26 25  1  0
 27 25  2  0
M  END
$$$$
