FIQ.pdb
     RDKit          3D

 29 29  0  0  1  0  0  0  0  0999 V2000
    7.7699  -18.9566   27.6131 N   0  0  0  0  0  0  0  0  0  0  0  0
    8.3181  -17.6366   27.4302 C   0  0  1  0  0  0  0  0  0  0  0  0
    9.8092  -17.7312   27.7188 C   0  0  0  0  0  0  0  0  0  0  0  0
   10.1996  -16.4889   28.4246 C   0  0  0  0  0  0  0  0  0  0  0  0
   10.5195  -16.5221   29.7583 C   0  0  0  0  0  0  0  0  0  0  0  0
   10.8883  -15.3547   30.4294 C   0  0  0  0  0  0  0  0  0  0  0  0
   10.9287  -14.1502   29.7290 C   0  0  0  0  0  0  0  0  0  0  0  0
   10.6093  -14.1089   28.3912 C   0  0  0  0  0  0  0  0  0  0  0  0
   10.2494  -15.2798   27.7592 C   0  0  0  0  0  0  0  0  0  0  0  0
    8.0653  -17.1153   26.0670 C   0  0  0  0  0  0  0  0  0  0  0  0
    7.8140  -17.9523   25.1520 O   0  0  0  0  0  0  0  0  0  0  0  0
    6.1118  -12.1966   26.0515 C   0  0  0  0  0  0  0  0  0  0  0  0
    6.3209  -13.6060   25.5733 C   0  0  0  0  0  0  0  0  0  0  0  0
    7.5875  -13.7180   24.7176 C   0  0  2  0  0  0  0  0  0  0  0  0
    7.4285  -12.9738   23.4381 C   0  0  0  0  0  0  0  0  0  0  0  0
    7.7810  -15.2104   24.5165 C   0  0  2  0  0  0  0  0  0  0  0  0
    8.1161  -15.7283   25.8571 N   0  0  0  0  0  0  0  0  0  0  0  0
    8.8384  -15.5703   23.5690 C   0  0  0  0  0  0  0  0  0  0  0  0
    8.5917  -15.6566   22.3094 O   0  0  0  0  0  0  0  0  0  0  0  0
   12.5760  -19.1381   20.0814 N   0  0  0  0  0  0  0  0  0  0  0  0
   11.7239  -19.3258   21.1961 C   0  0  0  0  0  0  0  0  0  0  0  0
   11.7585  -20.3494   21.9121 O   0  0  0  0  0  0  0  0  0  0  0  0
   10.7430  -18.2515   21.5267 C   0  0  0  0  0  0  0  0  0  0  0  0
   10.8259  -17.8441   22.9549 C   0  0  0  0  0  0  0  0  0  0  0  0
   11.1654  -16.3815   23.0663 C   0  0  2  0  0  0  0  0  0  0  0  0
   10.1478  -15.8301   23.9753 N   0  0  0  0  0  0  0  0  0  0  0  0
   11.1717  -15.6905   21.7865 C   0  0  0  0  0  0  0  0  0  0  0  0
   10.0890  -15.2077   21.3049 O   0  0  0  0  0  0  0  0  0  0  0  0
   12.2881  -15.4904   20.9990 O   0  0  0  0  0  0  0  0  0  0  0  0
  2  1  1  6
  2  3  1  0
  3  4  1  0
  4  9  2  0
  5  6  2  0
  5  4  1  0
  6  7  1  0
  7  8  2  0
  9  8  1  0
 10 11  2  0
 10  2  1  0
 12 13  1  0
 13 14  1  0
 14 15  1  6
 14 16  1  0
 16 17  1  1
 17 10  1  0
 18 26  1  0
 18 16  1  0
 19 18  2  0
 20 21  1  0
 21 23  1  0
 21 22  2  0
 23 24  1  0
 25 24  1  6
 25 26  1  0
 25 27  1  0
 27 29  1  0
 28 27  2  0
M  END
$$$$
