FIQ.pdb
     RDKit          3D

 29 29  0  0  1  0  0  0  0  0999 V2000
   10.0869  -16.9556   21.3029 N   0  0  0  0  0  0  0  0  0  0  0  0
    9.3388  -15.8141   21.7652 C   0  0  1  0  0  0  0  0  0  0  0  0
    7.9390  -15.9343   21.1807 C   0  0  0  0  0  0  0  0  0  0  0  0
    7.6507  -14.6684   20.4676 C   0  0  0  0  0  0  0  0  0  0  0  0
    8.5843  -13.6636   20.4364 C   0  0  0  0  0  0  0  0  0  0  0  0
    8.3188  -12.4681   19.7660 C   0  0  0  0  0  0  0  0  0  0  0  0
    7.0914  -12.3041   19.1261 C   0  0  0  0  0  0  0  0  0  0  0  0
    6.1499  -13.3073   19.1529 C   0  0  0  0  0  0  0  0  0  0  0  0
    6.4443  -14.4748   19.8238 C   0  0  0  0  0  0  0  0  0  0  0  0
    9.3003  -15.7383   23.2440 C   0  0  0  0  0  0  0  0  0  0  0  0
   10.1512  -16.4142   23.8921 O   0  0  0  0  0  0  0  0  0  0  0  0
    7.1422  -11.8347   27.4157 C   0  0  0  0  0  0  0  0  0  0  0  0
    7.8561  -13.0974   27.0219 C   0  0  0  0  0  0  0  0  0  0  0  0
    7.6083  -13.4369   25.5481 C   0  0  2  0  0  0  0  0  0  0  0  0
    6.1543  -13.6181   25.2847 C   0  0  0  0  0  0  0  0  0  0  0  0
    8.4174  -14.6986   25.3062 C   0  0  2  0  0  0  0  0  0  0  0  0
    8.3293  -14.9264   23.8509 N   0  0  0  0  0  0  0  0  0  0  0  0
    7.9369  -15.8829   26.0219 C   0  0  0  0  0  0  0  0  0  0  0  0
    6.8262  -16.4434   25.6951 O   0  0  0  0  0  0  0  0  0  0  0  0
   11.2285  -18.7481   23.6167 N   0  0  0  0  0  0  0  0  0  0  0  0
   10.3829  -19.7706   24.1100 C   0  0  0  0  0  0  0  0  0  0  0  0
   10.2826  -20.8905   23.5646 O   0  0  0  0  0  0  0  0  0  0  0  0
    9.5779  -19.4944   25.3353 C   0  0  0  0  0  0  0  0  0  0  0  0
    9.7867  -18.1095   25.8365 C   0  0  0  0  0  0  0  0  0  0  0  0
    9.0065  -17.8853   27.1044 C   0  0  2  0  0  0  0  0  0  0  0  0
    8.6487  -16.4581   27.0753 N   0  0  0  0  0  0  0  0  0  0  0  0
    9.7482  -18.2273   28.3078 C   0  0  0  0  0  0  0  0  0  0  0  0
    9.5062  -19.3187   28.9305 O   0  0  0  0  0  0  0  0  0  0  0  0
   10.7413  -17.4529   28.8740 O   0  0  0  0  0  0  0  0  0  0  0  0
  2  1  1  1
  2  3  1  0
  3  4  1  0
  4  9  2  0
  5  6  2  0
  5  4  1  0
  6  7  1  0
  7  8  2  0
  9  8  1  0
 10 11  2  0
 10  2  1  0
 12 13  1  0
 13 14  1  0
 14 15  1  1
 14 16  1  0
 16 17  1  6
 17 10  1  0
 18 26  1  0
 18 16  1  0
 19 18  2  0
 20 21  1  0
 21 23  1  0
 21 22  2  0
 23 24  1  0
 25 24  1  6
 25 26  1  0
 25 27  1  0
 27 29  1  0
 28 27  2  0
M  END
$$$$
