FIQ.pdb
     RDKit          3D

 29 29  0  0  1  0  0  0  0  0999 V2000
    9.8576  -15.1957   20.5194 N   0  0  0  0  0  0  0  0  0  0  0  0
    8.8533  -15.7077   21.4170 C   0  0  1  0  0  0  0  0  0  0  0  0
    8.7519  -17.2046   21.1625 C   0  0  0  0  0  0  0  0  0  0  0  0
    8.0953  -17.3829   19.8468 C   0  0  0  0  0  0  0  0  0  0  0  0
    8.8467  -17.6369   18.7273 C   0  0  0  0  0  0  0  0  0  0  0  0
    8.2340  -17.8060   17.4842 C   0  0  0  0  0  0  0  0  0  0  0  0
    6.8463  -17.7140   17.3906 C   0  0  0  0  0  0  0  0  0  0  0  0
    6.0859  -17.4594   18.5090 C   0  0  0  0  0  0  0  0  0  0  0  0
    6.7227  -17.2977   19.7207 C   0  0  0  0  0  0  0  0  0  0  0  0
    9.1788  -15.4230   22.8337 C   0  0  0  0  0  0  0  0  0  0  0  0
   10.4000  -15.3844   23.1627 O   0  0  0  0  0  0  0  0  0  0  0  0
    6.0387  -12.0900   25.1785 C   0  0  0  0  0  0  0  0  0  0  0  0
    7.2592  -12.9128   24.8750 C   0  0  0  0  0  0  0  0  0  0  0  0
    7.2801  -14.1998   25.7069 C   0  0  2  0  0  0  0  0  0  0  0  0
    7.4136  -13.8899   27.1568 C   0  0  0  0  0  0  0  0  0  0  0  0
    8.4547  -14.9896   25.1578 C   0  0  2  0  0  0  0  0  0  0  0  0
    8.1250  -15.2113   23.7366 N   0  0  0  0  0  0  0  0  0  0  0  0
    8.6914  -16.2763   25.8168 C   0  0  0  0  0  0  0  0  0  0  0  0
    7.8593  -17.2478   25.6811 O   0  0  0  0  0  0  0  0  0  0  0  0
   13.1005  -16.9820   30.0691 N   0  0  0  0  0  0  0  0  0  0  0  0
   11.8416  -16.3649   30.2642 C   0  0  0  0  0  0  0  0  0  0  0  0
   11.5998  -15.6054   31.2266 O   0  0  0  0  0  0  0  0  0  0  0  0
   10.7587  -16.6363   29.2745 C   0  0  0  0  0  0  0  0  0  0  0  0
   11.2089  -17.5583   28.1976 C   0  0  0  0  0  0  0  0  0  0  0  0
   10.0884  -17.8208   27.2268 C   0  0  2  0  0  0  0  0  0  0  0  0
    9.8149  -16.5131   26.6096 N   0  0  0  0  0  0  0  0  0  0  0  0
    8.8994  -18.3771   27.8530 C   0  0  0  0  0  0  0  0  0  0  0  0
    8.8463  -19.6195   28.1546 O   0  0  0  0  0  0  0  0  0  0  0  0
    7.7634  -17.6607   28.1738 O   0  0  0  0  0  0  0  0  0  0  0  0
  2  1  1  6
  2  3  1  0
  3  4  1  0
  4  9  2  0
  5  6  2  0
  5  4  1  0
  6  7  1  0
  7  8  2  0
  9  8  1  0
 10 11  2  0
 10  2  1  0
 12 13  1  0
 13 14  1  0
 14 15  1  1
 14 16  1  0
 16 17  1  6
 17 10  1  0
 18 26  1  0
 18 16  1  0
 19 18  2  0
 20 21  1  0
 21 23  1  0
 21 22  2  0
 23 24  1  0
 25 24  1  1
 25 26  1  0
 25 27  1  0
 27 29  1  0
 28 27  2  0
M  END
$$$$
