FIQ.pdb
     RDKit          3D

 29 29  0  0  1  0  0  0  0  0999 V2000
    8.3403  -15.1944   20.1850 N   0  0  0  0  0  0  0  0  0  0  0  0
    7.8333  -15.9044   21.3319 C   0  0  1  0  0  0  0  0  0  0  0  0
    8.0448  -17.3876   21.0652 C   0  0  0  0  0  0  0  0  0  0  0  0
    7.4550  -18.1272   22.2049 C   0  0  0  0  0  0  0  0  0  0  0  0
    8.1872  -18.3386   23.3458 C   0  0  0  0  0  0  0  0  0  0  0  0
    7.6371  -19.0350   24.4237 C   0  0  0  0  0  0  0  0  0  0  0  0
    6.3320  -19.5153   24.3296 C   0  0  0  0  0  0  0  0  0  0  0  0
    5.5914  -19.3072   23.1886 C   0  0  0  0  0  0  0  0  0  0  0  0
    6.1649  -18.6158   22.1432 C   0  0  0  0  0  0  0  0  0  0  0  0
    8.5006  -15.4819   22.5850 C   0  0  0  0  0  0  0  0  0  0  0  0
    9.7657  -15.4869   22.6108 O   0  0  0  0  0  0  0  0  0  0  0  0
    7.2570  -11.7126   27.1423 C   0  0  0  0  0  0  0  0  0  0  0  0
    8.1149  -12.7755   26.5153 C   0  0  0  0  0  0  0  0  0  0  0  0
    7.3636  -13.5044   25.3958 C   0  0  2  0  0  0  0  0  0  0  0  0
    6.1262  -14.1449   25.9198 C   0  0  0  0  0  0  0  0  0  0  0  0
    8.3669  -14.5063   24.8530 C   0  0  2  0  0  0  0  0  0  0  0  0
    7.7039  -15.0992   23.6754 N   0  0  0  0  0  0  0  0  0  0  0  0
    8.7469  -15.5648   25.7915 C   0  0  0  0  0  0  0  0  0  0  0  0
    7.8515  -16.2941   26.3582 O   0  0  0  0  0  0  0  0  0  0  0  0
   12.9089  -18.6572   24.0802 N   0  0  0  0  0  0  0  0  0  0  0  0
   12.5192  -19.5350   25.1202 C   0  0  0  0  0  0  0  0  0  0  0  0
   12.6668  -20.7741   25.0535 O   0  0  0  0  0  0  0  0  0  0  0  0
   11.9055  -18.9504   26.3479 C   0  0  0  0  0  0  0  0  0  0  0  0
   11.7687  -17.4725   26.2506 C   0  0  0  0  0  0  0  0  0  0  0  0
   10.4813  -17.0199   26.8868 C   0  0  2  0  0  0  0  0  0  0  0  0
   10.0777  -15.8359   26.1116 N   0  0  0  0  0  0  0  0  0  0  0  0
   10.6123  -16.7144   28.3027 C   0  0  0  0  0  0  0  0  0  0  0  0
   10.5971  -15.5009   28.7083 O   0  0  0  0  0  0  0  0  0  0  0  0
   10.7565  -17.6519   29.3061 O   0  0  0  0  0  0  0  0  0  0  0  0
  2  1  1  6
  2  3  1  0
  3  4  1  0
  4  9  2  0
  5  6  2  0
  5  4  1  0
  6  7  1  0
  7  8  2  0
  9  8  1  0
 10 11  2  0
 10  2  1  0
 12 13  1  0
 13 14  1  0
 14 15  1  1
 14 16  1  0
 16 17  1  6
 17 10  1  0
 18 26  1  0
 18 16  1  0
 19 18  2  0
 20 21  1  0
 21 23  1  0
 21 22  2  0
 23 24  1  0
 25 24  1  6
 25 26  1  0
 25 27  1  0
 27 29  1  0
 28 27  2  0
M  END
$$$$
