FIQ.pdb
     RDKit          3D

 29 29  0  0  1  0  0  0  0  0999 V2000
    5.5502  -17.7054   25.3285 N   0  0  0  0  0  0  0  0  0  0  0  0
    6.3092  -16.4875   25.1981 C   0  0  1  0  0  0  0  0  0  0  0  0
    7.0109  -16.2570   26.5286 C   0  0  0  0  0  0  0  0  0  0  0  0
    7.2022  -14.7957   26.6768 C   0  0  0  0  0  0  0  0  0  0  0  0
    6.1203  -13.9706   26.8529 C   0  0  0  0  0  0  0  0  0  0  0  0
    6.2938  -12.5924   26.9932 C   0  0  0  0  0  0  0  0  0  0  0  0
    7.5815  -12.0603   26.9527 C   0  0  0  0  0  0  0  0  0  0  0  0
    8.6715  -12.8814   26.7764 C   0  0  0  0  0  0  0  0  0  0  0  0
    8.4648  -14.2375   26.6411 C   0  0  0  0  0  0  0  0  0  0  0  0
    7.2804  -16.5563   24.0818 C   0  0  0  0  0  0  0  0  0  0  0  0
    7.9893  -17.5993   23.9794 O   0  0  0  0  0  0  0  0  0  0  0  0
    7.4151  -12.2146   20.5621 C   0  0  0  0  0  0  0  0  0  0  0  0
    7.9580  -13.2236   21.5347 C   0  0  0  0  0  0  0  0  0  0  0  0
    7.7751  -14.6521   21.0104 C   0  0  2  0  0  0  0  0  0  0  0  0
    6.3399  -14.9333   20.7323 C   0  0  0  0  0  0  0  0  0  0  0  0
    8.3528  -15.5356   22.1015 C   0  0  2  0  0  0  0  0  0  0  0  0
    7.3672  -15.4694   23.1977 N   0  0  0  0  0  0  0  0  0  0  0  0
    9.6688  -15.1218   22.5942 C   0  0  0  0  0  0  0  0  0  0  0  0
    9.7743  -14.3189   23.5937 O   0  0  0  0  0  0  0  0  0  0  0  0
   10.9771  -19.1675   25.3040 N   0  0  0  0  0  0  0  0  0  0  0  0
   12.3059  -18.6896   25.4031 C   0  0  0  0  0  0  0  0  0  0  0  0
   13.1568  -19.2023   26.1613 O   0  0  0  0  0  0  0  0  0  0  0  0
   12.7033  -17.5221   24.5636 C   0  0  0  0  0  0  0  0  0  0  0  0
   11.5834  -17.0466   23.7079 C   0  0  0  0  0  0  0  0  0  0  0  0
   12.0422  -15.9235   22.8164 C   0  0  2  0  0  0  0  0  0  0  0  0
   10.8569  -15.5724   22.0179 N   0  0  0  0  0  0  0  0  0  0  0  0
   13.1711  -16.2804   21.9715 C   0  0  0  0  0  0  0  0  0  0  0  0
   12.9804  -16.7023   20.7787 O   0  0  0  0  0  0  0  0  0  0  0  0
   14.4977  -16.2031   22.3466 O   0  0  0  0  0  0  0  0  0  0  0  0
  2  1  1  1
  2  3  1  0
  3  4  1  0
  4  9  2  0
  5  6  2  0
  5  4  1  0
  6  7  1  0
  7  8  2  0
  9  8  1  0
 10 11  2  0
 10  2  1  0
 12 13  1  0
 13 14  1  0
 14 15  1  1
 14 16  1  0
 16 17  1  1
 17 10  1  0
 18 26  1  0
 18 16  1  0
 19 18  2  0
 20 21  1  0
 21 23  1  0
 21 22  2  0
 23 24  1  0
 25 24  1  1
 25 26  1  0
 25 27  1  0
 27 29  1  0
 28 27  2  0
M  END
$$$$
