FIQ.pdb
     RDKit          3D

 29 29  0  0  1  0  0  0  0  0999 V2000
    5.7842  -17.3763   25.5428 N   0  0  0  0  0  0  0  0  0  0  0  0
    6.5804  -16.2161   25.2321 C   0  0  1  0  0  0  0  0  0  0  0  0
    7.2534  -15.7801   26.5253 C   0  0  0  0  0  0  0  0  0  0  0  0
    7.0938  -14.3113   26.6299 C   0  0  0  0  0  0  0  0  0  0  0  0
    8.1970  -13.4974   26.6842 C   0  0  0  0  0  0  0  0  0  0  0  0
    8.0534  -12.1122   26.7828 C   0  0  0  0  0  0  0  0  0  0  0  0
    6.7737  -11.5614   26.8258 C   0  0  0  0  0  0  0  0  0  0  0  0
    5.6624  -12.3711   26.7718 C   0  0  0  0  0  0  0  0  0  0  0  0
    5.8398  -13.7345   26.6746 C   0  0  0  0  0  0  0  0  0  0  0  0
    7.5779  -16.4955   24.1733 C   0  0  0  0  0  0  0  0  0  0  0  0
    7.8413  -17.7058   23.9149 O   0  0  0  0  0  0  0  0  0  0  0  0
    6.9571  -12.9839   20.3018 C   0  0  0  0  0  0  0  0  0  0  0  0
    7.2545  -14.2833   20.9960 C   0  0  0  0  0  0  0  0  0  0  0  0
    8.7116  -14.3380   21.4679 C   0  0  2  0  0  0  0  0  0  0  0  0
    9.6454  -14.2369   20.3129 C   0  0  0  0  0  0  0  0  0  0  0  0
    8.8233  -15.6589   22.2080 C   0  0  2  0  0  0  0  0  0  0  0  0
    8.1787  -15.4126   23.5124 N   0  0  0  0  0  0  0  0  0  0  0  0
   10.1938  -16.1326   22.4155 C   0  0  0  0  0  0  0  0  0  0  0  0
   10.9055  -16.5416   21.4252 O   0  0  0  0  0  0  0  0  0  0  0  0
   13.0735  -19.5535   26.2277 N   0  0  0  0  0  0  0  0  0  0  0  0
   13.4466  -19.8204   24.8885 C   0  0  0  0  0  0  0  0  0  0  0  0
   13.7426  -20.9642   24.4814 O   0  0  0  0  0  0  0  0  0  0  0  0
   13.4867  -18.6828   23.9241 C   0  0  0  0  0  0  0  0  0  0  0  0
   12.1385  -18.0946   23.7029 C   0  0  0  0  0  0  0  0  0  0  0  0
   12.1792  -16.6008   23.8867 C   0  0  2  0  0  0  0  0  0  0  0  0
   10.7908  -16.1606   23.6764 N   0  0  0  0  0  0  0  0  0  0  0  0
   13.0970  -15.9314   22.9784 C   0  0  0  0  0  0  0  0  0  0  0  0
   12.8069  -15.8071   21.7384 O   0  0  0  0  0  0  0  0  0  0  0  0
   14.3129  -15.3857   23.3397 O   0  0  0  0  0  0  0  0  0  0  0  0
  2  1  1  1
  2  3  1  0
  3  4  1  0
  4  9  2  0
  5  6  2  0
  5  4  1  0
  6  7  1  0
  7  8  2  0
  9  8  1  0
 10 11  2  0
 10  2  1  0
 12 13  1  0
 13 14  1  0
 14 15  1  6
 14 16  1  0
 16 17  1  1
 17 10  1  0
 18 26  1  0
 18 16  1  0
 19 18  2  0
 20 21  1  0
 21 23  1  0
 21 22  2  0
 23 24  1  0
 25 24  1  6
 25 26  1  0
 25 27  1  0
 27 29  1  0
 28 27  2  0
M  END
$$$$
