FIQ.pdb
     RDKit          3D

 29 29  0  0  1  0  0  0  0  0999 V2000
    5.6552  -17.8229   25.0930 N   0  0  0  0  0  0  0  0  0  0  0  0
    6.3083  -16.5400   25.0310 C   0  0  1  0  0  0  0  0  0  0  0  0
    6.8495  -16.2494   26.4232 C   0  0  0  0  0  0  0  0  0  0  0  0
    7.0491  -14.7849   26.5200 C   0  0  0  0  0  0  0  0  0  0  0  0
    5.9684  -13.9413   26.5724 C   0  0  0  0  0  0  0  0  0  0  0  0
    6.1497  -12.5599   26.6637 C   0  0  0  0  0  0  0  0  0  0  0  0
    7.4440  -12.0438   26.7013 C   0  0  0  0  0  0  0  0  0  0  0  0
    8.5328  -12.8835   26.6491 C   0  0  0  0  0  0  0  0  0  0  0  0
    8.3183  -14.2422   26.5592 C   0  0  0  0  0  0  0  0  0  0  0  0
    7.3881  -16.5159   24.0173 C   0  0  0  0  0  0  0  0  0  0  0  0
    8.1347  -17.5334   23.9258 O   0  0  0  0  0  0  0  0  0  0  0  0
    6.6393  -13.0812   20.0020 C   0  0  0  0  0  0  0  0  0  0  0  0
    7.0569  -14.2798   20.8069 C   0  0  0  0  0  0  0  0  0  0  0  0
    8.4279  -14.0607   21.4558 C   0  0  2  0  0  0  0  0  0  0  0  0
    9.4725  -13.8325   20.4199 C   0  0  0  0  0  0  0  0  0  0  0  0
    8.6675  -15.3169   22.2741 C   0  0  2  0  0  0  0  0  0  0  0  0
    7.5305  -15.3744   23.2130 N   0  0  0  0  0  0  0  0  0  0  0  0
    9.9271  -15.3318   23.0217 C   0  0  0  0  0  0  0  0  0  0  0  0
   10.0837  -14.5910   24.0617 O   0  0  0  0  0  0  0  0  0  0  0  0
   10.4820  -18.8284   26.6896 N   0  0  0  0  0  0  0  0  0  0  0  0
   11.8738  -18.5727   26.7290 C   0  0  0  0  0  0  0  0  0  0  0  0
   12.6099  -18.9653   27.6594 O   0  0  0  0  0  0  0  0  0  0  0  0
   12.4842  -17.8001   25.6081 C   0  0  0  0  0  0  0  0  0  0  0  0
   11.4571  -17.2941   24.6586 C   0  0  0  0  0  0  0  0  0  0  0  0
   12.1013  -16.4671   23.5779 C   0  0  2  0  0  0  0  0  0  0  0  0
   11.0037  -16.1396   22.6539 N   0  0  0  0  0  0  0  0  0  0  0  0
   13.1889  -17.1517   22.8969 C   0  0  0  0  0  0  0  0  0  0  0  0
   14.3325  -17.2712   23.4584 O   0  0  0  0  0  0  0  0  0  0  0  0
   13.1060  -17.7177   21.6401 O   0  0  0  0  0  0  0  0  0  0  0  0
  2  1  1  1
  2  3  1  0
  3  4  1  0
  4  9  2  0
  5  6  2  0
  5  4  1  0
  6  7  1  0
  7  8  2  0
  9  8  1  0
 10 11  2  0
 10  2  1  0
 12 13  1  0
 13 14  1  0
 14 15  1  6
 14 16  1  0
 16 17  1  1
 17 10  1  0
 18 26  1  0
 18 16  1  0
 19 18  2  0
 20 21  1  0
 21 23  1  0
 21 22  2  0
 23 24  1  0
 25 24  1  1
 25 26  1  0
 25 27  1  0
 27 29  1  0
 28 27  2  0
M  END
$$$$
