FIQ.pdb
     RDKit          3D

 29 29  0  0  1  0  0  0  0  0999 V2000
    5.6123  -17.7110   25.5879 N   0  0  0  0  0  0  0  0  0  0  0  0
    6.3454  -16.4871   25.3855 C   0  0  1  0  0  0  0  0  0  0  0  0
    7.0926  -16.1979   26.6792 C   0  0  0  0  0  0  0  0  0  0  0  0
    7.2030  -14.7260   26.8029 C   0  0  0  0  0  0  0  0  0  0  0  0
    8.4354  -14.1231   26.8156 C   0  0  0  0  0  0  0  0  0  0  0  0
    8.5463  -12.7362   26.9319 C   0  0  0  0  0  0  0  0  0  0  0  0
    7.3888  -11.9666   27.0355 C   0  0  0  0  0  0  0  0  0  0  0  0
    6.1492  -12.5640   27.0235 C   0  0  0  0  0  0  0  0  0  0  0  0
    6.0755  -13.9355   26.9073 C   0  0  0  0  0  0  0  0  0  0  0  0
    7.2750  -16.5813   24.2361 C   0  0  0  0  0  0  0  0  0  0  0  0
    7.8088  -17.7037   23.9989 O   0  0  0  0  0  0  0  0  0  0  0  0
    6.5199  -12.9908   20.3921 C   0  0  0  0  0  0  0  0  0  0  0  0
    6.8682  -14.2331   21.1628 C   0  0  0  0  0  0  0  0  0  0  0  0
    8.3354  -14.2168   21.6057 C   0  0  2  0  0  0  0  0  0  0  0  0
    9.2416  -14.1171   20.4288 C   0  0  0  0  0  0  0  0  0  0  0  0
    8.5130  -15.5080   22.3843 C   0  0  2  0  0  0  0  0  0  0  0  0
    7.5174  -15.4298   23.4708 N   0  0  0  0  0  0  0  0  0  0  0  0
    9.8492  -15.7043   22.9514 C   0  0  0  0  0  0  0  0  0  0  0  0
   10.3186  -14.8875   23.8274 O   0  0  0  0  0  0  0  0  0  0  0  0
   13.1894  -19.8238   25.5030 N   0  0  0  0  0  0  0  0  0  0  0  0
   11.7949  -19.5877   25.5637 C   0  0  0  0  0  0  0  0  0  0  0  0
   11.0703  -20.0334   26.4790 O   0  0  0  0  0  0  0  0  0  0  0  0
   11.1673  -18.7700   24.4852 C   0  0  0  0  0  0  0  0  0  0  0  0
   12.1455  -18.4020   23.4267 C   0  0  0  0  0  0  0  0  0  0  0  0
   12.0365  -16.9374   23.0953 C   0  0  2  0  0  0  0  0  0  0  0  0
   10.6677  -16.7718   22.5807 N   0  0  0  0  0  0  0  0  0  0  0  0
   13.0292  -16.4871   22.1325 C   0  0  0  0  0  0  0  0  0  0  0  0
   14.2410  -16.2911   22.4940 O   0  0  0  0  0  0  0  0  0  0  0  0
   12.7827  -16.2392   20.7967 O   0  0  0  0  0  0  0  0  0  0  0  0
  2  1  1  1
  2  3  1  0
  3  4  1  0
  4  9  2  0
  5  6  2  0
  5  4  1  0
  6  7  1  0
  7  8  2  0
  9  8  1  0
 10 11  2  0
 10  2  1  0
 12 13  1  0
 13 14  1  0
 14 15  1  6
 14 16  1  0
 16 17  1  1
 17 10  1  0
 18 26  1  0
 18 16  1  0
 19 18  2  0
 20 21  1  0
 21 23  1  0
 21 22  2  0
 23 24  1  0
 25 24  1  6
 25 26  1  0
 25 27  1  0
 27 29  1  0
 28 27  2  0
M  END
$$$$
