FIQ.pdb
     RDKit          3D

 29 29  0  0  1  0  0  0  0  0999 V2000
   10.4878  -16.5989   21.3265 N   0  0  0  0  0  0  0  0  0  0  0  0
    9.4755  -15.7554   21.9096 C   0  0  1  0  0  0  0  0  0  0  0  0
    8.1935  -15.9929   21.1248 C   0  0  0  0  0  0  0  0  0  0  0  0
    7.7606  -14.6836   20.5842 C   0  0  0  0  0  0  0  0  0  0  0  0
    8.3960  -14.1396   19.4967 C   0  0  0  0  0  0  0  0  0  0  0  0
    7.9928  -12.9059   18.9823 C   0  0  0  0  0  0  0  0  0  0  0  0
    6.9344  -12.2292   19.5863 C   0  0  0  0  0  0  0  0  0  0  0  0
    6.2921  -12.7683   20.6773 C   0  0  0  0  0  0  0  0  0  0  0  0
    6.7155  -13.9881   21.1598 C   0  0  0  0  0  0  0  0  0  0  0  0
    9.2839  -16.0349   23.3515 C   0  0  0  0  0  0  0  0  0  0  0  0
    9.8158  -17.0803   23.8260 O   0  0  0  0  0  0  0  0  0  0  0  0
    6.9176  -11.7265   25.5626 C   0  0  0  0  0  0  0  0  0  0  0  0
    7.9926  -12.7269   25.2428 C   0  0  0  0  0  0  0  0  0  0  0  0
    7.8295  -14.0011   26.0788 C   0  0  2  0  0  0  0  0  0  0  0  0
    8.0000  -13.7076   27.5283 C   0  0  0  0  0  0  0  0  0  0  0  0
    8.8835  -14.9500   25.5370 C   0  0  2  0  0  0  0  0  0  0  0  0
    8.5273  -15.1336   24.1167 N   0  0  0  0  0  0  0  0  0  0  0  0
    8.9388  -16.2525   26.2050 C   0  0  0  0  0  0  0  0  0  0  0  0
    7.8824  -16.9770   26.3224 O   0  0  0  0  0  0  0  0  0  0  0  0
   13.1368  -19.5581   24.9044 N   0  0  0  0  0  0  0  0  0  0  0  0
   12.1619  -20.4957   25.3221 C   0  0  0  0  0  0  0  0  0  0  0  0
   12.0744  -21.6448   24.8390 O   0  0  0  0  0  0  0  0  0  0  0  0
   11.1986  -20.0894   26.3864 C   0  0  0  0  0  0  0  0  0  0  0  0
   11.4567  -18.7068   26.8706 C   0  0  0  0  0  0  0  0  0  0  0  0
   10.1876  -18.0856   27.3906 C   0  0  2  0  0  0  0  0  0  0  0  0
   10.1211  -16.7689   26.7366 N   0  0  0  0  0  0  0  0  0  0  0  0
   10.1538  -17.9665   28.8397 C   0  0  0  0  0  0  0  0  0  0  0  0
   10.3998  -16.8448   29.4041 O   0  0  0  0  0  0  0  0  0  0  0  0
    9.8651  -18.9961   29.7133 O   0  0  0  0  0  0  0  0  0  0  0  0
  2  1  1  6
  2  3  1  0
  3  4  1  0
  4  9  2  0
  5  6  2  0
  5  4  1  0
  6  7  1  0
  7  8  2  0
  9  8  1  0
 10 11  2  0
 10  2  1  0
 12 13  1  0
 13 14  1  0
 14 15  1  1
 14 16  1  0
 16 17  1  6
 17 10  1  0
 18 26  1  0
 18 16  1  0
 19 18  2  0
 20 21  1  0
 21 23  1  0
 21 22  2  0
 23 24  1  0
 25 24  1  1
 25 26  1  0
 25 27  1  0
 27 29  1  0
 28 27  2  0
M  END
$$$$
