FIQ.pdb
     RDKit          3D

 29 29  0  0  1  0  0  0  0  0999 V2000
    5.6105  -17.6994   25.5954 N   0  0  0  0  0  0  0  0  0  0  0  0
    6.2595  -16.4499   25.2891 C   0  0  1  0  0  0  0  0  0  0  0  0
    6.8358  -15.9175   26.5930 C   0  0  0  0  0  0  0  0  0  0  0  0
    6.7606  -14.4394   26.5352 C   0  0  0  0  0  0  0  0  0  0  0  0
    5.5479  -13.8131   26.3963 C   0  0  0  0  0  0  0  0  0  0  0  0
    5.4702  -12.4201   26.3412 C   0  0  0  0  0  0  0  0  0  0  0  0
    6.6408  -11.6686   26.4290 C   0  0  0  0  0  0  0  0  0  0  0  0
    7.8609  -12.2896   26.5684 C   0  0  0  0  0  0  0  0  0  0  0  0
    7.9019  -13.6664   26.6194 C   0  0  0  0  0  0  0  0  0  0  0  0
    7.3130  -16.6099   24.2602 C   0  0  0  0  0  0  0  0  0  0  0  0
    8.0469  -17.6389   24.3217 O   0  0  0  0  0  0  0  0  0  0  0  0
    8.2501  -12.3464   20.7679 C   0  0  0  0  0  0  0  0  0  0  0  0
    8.4569  -13.4734   21.7404 C   0  0  0  0  0  0  0  0  0  0  0  0
    8.0476  -14.8167   21.1264 C   0  0  2  0  0  0  0  0  0  0  0  0
    6.5987  -14.8220   20.7844 C   0  0  0  0  0  0  0  0  0  0  0  0
    8.4125  -15.8453   22.1818 C   0  0  2  0  0  0  0  0  0  0  0  0
    7.4458  -15.6201   23.2738 N   0  0  0  0  0  0  0  0  0  0  0  0
    9.7782  -15.7355   22.7000 C   0  0  0  0  0  0  0  0  0  0  0  0
   10.0989  -14.7930   23.5146 O   0  0  0  0  0  0  0  0  0  0  0  0
   12.9218  -19.9953   24.9495 N   0  0  0  0  0  0  0  0  0  0  0  0
   11.9478  -19.1082   25.4673 C   0  0  0  0  0  0  0  0  0  0  0  0
   11.2957  -19.3474   26.5062 O   0  0  0  0  0  0  0  0  0  0  0  0
   11.6919  -17.8326   24.7371 C   0  0  0  0  0  0  0  0  0  0  0  0
   12.5254  -17.7181   23.5104 C   0  0  0  0  0  0  0  0  0  0  0  0
   12.1865  -16.4579   22.7595 C   0  0  2  0  0  0  0  0  0  0  0  0
   10.7850  -16.6346   22.3467 N   0  0  0  0  0  0  0  0  0  0  0  0
   13.0546  -16.2138   21.6183 C   0  0  0  0  0  0  0  0  0  0  0  0
   12.6168  -16.3679   20.4259 O   0  0  0  0  0  0  0  0  0  0  0  0
   14.3723  -15.8088   21.6969 O   0  0  0  0  0  0  0  0  0  0  0  0
  2  1  1  1
  2  3  1  0
  3  4  1  0
  4  9  2  0
  5  6  2  0
  5  4  1  0
  6  7  1  0
  7  8  2  0
  9  8  1  0
 10 11  2  0
 10  2  1  0
 12 13  1  0
 13 14  1  0
 14 15  1  1
 14 16  1  0
 16 17  1  1
 17 10  1  0
 18 26  1  0
 18 16  1  0
 19 18  2  0
 20 21  1  0
 21 23  1  0
 21 22  2  0
 23 24  1  0
 25 24  1  6
 25 26  1  0
 25 27  1  0
 27 29  1  0
 28 27  2  0
M  END
$$$$
