FIQ.pdb
     RDKit          3D

 29 29  0  0  1  0  0  0  0  0999 V2000
    7.1937  -18.9801   27.6282 N   0  0  0  0  0  0  0  0  0  0  0  0
    7.8150  -17.6824   27.5492 C   0  0  1  0  0  0  0  0  0  0  0  0
    9.2416  -17.8415   28.0544 C   0  0  0  0  0  0  0  0  0  0  0  0
    9.5894  -16.6012   28.7855 C   0  0  0  0  0  0  0  0  0  0  0  0
    9.7061  -15.4111   28.1130 C   0  0  0  0  0  0  0  0  0  0  0  0
   10.0337  -14.2385   28.7963 C   0  0  0  0  0  0  0  0  0  0  0  0
   10.2420  -14.2882   30.1736 C   0  0  0  0  0  0  0  0  0  0  0  0
   10.1268  -15.4781   30.8551 C   0  0  0  0  0  0  0  0  0  0  0  0
    9.8021  -16.6171   30.1500 C   0  0  0  0  0  0  0  0  0  0  0  0
    7.7889  -17.1381   26.1718 C   0  0  0  0  0  0  0  0  0  0  0  0
    7.8122  -17.9613   25.2112 O   0  0  0  0  0  0  0  0  0  0  0  0
    6.0604  -12.2240   26.0106 C   0  0  0  0  0  0  0  0  0  0  0  0
    6.3002  -13.6121   25.4865 C   0  0  0  0  0  0  0  0  0  0  0  0
    7.6591  -13.7118   24.7850 C   0  0  2  0  0  0  0  0  0  0  0  0
    7.6349  -12.9936   23.4812 C   0  0  0  0  0  0  0  0  0  0  0  0
    7.9033  -15.2030   24.6371 C   0  0  2  0  0  0  0  0  0  0  0  0
    7.7399  -15.7459   25.9995 N   0  0  0  0  0  0  0  0  0  0  0  0
    9.2256  -15.5602   24.1179 C   0  0  0  0  0  0  0  0  0  0  0  0
   10.2884  -15.3149   24.7999 O   0  0  0  0  0  0  0  0  0  0  0  0
    9.6208  -19.6082   19.5428 N   0  0  0  0  0  0  0  0  0  0  0  0
    9.3985  -18.2473   19.2228 C   0  0  0  0  0  0  0  0  0  0  0  0
    9.0499  -17.8657   18.0850 O   0  0  0  0  0  0  0  0  0  0  0  0
    9.5900  -17.2272   20.2945 C   0  0  0  0  0  0  0  0  0  0  0  0
   10.3812  -17.7618   21.4350 C   0  0  0  0  0  0  0  0  0  0  0  0
   10.7074  -16.6625   22.4106 C   0  0  2  0  0  0  0  0  0  0  0  0
    9.3989  -16.1786   22.8791 N   0  0  0  0  0  0  0  0  0  0  0  0
   11.4987  -15.5896   21.8292 C   0  0  0  0  0  0  0  0  0  0  0  0
   11.1181  -15.0136   20.7519 O   0  0  0  0  0  0  0  0  0  0  0  0
   12.6804  -15.1031   22.3522 O   0  0  0  0  0  0  0  0  0  0  0  0
  2  1  1  6
  2  3  1  0
  3  4  1  0
  4  9  2  0
  5  6  2  0
  5  4  1  0
  6  7  1  0
  7  8  2  0
  9  8  1  0
 10 11  2  0
 10  2  1  0
 12 13  1  0
 13 14  1  0
 14 15  1  6
 14 16  1  0
 16 17  1  1
 17 10  1  0
 18 26  1  0
 18 16  1  0
 19 18  2  0
 20 21  1  0
 21 23  1  0
 21 22  2  0
 23 24  1  0
 25 24  1  6
 25 26  1  0
 25 27  1  0
 27 29  1  0
 28 27  2  0
M  END
$$$$
