FIQ.pdb
     RDKit          3D

 29 29  0  0  1  0  0  0  0  0999 V2000
    5.4526  -17.4037   25.1852 N   0  0  0  0  0  0  0  0  0  0  0  0
    6.2782  -16.2279   25.0745 C   0  0  1  0  0  0  0  0  0  0  0  0
    6.9250  -16.0098   26.4345 C   0  0  0  0  0  0  0  0  0  0  0  0
    7.0247  -14.5469   26.6439 C   0  0  0  0  0  0  0  0  0  0  0  0
    8.2533  -13.9418   26.7261 C   0  0  0  0  0  0  0  0  0  0  0  0
    8.3541  -12.5633   26.9233 C   0  0  0  0  0  0  0  0  0  0  0  0
    7.1904  -11.8044   27.0364 C   0  0  0  0  0  0  0  0  0  0  0  0
    5.9545  -12.4041   26.9550 C   0  0  0  0  0  0  0  0  0  0  0  0
    5.8908  -13.7672   26.7598 C   0  0  0  0  0  0  0  0  0  0  0  0
    7.2978  -16.3647   24.0088 C   0  0  0  0  0  0  0  0  0  0  0  0
    7.8494  -17.4938   23.8608 O   0  0  0  0  0  0  0  0  0  0  0  0
    6.8745  -12.7325   20.1882 C   0  0  0  0  0  0  0  0  0  0  0  0
    7.1413  -14.0098   20.9339 C   0  0  0  0  0  0  0  0  0  0  0  0
    8.5960  -14.0788   21.4112 C   0  0  2  0  0  0  0  0  0  0  0  0
    9.5333  -14.0564   20.2548 C   0  0  0  0  0  0  0  0  0  0  0  0
    8.6734  -15.3653   22.2136 C   0  0  2  0  0  0  0  0  0  0  0  0
    7.6010  -15.2438   23.2200 N   0  0  0  0  0  0  0  0  0  0  0  0
    9.9558  -15.5953   22.8831 C   0  0  0  0  0  0  0  0  0  0  0  0
   10.3228  -14.8595   23.8724 O   0  0  0  0  0  0  0  0  0  0  0  0
   12.1363  -20.7967   24.6276 N   0  0  0  0  0  0  0  0  0  0  0  0
   13.3594  -20.0863   24.6848 C   0  0  0  0  0  0  0  0  0  0  0  0
   14.4123  -20.5832   25.1387 O   0  0  0  0  0  0  0  0  0  0  0  0
   13.3877  -18.6828   24.1798 C   0  0  0  0  0  0  0  0  0  0  0  0
   12.0915  -18.2870   23.5667 C   0  0  0  0  0  0  0  0  0  0  0  0
   12.1247  -16.8396   23.1536 C   0  0  2  0  0  0  0  0  0  0  0  0
   10.8302  -16.6101   22.4923 N   0  0  0  0  0  0  0  0  0  0  0  0
   13.2392  -16.5139   22.2777 C   0  0  0  0  0  0  0  0  0  0  0  0
   14.3951  -16.2619   22.7653 O   0  0  0  0  0  0  0  0  0  0  0  0
   13.1720  -16.4483   20.9001 O   0  0  0  0  0  0  0  0  0  0  0  0
  2  1  1  1
  2  3  1  0
  3  4  1  0
  4  9  2  0
  5  6  2  0
  5  4  1  0
  6  7  1  0
  7  8  2  0
  9  8  1  0
 10 11  2  0
 10  2  1  0
 12 13  1  0
 13 14  1  0
 14 15  1  6
 14 16  1  0
 16 17  1  1
 17 10  1  0
 18 26  1  0
 18 16  1  0
 19 18  2  0
 20 21  1  0
 21 23  1  0
 21 22  2  0
 23 24  1  0
 25 24  1  6
 25 26  1  0
 25 27  1  0
 27 29  1  0
 28 27  2  0
M  END
$$$$
