FIQ.pdb
     RDKit          3D

 29 29  0  0  1  0  0  0  0  0999 V2000
    9.8332  -16.2100   21.6499 N   0  0  0  0  0  0  0  0  0  0  0  0
    8.8358  -15.3310   22.2058 C   0  0  1  0  0  0  0  0  0  0  0  0
    7.5560  -15.5539   21.4133 C   0  0  0  0  0  0  0  0  0  0  0  0
    7.4795  -14.4834   20.3925 C   0  0  0  0  0  0  0  0  0  0  0  0
    8.4823  -13.5528   20.2892 C   0  0  0  0  0  0  0  0  0  0  0  0
    8.4162  -12.5412   19.3292 C   0  0  0  0  0  0  0  0  0  0  0  0
    7.3175  -12.4853   18.4731 C   0  0  0  0  0  0  0  0  0  0  0  0
    6.3078  -13.4151   18.5706 C   0  0  0  0  0  0  0  0  0  0  0  0
    6.4045  -14.4005   19.5295 C   0  0  0  0  0  0  0  0  0  0  0  0
    8.6240  -15.5764   23.6511 C   0  0  0  0  0  0  0  0  0  0  0  0
    9.2444  -16.5424   24.1831 O   0  0  0  0  0  0  0  0  0  0  0  0
    6.6440  -11.2697   25.8032 C   0  0  0  0  0  0  0  0  0  0  0  0
    7.4258  -12.5267   25.5434 C   0  0  0  0  0  0  0  0  0  0  0  0
    6.8162  -13.7212   26.2853 C   0  0  2  0  0  0  0  0  0  0  0  0
    6.8809  -13.5173   27.7585 C   0  0  0  0  0  0  0  0  0  0  0  0
    7.6264  -14.9159   25.8150 C   0  0  2  0  0  0  0  0  0  0  0  0
    7.7519  -14.7321   24.3561 N   0  0  0  0  0  0  0  0  0  0  0  0
    7.0203  -16.2189   26.0986 C   0  0  0  0  0  0  0  0  0  0  0  0
    6.1515  -16.7286   25.2985 O   0  0  0  0  0  0  0  0  0  0  0  0
    7.0538  -19.6626   23.1795 N   0  0  0  0  0  0  0  0  0  0  0  0
    7.1942  -20.6788   24.1551 C   0  0  0  0  0  0  0  0  0  0  0  0
    7.1675  -21.8965   23.8755 O   0  0  0  0  0  0  0  0  0  0  0  0
    7.3822  -20.2732   25.5784 C   0  0  0  0  0  0  0  0  0  0  0  0
    7.3419  -18.7955   25.7447 C   0  0  0  0  0  0  0  0  0  0  0  0
    7.5539  -18.4222   27.1878 C   0  0  2  0  0  0  0  0  0  0  0  0
    7.3509  -16.9653   27.2303 N   0  0  0  0  0  0  0  0  0  0  0  0
    8.8648  -18.7958   27.6950 C   0  0  0  0  0  0  0  0  0  0  0  0
    8.9716  -19.5477   28.7248 O   0  0  0  0  0  0  0  0  0  0  0  0
   10.0690  -18.4016   27.1463 O   0  0  0  0  0  0  0  0  0  0  0  0
  2  1  1  6
  2  3  1  0
  3  4  1  0
  4  9  2  0
  5  6  2  0
  5  4  1  0
  6  7  1  0
  7  8  2  0
  9  8  1  0
 10 11  2  0
 10  2  1  0
 12 13  1  0
 13 14  1  0
 14 15  1  1
 14 16  1  0
 16 17  1  6
 17 10  1  0
 18 26  1  0
 18 16  1  0
 19 18  2  0
 20 21  1  0
 21 23  1  0
 21 22  2  0
 23 24  1  0
 25 24  1  6
 25 26  1  0
 25 27  1  0
 27 29  1  0
 28 27  2  0
M  END
$$$$
