FIQ.pdb
     RDKit          3D

 29 29  0  0  1  0  0  0  0  0999 V2000
    8.8814  -15.7283   20.7106 N   0  0  0  0  0  0  0  0  0  0  0  0
    8.2343  -16.1726   21.9190 C   0  0  1  0  0  0  0  0  0  0  0  0
    8.3482  -17.6897   21.9517 C   0  0  0  0  0  0  0  0  0  0  0  0
    7.5178  -18.2164   20.8440 C   0  0  0  0  0  0  0  0  0  0  0  0
    8.1028  -18.6076   19.6662 C   0  0  0  0  0  0  0  0  0  0  0  0
    7.3258  -19.1049   18.6183 C   0  0  0  0  0  0  0  0  0  0  0  0
    5.9446  -19.2007   18.7803 C   0  0  0  0  0  0  0  0  0  0  0  0
    5.3506  -18.8104   19.9586 C   0  0  0  0  0  0  0  0  0  0  0  0
    6.1471  -18.3239   20.9730 C   0  0  0  0  0  0  0  0  0  0  0  0
    8.8354  -15.5612   23.1269 C   0  0  0  0  0  0  0  0  0  0  0  0
   10.0913  -15.4088   23.1488 O   0  0  0  0  0  0  0  0  0  0  0  0
    6.2555  -11.7717   25.5006 C   0  0  0  0  0  0  0  0  0  0  0  0
    7.3453  -12.7074   25.0583 C   0  0  0  0  0  0  0  0  0  0  0  0
    7.5596  -13.8299   26.0796 C   0  0  2  0  0  0  0  0  0  0  0  0
    7.9898  -13.2751   27.3923 C   0  0  0  0  0  0  0  0  0  0  0  0
    8.6044  -14.7295   25.4439 C   0  0  2  0  0  0  0  0  0  0  0  0
    7.9895  -15.1829   24.1813 N   0  0  0  0  0  0  0  0  0  0  0  0
    8.9889  -15.8897   26.2511 C   0  0  0  0  0  0  0  0  0  0  0  0
    8.1127  -16.7596   26.6121 O   0  0  0  0  0  0  0  0  0  0  0  0
   14.2382  -18.6650   25.6674 N   0  0  0  0  0  0  0  0  0  0  0  0
   13.1141  -18.4757   24.8280 C   0  0  0  0  0  0  0  0  0  0  0  0
   13.1332  -18.7202   23.6026 O   0  0  0  0  0  0  0  0  0  0  0  0
   11.8533  -17.9615   25.4376 C   0  0  0  0  0  0  0  0  0  0  0  0
   11.9960  -17.7351   26.9008 C   0  0  0  0  0  0  0  0  0  0  0  0
   10.6935  -17.2627   27.4899 C   0  0  2  0  0  0  0  0  0  0  0  0
   10.3044  -16.1110   26.6605 N   0  0  0  0  0  0  0  0  0  0  0  0
   10.7918  -16.9021   28.8955 C   0  0  0  0  0  0  0  0  0  0  0  0
   11.0975  -17.7835   29.7713 O   0  0  0  0  0  0  0  0  0  0  0  0
   10.5795  -15.6369   29.4061 O   0  0  0  0  0  0  0  0  0  0  0  0
  2  1  1  6
  2  3  1  0
  3  4  1  0
  4  9  2  0
  5  6  2  0
  5  4  1  0
  6  7  1  0
  7  8  2  0
  9  8  1  0
 10 11  2  0
 10  2  1  0
 12 13  1  0
 13 14  1  0
 14 15  1  1
 14 16  1  0
 16 17  1  6
 17 10  1  0
 18 26  1  0
 18 16  1  0
 19 18  2  0
 20 21  1  0
 21 23  1  0
 21 22  2  0
 23 24  1  0
 25 24  1  6
 25 26  1  0
 25 27  1  0
 27 29  1  0
 28 27  2  0
M  END
$$$$
