ETA.pdb
     RDKit          3D

 22 21  0  0  1  0  0  0  0  0999 V2000
    9.0082  -15.2917   15.4343 N   0  0  0  0  0  0  0  0  0  0  0  0
    9.4483  -16.0946   16.5124 C   0  0  1  0  0  0  0  0  0  0  0  0
   10.7186  -16.8054   16.0595 C   0  0  0  0  0  0  0  0  0  0  0  0
   10.3208  -18.2024   15.6476 C   0  0  0  0  0  0  0  0  0  0  0  0
   11.4894  -18.9896   15.2327 C   0  0  0  0  0  0  0  0  0  0  0  0
   11.7543  -19.3836   14.0811 O   0  0  0  0  0  0  0  0  0  0  0  0
    9.7507  -15.2556   17.7188 C   0  0  0  0  0  0  0  0  0  0  0  0
   10.5545  -14.2979   17.7180 O   0  0  0  0  0  0  0  0  0  0  0  0
   12.4118  -19.3397   16.2341 O   0  0  0  0  0  0  0  0  0  0  0  0
    7.5138  -13.1178   19.5616 C   0  0  0  0  0  0  0  0  0  0  0  0
    7.9583  -14.2199   20.5259 C   0  0  1  0  0  0  0  0  0  0  0  0
    6.9713  -15.2041   20.4622 O   0  0  0  0  0  0  0  0  0  0  0  0
    9.2954  -14.7896   20.1004 C   0  0  2  0  0  0  0  0  0  0  0  0
    9.0882  -15.5675   18.9223 N   0  0  0  0  0  0  0  0  0  0  0  0
    9.6967  -15.7561   21.2002 C   0  0  0  0  0  0  0  0  0  0  0  0
   10.1360  -16.8836   20.9104 O   0  0  0  0  0  0  0  0  0  0  0  0
   11.3950  -16.6786   23.5955 C   0  0  0  0  0  0  0  0  0  0  0  0
    9.9889  -16.1790   23.6680 C   0  0  2  0  0  0  0  0  0  0  0  0
    9.5770  -15.3904   22.5573 N   0  0  0  0  0  0  0  0  0  0  0  0
    9.6170  -15.7268   25.0095 C   0  0  0  0  0  0  0  0  0  0  0  0
    9.0804  -14.5862   25.1059 O   0  0  0  0  0  0  0  0  0  0  0  0
    9.8231  -16.4616   26.1343 O   0  0  0  0  0  0  0  0  0  0  0  0
  2  1  1  6
  2  3  1  0
  3  4  1  0
  4  5  1  0
  5  6  2  0
  5  9  1  0
  7 14  1  0
  7  2  1  0
  8  7  2  0
 11 10  1  6
 11 13  1  0
 12 11  1  0
 13 14  1  6
 13 15  1  0
 15 19  1  0
 16 15  2  0
 18 20  1  0
 18 17  1  1
 19 18  1  0
 20 22  1  0
 21 20  2  0
M  END
$$$$
