ETA.pdb
     RDKit          3D

 22 21  0  0  1  0  0  0  0  0999 V2000
    8.6951  -15.7985   15.1077 N   0  0  0  0  0  0  0  0  0  0  0  0
    8.2885  -16.1974   16.4024 C   0  0  1  0  0  0  0  0  0  0  0  0
    8.5639  -17.6918   16.5240 C   0  0  0  0  0  0  0  0  0  0  0  0
    8.8763  -18.1984   15.1364 C   0  0  0  0  0  0  0  0  0  0  0  0
    9.1249  -19.6459   15.1401 C   0  0  0  0  0  0  0  0  0  0  0  0
   10.1482  -20.2274   15.5481 O   0  0  0  0  0  0  0  0  0  0  0  0
    9.0597  -15.4618   17.4584 C   0  0  0  0  0  0  0  0  0  0  0  0
   10.1850  -14.9502   17.2703 O   0  0  0  0  0  0  0  0  0  0  0  0
    8.1059  -20.4703   14.6318 O   0  0  0  0  0  0  0  0  0  0  0  0
    7.6093  -12.6646   19.5164 C   0  0  0  0  0  0  0  0  0  0  0  0
    8.1116  -13.7522   20.4689 C   0  0  1  0  0  0  0  0  0  0  0  0
    6.9888  -14.5050   20.8149 O   0  0  0  0  0  0  0  0  0  0  0  0
    9.1382  -14.6273   19.7808 C   0  0  2  0  0  0  0  0  0  0  0  0
    8.4792  -15.3418   18.7363 N   0  0  0  0  0  0  0  0  0  0  0  0
    9.5607  -15.6537   20.8166 C   0  0  0  0  0  0  0  0  0  0  0  0
    8.9069  -16.7027   20.9583 O   0  0  0  0  0  0  0  0  0  0  0  0
   12.6353  -16.1370   22.9597 C   0  0  0  0  0  0  0  0  0  0  0  0
   11.1939  -16.3260   22.6152 C   0  0  2  0  0  0  0  0  0  0  0  0
   10.6936  -15.4321   21.6273 N   0  0  0  0  0  0  0  0  0  0  0  0
   10.3610  -16.5914   23.7892 C   0  0  0  0  0  0  0  0  0  0  0  0
   10.7774  -17.4601   24.6077 O   0  0  0  0  0  0  0  0  0  0  0  0
    9.1810  -15.9616   24.0313 O   0  0  0  0  0  0  0  0  0  0  0  0
  2  1  1  6
  2  3  1  0
  3  4  1  0
  4  5  1  0
  5  6  2  0
  5  9  1  0
  7 14  1  0
  7  2  1  0
  8  7  2  0
 11 10  1  6
 11 13  1  0
 12 11  1  0
 13 14  1  6
 13 15  1  0
 15 19  1  0
 16 15  2  0
 18 20  1  0
 18 17  1  1
 19 18  1  0
 20 22  1  0
 21 20  2  0
M  END
$$$$
