ETA.pdb
     RDKit          3D

 22 21  0  0  1  0  0  0  0  0999 V2000
   10.5406  -18.4335   21.2119 N   0  0  0  0  0  0  0  0  0  0  0  0
   11.5333  -17.4356   21.3500 C   0  0  1  0  0  0  0  0  0  0  0  0
   12.0395  -17.1027   19.9511 C   0  0  0  0  0  0  0  0  0  0  0  0
   11.7349  -18.2943   19.0753 C   0  0  0  0  0  0  0  0  0  0  0  0
   12.1458  -18.0543   17.6858 C   0  0  0  0  0  0  0  0  0  0  0  0
   11.3987  -17.8459   16.7110 O   0  0  0  0  0  0  0  0  0  0  0  0
   10.9673  -16.1982   21.9819 C   0  0  0  0  0  0  0  0  0  0  0  0
   11.4896  -15.0661   21.8875 O   0  0  0  0  0  0  0  0  0  0  0  0
   13.5258  -18.0580   17.4180 O   0  0  0  0  0  0  0  0  0  0  0  0
    7.0966  -15.2395   22.0133 C   0  0  0  0  0  0  0  0  0  0  0  0
    7.6941  -15.3988   23.4133 C   0  0  1  0  0  0  0  0  0  0  0  0
    7.3936  -16.7021   23.8107 O   0  0  0  0  0  0  0  0  0  0  0  0
    9.1941  -15.1943   23.3763 C   0  0  2  0  0  0  0  0  0  0  0  0
    9.7768  -16.3221   22.7247 N   0  0  0  0  0  0  0  0  0  0  0  0
    9.6489  -15.2399   24.8240 C   0  0  0  0  0  0  0  0  0  0  0  0
   10.2810  -16.2238   25.2488 O   0  0  0  0  0  0  0  0  0  0  0  0
    9.3271  -12.8520   27.7739 C   0  0  0  0  0  0  0  0  0  0  0  0
    9.6807  -14.1310   27.0876 C   0  0  2  0  0  0  0  0  0  0  0  0
    9.3617  -14.1732   25.7013 N   0  0  0  0  0  0  0  0  0  0  0  0
    9.3808  -15.3113   27.8997 C   0  0  0  0  0  0  0  0  0  0  0  0
    8.4313  -16.0512   27.5136 O   0  0  0  0  0  0  0  0  0  0  0  0
   10.0608  -15.6381   29.0304 O   0  0  0  0  0  0  0  0  0  0  0  0
  2  1  1  6
  2  3  1  0
  3  4  1  0
  4  5  1  0
  5  6  2  0
  5  9  1  0
  7 14  1  0
  7  2  1  0
  8  7  2  0
 11 10  1  6
 11 13  1  0
 12 11  1  0
 13 14  1  6
 13 15  1  0
 15 19  1  0
 16 15  2  0
 18 20  1  0
 18 17  1  1
 19 18  1  0
 20 22  1  0
 21 20  2  0
M  END
$$$$
