ETA.pdb
     RDKit          3D

 22 21  0  0  1  0  0  0  0  0999 V2000
   12.6457  -18.2311   21.3617 N   0  0  0  0  0  0  0  0  0  0  0  0
   13.3766  -17.6293   22.4126 C   0  0  1  0  0  0  0  0  0  0  0  0
   14.6422  -17.0368   21.8035 C   0  0  0  0  0  0  0  0  0  0  0  0
   15.5368  -16.6310   22.9501 C   0  0  0  0  0  0  0  0  0  0  0  0
   16.7621  -15.9810   22.4668 C   0  0  0  0  0  0  0  0  0  0  0  0
   17.1672  -14.8396   22.7580 O   0  0  0  0  0  0  0  0  0  0  0  0
   12.5802  -16.5380   23.0649 C   0  0  0  0  0  0  0  0  0  0  0  0
   12.8678  -15.3236   22.9871 O   0  0  0  0  0  0  0  0  0  0  0  0
   17.5692  -16.7171   21.5821 O   0  0  0  0  0  0  0  0  0  0  0  0
    8.7195  -16.2181   22.7804 C   0  0  0  0  0  0  0  0  0  0  0  0
    9.1631  -16.3685   24.2375 C   0  0  1  0  0  0  0  0  0  0  0  0
    9.0435  -17.7265   24.5348 O   0  0  0  0  0  0  0  0  0  0  0  0
   10.5998  -15.9197   24.4036 C   0  0  2  0  0  0  0  0  0  0  0  0
   11.4414  -16.9060   23.8081 N   0  0  0  0  0  0  0  0  0  0  0  0
   10.8694  -15.9558   25.8972 C   0  0  0  0  0  0  0  0  0  0  0  0
   11.5575  -16.8705   26.3851 O   0  0  0  0  0  0  0  0  0  0  0  0
    9.9772  -13.6685   28.8060 C   0  0  0  0  0  0  0  0  0  0  0  0
   10.4898  -14.9150   28.1614 C   0  0  2  0  0  0  0  0  0  0  0  0
   10.3458  -14.9585   26.7463 N   0  0  0  0  0  0  0  0  0  0  0  0
   10.1658  -16.1215   28.9242 C   0  0  0  0  0  0  0  0  0  0  0  0
   10.5565  -16.1669   30.1256 O   0  0  0  0  0  0  0  0  0  0  0  0
    9.4815  -17.1762   28.4074 O   0  0  0  0  0  0  0  0  0  0  0  0
  2  1  1  6
  2  3  1  0
  3  4  1  0
  4  5  1  0
  5  6  2  0
  5  9  1  0
  7 14  1  0
  7  2  1  0
  8  7  2  0
 11 10  1  6
 11 13  1  0
 12 11  1  0
 13 14  1  6
 13 15  1  0
 15 19  1  0
 16 15  2  0
 18 20  1  0
 18 17  1  1
 19 18  1  0
 20 22  1  0
 21 20  2  0
M  END
$$$$
