ETA.pdb
     RDKit          3D

 22 21  0  0  1  0  0  0  0  0999 V2000
   12.0511  -14.1353   16.4647 N   0  0  0  0  0  0  0  0  0  0  0  0
   11.7469  -15.1413   17.4113 C   0  0  1  0  0  0  0  0  0  0  0  0
   12.9628  -16.0558   17.5078 C   0  0  0  0  0  0  0  0  0  0  0  0
   14.1716  -15.2234   17.1534 C   0  0  0  0  0  0  0  0  0  0  0  0
   15.3936  -16.0381   17.1346 C   0  0  0  0  0  0  0  0  0  0  0  0
   16.0239  -16.4168   16.1292 O   0  0  0  0  0  0  0  0  0  0  0  0
   11.4653  -14.5441   18.7585 C   0  0  0  0  0  0  0  0  0  0  0  0
   12.2292  -13.7422   19.3388 O   0  0  0  0  0  0  0  0  0  0  0  0
   15.9144  -16.4370   18.3780 O   0  0  0  0  0  0  0  0  0  0  0  0
    8.2634  -12.7504   19.7722 C   0  0  0  0  0  0  0  0  0  0  0  0
    8.4685  -13.9829   20.6560 C   0  0  1  0  0  0  0  0  0  0  0  0
    7.7052  -14.9983   20.0786 O   0  0  0  0  0  0  0  0  0  0  0  0
    9.9303  -14.3775   20.6852 C   0  0  2  0  0  0  0  0  0  0  0  0
   10.2687  -14.9101   19.4055 N   0  0  0  0  0  0  0  0  0  0  0  0
   10.0249  -15.5231   21.6769 C   0  0  0  0  0  0  0  0  0  0  0  0
   10.4068  -16.6454   21.2992 O   0  0  0  0  0  0  0  0  0  0  0  0
   10.9733  -17.1796   24.0108 C   0  0  0  0  0  0  0  0  0  0  0  0
    9.7525  -16.3195   24.0530 C   0  0  2  0  0  0  0  0  0  0  0  0
    9.6826  -15.3308   23.0317 N   0  0  0  0  0  0  0  0  0  0  0  0
    9.3799  -15.9313   25.4142 C   0  0  0  0  0  0  0  0  0  0  0  0
    9.0625  -14.7223   25.6030 O   0  0  0  0  0  0  0  0  0  0  0  0
    9.3649  -16.7943   26.4643 O   0  0  0  0  0  0  0  0  0  0  0  0
  2  1  1  6
  2  3  1  0
  3  4  1  0
  4  5  1  0
  5  6  2  0
  5  9  1  0
  7 14  1  0
  7  2  1  0
  8  7  2  0
 11 10  1  6
 11 13  1  0
 12 11  1  0
 13 14  1  6
 13 15  1  0
 15 19  1  0
 16 15  2  0
 18 20  1  0
 18 17  1  1
 19 18  1  0
 20 22  1  0
 21 20  2  0
M  END
$$$$
