ETA.pdb
     RDKit          3D

 22 21  0  0  1  0  0  0  0  0999 V2000
    9.4590  -16.9669   16.8427 N   0  0  0  0  0  0  0  0  0  0  0  0
    9.6710  -17.4076   18.1699 C   0  0  1  0  0  0  0  0  0  0  0  0
   11.0894  -17.9616   18.2428 C   0  0  0  0  0  0  0  0  0  0  0  0
   11.1190  -19.2139   17.3999 C   0  0  0  0  0  0  0  0  0  0  0  0
   12.4490  -19.8368   17.4161 C   0  0  0  0  0  0  0  0  0  0  0  0
   13.1382  -20.1530   16.4278 O   0  0  0  0  0  0  0  0  0  0  0  0
    9.5293  -16.2736   19.1419 C   0  0  0  0  0  0  0  0  0  0  0  0
   10.0659  -15.1545   18.9903 O   0  0  0  0  0  0  0  0  0  0  0  0
   13.0117  -20.1084   18.6754 O   0  0  0  0  0  0  0  0  0  0  0  0
    6.6749  -14.3846   20.0324 C   0  0  0  0  0  0  0  0  0  0  0  0
    7.0986  -15.1032   21.3155 C   0  0  1  0  0  0  0  0  0  0  0  0
    6.3257  -16.2633   21.3764 O   0  0  0  0  0  0  0  0  0  0  0  0
    8.5705  -15.4555   21.2651 C   0  0  2  0  0  0  0  0  0  0  0  0
    8.7442  -16.4848   20.2924 N   0  0  0  0  0  0  0  0  0  0  0  0
    8.8907  -16.0691   22.6163 C   0  0  0  0  0  0  0  0  0  0  0  0
    9.0497  -17.2987   22.7213 O   0  0  0  0  0  0  0  0  0  0  0  0
    9.3912  -14.6491   26.1149 C   0  0  0  0  0  0  0  0  0  0  0  0
    9.2289  -15.7243   25.0903 C   0  0  2  0  0  0  0  0  0  0  0  0
    9.0110  -15.2575   23.7637 N   0  0  0  0  0  0  0  0  0  0  0  0
    8.4171  -16.8444   25.5685 C   0  0  0  0  0  0  0  0  0  0  0  0
    7.2713  -16.9877   25.0539 O   0  0  0  0  0  0  0  0  0  0  0  0
    8.8299  -17.7170   26.5255 O   0  0  0  0  0  0  0  0  0  0  0  0
  2  1  1  6
  2  3  1  0
  3  4  1  0
  4  5  1  0
  5  6  2  0
  5  9  1  0
  7 14  1  0
  7  2  1  0
  8  7  2  0
 11 10  1  6
 11 13  1  0
 12 11  1  0
 13 14  1  6
 13 15  1  0
 15 19  1  0
 16 15  2  0
 18 20  1  0
 18 17  1  1
 19 18  1  0
 20 22  1  0
 21 20  2  0
M  END
$$$$
