ETA.pdb
     RDKit          3D

 22 21  0  0  1  0  0  0  0  0999 V2000
   -2.2464  -28.4457   30.9134 N   0  0  0  0  0  0  0  0  0  0  0  0
   -3.5821  -27.9883   30.9974 C   0  0  1  0  0  0  0  0  0  0  0  0
   -3.8524  -27.6432   32.4575 C   0  0  0  0  0  0  0  0  0  0  0  0
   -3.9997  -28.9492   33.2006 C   0  0  0  0  0  0  0  0  0  0  0  0
   -4.4180  -28.7277   34.5910 C   0  0  0  0  0  0  0  0  0  0  0  0
   -4.6519  -27.6321   35.1355 O   0  0  0  0  0  0  0  0  0  0  0  0
   -3.7860  -26.7663   30.1513 C   0  0  0  0  0  0  0  0  0  0  0  0
   -2.8659  -25.9880   29.8180 O   0  0  0  0  0  0  0  0  0  0  0  0
   -4.5739  -29.8666   35.4003 O   0  0  0  0  0  0  0  0  0  0  0  0
   -5.5017  -26.5984   26.7887 C   0  0  0  0  0  0  0  0  0  0  0  0
   -6.2669  -25.7211   27.7823 C   0  0  1  0  0  0  0  0  0  0  0  0
   -7.3246  -26.5036   28.2469 O   0  0  0  0  0  0  0  0  0  0  0  0
   -5.3694  -25.3157   28.9326 C   0  0  2  0  0  0  0  0  0  0  0  0
   -5.0923  -26.4814   29.7074 N   0  0  0  0  0  0  0  0  0  0  0  0
   -6.2096  -24.3988   29.8034 C   0  0  0  0  0  0  0  0  0  0  0  0
   -6.9777  -24.8794   30.6561 O   0  0  0  0  0  0  0  0  0  0  0  0
   -6.3655  -20.6582   30.3733 C   0  0  0  0  0  0  0  0  0  0  0  0
   -6.9202  -22.0454   30.3605 C   0  0  2  0  0  0  0  0  0  0  0  0
   -6.1308  -22.9981   29.6573 N   0  0  0  0  0  0  0  0  0  0  0  0
   -8.3705  -22.0736   30.1648 C   0  0  0  0  0  0  0  0  0  0  0  0
   -9.0734  -21.3851   30.9585 O   0  0  0  0  0  0  0  0  0  0  0  0
   -8.9833  -22.7964   29.1903 O   0  0  0  0  0  0  0  0  0  0  0  0
  2  1  1  1
  2  3  1  0
  3  4  1  0
  4  5  1  0
  5  6  2  0
  5  9  1  0
  7 14  1  0
  7  2  1  0
  8  7  2  0
 11 10  1  6
 11 13  1  0
 12 11  1  0
 13 14  1  1
 13 15  1  0
 15 19  1  0
 16 15  2  0
 18 20  1  0
 18 17  1  6
 19 18  1  0
 20 22  1  0
 21 20  2  0
M  END
$$$$
