ETA.pdb
     RDKit          3D

 22 21  0  0  1  0  0  0  0  0999 V2000
   10.8527  -17.3130   17.9795 N   0  0  0  0  0  0  0  0  0  0  0  0
   10.4282  -17.7079   19.2697 C   0  0  1  0  0  0  0  0  0  0  0  0
   11.5074  -18.6190   19.8432 C   0  0  0  0  0  0  0  0  0  0  0  0
   12.8369  -17.9601   19.5639 C   0  0  0  0  0  0  0  0  0  0  0  0
   13.9532  -18.7885   20.0382 C   0  0  0  0  0  0  0  0  0  0  0  0
   14.6063  -19.6144   19.3727 O   0  0  0  0  0  0  0  0  0  0  0  0
   10.2541  -16.5174   20.1659 C   0  0  0  0  0  0  0  0  0  0  0  0
   10.9947  -15.5104   20.1388 O   0  0  0  0  0  0  0  0  0  0  0  0
   14.3316  -18.6404   21.3840 O   0  0  0  0  0  0  0  0  0  0  0  0
    7.1324  -14.4475   20.4363 C   0  0  0  0  0  0  0  0  0  0  0  0
    7.4323  -15.0962   21.7897 C   0  0  1  0  0  0  0  0  0  0  0  0
    6.6864  -16.2750   21.8218 O   0  0  0  0  0  0  0  0  0  0  0  0
    8.9094  -15.4065   21.9136 C   0  0  2  0  0  0  0  0  0  0  0  0
    9.1924  -16.5381   21.0917 N   0  0  0  0  0  0  0  0  0  0  0  0
    9.1158  -15.8456   23.3521 C   0  0  0  0  0  0  0  0  0  0  0  0
    9.3583  -17.0380   23.6118 O   0  0  0  0  0  0  0  0  0  0  0  0
    8.9993  -14.0420   26.7055 C   0  0  0  0  0  0  0  0  0  0  0  0
    9.1013  -15.2217   25.7944 C   0  0  2  0  0  0  0  0  0  0  0  0
    9.0353  -14.9124   24.4068 N   0  0  0  0  0  0  0  0  0  0  0  0
    8.3466  -16.3785   26.2789 C   0  0  0  0  0  0  0  0  0  0  0  0
    8.7152  -16.8901   27.3746 O   0  0  0  0  0  0  0  0  0  0  0  0
    7.2914  -16.9193   25.6143 O   0  0  0  0  0  0  0  0  0  0  0  0
  2  1  1  6
  2  3  1  0
  3  4  1  0
  4  5  1  0
  5  6  2  0
  5  9  1  0
  7 14  1  0
  7  2  1  0
  8  7  2  0
 11 10  1  6
 11 13  1  0
 12 11  1  0
 13 14  1  6
 13 15  1  0
 15 19  1  0
 16 15  2  0
 18 20  1  0
 18 17  1  1
 19 18  1  0
 20 22  1  0
 21 20  2  0
M  END
$$$$
