ETA.pdb
     RDKit          3D

 22 21  0  0  1  0  0  0  0  0999 V2000
   10.2997  -15.5055   15.3128 N   0  0  0  0  0  0  0  0  0  0  0  0
    9.9722  -16.2259   16.4851 C   0  0  1  0  0  0  0  0  0  0  0  0
   10.9221  -17.4154   16.5669 C   0  0  0  0  0  0  0  0  0  0  0  0
   12.1918  -17.0172   15.8534 C   0  0  0  0  0  0  0  0  0  0  0  0
   13.1596  -18.1219   15.8299 C   0  0  0  0  0  0  0  0  0  0  0  0
   13.0030  -19.2415   15.3068 O   0  0  0  0  0  0  0  0  0  0  0  0
   10.1398  -15.3704   17.7061 C   0  0  0  0  0  0  0  0  0  0  0  0
   11.1106  -14.6048   17.8927 O   0  0  0  0  0  0  0  0  0  0  0  0
   14.3959  -17.9015   16.4618 O   0  0  0  0  0  0  0  0  0  0  0  0
    7.6675  -12.8978   18.8805 C   0  0  0  0  0  0  0  0  0  0  0  0
    7.8712  -13.9097   20.0105 C   0  0  1  0  0  0  0  0  0  0  0  0
    6.8276  -14.8284   19.8932 O   0  0  0  0  0  0  0  0  0  0  0  0
    9.2057  -14.6099   19.8614 C   0  0  2  0  0  0  0  0  0  0  0  0
    9.1429  -15.4354   18.6993 N   0  0  0  0  0  0  0  0  0  0  0  0
    9.3150  -15.5404   21.0560 C   0  0  0  0  0  0  0  0  0  0  0  0
    9.0331  -16.7462   20.9354 O   0  0  0  0  0  0  0  0  0  0  0  0
   10.5056  -15.1571   24.6429 C   0  0  0  0  0  0  0  0  0  0  0  0
    9.7358  -15.7884   23.5290 C   0  0  2  0  0  0  0  0  0  0  0  0
    9.7348  -15.0522   22.3111 N   0  0  0  0  0  0  0  0  0  0  0  0
    8.4743  -16.3807   23.9768 C   0  0  0  0  0  0  0  0  0  0  0  0
    8.5426  -17.2901   24.8523 O   0  0  0  0  0  0  0  0  0  0  0  0
    7.2576  -16.0075   23.4994 O   0  0  0  0  0  0  0  0  0  0  0  0
  2  1  1  6
  2  3  1  0
  3  4  1  0
  4  5  1  0
  5  6  2  0
  5  9  1  0
  7 14  1  0
  7  2  1  0
  8  7  2  0
 11 10  1  6
 11 13  1  0
 12 11  1  0
 13 14  1  6
 13 15  1  0
 15 19  1  0
 16 15  2  0
 18 20  1  0
 18 17  1  1
 19 18  1  0
 20 22  1  0
 21 20  2  0
M  END
$$$$
