ETA.pdb
     RDKit          3D

 22 21  0  0  1  0  0  0  0  0999 V2000
    8.6075  -16.4058   16.0783 N   0  0  0  0  0  0  0  0  0  0  0  0
    8.4195  -16.9746   17.3596 C   0  0  1  0  0  0  0  0  0  0  0  0
    9.1047  -18.3364   17.3563 C   0  0  0  0  0  0  0  0  0  0  0  0
    9.0745  -18.8433   15.9345 C   0  0  0  0  0  0  0  0  0  0  0  0
    9.6771  -20.1788   15.8312 C   0  0  0  0  0  0  0  0  0  0  0  0
    9.0786  -21.2712   15.8382 O   0  0  0  0  0  0  0  0  0  0  0  0
    9.0302  -16.1128   18.4250 C   0  0  0  0  0  0  0  0  0  0  0  0
   10.1321  -15.5339   18.3065 O   0  0  0  0  0  0  0  0  0  0  0  0
   11.0764  -20.2406   15.7111 O   0  0  0  0  0  0  0  0  0  0  0  0
    7.2364  -13.2574   19.8599 C   0  0  0  0  0  0  0  0  0  0  0  0
    7.6354  -14.1529   21.0352 C   0  0  1  0  0  0  0  0  0  0  0  0
    6.5034  -14.9093   21.3405 O   0  0  0  0  0  0  0  0  0  0  0  0
    8.7832  -15.0604   20.6449 C   0  0  2  0  0  0  0  0  0  0  0  0
    8.3177  -15.9477   19.6291 N   0  0  0  0  0  0  0  0  0  0  0  0
    9.0694  -15.9082   21.8714 C   0  0  0  0  0  0  0  0  0  0  0  0
    8.4600  -16.9788   22.0459 O   0  0  0  0  0  0  0  0  0  0  0  0
   11.6041  -15.7654   24.6876 C   0  0  0  0  0  0  0  0  0  0  0  0
   10.3085  -16.1534   24.0528 C   0  0  2  0  0  0  0  0  0  0  0  0
   10.0245  -15.4949   22.8236 N   0  0  0  0  0  0  0  0  0  0  0  0
    9.2228  -16.2977   25.0239 C   0  0  0  0  0  0  0  0  0  0  0  0
    9.4112  -17.0961   25.9857 O   0  0  0  0  0  0  0  0  0  0  0  0
    8.0428  -15.6286   24.9366 O   0  0  0  0  0  0  0  0  0  0  0  0
  2  1  1  6
  2  3  1  0
  3  4  1  0
  4  5  1  0
  5  6  2  0
  5  9  1  0
  7 14  1  0
  7  2  1  0
  8  7  2  0
 11 10  1  6
 11 13  1  0
 12 11  1  0
 13 14  1  6
 13 15  1  0
 15 19  1  0
 16 15  2  0
 18 20  1  0
 18 17  1  1
 19 18  1  0
 20 22  1  0
 21 20  2  0
M  END
$$$$
