ETA.pdb
     RDKit          3D

 22 21  0  0  1  0  0  0  0  0999 V2000
   10.5321  -14.8272   18.1167 N   0  0  0  0  0  0  0  0  0  0  0  0
   10.8313  -15.0358   19.4833 C   0  0  1  0  0  0  0  0  0  0  0  0
   12.2361  -14.4965   19.7275 C   0  0  0  0  0  0  0  0  0  0  0  0
   13.2026  -15.5013   19.1480 C   0  0  0  0  0  0  0  0  0  0  0  0
   14.5947  -15.1250   19.4269 C   0  0  0  0  0  0  0  0  0  0  0  0
   15.4819  -15.8513   19.9138 O   0  0  0  0  0  0  0  0  0  0  0  0
    9.8588  -14.3078   20.3637 C   0  0  0  0  0  0  0  0  0  0  0  0
    9.4514  -13.1469   20.1412 O   0  0  0  0  0  0  0  0  0  0  0  0
   14.9753  -13.8083   19.1145 O   0  0  0  0  0  0  0  0  0  0  0  0
    6.4856  -14.9601   20.9270 C   0  0  0  0  0  0  0  0  0  0  0  0
    7.1394  -15.1402   22.2990 C   0  0  1  0  0  0  0  0  0  0  0  0
    7.3953  -16.5061   22.4237 O   0  0  0  0  0  0  0  0  0  0  0  0
    8.4318  -14.3549   22.3781 C   0  0  2  0  0  0  0  0  0  0  0  0
    9.3778  -14.9743   21.5078 N   0  0  0  0  0  0  0  0  0  0  0  0
    8.9433  -14.5507   23.7940 C   0  0  0  0  0  0  0  0  0  0  0  0
    9.8686  -15.3519   24.0179 O   0  0  0  0  0  0  0  0  0  0  0  0
    8.1626  -12.9464   27.1512 C   0  0  0  0  0  0  0  0  0  0  0  0
    8.7062  -14.0004   26.2425 C   0  0  2  0  0  0  0  0  0  0  0  0
    8.3790  -13.8310   24.8679 N   0  0  0  0  0  0  0  0  0  0  0  0
    8.6095  -15.3449   26.8129 C   0  0  0  0  0  0  0  0  0  0  0  0
    7.8320  -16.1604   26.2396 O   0  0  0  0  0  0  0  0  0  0  0  0
    9.3007  -15.7463   27.9123 O   0  0  0  0  0  0  0  0  0  0  0  0
  2  1  1  6
  2  3  1  0
  3  4  1  0
  4  5  1  0
  5  6  2  0
  5  9  1  0
  7 14  1  0
  7  2  1  0
  8  7  2  0
 11 10  1  6
 11 13  1  0
 12 11  1  0
 13 14  1  6
 13 15  1  0
 15 19  1  0
 16 15  2  0
 18 20  1  0
 18 17  1  1
 19 18  1  0
 20 22  1  0
 21 20  2  0
M  END
$$$$
