ETA.pdb
     RDKit          3D

 22 21  0  0  1  0  0  0  0  0999 V2000
   10.9078  -15.1502   17.8433 N   0  0  0  0  0  0  0  0  0  0  0  0
   11.2655  -15.0680   19.2093 C   0  0  1  0  0  0  0  0  0  0  0  0
   12.6264  -14.3848   19.2814 C   0  0  0  0  0  0  0  0  0  0  0  0
   13.6664  -15.4378   18.9824 C   0  0  0  0  0  0  0  0  0  0  0  0
   15.0257  -14.8953   19.1054 C   0  0  0  0  0  0  0  0  0  0  0  0
   15.7854  -14.9983   20.0872 O   0  0  0  0  0  0  0  0  0  0  0  0
   10.2624  -14.2616   19.9801 C   0  0  0  0  0  0  0  0  0  0  0  0
    9.8663  -13.1272   19.6341 O   0  0  0  0  0  0  0  0  0  0  0  0
   15.5314  -14.1834   18.0038 O   0  0  0  0  0  0  0  0  0  0  0  0
    6.9755  -14.2805   20.1810 C   0  0  0  0  0  0  0  0  0  0  0  0
    7.3988  -14.7016   21.5902 C   0  0  1  0  0  0  0  0  0  0  0  0
    7.4586  -16.0955   21.5705 O   0  0  0  0  0  0  0  0  0  0  0  0
    8.7561  -14.1232   21.9315 C   0  0  2  0  0  0  0  0  0  0  0  0
    9.7372  -14.8179   21.1630 N   0  0  0  0  0  0  0  0  0  0  0  0
    9.0005  -14.4842   23.3857 C   0  0  0  0  0  0  0  0  0  0  0  0
    9.6370  -15.5137   23.6745 O   0  0  0  0  0  0  0  0  0  0  0  0
    7.9547  -12.9253   26.7004 C   0  0  0  0  0  0  0  0  0  0  0  0
    8.5593  -13.9635   25.8123 C   0  0  2  0  0  0  0  0  0  0  0  0
    8.5116  -13.6619   24.4223 N   0  0  0  0  0  0  0  0  0  0  0  0
    8.2345  -15.3274   26.2328 C   0  0  0  0  0  0  0  0  0  0  0  0
    7.2457  -15.8833   25.6747 O   0  0  0  0  0  0  0  0  0  0  0  0
    8.9316  -16.0074   27.1810 O   0  0  0  0  0  0  0  0  0  0  0  0
  2  1  1  6
  2  3  1  0
  3  4  1  0
  4  5  1  0
  5  6  2  0
  5  9  1  0
  7 14  1  0
  7  2  1  0
  8  7  2  0
 11 10  1  6
 11 13  1  0
 12 11  1  0
 13 14  1  6
 13 15  1  0
 15 19  1  0
 16 15  2  0
 18 20  1  0
 18 17  1  1
 19 18  1  0
 20 22  1  0
 21 20  2  0
M  END
$$$$
