ETA.pdb
     RDKit          3D

 22 21  0  0  1  0  0  0  0  0999 V2000
   10.9272  -19.1904   15.0205 N   0  0  0  0  0  0  0  0  0  0  0  0
   11.5432  -19.0759   16.2886 C   0  0  1  0  0  0  0  0  0  0  0  0
   12.7959  -18.2258   16.1093 C   0  0  0  0  0  0  0  0  0  0  0  0
   13.8023  -19.0723   15.3675 C   0  0  0  0  0  0  0  0  0  0  0  0
   15.0252  -18.3133   15.0745 C   0  0  0  0  0  0  0  0  0  0  0  0
   15.1882  -17.4823   14.1610 O   0  0  0  0  0  0  0  0  0  0  0  0
   10.6271  -18.4106   17.2730 C   0  0  0  0  0  0  0  0  0  0  0  0
    9.7499  -17.5779   16.9561 O   0  0  0  0  0  0  0  0  0  0  0  0
   16.1340  -18.5421   15.9079 O   0  0  0  0  0  0  0  0  0  0  0  0
    8.1140  -19.7998   19.0752 C   0  0  0  0  0  0  0  0  0  0  0  0
    9.0237  -19.2492   20.1759 C   0  0  1  0  0  0  0  0  0  0  0  0
    9.7872  -20.3308   20.6169 O   0  0  0  0  0  0  0  0  0  0  0  0
    9.9230  -18.1617   19.6264 C   0  0  2  0  0  0  0  0  0  0  0  0
   10.7656  -18.7460   18.6342 N   0  0  0  0  0  0  0  0  0  0  0  0
   10.8211  -17.7521   20.7799 C   0  0  0  0  0  0  0  0  0  0  0  0
   12.0086  -18.1225   20.8080 O   0  0  0  0  0  0  0  0  0  0  0  0
   10.4130  -15.3630   23.7030 C   0  0  0  0  0  0  0  0  0  0  0  0
   11.0870  -16.4383   22.9147 C   0  0  2  0  0  0  0  0  0  0  0  0
   10.3233  -16.9511   21.8288 N   0  0  0  0  0  0  0  0  0  0  0  0
   11.8101  -17.3908   23.7587 C   0  0  0  0  0  0  0  0  0  0  0  0
   12.6847  -16.9204   24.5410 O   0  0  0  0  0  0  0  0  0  0  0  0
   11.5911  -18.7321   23.7359 O   0  0  0  0  0  0  0  0  0  0  0  0
  2  1  1  6
  2  3  1  0
  3  4  1  0
  4  5  1  0
  5  6  2  0
  5  9  1  0
  7 14  1  0
  7  2  1  0
  8  7  2  0
 11 10  1  6
 11 13  1  0
 12 11  1  0
 13 14  1  6
 13 15  1  0
 15 19  1  0
 16 15  2  0
 18 20  1  0
 18 17  1  1
 19 18  1  0
 20 22  1  0
 21 20  2  0
M  END
$$$$
