WPT.pdb
     RDKit          3D

 29 31  0  0  1  0  0  0  0  0999 V2000
   27.7110  -22.5139  -13.1312 N   0  0  0  0  0  0  0  0  0  0  0  0
   26.8112  -21.9190  -12.2323 C   0  0  1  0  0  0  0  0  0  0  0  0
   27.3500  -20.5956  -11.7711 C   0  0  0  0  0  0  0  0  0  0  0  0
   28.3395  -20.6830  -10.6830 C   0  0  0  0  0  0  0  0  0  0  0  0
   29.6692  -21.0315  -10.7258 C   0  0  0  0  0  0  0  0  0  0  0  0
   30.1850  -20.9745   -9.4972 N   0  0  0  0  0  0  0  0  0  0  0  0
   29.2303  -20.5964   -8.6372 C   0  0  0  0  0  0  0  0  0  0  0  0
   29.2559  -20.3893   -7.2531 C   0  0  0  0  0  0  0  0  0  0  0  0
   28.1081  -19.9949   -6.6108 C   0  0  0  0  0  0  0  0  0  0  0  0
   26.9344  -19.7998   -7.3031 C   0  0  0  0  0  0  0  0  0  0  0  0
   26.9468  -20.0145   -8.6733 C   0  0  0  0  0  0  0  0  0  0  0  0
   28.0745  -20.4108   -9.3605 C   0  0  0  0  0  0  0  0  0  0  0  0
   25.3887  -21.8790  -12.6356 C   0  0  0  0  0  0  0  0  0  0  0  0
   25.1193  -22.5221  -13.6848 O   0  0  0  0  0  0  0  0  0  0  0  0
   24.3470  -21.2112  -11.9774 N   0  0  0  0  0  0  0  0  0  0  0  0
   24.3778  -20.2133  -10.9268 C   0  0  0  0  0  0  0  0  0  0  0  0
   23.0246  -20.2752  -10.2258 C   0  0  0  0  0  0  0  0  0  0  0  0
   22.4028  -21.5311  -10.8381 C   0  0  0  0  0  0  0  0  0  0  0  0
   22.9383  -21.4112  -12.2487 C   0  0  1  0  0  0  0  0  0  0  0  0
   22.3209  -20.2108  -12.8732 C   0  0  0  0  0  0  0  0  0  0  0  0
   22.5067  -19.0328  -12.4746 O   0  0  0  0  0  0  0  0  0  0  0  0
   22.9644  -19.0473  -16.2833 C   0  0  0  0  0  0  0  0  0  0  0  0
   21.5017  -19.2626  -16.1857 C   0  0  1  0  0  0  0  0  0  0  0  0
   21.2025  -20.4524  -16.8497 O   0  0  0  0  0  0  0  0  0  0  0  0
   20.9530  -19.2775  -14.7928 C   0  0  2  0  0  0  0  0  0  0  0  0
   21.4611  -20.3724  -13.9942 N   0  0  0  0  0  0  0  0  0  0  0  0
   19.5040  -19.1787  -14.6952 C   0  0  0  0  0  0  0  0  0  0  0  0
   18.8720  -20.1027  -14.0881 O   0  0  0  0  0  0  0  0  0  0  0  0
   18.7202  -18.1623  -15.2043 O   0  0  0  0  0  0  0  0  0  0  0  0
  2  1  1  6
  2 13  1  0
  3  2  1  0
  4  3  1  0
  4 12  1  0
  5  6  1  0
  5  4  2  0
  6  7  1  0
  7  8  2  0
  7 12  1  0
  8  9  1  0
  9 10  2  0
 11 10  1  0
 12 11  2  0
 13 15  1  0
 13 14  2  0
 15 16  1  0
 17 16  1  0
 18 17  1  0
 19 20  1  1
 19 18  1  0
 19 15  1  0
 20 21  2  0
 23 22  1  1
 23 25  1  0
 24 23  1  0
 25 26  1  6
 25 27  1  0
 26 20  1  0
 27 28  2  0
 27 29  1  0
M  END
$$$$
