WPT.pdb
     RDKit          3D

 29 31  0  0  1  0  0  0  0  0999 V2000
   24.4703  -21.1409  -12.0211 N   0  0  0  0  0  0  0  0  0  0  0  0
   25.3971  -20.2492  -12.5845 C   0  0  1  0  0  0  0  0  0  0  0  0
   26.6658  -20.2562  -11.7814 C   0  0  0  0  0  0  0  0  0  0  0  0
   26.5836  -19.5325  -10.5007 C   0  0  0  0  0  0  0  0  0  0  0  0
   26.7912  -18.2013  -10.2247 C   0  0  0  0  0  0  0  0  0  0  0  0
   26.6077  -17.9819   -8.9221 N   0  0  0  0  0  0  0  0  0  0  0  0
   26.2827  -19.1354   -8.3240 C   0  0  0  0  0  0  0  0  0  0  0  0
   25.9929  -19.4401   -6.9889 C   0  0  0  0  0  0  0  0  0  0  0  0
   25.6850  -20.7336   -6.6458 C   0  0  0  0  0  0  0  0  0  0  0  0
   25.6564  -21.7345   -7.5903 C   0  0  0  0  0  0  0  0  0  0  0  0
   25.9490  -21.3954   -8.9030 C   0  0  0  0  0  0  0  0  0  0  0  0
   26.2635  -20.1112   -9.2940 C   0  0  0  0  0  0  0  0  0  0  0  0
   25.6122  -20.3401  -14.0451 C   0  0  0  0  0  0  0  0  0  0  0  0
   25.0856  -21.3439  -14.5947 O   0  0  0  0  0  0  0  0  0  0  0  0
   26.3266  -19.4396  -14.8470 N   0  0  0  0  0  0  0  0  0  0  0  0
   27.1394  -18.2940  -14.4899 C   0  0  0  0  0  0  0  0  0  0  0  0
   27.1827  -17.3895  -15.7172 C   0  0  0  0  0  0  0  0  0  0  0  0
   26.1434  -18.0393  -16.6319 C   0  0  0  0  0  0  0  0  0  0  0  0
   26.3890  -19.4939  -16.2931 C   0  0  1  0  0  0  0  0  0  0  0  0
   27.7499  -19.8534  -16.7736 C   0  0  0  0  0  0  0  0  0  0  0  0
   28.8087  -19.3115  -16.3658 O   0  0  0  0  0  0  0  0  0  0  0  0
   29.1779  -23.0657  -16.1603 C   0  0  0  0  0  0  0  0  0  0  0  0
   29.2871  -22.8919  -17.6276 C   0  0  1  0  0  0  0  0  0  0  0  0
   28.3279  -23.7101  -18.2246 O   0  0  0  0  0  0  0  0  0  0  0  0
   29.1594  -21.4809  -18.1118 C   0  0  2  0  0  0  0  0  0  0  0  0
   27.8961  -20.8708  -17.7561 N   0  0  0  0  0  0  0  0  0  0  0  0
   29.4681  -21.2773  -19.5197 C   0  0  0  0  0  0  0  0  0  0  0  0
   28.5867  -20.7353  -20.2622 O   0  0  0  0  0  0  0  0  0  0  0  0
   30.6466  -21.6182  -20.1534 O   0  0  0  0  0  0  0  0  0  0  0  0
  2  1  1  1
  2 13  1  0
  3  2  1  0
  4  3  1  0
  4 12  1  0
  5  6  1  0
  5  4  2  0
  6  7  1  0
  7  8  2  0
  7 12  1  0
  8  9  1  0
  9 10  2  0
 11 10  1  0
 12 11  2  0
 13 15  1  0
 13 14  2  0
 15 16  1  0
 17 16  1  0
 18 17  1  0
 19 20  1  1
 19 18  1  0
 19 15  1  0
 20 21  2  0
 23 22  1  1
 23 25  1  0
 24 23  1  0
 25 26  1  6
 25 27  1  0
 26 20  1  0
 27 28  2  0
 27 29  1  0
M  END
$$$$
