WPT.pdb
     RDKit          3D

 29 31  0  0  1  0  0  0  0  0999 V2000
   27.3900  -21.4657  -15.2851 N   0  0  0  0  0  0  0  0  0  0  0  0
   26.1315  -21.6833  -14.7016 C   0  0  1  0  0  0  0  0  0  0  0  0
   25.7465  -20.4999  -13.8616 C   0  0  0  0  0  0  0  0  0  0  0  0
   25.9164  -20.6973  -12.4114 C   0  0  0  0  0  0  0  0  0  0  0  0
   27.0580  -20.9290  -11.6804 C   0  0  0  0  0  0  0  0  0  0  0  0
   26.7449  -21.0456  -10.3892 N   0  0  0  0  0  0  0  0  0  0  0  0
   25.4218  -20.8970  -10.2430 C   0  0  0  0  0  0  0  0  0  0  0  0
   24.6030  -20.9311   -9.1082 C   0  0  0  0  0  0  0  0  0  0  0  0
   23.2500  -20.7438   -9.2494 C   0  0  0  0  0  0  0  0  0  0  0  0
   22.6855  -20.5235  -10.4854 C   0  0  0  0  0  0  0  0  0  0  0  0
   23.5278  -20.4964  -11.5870 C   0  0  0  0  0  0  0  0  0  0  0  0
   24.8912  -20.6792  -11.4938 C   0  0  0  0  0  0  0  0  0  0  0  0
   25.0527  -22.1612  -15.5936 C   0  0  0  0  0  0  0  0  0  0  0  0
   24.9306  -21.5143  -16.6676 O   0  0  0  0  0  0  0  0  0  0  0  0
   24.1816  -23.2337  -15.3590 N   0  0  0  0  0  0  0  0  0  0  0  0
   23.9377  -24.0095  -14.1593 C   0  0  0  0  0  0  0  0  0  0  0  0
   23.3616  -25.3467  -14.6134 C   0  0  0  0  0  0  0  0  0  0  0  0
   23.5559  -25.2822  -16.1290 C   0  0  0  0  0  0  0  0  0  0  0  0
   23.2951  -23.8077  -16.3504 C   0  0  1  0  0  0  0  0  0  0  0  0
   21.8665  -23.5419  -16.0331 C   0  0  0  0  0  0  0  0  0  0  0  0
   20.8987  -24.0550  -16.6504 O   0  0  0  0  0  0  0  0  0  0  0  0
   18.3021  -22.7871  -12.9975 C   0  0  0  0  0  0  0  0  0  0  0  0
   19.6825  -23.1094  -13.4288 C   0  0  1  0  0  0  0  0  0  0  0  0
   19.7311  -24.4746  -13.7117 O   0  0  0  0  0  0  0  0  0  0  0  0
   20.1904  -22.3072  -14.5864 C   0  0  2  0  0  0  0  0  0  0  0  0
   21.5419  -22.6559  -14.9693 N   0  0  0  0  0  0  0  0  0  0  0  0
   20.0307  -20.8659  -14.4606 C   0  0  0  0  0  0  0  0  0  0  0  0
   19.3029  -20.2592  -15.3115 O   0  0  0  0  0  0  0  0  0  0  0  0
   20.5993  -20.0643  -13.4906 O   0  0  0  0  0  0  0  0  0  0  0  0
  2  1  1  6
  2 13  1  0
  3  2  1  0
  4  3  1  0
  4 12  1  0
  5  6  1  0
  5  4  2  0
  6  7  1  0
  7  8  2  0
  7 12  1  0
  8  9  1  0
  9 10  2  0
 11 10  1  0
 12 11  2  0
 13 15  1  0
 13 14  2  0
 15 16  1  0
 17 16  1  0
 18 17  1  0
 19 20  1  1
 19 18  1  0
 19 15  1  0
 20 21  2  0
 23 22  1  6
 23 25  1  0
 24 23  1  0
 25 26  1  1
 25 27  1  0
 26 20  1  0
 27 28  2  0
 27 29  1  0
M  END
$$$$
