WPT.pdb
     RDKit          3D

 29 31  0  0  1  0  0  0  0  0999 V2000
   24.1717  -18.6648  -17.8901 N   0  0  0  0  0  0  0  0  0  0  0  0
   24.7836  -18.3500  -16.6662 C   0  0  1  0  0  0  0  0  0  0  0  0
   24.0511  -17.2183  -16.0051 C   0  0  0  0  0  0  0  0  0  0  0  0
   24.2133  -15.9131  -16.6692 C   0  0  0  0  0  0  0  0  0  0  0  0
   23.3683  -15.2489  -17.5272 C   0  0  0  0  0  0  0  0  0  0  0  0
   23.9198  -14.0893  -17.8876 N   0  0  0  0  0  0  0  0  0  0  0  0
   25.1121  -13.9655  -17.2899 C   0  0  0  0  0  0  0  0  0  0  0  0
   26.0739  -12.9496  -17.3371 C   0  0  0  0  0  0  0  0  0  0  0  0
   27.2308  -13.0844  -16.6097 C   0  0  0  0  0  0  0  0  0  0  0  0
   27.4610  -14.1995  -15.8361 C   0  0  0  0  0  0  0  0  0  0  0  0
   26.4858  -15.1855  -15.8139 C   0  0  0  0  0  0  0  0  0  0  0  0
   25.3096  -15.0937  -16.5273 C   0  0  0  0  0  0  0  0  0  0  0  0
   25.0875  -19.4780  -15.7590 C   0  0  0  0  0  0  0  0  0  0  0  0
   24.4069  -20.5182  -15.9638 O   0  0  0  0  0  0  0  0  0  0  0  0
   26.0333  -19.4935  -14.7248 N   0  0  0  0  0  0  0  0  0  0  0  0
   27.0156  -18.5052  -14.3263 C   0  0  0  0  0  0  0  0  0  0  0  0
   28.1039  -19.2538  -13.5637 C   0  0  0  0  0  0  0  0  0  0  0  0
   27.7239  -20.7141  -13.8125 C   0  0  0  0  0  0  0  0  0  0  0  0
   26.2159  -20.5857  -13.7910 C   0  0  1  0  0  0  0  0  0  0  0  0
   25.8074  -20.2067  -12.4121 C   0  0  0  0  0  0  0  0  0  0  0  0
   26.0558  -19.0935  -11.8827 O   0  0  0  0  0  0  0  0  0  0  0  0
   22.2501  -20.2339  -12.0071 C   0  0  0  0  0  0  0  0  0  0  0  0
   22.7621  -20.9913  -10.8411 C   0  0  1  0  0  0  0  0  0  0  0  0
   22.5015  -22.3433  -11.0654 O   0  0  0  0  0  0  0  0  0  0  0  0
   24.2095  -20.7729  -10.5271 C   0  0  2  0  0  0  0  0  0  0  0  0
   25.0886  -21.1407  -11.6164 N   0  0  0  0  0  0  0  0  0  0  0  0
   24.6636  -21.3398   -9.2656 C   0  0  0  0  0  0  0  0  0  0  0  0
   25.5424  -22.2610   -9.2955 O   0  0  0  0  0  0  0  0  0  0  0  0
   24.2316  -20.9754   -8.0058 O   0  0  0  0  0  0  0  0  0  0  0  0
  2  1  1  6
  2 13  1  0
  3  2  1  0
  4  3  1  0
  4 12  1  0
  5  6  1  0
  5  4  2  0
  6  7  1  0
  7  8  2  0
  7 12  1  0
  8  9  1  0
  9 10  2  0
 11 10  1  0
 12 11  2  0
 13 15  1  0
 13 14  2  0
 15 16  1  0
 17 16  1  0
 18 17  1  0
 19 20  1  1
 19 18  1  0
 19 15  1  0
 20 21  2  0
 23 22  1  6
 23 25  1  0
 24 23  1  0
 25 26  1  6
 25 27  1  0
 26 20  1  0
 27 28  2  0
 27 29  1  0
M  END
$$$$
