WPT.pdb
     RDKit          3D

 29 31  0  0  1  0  0  0  0  0999 V2000
   27.8147  -22.3246  -17.5359 N   0  0  0  0  0  0  0  0  0  0  0  0
   27.7251  -21.1830  -16.7232 C   0  0  1  0  0  0  0  0  0  0  0  0
   26.8298  -20.1654  -17.3691 C   0  0  0  0  0  0  0  0  0  0  0  0
   27.2695  -18.7691  -17.2020 C   0  0  0  0  0  0  0  0  0  0  0  0
   28.2722  -18.0776  -17.8406 C   0  0  0  0  0  0  0  0  0  0  0  0
   28.3195  -16.8289  -17.3747 N   0  0  0  0  0  0  0  0  0  0  0  0
   27.3721  -16.6723  -16.4410 C   0  0  0  0  0  0  0  0  0  0  0  0
   27.0113  -15.5684  -15.6596 C   0  0  0  0  0  0  0  0  0  0  0  0
   25.9795  -15.6885  -14.7615 C   0  0  0  0  0  0  0  0  0  0  0  0
   25.2946  -16.8737  -14.6163 C   0  0  0  0  0  0  0  0  0  0  0  0
   25.6799  -17.9459  -15.4072 C   0  0  0  0  0  0  0  0  0  0  0  0
   26.7091  -17.8722  -16.3218 C   0  0  0  0  0  0  0  0  0  0  0  0
   27.4448  -21.4024  -15.2876 C   0  0  0  0  0  0  0  0  0  0  0  0
   26.6420  -22.3423  -15.0442 O   0  0  0  0  0  0  0  0  0  0  0  0
   27.9741  -20.6819  -14.2083 N   0  0  0  0  0  0  0  0  0  0  0  0
   28.8175  -19.5036  -14.1800 C   0  0  0  0  0  0  0  0  0  0  0  0
   29.5289  -19.5079  -12.8309 C   0  0  0  0  0  0  0  0  0  0  0  0
   29.1695  -20.8896  -12.2826 C   0  0  0  0  0  0  0  0  0  0  0  0
   27.7571  -21.0080  -12.8138 C   0  0  1  0  0  0  0  0  0  0  0  0
   26.9228  -19.9835  -12.1308 C   0  0  0  0  0  0  0  0  0  0  0  0
   26.8165  -18.7902  -12.5129 O   0  0  0  0  0  0  0  0  0  0  0  0
   24.4697  -19.9686  -13.2367 C   0  0  0  0  0  0  0  0  0  0  0  0
   23.9158  -20.3195  -11.9080 C   0  0  1  0  0  0  0  0  0  0  0  0
   23.5985  -21.6779  -11.9257 O   0  0  0  0  0  0  0  0  0  0  0  0
   24.8003  -19.9943  -10.7446 C   0  0  2  0  0  0  0  0  0  0  0  0
   26.1863  -20.3453  -10.9696 N   0  0  0  0  0  0  0  0  0  0  0  0
   24.3333  -20.4810   -9.4547 C   0  0  0  0  0  0  0  0  0  0  0  0
   25.0474  -21.3323   -8.8324 O   0  0  0  0  0  0  0  0  0  0  0  0
   23.1673  -20.1079   -8.8162 O   0  0  0  0  0  0  0  0  0  0  0  0
  2  1  1  6
  2 13  1  0
  3  2  1  0
  4  3  1  0
  4 12  1  0
  5  6  1  0
  5  4  2  0
  6  7  1  0
  7  8  2  0
  7 12  1  0
  8  9  1  0
  9 10  2  0
 11 10  1  0
 12 11  2  0
 13 15  1  0
 13 14  2  0
 15 16  1  0
 17 16  1  0
 18 17  1  0
 19 20  1  1
 19 18  1  0
 19 15  1  0
 20 21  2  0
 23 22  1  6
 23 25  1  0
 24 23  1  0
 25 26  1  6
 25 27  1  0
 26 20  1  0
 27 28  2  0
 27 29  1  0
M  END
$$$$
