WPT.pdb
     RDKit          3D

 29 31  0  0  1  0  0  0  0  0999 V2000
   27.8939  -22.5500  -12.8997 N   0  0  0  0  0  0  0  0  0  0  0  0
   26.9596  -21.8943  -12.0819 C   0  0  1  0  0  0  0  0  0  0  0  0
   27.5405  -20.6064  -11.5739 C   0  0  0  0  0  0  0  0  0  0  0  0
   28.5056  -20.7627  -10.4717 C   0  0  0  0  0  0  0  0  0  0  0  0
   29.8365  -21.1073  -10.5067 C   0  0  0  0  0  0  0  0  0  0  0  0
   30.3246  -21.1287   -9.2657 N   0  0  0  0  0  0  0  0  0  0  0  0
   29.3502  -20.8064   -8.4050 C   0  0  0  0  0  0  0  0  0  0  0  0
   29.3445  -20.6880   -7.0103 C   0  0  0  0  0  0  0  0  0  0  0  0
   28.1818  -20.3356   -6.3701 C   0  0  0  0  0  0  0  0  0  0  0  0
   27.0236  -20.0972   -7.0747 C   0  0  0  0  0  0  0  0  0  0  0  0
   27.0671  -20.2241   -8.4552 C   0  0  0  0  0  0  0  0  0  0  0  0
   28.2106  -20.5754   -9.1408 C   0  0  0  0  0  0  0  0  0  0  0  0
   25.5832  -21.7645  -12.6076 C   0  0  0  0  0  0  0  0  0  0  0  0
   25.3955  -22.2985  -13.7331 O   0  0  0  0  0  0  0  0  0  0  0  0
   24.5037  -21.1213  -11.9870 N   0  0  0  0  0  0  0  0  0  0  0  0
   24.4711  -20.1650  -10.8984 C   0  0  0  0  0  0  0  0  0  0  0  0
   23.0788  -20.2521  -10.2819 C   0  0  0  0  0  0  0  0  0  0  0  0
   22.4955  -21.4824  -10.9785 C   0  0  0  0  0  0  0  0  0  0  0  0
   23.1137  -21.3084  -12.3491 C   0  0  1  0  0  0  0  0  0  0  0  0
   22.5335  -20.0837  -12.9620 C   0  0  0  0  0  0  0  0  0  0  0  0
   22.6961  -18.9222  -12.5086 O   0  0  0  0  0  0  0  0  0  0  0  0
   23.4275  -18.6679  -16.1384 C   0  0  0  0  0  0  0  0  0  0  0  0
   21.9728  -18.9343  -16.2284 C   0  0  1  0  0  0  0  0  0  0  0  0
   21.7980  -20.0771  -17.0091 O   0  0  0  0  0  0  0  0  0  0  0  0
   21.2697  -19.0745  -14.9141 C   0  0  2  0  0  0  0  0  0  0  0  0
   21.7399  -20.2007  -14.1360 N   0  0  0  0  0  0  0  0  0  0  0  0
   19.8159  -19.0476  -14.9818 C   0  0  0  0  0  0  0  0  0  0  0  0
   19.1673  -20.0309  -14.4975 O   0  0  0  0  0  0  0  0  0  0  0  0
   19.0438  -18.0425  -15.5296 O   0  0  0  0  0  0  0  0  0  0  0  0
  2  1  1  6
  2 13  1  0
  3  2  1  0
  4  3  1  0
  4 12  1  0
  5  6  1  0
  5  4  2  0
  6  7  1  0
  7  8  2  0
  7 12  1  0
  8  9  1  0
  9 10  2  0
 11 10  1  0
 12 11  2  0
 13 15  1  0
 13 14  2  0
 15 16  1  0
 17 16  1  0
 18 17  1  0
 19 20  1  1
 19 18  1  0
 19 15  1  0
 20 21  2  0
 23 22  1  1
 23 25  1  0
 24 23  1  0
 25 26  1  6
 25 27  1  0
 26 20  1  0
 27 28  2  0
 27 29  1  0
M  END
$$$$
