WPT.pdb
     RDKit          3D

 29 31  0  0  1  0  0  0  0  0999 V2000
   24.3550  -19.2989   -9.1901 N   0  0  0  0  0  0  0  0  0  0  0  0
   25.6835  -19.5400   -9.5755 C   0  0  1  0  0  0  0  0  0  0  0  0
   26.1433  -20.8593   -9.0257 C   0  0  0  0  0  0  0  0  0  0  0  0
   26.1809  -20.9299   -7.5545 C   0  0  0  0  0  0  0  0  0  0  0  0
   25.2779  -21.4789   -6.6744 C   0  0  0  0  0  0  0  0  0  0  0  0
   25.7172  -21.3169   -5.4256 N   0  0  0  0  0  0  0  0  0  0  0  0
   26.8914  -20.6730   -5.4533 C   0  0  0  0  0  0  0  0  0  0  0  0
   27.7523  -20.2665   -4.4271 C   0  0  0  0  0  0  0  0  0  0  0  0
   28.9158  -19.6105   -4.7458 C   0  0  0  0  0  0  0  0  0  0  0  0
   29.2500  -19.3459   -6.0546 C   0  0  0  0  0  0  0  0  0  0  0  0
   28.3729  -19.7634   -7.0446 C   0  0  0  0  0  0  0  0  0  0  0  0
   27.1941  -20.4249   -6.7724 C   0  0  0  0  0  0  0  0  0  0  0  0
   26.0147  -19.3375  -11.0028 C   0  0  0  0  0  0  0  0  0  0  0  0
   25.3810  -18.4049  -11.5645 O   0  0  0  0  0  0  0  0  0  0  0  0
   26.9398  -20.0665  -11.7624 N   0  0  0  0  0  0  0  0  0  0  0  0
   27.4745  -21.4006  -11.5763 C   0  0  0  0  0  0  0  0  0  0  0  0
   28.8044  -21.4461  -12.3217 C   0  0  0  0  0  0  0  0  0  0  0  0
   29.0152  -19.9774  -12.6925 C   0  0  0  0  0  0  0  0  0  0  0  0
   27.5803  -19.5823  -12.9680 C   0  0  1  0  0  0  0  0  0  0  0  0
   27.1230  -20.3254  -14.1724 C   0  0  0  0  0  0  0  0  0  0  0  0
   26.7873  -21.5371  -14.1693 O   0  0  0  0  0  0  0  0  0  0  0  0
   24.0906  -18.8112  -15.3144 C   0  0  0  0  0  0  0  0  0  0  0  0
   24.9818  -18.8730  -16.4965 C   0  0  1  0  0  0  0  0  0  0  0  0
   25.5382  -17.6063  -16.6753 O   0  0  0  0  0  0  0  0  0  0  0  0
   26.0501  -19.9199  -16.4332 C   0  0  2  0  0  0  0  0  0  0  0  0
   27.0498  -19.6505  -15.4218 N   0  0  0  0  0  0  0  0  0  0  0  0
   26.6648  -20.2576  -17.7087 C   0  0  0  0  0  0  0  0  0  0  0  0
   26.0184  -21.0005  -18.5163 O   0  0  0  0  0  0  0  0  0  0  0  0
   27.9076  -19.8473  -18.1487 O   0  0  0  0  0  0  0  0  0  0  0  0
  2  1  1  6
  2 13  1  0
  3  2  1  0
  4  3  1  0
  4 12  1  0
  5  6  1  0
  5  4  2  0
  6  7  1  0
  7  8  2  0
  7 12  1  0
  8  9  1  0
  9 10  2  0
 11 10  1  0
 12 11  2  0
 13 15  1  0
 13 14  2  0
 15 16  1  0
 17 16  1  0
 18 17  1  0
 19 20  1  6
 19 18  1  0
 19 15  1  0
 20 21  2  0
 23 22  1  1
 23 25  1  0
 24 23  1  0
 25 26  1  1
 25 27  1  0
 26 20  1  0
 27 28  2  0
 27 29  1  0
M  END
$$$$
