WPT.pdb
     RDKit          3D

 29 31  0  0  1  0  0  0  0  0999 V2000
   26.3699  -18.9288  -16.7308 N   0  0  0  0  0  0  0  0  0  0  0  0
   26.4847  -19.1507  -15.3491 C   0  0  1  0  0  0  0  0  0  0  0  0
   26.3452  -17.8514  -14.6098 C   0  0  0  0  0  0  0  0  0  0  0  0
   26.9663  -16.6957  -15.2802 C   0  0  0  0  0  0  0  0  0  0  0  0
   26.4931  -15.4158  -15.4509 C   0  0  0  0  0  0  0  0  0  0  0  0
   27.3923  -14.6934  -16.1205 N   0  0  0  0  0  0  0  0  0  0  0  0
   28.4531  -15.4619  -16.3997 C   0  0  0  0  0  0  0  0  0  0  0  0
   29.6483  -15.1860  -17.0740 C   0  0  0  0  0  0  0  0  0  0  0  0
   30.5834  -16.1811  -17.2198 C   0  0  0  0  0  0  0  0  0  0  0  0
   30.3663  -17.4433  -16.7153 C   0  0  0  0  0  0  0  0  0  0  0  0
   29.1707  -17.6798  -16.0532 C   0  0  0  0  0  0  0  0  0  0  0  0
   28.2032  -16.7124  -15.8828 C   0  0  0  0  0  0  0  0  0  0  0  0
   25.6817  -20.2540  -14.7783 C   0  0  0  0  0  0  0  0  0  0  0  0
   25.1645  -21.0254  -15.6294 O   0  0  0  0  0  0  0  0  0  0  0  0
   25.4510  -20.5100  -13.4198 N   0  0  0  0  0  0  0  0  0  0  0  0
   25.9417  -19.8371  -12.2337 C   0  0  0  0  0  0  0  0  0  0  0  0
   25.8530  -20.8443  -11.0918 C   0  0  0  0  0  0  0  0  0  0  0  0
   25.5110  -22.1387  -11.8311 C   0  0  0  0  0  0  0  0  0  0  0  0
   24.6133  -21.5774  -12.9128 C   0  0  1  0  0  0  0  0  0  0  0  0
   23.3838  -21.0519  -12.2616 C   0  0  0  0  0  0  0  0  0  0  0  0
   23.3538  -20.0290  -11.5309 O   0  0  0  0  0  0  0  0  0  0  0  0
   21.4772  -19.6905  -14.5410 C   0  0  0  0  0  0  0  0  0  0  0  0
   20.5066  -20.6156  -13.9105 C   0  0  1  0  0  0  0  0  0  0  0  0
   20.3480  -21.7093  -14.7617 O   0  0  0  0  0  0  0  0  0  0  0  0
   20.8627  -21.0645  -12.5273 C   0  0  2  0  0  0  0  0  0  0  0  0
   22.1478  -21.7267  -12.4585 N   0  0  0  0  0  0  0  0  0  0  0  0
   19.8342  -21.8313  -11.8394 C   0  0  0  0  0  0  0  0  0  0  0  0
   20.0579  -23.0600  -11.5901 O   0  0  0  0  0  0  0  0  0  0  0  0
   18.6088  -21.3558  -11.4165 O   0  0  0  0  0  0  0  0  0  0  0  0
  2  1  1  6
  2 13  1  0
  3  2  1  0
  4  3  1  0
  4 12  1  0
  5  6  1  0
  5  4  2  0
  6  7  1  0
  7  8  2  0
  7 12  1  0
  8  9  1  0
  9 10  2  0
 11 10  1  0
 12 11  2  0
 13 15  1  0
 13 14  2  0
 15 16  1  0
 17 16  1  0
 18 17  1  0
 19 20  1  1
 19 18  1  0
 19 15  1  0
 20 21  2  0
 23 22  1  6
 23 25  1  0
 24 23  1  0
 25 26  1  6
 25 27  1  0
 26 20  1  0
 27 28  2  0
 27 29  1  0
M  END
$$$$
