WPT.pdb
     RDKit          3D

 29 31  0  0  1  0  0  0  0  0999 V2000
   25.6580  -18.9442  -18.8982 N   0  0  0  0  0  0  0  0  0  0  0  0
   25.2390  -18.9666  -17.5583 C   0  0  1  0  0  0  0  0  0  0  0  0
   23.7396  -19.0091  -17.4927 C   0  0  0  0  0  0  0  0  0  0  0  0
   23.1788  -18.7805  -16.1495 C   0  0  0  0  0  0  0  0  0  0  0  0
   23.1075  -17.6243  -15.4083 C   0  0  0  0  0  0  0  0  0  0  0  0
   22.5144  -17.8785  -14.2411 N   0  0  0  0  0  0  0  0  0  0  0  0
   22.1889  -19.1766  -14.1874 C   0  0  0  0  0  0  0  0  0  0  0  0
   21.5585  -19.9360  -13.1948 C   0  0  0  0  0  0  0  0  0  0  0  0
   21.3449  -21.2757  -13.4070 C   0  0  0  0  0  0  0  0  0  0  0  0
   21.7392  -21.8843  -14.5770 C   0  0  0  0  0  0  0  0  0  0  0  0
   22.3607  -21.1005  -15.5378 C   0  0  0  0  0  0  0  0  0  0  0  0
   22.5962  -19.7525  -15.3689 C   0  0  0  0  0  0  0  0  0  0  0  0
   25.9055  -19.9377  -16.6636 C   0  0  0  0  0  0  0  0  0  0  0  0
   25.9370  -21.1199  -17.0978 O   0  0  0  0  0  0  0  0  0  0  0  0
   26.4860  -19.6703  -15.4163 N   0  0  0  0  0  0  0  0  0  0  0  0
   26.3917  -18.5054  -14.5592 C   0  0  0  0  0  0  0  0  0  0  0  0
   27.6261  -18.5211  -13.6635 C   0  0  0  0  0  0  0  0  0  0  0  0
   28.4637  -19.6367  -14.2903 C   0  0  0  0  0  0  0  0  0  0  0  0
   27.3537  -20.5813  -14.6986 C   0  0  1  0  0  0  0  0  0  0  0  0
   26.7105  -21.0957  -13.4602 C   0  0  0  0  0  0  0  0  0  0  0  0
   27.3192  -21.7238  -12.5568 O   0  0  0  0  0  0  0  0  0  0  0  0
   26.7163  -20.8379  -10.7638 C   0  0  0  0  0  0  0  0  0  0  0  0
   25.2375  -20.7548  -10.8030 C   0  0  1  0  0  0  0  0  0  0  0  0
   24.8808  -19.4254  -10.5762 O   0  0  0  0  0  0  0  0  0  0  0  0
   24.6050  -21.2691  -12.0588 C   0  0  2  0  0  0  0  0  0  0  0  0
   25.3201  -20.8795  -13.2553 N   0  0  0  0  0  0  0  0  0  0  0  0
   23.1783  -21.0102  -12.1865 C   0  0  0  0  0  0  0  0  0  0  0  0
   22.7856  -20.2103  -13.0963 O   0  0  0  0  0  0  0  0  0  0  0  0
   22.1780  -21.5542  -11.4054 O   0  0  0  0  0  0  0  0  0  0  0  0
  2  1  1  6
  2 13  1  0
  3  2  1  0
  4  3  1  0
  4 12  1  0
  5  6  1  0
  5  4  2  0
  6  7  1  0
  7  8  2  0
  7 12  1  0
  8  9  1  0
  9 10  2  0
 11 10  1  0
 12 11  2  0
 13 15  1  0
 13 14  2  0
 15 16  1  0
 17 16  1  0
 18 17  1  0
 19 20  1  1
 19 18  1  0
 19 15  1  0
 20 21  2  0
 23 22  1  6
 23 25  1  0
 24 23  1  0
 25 26  1  6
 25 27  1  0
 26 20  1  0
 27 28  2  0
 27 29  1  0
M  END
$$$$
