WPT.pdb
     RDKit          3D

 29 31  0  0  1  0  0  0  0  0999 V2000
   27.9543  -21.0652  -17.3151 N   0  0  0  0  0  0  0  0  0  0  0  0
   28.3454  -20.4222  -16.1297 C   0  0  1  0  0  0  0  0  0  0  0  0
   27.9556  -18.9732  -16.1820 C   0  0  0  0  0  0  0  0  0  0  0  0
   26.5109  -18.7223  -16.0379 C   0  0  0  0  0  0  0  0  0  0  0  0
   25.4412  -19.5394  -16.3198 C   0  0  0  0  0  0  0  0  0  0  0  0
   24.3052  -18.9014  -16.0346 N   0  0  0  0  0  0  0  0  0  0  0  0
   24.5931  -17.6788  -15.5694 C   0  0  0  0  0  0  0  0  0  0  0  0
   23.7706  -16.6323  -15.1360 C   0  0  0  0  0  0  0  0  0  0  0  0
   24.3436  -15.4628  -14.7006 C   0  0  0  0  0  0  0  0  0  0  0  0
   25.7105  -15.3015  -14.6829 C   0  0  0  0  0  0  0  0  0  0  0  0
   26.4936  -16.3596  -15.1197 C   0  0  0  0  0  0  0  0  0  0  0  0
   25.9632  -17.5518  -15.5653 C   0  0  0  0  0  0  0  0  0  0  0  0
   27.9959  -21.0911  -14.8576 C   0  0  0  0  0  0  0  0  0  0  0  0
   27.3052  -22.1371  -14.9837 O   0  0  0  0  0  0  0  0  0  0  0  0
   28.3516  -20.6791  -13.5661 N   0  0  0  0  0  0  0  0  0  0  0  0
   29.1430  -19.5510  -13.1173 C   0  0  0  0  0  0  0  0  0  0  0  0
   29.6679  -19.9096  -11.7309 C   0  0  0  0  0  0  0  0  0  0  0  0
   29.2859  -21.3859  -11.6147 C   0  0  0  0  0  0  0  0  0  0  0  0
   27.9618  -21.3584  -12.3476 C   0  0  1  0  0  0  0  0  0  0  0  0
   27.0095  -20.5466  -11.5438 C   0  0  0  0  0  0  0  0  0  0  0  0
   27.0697  -19.2959  -11.4288 O   0  0  0  0  0  0  0  0  0  0  0  0
   23.7309  -20.3766  -12.6741 C   0  0  0  0  0  0  0  0  0  0  0  0
   23.5660  -20.7791  -11.2577 C   0  0  1  0  0  0  0  0  0  0  0  0
   23.2098  -22.1277  -11.2382 O   0  0  0  0  0  0  0  0  0  0  0  0
   24.7555  -20.5297  -10.3835 C   0  0  2  0  0  0  0  0  0  0  0  0
   25.9524  -21.1967  -10.8496 N   0  0  0  0  0  0  0  0  0  0  0  0
   24.5406  -20.7595   -8.9622 C   0  0  0  0  0  0  0  0  0  0  0  0
   25.3151  -21.5669   -8.3539 O   0  0  0  0  0  0  0  0  0  0  0  0
   23.5601  -20.1795   -8.1819 O   0  0  0  0  0  0  0  0  0  0  0  0
  2  1  1  6
  2 13  1  0
  3  2  1  0
  4  3  1  0
  4 12  1  0
  5  6  1  0
  5  4  2  0
  6  7  1  0
  7  8  2  0
  7 12  1  0
  8  9  1  0
  9 10  2  0
 11 10  1  0
 12 11  2  0
 13 15  1  0
 13 14  2  0
 15 16  1  0
 17 16  1  0
 18 17  1  0
 19 20  1  1
 19 18  1  0
 19 15  1  0
 20 21  2  0
 23 22  1  6
 23 25  1  0
 24 23  1  0
 25 26  1  6
 25 27  1  0
 26 20  1  0
 27 28  2  0
 27 29  1  0
M  END
$$$$
