WPT.pdb
     RDKit          3D

 29 31  0  0  1  0  0  0  0  0999 V2000
   25.5636  -20.8111  -17.4046 N   0  0  0  0  0  0  0  0  0  0  0  0
   26.1455  -20.1412  -16.3165 C   0  0  1  0  0  0  0  0  0  0  0  0
   25.4452  -18.8327  -16.0885 C   0  0  0  0  0  0  0  0  0  0  0  0
   25.4017  -17.9483  -17.2661 C   0  0  0  0  0  0  0  0  0  0  0  0
   24.3211  -17.4445  -17.9515 C   0  0  0  0  0  0  0  0  0  0  0  0
   24.7480  -16.6818  -18.9590 N   0  0  0  0  0  0  0  0  0  0  0  0
   26.0873  -16.6658  -18.9607 C   0  0  0  0  0  0  0  0  0  0  0  0
   27.0076  -16.0252  -19.7986 C   0  0  0  0  0  0  0  0  0  0  0  0
   28.3518  -16.1842  -19.5672 C   0  0  0  0  0  0  0  0  0  0  0  0
   28.8096  -16.9613  -18.5274 C   0  0  0  0  0  0  0  0  0  0  0  0
   27.8687  -17.5807  -17.7182 C   0  0  0  0  0  0  0  0  0  0  0  0
   26.5099  -17.4501  -17.9120 C   0  0  0  0  0  0  0  0  0  0  0  0
   26.3617  -20.9278  -15.0827 C   0  0  0  0  0  0  0  0  0  0  0  0
   25.7051  -22.0011  -15.0193 O   0  0  0  0  0  0  0  0  0  0  0  0
   27.2034  -20.5974  -14.0120 N   0  0  0  0  0  0  0  0  0  0  0  0
   28.1719  -19.5292  -13.8646 C   0  0  0  0  0  0  0  0  0  0  0  0
   29.1597  -19.9799  -12.7934 C   0  0  0  0  0  0  0  0  0  0  0  0
   28.7623  -21.4419  -12.5846 C   0  0  0  0  0  0  0  0  0  0  0  0
   27.2636  -21.3192  -12.7575 C   0  0  1  0  0  0  0  0  0  0  0  0
   26.7365  -20.5076  -11.6282 C   0  0  0  0  0  0  0  0  0  0  0  0
   26.9688  -19.2819  -11.4705 O   0  0  0  0  0  0  0  0  0  0  0  0
   23.7253  -20.2004  -12.3662 C   0  0  0  0  0  0  0  0  0  0  0  0
   23.5259  -20.6490  -10.9682 C   0  0  1  0  0  0  0  0  0  0  0  0
   23.0730  -21.9679  -11.0061 O   0  0  0  0  0  0  0  0  0  0  0  0
   24.7267  -20.5235  -10.0830 C   0  0  2  0  0  0  0  0  0  0  0  0
   25.9142  -21.1281  -10.6480 N   0  0  0  0  0  0  0  0  0  0  0  0
   24.5265  -20.9391   -8.7024 C   0  0  0  0  0  0  0  0  0  0  0  0
   23.6670  -20.3156   -7.9993 O   0  0  0  0  0  0  0  0  0  0  0  0
   25.1867  -21.9653   -8.0561 O   0  0  0  0  0  0  0  0  0  0  0  0
  2  1  1  6
  2 13  1  0
  3  2  1  0
  4  3  1  0
  4 12  1  0
  5  6  1  0
  5  4  2  0
  6  7  1  0
  7  8  2  0
  7 12  1  0
  8  9  1  0
  9 10  2  0
 11 10  1  0
 12 11  2  0
 13 15  1  0
 13 14  2  0
 15 16  1  0
 17 16  1  0
 18 17  1  0
 19 20  1  1
 19 18  1  0
 19 15  1  0
 20 21  2  0
 23 22  1  6
 23 25  1  0
 24 23  1  0
 25 26  1  6
 25 27  1  0
 26 20  1  0
 27 28  2  0
 27 29  1  0
M  END
$$$$
