LAT.pdb
     RDKit          3D

 21 20  0  0  1  0  0  0  0  0999 V2000
    9.3985  -12.5850   19.2139 C   0  0  0  0  0  0  0  0  0  0  0  0
    8.2452  -13.5451   19.0484 C   0  0  2  0  0  0  0  0  0  0  0  0
    7.0584  -12.7793   18.5028 C   0  0  0  0  0  0  0  0  0  0  0  0
    7.9074  -14.2277   20.3741 C   0  0  0  0  0  0  0  0  0  0  0  0
    9.1882  -14.8279   20.8916 C   0  0  2  0  0  0  0  0  0  0  0  0
    9.7419  -15.7082   19.9128 N   0  0  0  0  0  0  0  0  0  0  0  0
    9.0623  -15.4650   22.2058 C   0  0  0  0  0  0  0  0  0  0  0  0
    8.3757  -14.8756   23.0842 O   0  0  0  0  0  0  0  0  0  0  0  0
   10.0472  -18.6695   23.9502 C   0  0  0  0  0  0  0  0  0  0  0  0
    9.5270  -17.2710   23.8883 C   0  0  2  0  0  0  0  0  0  0  0  0
    9.6547  -16.6955   22.5652 N   0  0  0  0  0  0  0  0  0  0  0  0
   10.0924  -16.3826   24.9322 C   0  0  0  0  0  0  0  0  0  0  0  0
   11.3055  -16.0645   24.8325 O   0  0  0  0  0  0  0  0  0  0  0  0
    9.4655  -13.0348   28.4737 C   0  0  0  0  0  0  0  0  0  0  0  0
    8.8444  -14.0287   27.5272 C   0  0  1  0  0  0  0  0  0  0  0  0
    8.3351  -13.4003   26.3807 O   0  0  0  0  0  0  0  0  0  0  0  0
    9.8800  -15.0703   27.0824 C   0  0  2  0  0  0  0  0  0  0  0  0
    9.3528  -15.8816   26.0166 N   0  0  0  0  0  0  0  0  0  0  0  0
   10.3237  -15.8693   28.2406 C   0  0  0  0  0  0  0  0  0  0  0  0
   11.1975  -15.2993   29.1694 O   0  0  0  0  0  0  0  0  0  0  0  0
    9.9139  -17.0423   28.3764 O   0  0  0  0  0  0  0  0  0  0  0  0
  2  1  1  1
  3  2  1  0
  4  2  1  0
  4  5  1  0
  5  6  1  6
  7 11  1  0
  7  5  1  0
  8  7  2  0
 10  9  1  6
 10 11  1  0
 10 12  1  0
 12 18  1  0
 13 12  2  0
 15 14  1  1
 15 16  1  0
 17 15  1  0
 17 19  1  0
 17 18  1  6
 19 20  1  0
 21 19  2  0
M  END
$$$$
