LAT.pdb
     RDKit          3D

 21 20  0  0  1  0  0  0  0  0999 V2000
    6.7130  -12.2626   24.0866 C   0  0  0  0  0  0  0  0  0  0  0  0
    6.0782  -12.8607   25.3190 C   0  0  2  0  0  0  0  0  0  0  0  0
    5.8337  -11.7505   26.3191 C   0  0  0  0  0  0  0  0  0  0  0  0
    6.9612  -13.9600   25.9101 C   0  0  0  0  0  0  0  0  0  0  0  0
    6.8928  -15.1281   24.9617 C   0  0  2  0  0  0  0  0  0  0  0  0
    5.6303  -15.7834   25.0891 N   0  0  0  0  0  0  0  0  0  0  0  0
    8.0182  -16.0601   25.0782 C   0  0  0  0  0  0  0  0  0  0  0  0
    8.0328  -16.8480   26.0627 O   0  0  0  0  0  0  0  0  0  0  0  0
   11.0791  -17.1463   23.1564 C   0  0  0  0  0  0  0  0  0  0  0  0
   10.2427  -16.9977   24.3846 C   0  0  2  0  0  0  0  0  0  0  0  0
    9.0935  -16.1434   24.1665 N   0  0  0  0  0  0  0  0  0  0  0  0
   11.0161  -16.5858   25.5809 C   0  0  0  0  0  0  0  0  0  0  0  0
   11.8850  -15.6882   25.4327 O   0  0  0  0  0  0  0  0  0  0  0  0
   10.2915  -14.5295   28.1746 C   0  0  0  0  0  0  0  0  0  0  0  0
   10.5863  -15.8166   28.8999 C   0  0  1  0  0  0  0  0  0  0  0  0
    9.4119  -16.5324   29.1779 O   0  0  0  0  0  0  0  0  0  0  0  0
   11.5051  -16.7123   28.0578 C   0  0  2  0  0  0  0  0  0  0  0  0
   10.8320  -17.1390   26.8591 N   0  0  0  0  0  0  0  0  0  0  0  0
   11.9929  -17.8429   28.8705 C   0  0  0  0  0  0  0  0  0  0  0  0
   12.8072  -17.5880   29.9765 O   0  0  0  0  0  0  0  0  0  0  0  0
   11.6730  -19.0108   28.5608 O   0  0  0  0  0  0  0  0  0  0  0  0
  2  1  1  6
  3  2  1  0
  4  2  1  0
  4  5  1  0
  5  6  1  1
  7 11  1  0
  7  5  1  0
  8  7  2  0
 10  9  1  6
 10 11  1  0
 10 12  1  0
 12 18  1  0
 13 12  2  0
 15 14  1  6
 15 16  1  0
 17 15  1  0
 17 19  1  0
 17 18  1  6
 19 20  1  0
 21 19  2  0
M  END
$$$$
