LAT.pdb
     RDKit          3D

 21 20  0  0  1  0  0  0  0  0999 V2000
    9.3853  -12.5575   18.9042 C   0  0  0  0  0  0  0  0  0  0  0  0
    8.2028  -13.4801   18.7307 C   0  0  2  0  0  0  0  0  0  0  0  0
    7.0834  -12.7051   18.0682 C   0  0  0  0  0  0  0  0  0  0  0  0
    7.7606  -14.0609   20.0740 C   0  0  0  0  0  0  0  0  0  0  0  0
    8.9852  -14.6653   20.7094 C   0  0  2  0  0  0  0  0  0  0  0  0
    9.5312  -15.6690   19.8528 N   0  0  0  0  0  0  0  0  0  0  0  0
    8.7715  -15.1543   22.0747 C   0  0  0  0  0  0  0  0  0  0  0  0
    7.8282  -14.6489   22.7419 O   0  0  0  0  0  0  0  0  0  0  0  0
   10.0768  -17.8353   24.3946 C   0  0  0  0  0  0  0  0  0  0  0  0
    9.2864  -16.6155   24.0516 C   0  0  2  0  0  0  0  0  0  0  0  0
    9.5457  -16.1541   22.7032 N   0  0  0  0  0  0  0  0  0  0  0  0
    9.4247  -15.5223   25.0439 C   0  0  0  0  0  0  0  0  0  0  0  0
   10.5041  -14.8763   25.0528 O   0  0  0  0  0  0  0  0  0  0  0  0
    7.2449  -12.3595   25.7662 C   0  0  0  0  0  0  0  0  0  0  0  0
    7.2687  -13.2666   26.9688 C   0  0  1  0  0  0  0  0  0  0  0  0
    6.1511  -14.1143   26.9974 O   0  0  0  0  0  0  0  0  0  0  0  0
    8.5315  -14.1388   26.9618 C   0  0  2  0  0  0  0  0  0  0  0  0
    8.4240  -15.1727   25.9660 N   0  0  0  0  0  0  0  0  0  0  0  0
    8.7845  -14.6736   28.3134 C   0  0  0  0  0  0  0  0  0  0  0  0
    8.7793  -16.0561   28.5131 O   0  0  0  0  0  0  0  0  0  0  0  0
    8.9997  -13.8862   29.2599 O   0  0  0  0  0  0  0  0  0  0  0  0
  2  1  1  1
  3  2  1  0
  4  2  1  0
  4  5  1  0
  5  6  1  6
  7 11  1  0
  7  5  1  0
  8  7  2  0
 10  9  1  1
 10 11  1  0
 10 12  1  0
 12 18  1  0
 13 12  2  0
 15 14  1  6
 15 16  1  0
 17 15  1  0
 17 19  1  0
 17 18  1  6
 19 20  1  0
 21 19  2  0
M  END
$$$$
