LAT.pdb
     RDKit          3D

 21 20  0  0  1  0  0  0  0  0999 V2000
    9.1781  -13.2759   19.3707 C   0  0  0  0  0  0  0  0  0  0  0  0
    7.7196  -13.6481   19.4879 C   0  0  2  0  0  0  0  0  0  0  0  0
    6.8911  -12.5386   18.8753 C   0  0  0  0  0  0  0  0  0  0  0  0
    7.3333  -13.8927   20.9468 C   0  0  0  0  0  0  0  0  0  0  0  0
    8.2299  -14.9913   21.4546 C   0  0  2  0  0  0  0  0  0  0  0  0
    8.1192  -16.1374   20.6099 N   0  0  0  0  0  0  0  0  0  0  0  0
    8.0308  -15.3205   22.8690 C   0  0  0  0  0  0  0  0  0  0  0  0
    7.9931  -14.3698   23.6968 O   0  0  0  0  0  0  0  0  0  0  0  0
    7.2289  -18.2993   25.0390 C   0  0  0  0  0  0  0  0  0  0  0  0
    7.7053  -16.9061   24.7896 C   0  0  2  0  0  0  0  0  0  0  0  0
    7.8769  -16.6286   23.3782 N   0  0  0  0  0  0  0  0  0  0  0  0
    8.9115  -16.5441   25.5725 C   0  0  0  0  0  0  0  0  0  0  0  0
   10.0301  -16.8930   25.1147 O   0  0  0  0  0  0  0  0  0  0  0  0
    9.9173  -13.0758   27.0777 C   0  0  0  0  0  0  0  0  0  0  0  0
    9.8812  -14.1023   28.1798 C   0  0  1  0  0  0  0  0  0  0  0  0
    8.6830  -14.0362   28.9069 O   0  0  0  0  0  0  0  0  0  0  0  0
   10.0140  -15.5182   27.6029 C   0  0  2  0  0  0  0  0  0  0  0  0
    8.8722  -15.8388   26.7870 N   0  0  0  0  0  0  0  0  0  0  0  0
   10.2269  -16.4904   28.6921 C   0  0  0  0  0  0  0  0  0  0  0  0
   11.3527  -16.3649   29.5094 O   0  0  0  0  0  0  0  0  0  0  0  0
    9.4005  -17.4112   28.8697 O   0  0  0  0  0  0  0  0  0  0  0  0
  2  1  1  1
  3  2  1  0
  4  2  1  0
  4  5  1  0
  5  6  1  6
  7 11  1  0
  7  5  1  0
  8  7  2  0
 10  9  1  6
 10 11  1  0
 10 12  1  0
 12 18  1  0
 13 12  2  0
 15 14  1  6
 15 16  1  0
 17 15  1  0
 17 19  1  0
 17 18  1  1
 19 20  1  0
 21 19  2  0
M  END
$$$$
