LAT.pdb
     RDKit          3D

 21 20  0  0  1  0  0  0  0  0999 V2000
    7.5908  -13.3111   26.9395 C   0  0  0  0  0  0  0  0  0  0  0  0
    7.2093  -13.7936   25.5607 C   0  0  2  0  0  0  0  0  0  0  0  0
    6.4636  -12.6819   24.8531 C   0  0  0  0  0  0  0  0  0  0  0  0
    6.3677  -15.0675   25.6406 C   0  0  0  0  0  0  0  0  0  0  0  0
    6.8002  -15.9456   24.4958 C   0  0  2  0  0  0  0  0  0  0  0  0
    5.8965  -17.0427   24.3573 N   0  0  0  0  0  0  0  0  0  0  0  0
    8.1978  -16.3814   24.5708 C   0  0  0  0  0  0  0  0  0  0  0  0
    8.4701  -17.3671   25.3088 O   0  0  0  0  0  0  0  0  0  0  0  0
   11.4566  -15.7410   22.7888 C   0  0  0  0  0  0  0  0  0  0  0  0
   10.6090  -16.3275   23.8695 C   0  0  2  0  0  0  0  0  0  0  0  0
    9.2687  -15.7781   23.8755 N   0  0  0  0  0  0  0  0  0  0  0  0
   11.2355  -16.2657   25.2121 C   0  0  0  0  0  0  0  0  0  0  0  0
   12.4104  -16.7001   25.3277 O   0  0  0  0  0  0  0  0  0  0  0  0
   10.8250  -13.2598   27.9214 C   0  0  0  0  0  0  0  0  0  0  0  0
   10.5002  -14.6085   28.5091 C   0  0  1  0  0  0  0  0  0  0  0  0
    9.1160  -14.8343   28.5476 O   0  0  0  0  0  0  0  0  0  0  0  0
   11.1453  -15.7276   27.6804 C   0  0  2  0  0  0  0  0  0  0  0  0
   10.5930  -15.7527   26.3513 N   0  0  0  0  0  0  0  0  0  0  0  0
   11.0062  -17.0194   28.3796 C   0  0  0  0  0  0  0  0  0  0  0  0
   10.1770  -18.0040   27.8372 O   0  0  0  0  0  0  0  0  0  0  0  0
   11.6296  -17.2164   29.4449 O   0  0  0  0  0  0  0  0  0  0  0  0
  2  1  1  1
  3  2  1  0
  4  2  1  0
  4  5  1  0
  5  6  1  1
  7 11  1  0
  7  5  1  0
  8  7  2  0
 10  9  1  6
 10 11  1  0
 10 12  1  0
 12 18  1  0
 13 12  2  0
 15 14  1  6
 15 16  1  0
 17 15  1  0
 17 19  1  0
 17 18  1  6
 19 20  1  0
 21 19  2  0
M  END
$$$$
