LAT.pdb
     RDKit          3D

 21 20  0  0  1  0  0  0  0  0999 V2000
    9.0737  -13.4272   19.1035 C   0  0  0  0  0  0  0  0  0  0  0  0
    7.6874  -13.4060   19.7013 C   0  0  2  0  0  0  0  0  0  0  0  0
    6.9843  -12.1480   19.2368 C   0  0  0  0  0  0  0  0  0  0  0  0
    7.7488  -13.4800   21.2272 C   0  0  0  0  0  0  0  0  0  0  0  0
    8.3803  -14.8032   21.5722 C   0  0  2  0  0  0  0  0  0  0  0  0
    7.8028  -15.8388   20.7762 N   0  0  0  0  0  0  0  0  0  0  0  0
    8.3576  -15.1221   23.0028 C   0  0  0  0  0  0  0  0  0  0  0  0
    8.9030  -14.3090   23.7976 O   0  0  0  0  0  0  0  0  0  0  0  0
    6.5952  -17.2542   25.4694 C   0  0  0  0  0  0  0  0  0  0  0  0
    7.8366  -16.5873   24.9752 C   0  0  2  0  0  0  0  0  0  0  0  0
    7.7681  -16.2771   23.5619 N   0  0  0  0  0  0  0  0  0  0  0  0
    9.0790  -17.3203   25.3186 C   0  0  0  0  0  0  0  0  0  0  0  0
    9.2739  -17.6022   26.5290 O   0  0  0  0  0  0  0  0  0  0  0  0
   10.4642  -20.5163   23.4569 C   0  0  0  0  0  0  0  0  0  0  0  0
   11.5316  -19.4554   23.5264 C   0  0  1  0  0  0  0  0  0  0  0  0
   11.6200  -18.7336   22.3265 O   0  0  0  0  0  0  0  0  0  0  0  0
   11.2347  -18.4649   24.6605 C   0  0  2  0  0  0  0  0  0  0  0  0
   10.0411  -17.7133   24.3732 N   0  0  0  0  0  0  0  0  0  0  0  0
   12.4077  -17.6022   24.8987 C   0  0  0  0  0  0  0  0  0  0  0  0
   13.5811  -18.1685   25.4023 O   0  0  0  0  0  0  0  0  0  0  0  0
   12.3376  -16.3797   24.6482 O   0  0  0  0  0  0  0  0  0  0  0  0
  2  1  1  6
  3  2  1  0
  4  2  1  0
  4  5  1  0
  5  6  1  6
  7 11  1  0
  7  5  1  0
  8  7  2  0
 10  9  1  6
 10 11  1  0
 10 12  1  0
 12 18  1  0
 13 12  2  0
 15 14  1  6
 15 16  1  0
 17 15  1  0
 17 19  1  0
 17 18  1  6
 19 20  1  0
 21 19  2  0
M  END
$$$$
