LAT.pdb
     RDKit          3D

 21 20  0  0  1  0  0  0  0  0999 V2000
    9.6369  -13.7772   18.9359 C   0  0  0  0  0  0  0  0  0  0  0  0
    8.1448  -13.5472   18.9494 C   0  0  2  0  0  0  0  0  0  0  0  0
    7.8809  -12.0930   18.6204 C   0  0  0  0  0  0  0  0  0  0  0  0
    7.5446  -13.9312   20.3021 C   0  0  0  0  0  0  0  0  0  0  0  0
    7.8654  -15.3863   20.5217 C   0  0  2  0  0  0  0  0  0  0  0  0
    6.9597  -16.2008   19.7762 N   0  0  0  0  0  0  0  0  0  0  0  0
    7.9342  -15.7777   21.9326 C   0  0  0  0  0  0  0  0  0  0  0  0
    6.8655  -15.7628   22.6021 O   0  0  0  0  0  0  0  0  0  0  0  0
   10.0156  -17.7772   24.2090 C   0  0  0  0  0  0  0  0  0  0  0  0
    9.1219  -16.6016   23.9866 C   0  0  2  0  0  0  0  0  0  0  0  0
    9.1126  -16.1725   22.6031 N   0  0  0  0  0  0  0  0  0  0  0  0
    9.3874  -15.4732   24.9114 C   0  0  0  0  0  0  0  0  0  0  0  0
   10.3862  -14.7466   24.6728 O   0  0  0  0  0  0  0  0  0  0  0  0
    7.3591  -12.3870   25.8815 C   0  0  0  0  0  0  0  0  0  0  0  0
    7.5674  -13.2354   27.1088 C   0  0  1  0  0  0  0  0  0  0  0  0
    6.4754  -14.0858   27.3392 O   0  0  0  0  0  0  0  0  0  0  0  0
    8.8256  -14.1013   26.9590 C   0  0  2  0  0  0  0  0  0  0  0  0
    8.5904  -15.1749   26.0293 N   0  0  0  0  0  0  0  0  0  0  0  0
    9.2707  -14.5803   28.2816 C   0  0  0  0  0  0  0  0  0  0  0  0
    9.7033  -13.6541   29.2335 O   0  0  0  0  0  0  0  0  0  0  0  0
    9.2553  -15.8045   28.5335 O   0  0  0  0  0  0  0  0  0  0  0  0
  2  1  1  1
  3  2  1  0
  4  2  1  0
  4  5  1  0
  5  6  1  6
  7 11  1  0
  7  5  1  0
  8  7  2  0
 10  9  1  6
 10 11  1  0
 10 12  1  0
 12 18  1  0
 13 12  2  0
 15 14  1  6
 15 16  1  0
 17 15  1  0
 17 19  1  0
 17 18  1  6
 19 20  1  0
 21 19  2  0
M  END
$$$$
