LAT.pdb
     RDKit          3D

 21 20  0  0  1  0  0  0  0  0999 V2000
    7.8913  -12.5550   19.1868 C   0  0  0  0  0  0  0  0  0  0  0  0
    7.5808  -14.0321   19.2236 C   0  0  2  0  0  0  0  0  0  0  0  0
    6.2297  -14.2542   18.5770 C   0  0  0  0  0  0  0  0  0  0  0  0
    7.6068  -14.5607   20.6579 C   0  0  0  0  0  0  0  0  0  0  0  0
    8.9259  -14.1404   21.2512 C   0  0  2  0  0  0  0  0  0  0  0  0
    9.9990  -14.6515   20.4595 N   0  0  0  0  0  0  0  0  0  0  0  0
    9.0755  -14.4705   22.6716 C   0  0  0  0  0  0  0  0  0  0  0  0
    9.9702  -15.2987   22.9941 O   0  0  0  0  0  0  0  0  0  0  0  0
    7.3824  -13.7260   25.9716 C   0  0  0  0  0  0  0  0  0  0  0  0
    8.4120  -14.3546   25.0912 C   0  0  2  0  0  0  0  0  0  0  0  0
    8.2897  -13.9285   23.7122 N   0  0  0  0  0  0  0  0  0  0  0  0
    8.4686  -15.8317   25.2082 C   0  0  0  0  0  0  0  0  0  0  0  0
    7.4762  -16.4874   24.7984 O   0  0  0  0  0  0  0  0  0  0  0  0
   10.9450  -20.0257   25.5329 C   0  0  0  0  0  0  0  0  0  0  0  0
   10.7618  -18.5777   25.1595 C   0  0  1  0  0  0  0  0  0  0  0  0
   10.4687  -18.4300   23.7954 O   0  0  0  0  0  0  0  0  0  0  0  0
    9.6150  -17.9534   25.9661 C   0  0  2  0  0  0  0  0  0  0  0  0
    9.5609  -16.5317   25.7473 N   0  0  0  0  0  0  0  0  0  0  0  0
    9.7494  -18.3056   27.3925 C   0  0  0  0  0  0  0  0  0  0  0  0
   10.5398  -17.5066   28.2220 O   0  0  0  0  0  0  0  0  0  0  0  0
    9.1566  -19.3109   27.8400 O   0  0  0  0  0  0  0  0  0  0  0  0
  2  1  1  1
  3  2  1  0
  4  2  1  0
  4  5  1  0
  5  6  1  6
  7 11  1  0
  7  5  1  0
  8  7  2  0
 10  9  1  1
 10 11  1  0
 10 12  1  0
 12 18  1  0
 13 12  2  0
 15 14  1  1
 15 16  1  0
 17 15  1  0
 17 19  1  0
 17 18  1  1
 19 20  1  0
 21 19  2  0
M  END
$$$$
