LAT.pdb
     RDKit          3D

 21 20  0  0  1  0  0  0  0  0999 V2000
    9.6462  -13.4930   19.7492 C   0  0  0  0  0  0  0  0  0  0  0  0
    8.3049  -13.4837   19.0561 C   0  0  2  0  0  0  0  0  0  0  0  0
    7.8645  -12.0453   18.8837 C   0  0  0  0  0  0  0  0  0  0  0  0
    7.2755  -14.2918   19.8464 C   0  0  0  0  0  0  0  0  0  0  0  0
    7.9411  -15.5883   20.2268 C   0  0  2  0  0  0  0  0  0  0  0  0
    7.4012  -16.6575   19.4491 N   0  0  0  0  0  0  0  0  0  0  0  0
    7.9136  -15.8760   21.6639 C   0  0  0  0  0  0  0  0  0  0  0  0
    6.7957  -15.8622   22.2475 O   0  0  0  0  0  0  0  0  0  0  0  0
    9.9337  -17.5712   24.2443 C   0  0  0  0  0  0  0  0  0  0  0  0
    8.9670  -16.5010   23.8567 C   0  0  2  0  0  0  0  0  0  0  0  0
    9.0501  -16.1692   22.4491 N   0  0  0  0  0  0  0  0  0  0  0  0
    9.0469  -15.2930   24.7129 C   0  0  0  0  0  0  0  0  0  0  0  0
    9.9667  -14.4687   24.4737 O   0  0  0  0  0  0  0  0  0  0  0  0
    6.7687  -12.2995   25.5159 C   0  0  0  0  0  0  0  0  0  0  0  0
    6.9471  -13.1418   26.7522 C   0  0  1  0  0  0  0  0  0  0  0  0
    5.9009  -14.0645   26.9029 O   0  0  0  0  0  0  0  0  0  0  0  0
    8.2676  -13.9212   26.6881 C   0  0  2  0  0  0  0  0  0  0  0  0
    8.1586  -15.0221   25.7672 N   0  0  0  0  0  0  0  0  0  0  0  0
    8.6692  -14.3485   28.0420 C   0  0  0  0  0  0  0  0  0  0  0  0
    8.9448  -13.3803   29.0103 O   0  0  0  0  0  0  0  0  0  0  0  0
    8.7576  -15.5672   28.3052 O   0  0  0  0  0  0  0  0  0  0  0  0
  2  1  1  1
  3  2  1  0
  4  2  1  0
  4  5  1  0
  5  6  1  6
  7 11  1  0
  7  5  1  0
  8  7  2  0
 10  9  1  1
 10 11  1  0
 10 12  1  0
 12 18  1  0
 13 12  2  0
 15 14  1  6
 15 16  1  0
 17 15  1  0
 17 19  1  0
 17 18  1  6
 19 20  1  0
 21 19  2  0
M  END
$$$$
