LAT.pdb
     RDKit          3D

 21 20  0  0  1  0  0  0  0  0999 V2000
    8.9058  -13.8069   19.1342 C   0  0  0  0  0  0  0  0  0  0  0  0
    7.7420  -13.4197   20.0146 C   0  0  2  0  0  0  0  0  0  0  0  0
    7.6476  -11.9088   20.0473 C   0  0  0  0  0  0  0  0  0  0  0  0
    7.9031  -13.9994   21.4201 C   0  0  0  0  0  0  0  0  0  0  0  0
    7.8530  -15.4982   21.2795 C   0  0  2  0  0  0  0  0  0  0  0  0
    6.5791  -15.8956   20.7707 N   0  0  0  0  0  0  0  0  0  0  0  0
    8.2176  -16.2261   22.4985 C   0  0  0  0  0  0  0  0  0  0  0  0
    7.3206  -16.4129   23.3651 O   0  0  0  0  0  0  0  0  0  0  0  0
   10.6472  -18.6302   23.8163 C   0  0  0  0  0  0  0  0  0  0  0  0
    9.8327  -17.3960   24.0252 C   0  0  2  0  0  0  0  0  0  0  0  0
    9.5040  -16.7372   22.7778 N   0  0  0  0  0  0  0  0  0  0  0  0
   10.4256  -16.4547   25.0056 C   0  0  0  0  0  0  0  0  0  0  0  0
   11.4196  -15.7778   24.6363 O   0  0  0  0  0  0  0  0  0  0  0  0
    8.3654  -14.3295   27.7294 C   0  0  0  0  0  0  0  0  0  0  0  0
    9.8305  -14.1189   27.4490 C   0  0  1  0  0  0  0  0  0  0  0  0
   10.4491  -13.3780   28.4674 O   0  0  0  0  0  0  0  0  0  0  0  0
   10.5559  -15.4659   27.3285 C   0  0  2  0  0  0  0  0  0  0  0  0
    9.9413  -16.2800   26.3128 N   0  0  0  0  0  0  0  0  0  0  0  0
   10.6035  -16.1344   28.6429 C   0  0  0  0  0  0  0  0  0  0  0  0
   11.4060  -15.5990   29.6530 O   0  0  0  0  0  0  0  0  0  0  0  0
    9.9276  -17.1680   28.8361 O   0  0  0  0  0  0  0  0  0  0  0  0
  2  1  1  6
  3  2  1  0
  4  2  1  0
  4  5  1  0
  5  6  1  1
  7 11  1  0
  7  5  1  0
  8  7  2  0
 10  9  1  6
 10 11  1  0
 10 12  1  0
 12 18  1  0
 13 12  2  0
 15 14  1  1
 15 16  1  0
 17 15  1  0
 17 19  1  0
 17 18  1  6
 19 20  1  0
 21 19  2  0
M  END
$$$$
