LAT.pdb
     RDKit          3D

 21 20  0  0  1  0  0  0  0  0999 V2000
    6.5625  -11.9859   24.3430 C   0  0  0  0  0  0  0  0  0  0  0  0
    6.1138  -12.6448   25.6252 C   0  0  2  0  0  0  0  0  0  0  0  0
    5.9718  -11.5766   26.6888 C   0  0  0  0  0  0  0  0  0  0  0  0
    7.0986  -13.7326   26.0546 C   0  0  0  0  0  0  0  0  0  0  0  0
    6.9458  -14.8670   25.0757 C   0  0  2  0  0  0  0  0  0  0  0  0
    5.6527  -15.4571   25.2147 N   0  0  0  0  0  0  0  0  0  0  0  0
    8.0213  -15.8610   25.1390 C   0  0  0  0  0  0  0  0  0  0  0  0
    8.0335  -16.6560   26.1179 O   0  0  0  0  0  0  0  0  0  0  0  0
   10.9709  -17.0545   23.1033 C   0  0  0  0  0  0  0  0  0  0  0  0
   10.1652  -16.9063   24.3519 C   0  0  2  0  0  0  0  0  0  0  0  0
    9.0505  -15.9971   24.1817 N   0  0  0  0  0  0  0  0  0  0  0  0
   10.9783  -16.5636   25.5437 C   0  0  0  0  0  0  0  0  0  0  0  0
   11.7924  -15.6103   25.4394 O   0  0  0  0  0  0  0  0  0  0  0  0
   10.7235  -14.5688   28.0862 C   0  0  0  0  0  0  0  0  0  0  0  0
   10.8271  -15.8879   28.8065 C   0  0  1  0  0  0  0  0  0  0  0  0
    9.5611  -16.4313   29.0719 O   0  0  0  0  0  0  0  0  0  0  0  0
   11.6166  -16.9009   27.9663 C   0  0  2  0  0  0  0  0  0  0  0  0
   10.8888  -17.2404   26.7716 N   0  0  0  0  0  0  0  0  0  0  0  0
   11.9535  -18.0824   28.7832 C   0  0  0  0  0  0  0  0  0  0  0  0
   12.8353  -17.9414   29.8574 O   0  0  0  0  0  0  0  0  0  0  0  0
   11.4479  -19.1912   28.5054 O   0  0  0  0  0  0  0  0  0  0  0  0
  2  1  1  6
  3  2  1  0
  4  2  1  0
  4  5  1  0
  5  6  1  1
  7 11  1  0
  7  5  1  0
  8  7  2  0
 10  9  1  6
 10 11  1  0
 10 12  1  0
 12 18  1  0
 13 12  2  0
 15 14  1  6
 15 16  1  0
 17 15  1  0
 17 19  1  0
 17 18  1  6
 19 20  1  0
 21 19  2  0
M  END
$$$$
