GSY.pdb
     RDKit          3D

 23 23  0  0  1  0  0  0  0  0999 V2000
    5.6643  -22.3848   18.2587 N   0  0  0  0  0  0  0  0  0  0  0  0
    6.6959  -21.3939   18.2249 C   0  0  0  0  0  0  0  0  0  0  0  0
    7.9158  -21.8949   18.8946 C   0  0  0  0  0  0  0  0  0  0  0  0
    7.7721  -22.8445   19.7353 O   0  0  0  0  0  0  0  0  0  0  0  0
   12.6345  -22.5724   19.0926 O   0  0  0  0  0  0  0  0  0  0  0  0
   11.6111  -21.8400   18.5404 C   0  0  0  0  0  0  0  0  0  0  0  0
   10.3318  -21.9210   19.3443 C   0  0  2  0  0  0  0  0  0  0  0  0
    9.2080  -21.3655   18.6376 N   0  0  0  0  0  0  0  0  0  0  0  0
   10.5694  -21.0970   20.5834 C   0  0  0  0  0  0  0  0  0  0  0  0
   10.4898  -19.8381   20.5164 O   0  0  0  0  0  0  0  0  0  0  0  0
    4.6448  -20.4773   22.4977 O   0  0  0  0  0  0  0  0  0  0  0  0
    5.9691  -20.7187   22.8767 C   0  0  0  0  0  0  0  0  0  0  0  0
    6.7757  -19.6626   23.2222 C   0  0  0  0  0  0  0  0  0  0  0  0
    8.0794  -19.8752   23.5977 C   0  0  0  0  0  0  0  0  0  0  0  0
    8.6470  -21.1373   23.6499 C   0  0  0  0  0  0  0  0  0  0  0  0
   10.0380  -21.3547   24.0450 C   0  0  0  0  0  0  0  0  0  0  0  0
   11.0229  -20.8719   22.9967 C   0  0  2  0  0  0  0  0  0  0  0  0
   10.8810  -21.7043   21.8259 N   0  0  0  0  0  0  0  0  0  0  0  0
   12.4266  -20.9353   23.4410 C   0  0  0  0  0  0  0  0  0  0  0  0
   12.8245  -20.3469   24.4613 O   0  0  0  0  0  0  0  0  0  0  0  0
    7.8200  -22.1909   23.2983 C   0  0  0  0  0  0  0  0  0  0  0  0
    6.4984  -21.9837   22.9169 C   0  0  0  0  0  0  0  0  0  0  0  0
   13.3631  -21.6644   22.7241 O   0  0  0  0  0  0  0  0  0  0  0  0
  2  1  1  0
  3  2  1  0
  3  4  2  0
  5  6  1  0
  7  6  1  6
  7  9  1  0
  8  7  1  0
  8  3  1  0
  9 18  1  0
  9 10  2  0
 12 11  1  0
 12 22  2  0
 13 12  1  0
 14 13  2  0
 14 15  1  0
 15 21  2  0
 16 15  1  0
 17 16  1  1
 18 17  1  0
 19 17  1  0
 20 19  2  0
 21 22  1  0
 23 19  1  0
M  END
$$$$
