GSY.pdb
     RDKit          3D

 23 23  0  0  1  0  0  0  0  0999 V2000
   -1.9564  -20.1849   23.1248 N   0  0  0  0  0  0  0  0  0  0  0  0
   -0.7933  -19.3689   23.2935 C   0  0  0  0  0  0  0  0  0  0  0  0
    0.3906  -20.0279   22.7005 C   0  0  0  0  0  0  0  0  0  0  0  0
    0.1820  -21.0452   21.9584 O   0  0  0  0  0  0  0  0  0  0  0  0
    4.0992  -18.2461   22.4194 O   0  0  0  0  0  0  0  0  0  0  0  0
    3.7743  -19.3139   21.6176 C   0  0  0  0  0  0  0  0  0  0  0  0
    2.7995  -20.2661   22.2753 C   0  0  2  0  0  0  0  0  0  0  0  0
    1.7175  -19.5751   22.9256 N   0  0  0  0  0  0  0  0  0  0  0  0
    3.5890  -21.0073   23.3232 C   0  0  0  0  0  0  0  0  0  0  0  0
    3.5411  -20.6213   24.5250 O   0  0  0  0  0  0  0  0  0  0  0  0
    1.3371  -25.6593   28.3828 O   0  0  0  0  0  0  0  0  0  0  0  0
    2.1423  -25.3186   27.2915 C   0  0  0  0  0  0  0  0  0  0  0  0
    3.5055  -25.2667   27.4482 C   0  0  0  0  0  0  0  0  0  0  0  0
    4.3163  -24.9347   26.3908 C   0  0  0  0  0  0  0  0  0  0  0  0
    3.8211  -24.6389   25.1318 C   0  0  0  0  0  0  0  0  0  0  0  0
    4.6909  -24.2802   24.0125 C   0  0  0  0  0  0  0  0  0  0  0  0
    5.1005  -22.8195   24.0387 C   0  0  2  0  0  0  0  0  0  0  0  0
    4.3863  -22.1311   22.9899 N   0  0  0  0  0  0  0  0  0  0  0  0
    6.5442  -22.6137   23.8262 C   0  0  0  0  0  0  0  0  0  0  0  0
    7.0106  -22.2939   22.7190 O   0  0  0  0  0  0  0  0  0  0  0  0
    2.4447  -24.6957   24.9911 C   0  0  0  0  0  0  0  0  0  0  0  0
    1.6167  -25.0313   26.0573 C   0  0  0  0  0  0  0  0  0  0  0  0
    7.4425  -22.7726   24.8703 O   0  0  0  0  0  0  0  0  0  0  0  0
  2  1  1  0
  3  2  1  0
  3  4  2  0
  5  6  1  0
  7  6  1  1
  7  9  1  0
  8  7  1  0
  8  3  1  0
  9 18  1  0
  9 10  2  0
 12 11  1  0
 12 22  2  0
 13 12  1  0
 14 13  2  0
 14 15  1  0
 15 21  2  0
 16 15  1  0
 17 16  1  6
 18 17  1  0
 19 17  1  0
 20 19  2  0
 21 22  1  0
 23 19  1  0
M  END
$$$$
