GSY.pdb
     RDKit          3D

 23 23  0  0  1  0  0  0  0  0999 V2000
    6.9995  -19.4112   21.1882 N   0  0  0  0  0  0  0  0  0  0  0  0
    8.4190  -19.3387   21.0243 C   0  0  0  0  0  0  0  0  0  0  0  0
    8.9021  -17.9689   21.3034 C   0  0  0  0  0  0  0  0  0  0  0  0
   10.1575  -17.7608   21.2029 O   0  0  0  0  0  0  0  0  0  0  0  0
    6.3523  -14.8116   22.2271 O   0  0  0  0  0  0  0  0  0  0  0  0
    7.5800  -14.4973   21.6953 C   0  0  0  0  0  0  0  0  0  0  0  0
    8.5996  -15.5996   21.8822 C   0  0  2  0  0  0  0  0  0  0  0  0
    8.0348  -16.9061   21.6700 N   0  0  0  0  0  0  0  0  0  0  0  0
    9.0533  -15.5043   23.3160 C   0  0  0  0  0  0  0  0  0  0  0  0
    9.6869  -14.4812   23.7000 O   0  0  0  0  0  0  0  0  0  0  0  0
    6.1319  -10.8428   26.6400 O   0  0  0  0  0  0  0  0  0  0  0  0
    6.6114  -12.1561   26.6098 C   0  0  0  0  0  0  0  0  0  0  0  0
    5.7963  -13.1622   26.1530 C   0  0  0  0  0  0  0  0  0  0  0  0
    6.2454  -14.4593   26.1142 C   0  0  0  0  0  0  0  0  0  0  0  0
    7.5172  -14.8238   26.5234 C   0  0  0  0  0  0  0  0  0  0  0  0
    7.9857  -16.2084   26.4846 C   0  0  0  0  0  0  0  0  0  0  0  0
    9.2166  -16.3820   25.6147 C   0  0  2  0  0  0  0  0  0  0  0  0
    8.7843  -16.5397   24.2464 N   0  0  0  0  0  0  0  0  0  0  0  0
   10.0294  -17.5557   25.9801 C   0  0  0  0  0  0  0  0  0  0  0  0
   10.5146  -17.6962   27.1161 O   0  0  0  0  0  0  0  0  0  0  0  0
    8.3260  -13.7972   26.9812 C   0  0  0  0  0  0  0  0  0  0  0  0
    7.8784  -12.4809   27.0235 C   0  0  0  0  0  0  0  0  0  0  0  0
   10.2830  -18.5565   25.0545 O   0  0  0  0  0  0  0  0  0  0  0  0
  2  1  1  0
  3  2  1  0
  3  4  2  0
  5  6  1  0
  7  6  1  1
  7  9  1  0
  8  7  1  0
  8  3  1  0
  9 18  1  0
  9 10  2  0
 12 11  1  0
 12 22  2  0
 13 12  1  0
 14 13  2  0
 14 15  1  0
 15 21  2  0
 16 15  1  0
 17 16  1  1
 18 17  1  0
 19 17  1  0
 20 19  2  0
 21 22  1  0
 23 19  1  0
M  END
$$$$
