GSY.pdb
     RDKit          3D

 23 23  0  0  1  0  0  0  0  0999 V2000
    3.5924  -18.9919   21.9766 N   0  0  0  0  0  0  0  0  0  0  0  0
    3.7367  -17.5696   21.9199 C   0  0  0  0  0  0  0  0  0  0  0  0
    5.1627  -17.1998   21.7879 C   0  0  0  0  0  0  0  0  0  0  0  0
    6.0255  -18.1173   21.9953 O   0  0  0  0  0  0  0  0  0  0  0  0
    8.5755  -14.3850   19.9377 O   0  0  0  0  0  0  0  0  0  0  0  0
    7.2438  -14.5419   20.2385 C   0  0  0  0  0  0  0  0  0  0  0  0
    6.9937  -15.6589   21.2281 C   0  0  2  0  0  0  0  0  0  0  0  0
    5.5901  -15.8894   21.4464 N   0  0  0  0  0  0  0  0  0  0  0  0
    7.6094  -15.2061   22.5268 C   0  0  0  0  0  0  0  0  0  0  0  0
    6.9815  -14.3921   23.2609 O   0  0  0  0  0  0  0  0  0  0  0  0
   10.7249  -14.7163   30.4579 O   0  0  0  0  0  0  0  0  0  0  0  0
   10.1818  -14.9605   29.1926 C   0  0  0  0  0  0  0  0  0  0  0  0
    9.6933  -13.9116   28.4535 C   0  0  0  0  0  0  0  0  0  0  0  0
    9.1555  -14.1272   27.2085 C   0  0  0  0  0  0  0  0  0  0  0  0
    9.0747  -15.3854   26.6356 C   0  0  0  0  0  0  0  0  0  0  0  0
    8.4949  -15.6074   25.3117 C   0  0  0  0  0  0  0  0  0  0  0  0
    9.4296  -15.1941   24.1904 C   0  0  2  0  0  0  0  0  0  0  0  0
    8.8807  -15.6742   22.9445 N   0  0  0  0  0  0  0  0  0  0  0  0
   10.7917  -15.7379   24.3348 C   0  0  0  0  0  0  0  0  0  0  0  0
   11.7501  -15.0333   24.6962 O   0  0  0  0  0  0  0  0  0  0  0  0
    9.5717  -16.4319   27.3943 C   0  0  0  0  0  0  0  0  0  0  0  0
   10.1180  -16.2216   28.6561 C   0  0  0  0  0  0  0  0  0  0  0  0
   11.0520  -17.0734   24.0681 O   0  0  0  0  0  0  0  0  0  0  0  0
  2  1  1  0
  3  2  1  0
  3  4  2  0
  5  6  1  0
  7  6  1  6
  7  9  1  0
  8  7  1  0
  8  3  1  0
  9 18  1  0
  9 10  2  0
 12 11  1  0
 12 22  2  0
 13 12  1  0
 14 13  2  0
 14 15  1  0
 15 21  2  0
 16 15  1  0
 17 16  1  1
 18 17  1  0
 19 17  1  0
 20 19  2  0
 21 22  1  0
 23 19  1  0
M  END
$$$$
