GSY.pdb
     RDKit          3D

 23 23  0  0  1  0  0  0  0  0999 V2000
    3.6847  -19.5383   20.5978 N   0  0  0  0  0  0  0  0  0  0  0  0
    4.3396  -18.5634   19.7807 C   0  0  0  0  0  0  0  0  0  0  0  0
    5.7438  -18.3878   20.2109 C   0  0  0  0  0  0  0  0  0  0  0  0
    6.1062  -18.9852   21.2792 O   0  0  0  0  0  0  0  0  0  0  0  0
    8.7610  -17.9524   17.7033 O   0  0  0  0  0  0  0  0  0  0  0  0
    9.0137  -17.2323   18.8461 C   0  0  0  0  0  0  0  0  0  0  0  0
    8.0359  -17.5372   19.9598 C   0  0  2  0  0  0  0  0  0  0  0  0
    6.6767  -17.5958   19.4907 N   0  0  0  0  0  0  0  0  0  0  0  0
    8.1533  -16.3962   20.9370 C   0  0  0  0  0  0  0  0  0  0  0  0
    7.5331  -15.3191   20.7112 O   0  0  0  0  0  0  0  0  0  0  0  0
    6.8489  -11.5465   27.7645 O   0  0  0  0  0  0  0  0  0  0  0  0
    7.0070  -12.4967   26.7508 C   0  0  0  0  0  0  0  0  0  0  0  0
    6.7217  -12.1528   25.4524 C   0  0  0  0  0  0  0  0  0  0  0  0
    6.8695  -13.0690   24.4404 C   0  0  0  0  0  0  0  0  0  0  0  0
    7.3049  -14.3649   24.6614 C   0  0  0  0  0  0  0  0  0  0  0  0
    7.4538  -15.3366   23.5789 C   0  0  0  0  0  0  0  0  0  0  0  0
    8.8867  -15.4522   23.0938 C   0  0  2  0  0  0  0  0  0  0  0  0
    8.9463  -16.5043   22.1072 N   0  0  0  0  0  0  0  0  0  0  0  0
    9.8432  -15.7722   24.1683 C   0  0  0  0  0  0  0  0  0  0  0  0
    9.9460  -16.9167   24.6429 O   0  0  0  0  0  0  0  0  0  0  0  0
    7.5880  -14.6952   25.9761 C   0  0  0  0  0  0  0  0  0  0  0  0
    7.4409  -13.7727   27.0068 C   0  0  0  0  0  0  0  0  0  0  0  0
   10.6720  -14.7920   24.6926 O   0  0  0  0  0  0  0  0  0  0  0  0
  2  1  1  0
  3  2  1  0
  3  4  2  0
  5  6  1  0
  7  6  1  6
  7  9  1  0
  8  7  1  0
  8  3  1  0
  9 18  1  0
  9 10  2  0
 12 11  1  0
 12 22  2  0
 13 12  1  0
 14 13  2  0
 14 15  1  0
 15 21  2  0
 16 15  1  0
 17 16  1  1
 18 17  1  0
 19 17  1  0
 20 19  2  0
 21 22  1  0
 23 19  1  0
M  END
$$$$
