GSY.pdb
     RDKit          3D

 23 23  0  0  1  0  0  0  0  0999 V2000
    3.4977  -17.8968   21.3884 N   0  0  0  0  0  0  0  0  0  0  0  0
    4.1119  -16.6403   21.0862 C   0  0  0  0  0  0  0  0  0  0  0  0
    5.5795  -16.7311   21.2452 C   0  0  0  0  0  0  0  0  0  0  0  0
    6.0483  -17.8142   21.7314 O   0  0  0  0  0  0  0  0  0  0  0  0
    8.0465  -13.8856   19.7045 O   0  0  0  0  0  0  0  0  0  0  0  0
    8.6849  -15.0465   20.0697 C   0  0  0  0  0  0  0  0  0  0  0  0
    7.8761  -15.8806   21.0392 C   0  0  2  0  0  0  0  0  0  0  0  0
    6.4601  -15.6776   20.8829 N   0  0  0  0  0  0  0  0  0  0  0  0
    8.2745  -15.4161   22.4162 C   0  0  0  0  0  0  0  0  0  0  0  0
    7.9087  -14.2752   22.8166 O   0  0  0  0  0  0  0  0  0  0  0  0
    6.3318  -10.8341   27.3577 O   0  0  0  0  0  0  0  0  0  0  0  0
    6.7513  -12.0833   26.8895 C   0  0  0  0  0  0  0  0  0  0  0  0
    8.0943  -12.3524   26.7940 C   0  0  0  0  0  0  0  0  0  0  0  0
    8.5298  -13.5720   26.3372 C   0  0  0  0  0  0  0  0  0  0  0  0
    7.6623  -14.5811   25.9539 C   0  0  0  0  0  0  0  0  0  0  0  0
    8.1341  -15.8750   25.4627 C   0  0  0  0  0  0  0  0  0  0  0  0
    9.3745  -15.7518   24.5976 C   0  0  2  0  0  0  0  0  0  0  0  0
    9.0526  -16.2327   23.2751 N   0  0  0  0  0  0  0  0  0  0  0  0
   10.5200  -16.5278   25.1049 C   0  0  0  0  0  0  0  0  0  0  0  0
   11.1312  -16.2056   26.1385 O   0  0  0  0  0  0  0  0  0  0  0  0
    6.3117  -14.2931   26.0563 C   0  0  0  0  0  0  0  0  0  0  0  0
    5.8626  -13.0603   26.5182 C   0  0  0  0  0  0  0  0  0  0  0  0
   10.9596  -17.6597   24.4354 O   0  0  0  0  0  0  0  0  0  0  0  0
  2  1  1  0
  3  2  1  0
  3  4  2  0
  5  6  1  0
  7  6  1  6
  7  9  1  0
  8  7  1  0
  8  3  1  0
  9 18  1  0
  9 10  2  0
 12 11  1  0
 12 22  2  0
 13 12  1  0
 14 13  2  0
 14 15  1  0
 15 21  2  0
 16 15  1  0
 17 16  1  1
 18 17  1  0
 19 17  1  0
 20 19  2  0
 21 22  1  0
 23 19  1  0
M  END
$$$$
