GSY.pdb
     RDKit          3D

 23 23  0  0  1  0  0  0  0  0999 V2000
    8.3402  -12.3397   17.8254 N   0  0  0  0  0  0  0  0  0  0  0  0
    8.7235  -13.6451   18.2683 C   0  0  0  0  0  0  0  0  0  0  0  0
    8.0259  -13.9896   19.5261 C   0  0  0  0  0  0  0  0  0  0  0  0
    7.5230  -13.0274   20.1972 O   0  0  0  0  0  0  0  0  0  0  0  0
    7.4952  -17.9412   21.2324 O   0  0  0  0  0  0  0  0  0  0  0  0
    6.5550  -16.9391   21.2564 C   0  0  0  0  0  0  0  0  0  0  0  0
    7.1697  -15.5571   21.2143 C   0  0  2  0  0  0  0  0  0  0  0  0
    7.9019  -15.3232   19.9977 N   0  0  0  0  0  0  0  0  0  0  0  0
    8.1354  -15.4989   22.3697 C   0  0  0  0  0  0  0  0  0  0  0  0
    9.3771  -15.5536   22.1442 O   0  0  0  0  0  0  0  0  0  0  0  0
   11.2015  -15.1325   30.6530 O   0  0  0  0  0  0  0  0  0  0  0  0
   10.4216  -14.9954   29.5004 C   0  0  0  0  0  0  0  0  0  0  0  0
    9.7274  -16.0791   29.0219 C   0  0  0  0  0  0  0  0  0  0  0  0
    8.9551  -15.9683   27.8919 C   0  0  0  0  0  0  0  0  0  0  0  0
    8.8318  -14.7854   27.1825 C   0  0  0  0  0  0  0  0  0  0  0  0
    8.0122  -14.6772   25.9764 C   0  0  0  0  0  0  0  0  0  0  0  0
    8.6499  -15.3528   24.7769 C   0  0  2  0  0  0  0  0  0  0  0  0
    7.6807  -15.3839   23.7075 N   0  0  0  0  0  0  0  0  0  0  0  0
    9.0838  -16.7350   25.0471 C   0  0  0  0  0  0  0  0  0  0  0  0
    8.3109  -17.7031   24.9419 O   0  0  0  0  0  0  0  0  0  0  0  0
    9.5384  -13.7026   27.6784 C   0  0  0  0  0  0  0  0  0  0  0  0
   10.3228  -13.8068   28.8224 C   0  0  0  0  0  0  0  0  0  0  0  0
   10.3879  -17.0043   25.4333 O   0  0  0  0  0  0  0  0  0  0  0  0
  2  1  1  0
  3  2  1  0
  3  4  2  0
  5  6  1  0
  7  6  1  6
  7  9  1  0
  8  7  1  0
  8  3  1  0
  9 18  1  0
  9 10  2  0
 12 11  1  0
 12 22  2  0
 13 12  1  0
 14 13  2  0
 14 15  1  0
 15 21  2  0
 16 15  1  0
 17 16  1  1
 18 17  1  0
 19 17  1  0
 20 19  2  0
 21 22  1  0
 23 19  1  0
M  END
$$$$
