GSY.pdb
     RDKit          3D

 23 23  0  0  1  0  0  0  0  0999 V2000
    7.9903  -12.8589   17.2009 N   0  0  0  0  0  0  0  0  0  0  0  0
    8.8860  -13.3348   18.2101 C   0  0  0  0  0  0  0  0  0  0  0  0
    8.1289  -13.8860   19.3548 C   0  0  0  0  0  0  0  0  0  0  0  0
    6.8912  -13.5845   19.4357 O   0  0  0  0  0  0  0  0  0  0  0  0
    8.5887  -17.5800   20.8203 O   0  0  0  0  0  0  0  0  0  0  0  0
    7.4957  -16.7556   20.9396 C   0  0  0  0  0  0  0  0  0  0  0  0
    7.8682  -15.3391   21.3196 C   0  0  2  0  0  0  0  0  0  0  0  0
    8.7212  -14.7187   20.3407 N   0  0  0  0  0  0  0  0  0  0  0  0
    8.6298  -15.4456   22.6155 C   0  0  0  0  0  0  0  0  0  0  0  0
    9.8703  -15.2078   22.6279 O   0  0  0  0  0  0  0  0  0  0  0  0
    5.8350  -10.3146   26.6427 O   0  0  0  0  0  0  0  0  0  0  0  0
    6.3384  -11.6149   26.5369 C   0  0  0  0  0  0  0  0  0  0  0  0
    5.4684  -12.6646   26.3730 C   0  0  0  0  0  0  0  0  0  0  0  0
    5.9396  -13.9500   26.2666 C   0  0  0  0  0  0  0  0  0  0  0  0
    7.2886  -14.2594   26.3168 C   0  0  0  0  0  0  0  0  0  0  0  0
    7.7819  -15.6317   26.2089 C   0  0  0  0  0  0  0  0  0  0  0  0
    8.7451  -15.8144   25.0510 C   0  0  2  0  0  0  0  0  0  0  0  0
    7.9838  -15.8075   23.8245 N   0  0  0  0  0  0  0  0  0  0  0  0
    9.5043  -17.0758   25.1161 C   0  0  0  0  0  0  0  0  0  0  0  0
   10.4028  -17.2643   25.9544 O   0  0  0  0  0  0  0  0  0  0  0  0
    8.1519  -13.1895   26.4826 C   0  0  0  0  0  0  0  0  0  0  0  0
    7.6824  -11.8846   26.5910 C   0  0  0  0  0  0  0  0  0  0  0  0
    9.2366  -18.1089   24.2309 O   0  0  0  0  0  0  0  0  0  0  0  0
  2  1  1  0
  3  2  1  0
  3  4  2  0
  5  6  1  0
  7  6  1  6
  7  9  1  0
  8  7  1  0
  8  3  1  0
  9 18  1  0
  9 10  2  0
 12 11  1  0
 12 22  2  0
 13 12  1  0
 14 13  2  0
 14 15  1  0
 15 21  2  0
 16 15  1  0
 17 16  1  1
 18 17  1  0
 19 17  1  0
 20 19  2  0
 21 22  1  0
 23 19  1  0
M  END
$$$$
