GSY.pdb
     RDKit          3D

 23 23  0  0  1  0  0  0  0  0999 V2000
    8.2831  -12.1311   17.9052 N   0  0  0  0  0  0  0  0  0  0  0  0
    8.5843  -13.4728   18.3008 C   0  0  0  0  0  0  0  0  0  0  0  0
    7.9488  -13.7835   19.5997 C   0  0  0  0  0  0  0  0  0  0  0  0
    7.5890  -12.7965   20.3246 O   0  0  0  0  0  0  0  0  0  0  0  0
    7.1657  -17.6987   21.0502 O   0  0  0  0  0  0  0  0  0  0  0  0
    6.3379  -16.6465   21.3604 C   0  0  0  0  0  0  0  0  0  0  0  0
    7.0422  -15.3086   21.3004 C   0  0  2  0  0  0  0  0  0  0  0  0
    7.7323  -15.1116   20.0531 N   0  0  0  0  0  0  0  0  0  0  0  0
    8.0613  -15.3278   22.4103 C   0  0  0  0  0  0  0  0  0  0  0  0
    9.2738  -15.5518   22.1360 O   0  0  0  0  0  0  0  0  0  0  0  0
   11.5612  -15.1532   30.5321 O   0  0  0  0  0  0  0  0  0  0  0  0
   10.7041  -15.0374   29.4332 C   0  0  0  0  0  0  0  0  0  0  0  0
   10.5775  -13.8255   28.8003 C   0  0  0  0  0  0  0  0  0  0  0  0
    9.7420  -13.6879   27.7192 C   0  0  0  0  0  0  0  0  0  0  0  0
    8.9937  -14.7375   27.2131 C   0  0  0  0  0  0  0  0  0  0  0  0
    8.1015  -14.5812   26.0652 C   0  0  0  0  0  0  0  0  0  0  0  0
    8.7106  -15.1071   24.7789 C   0  0  2  0  0  0  0  0  0  0  0  0
    7.6889  -15.0996   23.7591 N   0  0  0  0  0  0  0  0  0  0  0  0
    9.2334  -16.4797   24.8986 C   0  0  0  0  0  0  0  0  0  0  0  0
   10.4383  -16.7134   25.0965 O   0  0  0  0  0  0  0  0  0  0  0  0
    9.1329  -15.9523   27.8630 C   0  0  0  0  0  0  0  0  0  0  0  0
    9.9772  -16.0997   28.9586 C   0  0  0  0  0  0  0  0  0  0  0  0
    8.3851  -17.5714   24.7928 O   0  0  0  0  0  0  0  0  0  0  0  0
  2  1  1  0
  3  2  1  0
  3  4  2  0
  5  6  1  0
  7  6  1  6
  7  9  1  0
  8  7  1  0
  8  3  1  0
  9 18  1  0
  9 10  2  0
 12 11  1  0
 12 22  2  0
 13 12  1  0
 14 13  2  0
 14 15  1  0
 15 21  2  0
 16 15  1  0
 17 16  1  1
 18 17  1  0
 19 17  1  0
 20 19  2  0
 21 22  1  0
 23 19  1  0
M  END
$$$$
