GSY.pdb
     RDKit          3D

 23 23  0  0  1  0  0  0  0  0999 V2000
    1.5308  -20.0225   22.0463 N   0  0  0  0  0  0  0  0  0  0  0  0
    2.2439  -18.8865   21.5483 C   0  0  0  0  0  0  0  0  0  0  0  0
    3.6948  -19.0400   21.7911 C   0  0  0  0  0  0  0  0  0  0  0  0
    4.0625  -20.0063   22.5395 O   0  0  0  0  0  0  0  0  0  0  0  0
    6.7293  -17.3143   19.4793 O   0  0  0  0  0  0  0  0  0  0  0  0
    6.8958  -18.4397   20.2503 C   0  0  0  0  0  0  0  0  0  0  0  0
    6.0556  -18.4181   21.5085 C   0  0  2  0  0  0  0  0  0  0  0  0
    4.6658  -18.1681   21.2315 N   0  0  0  0  0  0  0  0  0  0  0  0
    6.5872  -17.2801   22.3411 C   0  0  0  0  0  0  0  0  0  0  0  0
    6.0336  -16.1470   22.2694 O   0  0  0  0  0  0  0  0  0  0  0  0
    8.3834  -20.6156   28.6025 O   0  0  0  0  0  0  0  0  0  0  0  0
    8.1677  -19.5225   27.7574 C   0  0  0  0  0  0  0  0  0  0  0  0
    9.1008  -18.5167   27.7029 C   0  0  0  0  0  0  0  0  0  0  0  0
    8.9106  -17.4336   26.8805 C   0  0  0  0  0  0  0  0  0  0  0  0
    7.7930  -17.2925   26.0749 C   0  0  0  0  0  0  0  0  0  0  0  0
    7.5950  -16.1329   25.2064 C   0  0  0  0  0  0  0  0  0  0  0  0
    8.2662  -16.2962   23.8556 C   0  0  2  0  0  0  0  0  0  0  0  0
    7.6976  -17.4529   23.2054 N   0  0  0  0  0  0  0  0  0  0  0  0
    9.7245  -16.4884   23.9473 C   0  0  0  0  0  0  0  0  0  0  0  0
   10.2712  -17.5599   23.6332 O   0  0  0  0  0  0  0  0  0  0  0  0
    6.8621  -18.3154   26.1421 C   0  0  0  0  0  0  0  0  0  0  0  0
    7.0476  -19.4158   26.9725 C   0  0  0  0  0  0  0  0  0  0  0  0
   10.5461  -15.4646   24.3937 O   0  0  0  0  0  0  0  0  0  0  0  0
  2  1  1  0
  3  2  1  0
  3  4  2  0
  5  6  1  0
  7  6  1  6
  7  9  1  0
  8  7  1  0
  8  3  1  0
  9 18  1  0
  9 10  2  0
 12 11  1  0
 12 22  2  0
 13 12  1  0
 14 13  2  0
 14 15  1  0
 15 21  2  0
 16 15  1  0
 17 16  1  1
 18 17  1  0
 19 17  1  0
 20 19  2  0
 21 22  1  0
 23 19  1  0
M  END
$$$$
