GSY.pdb
     RDKit          3D

 23 23  0  0  1  0  0  0  0  0999 V2000
    7.8334  -12.0943   19.3044 N   0  0  0  0  0  0  0  0  0  0  0  0
    8.7019  -13.2196   19.4676 C   0  0  0  0  0  0  0  0  0  0  0  0
    8.1396  -14.1677   20.4536 C   0  0  0  0  0  0  0  0  0  0  0  0
    7.1199  -13.7828   21.1180 O   0  0  0  0  0  0  0  0  0  0  0  0
    8.0052  -17.9702   19.8812 O   0  0  0  0  0  0  0  0  0  0  0  0
    8.1239  -17.7793   21.2370 C   0  0  0  0  0  0  0  0  0  0  0  0
    8.0411  -16.3214   21.6335 C   0  0  2  0  0  0  0  0  0  0  0  0
    8.6851  -15.4594   20.6779 N   0  0  0  0  0  0  0  0  0  0  0  0
    8.7728  -16.2078   22.9459 C   0  0  0  0  0  0  0  0  0  0  0  0
    9.9816  -15.8411   22.9530 O   0  0  0  0  0  0  0  0  0  0  0  0
    6.1327  -10.6311   26.2120 O   0  0  0  0  0  0  0  0  0  0  0  0
    6.5960  -11.9482   26.2895 C   0  0  0  0  0  0  0  0  0  0  0  0
    5.7117  -12.9859   26.1260 C   0  0  0  0  0  0  0  0  0  0  0  0
    6.1437  -14.2874   26.1978 C   0  0  0  0  0  0  0  0  0  0  0  0
    7.4657  -14.6254   26.4338 C   0  0  0  0  0  0  0  0  0  0  0  0
    7.9166  -16.0141   26.5149 C   0  0  0  0  0  0  0  0  0  0  0  0
    8.8831  -16.3779   25.4035 C   0  0  2  0  0  0  0  0  0  0  0  0
    8.1336  -16.5041   24.1762 N   0  0  0  0  0  0  0  0  0  0  0  0
    9.5964  -17.6454   25.6412 C   0  0  0  0  0  0  0  0  0  0  0  0
    9.2777  -18.7012   25.0674 O   0  0  0  0  0  0  0  0  0  0  0  0
    8.3440  -13.5673   26.5965 C   0  0  0  0  0  0  0  0  0  0  0  0
    7.9143  -12.2463   26.5251 C   0  0  0  0  0  0  0  0  0  0  0  0
   10.6623  -17.7019   26.5262 O   0  0  0  0  0  0  0  0  0  0  0  0
  2  1  1  0
  3  2  1  0
  3  4  2  0
  5  6  1  0
  7  6  1  6
  7  9  1  0
  8  7  1  0
  8  3  1  0
  9 18  1  0
  9 10  2  0
 12 11  1  0
 12 22  2  0
 13 12  1  0
 14 13  2  0
 14 15  1  0
 15 21  2  0
 16 15  1  0
 17 16  1  1
 18 17  1  0
 19 17  1  0
 20 19  2  0
 21 22  1  0
 23 19  1  0
M  END
$$$$
