GSY.pdb
     RDKit          3D

 23 23  0  0  1  0  0  0  0  0999 V2000
    3.4864  -19.1257   22.5429 N   0  0  0  0  0  0  0  0  0  0  0  0
    3.7180  -17.7379   22.2833 C   0  0  0  0  0  0  0  0  0  0  0  0
    5.1581  -17.4877   22.0576 C   0  0  0  0  0  0  0  0  0  0  0  0
    5.9765  -18.3770   22.4681 O   0  0  0  0  0  0  0  0  0  0  0  0
    7.0007  -13.9851   20.2483 O   0  0  0  0  0  0  0  0  0  0  0  0
    7.3728  -15.2872   20.0147 C   0  0  0  0  0  0  0  0  0  0  0  0
    7.0599  -16.2041   21.1771 C   0  0  2  0  0  0  0  0  0  0  0  0
    5.6454  -16.3189   21.4151 N   0  0  0  0  0  0  0  0  0  0  0  0
    7.6962  -15.5697   22.3868 C   0  0  0  0  0  0  0  0  0  0  0  0
    7.0493  -14.7109   23.0500 O   0  0  0  0  0  0  0  0  0  0  0  0
   10.9717  -14.4980   30.2056 O   0  0  0  0  0  0  0  0  0  0  0  0
   10.3998  -14.8051   28.9670 C   0  0  0  0  0  0  0  0  0  0  0  0
   10.6309  -16.0355   28.4029 C   0  0  0  0  0  0  0  0  0  0  0  0
   10.0798  -16.3595   27.1876 C   0  0  0  0  0  0  0  0  0  0  0  0
    9.2764  -15.4864   26.4733 C   0  0  0  0  0  0  0  0  0  0  0  0
    8.6983  -15.8369   25.1767 C   0  0  0  0  0  0  0  0  0  0  0  0
    9.5357  -15.3405   24.0130 C   0  0  2  0  0  0  0  0  0  0  0  0
    9.0079  -15.9157   22.7987 N   0  0  0  0  0  0  0  0  0  0  0  0
   10.9587  -15.7094   24.1180 C   0  0  0  0  0  0  0  0  0  0  0  0
   11.3723  -16.8419   23.8150 O   0  0  0  0  0  0  0  0  0  0  0  0
    9.0537  -14.2502   27.0562 C   0  0  0  0  0  0  0  0  0  0  0  0
    9.6083  -13.9146   28.2869 C   0  0  0  0  0  0  0  0  0  0  0  0
   11.8963  -14.7909   24.5649 O   0  0  0  0  0  0  0  0  0  0  0  0
  2  1  1  0
  3  2  1  0
  3  4  2  0
  5  6  1  0
  7  6  1  6
  7  9  1  0
  8  7  1  0
  8  3  1  0
  9 18  1  0
  9 10  2  0
 12 11  1  0
 12 22  2  0
 13 12  1  0
 14 13  2  0
 14 15  1  0
 15 21  2  0
 16 15  1  0
 17 16  1  1
 18 17  1  0
 19 17  1  0
 20 19  2  0
 21 22  1  0
 23 19  1  0
M  END
$$$$
