GSY.pdb
     RDKit          3D

 23 23  0  0  1  0  0  0  0  0999 V2000
    7.2023  -20.5037   16.1610 N   0  0  0  0  0  0  0  0  0  0  0  0
    8.4877  -19.9460   15.8711 C   0  0  0  0  0  0  0  0  0  0  0  0
    9.5467  -20.6882   16.5888 C   0  0  0  0  0  0  0  0  0  0  0  0
    9.1885  -21.3955   17.5891 O   0  0  0  0  0  0  0  0  0  0  0  0
   13.6366  -20.1823   15.8502 O   0  0  0  0  0  0  0  0  0  0  0  0
   13.2412  -21.3941   16.3639 C   0  0  0  0  0  0  0  0  0  0  0  0
   11.8780  -21.3371   17.0181 C   0  0  2  0  0  0  0  0  0  0  0  0
   10.9140  -20.6393   16.2089 N   0  0  0  0  0  0  0  0  0  0  0  0
   12.0669  -20.5697   18.3011 C   0  0  0  0  0  0  0  0  0  0  0  0
   12.0374  -19.3070   18.2793 O   0  0  0  0  0  0  0  0  0  0  0  0
   12.2948  -26.5621   22.7537 O   0  0  0  0  0  0  0  0  0  0  0  0
   12.0252  -25.2179   22.4782 C   0  0  0  0  0  0  0  0  0  0  0  0
   12.7408  -24.2396   23.1234 C   0  0  0  0  0  0  0  0  0  0  0  0
   12.4937  -22.9130   22.8690 C   0  0  0  0  0  0  0  0  0  0  0  0
   11.5309  -22.4903   21.9678 C   0  0  0  0  0  0  0  0  0  0  0  0
   11.2697  -21.0754   21.7070 C   0  0  0  0  0  0  0  0  0  0  0  0
   12.2803  -20.4629   20.7554 C   0  0  2  0  0  0  0  0  0  0  0  0
   12.2777  -21.2345   19.5354 N   0  0  0  0  0  0  0  0  0  0  0  0
   13.6534  -20.4500   21.2906 C   0  0  0  0  0  0  0  0  0  0  0  0
   13.9453  -19.8656   22.3483 O   0  0  0  0  0  0  0  0  0  0  0  0
   10.8185  -23.4894   21.3260 C   0  0  0  0  0  0  0  0  0  0  0  0
   11.0629  -24.8354   21.5783 C   0  0  0  0  0  0  0  0  0  0  0  0
   14.6795  -21.0992   20.6212 O   0  0  0  0  0  0  0  0  0  0  0  0
  2  1  1  0
  3  2  1  0
  3  4  2  0
  5  6  1  0
  7  6  1  6
  7  9  1  0
  8  7  1  0
  8  3  1  0
  9 18  1  0
  9 10  2  0
 12 11  1  0
 12 22  2  0
 13 12  1  0
 14 13  2  0
 14 15  1  0
 15 21  2  0
 16 15  1  0
 17 16  1  1
 18 17  1  0
 19 17  1  0
 20 19  2  0
 21 22  1  0
 23 19  1  0
M  END
$$$$
