GSY.pdb
     RDKit          3D

 23 23  0  0  1  0  0  0  0  0999 V2000
    7.7608  -12.8229   17.9044 N   0  0  0  0  0  0  0  0  0  0  0  0
    8.7516  -13.0457   18.9123 C   0  0  0  0  0  0  0  0  0  0  0  0
    8.3195  -14.1194   19.8332 C   0  0  0  0  0  0  0  0  0  0  0  0
    7.2189  -14.7086   19.5674 O   0  0  0  0  0  0  0  0  0  0  0  0
   10.5779  -16.8863   20.8203 O   0  0  0  0  0  0  0  0  0  0  0  0
    9.2249  -16.9501   21.0528 C   0  0  0  0  0  0  0  0  0  0  0  0
    8.6791  -15.6903   21.6888 C   0  0  2  0  0  0  0  0  0  0  0  0
    9.0720  -14.5047   20.9740 N   0  0  0  0  0  0  0  0  0  0  0  0
    9.2765  -15.6328   23.0710 C   0  0  0  0  0  0  0  0  0  0  0  0
   10.3760  -15.0365   23.2477 O   0  0  0  0  0  0  0  0  0  0  0  0
    5.8254  -10.7630   26.3220 O   0  0  0  0  0  0  0  0  0  0  0  0
    6.4162  -12.0292   26.3799 C   0  0  0  0  0  0  0  0  0  0  0  0
    5.7675  -13.1031   25.8220 C   0  0  0  0  0  0  0  0  0  0  0  0
    6.3282  -14.3559   25.8666 C   0  0  0  0  0  0  0  0  0  0  0  0
    7.5527  -14.6072   26.4626 C   0  0  0  0  0  0  0  0  0  0  0  0
    8.1401  -15.9454   26.5113 C   0  0  0  0  0  0  0  0  0  0  0  0
    9.2412  -16.1352   25.4849 C   0  0  2  0  0  0  0  0  0  0  0  0
    8.6308  -16.2344   24.1805 N   0  0  0  0  0  0  0  0  0  0  0  0
   10.0475  -17.3479   25.7107 C   0  0  0  0  0  0  0  0  0  0  0  0
   10.7907  -17.4732   26.6994 O   0  0  0  0  0  0  0  0  0  0  0  0
    8.1932  -13.5135   27.0204 C   0  0  0  0  0  0  0  0  0  0  0  0
    7.6319  -12.2414   26.9792 C   0  0  0  0  0  0  0  0  0  0  0  0
   10.0025  -18.4044   24.8139 O   0  0  0  0  0  0  0  0  0  0  0  0
  2  1  1  0
  3  2  1  0
  3  4  2  0
  5  6  1  0
  7  6  1  6
  7  9  1  0
  8  7  1  0
  8  3  1  0
  9 18  1  0
  9 10  2  0
 12 11  1  0
 12 22  2  0
 13 12  1  0
 14 13  2  0
 14 15  1  0
 15 21  2  0
 16 15  1  0
 17 16  1  1
 18 17  1  0
 19 17  1  0
 20 19  2  0
 21 22  1  0
 23 19  1  0
M  END
$$$$
