GSY.pdb
     RDKit          3D

 23 23  0  0  1  0  0  0  0  0999 V2000
    7.4404  -12.4038   18.9832 N   0  0  0  0  0  0  0  0  0  0  0  0
    8.6117  -13.1102   19.4029 C   0  0  0  0  0  0  0  0  0  0  0  0
    8.2461  -14.2362   20.2895 C   0  0  0  0  0  0  0  0  0  0  0  0
    7.0342  -14.2978   20.6855 O   0  0  0  0  0  0  0  0  0  0  0  0
   10.5987  -17.5844   20.8042 O   0  0  0  0  0  0  0  0  0  0  0  0
    9.2691  -17.6338   21.1482 C   0  0  0  0  0  0  0  0  0  0  0  0
    8.7196  -16.2856   21.5606 C   0  0  2  0  0  0  0  0  0  0  0  0
    9.1777  -15.2249   20.7029 N   0  0  0  0  0  0  0  0  0  0  0  0
    9.2434  -16.0334   22.9508 C   0  0  0  0  0  0  0  0  0  0  0  0
   10.3216  -15.3927   23.1012 O   0  0  0  0  0  0  0  0  0  0  0  0
    6.1455  -10.5774   26.3450 O   0  0  0  0  0  0  0  0  0  0  0  0
    6.6081  -11.8971   26.3491 C   0  0  0  0  0  0  0  0  0  0  0  0
    5.7165  -12.9257   26.1688 C   0  0  0  0  0  0  0  0  0  0  0  0
    6.1476  -14.2295   26.1690 C   0  0  0  0  0  0  0  0  0  0  0  0
    7.4758  -14.5788   26.3468 C   0  0  0  0  0  0  0  0  0  0  0  0
    7.9258  -15.9701   26.3518 C   0  0  0  0  0  0  0  0  0  0  0  0
    9.0874  -16.2094   25.4055 C   0  0  2  0  0  0  0  0  0  0  0  0
    8.5517  -16.5001   24.0969 N   0  0  0  0  0  0  0  0  0  0  0  0
    9.9497  -17.3334   25.8116 C   0  0  0  0  0  0  0  0  0  0  0  0
   10.7279  -17.2542   26.7779 O   0  0  0  0  0  0  0  0  0  0  0  0
    8.3614  -13.5297   26.5274 C   0  0  0  0  0  0  0  0  0  0  0  0
    7.9326  -12.2064   26.5284 C   0  0  0  0  0  0  0  0  0  0  0  0
    9.9202  -18.5337   25.1183 O   0  0  0  0  0  0  0  0  0  0  0  0
  2  1  1  0
  3  2  1  0
  3  4  2  0
  5  6  1  0
  7  6  1  6
  7  9  1  0
  8  7  1  0
  8  3  1  0
  9 18  1  0
  9 10  2  0
 12 11  1  0
 12 22  2  0
 13 12  1  0
 14 13  2  0
 14 15  1  0
 15 21  2  0
 16 15  1  0
 17 16  1  1
 18 17  1  0
 19 17  1  0
 20 19  2  0
 21 22  1  0
 23 19  1  0
M  END
$$$$
