GSY.pdb
     RDKit          3D

 23 23  0  0  1  0  0  0  0  0999 V2000
    8.9025  -17.2841   17.9828 N   0  0  0  0  0  0  0  0  0  0  0  0
   10.0940  -17.2183   18.7722 C   0  0  0  0  0  0  0  0  0  0  0  0
    9.7580  -17.1638   20.2116 C   0  0  0  0  0  0  0  0  0  0  0  0
    8.5513  -16.8835   20.5192 O   0  0  0  0  0  0  0  0  0  0  0  0
   11.5399  -19.3312   23.0626 O   0  0  0  0  0  0  0  0  0  0  0  0
   10.3607  -18.6692   23.3072 C   0  0  0  0  0  0  0  0  0  0  0  0
   10.2835  -17.3303   22.6066 C   0  0  2  0  0  0  0  0  0  0  0  0
   10.7117  -17.4076   21.2349 N   0  0  0  0  0  0  0  0  0  0  0  0
   11.2272  -16.4201   23.3493 C   0  0  0  0  0  0  0  0  0  0  0  0
   12.3520  -16.1461   22.8438 O   0  0  0  0  0  0  0  0  0  0  0  0
    9.8223  -17.0549   30.9720 O   0  0  0  0  0  0  0  0  0  0  0  0
   10.0986  -16.3477   29.7977 C   0  0  0  0  0  0  0  0  0  0  0  0
   11.0755  -15.3828   29.8045 C   0  0  0  0  0  0  0  0  0  0  0  0
   11.3643  -14.6756   28.6634 C   0  0  0  0  0  0  0  0  0  0  0  0
   10.7042  -14.8869   27.4645 C   0  0  0  0  0  0  0  0  0  0  0  0
   11.0135  -14.1252   26.2552 C   0  0  0  0  0  0  0  0  0  0  0  0
   11.7918  -14.9388   25.2382 C   0  0  2  0  0  0  0  0  0  0  0  0
   10.8805  -15.8628   24.6059 N   0  0  0  0  0  0  0  0  0  0  0  0
   12.8965  -15.7131   25.8315 C   0  0  0  0  0  0  0  0  0  0  0  0
   13.9081  -15.1663   26.3039 O   0  0  0  0  0  0  0  0  0  0  0  0
    9.7221  -15.8631   27.4751 C   0  0  0  0  0  0  0  0  0  0  0  0
    9.4237  -16.5838   28.6269 C   0  0  0  0  0  0  0  0  0  0  0  0
   12.8422  -17.0976   25.8826 O   0  0  0  0  0  0  0  0  0  0  0  0
  2  1  1  0
  3  2  1  0
  3  4  2  0
  5  6  1  0
  7  6  1  1
  7  9  1  0
  8  7  1  0
  8  3  1  0
  9 18  1  0
  9 10  2  0
 12 11  1  0
 12 22  2  0
 13 12  1  0
 14 13  2  0
 14 15  1  0
 15 21  2  0
 16 15  1  0
 17 16  1  1
 18 17  1  0
 19 17  1  0
 20 19  2  0
 21 22  1  0
 23 19  1  0
M  END
$$$$
