GSY.pdb
     RDKit          3D

 23 23  0  0  1  0  0  0  0  0999 V2000
    8.0075  -12.1413   18.5879 N   0  0  0  0  0  0  0  0  0  0  0  0
    8.8655  -13.2861   18.6098 C   0  0  0  0  0  0  0  0  0  0  0  0
    8.5049  -14.1807   19.7310 C   0  0  0  0  0  0  0  0  0  0  0  0
    7.6751  -13.7331   20.5914 O   0  0  0  0  0  0  0  0  0  0  0  0
   10.2063  -17.9932   20.4300 O   0  0  0  0  0  0  0  0  0  0  0  0
    8.8955  -17.7646   20.7738 C   0  0  0  0  0  0  0  0  0  0  0  0
    8.5903  -16.2967   20.9781 C   0  0  2  0  0  0  0  0  0  0  0  0
    9.0397  -15.4881   19.8759 N   0  0  0  0  0  0  0  0  0  0  0  0
    9.3505  -15.8844   22.2121 C   0  0  0  0  0  0  0  0  0  0  0  0
   10.4911  -15.3551   22.0906 O   0  0  0  0  0  0  0  0  0  0  0  0
   11.2130  -14.6803   30.7893 O   0  0  0  0  0  0  0  0  0  0  0  0
   10.5772  -14.8546   29.5561 C   0  0  0  0  0  0  0  0  0  0  0  0
   10.3344  -13.7617   28.7611 C   0  0  0  0  0  0  0  0  0  0  0  0
    9.7115  -13.9084   27.5461 C   0  0  0  0  0  0  0  0  0  0  0  0
    9.2999  -15.1379   27.0595 C   0  0  0  0  0  0  0  0  0  0  0  0
    8.6317  -15.2849   25.7672 C   0  0  0  0  0  0  0  0  0  0  0  0
    9.5904  -15.6731   24.6572 C   0  0  2  0  0  0  0  0  0  0  0  0
    8.8133  -16.0774   23.5098 N   0  0  0  0  0  0  0  0  0  0  0  0
   10.4874  -16.7840   25.0220 C   0  0  0  0  0  0  0  0  0  0  0  0
   11.6392  -16.5911   25.4484 O   0  0  0  0  0  0  0  0  0  0  0  0
    9.5522  -16.2293   27.8736 C   0  0  0  0  0  0  0  0  0  0  0  0
   10.1827  -16.0889   29.1056 C   0  0  0  0  0  0  0  0  0  0  0  0
   10.0692  -18.1002   24.8994 O   0  0  0  0  0  0  0  0  0  0  0  0
  2  1  1  0
  3  2  1  0
  3  4  2  0
  5  6  1  0
  7  6  1  6
  7  9  1  0
  8  7  1  0
  8  3  1  0
  9 18  1  0
  9 10  2  0
 12 11  1  0
 12 22  2  0
 13 12  1  0
 14 13  2  0
 14 15  1  0
 15 21  2  0
 16 15  1  0
 17 16  1  1
 18 17  1  0
 19 17  1  0
 20 19  2  0
 21 22  1  0
 23 19  1  0
M  END
$$$$
