KPI.pdb
     RDKit          3D

 25 25  0  0  1  0  0  0  0  0999 V2000
   24.0017  -21.8404  -17.8373 N   0  0  0  0  0  0  0  0  0  0  0  0
   24.7806  -20.7957  -17.1585 C   0  0  1  0  0  0  0  0  0  0  0  0
   23.8894  -19.5570  -16.9841 C   0  0  0  0  0  0  0  0  0  0  0  0
   23.7861  -18.9558  -18.3785 C   0  0  0  0  0  0  0  0  0  0  0  0
   22.9474  -17.6963  -18.3796 C   0  0  0  0  0  0  0  0  0  0  0  0
   22.7177  -17.1868  -19.7851 C   0  0  0  0  0  0  0  0  0  0  0  0
   21.8308  -16.0248  -19.6621 N   0  0  0  0  0  0  0  0  0  0  0  0
   25.1903  -21.2410  -15.8205 C   0  0  0  0  0  0  0  0  0  0  0  0
   24.4684  -22.0588  -15.1771 O   0  0  0  0  0  0  0  0  0  0  0  0
   26.3692  -20.7871  -15.2271 N   0  0  0  0  0  0  0  0  0  0  0  0
   27.3051  -19.8151  -15.7557 C   0  0  0  0  0  0  0  0  0  0  0  0
   28.6668  -20.3303  -15.3041 C   0  0  0  0  0  0  0  0  0  0  0  0
   28.3794  -21.1256  -14.0919 C   0  0  0  0  0  0  0  0  0  0  0  0
   26.9057  -21.2201  -13.9474 C   0  0  1  0  0  0  0  0  0  0  0  0
   26.3579  -20.3703  -12.8701 C   0  0  0  0  0  0  0  0  0  0  0  0
   26.1673  -19.1389  -13.1410 O   0  0  0  0  0  0  0  0  0  0  0  0
   22.1490  -21.4389   -9.3175 C   0  0  0  0  0  0  0  0  0  0  0  0
   23.6176  -21.3796   -9.6125 C   0  0  0  0  0  0  0  0  0  0  0  0
   24.0650  -20.1771  -10.3605 C   0  0  2  0  0  0  0  0  0  0  0  0
   23.4185  -20.1669  -11.7307 C   0  0  0  0  0  0  0  0  0  0  0  0
   25.5520  -20.0565  -10.5597 C   0  0  2  0  0  0  0  0  0  0  0  0
   26.0575  -20.9021  -11.5902 N   0  0  0  0  0  0  0  0  0  0  0  0
   26.3321  -20.1710   -9.3018 C   0  0  0  0  0  0  0  0  0  0  0  0
   26.1711  -19.3114   -8.4000 O   0  0  0  0  0  0  0  0  0  0  0  0
   27.2443  -21.1870   -9.0574 O   0  0  0  0  0  0  0  0  0  0  0  0
  2  1  1  1
  2  3  1  0
  2  8  1  0
  4  3  1  0
  5  6  1  0
  5  4  1  0
  6  7  1  0
  8  9  2  0
  8 10  1  0
 10 11  1  0
 11 12  1  0
 13 12  1  0
 14 10  1  0
 14 13  1  0
 14 15  1  1
 16 15  2  0
 18 17  1  0
 19 18  1  0
 19 21  1  0
 19 20  1  6
 21 22  1  6
 22 15  1  0
 23 25  1  0
 23 21  1  0
 24 23  2  0
M  END
$$$$
