KPI.pdb
     RDKit          3D

 25 25  0  0  1  0  0  0  0  0999 V2000
   22.3771  -35.8931  -15.7875 N   0  0  0  0  0  0  0  0  0  0  0  0
   23.2864  -34.7738  -15.5060 C   0  0  1  0  0  0  0  0  0  0  0  0
   22.4511  -33.4961  -15.3366 C   0  0  0  0  0  0  0  0  0  0  0  0
   21.9373  -33.1821  -16.7344 C   0  0  0  0  0  0  0  0  0  0  0  0
   20.4422  -33.3914  -16.8366 C   0  0  0  0  0  0  0  0  0  0  0  0
   19.9249  -33.0205  -18.2087 C   0  0  0  0  0  0  0  0  0  0  0  0
   18.4797  -33.2711  -18.1857 N   0  0  0  0  0  0  0  0  0  0  0  0
   24.0139  -34.9996  -14.2506 C   0  0  0  0  0  0  0  0  0  0  0  0
   23.5535  -35.8051  -13.3884 O   0  0  0  0  0  0  0  0  0  0  0  0
   25.2162  -34.3471  -13.9737 N   0  0  0  0  0  0  0  0  0  0  0  0
   25.8858  -33.3505  -14.7850 C   0  0  0  0  0  0  0  0  0  0  0  0
   27.3676  -33.6509  -14.5904 C   0  0  0  0  0  0  0  0  0  0  0  0
   27.4414  -34.3162  -13.2727 C   0  0  0  0  0  0  0  0  0  0  0  0
   26.0540  -34.5552  -12.8042 C   0  0  1  0  0  0  0  0  0  0  0  0
   25.6261  -33.6443  -11.7227 C   0  0  0  0  0  0  0  0  0  0  0  0
   25.0014  -32.5869  -12.0662 O   0  0  0  0  0  0  0  0  0  0  0  0
   22.2837  -34.8121   -8.0175 C   0  0  0  0  0  0  0  0  0  0  0  0
   23.2357  -34.1609   -8.9750 C   0  0  0  0  0  0  0  0  0  0  0  0
   24.4955  -33.6570   -8.3711 C   0  0  2  0  0  0  0  0  0  0  0  0
   24.1690  -32.6135   -7.3223 C   0  0  0  0  0  0  0  0  0  0  0  0
   25.4727  -33.0404   -9.3357 C   0  0  2  0  0  0  0  0  0  0  0  0
   25.8989  -33.9340  -10.3615 N   0  0  0  0  0  0  0  0  0  0  0  0
   26.6118  -32.3567   -8.6732 C   0  0  0  0  0  0  0  0  0  0  0  0
   27.6597  -33.0057   -8.4310 O   0  0  0  0  0  0  0  0  0  0  0  0
   26.5889  -31.0213   -8.2985 O   0  0  0  0  0  0  0  0  0  0  0  0
  2  1  1  1
  2  3  1  0
  2  8  1  0
  4  3  1  0
  5  6  1  0
  5  4  1  0
  6  7  1  0
  8  9  2  0
  8 10  1  0
 10 11  1  0
 11 12  1  0
 13 12  1  0
 14 10  1  0
 14 13  1  0
 14 15  1  1
 16 15  2  0
 18 17  1  0
 19 18  1  0
 19 21  1  0
 19 20  1  1
 21 22  1  6
 22 15  1  0
 23 25  1  0
 23 21  1  0
 24 23  2  0
M  END
$$$$
