KPI.pdb
     RDKit          3D

 25 25  0  0  1  0  0  0  0  0999 V2000
   24.3319  -20.3580  -17.6794 N   0  0  0  0  0  0  0  0  0  0  0  0
   25.2877  -19.5443  -16.9159 C   0  0  1  0  0  0  0  0  0  0  0  0
   24.6176  -18.2090  -16.5593 C   0  0  0  0  0  0  0  0  0  0  0  0
   23.1714  -18.3712  -17.0048 C   0  0  0  0  0  0  0  0  0  0  0  0
   22.2186  -18.3124  -15.8307 C   0  0  0  0  0  0  0  0  0  0  0  0
   20.7797  -18.2352  -16.2904 C   0  0  0  0  0  0  0  0  0  0  0  0
   19.9555  -18.3228  -15.0800 N   0  0  0  0  0  0  0  0  0  0  0  0
   25.6481  -20.2111  -15.6582 C   0  0  0  0  0  0  0  0  0  0  0  0
   24.8697  -21.0733  -15.1534 O   0  0  0  0  0  0  0  0  0  0  0  0
   26.8404  -19.9230  -14.9924 N   0  0  0  0  0  0  0  0  0  0  0  0
   27.8514  -18.9568  -15.3724 C   0  0  0  0  0  0  0  0  0  0  0  0
   29.1646  -19.6207  -14.9745 C   0  0  0  0  0  0  0  0  0  0  0  0
   28.7962  -20.5480  -13.8841 C   0  0  0  0  0  0  0  0  0  0  0  0
   27.3164  -20.5583  -13.7748 C   0  0  1  0  0  0  0  0  0  0  0  0
   26.8016  -19.8231  -12.6013 C   0  0  0  0  0  0  0  0  0  0  0  0
   26.4791  -18.6018  -12.7759 O   0  0  0  0  0  0  0  0  0  0  0  0
   21.7390  -19.9191  -11.0496 C   0  0  0  0  0  0  0  0  0  0  0  0
   23.0685  -19.7982  -10.3678 C   0  0  0  0  0  0  0  0  0  0  0  0
   24.2352  -20.2434  -11.1718 C   0  0  2  0  0  0  0  0  0  0  0  0
   24.0449  -21.6910  -11.5766 C   0  0  0  0  0  0  0  0  0  0  0  0
   25.5709  -20.1360  -10.4862 C   0  0  2  0  0  0  0  0  0  0  0  0
   26.6722  -20.4494  -11.3355 N   0  0  0  0  0  0  0  0  0  0  0  0
   25.6342  -20.8570   -9.1900 C   0  0  0  0  0  0  0  0  0  0  0  0
   25.7301  -22.1095   -9.1891 O   0  0  0  0  0  0  0  0  0  0  0  0
   25.5929  -20.2206   -7.9582 O   0  0  0  0  0  0  0  0  0  0  0  0
  2  1  1  1
  2  3  1  0
  2  8  1  0
  4  3  1  0
  5  6  1  0
  5  4  1  0
  6  7  1  0
  8  9  2  0
  8 10  1  0
 10 11  1  0
 11 12  1  0
 13 12  1  0
 14 10  1  0
 14 13  1  0
 14 15  1  1
 16 15  2  0
 18 17  1  0
 19 18  1  0
 19 21  1  0
 19 20  1  1
 21 22  1  6
 22 15  1  0
 23 25  1  0
 23 21  1  0
 24 23  2  0
M  END
$$$$
