KPI.pdb
     RDKit          3D

 25 25  0  0  1  0  0  0  0  0999 V2000
   24.5805  -21.3542  -16.2497 N   0  0  0  0  0  0  0  0  0  0  0  0
   25.4285  -20.3977  -15.5253 C   0  0  1  0  0  0  0  0  0  0  0  0
   24.5731  -19.1825  -15.1370 C   0  0  0  0  0  0  0  0  0  0  0  0
   23.3094  -19.3159  -15.9745 C   0  0  0  0  0  0  0  0  0  0  0  0
   22.0772  -18.9281  -15.1864 C   0  0  0  0  0  0  0  0  0  0  0  0
   20.8212  -19.0776  -16.0158 C   0  0  0  0  0  0  0  0  0  0  0  0
   19.7041  -18.7001  -15.1432 N   0  0  0  0  0  0  0  0  0  0  0  0
   25.9420  -20.9948  -14.2860 C   0  0  0  0  0  0  0  0  0  0  0  0
   25.2998  -21.9280  -13.7197 O   0  0  0  0  0  0  0  0  0  0  0  0
   27.1347  -20.5621  -13.7044 N   0  0  0  0  0  0  0  0  0  0  0  0
   28.0296  -19.5312  -14.1904 C   0  0  0  0  0  0  0  0  0  0  0  0
   29.4181  -20.0493  -13.8336 C   0  0  0  0  0  0  0  0  0  0  0  0
   29.1950  -20.9429  -12.6776 C   0  0  0  0  0  0  0  0  0  0  0  0
   27.7304  -21.0814  -12.4844 C   0  0  1  0  0  0  0  0  0  0  0  0
   27.2100  -20.3307  -11.3233 C   0  0  0  0  0  0  0  0  0  0  0  0
   26.8626  -19.1199  -11.5220 O   0  0  0  0  0  0  0  0  0  0  0  0
   22.7794  -21.2172   -9.4348 C   0  0  0  0  0  0  0  0  0  0  0  0
   24.1108  -20.5890   -9.7171 C   0  0  0  0  0  0  0  0  0  0  0  0
   25.1129  -20.7123   -8.6278 C   0  0  2  0  0  0  0  0  0  0  0  0
   24.6370  -19.9377   -7.4158 C   0  0  0  0  0  0  0  0  0  0  0  0
   26.4961  -20.2236   -8.9643 C   0  0  2  0  0  0  0  0  0  0  0  0
   27.1019  -20.9315  -10.0432 N   0  0  0  0  0  0  0  0  0  0  0  0
   27.3922  -20.1157   -7.7856 C   0  0  0  0  0  0  0  0  0  0  0  0
   27.2597  -19.1432   -7.0016 O   0  0  0  0  0  0  0  0  0  0  0  0
   28.3845  -21.0396   -7.4923 O   0  0  0  0  0  0  0  0  0  0  0  0
  2  1  1  1
  2  3  1  0
  2  8  1  0
  4  3  1  0
  5  6  1  0
  5  4  1  0
  6  7  1  0
  8  9  2  0
  8 10  1  0
 10 11  1  0
 11 12  1  0
 13 12  1  0
 14 10  1  0
 14 13  1  0
 14 15  1  1
 16 15  2  0
 18 17  1  0
 19 18  1  0
 19 21  1  0
 19 20  1  1
 21 22  1  6
 22 15  1  0
 23 25  1  0
 23 21  1  0
 24 23  2  0
M  END
$$$$
