KPI.pdb
     RDKit          3D

 25 25  0  0  1  0  0  0  0  0999 V2000
   26.8551  -23.6874  -18.0196 N   0  0  0  0  0  0  0  0  0  0  0  0
   26.8686  -22.2490  -17.7201 C   0  0  1  0  0  0  0  0  0  0  0  0
   25.4881  -21.6664  -18.0574 C   0  0  0  0  0  0  0  0  0  0  0  0
   24.5363  -22.8506  -17.9669 C   0  0  0  0  0  0  0  0  0  0  0  0
   23.4936  -22.6441  -16.8899 C   0  0  0  0  0  0  0  0  0  0  0  0
   22.5003  -23.7843  -16.8568 C   0  0  0  0  0  0  0  0  0  0  0  0
   21.5400  -23.4632  -15.7953 N   0  0  0  0  0  0  0  0  0  0  0  0
   27.1114  -22.0191  -16.2903 C   0  0  0  0  0  0  0  0  0  0  0  0
   27.3807  -22.9950  -15.5292 O   0  0  0  0  0  0  0  0  0  0  0  0
   27.0569  -20.7399  -15.7350 N   0  0  0  0  0  0  0  0  0  0  0  0
   26.6739  -19.5077  -16.3946 C   0  0  0  0  0  0  0  0  0  0  0  0
   27.5869  -18.4571  -15.7731 C   0  0  0  0  0  0  0  0  0  0  0  0
   27.9313  -19.0041  -14.4440 C   0  0  0  0  0  0  0  0  0  0  0  0
   27.3946  -20.3853  -14.3663 C   0  0  1  0  0  0  0  0  0  0  0  0
   26.1943  -20.5099  -13.5141 C   0  0  0  0  0  0  0  0  0  0  0  0
   25.1032  -20.8322  -14.0900 O   0  0  0  0  0  0  0  0  0  0  0  0
   24.8236  -21.1169   -7.4301 C   0  0  0  0  0  0  0  0  0  0  0  0
   24.4611  -21.1202   -8.8846 C   0  0  0  0  0  0  0  0  0  0  0  0
   25.5591  -20.7449   -9.8116 C   0  0  2  0  0  0  0  0  0  0  0  0
   26.0861  -19.3742   -9.4392 C   0  0  0  0  0  0  0  0  0  0  0  0
   25.1888  -20.7077  -11.2700 C   0  0  2  0  0  0  0  0  0  0  0  0
   26.2539  -20.2806  -12.1159 N   0  0  0  0  0  0  0  0  0  0  0  0
   23.9236  -19.9810  -11.5444 C   0  0  0  0  0  0  0  0  0  0  0  0
   23.9742  -18.7904  -11.9419 O   0  0  0  0  0  0  0  0  0  0  0  0
   22.6670  -20.5465  -11.3856 O   0  0  0  0  0  0  0  0  0  0  0  0
  2  1  1  1
  2  3  1  0
  2  8  1  0
  4  3  1  0
  5  6  1  0
  5  4  1  0
  6  7  1  0
  8  9  2  0
  8 10  1  0
 10 11  1  0
 11 12  1  0
 13 12  1  0
 14 10  1  0
 14 13  1  0
 14 15  1  1
 16 15  2  0
 18 17  1  0
 19 18  1  0
 19 21  1  0
 19 20  1  1
 21 22  1  6
 22 15  1  0
 23 25  1  0
 23 21  1  0
 24 23  2  0
M  END
$$$$
