KPI.pdb
     RDKit          3D

 25 25  0  0  1  0  0  0  0  0999 V2000
   23.8601  -20.5468  -17.7580 N   0  0  0  0  0  0  0  0  0  0  0  0
   24.7527  -19.7506  -16.9047 C   0  0  1  0  0  0  0  0  0  0  0  0
   23.9985  -18.4932  -16.4473 C   0  0  0  0  0  0  0  0  0  0  0  0
   24.1010  -17.5320  -17.6229 C   0  0  0  0  0  0  0  0  0  0  0  0
   23.0932  -17.8644  -18.7016 C   0  0  0  0  0  0  0  0  0  0  0  0
   23.1593  -16.8744  -19.8433 C   0  0  0  0  0  0  0  0  0  0  0  0
   22.1006  -17.2586  -20.7833 N   0  0  0  0  0  0  0  0  0  0  0  0
   25.1302  -20.5049  -15.7028 C   0  0  0  0  0  0  0  0  0  0  0  0
   24.3584  -21.4009  -15.2495 O   0  0  0  0  0  0  0  0  0  0  0  0
   26.3320  -20.2643  -15.0350 N   0  0  0  0  0  0  0  0  0  0  0  0
   27.3367  -19.2711  -15.3578 C   0  0  0  0  0  0  0  0  0  0  0  0
   28.6560  -19.9602  -15.0288 C   0  0  0  0  0  0  0  0  0  0  0  0
   28.3041  -20.9656  -14.0041 C   0  0  0  0  0  0  0  0  0  0  0  0
   26.8262  -20.9864  -13.8743 C   0  0  1  0  0  0  0  0  0  0  0  0
   26.3281  -20.3401  -12.6427 C   0  0  0  0  0  0  0  0  0  0  0  0
   26.2718  -19.0661  -12.6365 O   0  0  0  0  0  0  0  0  0  0  0  0
   21.6194  -20.7755  -11.2271 C   0  0  0  0  0  0  0  0  0  0  0  0
   23.0674  -20.4149  -11.3702 C   0  0  0  0  0  0  0  0  0  0  0  0
   23.9123  -20.7045  -10.1836 C   0  0  2  0  0  0  0  0  0  0  0  0
   23.4503  -19.8553   -9.0171 C   0  0  0  0  0  0  0  0  0  0  0  0
   25.3866  -20.4618  -10.3657 C   0  0  2  0  0  0  0  0  0  0  0  0
   25.9303  -21.1044  -11.5163 N   0  0  0  0  0  0  0  0  0  0  0  0
   26.1878  -20.7205   -9.1429 C   0  0  0  0  0  0  0  0  0  0  0  0
   26.8161  -21.8033   -9.0392 O   0  0  0  0  0  0  0  0  0  0  0  0
   26.2863  -19.8237   -8.0893 O   0  0  0  0  0  0  0  0  0  0  0  0
  2  1  1  6
  2  3  1  0
  2  8  1  0
  4  3  1  0
  5  6  1  0
  5  4  1  0
  6  7  1  0
  8  9  2  0
  8 10  1  0
 10 11  1  0
 11 12  1  0
 13 12  1  0
 14 10  1  0
 14 13  1  0
 14 15  1  1
 16 15  2  0
 18 17  1  0
 19 18  1  0
 19 21  1  0
 19 20  1  1
 21 22  1  6
 22 15  1  0
 23 25  1  0
 23 21  1  0
 24 23  2  0
M  END
$$$$
