KPI.pdb
     RDKit          3D

 25 25  0  0  1  0  0  0  0  0999 V2000
   24.1654  -22.2282  -12.4915 N   0  0  0  0  0  0  0  0  0  0  0  0
   25.2120  -21.2131  -12.3101 C   0  0  1  0  0  0  0  0  0  0  0  0
   24.5411  -19.8383  -12.1731 C   0  0  0  0  0  0  0  0  0  0  0  0
   24.6666  -19.2079  -13.5527 C   0  0  0  0  0  0  0  0  0  0  0  0
   23.4247  -19.4416  -14.3852 C   0  0  0  0  0  0  0  0  0  0  0  0
   23.5770  -18.8695  -15.7771 C   0  0  0  0  0  0  0  0  0  0  0  0
   22.3095  -19.1273  -16.4692 N   0  0  0  0  0  0  0  0  0  0  0  0
   25.9693  -21.4635  -11.0772 C   0  0  0  0  0  0  0  0  0  0  0  0
   25.4174  -22.0595  -10.1055 O   0  0  0  0  0  0  0  0  0  0  0  0
   27.2990  -21.0620  -10.9407 N   0  0  0  0  0  0  0  0  0  0  0  0
   28.0671  -20.2320  -11.8468 C   0  0  0  0  0  0  0  0  0  0  0  0
   29.4717  -20.8212  -11.7862 C   0  0  0  0  0  0  0  0  0  0  0  0
   29.5456  -21.4687  -10.4597 C   0  0  0  0  0  0  0  0  0  0  0  0
   28.1933  -21.4174   -9.8512 C   0  0  1  0  0  0  0  0  0  0  0  0
   28.0670  -20.4235   -8.7654 C   0  0  0  0  0  0  0  0  0  0  0  0
   27.4521  -19.3400   -9.0376 O   0  0  0  0  0  0  0  0  0  0  0  0
   27.4597  -20.7416   -2.6399 C   0  0  0  0  0  0  0  0  0  0  0  0
   27.5333  -19.9528   -3.9124 C   0  0  0  0  0  0  0  0  0  0  0  0
   28.0416  -20.6992   -5.0916 C   0  0  2  0  0  0  0  0  0  0  0  0
   29.4070  -21.2737   -4.7735 C   0  0  0  0  0  0  0  0  0  0  0  0
   28.1713  -19.8958   -6.3578 C   0  0  2  0  0  0  0  0  0  0  0  0
   28.6067  -20.6650   -7.4764 N   0  0  0  0  0  0  0  0  0  0  0  0
   28.9554  -18.6462   -6.1921 C   0  0  0  0  0  0  0  0  0  0  0  0
   30.1559  -18.6221   -6.5609 O   0  0  0  0  0  0  0  0  0  0  0  0
   28.4339  -17.4831   -5.6449 O   0  0  0  0  0  0  0  0  0  0  0  0
  2  1  1  1
  2  3  1  0
  2  8  1  0
  4  3  1  0
  5  6  1  0
  5  4  1  0
  6  7  1  0
  8  9  2  0
  8 10  1  0
 10 11  1  0
 11 12  1  0
 13 12  1  0
 14 10  1  0
 14 13  1  0
 14 15  1  1
 16 15  2  0
 18 17  1  0
 19 18  1  0
 19 21  1  0
 19 20  1  1
 21 22  1  6
 22 15  1  0
 23 25  1  0
 23 21  1  0
 24 23  2  0
M  END
$$$$
