KPI.pdb
     RDKit          3D

 25 25  0  0  1  0  0  0  0  0999 V2000
   20.8902  -12.6410  -19.2741 N   0  0  0  0  0  0  0  0  0  0  0  0
   20.2757  -11.3099  -19.1768 C   0  0  1  0  0  0  0  0  0  0  0  0
   18.9791  -11.4284  -18.3619 C   0  0  0  0  0  0  0  0  0  0  0  0
   18.0250  -12.1983  -19.2637 C   0  0  0  0  0  0  0  0  0  0  0  0
   17.3806  -13.3553  -18.5315 C   0  0  0  0  0  0  0  0  0  0  0  0
   16.3658  -14.0632  -19.4015 C   0  0  0  0  0  0  0  0  0  0  0  0
   15.7086  -15.0552  -18.5436 N   0  0  0  0  0  0  0  0  0  0  0  0
   21.1633  -10.3794  -18.4679 C   0  0  0  0  0  0  0  0  0  0  0  0
   22.0114  -10.8221  -17.6378 O   0  0  0  0  0  0  0  0  0  0  0  0
   21.1035   -9.0020  -18.6847 N   0  0  0  0  0  0  0  0  0  0  0  0
   20.1722   -8.2820  -19.5298 C   0  0  0  0  0  0  0  0  0  0  0  0
   21.0058   -7.1476  -20.1148 C   0  0  0  0  0  0  0  0  0  0  0  0
   22.0833   -6.9311  -19.1266 C   0  0  0  0  0  0  0  0  0  0  0  0
   21.9893   -8.0048  -18.1068 C   0  0  1  0  0  0  0  0  0  0  0  0
   21.4416   -7.5495  -16.8125 C   0  0  0  0  0  0  0  0  0  0  0  0
   20.1979   -7.7429  -16.6070 O   0  0  0  0  0  0  0  0  0  0  0  0
   22.9195  -10.1759  -13.0496 C   0  0  0  0  0  0  0  0  0  0  0  0
   22.2592   -9.1853  -13.9606 C   0  0  0  0  0  0  0  0  0  0  0  0
   22.3737   -7.7652  -13.5413 C   0  0  2  0  0  0  0  0  0  0  0  0
   21.6743   -7.5750  -12.2108 C   0  0  0  0  0  0  0  0  0  0  0  0
   21.8002   -6.7595  -14.5031 C   0  0  2  0  0  0  0  0  0  0  0  0
   22.2641   -6.9243  -15.8410 N   0  0  0  0  0  0  0  0  0  0  0  0
   21.9149   -5.3554  -14.0346 C   0  0  0  0  0  0  0  0  0  0  0  0
   20.9196   -4.8031  -13.5032 O   0  0  0  0  0  0  0  0  0  0  0  0
   23.0744   -4.6029  -14.1502 O   0  0  0  0  0  0  0  0  0  0  0  0
  2  1  1  1
  2  3  1  0
  2  8  1  0
  4  3  1  0
  5  6  1  0
  5  4  1  0
  6  7  1  0
  8  9  2  0
  8 10  1  0
 10 11  1  0
 11 12  1  0
 13 12  1  0
 14 10  1  0
 14 13  1  0
 14 15  1  1
 16 15  2  0
 18 17  1  0
 19 18  1  0
 19 21  1  0
 19 20  1  1
 21 22  1  6
 22 15  1  0
 23 25  1  0
 23 21  1  0
 24 23  2  0
M  END
$$$$
