KPI.pdb
     RDKit          3D

 25 25  0  0  1  0  0  0  0  0999 V2000
   25.7443  -24.5227  -16.2662 N   0  0  0  0  0  0  0  0  0  0  0  0
   25.6247  -23.0708  -16.0755 C   0  0  1  0  0  0  0  0  0  0  0  0
   24.1337  -22.7057  -16.0233 C   0  0  0  0  0  0  0  0  0  0  0  0
   23.6789  -22.7294  -17.4755 C   0  0  0  0  0  0  0  0  0  0  0  0
   22.4460  -23.5876  -17.6575 C   0  0  0  0  0  0  0  0  0  0  0  0
   22.0209  -23.6434  -19.1080 C   0  0  0  0  0  0  0  0  0  0  0  0
   20.9202  -24.6106  -19.1777 N   0  0  0  0  0  0  0  0  0  0  0  0
   26.2274  -22.6638  -14.7999 C   0  0  0  0  0  0  0  0  0  0  0  0
   26.4765  -23.5320  -13.9121 O   0  0  0  0  0  0  0  0  0  0  0  0
   26.5420  -21.3308  -14.5312 N   0  0  0  0  0  0  0  0  0  0  0  0
   26.2901  -20.1783  -15.3728 C   0  0  0  0  0  0  0  0  0  0  0  0
   27.5002  -19.2806  -15.1415 C   0  0  0  0  0  0  0  0  0  0  0  0
   27.9858  -19.6519  -13.7958 C   0  0  0  0  0  0  0  0  0  0  0  0
   27.2097  -20.8317  -13.3404 C   0  0  1  0  0  0  0  0  0  0  0  0
   26.2032  -20.5182  -12.3055 C   0  0  0  0  0  0  0  0  0  0  0  0
   24.9767  -20.6551  -12.6268 O   0  0  0  0  0  0  0  0  0  0  0  0
   26.4851  -20.3031   -6.0455 C   0  0  0  0  0  0  0  0  0  0  0  0
   25.7902  -20.5972   -7.3408 C   0  0  0  0  0  0  0  0  0  0  0  0
   26.5236  -20.1774   -8.5622 C   0  0  2  0  0  0  0  0  0  0  0  0
   26.7632  -18.6821   -8.5168 C   0  0  0  0  0  0  0  0  0  0  0  0
   25.8381  -20.4876   -9.8658 C   0  0  2  0  0  0  0  0  0  0  0  0
   26.5853  -20.0836  -11.0108 N   0  0  0  0  0  0  0  0  0  0  0  0
   24.4277  -20.0276   -9.9207 C   0  0  0  0  0  0  0  0  0  0  0  0
   23.5727  -20.5827   -9.1867 O   0  0  0  0  0  0  0  0  0  0  0  0
   23.9887  -19.0044  -10.7481 O   0  0  0  0  0  0  0  0  0  0  0  0
  2  1  1  1
  2  3  1  0
  2  8  1  0
  4  3  1  0
  5  6  1  0
  5  4  1  0
  6  7  1  0
  8  9  2  0
  8 10  1  0
 10 11  1  0
 11 12  1  0
 13 12  1  0
 14 10  1  0
 14 13  1  0
 14 15  1  1
 16 15  2  0
 18 17  1  0
 19 18  1  0
 19 21  1  0
 19 20  1  1
 21 22  1  6
 22 15  1  0
 23 25  1  0
 23 21  1  0
 24 23  2  0
M  END
$$$$
