KPI.pdb
     RDKit          3D

 25 25  0  0  1  0  0  0  0  0999 V2000
   23.7442  -22.0164  -12.6844 N   0  0  0  0  0  0  0  0  0  0  0  0
   24.8747  -21.1009  -12.4778 C   0  0  1  0  0  0  0  0  0  0  0  0
   24.3270  -19.6737  -12.3289 C   0  0  0  0  0  0  0  0  0  0  0  0
   24.5742  -19.0219  -13.6819 C   0  0  0  0  0  0  0  0  0  0  0  0
   23.4869  -19.3725  -14.6742 C   0  0  0  0  0  0  0  0  0  0  0  0
   23.6962  -18.6666  -15.9954 C   0  0  0  0  0  0  0  0  0  0  0  0
   22.7033  -19.2226  -16.9212 N   0  0  0  0  0  0  0  0  0  0  0  0
   25.5920  -21.4335  -11.2404 C   0  0  0  0  0  0  0  0  0  0  0  0
   25.0010  -22.0681  -10.3173 O   0  0  0  0  0  0  0  0  0  0  0  0
   26.9254  -21.0696  -11.0469 N   0  0  0  0  0  0  0  0  0  0  0  0
   27.7406  -20.2234  -11.8951 C   0  0  0  0  0  0  0  0  0  0  0  0
   29.1289  -20.8480  -11.8147 C   0  0  0  0  0  0  0  0  0  0  0  0
   29.1458  -21.5485  -10.5134 C   0  0  0  0  0  0  0  0  0  0  0  0
   27.7764  -21.4887   -9.9454 C   0  0  1  0  0  0  0  0  0  0  0  0
   27.6382  -20.5354   -8.8253 C   0  0  0  0  0  0  0  0  0  0  0  0
   27.0140  -19.4485   -9.0604 O   0  0  0  0  0  0  0  0  0  0  0  0
   27.4806  -20.5203   -2.6309 C   0  0  0  0  0  0  0  0  0  0  0  0
   27.4427  -19.8302   -3.9611 C   0  0  0  0  0  0  0  0  0  0  0  0
   27.8306  -20.6713   -5.1221 C   0  0  2  0  0  0  0  0  0  0  0  0
   29.1871  -21.2939   -4.8621 C   0  0  0  0  0  0  0  0  0  0  0  0
   27.9064  -19.9536   -6.4429 C   0  0  2  0  0  0  0  0  0  0  0  0
   28.1769  -20.8177   -7.5442 N   0  0  0  0  0  0  0  0  0  0  0  0
   28.7973  -18.7661   -6.4247 C   0  0  0  0  0  0  0  0  0  0  0  0
   28.4432  -17.7437   -5.7864 O   0  0  0  0  0  0  0  0  0  0  0  0
   30.0181  -18.7159   -7.0813 O   0  0  0  0  0  0  0  0  0  0  0  0
  2  1  1  1
  2  3  1  0
  2  8  1  0
  4  3  1  0
  5  6  1  0
  5  4  1  0
  6  7  1  0
  8  9  2  0
  8 10  1  0
 10 11  1  0
 11 12  1  0
 13 12  1  0
 14 10  1  0
 14 13  1  0
 14 15  1  1
 16 15  2  0
 18 17  1  0
 19 18  1  0
 19 21  1  0
 19 20  1  1
 21 22  1  6
 22 15  1  0
 23 25  1  0
 23 21  1  0
 24 23  2  0
M  END
$$$$
