KPI.pdb
     RDKit          3D

 25 25  0  0  1  0  0  0  0  0999 V2000
   24.1506  -22.1341  -12.7377 N   0  0  0  0  0  0  0  0  0  0  0  0
   25.2760  -21.2095  -12.5450 C   0  0  1  0  0  0  0  0  0  0  0  0
   24.7183  -19.7875  -12.3837 C   0  0  0  0  0  0  0  0  0  0  0  0
   25.1033  -19.0730  -13.6712 C   0  0  0  0  0  0  0  0  0  0  0  0
   24.4850  -19.7380  -14.8816 C   0  0  0  0  0  0  0  0  0  0  0  0
   24.8304  -18.9984  -16.1550 C   0  0  0  0  0  0  0  0  0  0  0  0
   24.2495  -19.7772  -17.2541 N   0  0  0  0  0  0  0  0  0  0  0  0
   26.0146  -21.5395  -11.3196 C   0  0  0  0  0  0  0  0  0  0  0  0
   25.4502  -22.2020  -10.3995 O   0  0  0  0  0  0  0  0  0  0  0  0
   27.3398  -21.1428  -11.1343 N   0  0  0  0  0  0  0  0  0  0  0  0
   28.1323  -20.2863  -11.9936 C   0  0  0  0  0  0  0  0  0  0  0  0
   29.5350  -20.8775  -11.9119 C   0  0  0  0  0  0  0  0  0  0  0  0
   29.5725  -21.5646  -10.6038 C   0  0  0  0  0  0  0  0  0  0  0  0
   28.2038  -21.5310  -10.0317 C   0  0  1  0  0  0  0  0  0  0  0  0
   28.0471  -20.5701   -8.9205 C   0  0  0  0  0  0  0  0  0  0  0  0
   27.5886  -19.4160   -9.2101 O   0  0  0  0  0  0  0  0  0  0  0  0
   26.4742  -22.3046   -3.9081 C   0  0  0  0  0  0  0  0  0  0  0  0
   26.6289  -21.4515   -5.1309 C   0  0  0  0  0  0  0  0  0  0  0  0
   27.8903  -20.6708   -5.2029 C   0  0  2  0  0  0  0  0  0  0  0  0
   27.8773  -19.5937   -4.1375 C   0  0  0  0  0  0  0  0  0  0  0  0
   28.1603  -19.9999   -6.5229 C   0  0  2  0  0  0  0  0  0  0  0  0
   28.3920  -20.9172   -7.5894 N   0  0  0  0  0  0  0  0  0  0  0  0
   29.2000  -18.9426   -6.4515 C   0  0  0  0  0  0  0  0  0  0  0  0
   28.8620  -17.7693   -6.1563 O   0  0  0  0  0  0  0  0  0  0  0  0
   30.5455  -19.1755   -6.6955 O   0  0  0  0  0  0  0  0  0  0  0  0
  2  1  1  1
  2  3  1  0
  2  8  1  0
  4  3  1  0
  5  6  1  0
  5  4  1  0
  6  7  1  0
  8  9  2  0
  8 10  1  0
 10 11  1  0
 11 12  1  0
 13 12  1  0
 14 10  1  0
 14 13  1  0
 14 15  1  1
 16 15  2  0
 18 17  1  0
 19 18  1  0
 19 21  1  0
 19 20  1  1
 21 22  1  6
 22 15  1  0
 23 25  1  0
 23 21  1  0
 24 23  2  0
M  END
$$$$
