KPI.pdb
     RDKit          3D

 25 25  0  0  1  0  0  0  0  0999 V2000
   17.7846  -15.0977  -18.3105 N   0  0  0  0  0  0  0  0  0  0  0  0
   17.2577  -13.8044  -17.8541 C   0  0  1  0  0  0  0  0  0  0  0  0
   16.7734  -13.9579  -16.4046 C   0  0  0  0  0  0  0  0  0  0  0  0
   15.5885  -14.9091  -16.4917 C   0  0  0  0  0  0  0  0  0  0  0  0
   15.0063  -15.1976  -15.1251 C   0  0  0  0  0  0  0  0  0  0  0  0
   13.8226  -16.1348  -15.2156 C   0  0  0  0  0  0  0  0  0  0  0  0
   13.4245  -16.4300  -13.8349 N   0  0  0  0  0  0  0  0  0  0  0  0
   18.3115  -12.7818  -17.8653 C   0  0  0  0  0  0  0  0  0  0  0  0
   19.5292  -13.1276  -17.8259 O   0  0  0  0  0  0  0  0  0  0  0  0
   18.0097  -11.4204  -17.9215 N   0  0  0  0  0  0  0  0  0  0  0  0
   16.6966  -10.8074  -17.9221 C   0  0  0  0  0  0  0  0  0  0  0  0
   16.8497   -9.6077  -18.8500 C   0  0  0  0  0  0  0  0  0  0  0  0
   18.2878   -9.2721  -18.7886 C   0  0  0  0  0  0  0  0  0  0  0  0
   18.9706  -10.3331  -18.0078 C   0  0  1  0  0  0  0  0  0  0  0  0
   19.3618   -9.9115  -16.6470 C   0  0  0  0  0  0  0  0  0  0  0  0
   18.5899  -10.2485  -15.6895 O   0  0  0  0  0  0  0  0  0  0  0  0
   23.7228  -11.6902  -14.8994 C   0  0  0  0  0  0  0  0  0  0  0  0
   22.3811  -11.0521  -15.0991 C   0  0  0  0  0  0  0  0  0  0  0  0
   22.3150   -9.6034  -14.7788 C   0  0  2  0  0  0  0  0  0  0  0  0
   22.5969   -9.4004  -13.3041 C   0  0  0  0  0  0  0  0  0  0  0  0
   21.0029   -8.9331  -15.0863 C   0  0  2  0  0  0  0  0  0  0  0  0
   20.5449   -9.1643  -16.4165 N   0  0  0  0  0  0  0  0  0  0  0  0
   20.9689   -7.4950  -14.7193 C   0  0  0  0  0  0  0  0  0  0  0  0
   21.3625   -6.6403  -15.5515 O   0  0  0  0  0  0  0  0  0  0  0  0
   20.5213   -7.0295  -13.4916 O   0  0  0  0  0  0  0  0  0  0  0  0
  2  1  1  1
  2  3  1  0
  2  8  1  0
  4  3  1  0
  5  6  1  0
  5  4  1  0
  6  7  1  0
  8  9  2  0
  8 10  1  0
 10 11  1  0
 11 12  1  0
 13 12  1  0
 14 10  1  0
 14 13  1  0
 14 15  1  1
 16 15  2  0
 18 17  1  0
 19 18  1  0
 19 21  1  0
 19 20  1  1
 21 22  1  6
 22 15  1  0
 23 25  1  0
 23 21  1  0
 24 23  2  0
M  END
$$$$
