KPI.pdb
     RDKit          3D

 25 25  0  0  1  0  0  0  0  0999 V2000
   24.7722  -22.2367  -12.5570 N   0  0  0  0  0  0  0  0  0  0  0  0
   25.7938  -21.2273  -12.2469 C   0  0  1  0  0  0  0  0  0  0  0  0
   25.0957  -19.8769  -12.0268 C   0  0  0  0  0  0  0  0  0  0  0  0
   25.3585  -19.0932  -13.3047 C   0  0  0  0  0  0  0  0  0  0  0  0
   24.7398  -19.7698  -14.5084 C   0  0  0  0  0  0  0  0  0  0  0  0
   24.9618  -18.9648  -15.7695 C   0  0  0  0  0  0  0  0  0  0  0  0
   24.3859  -19.7504  -16.8664 N   0  0  0  0  0  0  0  0  0  0  0  0
   26.5017  -21.5696  -11.0069 C   0  0  0  0  0  0  0  0  0  0  0  0
   25.9086  -22.2250  -10.0998 O   0  0  0  0  0  0  0  0  0  0  0  0
   27.8284  -21.1925  -10.7934 N   0  0  0  0  0  0  0  0  0  0  0  0
   28.6701  -20.3967  -11.6642 C   0  0  0  0  0  0  0  0  0  0  0  0
   30.0550  -21.0130  -11.5032 C   0  0  0  0  0  0  0  0  0  0  0  0
   30.0308  -21.6350  -10.1626 C   0  0  0  0  0  0  0  0  0  0  0  0
   28.6441  -21.5439   -9.6427 C   0  0  1  0  0  0  0  0  0  0  0  0
   28.4707  -20.5261   -8.5860 C   0  0  0  0  0  0  0  0  0  0  0  0
   28.0278  -19.3853   -8.9446 O   0  0  0  0  0  0  0  0  0  0  0  0
   25.2418  -21.5186   -4.7663 C   0  0  0  0  0  0  0  0  0  0  0  0
   26.1437  -20.8154   -5.7353 C   0  0  0  0  0  0  0  0  0  0  0  0
   27.4719  -20.4264   -5.1963 C   0  0  2  0  0  0  0  0  0  0  0  0
   27.2903  -19.3770   -4.1188 C   0  0  0  0  0  0  0  0  0  0  0  0
   28.4429  -19.8764   -6.2063 C   0  0  2  0  0  0  0  0  0  0  0  0
   28.7838  -20.8065   -7.2316 N   0  0  0  0  0  0  0  0  0  0  0  0
   29.6397  -19.2432   -5.5976 C   0  0  0  0  0  0  0  0  0  0  0  0
   30.6627  -19.9413   -5.3871 O   0  0  0  0  0  0  0  0  0  0  0  0
   29.6981  -17.9041   -5.2405 O   0  0  0  0  0  0  0  0  0  0  0  0
  2  1  1  1
  2  3  1  0
  2  8  1  0
  4  3  1  0
  5  6  1  0
  5  4  1  0
  6  7  1  0
  8  9  2  0
  8 10  1  0
 10 11  1  0
 11 12  1  0
 13 12  1  0
 14 10  1  0
 14 13  1  0
 14 15  1  1
 16 15  2  0
 18 17  1  0
 19 18  1  0
 19 21  1  0
 19 20  1  1
 21 22  1  6
 22 15  1  0
 23 25  1  0
 23 21  1  0
 24 23  2  0
M  END
$$$$
