DRH.pdb
     RDKit          3D

 30 30  0  0  1  0  0  0  0  0999 V2000
   45.3172   -9.9112   -3.9930 N   0  0  0  0  0  0  0  0  0  0  0  0
   43.9555  -10.1478   -4.4055 C   0  0  1  0  0  0  0  0  0  0  0  0
   43.0713   -9.1122   -3.7408 C   0  0  0  0  0  0  0  0  0  0  0  0
   42.9227   -9.5134   -2.3186 C   0  0  0  0  0  0  0  0  0  0  0  0
   43.8944   -9.4300   -1.5380 O   0  0  0  0  0  0  0  0  0  0  0  0
   43.8703  -10.0877   -5.8890 C   0  0  0  0  0  0  0  0  0  0  0  0
   44.5308   -9.2042   -6.5270 O   0  0  0  0  0  0  0  0  0  0  0  0
   41.7141   -9.9754   -1.8673 O   0  0  0  0  0  0  0  0  0  0  0  0
   44.8900  -13.1972  -11.9916 N   0  0  0  0  0  0  0  0  0  0  0  0
   45.2222  -14.3721  -11.2435 C   0  0  0  0  0  0  0  0  0  0  0  0
   46.2819  -15.0311  -11.4758 N   0  0  0  0  0  0  0  0  0  0  0  0
   44.3401  -14.8085  -10.2151 N   0  0  0  0  0  0  0  0  0  0  0  0
   43.1761  -14.0227   -9.8976 C   0  0  0  0  0  0  0  0  0  0  0  0
   43.5336  -12.8577   -8.9944 C   0  0  0  0  0  0  0  0  0  0  0  0
   42.2692  -12.1573   -8.6313 C   0  0  0  0  0  0  0  0  0  0  0  0
   42.4610  -10.8748   -7.8439 C   0  0  2  0  0  0  0  0  0  0  0  0
   43.0557  -11.0150   -6.5651 N   0  0  0  0  0  0  0  0  0  0  0  0
   41.2051  -10.1194   -7.8540 C   0  0  0  0  0  0  0  0  0  0  0  0
   40.1845  -10.5305   -7.1820 O   0  0  0  0  0  0  0  0  0  0  0  0
   46.5333  -15.9073  -11.0096 N   0  0  0  0  0  0  0  0  0  0  0  0
   41.0450   -8.9268   -8.5817 C   0  0  2  0  0  0  0  0  0  0  0  0
   39.7097   -8.2982   -8.6564 C   0  0  0  0  0  0  0  0  0  0  0  0
   39.6605   -7.2280   -7.6207 C   0  0  0  0  0  0  0  0  0  0  0  0
   38.4833   -6.3702   -7.6842 C   0  0  0  0  0  0  0  0  0  0  0  0
   37.1685   -6.7902   -7.4857 N   0  0  0  0  0  0  0  0  0  0  0  0
   36.3617   -5.7319   -7.6202 C   0  0  0  0  0  0  0  0  0  0  0  0
   37.1010   -4.6573   -7.8951 N   0  0  0  0  0  0  0  0  0  0  0  0
   38.3824   -5.0643   -7.9295 C   0  0  0  0  0  0  0  0  0  0  0  0
   39.6068   -7.6911  -10.0087 O   0  0  0  0  0  0  0  0  0  0  0  0
   40.6553   -7.5784  -10.7029 O   0  0  0  0  0  0  0  0  0  0  0  0
  2  3  1  0
  2  1  1  6
  4  5  2  0
  4  3  1  0
  6  2  1  0
  7  6  2  0
  8  4  1  0
 10  9  1  0
 10 11  2  0
 12 10  1  0
 13 12  1  0
 13 14  1  0
 14 15  1  0
 16 15  1  1
 16 17  1  0
 17  6  1  0
 18 16  1  0
 18 19  2  0
 20 18  1  0
 21 20  1  0
 21 22  1  1
 23 22  1  0
 24 23  2  0
 25 24  1  0
 25 26  1  0
 26 27  2  0
 27 23  1  0
 28 21  1  0
 29 28  2  0
 30 28  1  0
M  END
$$$$
