DRH.pdb
     RDKit          3D

 30 30  0  0  1  0  0  0  0  0999 V2000
   24.7557  -18.7429  -16.5003 N   0  0  0  0  0  0  0  0  0  0  0  0
   24.5007  -19.9896  -17.1793 C   0  0  1  0  0  0  0  0  0  0  0  0
   25.8284  -20.5662  -17.6275 C   0  0  0  0  0  0  0  0  0  0  0  0
   26.6796  -20.6935  -16.4172 C   0  0  0  0  0  0  0  0  0  0  0  0
   26.2765  -20.2586  -15.3177 O   0  0  0  0  0  0  0  0  0  0  0  0
   23.7700  -20.9093  -16.2673 C   0  0  0  0  0  0  0  0  0  0  0  0
   23.4669  -22.0833  -16.6597 O   0  0  0  0  0  0  0  0  0  0  0  0
   27.9094  -21.2905  -16.5130 O   0  0  0  0  0  0  0  0  0  0  0  0
   26.5523  -21.0696   -8.7695 N   0  0  0  0  0  0  0  0  0  0  0  0
   26.8215  -21.2555  -10.1635 C   0  0  0  0  0  0  0  0  0  0  0  0
   27.9558  -21.6491  -10.5753 N   0  0  0  0  0  0  0  0  0  0  0  0
   25.7894  -20.9914  -11.1075 N   0  0  0  0  0  0  0  0  0  0  0  0
   24.5168  -20.4984  -10.6485 C   0  0  0  0  0  0  0  0  0  0  0  0
   23.6064  -20.1673  -11.8156 C   0  0  0  0  0  0  0  0  0  0  0  0
   23.4971  -21.3848  -12.6684 C   0  0  0  0  0  0  0  0  0  0  0  0
   22.7395  -21.1807  -13.9669 C   0  0  2  0  0  0  0  0  0  0  0  0
   23.4244  -20.4621  -14.9784 N   0  0  0  0  0  0  0  0  0  0  0  0
   21.3988  -20.6749  -13.6596 C   0  0  0  0  0  0  0  0  0  0  0  0
   21.2261  -19.4531  -13.2855 O   0  0  0  0  0  0  0  0  0  0  0  0
   28.2306  -21.6953  -11.5605 N   0  0  0  0  0  0  0  0  0  0  0  0
   20.2472  -21.4764  -13.7541 C   0  0  1  0  0  0  0  0  0  0  0  0
   18.9434  -20.9227  -13.3334 C   0  0  0  0  0  0  0  0  0  0  0  0
   18.4192  -20.1046  -14.4631 C   0  0  0  0  0  0  0  0  0  0  0  0
   18.4653  -20.7598  -15.7647 C   0  0  0  0  0  0  0  0  0  0  0  0
   19.1629  -21.9326  -16.0523 N   0  0  0  0  0  0  0  0  0  0  0  0
   18.9734  -22.2317  -17.3421 C   0  0  0  0  0  0  0  0  0  0  0  0
   18.1878  -21.3044  -17.8897 N   0  0  0  0  0  0  0  0  0  0  0  0
   17.8911  -20.4223  -16.9188 C   0  0  0  0  0  0  0  0  0  0  0  0
   18.0489  -22.0862  -13.1008 O   0  0  0  0  0  0  0  0  0  0  0  0
   18.5040  -23.2478  -13.2943 O   0  0  0  0  0  0  0  0  0  0  0  0
  2  3  1  0
  2  1  1  1
  4  5  2  0
  4  3  1  0
  6  2  1  0
  7  6  2  0
  8  4  1  0
 10  9  1  0
 10 11  2  0
 12 10  1  0
 13 12  1  0
 13 14  1  0
 14 15  1  0
 16 15  1  1
 16 17  1  0
 17  6  1  0
 18 16  1  0
 18 19  2  0
 20 18  1  0
 21 20  1  0
 21 22  1  1
 23 22  1  0
 24 23  2  0
 25 24  1  0
 25 26  1  0
 26 27  2  0
 27 23  1  0
 28 21  1  0
 29 28  2  0
 30 28  1  0
M  END
$$$$
