DRH.pdb
     RDKit          3D

 30 30  0  0  1  0  0  0  0  0999 V2000
   42.6878   -3.9105   -7.1201 N   0  0  0  0  0  0  0  0  0  0  0  0
   42.0377   -5.1631   -6.8225 C   0  0  1  0  0  0  0  0  0  0  0  0
   40.5417   -4.9248   -6.7869 C   0  0  0  0  0  0  0  0  0  0  0  0
   40.2710   -4.0211   -5.6398 C   0  0  0  0  0  0  0  0  0  0  0  0
   40.7088   -4.3006   -4.5036 O   0  0  0  0  0  0  0  0  0  0  0  0
   42.4195   -6.1738   -7.8445 C   0  0  0  0  0  0  0  0  0  0  0  0
   42.6172   -5.8129   -9.0506 O   0  0  0  0  0  0  0  0  0  0  0  0
   39.5387   -2.8793   -5.8344 O   0  0  0  0  0  0  0  0  0  0  0  0
   46.4032  -13.8673   -6.3787 N   0  0  0  0  0  0  0  0  0  0  0  0
   46.2511  -13.8812   -7.8025 C   0  0  0  0  0  0  0  0  0  0  0  0
   46.7790  -14.7862   -8.5191 N   0  0  0  0  0  0  0  0  0  0  0  0
   45.4886  -12.8534   -8.4257 N   0  0  0  0  0  0  0  0  0  0  0  0
   44.8307  -11.8648   -7.6116 C   0  0  0  0  0  0  0  0  0  0  0  0
   44.1186  -10.8368   -8.4699 C   0  0  0  0  0  0  0  0  0  0  0  0
   43.5564   -9.7960   -7.5632 C   0  0  0  0  0  0  0  0  0  0  0  0
   42.9035   -8.6251   -8.2734 C   0  0  2  0  0  0  0  0  0  0  0  0
   42.5563   -7.5198   -7.4571 N   0  0  0  0  0  0  0  0  0  0  0  0
   41.8149   -9.1283   -9.1158 C   0  0  0  0  0  0  0  0  0  0  0  0
   40.6399   -9.3270   -8.6235 O   0  0  0  0  0  0  0  0  0  0  0  0
   46.7864  -14.7840   -9.5429 N   0  0  0  0  0  0  0  0  0  0  0  0
   41.9857   -9.4163  -10.4815 C   0  0  2  0  0  0  0  0  0  0  0  0
   40.8066   -9.7668  -11.3004 C   0  0  0  0  0  0  0  0  0  0  0  0
   39.8548   -8.6226  -11.2270 C   0  0  0  0  0  0  0  0  0  0  0  0
   38.7832   -8.6550  -12.2149 C   0  0  0  0  0  0  0  0  0  0  0  0
   37.9407   -9.7401  -12.4546 N   0  0  0  0  0  0  0  0  0  0  0  0
   37.0846   -9.4043  -13.4259 C   0  0  0  0  0  0  0  0  0  0  0  0
   37.3423   -8.1561  -13.8162 N   0  0  0  0  0  0  0  0  0  0  0  0
   38.3737   -7.7199  -13.0714 C   0  0  0  0  0  0  0  0  0  0  0  0
   41.2955   -9.9223  -12.6949 O   0  0  0  0  0  0  0  0  0  0  0  0
   42.2831   -9.2315  -13.0707 O   0  0  0  0  0  0  0  0  0  0  0  0
  2  3  1  0
  2  1  1  6
  4  5  2  0
  4  3  1  0
  6  2  1  0
  7  6  2  0
  8  4  1  0
 10  9  1  0
 10 11  2  0
 12 10  1  0
 13 12  1  0
 13 14  1  0
 14 15  1  0
 16 15  1  1
 16 17  1  0
 17  6  1  0
 18 16  1  0
 18 19  2  0
 20 18  1  0
 21 20  1  0
 21 22  1  6
 23 22  1  0
 24 23  2  0
 25 24  1  0
 25 26  1  0
 26 27  2  0
 27 23  1  0
 28 21  1  0
 29 28  2  0
 30 28  1  0
M  END
$$$$
