DRH.pdb
     RDKit          3D

 30 30  0  0  1  0  0  0  0  0999 V2000
   18.7707  -12.1963  -16.8129 N   0  0  0  0  0  0  0  0  0  0  0  0
   19.5934  -11.1373  -17.3437 C   0  0  1  0  0  0  0  0  0  0  0  0
   18.6850  -10.1007  -17.9735 C   0  0  0  0  0  0  0  0  0  0  0  0
   18.0172  -10.7507  -19.1299 C   0  0  0  0  0  0  0  0  0  0  0  0
   18.2579  -11.9455  -19.4035 O   0  0  0  0  0  0  0  0  0  0  0  0
   20.4261  -10.5636  -16.2532 C   0  0  0  0  0  0  0  0  0  0  0  0
   20.0117  -10.6074  -15.0489 O   0  0  0  0  0  0  0  0  0  0  0  0
   17.1357  -10.0327  -19.8950 O   0  0  0  0  0  0  0  0  0  0  0  0
   27.9900  -12.7394  -15.2288 N   0  0  0  0  0  0  0  0  0  0  0  0
   27.2662  -12.5580  -16.4509 C   0  0  0  0  0  0  0  0  0  0  0  0
   27.8001  -12.7840  -17.5801 N   0  0  0  0  0  0  0  0  0  0  0  0
   25.9152  -12.1133  -16.3941 N   0  0  0  0  0  0  0  0  0  0  0  0
   25.2635  -11.9844  -15.1166 C   0  0  0  0  0  0  0  0  0  0  0  0
   23.8449  -11.4720  -15.2768 C   0  0  0  0  0  0  0  0  0  0  0  0
   23.9146  -10.0017  -15.5105 C   0  0  0  0  0  0  0  0  0  0  0  0
   22.5687   -9.3273  -15.6984 C   0  0  2  0  0  0  0  0  0  0  0  0
   21.6652   -9.9790  -16.5745 N   0  0  0  0  0  0  0  0  0  0  0  0
   22.7860   -7.9076  -15.9903 C   0  0  0  0  0  0  0  0  0  0  0  0
   22.9323   -7.5004  -17.2049 O   0  0  0  0  0  0  0  0  0  0  0  0
   27.3071  -12.7286  -18.4757 N   0  0  0  0  0  0  0  0  0  0  0  0
   22.8451   -6.9281  -14.9831 C   0  0  1  0  0  0  0  0  0  0  0  0
   22.8429   -5.4997  -15.3615 C   0  0  0  0  0  0  0  0  0  0  0  0
   21.5529   -5.2222  -16.0538 C   0  0  0  0  0  0  0  0  0  0  0  0
   21.6711   -4.9556  -17.4822 C   0  0  0  0  0  0  0  0  0  0  0  0
   21.9133   -5.9160  -18.4640 N   0  0  0  0  0  0  0  0  0  0  0  0
   21.9559   -5.3042  -19.6526 C   0  0  0  0  0  0  0  0  0  0  0  0
   21.7523   -3.9989  -19.4741 N   0  0  0  0  0  0  0  0  0  0  0  0
   21.5820   -3.8081  -18.1537 C   0  0  0  0  0  0  0  0  0  0  0  0
   22.9057   -4.7294  -14.0924 O   0  0  0  0  0  0  0  0  0  0  0  0
   22.6727   -5.3308  -13.0071 O   0  0  0  0  0  0  0  0  0  0  0  0
  2  3  1  0
  2  1  1  1
  4  5  2  0
  4  3  1  0
  6  2  1  0
  7  6  2  0
  8  4  1  0
 10  9  1  0
 10 11  2  0
 12 10  1  0
 13 12  1  0
 13 14  1  0
 14 15  1  0
 16 15  1  6
 16 17  1  0
 17  6  1  0
 18 16  1  0
 18 19  2  0
 20 18  1  0
 21 20  1  0
 21 22  1  1
 23 22  1  0
 24 23  2  0
 25 24  1  0
 25 26  1  0
 26 27  2  0
 27 23  1  0
 28 21  1  0
 29 28  2  0
 30 28  1  0
M  END
$$$$
