DRH.pdb
     RDKit          3D

 30 30  0  0  1  0  0  0  0  0999 V2000
   19.1939  -20.6854  -11.7209 N   0  0  0  0  0  0  0  0  0  0  0  0
   19.4346  -20.6562  -13.1427 C   0  0  1  0  0  0  0  0  0  0  0  0
   18.2499  -19.9885  -13.8111 C   0  0  0  0  0  0  0  0  0  0  0  0
   17.0527  -20.8101  -13.4989 C   0  0  0  0  0  0  0  0  0  0  0  0
   17.0938  -22.0523  -13.6240 O   0  0  0  0  0  0  0  0  0  0  0  0
   20.7085  -19.9385  -13.4143 C   0  0  0  0  0  0  0  0  0  0  0  0
   21.0305  -18.9282  -12.7074 O   0  0  0  0  0  0  0  0  0  0  0  0
   15.9029  -20.1982  -13.0729 O   0  0  0  0  0  0  0  0  0  0  0  0
   28.1960  -21.6200  -13.8895 N   0  0  0  0  0  0  0  0  0  0  0  0
   27.8250  -21.2536  -12.5559 C   0  0  0  0  0  0  0  0  0  0  0  0
   28.6730  -20.7896  -11.7332 N   0  0  0  0  0  0  0  0  0  0  0  0
   26.4713  -21.4149  -12.1466 N   0  0  0  0  0  0  0  0  0  0  0  0
   25.4966  -21.8954  -13.0912 C   0  0  0  0  0  0  0  0  0  0  0  0
   24.3043  -20.9609  -13.1684 C   0  0  0  0  0  0  0  0  0  0  0  0
   24.0018  -20.7255  -14.6086 C   0  0  0  0  0  0  0  0  0  0  0  0
   22.7861  -19.8547  -14.8647 C   0  0  2  0  0  0  0  0  0  0  0  0
   21.5405  -20.3923  -14.4546 N   0  0  0  0  0  0  0  0  0  0  0  0
   22.8219  -19.3863  -16.2529 C   0  0  0  0  0  0  0  0  0  0  0  0
   22.3325  -20.1069  -17.2035 O   0  0  0  0  0  0  0  0  0  0  0  0
   28.4572  -20.5178  -10.7700 N   0  0  0  0  0  0  0  0  0  0  0  0
   23.3798  -18.1488  -16.6201 C   0  0  2  0  0  0  0  0  0  0  0  0
   23.3101  -17.7133  -18.0305 C   0  0  0  0  0  0  0  0  0  0  0  0
   23.6931  -16.2739  -18.0737 C   0  0  0  0  0  0  0  0  0  0  0  0
   22.6446  -15.3501  -17.6581 C   0  0  0  0  0  0  0  0  0  0  0  0
   21.3460  -15.7125  -17.3016 N   0  0  0  0  0  0  0  0  0  0  0  0
   20.6710  -14.6037  -16.9790 C   0  0  0  0  0  0  0  0  0  0  0  0
   21.4788  -13.5519  -17.1133 N   0  0  0  0  0  0  0  0  0  0  0  0
   22.6688  -14.0244  -17.5251 C   0  0  0  0  0  0  0  0  0  0  0  0
   24.3152  -18.5209  -18.7691 O   0  0  0  0  0  0  0  0  0  0  0  0
   25.2911  -19.0043  -18.1304 O   0  0  0  0  0  0  0  0  0  0  0  0
  2  3  1  0
  2  1  1  1
  4  5  2  0
  4  3  1  0
  6  2  1  0
  7  6  2  0
  8  4  1  0
 10  9  1  0
 10 11  2  0
 12 10  1  0
 13 12  1  0
 13 14  1  0
 14 15  1  0
 16 15  1  6
 16 17  1  0
 17  6  1  0
 18 16  1  0
 18 19  2  0
 20 18  1  0
 21 20  1  0
 21 22  1  1
 23 22  1  0
 24 23  2  0
 25 24  1  0
 25 26  1  0
 26 27  2  0
 27 23  1  0
 28 21  1  0
 29 28  2  0
 30 28  1  0
M  END
$$$$
