DRH.pdb
     RDKit          3D

 30 30  0  0  1  0  0  0  0  0999 V2000
   26.3845  -19.8608  -18.2542 N   0  0  0  0  0  0  0  0  0  0  0  0
   25.2862  -19.0917  -17.7228 C   0  0  1  0  0  0  0  0  0  0  0  0
   24.5022  -18.5177  -18.8856 C   0  0  0  0  0  0  0  0  0  0  0  0
   25.3945  -17.5552  -19.5807 C   0  0  0  0  0  0  0  0  0  0  0  0
   26.1868  -16.8470  -18.9241 O   0  0  0  0  0  0  0  0  0  0  0  0
   24.4467  -19.9612  -16.8563 C   0  0  0  0  0  0  0  0  0  0  0  0
   24.0700  -21.1031  -17.2784 O   0  0  0  0  0  0  0  0  0  0  0  0
   25.3439  -17.4482  -20.9459 O   0  0  0  0  0  0  0  0  0  0  0  0
   24.9613  -21.4287   -8.7316 N   0  0  0  0  0  0  0  0  0  0  0  0
   25.4372  -20.9919  -10.0095 C   0  0  0  0  0  0  0  0  0  0  0  0
   26.5244  -21.4274  -10.4989 N   0  0  0  0  0  0  0  0  0  0  0  0
   24.6695  -20.0463  -10.7461 N   0  0  0  0  0  0  0  0  0  0  0  0
   23.2351  -20.1671  -10.7779 C   0  0  0  0  0  0  0  0  0  0  0  0
   22.7500  -20.5487  -12.1635 C   0  0  0  0  0  0  0  0  0  0  0  0
   23.6280  -19.8688  -13.1575 C   0  0  0  0  0  0  0  0  0  0  0  0
   23.2987  -20.1763  -14.6061 C   0  0  2  0  0  0  0  0  0  0  0  0
   24.0815  -19.5028  -15.5768 N   0  0  0  0  0  0  0  0  0  0  0  0
   21.8508  -20.0570  -14.7992 C   0  0  0  0  0  0  0  0  0  0  0  0
   21.2575  -18.9227  -14.6448 O   0  0  0  0  0  0  0  0  0  0  0  0
   26.9492  -21.0832  -11.3646 N   0  0  0  0  0  0  0  0  0  0  0  0
   21.0423  -21.1503  -15.1576 C   0  0  2  0  0  0  0  0  0  0  0  0
   19.5842  -20.9566  -15.2994 C   0  0  0  0  0  0  0  0  0  0  0  0
   19.0276  -22.1899  -15.9235 C   0  0  0  0  0  0  0  0  0  0  0  0
   17.5839  -22.1737  -16.1265 C   0  0  0  0  0  0  0  0  0  0  0  0
   16.6730  -21.4298  -15.3771 N   0  0  0  0  0  0  0  0  0  0  0  0
   15.4442  -21.6655  -15.8498 C   0  0  0  0  0  0  0  0  0  0  0  0
   15.5296  -22.5249  -16.8653 N   0  0  0  0  0  0  0  0  0  0  0  0
   16.8329  -22.8204  -17.0172 C   0  0  0  0  0  0  0  0  0  0  0  0
   19.0453  -20.8053  -13.9230 O   0  0  0  0  0  0  0  0  0  0  0  0
   19.6591  -21.3585  -12.9684 O   0  0  0  0  0  0  0  0  0  0  0  0
  2  3  1  0
  2  1  1  6
  4  5  2  0
  4  3  1  0
  6  2  1  0
  7  6  2  0
  8  4  1  0
 10  9  1  0
 10 11  2  0
 12 10  1  0
 13 12  1  0
 13 14  1  0
 14 15  1  0
 16 15  1  1
 16 17  1  0
 17  6  1  0
 18 16  1  0
 18 19  2  0
 20 18  1  0
 21 20  1  0
 21 22  1  6
 23 22  1  0
 24 23  2  0
 25 24  1  0
 25 26  1  0
 26 27  2  0
 27 23  1  0
 28 21  1  0
 29 28  2  0
 30 28  1  0
M  END
$$$$
