DRH.pdb
     RDKit          3D

 30 30  0  0  1  0  0  0  0  0999 V2000
   28.8617  -26.6165  -16.1725 N   0  0  0  0  0  0  0  0  0  0  0  0
   28.2462  -26.0146  -17.3298 C   0  0  1  0  0  0  0  0  0  0  0  0
   29.3375  -25.6716  -18.3235 C   0  0  0  0  0  0  0  0  0  0  0  0
   30.0314  -24.4632  -17.8098 C   0  0  0  0  0  0  0  0  0  0  0  0
   29.6915  -23.9609  -16.7177 O   0  0  0  0  0  0  0  0  0  0  0  0
   27.2433  -26.9525  -17.9009 C   0  0  0  0  0  0  0  0  0  0  0  0
   26.5729  -26.6143  -18.9305 O   0  0  0  0  0  0  0  0  0  0  0  0
   31.0462  -23.9023  -18.5400 O   0  0  0  0  0  0  0  0  0  0  0  0
   25.9890  -33.1337  -14.8731 N   0  0  0  0  0  0  0  0  0  0  0  0
   27.3169  -32.6917  -14.5706 C   0  0  0  0  0  0  0  0  0  0  0  0
   27.7149  -32.5516  -13.3735 N   0  0  0  0  0  0  0  0  0  0  0  0
   28.2096  -32.4035  -15.6412 N   0  0  0  0  0  0  0  0  0  0  0  0
   27.7711  -32.5880  -17.0002 C   0  0  0  0  0  0  0  0  0  0  0  0
   27.5806  -31.2548  -17.6981 C   0  0  0  0  0  0  0  0  0  0  0  0
   26.3842  -30.5951  -17.1027 C   0  0  0  0  0  0  0  0  0  0  0  0
   26.1033  -29.2007  -17.6305 C   0  0  2  0  0  0  0  0  0  0  0  0
   27.0524  -28.2052  -17.2887 N   0  0  0  0  0  0  0  0  0  0  0  0
   24.7133  -28.8495  -17.3268 C   0  0  0  0  0  0  0  0  0  0  0  0
   24.4402  -27.9195  -16.4765 O   0  0  0  0  0  0  0  0  0  0  0  0
   28.6113  -32.1355  -13.1058 N   0  0  0  0  0  0  0  0  0  0  0  0
   23.6200  -29.4927  -17.9338 C   0  0  1  0  0  0  0  0  0  0  0  0
   22.2490  -29.0346  -17.6268 C   0  0  0  0  0  0  0  0  0  0  0  0
   22.1205  -27.6383  -18.1311 C   0  0  0  0  0  0  0  0  0  0  0  0
   20.7711  -27.0894  -18.0722 C   0  0  0  0  0  0  0  0  0  0  0  0
   20.2039  -26.4622  -16.9633 N   0  0  0  0  0  0  0  0  0  0  0  0
   18.9586  -26.0899  -17.2791 C   0  0  0  0  0  0  0  0  0  0  0  0
   18.7059  -26.4507  -18.5372 N   0  0  0  0  0  0  0  0  0  0  0  0
   19.8152  -27.0541  -18.9999 C   0  0  0  0  0  0  0  0  0  0  0  0
   21.3301  -29.9258  -18.3814 O   0  0  0  0  0  0  0  0  0  0  0  0
   21.6917  -30.3480  -19.5150 O   0  0  0  0  0  0  0  0  0  0  0  0
  2  3  1  0
  2  1  1  1
  4  5  2  0
  4  3  1  0
  6  2  1  0
  7  6  2  0
  8  4  1  0
 10  9  1  0
 10 11  2  0
 12 10  1  0
 13 12  1  0
 13 14  1  0
 14 15  1  0
 16 15  1  1
 16 17  1  0
 17  6  1  0
 18 16  1  0
 18 19  2  0
 20 18  1  0
 21 20  1  0
 21 22  1  1
 23 22  1  0
 24 23  2  0
 25 24  1  0
 25 26  1  0
 26 27  2  0
 27 23  1  0
 28 21  1  0
 29 28  2  0
 30 28  1  0
M  END
$$$$
