DRH.pdb
     RDKit          3D

 30 30  0  0  1  0  0  0  0  0999 V2000
   28.7434  -11.3959  -16.3714 N   0  0  0  0  0  0  0  0  0  0  0  0
   28.3564  -10.4848  -17.4203 C   0  0  1  0  0  0  0  0  0  0  0  0
   28.7715  -11.0856  -18.7480 C   0  0  0  0  0  0  0  0  0  0  0  0
   30.2561  -11.0753  -18.7866 C   0  0  0  0  0  0  0  0  0  0  0  0
   30.9068  -10.6687  -17.8008 O   0  0  0  0  0  0  0  0  0  0  0  0
   26.8909  -10.2420  -17.3492 C   0  0  0  0  0  0  0  0  0  0  0  0
   26.3337   -9.4713  -18.1975 O   0  0  0  0  0  0  0  0  0  0  0  0
   30.9082  -11.5142  -19.9091 O   0  0  0  0  0  0  0  0  0  0  0  0
   20.9304  -15.4696  -15.3261 N   0  0  0  0  0  0  0  0  0  0  0  0
   22.0963  -16.1051  -15.8621 C   0  0  0  0  0  0  0  0  0  0  0  0
   22.0214  -17.1919  -16.5135 N   0  0  0  0  0  0  0  0  0  0  0  0
   23.3684  -15.5002  -15.6574 N   0  0  0  0  0  0  0  0  0  0  0  0
   23.4455  -14.1990  -15.0456 C   0  0  0  0  0  0  0  0  0  0  0  0
   24.0162  -13.1758  -16.0090 C   0  0  0  0  0  0  0  0  0  0  0  0
   24.1237  -11.8777  -15.2848 C   0  0  0  0  0  0  0  0  0  0  0  0
   24.7515  -10.7553  -16.0896 C   0  0  2  0  0  0  0  0  0  0  0  0
   26.1417  -10.8729  -16.3387 N   0  0  0  0  0  0  0  0  0  0  0  0
   24.3405   -9.4715  -15.5143 C   0  0  0  0  0  0  0  0  0  0  0  0
   24.9269   -9.0021  -14.4664 O   0  0  0  0  0  0  0  0  0  0  0  0
   22.8299  -17.7319  -16.8347 N   0  0  0  0  0  0  0  0  0  0  0  0
   23.3049   -8.6936  -16.0618 C   0  0  2  0  0  0  0  0  0  0  0  0
   22.8540   -7.4818  -15.3462 C   0  0  0  0  0  0  0  0  0  0  0  0
   22.8038   -6.3698  -16.3368 C   0  0  0  0  0  0  0  0  0  0  0  0
   22.3797   -5.0855  -15.7925 C   0  0  0  0  0  0  0  0  0  0  0  0
   22.5159   -4.6894  -14.4624 N   0  0  0  0  0  0  0  0  0  0  0  0
   22.0180   -3.4545  -14.3358 C   0  0  0  0  0  0  0  0  0  0  0  0
   21.5709   -3.0453  -15.5231 N   0  0  0  0  0  0  0  0  0  0  0  0
   21.7988   -4.0466  -16.3916 C   0  0  0  0  0  0  0  0  0  0  0  0
   21.4837   -7.7728  -14.8506 O   0  0  0  0  0  0  0  0  0  0  0  0
   20.8221   -8.6937  -15.4058 O   0  0  0  0  0  0  0  0  0  0  0  0
  2  3  1  0
  2  1  1  1
  4  5  2  0
  4  3  1  0
  6  2  1  0
  7  6  2  0
  8  4  1  0
 10  9  1  0
 10 11  2  0
 12 10  1  0
 13 12  1  0
 13 14  1  0
 14 15  1  0
 16 15  1  1
 16 17  1  0
 17  6  1  0
 18 16  1  0
 18 19  2  0
 20 18  1  0
 21 20  1  0
 21 22  1  6
 23 22  1  0
 24 23  2  0
 25 24  1  0
 25 26  1  0
 26 27  2  0
 27 23  1  0
 28 21  1  0
 29 28  2  0
 30 28  1  0
M  END
$$$$
