DRH.pdb
     RDKit          3D

 30 30  0  0  1  0  0  0  0  0999 V2000
   18.4067  -12.1827  -18.1565 N   0  0  0  0  0  0  0  0  0  0  0  0
   17.5966  -11.7374  -17.0493 C   0  0  1  0  0  0  0  0  0  0  0  0
   17.6483  -12.7969  -15.9671 C   0  0  0  0  0  0  0  0  0  0  0  0
   17.0092  -14.0178  -16.5208 C   0  0  0  0  0  0  0  0  0  0  0  0
   15.9864  -13.9235  -17.2318 O   0  0  0  0  0  0  0  0  0  0  0  0
   18.0955  -10.4214  -16.5689 C   0  0  0  0  0  0  0  0  0  0  0  0
   17.5343   -9.8548  -15.5749 O   0  0  0  0  0  0  0  0  0  0  0  0
   17.5475  -15.2480  -16.2478 O   0  0  0  0  0  0  0  0  0  0  0  0
   22.4852   -7.2739  -12.9485 N   0  0  0  0  0  0  0  0  0  0  0  0
   22.8809   -8.6249  -13.2103 C   0  0  0  0  0  0  0  0  0  0  0  0
   22.7864   -9.5293  -12.3246 N   0  0  0  0  0  0  0  0  0  0  0  0
   23.3922   -8.9581  -14.4963 N   0  0  0  0  0  0  0  0  0  0  0  0
   23.4108   -7.9593  -15.5333 C   0  0  0  0  0  0  0  0  0  0  0  0
   22.0031   -7.5902  -15.9610 C   0  0  0  0  0  0  0  0  0  0  0  0
   21.3162   -8.8394  -16.3958 C   0  0  0  0  0  0  0  0  0  0  0  0
   19.8826   -8.6458  -16.8530 C   0  0  2  0  0  0  0  0  0  0  0  0
   19.1862   -9.8224  -17.2262 N   0  0  0  0  0  0  0  0  0  0  0  0
   19.8431   -7.5709  -17.8485 C   0  0  0  0  0  0  0  0  0  0  0  0
   20.2384   -7.7791  -19.0579 O   0  0  0  0  0  0  0  0  0  0  0  0
   23.0956  -10.4973  -12.4495 N   0  0  0  0  0  0  0  0  0  0  0  0
   19.3804   -6.2775  -17.5479 C   0  0  2  0  0  0  0  0  0  0  0  0
   19.3003   -5.2689  -18.6249 C   0  0  0  0  0  0  0  0  0  0  0  0
   18.0207   -4.5260  -18.4480 C   0  0  0  0  0  0  0  0  0  0  0  0
   16.8383   -5.2188  -18.9456 C   0  0  0  0  0  0  0  0  0  0  0  0
   16.7318   -5.8391  -20.1900 N   0  0  0  0  0  0  0  0  0  0  0  0
   15.5074   -6.3671  -20.2959 C   0  0  0  0  0  0  0  0  0  0  0  0
   14.8289   -6.1122  -19.1771 N   0  0  0  0  0  0  0  0  0  0  0  0
   15.6517   -5.4162  -18.3724 C   0  0  0  0  0  0  0  0  0  0  0  0
   20.4469   -4.3460  -18.4216 O   0  0  0  0  0  0  0  0  0  0  0  0
   20.5503   -3.3349  -19.1706 O   0  0  0  0  0  0  0  0  0  0  0  0
  2  3  1  0
  2  1  1  6
  4  5  2  0
  4  3  1  0
  6  2  1  0
  7  6  2  0
  8  4  1  0
 10  9  1  0
 10 11  2  0
 12 10  1  0
 13 12  1  0
 13 14  1  0
 14 15  1  0
 16 15  1  6
 16 17  1  0
 17  6  1  0
 18 16  1  0
 18 19  2  0
 20 18  1  0
 21 20  1  0
 21 22  1  6
 23 22  1  0
 24 23  2  0
 25 24  1  0
 25 26  1  0
 26 27  2  0
 27 23  1  0
 28 21  1  0
 29 28  2  0
 30 28  1  0
M  END
$$$$
