DRH.pdb
     RDKit          3D

 30 30  0  0  1  0  0  0  0  0999 V2000
   26.4267  -25.0955  -17.3874 N   0  0  0  0  0  0  0  0  0  0  0  0
   26.2381  -23.6707  -17.2662 C   0  0  1  0  0  0  0  0  0  0  0  0
   25.6598  -23.1560  -18.5688 C   0  0  0  0  0  0  0  0  0  0  0  0
   26.7376  -23.2383  -19.5873 C   0  0  0  0  0  0  0  0  0  0  0  0
   27.9350  -23.1510  -19.2425 O   0  0  0  0  0  0  0  0  0  0  0  0
   25.3498  -23.3859  -16.1079 C   0  0  0  0  0  0  0  0  0  0  0  0
   24.3004  -24.0857  -15.9262 O   0  0  0  0  0  0  0  0  0  0  0  0
   26.4113  -23.4104  -20.9071 O   0  0  0  0  0  0  0  0  0  0  0  0
   26.5811  -21.5042   -8.8159 N   0  0  0  0  0  0  0  0  0  0  0  0
   25.4679  -20.6096   -8.7122 C   0  0  0  0  0  0  0  0  0  0  0  0
   24.6432  -20.6826   -7.7501 N   0  0  0  0  0  0  0  0  0  0  0  0
   25.2851  -19.6155   -9.7144 N   0  0  0  0  0  0  0  0  0  0  0  0
   25.8616  -19.8088  -11.0195 C   0  0  0  0  0  0  0  0  0  0  0  0
   24.9500  -20.6410  -11.9011 C   0  0  0  0  0  0  0  0  0  0  0  0
   25.7072  -20.9944  -13.1353 C   0  0  0  0  0  0  0  0  0  0  0  0
   24.9508  -21.8779  -14.1094 C   0  0  2  0  0  0  0  0  0  0  0  0
   25.6878  -22.3410  -15.2279 N   0  0  0  0  0  0  0  0  0  0  0  0
   23.6761  -21.2355  -14.4413 C   0  0  0  0  0  0  0  0  0  0  0  0
   23.6469  -20.1558  -15.1455 O   0  0  0  0  0  0  0  0  0  0  0  0
   23.8025  -20.1047   -7.6623 N   0  0  0  0  0  0  0  0  0  0  0  0
   22.4369  -21.7499  -14.0202 C   0  0  2  0  0  0  0  0  0  0  0  0
   21.2004  -21.0011  -14.3269 C   0  0  0  0  0  0  0  0  0  0  0  0
   20.2370  -21.9594  -14.9382 C   0  0  0  0  0  0  0  0  0  0  0  0
   20.4282  -22.1915  -16.3648 C   0  0  0  0  0  0  0  0  0  0  0  0
   21.3623  -21.5395  -17.1692 N   0  0  0  0  0  0  0  0  0  0  0  0
   21.2483  -22.0100  -18.4161 C   0  0  0  0  0  0  0  0  0  0  0  0
   20.2852  -22.9312  -18.4437 N   0  0  0  0  0  0  0  0  0  0  0  0
   19.8012  -23.0266  -17.1925 C   0  0  0  0  0  0  0  0  0  0  0  0
   20.6687  -20.5184  -13.0260 O   0  0  0  0  0  0  0  0  0  0  0  0
   21.2629  -20.8589  -11.9654 O   0  0  0  0  0  0  0  0  0  0  0  0
  2  3  1  0
  2  1  1  6
  4  5  2  0
  4  3  1  0
  6  2  1  0
  7  6  2  0
  8  4  1  0
 10  9  1  0
 10 11  2  0
 12 10  1  0
 13 12  1  0
 13 14  1  0
 14 15  1  0
 16 15  1  6
 16 17  1  0
 17  6  1  0
 18 16  1  0
 18 19  2  0
 20 18  1  0
 21 20  1  0
 21 22  1  1
 23 22  1  0
 24 23  2  0
 25 24  1  0
 25 26  1  0
 26 27  2  0
 27 23  1  0
 28 21  1  0
 29 28  2  0
 30 28  1  0
M  END
$$$$
