DRH.pdb
     RDKit          3D

 30 30  0  0  1  0  0  0  0  0999 V2000
   26.7863  -25.5027  -18.1937 N   0  0  0  0  0  0  0  0  0  0  0  0
   26.3337  -25.7405  -16.8450 C   0  0  1  0  0  0  0  0  0  0  0  0
   27.5183  -26.2039  -16.0216 C   0  0  0  0  0  0  0  0  0  0  0  0
   27.8528  -27.5786  -16.4735 C   0  0  0  0  0  0  0  0  0  0  0  0
   28.7772  -28.2129  -15.9225 O   0  0  0  0  0  0  0  0  0  0  0  0
   25.7254  -24.4973  -16.3008 C   0  0  0  0  0  0  0  0  0  0  0  0
   25.3155  -24.4671  -15.0946 O   0  0  0  0  0  0  0  0  0  0  0  0
   27.1420  -28.1472  -17.4978 O   0  0  0  0  0  0  0  0  0  0  0  0
   29.1311  -19.0750  -17.9921 N   0  0  0  0  0  0  0  0  0  0  0  0
   28.7962  -18.3484  -16.8046 C   0  0  0  0  0  0  0  0  0  0  0  0
   29.6884  -17.9510  -15.9939 N   0  0  0  0  0  0  0  0  0  0  0  0
   27.4282  -18.0669  -16.5299 N   0  0  0  0  0  0  0  0  0  0  0  0
   26.4121  -18.5268  -17.4406 C   0  0  0  0  0  0  0  0  0  0  0  0
   25.5324  -19.5780  -16.7912 C   0  0  0  0  0  0  0  0  0  0  0  0
   25.9644  -20.9111  -17.2987 C   0  0  0  0  0  0  0  0  0  0  0  0
   25.1415  -22.0787  -16.7875 C   0  0  2  0  0  0  0  0  0  0  0  0
   25.6133  -23.3693  -17.1348 N   0  0  0  0  0  0  0  0  0  0  0  0
   23.7305  -21.8389  -17.1027 C   0  0  0  0  0  0  0  0  0  0  0  0
   23.3298  -21.7838  -18.3270 O   0  0  0  0  0  0  0  0  0  0  0  0
   29.5008  -17.4093  -15.1456 N   0  0  0  0  0  0  0  0  0  0  0  0
   22.7526  -21.6597  -16.1082 C   0  0  2  0  0  0  0  0  0  0  0  0
   21.3556  -21.3896  -16.5071 C   0  0  0  0  0  0  0  0  0  0  0  0
   20.5478  -21.2784  -15.2600 C   0  0  0  0  0  0  0  0  0  0  0  0
   19.1129  -21.1319  -15.4727 C   0  0  0  0  0  0  0  0  0  0  0  0
   18.4887  -21.0297  -16.7155 N   0  0  0  0  0  0  0  0  0  0  0  0
   17.1713  -20.9092  -16.5184 C   0  0  0  0  0  0  0  0  0  0  0  0
   16.9269  -20.9298  -15.2082 N   0  0  0  0  0  0  0  0  0  0  0  0
   18.1148  -21.0652  -14.5923 C   0  0  0  0  0  0  0  0  0  0  0  0
   21.3664  -20.0829  -17.2145 O   0  0  0  0  0  0  0  0  0  0  0  0
   20.5880  -19.9189  -18.1949 O   0  0  0  0  0  0  0  0  0  0  0  0
  2  3  1  0
  2  1  1  6
  4  5  2  0
  4  3  1  0
  6  2  1  0
  7  6  2  0
  8  4  1  0
 10  9  1  0
 10 11  2  0
 12 10  1  0
 13 12  1  0
 13 14  1  0
 14 15  1  0
 16 15  1  6
 16 17  1  0
 17  6  1  0
 18 16  1  0
 18 19  2  0
 20 18  1  0
 21 20  1  0
 21 22  1  1
 23 22  1  0
 24 23  2  0
 25 24  1  0
 25 26  1  0
 26 27  2  0
 27 23  1  0
 28 21  1  0
 29 28  2  0
 30 28  1  0
M  END
$$$$
