DRH.pdb
     RDKit          3D

 30 30  0  0  1  0  0  0  0  0999 V2000
   25.5624  -14.3675  -20.5825 N   0  0  0  0  0  0  0  0  0  0  0  0
   24.2080  -13.9226  -20.3633 C   0  0  1  0  0  0  0  0  0  0  0  0
   23.6429  -14.6859  -19.1826 C   0  0  0  0  0  0  0  0  0  0  0  0
   23.4808  -16.0981  -19.6130 C   0  0  0  0  0  0  0  0  0  0  0  0
   23.5854  -16.4023  -20.8201 O   0  0  0  0  0  0  0  0  0  0  0  0
   24.2006  -12.4531  -20.1355 C   0  0  0  0  0  0  0  0  0  0  0  0
   25.2991  -11.8070  -20.1263 O   0  0  0  0  0  0  0  0  0  0  0  0
   23.2160  -17.0653  -18.6791 O   0  0  0  0  0  0  0  0  0  0  0  0
   18.8728   -9.0690  -18.8466 N   0  0  0  0  0  0  0  0  0  0  0  0
   18.6655   -7.6849  -19.1490 C   0  0  0  0  0  0  0  0  0  0  0  0
   17.9369   -6.9461  -18.4178 N   0  0  0  0  0  0  0  0  0  0  0  0
   19.2934   -7.1274  -20.2983 N   0  0  0  0  0  0  0  0  0  0  0  0
   20.1475   -7.9535  -21.1114 C   0  0  0  0  0  0  0  0  0  0  0  0
   21.3981   -8.3575  -20.3541 C   0  0  0  0  0  0  0  0  0  0  0  0
   21.5162   -9.8414  -20.4272 C   0  0  0  0  0  0  0  0  0  0  0  0
   22.7481  -10.4113  -19.7495 C   0  0  2  0  0  0  0  0  0  0  0  0
   22.9712  -11.7989  -19.9330 N   0  0  0  0  0  0  0  0  0  0  0  0
   22.7688   -9.9688  -18.3526 C   0  0  0  0  0  0  0  0  0  0  0  0
   21.9677  -10.4879  -17.4858 O   0  0  0  0  0  0  0  0  0  0  0  0
   17.7347   -5.9607  -18.6089 N   0  0  0  0  0  0  0  0  0  0  0  0
   23.6462   -8.9735  -17.8867 C   0  0  2  0  0  0  0  0  0  0  0  0
   23.6781   -8.6541  -16.4443 C   0  0  0  0  0  0  0  0  0  0  0  0
   25.0967   -8.3831  -16.0773 C   0  0  0  0  0  0  0  0  0  0  0  0
   25.9630   -9.5557  -16.0797 C   0  0  0  0  0  0  0  0  0  0  0  0
   25.5478  -10.8639  -16.3262 N   0  0  0  0  0  0  0  0  0  0  0  0
   26.6136  -11.6681  -16.2456 C   0  0  0  0  0  0  0  0  0  0  0  0
   27.6884  -10.9334  -15.9592 N   0  0  0  0  0  0  0  0  0  0  0  0
   27.2738   -9.6576  -15.8628 C   0  0  0  0  0  0  0  0  0  0  0  0
   22.8714   -7.4185  -16.2702 O   0  0  0  0  0  0  0  0  0  0  0  0
   22.7848   -6.9095  -15.1181 O   0  0  0  0  0  0  0  0  0  0  0  0
  2  3  1  0
  2  1  1  1
  4  5  2  0
  4  3  1  0
  6  2  1  0
  7  6  2  0
  8  4  1  0
 10  9  1  0
 10 11  2  0
 12 10  1  0
 13 12  1  0
 13 14  1  0
 14 15  1  0
 16 15  1  1
 16 17  1  0
 17  6  1  0
 18 16  1  0
 18 19  2  0
 20 18  1  0
 21 20  1  0
 21 22  1  6
 23 22  1  0
 24 23  2  0
 25 24  1  0
 25 26  1  0
 26 27  2  0
 27 23  1  0
 28 21  1  0
 29 28  2  0
 30 28  1  0
M  END
$$$$
