DRH.pdb
     RDKit          3D

 30 30  0  0  1  0  0  0  0  0999 V2000
   36.9217   -8.6922  -15.4234 N   0  0  0  0  0  0  0  0  0  0  0  0
   35.9132   -7.7978  -14.9103 C   0  0  1  0  0  0  0  0  0  0  0  0
   34.5719   -8.4981  -14.9918 C   0  0  0  0  0  0  0  0  0  0  0  0
   34.1724   -8.5105  -16.4221 C   0  0  0  0  0  0  0  0  0  0  0  0
   34.9023   -7.9743  -17.2824 O   0  0  0  0  0  0  0  0  0  0  0  0
   36.2586   -7.4099  -13.5168 C   0  0  0  0  0  0  0  0  0  0  0  0
   35.5050   -6.6057  -12.8769 O   0  0  0  0  0  0  0  0  0  0  0  0
   32.9989   -9.1133  -16.7930 O   0  0  0  0  0  0  0  0  0  0  0  0
   42.7780   -9.5987   -7.7976 N   0  0  0  0  0  0  0  0  0  0  0  0
   41.5224   -9.8790   -7.1688 C   0  0  0  0  0  0  0  0  0  0  0  0
   41.4468  -10.1748   -5.9368 N   0  0  0  0  0  0  0  0  0  0  0  0
   40.3324   -9.8235   -7.9478 N   0  0  0  0  0  0  0  0  0  0  0  0
   40.4141   -9.4894   -9.3459 C   0  0  0  0  0  0  0  0  0  0  0  0
   39.4076   -8.4146   -9.7101 C   0  0  0  0  0  0  0  0  0  0  0  0
   38.8925   -8.7159  -11.0758 C   0  0  0  0  0  0  0  0  0  0  0  0
   37.9305   -7.6822  -11.6305 C   0  0  2  0  0  0  0  0  0  0  0  0
   37.4200   -7.9424  -12.9268 N   0  0  0  0  0  0  0  0  0  0  0  0
   38.5162   -6.3496  -11.4608 C   0  0  0  0  0  0  0  0  0  0  0  0
   39.5453   -5.9904  -12.1495 O   0  0  0  0  0  0  0  0  0  0  0  0
   40.5698  -10.2812   -5.4192 N   0  0  0  0  0  0  0  0  0  0  0  0
   37.9992   -5.4051  -10.5562 C   0  0  2  0  0  0  0  0  0  0  0  0
   38.6608   -4.0902  -10.4258 C   0  0  0  0  0  0  0  0  0  0  0  0
   37.8096   -3.2470   -9.5399 C   0  0  0  0  0  0  0  0  0  0  0  0
   38.3166   -1.9000   -9.3074 C   0  0  0  0  0  0  0  0  0  0  0  0
   39.3026   -1.2681  -10.0646 N   0  0  0  0  0  0  0  0  0  0  0  0
   39.5062   -0.0467   -9.5589 C   0  0  0  0  0  0  0  0  0  0  0  0
   38.6962    0.1291   -8.5149 N   0  0  0  0  0  0  0  0  0  0  0  0
   37.9843   -1.0038   -8.3789 C   0  0  0  0  0  0  0  0  0  0  0  0
   39.9699   -4.3424   -9.7697 O   0  0  0  0  0  0  0  0  0  0  0  0
   41.0060   -3.8172  -10.2643 O   0  0  0  0  0  0  0  0  0  0  0  0
  2  3  1  0
  2  1  1  1
  4  5  2  0
  4  3  1  0
  6  2  1  0
  7  6  2  0
  8  4  1  0
 10  9  1  0
 10 11  2  0
 12 10  1  0
 13 12  1  0
 13 14  1  0
 14 15  1  0
 16 15  1  6
 16 17  1  0
 17  6  1  0
 18 16  1  0
 18 19  2  0
 20 18  1  0
 21 20  1  0
 21 22  1  1
 23 22  1  0
 24 23  2  0
 25 24  1  0
 25 26  1  0
 26 27  2  0
 27 23  1  0
 28 21  1  0
 29 28  2  0
 30 28  1  0
M  END
$$$$
