DRH.pdb
     RDKit          3D

 30 30  0  0  1  0  0  0  0  0999 V2000
   22.5959  -20.4604  -10.0682 N   0  0  0  0  0  0  0  0  0  0  0  0
   22.7034  -20.8211  -11.4605 C   0  0  1  0  0  0  0  0  0  0  0  0
   21.4365  -20.3792  -12.1646 C   0  0  0  0  0  0  0  0  0  0  0  0
   20.3007  -21.0469  -11.4790 C   0  0  0  0  0  0  0  0  0  0  0  0
   20.5029  -21.7412  -10.4604 O   0  0  0  0  0  0  0  0  0  0  0  0
   23.9172  -20.1894  -12.0430 C   0  0  0  0  0  0  0  0  0  0  0  0
   23.8451  -19.0202  -12.5446 O   0  0  0  0  0  0  0  0  0  0  0  0
   19.0301  -20.8972  -11.9698 O   0  0  0  0  0  0  0  0  0  0  0  0
   31.8625  -22.7661  -10.0776 N   0  0  0  0  0  0  0  0  0  0  0  0
   30.6247  -22.2938   -9.5342 C   0  0  0  0  0  0  0  0  0  0  0  0
   30.3505  -22.4147   -8.3008 N   0  0  0  0  0  0  0  0  0  0  0  0
   29.6813  -21.6742  -10.4016 N   0  0  0  0  0  0  0  0  0  0  0  0
   30.0064  -21.4964  -11.7929 C   0  0  0  0  0  0  0  0  0  0  0  0
   28.9074  -20.7436  -12.5183 C   0  0  0  0  0  0  0  0  0  0  0  0
   27.5999  -21.2127  -11.9782 C   0  0  0  0  0  0  0  0  0  0  0  0
   26.3907  -20.4743  -12.5206 C   0  0  2  0  0  0  0  0  0  0  0  0
   25.1316  -20.9005  -12.0289 N   0  0  0  0  0  0  0  0  0  0  0  0
   26.4874  -20.4142  -13.9817 C   0  0  0  0  0  0  0  0  0  0  0  0
   26.2785  -21.4651  -14.6989 O   0  0  0  0  0  0  0  0  0  0  0  0
   29.4974  -22.0602   -7.8593 N   0  0  0  0  0  0  0  0  0  0  0  0
   26.8061  -19.2308  -14.6712 C   0  0  2  0  0  0  0  0  0  0  0  0
   26.8147  -19.2339  -16.1489 C   0  0  0  0  0  0  0  0  0  0  0  0
   27.1053  -17.8430  -16.5976 C   0  0  0  0  0  0  0  0  0  0  0  0
   27.1505  -17.6647  -18.0439 C   0  0  0  0  0  0  0  0  0  0  0  0
   26.8846  -18.6569  -18.9870 N   0  0  0  0  0  0  0  0  0  0  0  0
   27.0227  -18.1279  -20.2077 C   0  0  0  0  0  0  0  0  0  0  0  0
   27.3643  -16.8451  -20.0864 N   0  0  0  0  0  0  0  0  0  0  0  0
   27.4366  -16.5840  -18.7691 C   0  0  0  0  0  0  0  0  0  0  0  0
   27.9231  -20.1342  -16.5600 O   0  0  0  0  0  0  0  0  0  0  0  0
   28.9999  -20.1082  -15.9014 O   0  0  0  0  0  0  0  0  0  0  0  0
  2  3  1  0
  2  1  1  1
  4  5  2  0
  4  3  1  0
  6  2  1  0
  7  6  2  0
  8  4  1  0
 10  9  1  0
 10 11  2  0
 12 10  1  0
 13 12  1  0
 13 14  1  0
 14 15  1  0
 16 15  1  6
 16 17  1  0
 17  6  1  0
 18 16  1  0
 18 19  2  0
 20 18  1  0
 21 20  1  0
 21 22  1  1
 23 22  1  0
 24 23  2  0
 25 24  1  0
 25 26  1  0
 26 27  2  0
 27 23  1  0
 28 21  1  0
 29 28  2  0
 30 28  1  0
M  END
$$$$
