DRH.pdb
     RDKit          3D

 30 30  0  0  1  0  0  0  0  0999 V2000
   17.9084  -15.6508  -15.1969 N   0  0  0  0  0  0  0  0  0  0  0  0
   18.1279  -14.5309  -16.0789 C   0  0  1  0  0  0  0  0  0  0  0  0
   16.7902  -13.8744  -16.3544 C   0  0  0  0  0  0  0  0  0  0  0  0
   15.9602  -14.8654  -17.0857 C   0  0  0  0  0  0  0  0  0  0  0  0
   16.5010  -15.7070  -17.8339 O   0  0  0  0  0  0  0  0  0  0  0  0
   19.0950  -13.5903  -15.4532 C   0  0  0  0  0  0  0  0  0  0  0  0
   18.9553  -13.2567  -14.2312 O   0  0  0  0  0  0  0  0  0  0  0  0
   14.5982  -14.8515  -16.9354 O   0  0  0  0  0  0  0  0  0  0  0  0
   27.3333  -13.6709  -16.9610 N   0  0  0  0  0  0  0  0  0  0  0  0
   26.4119  -14.2861  -16.0538 C   0  0  0  0  0  0  0  0  0  0  0  0
   26.6367  -15.4297  -15.5511 N   0  0  0  0  0  0  0  0  0  0  0  0
   25.2159  -13.5952  -15.7099 N   0  0  0  0  0  0  0  0  0  0  0  0
   25.0023  -12.2584  -16.2004 C   0  0  0  0  0  0  0  0  0  0  0  0
   23.6720  -11.7079  -15.7231 C   0  0  0  0  0  0  0  0  0  0  0  0
   22.6025  -12.6408  -16.1784 C   0  0  0  0  0  0  0  0  0  0  0  0
   21.1936  -12.2139  -15.8120 C   0  0  2  0  0  0  0  0  0  0  0  0
   20.1540  -13.0825  -16.2285 N   0  0  0  0  0  0  0  0  0  0  0  0
   21.0080  -10.8115  -16.1951 C   0  0  0  0  0  0  0  0  0  0  0  0
   21.0368  -10.4586  -17.4348 O   0  0  0  0  0  0  0  0  0  0  0  0
   25.9613  -15.9609  -14.9943 N   0  0  0  0  0  0  0  0  0  0  0  0
   20.7912   -9.7915  -15.2517 C   0  0  1  0  0  0  0  0  0  0  0  0
   20.5485   -8.4114  -15.7208 C   0  0  0  0  0  0  0  0  0  0  0  0
   19.1120   -8.1012  -15.4744 C   0  0  0  0  0  0  0  0  0  0  0  0
   18.7183   -6.7348  -15.7960 C   0  0  0  0  0  0  0  0  0  0  0  0
   19.5377   -5.7804  -16.3981 N   0  0  0  0  0  0  0  0  0  0  0  0
   18.8379   -4.6490  -16.5366 C   0  0  0  0  0  0  0  0  0  0  0  0
   17.6110   -4.8378  -16.0508 N   0  0  0  0  0  0  0  0  0  0  0  0
   17.5584   -6.1064  -15.6073 C   0  0  0  0  0  0  0  0  0  0  0  0
   21.4018   -7.5279  -14.8846 O   0  0  0  0  0  0  0  0  0  0  0  0
   21.8968   -7.9946  -13.8210 O   0  0  0  0  0  0  0  0  0  0  0  0
  2  3  1  0
  2  1  1  1
  4  5  2  0
  4  3  1  0
  6  2  1  0
  7  6  2  0
  8  4  1  0
 10  9  1  0
 10 11  2  0
 12 10  1  0
 13 12  1  0
 13 14  1  0
 14 15  1  0
 16 15  1  6
 16 17  1  0
 17  6  1  0
 18 16  1  0
 18 19  2  0
 20 18  1  0
 21 20  1  0
 21 22  1  6
 23 22  1  0
 24 23  2  0
 25 24  1  0
 25 26  1  0
 26 27  2  0
 27 23  1  0
 28 21  1  0
 29 28  2  0
 30 28  1  0
M  END
$$$$
