DRH.pdb
     RDKit          3D

 30 30  0  0  1  0  0  0  0  0999 V2000
   25.0767   -3.2978  -17.4998 N   0  0  0  0  0  0  0  0  0  0  0  0
   23.9221   -3.3736  -18.3609 C   0  0  1  0  0  0  0  0  0  0  0  0
   24.3499   -2.9910  -19.7633 C   0  0  0  0  0  0  0  0  0  0  0  0
   24.4594   -1.5103  -19.7974 C   0  0  0  0  0  0  0  0  0  0  0  0
   24.2953   -0.8445  -18.7532 O   0  0  0  0  0  0  0  0  0  0  0  0
   23.3517   -4.7458  -18.3042 C   0  0  0  0  0  0  0  0  0  0  0  0
   22.2883   -5.0180  -18.9517 O   0  0  0  0  0  0  0  0  0  0  0  0
   24.7414   -0.8784  -20.9802 O   0  0  0  0  0  0  0  0  0  0  0  0
   27.7839  -11.7101  -15.5295 N   0  0  0  0  0  0  0  0  0  0  0  0
   27.7196  -10.9733  -16.7556 C   0  0  0  0  0  0  0  0  0  0  0  0
   28.6734  -10.9905  -17.5929 N   0  0  0  0  0  0  0  0  0  0  0  0
   26.5560  -10.2039  -17.0388 N   0  0  0  0  0  0  0  0  0  0  0  0
   25.4647  -10.1954  -16.0996 C   0  0  0  0  0  0  0  0  0  0  0  0
   24.2806   -9.4206  -16.6457 C   0  0  0  0  0  0  0  0  0  0  0  0
   24.6836   -7.9900  -16.7568 C   0  0  0  0  0  0  0  0  0  0  0  0
   23.6268   -7.0805  -17.3549 C   0  0  2  0  0  0  0  0  0  0  0  0
   24.0021   -5.7251  -17.5306 N   0  0  0  0  0  0  0  0  0  0  0  0
   22.3673   -7.2768  -16.6318 C   0  0  0  0  0  0  0  0  0  0  0  0
   22.2101   -6.8026  -15.4431 O   0  0  0  0  0  0  0  0  0  0  0  0
   28.6638  -10.5016  -18.4924 N   0  0  0  0  0  0  0  0  0  0  0  0
   21.2799   -7.9783  -17.1820 C   0  0  2  0  0  0  0  0  0  0  0  0
   20.0441   -8.1369  -16.3875 C   0  0  0  0  0  0  0  0  0  0  0  0
   18.8947   -8.0962  -17.3349 C   0  0  0  0  0  0  0  0  0  0  0  0
   17.5856   -8.2605  -16.7146 C   0  0  0  0  0  0  0  0  0  0  0  0
   17.3374   -8.2527  -15.3423 N   0  0  0  0  0  0  0  0  0  0  0  0
   16.0258   -8.4296  -15.1489 C   0  0  0  0  0  0  0  0  0  0  0  0
   15.4268   -8.5498  -16.3336 N   0  0  0  0  0  0  0  0  0  0  0  0
   16.3878   -8.4447  -17.2686 C   0  0  0  0  0  0  0  0  0  0  0  0
   20.1225   -9.4783  -15.7531 O   0  0  0  0  0  0  0  0  0  0  0  0
   20.7858  -10.3836  -16.3315 O   0  0  0  0  0  0  0  0  0  0  0  0
  2  3  1  0
  2  1  1  1
  4  5  2  0
  4  3  1  0
  6  2  1  0
  7  6  2  0
  8  4  1  0
 10  9  1  0
 10 11  2  0
 12 10  1  0
 13 12  1  0
 13 14  1  0
 14 15  1  0
 16 15  1  1
 16 17  1  0
 17  6  1  0
 18 16  1  0
 18 19  2  0
 20 18  1  0
 21 20  1  0
 21 22  1  6
 23 22  1  0
 24 23  2  0
 25 24  1  0
 25 26  1  0
 26 27  2  0
 27 23  1  0
 28 21  1  0
 29 28  2  0
 30 28  1  0
M  END
$$$$
