DRH.pdb
     RDKit          3D

 30 30  0  0  1  0  0  0  0  0999 V2000
   19.2453  -30.2033   -2.6191 N   0  0  0  0  0  0  0  0  0  0  0  0
   18.9280  -31.5071   -2.0902 C   0  0  1  0  0  0  0  0  0  0  0  0
   17.5581  -31.9058   -2.6006 C   0  0  0  0  0  0  0  0  0  0  0  0
   16.5578  -31.1694   -1.7866 C   0  0  0  0  0  0  0  0  0  0  0  0
   16.9303  -30.4410   -0.8425 O   0  0  0  0  0  0  0  0  0  0  0  0
   19.9808  -32.4756   -2.4967 C   0  0  0  0  0  0  0  0  0  0  0  0
   19.9026  -33.6914   -2.1229 O   0  0  0  0  0  0  0  0  0  0  0  0
   15.2242  -31.2931   -2.0766 O   0  0  0  0  0  0  0  0  0  0  0  0
   25.3188  -31.7640   -9.4791 N   0  0  0  0  0  0  0  0  0  0  0  0
   25.8448  -32.9303   -8.8361 C   0  0  0  0  0  0  0  0  0  0  0  0
   26.7611  -33.6280   -9.3698 N   0  0  0  0  0  0  0  0  0  0  0  0
   25.3250  -33.3134   -7.5676 N   0  0  0  0  0  0  0  0  0  0  0  0
   24.3080  -32.5069   -6.9443 C   0  0  0  0  0  0  0  0  0  0  0  0
   23.8526  -33.1195   -5.6336 C   0  0  0  0  0  0  0  0  0  0  0  0
   22.7559  -32.2694   -5.0895 C   0  0  0  0  0  0  0  0  0  0  0  0
   22.1231  -32.7943   -3.8145 C   0  0  2  0  0  0  0  0  0  0  0  0
   21.0515  -32.0275   -3.2925 N   0  0  0  0  0  0  0  0  0  0  0  0
   23.1829  -33.0991   -2.8493 C   0  0  0  0  0  0  0  0  0  0  0  0
   23.8374  -32.1515   -2.2694 O   0  0  0  0  0  0  0  0  0  0  0  0
   27.1622  -34.4734   -8.9542 N   0  0  0  0  0  0  0  0  0  0  0  0
   23.5388  -34.4156   -2.5065 C   0  0  2  0  0  0  0  0  0  0  0  0
   24.6265  -34.6410   -1.5319 C   0  0  0  0  0  0  0  0  0  0  0  0
   24.5364  -36.0582   -1.0806 C   0  0  0  0  0  0  0  0  0  0  0  0
   23.6080  -36.2913    0.0191 C   0  0  0  0  0  0  0  0  0  0  0  0
   22.5711  -35.4372    0.3932 N   0  0  0  0  0  0  0  0  0  0  0  0
   21.9342  -35.9776    1.4379 C   0  0  0  0  0  0  0  0  0  0  0  0
   22.5169  -37.1360    1.7469 N   0  0  0  0  0  0  0  0  0  0  0  0
   23.5278  -37.3081    0.8767 C   0  0  0  0  0  0  0  0  0  0  0  0
   25.8998  -34.4302   -2.2681 O   0  0  0  0  0  0  0  0  0  0  0  0
   25.8654  -34.3560   -3.5280 O   0  0  0  0  0  0  0  0  0  0  0  0
  2  3  1  0
  2  1  1  6
  4  5  2  0
  4  3  1  0
  6  2  1  0
  7  6  2  0
  8  4  1  0
 10  9  1  0
 10 11  2  0
 12 10  1  0
 13 12  1  0
 13 14  1  0
 14 15  1  0
 16 15  1  6
 16 17  1  0
 17  6  1  0
 18 16  1  0
 18 19  2  0
 20 18  1  0
 21 20  1  0
 21 22  1  6
 23 22  1  0
 24 23  2  0
 25 24  1  0
 25 26  1  0
 26 27  2  0
 27 23  1  0
 28 21  1  0
 29 28  2  0
 30 28  1  0
M  END
$$$$
