VII.pdb
     RDKit          3D

 24 23  0  0  1  0  0  0  0  0999 V2000
    6.8374  -18.2435   20.3498 C   0  0  0  0  0  0  0  0  0  0  0  0
    7.5898  -17.5568   21.4676 C   0  0  1  0  0  0  0  0  0  0  0  0
    8.9195  -18.1779   21.6859 C   0  0  0  0  0  0  0  0  0  0  0  0
    7.5726  -16.0678   21.3140 C   0  0  2  0  0  0  0  0  0  0  0  0
    8.2391  -15.7691   20.0543 N   0  0  0  0  0  0  0  0  0  0  0  0
    8.2175  -15.3121   22.3989 C   0  0  0  0  0  0  0  0  0  0  0  0
    9.4417  -15.0068   22.2804 O   0  0  0  0  0  0  0  0  0  0  0  0
    5.6342  -11.6526   25.5730 C   0  0  0  0  0  0  0  0  0  0  0  0
    6.6232  -12.4083   24.6963 C   0  0  0  0  0  0  0  0  0  0  0  0
    7.3104  -13.4600   25.5352 C   0  0  2  0  0  0  0  0  0  0  0  0
    7.9425  -12.9012   26.7652 C   0  0  0  0  0  0  0  0  0  0  0  0
    8.2957  -14.2427   24.6809 C   0  0  2  0  0  0  0  0  0  0  0  0
    7.5916  -14.8776   23.5962 N   0  0  0  0  0  0  0  0  0  0  0  0
    9.0161  -15.1785   25.5698 C   0  0  0  0  0  0  0  0  0  0  0  0
    8.3673  -16.1397   26.0747 O   0  0  0  0  0  0  0  0  0  0  0  0
   10.0041  -13.8793   29.9722 C   0  0  0  0  0  0  0  0  0  0  0  0
   10.4606  -14.2174   28.5912 C   0  0  0  0  0  0  0  0  0  0  0  0
   10.5650  -15.6667   28.2766 C   0  0  2  0  0  0  0  0  0  0  0  0
   11.4189  -16.3971   29.3204 C   0  0  0  0  0  0  0  0  0  0  0  0
   10.9839  -16.0038   26.8929 C   0  0  2  0  0  0  0  0  0  0  0  0
   10.3833  -15.0968   25.9131 N   0  0  0  0  0  0  0  0  0  0  0  0
   10.7584  -17.4142   26.5804 C   0  0  0  0  0  0  0  0  0  0  0  0
   11.8665  -18.2322   26.3223 O   0  0  0  0  0  0  0  0  0  0  0  0
    9.6266  -17.9500   26.5283 O   0  0  0  0  0  0  0  0  0  0  0  0
  2  1  1  6
  2  4  1  0
  3  2  1  0
  4  6  1  0
  4  5  1  6
  6  7  2  0
  9  8  1  0
  9 10  1  0
 10 11  1  1
 12 10  1  0
 12 13  1  6
 13  6  1  0
 14 15  2  0
 14 12  1  0
 16 17  1  0
 17 18  1  0
 18 20  1  0
 18 19  1  1
 20 21  1  6
 21 14  1  0
 22 20  1  0
 22 23  1  0
 24 22  2  0
M  END
$$$$
