VII.pdb
     RDKit          3D

 24 23  0  0  1  0  0  0  0  0999 V2000
    4.9874  -19.6928   22.1685 C   0  0  0  0  0  0  0  0  0  0  0  0
    5.7060  -18.3622   22.1899 C   0  0  1  0  0  0  0  0  0  0  0  0
    4.7510  -17.2303   22.0997 C   0  0  0  0  0  0  0  0  0  0  0  0
    6.7109  -18.2931   23.2973 C   0  0  2  0  0  0  0  0  0  0  0  0
    5.9766  -18.4777   24.5411 N   0  0  0  0  0  0  0  0  0  0  0  0
    7.4884  -17.0464   23.3696 C   0  0  0  0  0  0  0  0  0  0  0  0
    8.3694  -16.8293   22.4850 O   0  0  0  0  0  0  0  0  0  0  0  0
    5.4731  -12.7951   25.9967 C   0  0  0  0  0  0  0  0  0  0  0  0
    6.2170  -13.5320   24.8916 C   0  0  0  0  0  0  0  0  0  0  0  0
    7.6093  -13.8591   25.3783 C   0  0  2  0  0  0  0  0  0  0  0  0
    8.4703  -12.6510   25.5325 C   0  0  0  0  0  0  0  0  0  0  0  0
    8.2400  -14.9100   24.4778 C   0  0  2  0  0  0  0  0  0  0  0  0
    7.3480  -16.0345   24.3546 N   0  0  0  0  0  0  0  0  0  0  0  0
    9.5666  -15.2435   25.0379 C   0  0  0  0  0  0  0  0  0  0  0  0
   10.4611  -14.3494   25.0243 O   0  0  0  0  0  0  0  0  0  0  0  0
   10.0747  -13.5871   29.1152 C   0  0  0  0  0  0  0  0  0  0  0  0
   10.6078  -14.3596   27.9536 C   0  0  0  0  0  0  0  0  0  0  0  0
   10.2522  -15.8026   27.9131 C   0  0  2  0  0  0  0  0  0  0  0  0
   10.5535  -16.4823   29.2543 C   0  0  0  0  0  0  0  0  0  0  0  0
   10.8010  -16.5762   26.7711 C   0  0  2  0  0  0  0  0  0  0  0  0
    9.9334  -16.4880   25.5952 N   0  0  0  0  0  0  0  0  0  0  0  0
   11.1197  -17.9533   27.1450 C   0  0  0  0  0  0  0  0  0  0  0  0
   10.3595  -18.9937   26.5941 O   0  0  0  0  0  0  0  0  0  0  0  0
   12.0398  -18.2720   27.9340 O   0  0  0  0  0  0  0  0  0  0  0  0
  2  1  1  1
  2  4  1  0
  3  2  1  0
  4  6  1  0
  4  5  1  1
  6  7  2  0
  9  8  1  0
  9 10  1  0
 10 11  1  6
 12 10  1  0
 12 13  1  1
 13  6  1  0
 14 15  2  0
 14 12  1  0
 16 17  1  0
 17 18  1  0
 18 20  1  0
 18 19  1  1
 20 21  1  6
 21 14  1  0
 22 20  1  0
 22 23  1  0
 24 22  2  0
M  END
$$$$
