VII.pdb
     RDKit          3D

 24 23  0  0  1  0  0  0  0  0999 V2000
   12.4065  -20.1445   20.0197 C   0  0  0  0  0  0  0  0  0  0  0  0
   12.2090  -19.0172   21.0085 C   0  0  1  0  0  0  0  0  0  0  0  0
   13.3815  -18.8734   21.9061 C   0  0  0  0  0  0  0  0  0  0  0  0
   11.7337  -17.7672   20.3358 C   0  0  2  0  0  0  0  0  0  0  0  0
   12.8595  -17.2492   19.5712 N   0  0  0  0  0  0  0  0  0  0  0  0
   11.2293  -16.7174   21.2344 C   0  0  0  0  0  0  0  0  0  0  0  0
   12.0524  -15.8784   21.7084 O   0  0  0  0  0  0  0  0  0  0  0  0
    6.5408  -14.1567   20.6567 C   0  0  0  0  0  0  0  0  0  0  0  0
    7.9953  -14.4036   21.0325 C   0  0  0  0  0  0  0  0  0  0  0  0
    8.0375  -15.1468   22.3471 C   0  0  2  0  0  0  0  0  0  0  0  0
    7.4446  -14.3697   23.4737 C   0  0  0  0  0  0  0  0  0  0  0  0
    9.4590  -15.6013   22.6406 C   0  0  2  0  0  0  0  0  0  0  0  0
    9.8790  -16.5431   21.6346 N   0  0  0  0  0  0  0  0  0  0  0  0
    9.4849  -16.1316   24.0200 C   0  0  0  0  0  0  0  0  0  0  0  0
    9.3477  -17.3785   24.1818 O   0  0  0  0  0  0  0  0  0  0  0  0
   10.4264  -12.6089   28.2547 C   0  0  0  0  0  0  0  0  0  0  0  0
   10.6621  -13.7527   27.3240 C   0  0  0  0  0  0  0  0  0  0  0  0
    9.8708  -14.9827   27.5907 C   0  0  2  0  0  0  0  0  0  0  0  0
   10.2642  -15.6108   28.9333 C   0  0  0  0  0  0  0  0  0  0  0  0
    9.8465  -15.9900   26.5006 C   0  0  2  0  0  0  0  0  0  0  0  0
    9.6511  -15.3624   25.1924 N   0  0  0  0  0  0  0  0  0  0  0  0
    8.8912  -17.0641   26.7682 C   0  0  0  0  0  0  0  0  0  0  0  0
    9.3553  -18.2454   27.3623 O   0  0  0  0  0  0  0  0  0  0  0  0
    7.6685  -16.9996   26.5007 O   0  0  0  0  0  0  0  0  0  0  0  0
  2  1  1  6
  2  4  1  0
  3  2  1  0
  4  6  1  0
  4  5  1  1
  6  7  2  0
  9  8  1  0
  9 10  1  0
 10 11  1  1
 12 10  1  0
 12 13  1  6
 13  6  1  0
 14 15  2  0
 14 12  1  0
 16 17  1  0
 17 18  1  0
 18 20  1  0
 18 19  1  1
 20 21  1  6
 21 14  1  0
 22 20  1  0
 22 23  1  0
 24 22  2  0
M  END
$$$$
