VII.pdb
     RDKit          3D

 24 23  0  0  1  0  0  0  0  0999 V2000
    7.7004  -15.5192   18.5271 C   0  0  0  0  0  0  0  0  0  0  0  0
    8.0820  -14.8006   19.8020 C   0  0  1  0  0  0  0  0  0  0  0  0
    7.0661  -13.7859   20.1758 C   0  0  0  0  0  0  0  0  0  0  0  0
    8.4866  -15.7592   20.8784 C   0  0  2  0  0  0  0  0  0  0  0  0
    7.3889  -16.7035   21.0323 N   0  0  0  0  0  0  0  0  0  0  0  0
    8.7957  -15.1528   22.1824 C   0  0  0  0  0  0  0  0  0  0  0  0
    9.8638  -14.4810   22.3006 O   0  0  0  0  0  0  0  0  0  0  0  0
    5.2504  -12.6615   25.4234 C   0  0  0  0  0  0  0  0  0  0  0  0
    6.5040  -13.0743   24.6645 C   0  0  0  0  0  0  0  0  0  0  0  0
    7.1418  -14.2421   25.3798 C   0  0  2  0  0  0  0  0  0  0  0  0
    7.4187  -13.9622   26.8184 C   0  0  0  0  0  0  0  0  0  0  0  0
    8.3834  -14.6956   24.6275 C   0  0  2  0  0  0  0  0  0  0  0  0
    7.9983  -15.2451   23.3527 N   0  0  0  0  0  0  0  0  0  0  0  0
    9.1179  -15.6365   25.4993 C   0  0  0  0  0  0  0  0  0  0  0  0
    8.9288  -16.8758   25.3315 O   0  0  0  0  0  0  0  0  0  0  0  0
   10.9058  -13.5493   29.9673 C   0  0  0  0  0  0  0  0  0  0  0  0
   11.3959  -14.3356   28.7961 C   0  0  0  0  0  0  0  0  0  0  0  0
   10.9434  -15.7501   28.7264 C   0  0  2  0  0  0  0  0  0  0  0  0
   11.8866  -16.6698   29.5114 C   0  0  0  0  0  0  0  0  0  0  0  0
   10.6681  -16.2790   27.3669 C   0  0  2  0  0  0  0  0  0  0  0  0
   10.0252  -15.2738   26.5186 N   0  0  0  0  0  0  0  0  0  0  0  0
    9.9369  -17.5444   27.4090 C   0  0  0  0  0  0  0  0  0  0  0  0
   10.6179  -18.7265   27.0886 O   0  0  0  0  0  0  0  0  0  0  0  0
    8.7266  -17.6464   27.7177 O   0  0  0  0  0  0  0  0  0  0  0  0
  2  1  1  6
  2  4  1  0
  3  2  1  0
  4  6  1  0
  4  5  1  1
  6  7  2  0
  9  8  1  0
  9 10  1  0
 10 11  1  1
 12 10  1  0
 12 13  1  6
 13  6  1  0
 14 15  2  0
 14 12  1  0
 16 17  1  0
 17 18  1  0
 18 20  1  0
 18 19  1  6
 20 21  1  6
 21 14  1  0
 22 20  1  0
 22 23  1  0
 24 22  2  0
M  END
$$$$
