VII.pdb
     RDKit          3D

 24 23  0  0  1  0  0  0  0  0999 V2000
    5.9598  -19.2791   24.9610 C   0  0  0  0  0  0  0  0  0  0  0  0
    6.3199  -20.0082   23.6859 C   0  0  1  0  0  0  0  0  0  0  0  0
    5.4319  -21.1755   23.4611 C   0  0  0  0  0  0  0  0  0  0  0  0
    6.4769  -19.0652   22.5339 C   0  0  2  0  0  0  0  0  0  0  0  0
    6.9806  -19.8504   21.4158 N   0  0  0  0  0  0  0  0  0  0  0  0
    7.3714  -17.9214   22.7696 C   0  0  0  0  0  0  0  0  0  0  0  0
    8.5967  -18.1477   23.0006 O   0  0  0  0  0  0  0  0  0  0  0  0
    6.9395  -13.1368   20.2420 C   0  0  0  0  0  0  0  0  0  0  0  0
    7.4605  -14.4008   20.9118 C   0  0  0  0  0  0  0  0  0  0  0  0
    7.4338  -14.2028   22.4093 C   0  0  2  0  0  0  0  0  0  0  0  0
    8.2076  -13.0068   22.8516 C   0  0  0  0  0  0  0  0  0  0  0  0
    7.8837  -15.4761   23.1089 C   0  0  2  0  0  0  0  0  0  0  0  0
    6.9923  -16.5539   22.7638 N   0  0  0  0  0  0  0  0  0  0  0  0
    7.9607  -15.1895   24.5569 C   0  0  0  0  0  0  0  0  0  0  0  0
    6.8924  -14.8852   25.1619 O   0  0  0  0  0  0  0  0  0  0  0  0
    9.1531  -18.5279   28.1333 C   0  0  0  0  0  0  0  0  0  0  0  0
    8.6876  -17.3132   27.4000 C   0  0  0  0  0  0  0  0  0  0  0  0
    9.5035  -16.0851   27.5906 C   0  0  2  0  0  0  0  0  0  0  0  0
    9.6169  -15.7239   29.0768 C   0  0  0  0  0  0  0  0  0  0  0  0
    9.1144  -14.9112   26.7695 C   0  0  2  0  0  0  0  0  0  0  0  0
    9.1355  -15.2242   25.3395 N   0  0  0  0  0  0  0  0  0  0  0  0
    9.8967  -13.7230   27.1068 C   0  0  0  0  0  0  0  0  0  0  0  0
    9.4949  -12.9393   28.1968 O   0  0  0  0  0  0  0  0  0  0  0  0
   10.9171  -13.3527   26.4805 O   0  0  0  0  0  0  0  0  0  0  0  0
  2  1  1  1
  2  4  1  0
  3  2  1  0
  4  6  1  0
  4  5  1  6
  6  7  2  0
  9  8  1  0
  9 10  1  0
 10 11  1  6
 12 10  1  0
 12 13  1  1
 13  6  1  0
 14 15  2  0
 14 12  1  0
 16 17  1  0
 17 18  1  0
 18 20  1  0
 18 19  1  1
 20 21  1  6
 21 14  1  0
 22 20  1  0
 22 23  1  0
 24 22  2  0
M  END
$$$$
