VII.pdb
     RDKit          3D

 24 23  0  0  1  0  0  0  0  0999 V2000
    8.4701  -12.5799   19.6363 C   0  0  0  0  0  0  0  0  0  0  0  0
    7.8122  -13.9356   19.5076 C   0  0  1  0  0  0  0  0  0  0  0  0
    7.5776  -14.2902   18.0861 C   0  0  0  0  0  0  0  0  0  0  0  0
    8.5041  -14.9686   20.3415 C   0  0  2  0  0  0  0  0  0  0  0  0
    7.6470  -16.1457   20.3460 N   0  0  0  0  0  0  0  0  0  0  0  0
    8.7958  -14.5716   21.7275 C   0  0  0  0  0  0  0  0  0  0  0  0
    9.7970  -13.8261   21.9466 O   0  0  0  0  0  0  0  0  0  0  0  0
    5.8637  -12.8531   26.6566 C   0  0  0  0  0  0  0  0  0  0  0  0
    7.2139  -13.2028   26.0464 C   0  0  0  0  0  0  0  0  0  0  0  0
    6.9958  -14.1729   24.9089 C   0  0  2  0  0  0  0  0  0  0  0  0
    6.3113  -15.4269   25.3372 C   0  0  0  0  0  0  0  0  0  0  0  0
    8.3132  -14.4444   24.1990 C   0  0  2  0  0  0  0  0  0  0  0  0
    8.0501  -14.9474   22.8750 N   0  0  0  0  0  0  0  0  0  0  0  0
    9.1028  -15.3577   25.0517 C   0  0  0  0  0  0  0  0  0  0  0  0
    9.3654  -16.5117   24.6055 O   0  0  0  0  0  0  0  0  0  0  0  0
   10.8353  -13.3527   29.7815 C   0  0  0  0  0  0  0  0  0  0  0  0
   11.1707  -14.0519   28.5053 C   0  0  0  0  0  0  0  0  0  0  0  0
   10.7828  -15.4849   28.4266 C   0  0  2  0  0  0  0  0  0  0  0  0
   11.8161  -16.3749   29.1280 C   0  0  0  0  0  0  0  0  0  0  0  0
   10.4484  -15.9953   27.0733 C   0  0  2  0  0  0  0  0  0  0  0  0
    9.5984  -15.0562   26.3391 N   0  0  0  0  0  0  0  0  0  0  0  0
    9.8988  -17.3494   27.1187 C   0  0  0  0  0  0  0  0  0  0  0  0
    8.5413  -17.5151   27.4241 O   0  0  0  0  0  0  0  0  0  0  0  0
   10.5671  -18.3865   26.8987 O   0  0  0  0  0  0  0  0  0  0  0  0
  2  1  1  6
  2  4  1  0
  3  2  1  0
  4  6  1  0
  4  5  1  1
  6  7  2  0
  9  8  1  0
  9 10  1  0
 10 11  1  1
 12 10  1  0
 12 13  1  6
 13  6  1  0
 14 15  2  0
 14 12  1  0
 16 17  1  0
 17 18  1  0
 18 20  1  0
 18 19  1  6
 20 21  1  1
 21 14  1  0
 22 20  1  0
 22 23  1  0
 24 22  2  0
M  END
$$$$
