VII.pdb
     RDKit          3D

 24 23  0  0  1  0  0  0  0  0999 V2000
    6.3234  -20.7435   24.1709 C   0  0  0  0  0  0  0  0  0  0  0  0
    7.0933  -19.4524   24.3374 C   0  0  1  0  0  0  0  0  0  0  0  0
    8.5513  -19.6660   24.1642 C   0  0  0  0  0  0  0  0  0  0  0  0
    6.4883  -18.3397   23.5392 C   0  0  2  0  0  0  0  0  0  0  0  0
    6.5015  -18.7677   22.1475 N   0  0  0  0  0  0  0  0  0  0  0  0
    7.1627  -17.0376   23.6562 C   0  0  0  0  0  0  0  0  0  0  0  0
    8.2160  -16.8377   22.9805 O   0  0  0  0  0  0  0  0  0  0  0  0
    6.5703  -11.4347   26.3140 C   0  0  0  0  0  0  0  0  0  0  0  0
    7.3933  -12.4031   25.4757 C   0  0  0  0  0  0  0  0  0  0  0  0
    6.6598  -13.7215   25.3972 C   0  0  2  0  0  0  0  0  0  0  0  0
    6.2398  -14.2338   26.7336 C   0  0  0  0  0  0  0  0  0  0  0  0
    7.4918  -14.7326   24.6235 C   0  0  2  0  0  0  0  0  0  0  0  0
    6.7425  -15.9533   24.4695 N   0  0  0  0  0  0  0  0  0  0  0  0
    8.7781  -14.8931   25.3339 C   0  0  0  0  0  0  0  0  0  0  0  0
    9.5010  -13.8681   25.4964 O   0  0  0  0  0  0  0  0  0  0  0  0
   10.2080  -12.9387   28.8998 C   0  0  0  0  0  0  0  0  0  0  0  0
   10.3129  -13.8043   27.6874 C   0  0  0  0  0  0  0  0  0  0  0  0
   10.2595  -15.2705   27.9278 C   0  0  2  0  0  0  0  0  0  0  0  0
   11.1923  -15.6751   29.0758 C   0  0  0  0  0  0  0  0  0  0  0  0
   10.4525  -16.1329   26.7350 C   0  0  2  0  0  0  0  0  0  0  0  0
    9.2823  -16.1045   25.8556 N   0  0  0  0  0  0  0  0  0  0  0  0
   10.8615  -17.4884   27.0994 C   0  0  0  0  0  0  0  0  0  0  0  0
   12.2289  -17.7683   27.2253 O   0  0  0  0  0  0  0  0  0  0  0  0
   10.0624  -18.4303   27.3114 O   0  0  0  0  0  0  0  0  0  0  0  0
  2  1  1  6
  2  4  1  0
  3  2  1  0
  4  6  1  0
  4  5  1  6
  6  7  2  0
  9  8  1  0
  9 10  1  0
 10 11  1  1
 12 10  1  0
 12 13  1  1
 13  6  1  0
 14 15  2  0
 14 12  1  0
 16 17  1  0
 17 18  1  0
 18 20  1  0
 18 19  1  1
 20 21  1  1
 21 14  1  0
 22 20  1  0
 22 23  1  0
 24 22  2  0
M  END
$$$$
