VII.pdb
     RDKit          3D

 24 23  0  0  1  0  0  0  0  0999 V2000
    6.8796  -20.7391   19.8212 C   0  0  0  0  0  0  0  0  0  0  0  0
    7.7686  -19.5162   19.7851 C   0  0  1  0  0  0  0  0  0  0  0  0
    7.4351  -18.6387   18.6362 C   0  0  0  0  0  0  0  0  0  0  0  0
    7.8500  -18.8507   21.1237 C   0  0  2  0  0  0  0  0  0  0  0  0
    6.4806  -18.6622   21.5815 N   0  0  0  0  0  0  0  0  0  0  0  0
    8.5548  -17.5598   21.1470 C   0  0  0  0  0  0  0  0  0  0  0  0
    9.8053  -17.5481   20.9417 O   0  0  0  0  0  0  0  0  0  0  0  0
    6.8013  -12.8461   19.1650 C   0  0  0  0  0  0  0  0  0  0  0  0
    7.7922  -13.9165   19.6009 C   0  0  0  0  0  0  0  0  0  0  0  0
    7.9037  -13.8901   21.1073 C   0  0  2  0  0  0  0  0  0  0  0  0
    8.4300  -12.5956   21.6289 C   0  0  0  0  0  0  0  0  0  0  0  0
    8.7160  -15.0826   21.5882 C   0  0  2  0  0  0  0  0  0  0  0  0
    7.9614  -16.2921   21.3813 N   0  0  0  0  0  0  0  0  0  0  0  0
    9.0909  -14.8321   22.9959 C   0  0  0  0  0  0  0  0  0  0  0  0
   10.1068  -14.1136   23.2232 O   0  0  0  0  0  0  0  0  0  0  0  0
    7.0868  -11.9282   27.4687 C   0  0  0  0  0  0  0  0  0  0  0  0
    7.9633  -13.0985   27.1650 C   0  0  0  0  0  0  0  0  0  0  0  0
    7.6806  -13.8103   25.8907 C   0  0  2  0  0  0  0  0  0  0  0  0
    6.2597  -14.3874   25.8853 C   0  0  0  0  0  0  0  0  0  0  0  0
    8.6843  -14.8212   25.4735 C   0  0  2  0  0  0  0  0  0  0  0  0
    8.4092  -15.3290   24.1281 N   0  0  0  0  0  0  0  0  0  0  0  0
    8.8369  -15.8839   26.4660 C   0  0  0  0  0  0  0  0  0  0  0  0
    9.4257  -15.5739   27.6993 O   0  0  0  0  0  0  0  0  0  0  0  0
    8.4710  -17.0693   26.2879 O   0  0  0  0  0  0  0  0  0  0  0  0
  2  1  1  1
  2  4  1  0
  3  2  1  0
  4  6  1  0
  4  5  1  6
  6  7  2  0
  9  8  1  0
  9 10  1  0
 10 11  1  6
 12 10  1  0
 12 13  1  1
 13  6  1  0
 14 15  2  0
 14 12  1  0
 16 17  1  0
 17 18  1  0
 18 20  1  0
 18 19  1  1
 20 21  1  6
 21 14  1  0
 22 20  1  0
 22 23  1  0
 24 22  2  0
M  END
$$$$
