VII.pdb
     RDKit          3D

 24 23  0  0  1  0  0  0  0  0999 V2000
    8.3301  -20.1512   24.9657 C   0  0  0  0  0  0  0  0  0  0  0  0
    6.8941  -19.6809   24.9017 C   0  0  1  0  0  0  0  0  0  0  0  0
    6.5202  -18.9178   26.1180 C   0  0  0  0  0  0  0  0  0  0  0  0
    6.5823  -19.0295   23.5904 C   0  0  2  0  0  0  0  0  0  0  0  0
    6.6177  -20.0798   22.5824 N   0  0  0  0  0  0  0  0  0  0  0  0
    7.4882  -17.9407   23.1932 C   0  0  0  0  0  0  0  0  0  0  0  0
    8.6475  -18.2383   22.7767 O   0  0  0  0  0  0  0  0  0  0  0  0
    6.1628  -13.3875   20.5101 C   0  0  0  0  0  0  0  0  0  0  0  0
    6.9260  -14.6017   21.0209 C   0  0  0  0  0  0  0  0  0  0  0  0
    7.4541  -14.2968   22.4031 C   0  0  2  0  0  0  0  0  0  0  0  0
    8.3126  -13.0777   22.4419 C   0  0  0  0  0  0  0  0  0  0  0  0
    8.1573  -15.5200   22.9712 C   0  0  2  0  0  0  0  0  0  0  0  0
    7.1882  -16.5541   23.2291 N   0  0  0  0  0  0  0  0  0  0  0  0
    8.9182  -15.0876   24.1623 C   0  0  0  0  0  0  0  0  0  0  0  0
    9.5172  -13.9746   24.1152 O   0  0  0  0  0  0  0  0  0  0  0  0
    6.9578  -12.2502   26.5178 C   0  0  0  0  0  0  0  0  0  0  0  0
    8.0558  -13.1646   26.0841 C   0  0  0  0  0  0  0  0  0  0  0  0
    8.4983  -14.1712   27.0848 C   0  0  2  0  0  0  0  0  0  0  0  0
    8.9631  -13.4936   28.3796 C   0  0  0  0  0  0  0  0  0  0  0  0
    9.4827  -15.1744   26.6073 C   0  0  2  0  0  0  0  0  0  0  0  0
    9.0404  -15.8141   25.3669 N   0  0  0  0  0  0  0  0  0  0  0  0
    9.8370  -16.1345   27.6515 C   0  0  0  0  0  0  0  0  0  0  0  0
    9.4662  -17.4758   27.4868 O   0  0  0  0  0  0  0  0  0  0  0  0
   10.4596  -15.8368   28.6976 O   0  0  0  0  0  0  0  0  0  0  0  0
  2  1  1  1
  2  4  1  0
  3  2  1  0
  4  6  1  0
  4  5  1  6
  6  7  2  0
  9  8  1  0
  9 10  1  0
 10 11  1  6
 12 10  1  0
 12 13  1  1
 13  6  1  0
 14 15  2  0
 14 12  1  0
 16 17  1  0
 17 18  1  0
 18 20  1  0
 18 19  1  1
 20 21  1  6
 21 14  1  0
 22 20  1  0
 22 23  1  0
 24 22  2  0
M  END
$$$$
