VII.pdb
     RDKit          3D

 24 23  0  0  1  0  0  0  0  0999 V2000
    8.3001  -13.0255   18.3957 C   0  0  0  0  0  0  0  0  0  0  0  0
    7.6399  -13.4515   19.6879 C   0  0  1  0  0  0  0  0  0  0  0  0
    6.2568  -13.9352   19.4549 C   0  0  0  0  0  0  0  0  0  0  0  0
    8.5271  -14.3483   20.4940 C   0  0  2  0  0  0  0  0  0  0  0  0
    8.8270  -15.5020   19.6578 N   0  0  0  0  0  0  0  0  0  0  0  0
    7.9683  -14.8059   21.7755 C   0  0  0  0  0  0  0  0  0  0  0  0
    7.5622  -13.9376   22.6043 O   0  0  0  0  0  0  0  0  0  0  0  0
    6.5026  -20.1433   22.5784 C   0  0  0  0  0  0  0  0  0  0  0  0
    6.4374  -18.6229   22.5359 C   0  0  0  0  0  0  0  0  0  0  0  0
    7.3617  -18.0677   23.5941 C   0  0  2  0  0  0  0  0  0  0  0  0
    7.0305  -18.5493   24.9663 C   0  0  0  0  0  0  0  0  0  0  0  0
    7.3994  -16.5499   23.5053 C   0  0  2  0  0  0  0  0  0  0  0  0
    7.8332  -16.1567   22.1890 N   0  0  0  0  0  0  0  0  0  0  0  0
    8.2590  -16.0572   24.6022 C   0  0  0  0  0  0  0  0  0  0  0  0
    9.5029  -16.2740   24.5279 O   0  0  0  0  0  0  0  0  0  0  0  0
    6.6509  -11.5486   27.1210 C   0  0  0  0  0  0  0  0  0  0  0  0
    7.5122  -12.5690   26.4524 C   0  0  0  0  0  0  0  0  0  0  0  0
    8.1676  -13.5566   27.3499 C   0  0  2  0  0  0  0  0  0  0  0  0
    9.1779  -12.8719   28.2786 C   0  0  0  0  0  0  0  0  0  0  0  0
    8.7526  -14.7496   26.6880 C   0  0  2  0  0  0  0  0  0  0  0  0
    7.8125  -15.3561   25.7437 N   0  0  0  0  0  0  0  0  0  0  0  0
    9.2883  -15.7057   27.6558 C   0  0  0  0  0  0  0  0  0  0  0  0
    8.5769  -16.8883   27.8985 O   0  0  0  0  0  0  0  0  0  0  0  0
   10.3557  -15.5388   28.2910 O   0  0  0  0  0  0  0  0  0  0  0  0
  2  1  1  6
  2  4  1  0
  3  2  1  0
  4  6  1  0
  4  5  1  6
  6  7  2  0
  9  8  1  0
  9 10  1  0
 10 11  1  1
 12 10  1  0
 12 13  1  6
 13  6  1  0
 14 15  2  0
 14 12  1  0
 16 17  1  0
 17 18  1  0
 18 20  1  0
 18 19  1  6
 20 21  1  1
 21 14  1  0
 22 20  1  0
 22 23  1  0
 24 22  2  0
M  END
$$$$
