PSA.pdb
     RDKit          3D

 19 19  0  0  1  0  0  0  0  0999 V2000
    9.9407  -17.2402   17.4744 N   0  0  0  0  0  0  0  0  0  0  0  0
    9.3418  -18.2690   16.6391 C   0  0  0  0  0  0  0  0  0  0  0  0
    9.1930  -19.4116   17.6103 C   0  0  0  0  0  0  0  0  0  0  0  0
    8.8099  -18.7328   18.9092 C   0  0  0  0  0  0  0  0  0  0  0  0
    9.0897  -17.2957   18.6470 C   0  0  1  0  0  0  0  0  0  0  0  0
    9.6762  -16.5662   19.7839 C   0  0  0  0  0  0  0  0  0  0  0  0
   10.9147  -16.3448   19.7528 O   0  0  0  0  0  0  0  0  0  0  0  0
    7.6327  -15.3391   23.2977 O   0  0  0  0  0  0  0  0  0  0  0  0
    8.6604  -14.6134   22.7425 C   0  0  0  0  0  0  0  0  0  0  0  0
    9.6498  -15.4808   21.9903 C   0  0  2  0  0  0  0  0  0  0  0  0
    8.9568  -16.1016   20.8954 N   0  0  0  0  0  0  0  0  0  0  0  0
   10.2672  -16.4969   22.8802 C   0  0  0  0  0  0  0  0  0  0  0  0
    9.7959  -17.6807   22.9046 O   0  0  0  0  0  0  0  0  0  0  0  0
   13.4779  -16.8667   24.7347 C   0  0  0  0  0  0  0  0  0  0  0  0
   12.0155  -17.2074   24.5486 C   0  0  2  0  0  0  0  0  0  0  0  0
   11.3660  -16.2287   23.7181 N   0  0  0  0  0  0  0  0  0  0  0  0
   11.4057  -17.2356   25.9251 C   0  0  0  0  0  0  0  0  0  0  0  0
   10.5360  -16.3752   26.2072 O   0  0  0  0  0  0  0  0  0  0  0  0
   11.7779  -18.1712   26.8634 O   0  0  0  0  0  0  0  0  0  0  0  0
  1  5  1  0
  2  1  1  0
  2  3  1  0
  3  4  1  0
  5  6  1  1
  5  4  1  0
  6  7  2  0
  8  9  1  0
 10  9  1  1
 11 10  1  0
 11  6  1  0
 12 16  1  0
 12 10  1  0
 13 12  2  0
 15 16  1  0
 15 14  1  1
 17 19  1  0
 17 15  1  0
 18 17  2  0
M  END
$$$$
