PSA.pdb
     RDKit          3D

 19 19  0  0  1  0  0  0  0  0999 V2000
    8.2884  -15.2004   20.3014 N   0  0  0  0  0  0  0  0  0  0  0  0
    8.3228  -14.6244   18.9665 C   0  0  0  0  0  0  0  0  0  0  0  0
    7.4418  -13.4124   19.1272 C   0  0  0  0  0  0  0  0  0  0  0  0
    7.7718  -12.9087   20.5172 C   0  0  0  0  0  0  0  0  0  0  0  0
    8.5379  -14.0312   21.1216 C   0  0  1  0  0  0  0  0  0  0  0  0
    8.2399  -14.2848   22.5413 C   0  0  0  0  0  0  0  0  0  0  0  0
    8.3981  -13.3298   23.3456 O   0  0  0  0  0  0  0  0  0  0  0  0
    7.7722  -18.0220   24.4629 O   0  0  0  0  0  0  0  0  0  0  0  0
    6.8862  -16.9968   24.6973 C   0  0  0  0  0  0  0  0  0  0  0  0
    7.4969  -15.6299   24.4611 C   0  0  2  0  0  0  0  0  0  0  0  0
    7.7938  -15.5098   23.0605 N   0  0  0  0  0  0  0  0  0  0  0  0
    8.7146  -15.4293   25.2873 C   0  0  0  0  0  0  0  0  0  0  0  0
    9.8619  -15.6581   24.7818 O   0  0  0  0  0  0  0  0  0  0  0  0
    9.5903  -13.5337   28.3415 C   0  0  0  0  0  0  0  0  0  0  0  0
    9.8461  -14.7045   27.4179 C   0  0  2  0  0  0  0  0  0  0  0  0
    8.6808  -14.9920   26.6248 N   0  0  0  0  0  0  0  0  0  0  0  0
   10.1997  -15.8733   28.2988 C   0  0  0  0  0  0  0  0  0  0  0  0
    9.4121  -16.8504   28.3338 O   0  0  0  0  0  0  0  0  0  0  0  0
   11.3507  -15.8899   29.0534 O   0  0  0  0  0  0  0  0  0  0  0  0
  1  5  1  0
  2  1  1  0
  2  3  1  0
  3  4  1  0
  5  6  1  1
  5  4  1  0
  6  7  2  0
  8  9  1  0
 10  9  1  6
 11 10  1  0
 11  6  1  0
 12 16  1  0
 12 10  1  0
 13 12  2  0
 15 16  1  0
 15 14  1  1
 17 19  1  0
 17 15  1  0
 18 17  2  0
M  END
$$$$
