PSA.pdb
     RDKit          3D

 19 19  0  0  1  0  0  0  0  0999 V2000
    7.3865  -15.0786   19.6280 N   0  0  0  0  0  0  0  0  0  0  0  0
    6.9153  -14.5383   18.3628 C   0  0  0  0  0  0  0  0  0  0  0  0
    7.2515  -13.0761   18.5036 C   0  0  0  0  0  0  0  0  0  0  0  0
    8.5774  -13.0802   19.2361 C   0  0  0  0  0  0  0  0  0  0  0  0
    8.7047  -14.4815   19.7182 C   0  0  1  0  0  0  0  0  0  0  0  0
    9.2760  -14.6177   21.0687 C   0  0  0  0  0  0  0  0  0  0  0  0
   10.4809  -14.2888   21.2235 O   0  0  0  0  0  0  0  0  0  0  0  0
    7.1648  -15.7133   24.5568 O   0  0  0  0  0  0  0  0  0  0  0  0
    8.2420  -14.8586   24.5476 C   0  0  0  0  0  0  0  0  0  0  0  0
    9.2437  -15.1911   23.4598 C   0  0  2  0  0  0  0  0  0  0  0  0
    8.5766  -15.0858   22.1916 N   0  0  0  0  0  0  0  0  0  0  0  0
    9.8232  -16.5450   23.6508 C   0  0  0  0  0  0  0  0  0  0  0  0
    9.2338  -17.5576   23.1494 O   0  0  0  0  0  0  0  0  0  0  0  0
   13.1403  -17.9483   24.4859 C   0  0  0  0  0  0  0  0  0  0  0  0
   11.6327  -18.0762   24.5031 C   0  0  2  0  0  0  0  0  0  0  0  0
   11.0104  -16.7863   24.3677 N   0  0  0  0  0  0  0  0  0  0  0  0
   11.2737  -18.7117   25.8201 C   0  0  0  0  0  0  0  0  0  0  0  0
   10.5346  -18.0708   26.6070 O   0  0  0  0  0  0  0  0  0  0  0  0
   11.7331  -19.9607   26.1710 O   0  0  0  0  0  0  0  0  0  0  0  0
  1  5  1  0
  2  1  1  0
  2  3  1  0
  3  4  1  0
  5  6  1  1
  5  4  1  0
  6  7  2  0
  8  9  1  0
 10  9  1  1
 11 10  1  0
 11  6  1  0
 12 16  1  0
 12 10  1  0
 13 12  2  0
 15 16  1  0
 15 14  1  1
 17 19  1  0
 17 15  1  0
 18 17  2  0
M  END
$$$$
