PSA.pdb
     RDKit          3D

 19 19  0  0  1  0  0  0  0  0999 V2000
    9.8023  -16.8157   14.8332 N   0  0  0  0  0  0  0  0  0  0  0  0
   10.7850  -17.0280   13.7825 C   0  0  0  0  0  0  0  0  0  0  0  0
   12.0787  -16.7575   14.5063 C   0  0  0  0  0  0  0  0  0  0  0  0
   11.8476  -17.3378   15.8864 C   0  0  0  0  0  0  0  0  0  0  0  0
   10.3805  -17.5798   15.9213 C   0  0  1  0  0  0  0  0  0  0  0  0
    9.7369  -17.2712   17.2094 C   0  0  0  0  0  0  0  0  0  0  0  0
    9.1855  -16.1459   17.3260 O   0  0  0  0  0  0  0  0  0  0  0  0
    9.2141  -19.9719   20.3878 O   0  0  0  0  0  0  0  0  0  0  0  0
    8.3319  -18.9578   20.0972 C   0  0  0  0  0  0  0  0  0  0  0  0
    9.0150  -17.7372   19.5134 C   0  0  2  0  0  0  0  0  0  0  0  0
    9.6941  -18.1377   18.3122 N   0  0  0  0  0  0  0  0  0  0  0  0
    9.9575  -17.1260   20.4847 C   0  0  0  0  0  0  0  0  0  0  0  0
   11.2131  -17.2569   20.3098 O   0  0  0  0  0  0  0  0  0  0  0  0
    9.6527  -14.8480   23.4834 C   0  0  0  0  0  0  0  0  0  0  0  0
   10.4311  -15.7090   22.5128 C   0  0  2  0  0  0  0  0  0  0  0  0
    9.5419  -16.3940   21.6129 N   0  0  0  0  0  0  0  0  0  0  0  0
   11.2144  -16.6889   23.3455 C   0  0  0  0  0  0  0  0  0  0  0  0
   10.8028  -17.8730   23.4134 O   0  0  0  0  0  0  0  0  0  0  0  0
   12.3538  -16.3167   24.0219 O   0  0  0  0  0  0  0  0  0  0  0  0
  1  5  1  0
  2  1  1  0
  2  3  1  0
  3  4  1  0
  5  6  1  1
  5  4  1  0
  6  7  2  0
  8  9  1  0
 10  9  1  1
 11 10  1  0
 11  6  1  0
 12 16  1  0
 12 10  1  0
 13 12  2  0
 15 16  1  0
 15 14  1  1
 17 19  1  0
 17 15  1  0
 18 17  2  0
M  END
$$$$
