PSA.pdb
     RDKit          3D

 19 19  0  0  1  0  0  0  0  0999 V2000
    7.3922  -14.8240   19.5124 N   0  0  0  0  0  0  0  0  0  0  0  0
    7.7353  -13.8997   18.4435 C   0  0  0  0  0  0  0  0  0  0  0  0
    7.7624  -12.5795   19.1696 C   0  0  0  0  0  0  0  0  0  0  0  0
    8.3601  -12.9224   20.5186 C   0  0  0  0  0  0  0  0  0  0  0  0
    8.3123  -14.4086   20.5531 C   0  0  1  0  0  0  0  0  0  0  0  0
    7.9540  -14.9821   21.8613 C   0  0  0  0  0  0  0  0  0  0  0  0
    6.7459  -14.9210   22.2088 O   0  0  0  0  0  0  0  0  0  0  0  0
    9.8780  -17.8697   24.0811 O   0  0  0  0  0  0  0  0  0  0  0  0
    8.5803  -17.4404   24.2323 C   0  0  0  0  0  0  0  0  0  0  0  0
    8.4381  -15.9398   24.0739 C   0  0  2  0  0  0  0  0  0  0  0  0
    8.8587  -15.5894   22.7454 N   0  0  0  0  0  0  0  0  0  0  0  0
    9.2276  -15.2086   25.0973 C   0  0  0  0  0  0  0  0  0  0  0  0
   10.4588  -14.9597   24.8819 O   0  0  0  0  0  0  0  0  0  0  0  0
    8.5399  -13.2220   28.1913 C   0  0  0  0  0  0  0  0  0  0  0  0
    9.4428  -14.0932   27.3456 C   0  0  2  0  0  0  0  0  0  0  0  0
    8.6893  -14.7626   26.3191 N   0  0  0  0  0  0  0  0  0  0  0  0
   10.0768  -15.0866   28.2828 C   0  0  0  0  0  0  0  0  0  0  0  0
    9.7127  -16.2860   28.2120 O   0  0  0  0  0  0  0  0  0  0  0  0
   11.0316  -14.7104   29.1999 O   0  0  0  0  0  0  0  0  0  0  0  0
  1  5  1  0
  2  1  1  0
  2  3  1  0
  3  4  1  0
  5  6  1  1
  5  4  1  0
  6  7  2  0
  8  9  1  0
 10  9  1  1
 11 10  1  0
 11  6  1  0
 12 16  1  0
 12 10  1  0
 13 12  2  0
 15 16  1  0
 15 14  1  1
 17 19  1  0
 17 15  1  0
 18 17  2  0
M  END
$$$$
