PSA.pdb
     RDKit          3D

 19 19  0  0  1  0  0  0  0  0999 V2000
    8.4068  -14.7635   17.7621 N   0  0  0  0  0  0  0  0  0  0  0  0
    8.2669  -13.8347   16.6518 C   0  0  0  0  0  0  0  0  0  0  0  0
    7.2242  -12.8801   17.1735 C   0  0  0  0  0  0  0  0  0  0  0  0
    7.5629  -12.7446   18.6437 C   0  0  0  0  0  0  0  0  0  0  0  0
    8.5283  -13.8507   18.8821 C   0  0  1  0  0  0  0  0  0  0  0  0
    8.3647  -14.5423   20.1719 C   0  0  0  0  0  0  0  0  0  0  0  0
    8.4190  -13.8411   21.2157 O   0  0  0  0  0  0  0  0  0  0  0  0
    8.4111  -18.6966   20.9246 O   0  0  0  0  0  0  0  0  0  0  0  0
    7.4050  -17.9046   21.4262 C   0  0  0  0  0  0  0  0  0  0  0  0
    7.8331  -16.4627   21.6129 C   0  0  2  0  0  0  0  0  0  0  0  0
    8.1534  -15.9214   20.3210 N   0  0  0  0  0  0  0  0  0  0  0  0
    8.9872  -16.3549   22.5413 C   0  0  0  0  0  0  0  0  0  0  0  0
   10.1729  -16.3670   22.0743 O   0  0  0  0  0  0  0  0  0  0  0  0
    9.4637  -15.5626   26.1890 C   0  0  0  0  0  0  0  0  0  0  0  0
    9.9494  -16.0811   24.8531 C   0  0  2  0  0  0  0  0  0  0  0  0
    8.8509  -16.2375   23.9374 N   0  0  0  0  0  0  0  0  0  0  0  0
   10.6156  -17.4036   25.1257 C   0  0  0  0  0  0  0  0  0  0  0  0
   10.0501  -18.4484   24.7198 O   0  0  0  0  0  0  0  0  0  0  0  0
   11.8125  -17.4866   25.8000 O   0  0  0  0  0  0  0  0  0  0  0  0
  1  5  1  0
  2  1  1  0
  2  3  1  0
  3  4  1  0
  5  6  1  1
  5  4  1  0
  6  7  2  0
  8  9  1  0
 10  9  1  6
 11 10  1  0
 11  6  1  0
 12 16  1  0
 12 10  1  0
 13 12  2  0
 15 16  1  0
 15 14  1  1
 17 19  1  0
 17 15  1  0
 18 17  2  0
M  END
$$$$
