PSA.pdb
     RDKit          3D

 19 19  0  0  1  0  0  0  0  0999 V2000
    8.0034  -15.0093   18.8431 N   0  0  0  0  0  0  0  0  0  0  0  0
    7.9204  -14.3364   17.5566 C   0  0  0  0  0  0  0  0  0  0  0  0
    7.5660  -12.9292   17.9630 C   0  0  0  0  0  0  0  0  0  0  0  0
    8.3604  -12.7103   19.2340 C   0  0  0  0  0  0  0  0  0  0  0  0
    8.8181  -14.0778   19.5986 C   0  0  1  0  0  0  0  0  0  0  0  0
    8.7899  -14.3714   21.0414 C   0  0  0  0  0  0  0  0  0  0  0  0
    9.5304  -13.6794   21.7875 O   0  0  0  0  0  0  0  0  0  0  0  0
    6.3824  -17.2858   22.9319 O   0  0  0  0  0  0  0  0  0  0  0  0
    6.7351  -16.1000   23.5322 C   0  0  0  0  0  0  0  0  0  0  0  0
    8.0791  -15.5821   23.0602 C   0  0  2  0  0  0  0  0  0  0  0  0
    8.0000  -15.3632   21.6424 N   0  0  0  0  0  0  0  0  0  0  0  0
    9.1739  -16.5271   23.3974 C   0  0  0  0  0  0  0  0  0  0  0  0
    9.5738  -17.3636   22.5230 O   0  0  0  0  0  0  0  0  0  0  0  0
   11.8841  -16.7460   25.9065 C   0  0  0  0  0  0  0  0  0  0  0  0
   10.8984  -17.4388   24.9912 C   0  0  2  0  0  0  0  0  0  0  0  0
    9.8129  -16.5580   24.6513 N   0  0  0  0  0  0  0  0  0  0  0  0
   10.3982  -18.6462   25.7390 C   0  0  0  0  0  0  0  0  0  0  0  0
    9.1867  -18.6821   26.0667 O   0  0  0  0  0  0  0  0  0  0  0  0
   11.2303  -19.6932   26.0641 O   0  0  0  0  0  0  0  0  0  0  0  0
  1  5  1  0
  2  1  1  0
  2  3  1  0
  3  4  1  0
  5  6  1  1
  5  4  1  0
  6  7  2  0
  8  9  1  0
 10  9  1  6
 11 10  1  0
 11  6  1  0
 12 16  1  0
 12 10  1  0
 13 12  2  0
 15 16  1  0
 15 14  1  1
 17 19  1  0
 17 15  1  0
 18 17  2  0
M  END
$$$$
