PSA.pdb
     RDKit          3D

 19 19  0  0  1  0  0  0  0  0999 V2000
    8.2339  -15.2134   20.2954 N   0  0  0  0  0  0  0  0  0  0  0  0
    8.1853  -14.7156   18.9298 C   0  0  0  0  0  0  0  0  0  0  0  0
    7.2012  -13.5804   19.0467 C   0  0  0  0  0  0  0  0  0  0  0  0
    7.5154  -12.9686   20.3964 C   0  0  0  0  0  0  0  0  0  0  0  0
    8.3943  -13.9804   21.0413 C   0  0  1  0  0  0  0  0  0  0  0  0
    8.1531  -14.1763   22.4808 C   0  0  0  0  0  0  0  0  0  0  0  0
    8.2579  -13.1688   23.2277 O   0  0  0  0  0  0  0  0  0  0  0  0
    7.6739  -17.8524   24.6076 O   0  0  0  0  0  0  0  0  0  0  0  0
    6.8275  -16.7796   24.7617 C   0  0  0  0  0  0  0  0  0  0  0  0
    7.5056  -15.4538   24.4798 C   0  0  2  0  0  0  0  0  0  0  0  0
    7.8160  -15.4006   23.0779 N   0  0  0  0  0  0  0  0  0  0  0  0
    8.7268  -15.2818   25.3070 C   0  0  0  0  0  0  0  0  0  0  0  0
    9.8625  -15.6017   24.8254 O   0  0  0  0  0  0  0  0  0  0  0  0
    9.6876  -13.5598   28.4817 C   0  0  0  0  0  0  0  0  0  0  0  0
    9.8658  -14.6696   27.4688 C   0  0  2  0  0  0  0  0  0  0  0  0
    8.7088  -14.7759   26.6205 N   0  0  0  0  0  0  0  0  0  0  0  0
   10.0744  -15.9360   28.2561 C   0  0  0  0  0  0  0  0  0  0  0  0
    9.1960  -16.8303   28.1865 O   0  0  0  0  0  0  0  0  0  0  0  0
   11.1912  -16.1279   29.0373 O   0  0  0  0  0  0  0  0  0  0  0  0
  1  5  1  0
  2  1  1  0
  2  3  1  0
  3  4  1  0
  5  6  1  1
  5  4  1  0
  6  7  2  0
  8  9  1  0
 10  9  1  6
 11 10  1  0
 11  6  1  0
 12 16  1  0
 12 10  1  0
 13 12  2  0
 15 16  1  0
 15 14  1  1
 17 19  1  0
 17 15  1  0
 18 17  2  0
M  END
$$$$
