PSA.pdb
     RDKit          3D

 19 19  0  0  1  0  0  0  0  0999 V2000
    6.9580  -14.5404   20.2201 N   0  0  0  0  0  0  0  0  0  0  0  0
    6.8882  -13.2508   19.5518 C   0  0  0  0  0  0  0  0  0  0  0  0
    7.9968  -12.4878   20.2298 C   0  0  0  0  0  0  0  0  0  0  0  0
    9.0784  -13.5286   20.4333 C   0  0  0  0  0  0  0  0  0  0  0  0
    8.3807  -14.8138   20.1616 C   0  0  1  0  0  0  0  0  0  0  0  0
    8.7624  -15.9213   21.0540 C   0  0  0  0  0  0  0  0  0  0  0  0
    8.5139  -17.0915   20.6632 O   0  0  0  0  0  0  0  0  0  0  0  0
   11.7229  -15.7938   23.9039 O   0  0  0  0  0  0  0  0  0  0  0  0
   11.2800  -16.8979   23.2141 C   0  0  0  0  0  0  0  0  0  0  0  0
    9.7726  -16.9251   23.0587 C   0  0  2  0  0  0  0  0  0  0  0  0
    9.3808  -15.7669   22.3041 N   0  0  0  0  0  0  0  0  0  0  0  0
    9.0914  -16.9622   24.3778 C   0  0  0  0  0  0  0  0  0  0  0  0
    8.9525  -15.8847   25.0440 O   0  0  0  0  0  0  0  0  0  0  0  0
    7.0958  -19.4410   26.3710 C   0  0  0  0  0  0  0  0  0  0  0  0
    7.9748  -18.2149   26.2564 C   0  0  2  0  0  0  0  0  0  0  0  0
    8.5773  -18.1400   24.9522 N   0  0  0  0  0  0  0  0  0  0  0  0
    9.0247  -18.3412   27.3282 C   0  0  0  0  0  0  0  0  0  0  0  0
    8.6476  -18.4128   28.5236 O   0  0  0  0  0  0  0  0  0  0  0  0
   10.3671  -18.3789   27.0267 O   0  0  0  0  0  0  0  0  0  0  0  0
  1  5  1  0
  2  1  1  0
  2  3  1  0
  3  4  1  0
  5  6  1  1
  5  4  1  0
  6  7  2  0
  8  9  1  0
 10  9  1  1
 11 10  1  0
 11  6  1  0
 12 16  1  0
 12 10  1  0
 13 12  2  0
 15 16  1  0
 15 14  1  6
 17 19  1  0
 17 15  1  0
 18 17  2  0
M  END
$$$$
