PSA.pdb
     RDKit          3D

 19 19  0  0  1  0  0  0  0  0999 V2000
    8.3987  -14.8835   18.6138 N   0  0  0  0  0  0  0  0  0  0  0  0
    8.4436  -14.1322   17.3695 C   0  0  0  0  0  0  0  0  0  0  0  0
    7.4725  -13.0134   17.6457 C   0  0  0  0  0  0  0  0  0  0  0  0
    7.7115  -12.6806   19.1040 C   0  0  0  0  0  0  0  0  0  0  0  0
    8.5320  -13.8213   19.5917 C   0  0  1  0  0  0  0  0  0  0  0  0
    8.1980  -14.2826   20.9498 C   0  0  0  0  0  0  0  0  0  0  0  0
    8.3176  -13.4531   21.8887 O   0  0  0  0  0  0  0  0  0  0  0  0
    7.0138  -18.2286   22.1373 O   0  0  0  0  0  0  0  0  0  0  0  0
    6.4950  -17.0637   22.6519 C   0  0  0  0  0  0  0  0  0  0  0  0
    7.4932  -15.9232   22.6405 C   0  0  2  0  0  0  0  0  0  0  0  0
    7.7576  -15.5754   21.2717 N   0  0  0  0  0  0  0  0  0  0  0  0
    8.7439  -16.2892   23.3527 C   0  0  0  0  0  0  0  0  0  0  0  0
    9.7529  -16.6903   22.6854 O   0  0  0  0  0  0  0  0  0  0  0  0
   10.0094  -16.2246   26.9063 C   0  0  0  0  0  0  0  0  0  0  0  0
   10.0200  -16.7284   25.4796 C   0  0  2  0  0  0  0  0  0  0  0  0
    8.8887  -16.2195   24.7511 N   0  0  0  0  0  0  0  0  0  0  0  0
    9.9783  -18.2315   25.5579 C   0  0  0  0  0  0  0  0  0  0  0  0
   11.0015  -18.8337   25.9660 O   0  0  0  0  0  0  0  0  0  0  0  0
    8.8582  -18.9450   25.1965 O   0  0  0  0  0  0  0  0  0  0  0  0
  1  5  1  0
  2  1  1  0
  2  3  1  0
  3  4  1  0
  5  6  1  1
  5  4  1  0
  6  7  2  0
  8  9  1  0
 10  9  1  6
 11 10  1  0
 11  6  1  0
 12 16  1  0
 12 10  1  0
 13 12  2  0
 15 16  1  0
 15 14  1  1
 17 19  1  0
 17 15  1  0
 18 17  2  0
M  END
$$$$
