PSA.pdb
     RDKit          3D

 19 19  0  0  1  0  0  0  0  0999 V2000
   10.2738  -17.0234   20.1769 N   0  0  0  0  0  0  0  0  0  0  0  0
   11.3591  -17.4401   19.3032 C   0  0  0  0  0  0  0  0  0  0  0  0
   12.5428  -16.7425   19.9221 C   0  0  0  0  0  0  0  0  0  0  0  0
   12.2754  -16.8306   21.4105 C   0  0  0  0  0  0  0  0  0  0  0  0
   10.8540  -17.2623   21.4840 C   0  0  1  0  0  0  0  0  0  0  0  0
   10.0717  -16.6226   22.5552 C   0  0  0  0  0  0  0  0  0  0  0  0
    9.5737  -15.4925   22.3125 O   0  0  0  0  0  0  0  0  0  0  0  0
    8.4011  -18.5520   25.7531 O   0  0  0  0  0  0  0  0  0  0  0  0
    7.9570  -17.3382   25.2838 C   0  0  0  0  0  0  0  0  0  0  0  0
    9.0854  -16.4489   24.8011 C   0  0  2  0  0  0  0  0  0  0  0  0
    9.8421  -17.1797   23.8225 N   0  0  0  0  0  0  0  0  0  0  0  0
    9.9479  -16.0072   25.9265 C   0  0  0  0  0  0  0  0  0  0  0  0
   11.0727  -16.5753   26.1169 O   0  0  0  0  0  0  0  0  0  0  0  0
    9.7708  -13.3728   28.6330 C   0  0  0  0  0  0  0  0  0  0  0  0
   10.3541  -14.6072   27.9808 C   0  0  2  0  0  0  0  0  0  0  0  0
    9.5932  -14.9765   26.8171 N   0  0  0  0  0  0  0  0  0  0  0  0
   10.3138  -15.6973   29.0187 C   0  0  0  0  0  0  0  0  0  0  0  0
   11.0504  -15.5831   30.0290 O   0  0  0  0  0  0  0  0  0  0  0  0
    9.4984  -16.7977   28.8825 O   0  0  0  0  0  0  0  0  0  0  0  0
  1  5  1  0
  2  1  1  0
  2  3  1  0
  3  4  1  0
  5  6  1  1
  5  4  1  0
  6  7  2  0
  8  9  1  0
 10  9  1  1
 11 10  1  0
 11  6  1  0
 12 16  1  0
 12 10  1  0
 13 12  2  0
 15 16  1  0
 15 14  1  1
 17 19  1  0
 17 15  1  0
 18 17  2  0
M  END
$$$$
