PSA.pdb
     RDKit          3D

 19 19  0  0  1  0  0  0  0  0999 V2000
   10.9386  -17.5541   17.9570 N   0  0  0  0  0  0  0  0  0  0  0  0
   11.1011  -18.8139   17.2491 C   0  0  0  0  0  0  0  0  0  0  0  0
   10.8644  -19.8204   18.3454 C   0  0  0  0  0  0  0  0  0  0  0  0
    9.7623  -19.1960   19.1761 C   0  0  0  0  0  0  0  0  0  0  0  0
    9.7069  -17.7936   18.6836 C   0  0  1  0  0  0  0  0  0  0  0  0
    9.4837  -16.7825   19.7308 C   0  0  0  0  0  0  0  0  0  0  0  0
   10.4844  -16.1323   20.1303 O   0  0  0  0  0  0  0  0  0  0  0  0
    5.8351  -16.1116   21.7215 O   0  0  0  0  0  0  0  0  0  0  0  0
    6.7277  -15.0858   21.5161 C   0  0  0  0  0  0  0  0  0  0  0  0
    8.1605  -15.5688   21.4109 C   0  0  2  0  0  0  0  0  0  0  0  0
    8.2405  -16.4926   20.3133 N   0  0  0  0  0  0  0  0  0  0  0  0
    8.6154  -16.1984   22.6767 C   0  0  0  0  0  0  0  0  0  0  0  0
    8.7494  -17.4643   22.7364 O   0  0  0  0  0  0  0  0  0  0  0  0
    9.6751  -14.9761   26.0962 C   0  0  0  0  0  0  0  0  0  0  0  0
    9.3903  -16.0498   25.0689 C   0  0  2  0  0  0  0  0  0  0  0  0
    8.9150  -15.4680   23.8421 N   0  0  0  0  0  0  0  0  0  0  0  0
    8.3498  -16.9542   25.6746 C   0  0  0  0  0  0  0  0  0  0  0  0
    7.1651  -16.8496   25.2722 O   0  0  0  0  0  0  0  0  0  0  0  0
    8.6681  -17.8773   26.6444 O   0  0  0  0  0  0  0  0  0  0  0  0
  1  5  1  0
  2  1  1  0
  2  3  1  0
  3  4  1  0
  5  6  1  1
  5  4  1  0
  6  7  2  0
  8  9  1  0
 10  9  1  1
 11 10  1  0
 11  6  1  0
 12 16  1  0
 12 10  1  0
 13 12  2  0
 15 16  1  0
 15 14  1  1
 17 19  1  0
 17 15  1  0
 18 17  2  0
M  END
$$$$
