PSA.pdb
     RDKit          3D

 19 19  0  0  1  0  0  0  0  0999 V2000
    7.9894  -15.1261   18.7623 N   0  0  0  0  0  0  0  0  0  0  0  0
    7.7682  -14.5508   17.4451 C   0  0  0  0  0  0  0  0  0  0  0  0
    7.7309  -13.0758   17.7514 C   0  0  0  0  0  0  0  0  0  0  0  0
    8.7814  -12.9049   18.8293 C   0  0  0  0  0  0  0  0  0  0  0  0
    9.0745  -14.2999   19.2543 C   0  0  1  0  0  0  0  0  0  0  0  0
    9.2796  -14.4712   20.7025 C   0  0  0  0  0  0  0  0  0  0  0  0
   10.4071  -14.1617   21.1681 O   0  0  0  0  0  0  0  0  0  0  0  0
    6.5709  -16.3044   23.3936 O   0  0  0  0  0  0  0  0  0  0  0  0
    7.3736  -15.2551   23.7753 C   0  0  0  0  0  0  0  0  0  0  0  0
    8.6578  -15.1789   22.9740 C   0  0  2  0  0  0  0  0  0  0  0  0
    8.3123  -14.9528   21.5977 N   0  0  0  0  0  0  0  0  0  0  0  0
    9.4681  -16.4139   23.1282 C   0  0  0  0  0  0  0  0  0  0  0  0
    9.2623  -17.4020   22.3501 O   0  0  0  0  0  0  0  0  0  0  0  0
   12.7226  -17.4722   24.2302 C   0  0  0  0  0  0  0  0  0  0  0  0
   11.2401  -17.7660   24.3016 C   0  0  2  0  0  0  0  0  0  0  0  0
   10.4726  -16.5657   24.1025 N   0  0  0  0  0  0  0  0  0  0  0  0
   10.9859  -18.3474   25.6671 C   0  0  0  0  0  0  0  0  0  0  0  0
   11.5671  -19.4169   25.9749 O   0  0  0  0  0  0  0  0  0  0  0  0
   10.1427  -17.7385   26.5684 O   0  0  0  0  0  0  0  0  0  0  0  0
  1  5  1  0
  2  1  1  0
  2  3  1  0
  3  4  1  0
  5  6  1  1
  5  4  1  0
  6  7  2  0
  8  9  1  0
 10  9  1  1
 11 10  1  0
 11  6  1  0
 12 16  1  0
 12 10  1  0
 13 12  2  0
 15 16  1  0
 15 14  1  1
 17 19  1  0
 17 15  1  0
 18 17  2  0
M  END
$$$$
