PSA.pdb
     RDKit          3D

 19 19  0  0  1  0  0  0  0  0999 V2000
    8.4501  -15.3543   19.1972 N   0  0  0  0  0  0  0  0  0  0  0  0
    8.1203  -14.9304   17.8458 C   0  0  0  0  0  0  0  0  0  0  0  0
    7.5274  -13.5654   18.0831 C   0  0  0  0  0  0  0  0  0  0  0  0
    8.3706  -12.9965   19.2056 C   0  0  0  0  0  0  0  0  0  0  0  0
    9.1243  -14.1765   19.7075 C   0  0  1  0  0  0  0  0  0  0  0  0
    9.2832  -14.2276   21.1707 C   0  0  0  0  0  0  0  0  0  0  0  0
   10.3610  -13.7905   21.6516 O   0  0  0  0  0  0  0  0  0  0  0  0
    6.3826  -15.6222   23.8619 O   0  0  0  0  0  0  0  0  0  0  0  0
    7.1929  -14.5529   24.1635 C   0  0  0  0  0  0  0  0  0  0  0  0
    8.5440  -14.6315   23.4810 C   0  0  2  0  0  0  0  0  0  0  0  0
    8.3234  -14.7267   22.0644 N   0  0  0  0  0  0  0  0  0  0  0  0
    9.3378  -15.7834   23.9793 C   0  0  0  0  0  0  0  0  0  0  0  0
    9.6120  -15.8676   25.2211 O   0  0  0  0  0  0  0  0  0  0  0  0
   10.6863  -18.9912   22.5157 C   0  0  0  0  0  0  0  0  0  0  0  0
   10.5643  -17.9522   23.6088 C   0  0  2  0  0  0  0  0  0  0  0  0
    9.8177  -16.8124   23.1472 N   0  0  0  0  0  0  0  0  0  0  0  0
   11.9691  -17.5601   23.9831 C   0  0  0  0  0  0  0  0  0  0  0  0
   12.4222  -16.4773   23.5377 O   0  0  0  0  0  0  0  0  0  0  0  0
   12.7519  -18.3534   24.7907 O   0  0  0  0  0  0  0  0  0  0  0  0
  1  5  1  0
  2  1  1  0
  2  3  1  0
  3  4  1  0
  5  6  1  1
  5  4  1  0
  6  7  2  0
  8  9  1  0
 10  9  1  1
 11 10  1  0
 11  6  1  0
 12 16  1  0
 12 10  1  0
 13 12  2  0
 15 16  1  0
 15 14  1  6
 17 19  1  0
 17 15  1  0
 18 17  2  0
M  END
$$$$
