PSA.pdb
     RDKit          3D

 19 19  0  0  1  0  0  0  0  0999 V2000
    7.4764  -14.7616   19.8080 N   0  0  0  0  0  0  0  0  0  0  0  0
    7.7443  -13.8068   18.7444 C   0  0  0  0  0  0  0  0  0  0  0  0
    7.7703  -12.5013   19.4965 C   0  0  0  0  0  0  0  0  0  0  0  0
    8.4394  -12.8546   20.8088 C   0  0  0  0  0  0  0  0  0  0  0  0
    8.4328  -14.3420   20.8137 C   0  0  1  0  0  0  0  0  0  0  0  0
    8.1515  -14.9513   22.1245 C   0  0  0  0  0  0  0  0  0  0  0  0
    6.9646  -14.9074   22.5405 O   0  0  0  0  0  0  0  0  0  0  0  0
   10.2307  -17.9091   24.0338 O   0  0  0  0  0  0  0  0  0  0  0  0
    8.9367  -17.5306   24.3045 C   0  0  0  0  0  0  0  0  0  0  0  0
    8.7436  -16.0281   24.2545 C   0  0  2  0  0  0  0  0  0  0  0  0
    9.1077  -15.5749   22.9405 N   0  0  0  0  0  0  0  0  0  0  0  0
    9.5452  -15.3428   25.3001 C   0  0  0  0  0  0  0  0  0  0  0  0
   10.7654  -15.0562   25.0696 O   0  0  0  0  0  0  0  0  0  0  0  0
    8.9671  -13.4569   28.4496 C   0  0  0  0  0  0  0  0  0  0  0  0
    9.8085  -14.4046   27.6229 C   0  0  2  0  0  0  0  0  0  0  0  0
    9.0302  -14.9811   26.5592 N   0  0  0  0  0  0  0  0  0  0  0  0
   10.3031  -15.4689   28.5661 C   0  0  0  0  0  0  0  0  0  0  0  0
   11.0282  -15.1186   29.5294 O   0  0  0  0  0  0  0  0  0  0  0  0
    9.9806  -16.7959   28.3946 O   0  0  0  0  0  0  0  0  0  0  0  0
  1  5  1  0
  2  1  1  0
  2  3  1  0
  3  4  1  0
  5  6  1  1
  5  4  1  0
  6  7  2  0
  8  9  1  0
 10  9  1  6
 11 10  1  0
 11  6  1  0
 12 16  1  0
 12 10  1  0
 13 12  2  0
 15 16  1  0
 15 14  1  1
 17 19  1  0
 17 15  1  0
 18 17  2  0
M  END
$$$$
