LQD.pdb
     RDKit          3D

 26 25  0  0  1  0  0  0  0  0999 V2000
    6.6975  -12.4998   19.0340 C   0  0  0  0  0  0  0  0  0  0  0  0
    7.9998  -13.2200   19.2737 C   0  0  1  0  0  0  0  0  0  0  0  0
    9.0703  -12.1922   19.5369 C   0  0  0  0  0  0  0  0  0  0  0  0
    7.9239  -14.1634   20.4412 C   0  0  0  0  0  0  0  0  0  0  0  0
    9.2706  -14.7096   20.7963 C   0  0  2  0  0  0  0  0  0  0  0  0
    9.9558  -15.3173   19.6895 N   0  0  0  0  0  0  0  0  0  0  0  0
    9.1211  -15.7399   21.8670 C   0  0  0  0  0  0  0  0  0  0  0  0
    8.4807  -15.4994   22.9071 O   0  0  0  0  0  0  0  0  0  0  0  0
    7.3818  -21.4086   21.4247 N   0  0  0  0  0  0  0  0  0  0  0  0
    8.2826  -20.8240   20.4882 C   0  0  0  0  0  0  0  0  0  0  0  0
    8.3644  -21.3669   19.3554 O   0  0  0  0  0  0  0  0  0  0  0  0
    9.0973  -19.6178   20.8322 C   0  0  0  0  0  0  0  0  0  0  0  0
    8.7173  -19.1796   22.2239 C   0  0  0  0  0  0  0  0  0  0  0  0
    9.5511  -18.0113   22.6899 C   0  0  2  0  0  0  0  0  0  0  0  0
    9.7219  -17.0055   21.6838 N   0  0  0  0  0  0  0  0  0  0  0  0
   10.8831  -18.5516   23.0919 C   0  0  0  0  0  0  0  0  0  0  0  0
   11.0216  -19.7370   23.5186 O   0  0  0  0  0  0  0  0  0  0  0  0
   12.0685  -17.7727   23.0204 N   0  0  0  0  0  0  0  0  0  0  0  0
   13.3190  -18.1775   23.5883 C   0  0  1  0  0  0  0  0  0  0  0  0
   14.4030  -17.2651   23.0382 C   0  0  0  0  0  0  0  0  0  0  0  0
   14.4184  -17.2146   21.5788 C   0  0  0  0  0  0  0  0  0  0  0  0
   13.6056  -17.8523   20.8677 O   0  0  0  0  0  0  0  0  0  0  0  0
   13.3322  -18.2311   25.0447 C   0  0  0  0  0  0  0  0  0  0  0  0
   12.4237  -17.7020   25.7209 O   0  0  0  0  0  0  0  0  0  0  0  0
   15.3634  -16.4349   20.9322 O   0  0  0  0  0  0  0  0  0  0  0  0
   14.3488  -18.8683   25.7262 O   0  0  0  0  0  0  0  0  0  0  0  0
  2  3  1  1
  2  1  1  0
  4  2  1  0
  5  4  1  0
  5  6  1  6
  7  5  1  0
  8  7  2  0
 10 12  1  0
 10  9  1  0
 11 10  2  0
 14 13  1  6
 13 12  1  0
 14 15  1  0
 15  7  1  0
 16 14  1  0
 17 16  2  0
 18 16  1  0
 19 23  1  0
 19 18  1  0
 19 20  1  1
 21 20  1  0
 21 25  1  0
 22 21  2  0
 23 26  1  0
 24 23  2  0
M  END
$$$$
