LQD.pdb
     RDKit          3D

 26 25  0  0  1  0  0  0  0  0999 V2000
    7.0447  -11.8786   27.7332 C   0  0  0  0  0  0  0  0  0  0  0  0
    6.3109  -12.9946   27.0345 C   0  0  1  0  0  0  0  0  0  0  0  0
    5.3643  -12.3866   26.0316 C   0  0  0  0  0  0  0  0  0  0  0  0
    7.2441  -13.9352   26.3250 C   0  0  0  0  0  0  0  0  0  0  0  0
    6.4967  -15.0060   25.5951 C   0  0  2  0  0  0  0  0  0  0  0  0
    6.1789  -16.1450   26.4110 N   0  0  0  0  0  0  0  0  0  0  0  0
    7.3143  -15.4814   24.4394 C   0  0  0  0  0  0  0  0  0  0  0  0
    7.9142  -16.5715   24.4801 O   0  0  0  0  0  0  0  0  0  0  0  0
    7.7120  -12.7074   18.7154 N   0  0  0  0  0  0  0  0  0  0  0  0
    8.3140  -13.9867   18.5387 C   0  0  0  0  0  0  0  0  0  0  0  0
    8.6408  -14.3099   17.3668 O   0  0  0  0  0  0  0  0  0  0  0  0
    8.5490  -14.9085   19.6928 C   0  0  0  0  0  0  0  0  0  0  0  0
    7.9332  -14.2858   20.9202 C   0  0  0  0  0  0  0  0  0  0  0  0
    8.0998  -15.1634   22.1365 C   0  0  2  0  0  0  0  0  0  0  0  0
    7.4003  -14.6702   23.2858 N   0  0  0  0  0  0  0  0  0  0  0  0
    9.5611  -15.2376   22.4309 C   0  0  0  0  0  0  0  0  0  0  0  0
   10.2542  -14.1968   22.6377 O   0  0  0  0  0  0  0  0  0  0  0  0
   10.2579  -16.4733   22.4964 N   0  0  0  0  0  0  0  0  0  0  0  0
   11.6649  -16.5786   22.7407 C   0  0  1  0  0  0  0  0  0  0  0  0
   11.9581  -17.9979   23.1987 C   0  0  0  0  0  0  0  0  0  0  0  0
   11.3010  -18.3372   24.4579 C   0  0  0  0  0  0  0  0  0  0  0  0
   11.2974  -17.5712   25.4511 O   0  0  0  0  0  0  0  0  0  0  0  0
   12.5046  -16.1783   21.6186 C   0  0  0  0  0  0  0  0  0  0  0  0
   12.0092  -15.9011   20.5050 O   0  0  0  0  0  0  0  0  0  0  0  0
   10.6477  -19.5524   24.5817 O   0  0  0  0  0  0  0  0  0  0  0  0
   13.8756  -16.0918   21.7486 O   0  0  0  0  0  0  0  0  0  0  0  0
  2  3  1  6
  2  1  1  0
  4  2  1  0
  5  4  1  0
  5  6  1  1
  7  5  1  0
  8  7  2  0
 10 12  1  0
 10  9  1  0
 11 10  2  0
 14 13  1  6
 13 12  1  0
 14 15  1  0
 15  7  1  0
 16 14  1  0
 17 16  2  0
 18 16  1  0
 19 23  1  0
 19 18  1  0
 19 20  1  6
 21 20  1  0
 21 25  1  0
 22 21  2  0
 23 26  1  0
 24 23  2  0
M  END
$$$$
