LQD.pdb
     RDKit          3D

 26 25  0  0  1  0  0  0  0  0999 V2000
    7.0200  -12.1810   18.8594 C   0  0  0  0  0  0  0  0  0  0  0  0
    7.3581  -13.5544   19.3808 C   0  0  1  0  0  0  0  0  0  0  0  0
    8.3709  -14.1783   18.4553 C   0  0  0  0  0  0  0  0  0  0  0  0
    7.9216  -13.5136   20.7735 C   0  0  0  0  0  0  0  0  0  0  0  0
    8.2240  -14.8862   21.2856 C   0  0  2  0  0  0  0  0  0  0  0  0
    7.0944  -15.7735   21.2570 N   0  0  0  0  0  0  0  0  0  0  0  0
    8.7016  -14.7945   22.6975 C   0  0  0  0  0  0  0  0  0  0  0  0
    9.6932  -14.1045   22.9984 O   0  0  0  0  0  0  0  0  0  0  0  0
    7.9888  -13.2293   27.5051 N   0  0  0  0  0  0  0  0  0  0  0  0
    6.8562  -13.1203   26.6475 C   0  0  0  0  0  0  0  0  0  0  0  0
    6.2798  -12.0023   26.5980 O   0  0  0  0  0  0  0  0  0  0  0  0
    6.3701  -14.2813   25.8397 C   0  0  0  0  0  0  0  0  0  0  0  0
    7.3212  -15.4311   26.0560 C   0  0  0  0  0  0  0  0  0  0  0  0
    8.4533  -15.4161   25.0583 C   0  0  2  0  0  0  0  0  0  0  0  0
    8.0070  -15.5081   23.6998 N   0  0  0  0  0  0  0  0  0  0  0  0
    9.3379  -16.5755   25.3765 C   0  0  0  0  0  0  0  0  0  0  0  0
    8.9779  -17.7704   25.1551 O   0  0  0  0  0  0  0  0  0  0  0  0
   10.6292  -16.4088   25.9437 N   0  0  0  0  0  0  0  0  0  0  0  0
   11.5024  -17.4980   26.2618 C   0  0  1  0  0  0  0  0  0  0  0  0
   12.9331  -17.0336   26.0431 C   0  0  0  0  0  0  0  0  0  0  0  0
   13.2123  -16.6848   24.6528 C   0  0  0  0  0  0  0  0  0  0  0  0
   12.4411  -16.9815   23.7092 O   0  0  0  0  0  0  0  0  0  0  0  0
   11.3046  -18.0626   27.5910 C   0  0  0  0  0  0  0  0  0  0  0  0
   10.5578  -17.5081   28.4260 O   0  0  0  0  0  0  0  0  0  0  0  0
   14.3734  -15.9966   24.3413 O   0  0  0  0  0  0  0  0  0  0  0  0
   11.9357  -19.2290   27.9719 O   0  0  0  0  0  0  0  0  0  0  0  0
  2  3  1  6
  2  1  1  0
  4  2  1  0
  5  4  1  0
  5  6  1  1
  7  5  1  0
  8  7  2  0
 10 12  1  0
 10  9  1  0
 11 10  2  0
 14 13  1  1
 13 12  1  0
 14 15  1  0
 15  7  1  0
 16 14  1  0
 17 16  2  0
 18 16  1  0
 19 23  1  0
 19 18  1  0
 19 20  1  1
 21 20  1  0
 21 25  1  0
 22 21  2  0
 23 26  1  0
 24 23  2  0
M  END
$$$$
