LQD.pdb
     RDKit          3D

 26 25  0  0  1  0  0  0  0  0999 V2000
    8.2025  -12.0391   19.1365 C   0  0  0  0  0  0  0  0  0  0  0  0
    8.5523  -13.2280   19.9947 C   0  0  1  0  0  0  0  0  0  0  0  0
    7.9169  -13.0407   21.3485 C   0  0  0  0  0  0  0  0  0  0  0  0
    8.0731  -14.5223   19.3996 C   0  0  0  0  0  0  0  0  0  0  0  0
    8.5638  -15.7015   20.1785 C   0  0  2  0  0  0  0  0  0  0  0  0
    8.3746  -15.5741   21.5969 N   0  0  0  0  0  0  0  0  0  0  0  0
   10.0230  -15.8913   19.9240 C   0  0  0  0  0  0  0  0  0  0  0  0
   10.4421  -16.2318   18.8023 O   0  0  0  0  0  0  0  0  0  0  0  0
   14.6204  -15.7440   17.9353 N   0  0  0  0  0  0  0  0  0  0  0  0
   14.2192  -14.4270   18.3027 C   0  0  0  0  0  0  0  0  0  0  0  0
   15.0278  -13.4929   18.0617 O   0  0  0  0  0  0  0  0  0  0  0  0
   12.8957  -14.1619   18.9469 C   0  0  0  0  0  0  0  0  0  0  0  0
   13.0124  -14.5039   20.4107 C   0  0  0  0  0  0  0  0  0  0  0  0
   12.3378  -15.8143   20.7348 C   0  0  2  0  0  0  0  0  0  0  0  0
   10.9332  -15.6774   20.9833 N   0  0  0  0  0  0  0  0  0  0  0  0
   13.0107  -16.3700   21.9457 C   0  0  0  0  0  0  0  0  0  0  0  0
   12.6750  -16.0187   23.1163 O   0  0  0  0  0  0  0  0  0  0  0  0
   14.0620  -17.3207   21.8578 N   0  0  0  0  0  0  0  0  0  0  0  0
   14.7460  -17.8544   22.9969 C   0  0  1  0  0  0  0  0  0  0  0  0
   15.3650  -19.1829   22.5943 C   0  0  0  0  0  0  0  0  0  0  0  0
   14.6884  -20.3308   23.1921 C   0  0  0  0  0  0  0  0  0  0  0  0
   14.7713  -20.6094   24.4121 O   0  0  0  0  0  0  0  0  0  0  0  0
   15.7222  -16.9512   23.5934 C   0  0  0  0  0  0  0  0  0  0  0  0
   16.1552  -15.9598   22.9672 O   0  0  0  0  0  0  0  0  0  0  0  0
   13.9169  -21.1603   22.3948 O   0  0  0  0  0  0  0  0  0  0  0  0
   16.2012  -17.1609   24.8704 O   0  0  0  0  0  0  0  0  0  0  0  0
  2  3  1  1
  2  1  1  0
  4  2  1  0
  5  4  1  0
  5  6  1  1
  7  5  1  0
  8  7  2  0
 10 12  1  0
 10  9  1  0
 11 10  2  0
 14 13  1  1
 13 12  1  0
 14 15  1  0
 15  7  1  0
 16 14  1  0
 17 16  2  0
 18 16  1  0
 19 23  1  0
 19 18  1  0
 19 20  1  6
 21 20  1  0
 21 25  1  0
 22 21  2  0
 23 26  1  0
 24 23  2  0
M  END
$$$$
