LQD.pdb
     RDKit          3D

 26 25  0  0  1  0  0  0  0  0999 V2000
    7.1247  -11.8338   19.7275 C   0  0  0  0  0  0  0  0  0  0  0  0
    7.8319  -13.1526   19.5458 C   0  0  1  0  0  0  0  0  0  0  0  0
    9.3116  -12.8877   19.4367 C   0  0  0  0  0  0  0  0  0  0  0  0
    7.5825  -14.0963   20.6886 C   0  0  0  0  0  0  0  0  0  0  0  0
    8.6198  -15.1725   20.7504 C   0  0  2  0  0  0  0  0  0  0  0  0
    8.4151  -16.2254   19.7947 N   0  0  0  0  0  0  0  0  0  0  0  0
    8.6212  -15.7820   22.1137 C   0  0  0  0  0  0  0  0  0  0  0  0
    8.8875  -15.1028   23.1224 O   0  0  0  0  0  0  0  0  0  0  0  0
    5.7005  -20.9643   24.1080 N   0  0  0  0  0  0  0  0  0  0  0  0
    6.5666  -20.6393   25.1919 C   0  0  0  0  0  0  0  0  0  0  0  0
    6.4296  -21.3012   26.2538 O   0  0  0  0  0  0  0  0  0  0  0  0
    7.5949  -19.5594   25.0768 C   0  0  0  0  0  0  0  0  0  0  0  0
    7.4407  -18.9104   23.7246 C   0  0  0  0  0  0  0  0  0  0  0  0
    8.4103  -17.7692   23.5377 C   0  0  2  0  0  0  0  0  0  0  0  0
    8.3131  -17.1544   22.2471 N   0  0  0  0  0  0  0  0  0  0  0  0
    9.7839  -18.3206   23.7298 C   0  0  0  0  0  0  0  0  0  0  0  0
   10.4159  -18.8822   22.7855 O   0  0  0  0  0  0  0  0  0  0  0  0
   10.4605  -18.2488   24.9763 N   0  0  0  0  0  0  0  0  0  0  0  0
   11.8857  -18.2877   25.1085 C   0  0  1  0  0  0  0  0  0  0  0  0
   12.4758  -17.2733   24.1425 C   0  0  0  0  0  0  0  0  0  0  0  0
   13.9352  -17.2346   24.1786 C   0  0  0  0  0  0  0  0  0  0  0  0
   14.6453  -18.2641   24.0848 O   0  0  0  0  0  0  0  0  0  0  0  0
   12.3717  -18.0982   26.4695 C   0  0  0  0  0  0  0  0  0  0  0  0
   13.5920  -18.1519   26.7353 O   0  0  0  0  0  0  0  0  0  0  0  0
   14.5828  -16.0185   24.3221 O   0  0  0  0  0  0  0  0  0  0  0  0
   11.5001  -17.8529   27.5108 O   0  0  0  0  0  0  0  0  0  0  0  0
  2  3  1  1
  2  1  1  0
  4  2  1  0
  5  4  1  0
  5  6  1  6
  7  5  1  0
  8  7  2  0
 10 12  1  0
 10  9  1  0
 11 10  2  0
 14 13  1  6
 13 12  1  0
 14 15  1  0
 15  7  1  0
 16 14  1  0
 17 16  2  0
 18 16  1  0
 19 23  1  0
 19 18  1  0
 19 20  1  6
 21 20  1  0
 21 25  1  0
 22 21  2  0
 23 26  1  0
 24 23  2  0
M  END
$$$$
