LQD.pdb
     RDKit          3D

 26 25  0  0  1  0  0  0  0  0999 V2000
    6.5432  -13.6917   18.6409 C   0  0  0  0  0  0  0  0  0  0  0  0
    7.9682  -13.8632   19.1016 C   0  0  1  0  0  0  0  0  0  0  0  0
    8.6659  -12.5315   18.9953 C   0  0  0  0  0  0  0  0  0  0  0  0
    8.0546  -14.3536   20.5197 C   0  0  0  0  0  0  0  0  0  0  0  0
    9.4620  -14.3286   21.0262 C   0  0  2  0  0  0  0  0  0  0  0  0
   10.3147  -15.3046   20.4061 N   0  0  0  0  0  0  0  0  0  0  0  0
    9.4639  -14.5841   22.4975 C   0  0  0  0  0  0  0  0  0  0  0  0
   10.5094  -14.9001   23.0948 O   0  0  0  0  0  0  0  0  0  0  0  0
    5.2236  -13.2036   27.1874 N   0  0  0  0  0  0  0  0  0  0  0  0
    6.1099  -12.1724   26.7615 C   0  0  0  0  0  0  0  0  0  0  0  0
    6.0066  -11.0553   27.3324 O   0  0  0  0  0  0  0  0  0  0  0  0
    7.1204  -12.4032   25.6833 C   0  0  0  0  0  0  0  0  0  0  0  0
    6.9996  -13.8360   25.2295 C   0  0  0  0  0  0  0  0  0  0  0  0
    8.2912  -14.3472   24.6400 C   0  0  2  0  0  0  0  0  0  0  0  0
    8.2513  -14.4616   23.2122 N   0  0  0  0  0  0  0  0  0  0  0  0
    8.5533  -15.6864   25.2446 C   0  0  0  0  0  0  0  0  0  0  0  0
    8.5214  -15.8707   26.4981 O   0  0  0  0  0  0  0  0  0  0  0  0
    8.8525  -16.8278   24.4543 N   0  0  0  0  0  0  0  0  0  0  0  0
    9.2169  -18.0991   25.0032 C   0  0  1  0  0  0  0  0  0  0  0  0
    9.2004  -19.1200   23.8772 C   0  0  0  0  0  0  0  0  0  0  0  0
    9.5938  -20.4566   24.3147 C   0  0  0  0  0  0  0  0  0  0  0  0
    9.8282  -20.7381   25.5142 O   0  0  0  0  0  0  0  0  0  0  0  0
   10.4798  -18.1035   25.7309 C   0  0  0  0  0  0  0  0  0  0  0  0
   11.4176  -17.3435   25.4060 O   0  0  0  0  0  0  0  0  0  0  0  0
    9.7193  -21.4717   23.3804 O   0  0  0  0  0  0  0  0  0  0  0  0
   10.6823  -18.9473   26.8037 O   0  0  0  0  0  0  0  0  0  0  0  0
  2  3  1  1
  2  1  1  0
  4  2  1  0
  5  4  1  0
  5  6  1  6
  7  5  1  0
  8  7  2  0
 10 12  1  0
 10  9  1  0
 11 10  2  0
 14 13  1  1
 13 12  1  0
 14 15  1  0
 15  7  1  0
 16 14  1  0
 17 16  2  0
 18 16  1  0
 19 23  1  0
 19 18  1  0
 19 20  1  6
 21 20  1  0
 21 25  1  0
 22 21  2  0
 23 26  1  0
 24 23  2  0
M  END
$$$$
