LQD.pdb
     RDKit          3D

 26 25  0  0  1  0  0  0  0  0999 V2000
    6.2736  -12.2884   19.5151 C   0  0  0  0  0  0  0  0  0  0  0  0
    7.3201  -13.3647   19.6518 C   0  0  1  0  0  0  0  0  0  0  0  0
    8.5988  -12.8665   19.0286 C   0  0  0  0  0  0  0  0  0  0  0  0
    7.5799  -13.7294   21.0865 C   0  0  0  0  0  0  0  0  0  0  0  0
    8.6164  -14.8018   21.2030 C   0  0  2  0  0  0  0  0  0  0  0  0
    8.3178  -15.9775   20.4332 N   0  0  0  0  0  0  0  0  0  0  0  0
    8.7491  -15.2097   22.6334 C   0  0  0  0  0  0  0  0  0  0  0  0
    8.9093  -14.3633   23.5321 O   0  0  0  0  0  0  0  0  0  0  0  0
    6.1722  -19.5633   25.5300 N   0  0  0  0  0  0  0  0  0  0  0  0
    7.2646  -19.4205   26.4337 C   0  0  0  0  0  0  0  0  0  0  0  0
    7.0863  -19.8146   27.6158 O   0  0  0  0  0  0  0  0  0  0  0  0
    8.5680  -18.8286   26.0004 C   0  0  0  0  0  0  0  0  0  0  0  0
    8.4433  -18.4369   24.5498 C   0  0  0  0  0  0  0  0  0  0  0  0
    8.7654  -16.9785   24.3342 C   0  0  2  0  0  0  0  0  0  0  0  0
    8.6901  -16.5833   22.9589 N   0  0  0  0  0  0  0  0  0  0  0  0
   10.1482  -16.7508   24.8477 C   0  0  0  0  0  0  0  0  0  0  0  0
   10.3698  -16.4542   26.0599 O   0  0  0  0  0  0  0  0  0  0  0  0
   11.2919  -16.8526   24.0120 N   0  0  0  0  0  0  0  0  0  0  0  0
   12.6374  -16.7938   24.4984 C   0  0  1  0  0  0  0  0  0  0  0  0
   12.9159  -18.0746   25.2681 C   0  0  0  0  0  0  0  0  0  0  0  0
   14.2843  -18.1497   25.7724 C   0  0  0  0  0  0  0  0  0  0  0  0
   15.1637  -18.8736   25.2475 O   0  0  0  0  0  0  0  0  0  0  0  0
   13.6404  -16.5400   23.4718 C   0  0  0  0  0  0  0  0  0  0  0  0
   14.8424  -16.3678   23.7688 O   0  0  0  0  0  0  0  0  0  0  0  0
   14.6474  -17.3970   26.8772 O   0  0  0  0  0  0  0  0  0  0  0  0
   13.2962  -16.4813   22.1369 O   0  0  0  0  0  0  0  0  0  0  0  0
  2  3  1  1
  2  1  1  0
  4  2  1  0
  5  4  1  0
  5  6  1  6
  7  5  1  0
  8  7  2  0
 10 12  1  0
 10  9  1  0
 11 10  2  0
 14 13  1  6
 13 12  1  0
 14 15  1  0
 15  7  1  0
 16 14  1  0
 17 16  2  0
 18 16  1  0
 19 23  1  0
 19 18  1  0
 19 20  1  6
 21 20  1  0
 21 25  1  0
 22 21  2  0
 23 26  1  0
 24 23  2  0
M  END
$$$$
