LQD.pdb
     RDKit          3D

 26 25  0  0  1  0  0  0  0  0999 V2000
    6.8199  -12.2423   19.4247 C   0  0  0  0  0  0  0  0  0  0  0  0
    7.5487  -13.5549   19.5598 C   0  0  1  0  0  0  0  0  0  0  0  0
    8.8776  -13.4353   18.8590 C   0  0  0  0  0  0  0  0  0  0  0  0
    7.7804  -13.9341   20.9955 C   0  0  0  0  0  0  0  0  0  0  0  0
    8.5732  -15.1974   21.1103 C   0  0  2  0  0  0  0  0  0  0  0  0
    7.9583  -16.3241   20.4649 N   0  0  0  0  0  0  0  0  0  0  0  0
    8.7579  -15.5375   22.5527 C   0  0  0  0  0  0  0  0  0  0  0  0
    9.2232  -14.7076   23.3555 O   0  0  0  0  0  0  0  0  0  0  0  0
    5.8325  -20.0505   25.7804 N   0  0  0  0  0  0  0  0  0  0  0  0
    6.9713  -19.7849   26.5946 C   0  0  0  0  0  0  0  0  0  0  0  0
    7.0561  -20.4104   27.6837 O   0  0  0  0  0  0  0  0  0  0  0  0
    8.0224  -18.8064   26.1769 C   0  0  0  0  0  0  0  0  0  0  0  0
    7.5702  -18.1548   24.8946 C   0  0  0  0  0  0  0  0  0  0  0  0
    8.5882  -17.1672   24.3793 C   0  0  2  0  0  0  0  0  0  0  0  0
    8.3941  -16.8271   23.0010 N   0  0  0  0  0  0  0  0  0  0  0  0
    9.9345  -17.7859   24.5596 C   0  0  0  0  0  0  0  0  0  0  0  0
   10.2621  -18.8568   23.9660 O   0  0  0  0  0  0  0  0  0  0  0  0
   10.9233  -17.2137   25.4033 N   0  0  0  0  0  0  0  0  0  0  0  0
   12.1283  -17.8875   25.7831 C   0  0  1  0  0  0  0  0  0  0  0  0
   13.3000  -16.9758   25.4571 C   0  0  0  0  0  0  0  0  0  0  0  0
   13.4692  -16.7565   24.0233 C   0  0  0  0  0  0  0  0  0  0  0  0
   13.6904  -15.6249   23.5299 O   0  0  0  0  0  0  0  0  0  0  0  0
   12.1550  -18.3437   27.1672 C   0  0  0  0  0  0  0  0  0  0  0  0
   11.2442  -18.0394   27.9674 O   0  0  0  0  0  0  0  0  0  0  0  0
   13.3855  -17.8313   23.1534 O   0  0  0  0  0  0  0  0  0  0  0  0
   13.1874  -19.1273   27.6404 O   0  0  0  0  0  0  0  0  0  0  0  0
  2  3  1  6
  2  1  1  0
  4  2  1  0
  5  4  1  0
  5  6  1  6
  7  5  1  0
  8  7  2  0
 10 12  1  0
 10  9  1  0
 11 10  2  0
 14 13  1  6
 13 12  1  0
 14 15  1  0
 15  7  1  0
 16 14  1  0
 17 16  2  0
 18 16  1  0
 19 23  1  0
 19 18  1  0
 19 20  1  1
 21 20  1  0
 21 25  1  0
 22 21  2  0
 23 26  1  0
 24 23  2  0
M  END
$$$$
