LQD.pdb
     RDKit          3D

 26 25  0  0  1  0  0  0  0  0999 V2000
    5.7470  -11.1469   26.0402 C   0  0  0  0  0  0  0  0  0  0  0  0
    6.9083  -12.1006   26.1583 C   0  0  1  0  0  0  0  0  0  0  0  0
    7.3854  -12.0942   27.5879 C   0  0  0  0  0  0  0  0  0  0  0  0
    6.5366  -13.5038   25.7685 C   0  0  0  0  0  0  0  0  0  0  0  0
    7.7459  -14.3698   25.6093 C   0  0  2  0  0  0  0  0  0  0  0  0
    8.9615  -13.6305   25.4098 N   0  0  0  0  0  0  0  0  0  0  0  0
    7.5581  -15.2724   24.4345 C   0  0  0  0  0  0  0  0  0  0  0  0
    6.5446  -15.9873   24.3272 O   0  0  0  0  0  0  0  0  0  0  0  0
    8.9506  -12.9342   20.3452 N   0  0  0  0  0  0  0  0  0  0  0  0
    7.6860  -13.5498   20.1167 C   0  0  0  0  0  0  0  0  0  0  0  0
    6.7519  -12.8087   19.7135 O   0  0  0  0  0  0  0  0  0  0  0  0
    7.4737  -15.0126   20.3450 C   0  0  0  0  0  0  0  0  0  0  0  0
    8.7140  -15.5677   20.9984 C   0  0  0  0  0  0  0  0  0  0  0  0
    8.4065  -16.2071   22.3303 C   0  0  2  0  0  0  0  0  0  0  0  0
    8.5556  -15.3061   23.4344 N   0  0  0  0  0  0  0  0  0  0  0  0
    9.3402  -17.3602   22.4927 C   0  0  0  0  0  0  0  0  0  0  0  0
    9.5833  -18.1616   21.5413 O   0  0  0  0  0  0  0  0  0  0  0  0
   10.0081  -17.6262   23.7175 N   0  0  0  0  0  0  0  0  0  0  0  0
   11.4095  -17.9042   23.8125 C   0  0  1  0  0  0  0  0  0  0  0  0
   12.1594  -16.7931   23.0958 C   0  0  0  0  0  0  0  0  0  0  0  0
   13.6095  -16.9556   23.1534 C   0  0  0  0  0  0  0  0  0  0  0  0
   14.1959  -17.9821   22.7345 O   0  0  0  0  0  0  0  0  0  0  0  0
   11.8945  -18.1068   25.1720 C   0  0  0  0  0  0  0  0  0  0  0  0
   11.2202  -17.7464   26.1610 O   0  0  0  0  0  0  0  0  0  0  0  0
   14.3893  -15.9444   23.6901 O   0  0  0  0  0  0  0  0  0  0  0  0
   13.1151  -18.7036   25.4127 O   0  0  0  0  0  0  0  0  0  0  0  0
  2  3  1  1
  2  1  1  0
  4  2  1  0
  5  4  1  0
  5  6  1  6
  7  5  1  0
  8  7  2  0
 10 12  1  0
 10  9  1  0
 11 10  2  0
 14 13  1  6
 13 12  1  0
 14 15  1  0
 15  7  1  0
 16 14  1  0
 17 16  2  0
 18 16  1  0
 19 23  1  0
 19 18  1  0
 19 20  1  1
 21 20  1  0
 21 25  1  0
 22 21  2  0
 23 26  1  0
 24 23  2  0
M  END
$$$$
