LQD.pdb
     RDKit          3D

 26 25  0  0  1  0  0  0  0  0999 V2000
    5.9811  -11.9178   27.2086 C   0  0  0  0  0  0  0  0  0  0  0  0
    6.2988  -12.3858   25.8115 C   0  0  1  0  0  0  0  0  0  0  0  0
    6.1571  -11.2145   24.8737 C   0  0  0  0  0  0  0  0  0  0  0  0
    7.6903  -12.9426   25.6986 C   0  0  0  0  0  0  0  0  0  0  0  0
    7.7142  -14.2072   24.8997 C   0  0  2  0  0  0  0  0  0  0  0  0
    6.4075  -14.7138   24.5838 N   0  0  0  0  0  0  0  0  0  0  0  0
    8.4447  -15.2623   25.6634 C   0  0  0  0  0  0  0  0  0  0  0  0
    9.4567  -14.9874   26.3344 O   0  0  0  0  0  0  0  0  0  0  0  0
    6.4082  -20.7758   27.8133 N   0  0  0  0  0  0  0  0  0  0  0  0
    7.8202  -20.8602   27.9844 C   0  0  0  0  0  0  0  0  0  0  0  0
    8.2634  -21.8584   28.6103 O   0  0  0  0  0  0  0  0  0  0  0  0
    8.7392  -19.8105   27.4456 C   0  0  0  0  0  0  0  0  0  0  0  0
    7.8994  -18.7616   26.7616 C   0  0  0  0  0  0  0  0  0  0  0  0
    8.7435  -17.6329   26.2223 C   0  0  2  0  0  0  0  0  0  0  0  0
    7.9686  -16.5917   25.6152 N   0  0  0  0  0  0  0  0  0  0  0  0
    9.6742  -18.2200   25.2140 C   0  0  0  0  0  0  0  0  0  0  0  0
    9.2484  -18.8323   24.1892 O   0  0  0  0  0  0  0  0  0  0  0  0
   11.0855  -18.1276   25.3430 N   0  0  0  0  0  0  0  0  0  0  0  0
   11.9907  -18.2203   24.2375 C   0  0  1  0  0  0  0  0  0  0  0  0
   11.5253  -17.2486   23.1654 C   0  0  0  0  0  0  0  0  0  0  0  0
   12.3747  -17.2617   21.9775 C   0  0  0  0  0  0  0  0  0  0  0  0
   12.4457  -16.2949   21.1817 O   0  0  0  0  0  0  0  0  0  0  0  0
   13.3923  -18.0244   24.5862 C   0  0  0  0  0  0  0  0  0  0  0  0
   14.2994  -18.1908   23.7423 O   0  0  0  0  0  0  0  0  0  0  0  0
   13.1431  -18.3802   21.6995 O   0  0  0  0  0  0  0  0  0  0  0  0
   13.7648  -17.6484   25.8605 O   0  0  0  0  0  0  0  0  0  0  0  0
  2  3  1  6
  2  1  1  0
  4  2  1  0
  5  4  1  0
  5  6  1  1
  7  5  1  0
  8  7  2  0
 10 12  1  0
 10  9  1  0
 11 10  2  0
 14 13  1  6
 13 12  1  0
 14 15  1  0
 15  7  1  0
 16 14  1  0
 17 16  2  0
 18 16  1  0
 19 23  1  0
 19 18  1  0
 19 20  1  6
 21 20  1  0
 21 25  1  0
 22 21  2  0
 23 26  1  0
 24 23  2  0
M  END
$$$$
