LQD.pdb
     RDKit          3D

 26 25  0  0  1  0  0  0  0  0999 V2000
    7.0680  -12.0686   20.1408 C   0  0  0  0  0  0  0  0  0  0  0  0
    8.0005  -13.1998   19.7901 C   0  0  1  0  0  0  0  0  0  0  0  0
    9.3507  -12.6178   19.4587 C   0  0  0  0  0  0  0  0  0  0  0  0
    8.1508  -14.1854   20.9149 C   0  0  0  0  0  0  0  0  0  0  0  0
    9.1264  -15.2666   20.5729 C   0  0  2  0  0  0  0  0  0  0  0  0
    8.7241  -16.0727   19.4538 N   0  0  0  0  0  0  0  0  0  0  0  0
    9.3001  -16.1682   21.7507 C   0  0  0  0  0  0  0  0  0  0  0  0
    8.3518  -16.4142   22.5188 O   0  0  0  0  0  0  0  0  0  0  0  0
   13.8498  -19.0964   21.0051 N   0  0  0  0  0  0  0  0  0  0  0  0
   12.6203  -19.7462   20.6943 C   0  0  0  0  0  0  0  0  0  0  0  0
   12.5798  -20.4184   19.6308 O   0  0  0  0  0  0  0  0  0  0  0  0
   11.4276  -19.6369   21.5900 C   0  0  0  0  0  0  0  0  0  0  0  0
   11.7909  -18.7354   22.7427 C   0  0  0  0  0  0  0  0  0  0  0  0
   10.7078  -17.7230   23.0244 C   0  0  2  0  0  0  0  0  0  0  0  0
   10.5681  -16.7455   21.9860 N   0  0  0  0  0  0  0  0  0  0  0  0
   11.0584  -17.0465   24.3078 C   0  0  0  0  0  0  0  0  0  0  0  0
   12.0641  -16.2814   24.4062 O   0  0  0  0  0  0  0  0  0  0  0  0
   10.2892  -17.2196   25.4890 N   0  0  0  0  0  0  0  0  0  0  0  0
   10.6559  -16.6744   26.7613 C   0  0  1  0  0  0  0  0  0  0  0  0
    9.5439  -15.7410   27.2114 C   0  0  0  0  0  0  0  0  0  0  0  0
   10.0232  -14.4014   27.5405 C   0  0  0  0  0  0  0  0  0  0  0  0
   11.2418  -14.1100   27.5971 O   0  0  0  0  0  0  0  0  0  0  0  0
   10.9815  -17.6705   27.7743 C   0  0  0  0  0  0  0  0  0  0  0  0
   11.9224  -17.4937   28.5780 O   0  0  0  0  0  0  0  0  0  0  0  0
    9.1091  -13.3947   27.8049 O   0  0  0  0  0  0  0  0  0  0  0  0
   10.2614  -18.8427   27.8799 O   0  0  0  0  0  0  0  0  0  0  0  0
  2  3  1  1
  2  1  1  0
  4  2  1  0
  5  4  1  0
  5  6  1  6
  7  5  1  0
  8  7  2  0
 10 12  1  0
 10  9  1  0
 11 10  2  0
 14 13  1  6
 13 12  1  0
 14 15  1  0
 15  7  1  0
 16 14  1  0
 17 16  2  0
 18 16  1  0
 19 23  1  0
 19 18  1  0
 19 20  1  1
 21 20  1  0
 21 25  1  0
 22 21  2  0
 23 26  1  0
 24 23  2  0
M  END
$$$$
