AIV.pdb
     RDKit          3D

 21 20  0  0  1  0  0  0  0  0999 V2000
   27.7394  -20.3257  -17.0204 C   0  0  0  0  0  0  0  0  0  0  0  0
   28.1950  -21.0613  -15.7789 C   0  0  2  0  0  0  0  0  0  0  0  0
   28.8859  -22.2614  -16.1371 N   0  0  0  0  0  0  0  0  0  0  0  0
   27.0795  -21.3806  -14.8717 C   0  0  0  0  0  0  0  0  0  0  0  0
   26.2774  -22.2830  -15.1987 O   0  0  0  0  0  0  0  0  0  0  0  0
   25.1173  -20.9853   -8.9176 C   0  0  0  0  0  0  0  0  0  0  0  0
   24.9283  -21.2515  -10.3642 C   0  0  0  0  0  0  0  0  0  0  0  0
   25.9844  -20.7891  -11.2919 C   0  0  2  0  0  0  0  0  0  0  0  0
   26.3770  -19.3490  -11.0292 C   0  0  0  0  0  0  0  0  0  0  0  0
   25.7713  -21.0663  -12.7465 C   0  0  2  0  0  0  0  0  0  0  0  0
   26.8406  -20.7228  -13.6201 N   0  0  0  0  0  0  0  0  0  0  0  0
   24.4603  -20.4543  -13.1491 C   0  0  0  0  0  0  0  0  0  0  0  0
   24.3414  -19.2171  -13.3281 O   0  0  0  0  0  0  0  0  0  0  0  0
   20.1856  -20.7656  -15.3969 C   0  0  0  0  0  0  0  0  0  0  0  0
   21.4279  -21.4760  -14.9062 C   0  0  1  0  0  0  0  0  0  0  0  0
   22.3685  -21.5679  -16.1116 C   0  0  0  0  0  0  0  0  0  0  0  0
   22.0696  -20.6561  -13.8060 C   0  0  2  0  0  0  0  0  0  0  0  0
   23.2876  -21.2583  -13.3463 N   0  0  0  0  0  0  0  0  0  0  0  0
   21.1113  -20.5813  -12.6824 C   0  0  0  0  0  0  0  0  0  0  0  0
   20.2095  -19.5407  -12.5038 O   0  0  0  0  0  0  0  0  0  0  0  0
   21.1019  -21.5046  -11.8346 O   0  0  0  0  0  0  0  0  0  0  0  0
  2  1  1  6
  2  4  1  0
  3  2  1  0
  4 11  1  0
  4  5  2  0
  7  6  1  0
  7  8  1  0
  8 10  1  0
  8  9  1  6
 10 12  1  0
 10 11  1  6
 12 13  2  0
 15 14  1  6
 15 17  1  0
 16 15  1  0
 17 19  1  0
 18 12  1  0
 17 18  1  1
 19 20  1  0
 21 19  2  0
M  END
$$$$
