AIV.pdb
     RDKit          3D

 21 20  0  0  1  0  0  0  0  0999 V2000
   22.9824  -19.9705  -11.5817 C   0  0  0  0  0  0  0  0  0  0  0  0
   24.2256  -20.6011  -12.1705 C   0  0  2  0  0  0  0  0  0  0  0  0
   23.8759  -21.7218  -12.9874 N   0  0  0  0  0  0  0  0  0  0  0  0
   25.1889  -21.0187  -11.1376 C   0  0  0  0  0  0  0  0  0  0  0  0
   24.9820  -22.0854  -10.5180 O   0  0  0  0  0  0  0  0  0  0  0  0
   30.3878  -21.5832  -12.0114 C   0  0  0  0  0  0  0  0  0  0  0  0
   28.9923  -21.5494  -11.5105 C   0  0  0  0  0  0  0  0  0  0  0  0
   28.7311  -20.8149  -10.2527 C   0  0  2  0  0  0  0  0  0  0  0  0
   29.6558  -21.2579   -9.1367 C   0  0  0  0  0  0  0  0  0  0  0  0
   27.3049  -20.7240   -9.8100 C   0  0  2  0  0  0  0  0  0  0  0  0
   26.3665  -20.2810  -10.7835 N   0  0  0  0  0  0  0  0  0  0  0  0
   27.2624  -19.9217   -8.5412 C   0  0  0  0  0  0  0  0  0  0  0  0
   27.1499  -18.6713   -8.5592 O   0  0  0  0  0  0  0  0  0  0  0  0
   25.6626  -21.5177   -5.2603 C   0  0  0  0  0  0  0  0  0  0  0  0
   26.8275  -20.6327   -4.8747 C   0  0  1  0  0  0  0  0  0  0  0  0
   27.9782  -21.5779   -4.5162 C   0  0  0  0  0  0  0  0  0  0  0  0
   27.2118  -19.7698   -6.0589 C   0  0  2  0  0  0  0  0  0  0  0  0
   27.3487  -20.5511   -7.2540 N   0  0  0  0  0  0  0  0  0  0  0  0
   28.5074  -19.1287   -5.7475 C   0  0  0  0  0  0  0  0  0  0  0  0
   29.7140  -19.5056   -6.3219 O   0  0  0  0  0  0  0  0  0  0  0  0
   28.5319  -18.1889   -4.9183 O   0  0  0  0  0  0  0  0  0  0  0  0
  2  1  1  1
  2  4  1  0
  3  2  1  0
  4 11  1  0
  4  5  2  0
  7  6  1  0
  7  8  1  0
  8 10  1  0
  8  9  1  1
 10 12  1  0
 10 11  1  6
 12 13  2  0
 15 14  1  6
 15 17  1  0
 16 15  1  0
 17 19  1  0
 18 12  1  0
 17 18  1  6
 19 20  1  0
 21 19  2  0
M  END
$$$$
