AIV.pdb
     RDKit          3D

 21 20  0  0  1  0  0  0  0  0999 V2000
   20.2838  -16.9650  -20.2458 C   0  0  0  0  0  0  0  0  0  0  0  0
   21.7548  -16.7524  -19.9618 C   0  0  2  0  0  0  0  0  0  0  0  0
   22.5430  -17.1712  -21.0794 N   0  0  0  0  0  0  0  0  0  0  0  0
   22.2014  -17.4543  -18.7463 C   0  0  0  0  0  0  0  0  0  0  0  0
   22.1690  -18.7046  -18.7273 O   0  0  0  0  0  0  0  0  0  0  0  0
   26.2346  -15.4510  -15.3685 C   0  0  0  0  0  0  0  0  0  0  0  0
   25.2804  -16.2259  -16.1981 C   0  0  0  0  0  0  0  0  0  0  0  0
   24.0949  -16.8019  -15.5253 C   0  0  2  0  0  0  0  0  0  0  0  0
   24.4778  -17.6255  -14.3120 C   0  0  0  0  0  0  0  0  0  0  0  0
   23.0985  -17.4988  -16.3968 C   0  0  2  0  0  0  0  0  0  0  0  0
   22.6787  -16.7999  -17.5630 N   0  0  0  0  0  0  0  0  0  0  0  0
   21.9546  -17.9434  -15.5313 C   0  0  0  0  0  0  0  0  0  0  0  0
   21.2573  -17.1185  -14.8908 O   0  0  0  0  0  0  0  0  0  0  0  0
   19.6200  -21.0617  -16.3863 C   0  0  0  0  0  0  0  0  0  0  0  0
   19.9837  -21.0804  -14.9179 C   0  0  1  0  0  0  0  0  0  0  0  0
   21.0563  -22.1624  -14.7599 C   0  0  0  0  0  0  0  0  0  0  0  0
   20.5450  -19.7292  -14.5257 C   0  0  2  0  0  0  0  0  0  0  0  0
   21.6101  -19.3306  -15.3998 N   0  0  0  0  0  0  0  0  0  0  0  0
   21.0655  -19.8408  -13.1462 C   0  0  0  0  0  0  0  0  0  0  0  0
   20.2645  -19.8043  -12.0127 O   0  0  0  0  0  0  0  0  0  0  0  0
   22.3000  -19.9767  -12.9761 O   0  0  0  0  0  0  0  0  0  0  0  0
  2  1  1  6
  2  4  1  0
  3  2  1  0
  4 11  1  0
  4  5  2  0
  7  6  1  0
  7  8  1  0
  8 10  1  0
  8  9  1  1
 10 12  1  0
 10 11  1  6
 12 13  2  0
 15 14  1  6
 15 17  1  0
 16 15  1  0
 17 19  1  0
 18 12  1  0
 17 18  1  6
 19 20  1  0
 21 19  2  0
M  END
$$$$
