AIV.pdb
     RDKit          3D

 21 20  0  0  1  0  0  0  0  0999 V2000
   18.7551  -23.4908  -12.7053 C   0  0  0  0  0  0  0  0  0  0  0  0
   19.2126  -22.6663  -11.5218 C   0  0  2  0  0  0  0  0  0  0  0  0
   18.0899  -22.0675  -10.8687 N   0  0  0  0  0  0  0  0  0  0  0  0
   20.1820  -21.6245  -11.9016 C   0  0  0  0  0  0  0  0  0  0  0  0
   19.7601  -20.4758  -12.1609 O   0  0  0  0  0  0  0  0  0  0  0  0
   24.9903  -20.8958   -9.3630 C   0  0  0  0  0  0  0  0  0  0  0  0
   23.7207  -20.8411  -10.1274 C   0  0  0  0  0  0  0  0  0  0  0  0
   23.8090  -20.7782  -11.6031 C   0  0  2  0  0  0  0  0  0  0  0  0
   24.7242  -19.6630  -12.0679 C   0  0  0  0  0  0  0  0  0  0  0  0
   22.5170  -20.8076  -12.3568 C   0  0  2  0  0  0  0  0  0  0  0  0
   21.5975  -21.8325  -11.9979 N   0  0  0  0  0  0  0  0  0  0  0  0
   22.8344  -20.7870  -13.8245 C   0  0  0  0  0  0  0  0  0  0  0  0
   23.5622  -21.6645  -14.3506 O   0  0  0  0  0  0  0  0  0  0  0  0
   20.1125  -19.4761  -15.9350 C   0  0  0  0  0  0  0  0  0  0  0  0
   21.2906  -19.5152  -16.8834 C   0  0  1  0  0  0  0  0  0  0  0  0
   21.3865  -18.1158  -17.4989 C   0  0  0  0  0  0  0  0  0  0  0  0
   22.5499  -19.8281  -16.1020 C   0  0  2  0  0  0  0  0  0  0  0  0
   22.3189  -19.7626  -14.6879 N   0  0  0  0  0  0  0  0  0  0  0  0
   23.5714  -18.8256  -16.4736 C   0  0  0  0  0  0  0  0  0  0  0  0
   24.3163  -18.8786  -17.6441 O   0  0  0  0  0  0  0  0  0  0  0  0
   23.7874  -17.8669  -15.6953 O   0  0  0  0  0  0  0  0  0  0  0  0
  2  1  1  6
  2  4  1  0
  3  2  1  0
  4 11  1  0
  4  5  2  0
  7  6  1  0
  7  8  1  0
  8 10  1  0
  8  9  1  1
 10 12  1  0
 10 11  1  6
 12 13  2  0
 15 14  1  1
 15 17  1  0
 16 15  1  0
 17 19  1  0
 18 12  1  0
 17 18  1  1
 19 20  1  0
 21 19  2  0
M  END
$$$$
