AIV.pdb
     RDKit          3D

 21 20  0  0  1  0  0  0  0  0999 V2000
   17.9577   -9.6311  -18.9719 C   0  0  0  0  0  0  0  0  0  0  0  0
   18.6863  -10.7691  -18.2909 C   0  0  2  0  0  0  0  0  0  0  0  0
   17.7654  -11.7993  -17.9215 N   0  0  0  0  0  0  0  0  0  0  0  0
   19.4403  -10.3266  -17.1056 C   0  0  0  0  0  0  0  0  0  0  0  0
   18.8259  -10.1619  -16.0285 O   0  0  0  0  0  0  0  0  0  0  0  0
   23.8634  -12.6712  -15.2088 C   0  0  0  0  0  0  0  0  0  0  0  0
   22.6539  -11.8805  -15.5425 C   0  0  0  0  0  0  0  0  0  0  0  0
   22.7839  -10.4068  -15.5765 C   0  0  2  0  0  0  0  0  0  0  0  0
   23.4613   -9.8700  -14.3315 C   0  0  0  0  0  0  0  0  0  0  0  0
   21.5570   -9.6309  -15.9383 C   0  0  2  0  0  0  0  0  0  0  0  0
   20.8504  -10.0660  -17.0942 N   0  0  0  0  0  0  0  0  0  0  0  0
   21.9242   -8.1755  -15.9841 C   0  0  0  0  0  0  0  0  0  0  0  0
   22.8330   -7.7516  -16.7397 O   0  0  0  0  0  0  0  0  0  0  0  0
   19.8679   -5.3793  -16.9771 C   0  0  0  0  0  0  0  0  0  0  0  0
   20.3814   -4.9751  -15.6126 C   0  0  1  0  0  0  0  0  0  0  0  0
   19.2421   -5.2592  -14.6290 C   0  0  0  0  0  0  0  0  0  0  0  0
   21.5915   -5.8174  -15.2653 C   0  0  2  0  0  0  0  0  0  0  0  0
   21.2513   -7.2073  -15.1654 N   0  0  0  0  0  0  0  0  0  0  0  0
   22.1071   -5.3492  -13.9610 C   0  0  0  0  0  0  0  0  0  0  0  0
   22.8269   -4.1741  -13.7913 O   0  0  0  0  0  0  0  0  0  0  0  0
   21.8887   -6.0443  -12.9409 O   0  0  0  0  0  0  0  0  0  0  0  0
  2  1  1  1
  2  4  1  0
  3  2  1  0
  4 11  1  0
  4  5  2  0
  7  6  1  0
  7  8  1  0
  8 10  1  0
  8  9  1  1
 10 12  1  0
 10 11  1  6
 12 13  2  0
 15 14  1  6
 15 17  1  0
 16 15  1  0
 17 19  1  0
 18 12  1  0
 17 18  1  1
 19 20  1  0
 21 19  2  0
M  END
$$$$
