AIV.pdb
     RDKit          3D

 21 20  0  0  1  0  0  0  0  0999 V2000
   28.6912  -18.0597  -15.5559 C   0  0  0  0  0  0  0  0  0  0  0  0
   27.3602  -18.7222  -15.8378 C   0  0  2  0  0  0  0  0  0  0  0  0
   26.7068  -18.0790  -16.9355 N   0  0  0  0  0  0  0  0  0  0  0  0
   26.4725  -18.7261  -14.6626 C   0  0  0  0  0  0  0  0  0  0  0  0
   26.0667  -17.6322  -14.2114 O   0  0  0  0  0  0  0  0  0  0  0  0
   21.6066  -20.2056  -14.5496 C   0  0  0  0  0  0  0  0  0  0  0  0
   22.9984  -19.7615  -14.2947 C   0  0  0  0  0  0  0  0  0  0  0  0
   23.7351  -20.4105  -13.1875 C   0  0  2  0  0  0  0  0  0  0  0  0
   22.8884  -20.5258  -11.9358 C   0  0  0  0  0  0  0  0  0  0  0  0
   25.1103  -19.8956  -12.9009 C   0  0  2  0  0  0  0  0  0  0  0  0
   26.0311  -19.9106  -13.9856 N   0  0  0  0  0  0  0  0  0  0  0  0
   25.6255  -20.6012  -11.6795 C   0  0  0  0  0  0  0  0  0  0  0  0
   25.8179  -21.8420  -11.6708 O   0  0  0  0  0  0  0  0  0  0  0  0
   26.1535  -18.6352   -7.8241 C   0  0  0  0  0  0  0  0  0  0  0  0
   27.1197  -19.6687   -8.3600 C   0  0  1  0  0  0  0  0  0  0  0  0
   27.6185  -20.4545   -7.1435 C   0  0  0  0  0  0  0  0  0  0  0  0
   26.3861  -20.5915   -9.3111 C   0  0  2  0  0  0  0  0  0  0  0  0
   25.9199  -19.8864  -10.4700 N   0  0  0  0  0  0  0  0  0  0  0  0
   25.2265  -21.1554   -8.5873 C   0  0  0  0  0  0  0  0  0  0  0  0
   25.2860  -22.3022   -7.8069 O   0  0  0  0  0  0  0  0  0  0  0  0
   24.1195  -20.5739   -8.6749 O   0  0  0  0  0  0  0  0  0  0  0  0
  2  1  1  1
  2  4  1  0
  3  2  1  0
  4 11  1  0
  4  5  2  0
  7  6  1  0
  7  8  1  0
  8 10  1  0
  8  9  1  1
 10 12  1  0
 10 11  1  6
 12 13  2  0
 15 14  1  1
 15 17  1  0
 16 15  1  0
 17 19  1  0
 18 12  1  0
 17 18  1  6
 19 20  1  0
 21 19  2  0
M  END
$$$$
