AIV.pdb
     RDKit          3D

 21 20  0  0  1  0  0  0  0  0999 V2000
   27.8305  -24.1644  -17.2348 C   0  0  0  0  0  0  0  0  0  0  0  0
   28.5341  -22.8264  -17.3025 C   0  0  2  0  0  0  0  0  0  0  0  0
   29.9517  -23.0114  -17.3460 N   0  0  0  0  0  0  0  0  0  0  0  0
   28.1809  -21.9462  -16.1757 C   0  0  0  0  0  0  0  0  0  0  0  0
   28.7219  -22.1438  -15.0653 O   0  0  0  0  0  0  0  0  0  0  0  0
   27.3935  -16.5472  -16.9819 C   0  0  0  0  0  0  0  0  0  0  0  0
   27.7224  -17.8911  -16.4481 C   0  0  0  0  0  0  0  0  0  0  0  0
   26.7345  -18.5369  -15.5556 C   0  0  2  0  0  0  0  0  0  0  0  0
   26.4122  -17.6751  -14.3512 C   0  0  0  0  0  0  0  0  0  0  0  0
   26.9936  -19.9628  -15.1842 C   0  0  2  0  0  0  0  0  0  0  0  0
   27.2472  -20.8610  -16.2582 N   0  0  0  0  0  0  0  0  0  0  0  0
   25.8811  -20.4181  -14.2840 C   0  0  0  0  0  0  0  0  0  0  0  0
   24.8036  -20.8660  -14.7478 O   0  0  0  0  0  0  0  0  0  0  0  0
   26.8335  -21.4128  -10.4700 C   0  0  0  0  0  0  0  0  0  0  0  0
   25.3995  -20.9406  -10.5662 C   0  0  1  0  0  0  0  0  0  0  0  0
   25.3804  -19.5212   -9.9907 C   0  0  0  0  0  0  0  0  0  0  0  0
   24.9780  -20.9185  -12.0210 C   0  0  2  0  0  0  0  0  0  0  0  0
   26.0029  -20.3605  -12.8549 N   0  0  0  0  0  0  0  0  0  0  0  0
   23.7609  -20.0853  -12.1248 C   0  0  0  0  0  0  0  0  0  0  0  0
   22.4935  -20.5199  -11.7607 O   0  0  0  0  0  0  0  0  0  0  0  0
   23.8654  -18.9165  -12.5657 O   0  0  0  0  0  0  0  0  0  0  0  0
  2  1  1  1
  2  4  1  0
  3  2  1  0
  4 11  1  0
  4  5  2  0
  7  6  1  0
  7  8  1  0
  8 10  1  0
  8  9  1  1
 10 12  1  0
 10 11  1  6
 12 13  2  0
 15 14  1  6
 15 17  1  0
 16 15  1  0
 17 19  1  0
 18 12  1  0
 17 18  1  6
 19 20  1  0
 21 19  2  0
M  END
$$$$
