AIV.pdb
     RDKit          3D

 21 20  0  0  1  0  0  0  0  0999 V2000
   20.7480  -12.7694  -20.3701 C   0  0  0  0  0  0  0  0  0  0  0  0
   21.8101  -13.4155  -19.5074 C   0  0  2  0  0  0  0  0  0  0  0  0
   21.4377  -14.7573  -19.1810 N   0  0  0  0  0  0  0  0  0  0  0  0
   22.0717  -12.6567  -18.2725 C   0  0  0  0  0  0  0  0  0  0  0  0
   21.2013  -12.6507  -17.3741 O   0  0  0  0  0  0  0  0  0  0  0  0
   26.9844  -12.6004  -15.7856 C   0  0  0  0  0  0  0  0  0  0  0  0
   25.5601  -12.5570  -16.1966 C   0  0  0  0  0  0  0  0  0  0  0  0
   24.9106  -11.2304  -16.2858 C   0  0  2  0  0  0  0  0  0  0  0  0
   25.0651  -10.4377  -15.0033 C   0  0  0  0  0  0  0  0  0  0  0  0
   23.5096  -11.2007  -16.8098 C   0  0  2  0  0  0  0  0  0  0  0  0
   23.2704  -11.9116  -18.0190 N   0  0  0  0  0  0  0  0  0  0  0  0
   23.0664   -9.7671  -16.8705 C   0  0  0  0  0  0  0  0  0  0  0  0
   23.6567   -8.9280  -17.5944 O   0  0  0  0  0  0  0  0  0  0  0  0
   19.9233   -8.4382  -18.0017 C   0  0  0  0  0  0  0  0  0  0  0  0
   20.0843   -7.8179  -16.6312 C   0  0  1  0  0  0  0  0  0  0  0  0
   19.1928   -8.6328  -15.6891 C   0  0  0  0  0  0  0  0  0  0  0  0
   21.5327   -7.9265  -16.2015 C   0  0  2  0  0  0  0  0  0  0  0  0
   21.9488   -9.2956  -16.1029 N   0  0  0  0  0  0  0  0  0  0  0  0
   21.6585   -7.2846  -14.8753 C   0  0  0  0  0  0  0  0  0  0  0  0
   21.7003   -5.9102  -14.6829 O   0  0  0  0  0  0  0  0  0  0  0  0
   21.7327   -8.0121  -13.8573 O   0  0  0  0  0  0  0  0  0  0  0  0
  2  1  1  1
  2  4  1  0
  3  2  1  0
  4 11  1  0
  4  5  2  0
  7  6  1  0
  7  8  1  0
  8 10  1  0
  8  9  1  1
 10 12  1  0
 10 11  1  6
 12 13  2  0
 15 14  1  6
 15 17  1  0
 16 15  1  0
 17 19  1  0
 18 12  1  0
 17 18  1  1
 19 20  1  0
 21 19  2  0
M  END
$$$$
