AIV.pdb
     RDKit          3D

 21 20  0  0  1  0  0  0  0  0999 V2000
   20.8468  -22.1335  -14.4349 C   0  0  0  0  0  0  0  0  0  0  0  0
   20.8655  -21.3511  -13.1398 C   0  0  2  0  0  0  0  0  0  0  0  0
   19.8168  -20.3786  -13.1308 N   0  0  0  0  0  0  0  0  0  0  0  0
   22.1596  -20.6904  -12.8991 C   0  0  0  0  0  0  0  0  0  0  0  0
   22.4438  -19.6657  -13.5578 O   0  0  0  0  0  0  0  0  0  0  0  0
   26.6498  -19.7656   -8.6533 C   0  0  0  0  0  0  0  0  0  0  0  0
   26.0836  -19.6958  -10.0222 C   0  0  0  0  0  0  0  0  0  0  0  0
   24.9253  -20.5631  -10.3320 C   0  0  2  0  0  0  0  0  0  0  0  0
   25.1570  -21.9947   -9.8917 C   0  0  0  0  0  0  0  0  0  0  0  0
   24.3702  -20.4751  -11.7185 C   0  0  2  0  0  0  0  0  0  0  0  0
   23.1348  -21.1421  -11.9497 N   0  0  0  0  0  0  0  0  0  0  0  0
   25.4504  -20.8840  -12.6784 C   0  0  0  0  0  0  0  0  0  0  0  0
   25.7945  -22.0848  -12.8061 O   0  0  0  0  0  0  0  0  0  0  0  0
   26.1007  -18.8912  -16.1851 C   0  0  0  0  0  0  0  0  0  0  0  0
   27.3853  -19.2604  -15.4764 C   0  0  1  0  0  0  0  0  0  0  0  0
   27.8593  -17.9884  -14.7667 C   0  0  0  0  0  0  0  0  0  0  0  0
   27.1002  -20.3479  -14.4612 C   0  0  2  0  0  0  0  0  0  0  0  0
   26.1352  -19.9187  -13.4907 N   0  0  0  0  0  0  0  0  0  0  0  0
   28.3701  -20.6670  -13.7742 C   0  0  0  0  0  0  0  0  0  0  0  0
   29.3781  -21.4409  -14.3337 O   0  0  0  0  0  0  0  0  0  0  0  0
   28.5606  -20.2191  -12.6191 O   0  0  0  0  0  0  0  0  0  0  0  0
  2  1  1  6
  2  4  1  0
  3  2  1  0
  4 11  1  0
  4  5  2  0
  7  6  1  0
  7  8  1  0
  8 10  1  0
  8  9  1  6
 10 12  1  0
 10 11  1  1
 12 13  2  0
 15 14  1  1
 15 17  1  0
 16 15  1  0
 17 19  1  0
 18 12  1  0
 17 18  1  1
 19 20  1  0
 21 19  2  0
M  END
$$$$
