AIV.pdb
     RDKit          3D

 21 20  0  0  1  0  0  0  0  0999 V2000
   27.8048  -19.8113  -16.9637 C   0  0  0  0  0  0  0  0  0  0  0  0
   28.2801  -20.7780  -15.9010 C   0  0  2  0  0  0  0  0  0  0  0  0
   28.8548  -21.9395  -16.5061 N   0  0  0  0  0  0  0  0  0  0  0  0
   27.2024  -21.1776  -14.9800 C   0  0  0  0  0  0  0  0  0  0  0  0
   26.4507  -22.1223  -15.3073 O   0  0  0  0  0  0  0  0  0  0  0  0
   25.3643  -21.1656   -8.9948 C   0  0  0  0  0  0  0  0  0  0  0  0
   25.1389  -21.3369  -10.4506 C   0  0  0  0  0  0  0  0  0  0  0  0
   26.1605  -20.7935  -11.3729 C   0  0  2  0  0  0  0  0  0  0  0  0
   26.5487  -19.3732  -11.0135 C   0  0  0  0  0  0  0  0  0  0  0  0
   25.9031  -20.9616  -12.8371 C   0  0  2  0  0  0  0  0  0  0  0  0
   26.9463  -20.5537  -13.7145 N   0  0  0  0  0  0  0  0  0  0  0  0
   24.5819  -20.3216  -13.1533 C   0  0  0  0  0  0  0  0  0  0  0  0
   24.4402  -19.0739  -13.1517 O   0  0  0  0  0  0  0  0  0  0  0  0
   22.7345  -20.4799  -16.1996 C   0  0  0  0  0  0  0  0  0  0  0  0
   21.6956  -20.8693  -15.1710 C   0  0  1  0  0  0  0  0  0  0  0  0
   21.5603  -22.3925  -15.2599 C   0  0  0  0  0  0  0  0  0  0  0  0
   22.1828  -20.4691  -13.7937 C   0  0  2  0  0  0  0  0  0  0  0  0
   23.4249  -21.1097  -13.4707 N   0  0  0  0  0  0  0  0  0  0  0  0
   21.1548  -20.8825  -12.8145 C   0  0  0  0  0  0  0  0  0  0  0  0
   19.9443  -20.2249  -12.6408 O   0  0  0  0  0  0  0  0  0  0  0  0
   21.3765  -21.8831  -12.0928 O   0  0  0  0  0  0  0  0  0  0  0  0
  2  1  1  6
  2  4  1  0
  3  2  1  0
  4 11  1  0
  4  5  2  0
  7  6  1  0
  7  8  1  0
  8 10  1  0
  8  9  1  6
 10 12  1  0
 10 11  1  6
 12 13  2  0
 15 14  1  6
 15 17  1  0
 16 15  1  0
 17 19  1  0
 18 12  1  0
 17 18  1  1
 19 20  1  0
 21 19  2  0
M  END
$$$$
