AIV.pdb
     RDKit          3D

 21 20  0  0  1  0  0  0  0  0999 V2000
   20.6438  -18.6276  -18.3274 C   0  0  0  0  0  0  0  0  0  0  0  0
   21.5190  -18.8119  -17.1068 C   0  0  2  0  0  0  0  0  0  0  0  0
   20.8737  -19.6635  -16.1559 N   0  0  0  0  0  0  0  0  0  0  0  0
   21.8741  -17.5325  -16.4693 C   0  0  0  0  0  0  0  0  0  0  0  0
   21.1434  -17.0931  -15.5541 O   0  0  0  0  0  0  0  0  0  0  0  0
   26.9225  -16.0388  -14.9897 C   0  0  0  0  0  0  0  0  0  0  0  0
   25.4710  -16.2455  -15.2126 C   0  0  0  0  0  0  0  0  0  0  0  0
   24.7276  -15.1849  -15.9282 C   0  0  2  0  0  0  0  0  0  0  0  0
   24.9168  -13.8271  -15.2818 C   0  0  0  0  0  0  0  0  0  0  0  0
   23.2947  -15.4682  -16.2518 C   0  0  2  0  0  0  0  0  0  0  0  0
   23.0144  -16.7396  -16.8260 N   0  0  0  0  0  0  0  0  0  0  0  0
   22.7672  -14.3230  -17.0676 C   0  0  0  0  0  0  0  0  0  0  0  0
   23.3296  -13.9605  -18.1301 O   0  0  0  0  0  0  0  0  0  0  0  0
   18.8606  -12.9227  -16.4904 C   0  0  0  0  0  0  0  0  0  0  0  0
   19.6102  -12.7436  -17.7923 C   0  0  1  0  0  0  0  0  0  0  0  0
   19.0292  -11.4867  -18.4472 C   0  0  0  0  0  0  0  0  0  0  0  0
   21.0824  -12.5440  -17.4969 C   0  0  2  0  0  0  0  0  0  0  0  0
   21.5972  -13.5943  -16.6667 N   0  0  0  0  0  0  0  0  0  0  0  0
   21.2295  -11.2524  -16.7923 C   0  0  0  0  0  0  0  0  0  0  0  0
   21.3422  -10.0283  -17.4379 O   0  0  0  0  0  0  0  0  0  0  0  0
   21.2554  -11.2480  -15.5390 O   0  0  0  0  0  0  0  0  0  0  0  0
  2  1  1  6
  2  4  1  0
  3  2  1  0
  4 11  1  0
  4  5  2  0
  7  6  1  0
  7  8  1  0
  8 10  1  0
  8  9  1  1
 10 12  1  0
 10 11  1  6
 12 13  2  0
 15 14  1  1
 15 17  1  0
 16 15  1  0
 17 19  1  0
 18 12  1  0
 17 18  1  1
 19 20  1  0
 21 19  2  0
M  END
$$$$
