AIV.pdb
     RDKit          3D

 21 20  0  0  1  0  0  0  0  0999 V2000
   28.4570  -19.8874  -15.5980 C   0  0  0  0  0  0  0  0  0  0  0  0
   27.0211  -20.3049  -15.3662 C   0  0  2  0  0  0  0  0  0  0  0  0
   26.7873  -21.6066  -15.9107 N   0  0  0  0  0  0  0  0  0  0  0  0
   26.0570  -19.3469  -15.9338 C   0  0  0  0  0  0  0  0  0  0  0  0
   25.9487  -19.2677  -17.1774 O   0  0  0  0  0  0  0  0  0  0  0  0
   20.3461  -17.3993  -15.6479 C   0  0  0  0  0  0  0  0  0  0  0  0
   21.7623  -17.0824  -15.9532 C   0  0  0  0  0  0  0  0  0  0  0  0
   22.8038  -17.9542  -15.3660 C   0  0  2  0  0  0  0  0  0  0  0  0
   22.6071  -18.1451  -13.8755 C   0  0  0  0  0  0  0  0  0  0  0  0
   24.2231  -17.6389  -15.7187 C   0  0  2  0  0  0  0  0  0  0  0  0
   25.2189  -18.4837  -15.1536 N   0  0  0  0  0  0  0  0  0  0  0  0
   24.4583  -16.1818  -15.4410 C   0  0  0  0  0  0  0  0  0  0  0  0
   24.5528  -15.7445  -14.2677 O   0  0  0  0  0  0  0  0  0  0  0  0
   27.2175  -13.9727  -16.1227 C   0  0  0  0  0  0  0  0  0  0  0  0
   26.0433  -13.2967  -16.7956 C   0  0  1  0  0  0  0  0  0  0  0  0
   26.1380  -13.6603  -18.2806 C   0  0  0  0  0  0  0  0  0  0  0  0
   24.7546  -13.8345  -16.2088 C   0  0  2  0  0  0  0  0  0  0  0  0
   24.5849  -15.2275  -16.5057 N   0  0  0  0  0  0  0  0  0  0  0  0
   23.6359  -13.0719  -16.8036 C   0  0  0  0  0  0  0  0  0  0  0  0
   22.7184  -13.6137  -17.6937 O   0  0  0  0  0  0  0  0  0  0  0  0
   23.4965  -11.8651  -16.4946 O   0  0  0  0  0  0  0  0  0  0  0  0
  2  1  1  6
  2  4  1  0
  3  2  1  0
  4 11  1  0
  4  5  2  0
  7  6  1  0
  7  8  1  0
  8 10  1  0
  8  9  1  1
 10 12  1  0
 10 11  1  1
 12 13  2  0
 15 14  1  1
 15 17  1  0
 16 15  1  0
 17 19  1  0
 18 12  1  0
 17 18  1  6
 19 20  1  0
 21 19  2  0
M  END
$$$$
