AIV.pdb
     RDKit          3D

 21 20  0  0  1  0  0  0  0  0999 V2000
   21.6906  -12.4488  -20.7040 C   0  0  0  0  0  0  0  0  0  0  0  0
   22.4716  -13.1385  -19.6066 C   0  0  2  0  0  0  0  0  0  0  0  0
   21.8517  -14.3798  -19.2594 N   0  0  0  0  0  0  0  0  0  0  0  0
   22.6149  -12.2998  -18.4044 C   0  0  0  0  0  0  0  0  0  0  0  0
   21.6449  -12.2003  -17.6210 O   0  0  0  0  0  0  0  0  0  0  0  0
   27.2968  -12.2105  -15.4450 C   0  0  0  0  0  0  0  0  0  0  0  0
   25.9458  -12.1727  -16.0555 C   0  0  0  0  0  0  0  0  0  0  0  0
   25.3021  -10.8504  -16.2188 C   0  0  2  0  0  0  0  0  0  0  0  0
   25.3517  -10.0356  -14.9418 C   0  0  0  0  0  0  0  0  0  0  0  0
   23.9473  -10.8349  -16.8534 C   0  0  2  0  0  0  0  0  0  0  0  0
   23.8041  -11.5766  -18.0592 N   0  0  0  0  0  0  0  0  0  0  0  0
   23.5123   -9.4036  -16.9856 C   0  0  0  0  0  0  0  0  0  0  0  0
   24.2083   -8.5609  -17.6037 O   0  0  0  0  0  0  0  0  0  0  0  0
   20.5234   -8.0404  -18.5511 C   0  0  0  0  0  0  0  0  0  0  0  0
   20.5115   -7.4419  -17.1617 C   0  0  1  0  0  0  0  0  0  0  0  0
   19.5045   -8.2656  -16.3532 C   0  0  0  0  0  0  0  0  0  0  0  0
   21.8932   -7.5653  -16.5534 C   0  0  2  0  0  0  0  0  0  0  0  0
   22.2820   -8.9386  -16.4106 N   0  0  0  0  0  0  0  0  0  0  0  0
   21.8562   -6.9304  -15.2185 C   0  0  0  0  0  0  0  0  0  0  0  0
   21.8363   -5.5568  -15.0164 O   0  0  0  0  0  0  0  0  0  0  0  0
   21.8416   -7.6633  -14.2017 O   0  0  0  0  0  0  0  0  0  0  0  0
  2  1  1  6
  2  4  1  0
  3  2  1  0
  4 11  1  0
  4  5  2  0
  7  6  1  0
  7  8  1  0
  8 10  1  0
  8  9  1  1
 10 12  1  0
 10 11  1  6
 12 13  2  0
 15 14  1  6
 15 17  1  0
 16 15  1  0
 17 19  1  0
 18 12  1  0
 17 18  1  1
 19 20  1  0
 21 19  2  0
M  END
$$$$
