AIV.pdb
     RDKit          3D

 21 20  0  0  1  0  0  0  0  0999 V2000
   20.6228  -12.9610  -20.0967 C   0  0  0  0  0  0  0  0  0  0  0  0
   21.7006  -13.5681  -19.2252 C   0  0  2  0  0  0  0  0  0  0  0  0
   21.3622  -14.9143  -18.8804 N   0  0  0  0  0  0  0  0  0  0  0  0
   21.9425  -12.7859  -18.0009 C   0  0  0  0  0  0  0  0  0  0  0  0
   21.0512  -12.7500  -17.1239 O   0  0  0  0  0  0  0  0  0  0  0  0
   26.7655  -12.7330  -15.3450 C   0  0  0  0  0  0  0  0  0  0  0  0
   25.3651  -12.6764  -15.8296 C   0  0  0  0  0  0  0  0  0  0  0  0
   24.7399  -11.3427  -15.9709 C   0  0  2  0  0  0  0  0  0  0  0  0
   24.8645  -10.5225  -14.7025 C   0  0  0  0  0  0  0  0  0  0  0  0
   23.3577  -11.3042  -16.5420 C   0  0  2  0  0  0  0  0  0  0  0  0
   23.1441  -12.0500  -17.7347 N   0  0  0  0  0  0  0  0  0  0  0  0
   22.9450   -9.8653  -16.6637 C   0  0  0  0  0  0  0  0  0  0  0  0
   23.6041   -9.0501  -17.3548 O   0  0  0  0  0  0  0  0  0  0  0  0
   19.7063   -8.6222  -17.9084 C   0  0  0  0  0  0  0  0  0  0  0  0
   19.9066   -7.9177  -16.5847 C   0  0  1  0  0  0  0  0  0  0  0  0
   19.0427   -8.6703  -15.5681 C   0  0  0  0  0  0  0  0  0  0  0  0
   21.3668   -8.0017  -16.1907 C   0  0  2  0  0  0  0  0  0  0  0  0
   21.7792   -9.3614  -15.9948 N   0  0  0  0  0  0  0  0  0  0  0  0
   21.5356   -7.2563  -14.9249 C   0  0  0  0  0  0  0  0  0  0  0  0
   21.5919   -5.8713  -14.8452 O   0  0  0  0  0  0  0  0  0  0  0  0
   21.6349   -7.9002  -13.8540 O   0  0  0  0  0  0  0  0  0  0  0  0
  2  1  1  1
  2  4  1  0
  3  2  1  0
  4 11  1  0
  4  5  2  0
  7  6  1  0
  7  8  1  0
  8 10  1  0
  8  9  1  1
 10 12  1  0
 10 11  1  6
 12 13  2  0
 15 14  1  6
 15 17  1  0
 16 15  1  0
 17 19  1  0
 18 12  1  0
 17 18  1  1
 19 20  1  0
 21 19  2  0
M  END
$$$$
