APM.pdb
     RDKit          3D

 21 21  0  0  1  0  0  0  0  0999 V2000
   19.1701  -12.5669    4.5869 C   0  0  0  0  0  0  0  0  0  0  0  0
   17.7224  -12.9394    4.3357 C   0  0  2  0  0  0  0  0  0  0  0  0
   16.8711  -12.0228    5.0153 N   0  0  0  0  0  0  0  0  0  0  0  0
   17.4574  -14.3569    4.5218 C   0  0  0  0  0  0  0  0  0  0  0  0
   17.1263  -14.7030    5.7101 O   0  0  0  0  0  0  0  0  0  0  0  0
   17.5200  -15.3953    3.5595 N   0  0  0  0  0  0  0  0  0  0  0  0
   17.9568  -15.1839    2.1944 C   0  0  0  0  0  0  0  0  0  0  0  0
   17.2208  -16.3174    1.4572 C   0  0  0  0  0  0  0  0  0  0  0  0
   17.3642  -17.4371    2.4241 C   0  0  0  0  0  0  0  0  0  0  0  0
   17.1816  -16.7888    3.7701 C   0  0  1  0  0  0  0  0  0  0  0  0
   18.0695  -17.4519    4.7381 C   0  0  0  0  0  0  0  0  0  0  0  0
   19.1904  -16.9460    4.9936 O   0  0  0  0  0  0  0  0  0  0  0  0
   20.0814  -18.6331   11.7091 C   0  0  0  0  0  0  0  0  0  0  0  0
   19.1022  -17.8402   10.3773 S   0  0  0  0  0  0  0  0  0  0  0  0
   19.2812  -18.8545    8.8904 C   0  0  0  0  0  0  0  0  0  0  0  0
   18.5305  -18.2684    7.7169 C   0  0  0  0  0  0  0  0  0  0  0  0
   18.5931  -19.1672    6.5033 C   0  0  2  0  0  0  0  0  0  0  0  0
   17.7497  -18.6517    5.4259 N   0  0  0  0  0  0  0  0  0  0  0  0
   18.1020  -20.5110    6.8874 C   0  0  0  0  0  0  0  0  0  0  0  0
   18.9840  -21.5010    7.3211 O   0  0  0  0  0  0  0  0  0  0  0  0
   16.8792  -20.7654    6.8232 O   0  0  0  0  0  0  0  0  0  0  0  0
  2  1  1  1
  3  2  1  0
  4  5  2  0
  4  2  1  0
  6  4  1  0
  7  6  1  0
  8  7  1  0
  9  8  1  0
  9 10  1  0
 10 11  1  1
 10  6  1  0
 11 18  1  0
 12 11  2  0
 13 14  1  0
 15 14  1  0
 16 15  1  0
 17 16  1  1
 18 17  1  0
 19 20  1  0
 19 17  1  0
 21 19  2  0
M  END
$$$$
