APM.pdb
     RDKit          3D

 21 21  0  0  1  0  0  0  0  0999 V2000
   20.0448  -11.1550  -18.5295 C   0  0  0  0  0  0  0  0  0  0  0  0
   20.6635  -11.5431  -17.2012 C   0  0  2  0  0  0  0  0  0  0  0  0
   20.4237  -12.9239  -16.9507 N   0  0  0  0  0  0  0  0  0  0  0  0
   20.3515  -10.6089  -16.1316 C   0  0  0  0  0  0  0  0  0  0  0  0
   19.2977  -10.8796  -15.4552 O   0  0  0  0  0  0  0  0  0  0  0  0
   21.0624   -9.4447  -15.7480 N   0  0  0  0  0  0  0  0  0  0  0  0
   22.3309   -9.0627  -16.3345 C   0  0  0  0  0  0  0  0  0  0  0  0
   22.9623   -8.2433  -15.1945 C   0  0  0  0  0  0  0  0  0  0  0  0
   21.7870   -7.4833  -14.6943 C   0  0  0  0  0  0  0  0  0  0  0  0
   20.6546   -8.4730  -14.7527 C   0  0  1  0  0  0  0  0  0  0  0  0
   19.4223   -7.7595  -15.1229 C   0  0  0  0  0  0  0  0  0  0  0  0
   18.9057   -7.9645  -16.2492 O   0  0  0  0  0  0  0  0  0  0  0  0
   12.3094   -7.0353  -16.0611 C   0  0  0  0  0  0  0  0  0  0  0  0
   13.8090   -7.9116  -15.4741 S   0  0  0  0  0  0  0  0  0  0  0  0
   15.0356   -6.6581  -15.0316 C   0  0  0  0  0  0  0  0  0  0  0  0
   16.3827   -7.2727  -14.7285 C   0  0  0  0  0  0  0  0  0  0  0  0
   17.4759   -6.2307  -14.6683 C   0  0  2  0  0  0  0  0  0  0  0  0
   18.7518   -6.8319  -14.2832 N   0  0  0  0  0  0  0  0  0  0  0  0
   17.1044   -5.2173  -13.6535 C   0  0  0  0  0  0  0  0  0  0  0  0
   16.5363   -3.9999  -14.0289 O   0  0  0  0  0  0  0  0  0  0  0  0
   17.3018   -5.4533  -12.4413 O   0  0  0  0  0  0  0  0  0  0  0  0
  2  1  1  6
  3  2  1  0
  4  5  2  0
  4  2  1  0
  6  4  1  0
  7  6  1  0
  8  7  1  0
  9  8  1  0
  9 10  1  0
 10 11  1  6
 10  6  1  0
 11 18  1  0
 12 11  2  0
 13 14  1  0
 15 14  1  0
 16 15  1  0
 17 16  1  1
 18 17  1  0
 19 20  1  0
 19 17  1  0
 21 19  2  0
M  END
$$$$
