APM.pdb
     RDKit          3D

 21 21  0  0  1  0  0  0  0  0999 V2000
   28.2541  -17.6943  -14.4435 C   0  0  0  0  0  0  0  0  0  0  0  0
   26.8358  -18.1233  -14.7632 C   0  0  2  0  0  0  0  0  0  0  0  0
   26.0895  -16.9982  -15.2149 N   0  0  0  0  0  0  0  0  0  0  0  0
   26.2389  -18.9427  -13.7209 C   0  0  0  0  0  0  0  0  0  0  0  0
   25.5799  -18.3026  -12.8279 O   0  0  0  0  0  0  0  0  0  0  0  0
   26.2956  -20.3507  -13.5710 N   0  0  0  0  0  0  0  0  0  0  0  0
   26.9673  -21.2207  -14.5149 C   0  0  0  0  0  0  0  0  0  0  0  0
   26.1950  -22.5383  -14.3219 C   0  0  0  0  0  0  0  0  0  0  0  0
   26.0163  -22.5597  -12.8465 C   0  0  0  0  0  0  0  0  0  0  0  0
   25.7241  -21.1272  -12.4887 C   0  0  1  0  0  0  0  0  0  0  0  0
   26.3404  -20.8306  -11.1860 C   0  0  0  0  0  0  0  0  0  0  0  0
   27.5852  -20.9343  -11.0549 O   0  0  0  0  0  0  0  0  0  0  0  0
   28.9249  -19.3551   -4.3106 C   0  0  0  0  0  0  0  0  0  0  0  0
   28.3002  -18.7210   -5.9134 S   0  0  0  0  0  0  0  0  0  0  0  0
   27.2283  -19.9932   -6.6233 C   0  0  0  0  0  0  0  0  0  0  0  0
   26.8282  -19.6626   -8.0429 C   0  0  0  0  0  0  0  0  0  0  0  0
   26.0539  -20.7900   -8.6863 C   0  0  2  0  0  0  0  0  0  0  0  0
   25.6185  -20.4242  -10.0333 N   0  0  0  0  0  0  0  0  0  0  0  0
   24.8558  -21.0688   -7.8607 C   0  0  0  0  0  0  0  0  0  0  0  0
   24.9713  -21.6727   -6.6085 O   0  0  0  0  0  0  0  0  0  0  0  0
   23.7224  -20.7597   -8.2895 O   0  0  0  0  0  0  0  0  0  0  0  0
  2  1  1  1
  3  2  1  0
  4  5  2  0
  4  2  1  0
  6  4  1  0
  7  6  1  0
  8  7  1  0
  9  8  1  0
  9 10  1  0
 10 11  1  1
 10  6  1  0
 11 18  1  0
 12 11  2  0
 13 14  1  0
 15 14  1  0
 16 15  1  0
 17 16  1  1
 18 17  1  0
 19 20  1  0
 19 17  1  0
 21 19  2  0
M  END
$$$$
