APM.pdb
     RDKit          3D

 21 21  0  0  1  0  0  0  0  0999 V2000
   27.5606  -20.0190  -14.9243 C   0  0  0  0  0  0  0  0  0  0  0  0
   27.3596  -21.3908  -14.3116 C   0  0  2  0  0  0  0  0  0  0  0  0
   27.7903  -22.3894  -15.2303 N   0  0  0  0  0  0  0  0  0  0  0  0
   26.0460  -21.5608  -13.7116 C   0  0  0  0  0  0  0  0  0  0  0  0
   25.1878  -22.1801  -14.4336 O   0  0  0  0  0  0  0  0  0  0  0  0
   25.6006  -21.1294  -12.4374 N   0  0  0  0  0  0  0  0  0  0  0  0
   26.4371  -20.3875  -11.5160 C   0  0  0  0  0  0  0  0  0  0  0  0
   25.8140  -20.7680  -10.1607 C   0  0  0  0  0  0  0  0  0  0  0  0
   24.3642  -20.7416  -10.4872 C   0  0  0  0  0  0  0  0  0  0  0  0
   24.2850  -21.3389  -11.8665 C   0  0  1  0  0  0  0  0  0  0  0  0
   23.2211  -20.6539  -12.6174 C   0  0  0  0  0  0  0  0  0  0  0  0
   23.4083  -19.4784  -13.0185 O   0  0  0  0  0  0  0  0  0  0  0  0
   21.3251  -24.6817  -15.2777 C   0  0  0  0  0  0  0  0  0  0  0  0
   21.2729  -23.3775  -16.5652 S   0  0  0  0  0  0  0  0  0  0  0  0
   21.6282  -21.7986  -15.7575 C   0  0  0  0  0  0  0  0  0  0  0  0
   20.4825  -21.3450  -14.8823 C   0  0  0  0  0  0  0  0  0  0  0  0
   20.9613  -20.5122  -13.7154 C   0  0  2  0  0  0  0  0  0  0  0  0
   21.9646  -21.2336  -12.9339 N   0  0  0  0  0  0  0  0  0  0  0  0
   19.8023  -20.2172  -12.8411 C   0  0  0  0  0  0  0  0  0  0  0  0
   19.7506  -20.6954  -11.5316 O   0  0  0  0  0  0  0  0  0  0  0  0
   18.8543  -19.5297  -13.2801 O   0  0  0  0  0  0  0  0  0  0  0  0
  2  1  1  6
  3  2  1  0
  4  5  2  0
  4  2  1  0
  6  4  1  0
  7  6  1  0
  8  7  1  0
  9  8  1  0
  9 10  1  0
 10 11  1  6
 10  6  1  0
 11 18  1  0
 12 11  2  0
 13 14  1  0
 15 14  1  0
 16 15  1  0
 17 16  1  6
 18 17  1  0
 19 20  1  0
 19 17  1  0
 21 19  2  0
M  END
$$$$
