APM.pdb
     RDKit          3D

 21 21  0  0  1  0  0  0  0  0999 V2000
   26.2278  -24.0678  -15.1773 C   0  0  0  0  0  0  0  0  0  0  0  0
   26.3402  -22.6262  -15.6321 C   0  0  2  0  0  0  0  0  0  0  0  0
   27.5048  -22.4710  -16.4361 N   0  0  0  0  0  0  0  0  0  0  0  0
   26.1441  -21.6707  -14.5537 C   0  0  0  0  0  0  0  0  0  0  0  0
   27.2162  -21.2264  -14.0110 O   0  0  0  0  0  0  0  0  0  0  0  0
   24.9236  -21.1743  -14.0322 N   0  0  0  0  0  0  0  0  0  0  0  0
   23.6269  -21.5525  -14.5560 C   0  0  0  0  0  0  0  0  0  0  0  0
   22.7763  -20.3233  -14.1882 C   0  0  0  0  0  0  0  0  0  0  0  0
   23.2875  -20.0096  -12.8283 C   0  0  0  0  0  0  0  0  0  0  0  0
   24.7700  -20.2502  -12.9261 C   0  0  1  0  0  0  0  0  0  0  0  0
   25.2438  -20.8052  -11.6485 C   0  0  0  0  0  0  0  0  0  0  0  0
   25.0880  -22.0290  -11.4123 O   0  0  0  0  0  0  0  0  0  0  0  0
   28.6804  -19.9119   -4.5489 C   0  0  0  0  0  0  0  0  0  0  0  0
   28.1724  -19.0301   -6.0740 S   0  0  0  0  0  0  0  0  0  0  0  0
   27.2249  -20.1917   -7.0861 C   0  0  0  0  0  0  0  0  0  0  0  0
   26.9064  -19.6197   -8.4484 C   0  0  0  0  0  0  0  0  0  0  0  0
   26.1482  -20.6042   -9.3088 C   0  0  2  0  0  0  0  0  0  0  0  0
   25.8818  -20.0453  -10.6334 N   0  0  0  0  0  0  0  0  0  0  0  0
   24.8543  -20.9035   -8.6523 C   0  0  0  0  0  0  0  0  0  0  0  0
   24.7452  -21.9317   -7.7159 O   0  0  0  0  0  0  0  0  0  0  0  0
   23.8427  -20.2266   -8.9394 O   0  0  0  0  0  0  0  0  0  0  0  0
  2  1  1  1
  3  2  1  0
  4  5  2  0
  4  2  1  0
  6  4  1  0
  7  6  1  0
  8  7  1  0
  9  8  1  0
  9 10  1  0
 10 11  1  1
 10  6  1  0
 11 18  1  0
 12 11  2  0
 13 14  1  0
 15 14  1  0
 16 15  1  0
 17 16  1  1
 18 17  1  0
 19 20  1  0
 19 17  1  0
 21 19  2  0
M  END
$$$$
