APM.pdb
     RDKit          3D

 21 21  0  0  1  0  0  0  0  0999 V2000
   26.1368  -17.0650  -16.5973 C   0  0  0  0  0  0  0  0  0  0  0  0
   26.7508  -18.4139  -16.9155 C   0  0  2  0  0  0  0  0  0  0  0  0
   26.3324  -18.8329  -18.2102 N   0  0  0  0  0  0  0  0  0  0  0  0
   26.6164  -19.3723  -15.8303 C   0  0  0  0  0  0  0  0  0  0  0  0
   25.5241  -20.0418  -15.8201 O   0  0  0  0  0  0  0  0  0  0  0  0
   27.5363  -19.6551  -14.7902 N   0  0  0  0  0  0  0  0  0  0  0  0
   28.8478  -19.0453  -14.7060 C   0  0  0  0  0  0  0  0  0  0  0  0
   29.6328  -20.1117  -13.9210 C   0  0  0  0  0  0  0  0  0  0  0  0
   28.6254  -20.5341  -12.9131 C   0  0  0  0  0  0  0  0  0  0  0  0
   27.3275  -20.5568  -13.6748 C   0  0  1  0  0  0  0  0  0  0  0  0
   26.2465  -20.1162  -12.7791 C   0  0  0  0  0  0  0  0  0  0  0  0
   26.0989  -18.8906  -12.5471 O   0  0  0  0  0  0  0  0  0  0  0  0
   19.0630  -20.2442   -9.8846 C   0  0  0  0  0  0  0  0  0  0  0  0
   20.2588  -21.0940  -10.9843 S   0  0  0  0  0  0  0  0  0  0  0  0
   21.9079  -20.4674  -10.5852 C   0  0  0  0  0  0  0  0  0  0  0  0
   22.9595  -21.0172  -11.5213 C   0  0  0  0  0  0  0  0  0  0  0  0
   24.3392  -20.5008  -11.1833 C   0  0  2  0  0  0  0  0  0  0  0  0
   25.3308  -20.9919  -12.1390 N   0  0  0  0  0  0  0  0  0  0  0  0
   24.7043  -20.9846   -9.8315 C   0  0  0  0  0  0  0  0  0  0  0  0
   24.5554  -20.1663   -8.7115 O   0  0  0  0  0  0  0  0  0  0  0  0
   25.1531  -22.1431   -9.6884 O   0  0  0  0  0  0  0  0  0  0  0  0
  2  1  1  1
  3  2  1  0
  4  5  2  0
  4  2  1  0
  6  4  1  0
  7  6  1  0
  8  7  1  0
  9  8  1  0
  9 10  1  0
 10 11  1  1
 10  6  1  0
 11 18  1  0
 12 11  2  0
 13 14  1  0
 15 14  1  0
 16 15  1  0
 17 16  1  6
 18 17  1  0
 19 20  1  0
 19 17  1  0
 21 19  2  0
M  END
$$$$
