APM.pdb
     RDKit          3D

 21 21  0  0  1  0  0  0  0  0999 V2000
   27.0137  -23.3085  -16.2750 C   0  0  0  0  0  0  0  0  0  0  0  0
   28.2008  -23.1041  -17.1951 C   0  0  2  0  0  0  0  0  0  0  0  0
   27.8080  -22.3073  -18.3076 N   0  0  0  0  0  0  0  0  0  0  0  0
   28.9210  -24.3348  -17.4795 C   0  0  0  0  0  0  0  0  0  0  0  0
   28.3933  -25.0869  -18.3724 O   0  0  0  0  0  0  0  0  0  0  0  0
   30.1245  -24.8023  -16.8956 N   0  0  0  0  0  0  0  0  0  0  0  0
   30.8331  -24.0811  -15.8579 C   0  0  0  0  0  0  0  0  0  0  0  0
   32.2764  -24.5713  -16.0737 C   0  0  0  0  0  0  0  0  0  0  0  0
   32.0562  -26.0129  -16.3612 C   0  0  0  0  0  0  0  0  0  0  0  0
   30.8176  -26.0343  -17.2160 C   0  0  1  0  0  0  0  0  0  0  0  0
   30.0338  -27.2338  -16.8818 C   0  0  0  0  0  0  0  0  0  0  0  0
   29.3381  -27.2442  -15.8361 O   0  0  0  0  0  0  0  0  0  0  0  0
   24.7190  -32.4877  -18.3651 C   0  0  0  0  0  0  0  0  0  0  0  0
   25.6023  -30.9460  -18.8172 S   0  0  0  0  0  0  0  0  0  0  0  0
   27.1109  -30.8695  -17.8222 C   0  0  0  0  0  0  0  0  0  0  0  0
   27.9359  -29.6453  -18.1461 C   0  0  0  0  0  0  0  0  0  0  0  0
   29.1824  -29.5655  -17.2950 C   0  0  2  0  0  0  0  0  0  0  0  0
   30.0003  -28.4133  -17.6709 N   0  0  0  0  0  0  0  0  0  0  0  0
   29.9759  -30.7986  -17.5064 C   0  0  0  0  0  0  0  0  0  0  0  0
   29.6802  -31.9709  -16.8104 O   0  0  0  0  0  0  0  0  0  0  0  0
   30.9257  -30.7922  -18.3200 O   0  0  0  0  0  0  0  0  0  0  0  0
  2  1  1  6
  3  2  1  0
  4  5  2  0
  4  2  1  0
  6  4  1  0
  7  6  1  0
  8  7  1  0
  9  8  1  0
  9 10  1  0
 10 11  1  1
 10  6  1  0
 11 18  1  0
 12 11  2  0
 13 14  1  0
 15 14  1  0
 16 15  1  0
 17 16  1  6
 18 17  1  0
 19 20  1  0
 19 17  1  0
 21 19  2  0
M  END
$$$$
