APM.pdb
     RDKit          3D

 21 21  0  0  1  0  0  0  0  0999 V2000
   25.9139  -16.6438  -14.2477 C   0  0  0  0  0  0  0  0  0  0  0  0
   25.8115  -17.9238  -15.0531 C   0  0  2  0  0  0  0  0  0  0  0  0
   24.7178  -17.8287  -15.9595 N   0  0  0  0  0  0  0  0  0  0  0  0
   25.8941  -19.1220  -14.2335 C   0  0  0  0  0  0  0  0  0  0  0  0
   24.7704  -19.6115  -13.8606 O   0  0  0  0  0  0  0  0  0  0  0  0
   27.0543  -19.8097  -13.7988 N   0  0  0  0  0  0  0  0  0  0  0  0
   28.3943  -19.4350  -14.2024 C   0  0  0  0  0  0  0  0  0  0  0  0
   29.1390  -20.7767  -14.0792 C   0  0  0  0  0  0  0  0  0  0  0  0
   28.5539  -21.3224  -12.8265 C   0  0  0  0  0  0  0  0  0  0  0  0
   27.0976  -20.9509  -12.9062 C   0  0  1  0  0  0  0  0  0  0  0  0
   26.6158  -20.6352  -11.5522 C   0  0  0  0  0  0  0  0  0  0  0  0
   26.6679  -19.4499  -11.1400 O   0  0  0  0  0  0  0  0  0  0  0  0
   28.6400  -20.1302   -5.6160 C   0  0  0  0  0  0  0  0  0  0  0  0
   27.6688  -18.8686   -6.5250 S   0  0  0  0  0  0  0  0  0  0  0  0
   26.3079  -19.7220   -7.3563 C   0  0  0  0  0  0  0  0  0  0  0  0
   26.6962  -20.1808   -8.7431 C   0  0  0  0  0  0  0  0  0  0  0  0
   25.7601  -21.2461   -9.2660 C   0  0  2  0  0  0  0  0  0  0  0  0
   26.0811  -21.5917  -10.6500 N   0  0  0  0  0  0  0  0  0  0  0  0
   24.3758  -20.7205   -9.2181 C   0  0  0  0  0  0  0  0  0  0  0  0
   23.6261  -20.7781   -8.0430 O   0  0  0  0  0  0  0  0  0  0  0  0
   23.8685  -20.2170  -10.2443 O   0  0  0  0  0  0  0  0  0  0  0  0
  2  1  1  1
  3  2  1  0
  4  5  2  0
  4  2  1  0
  6  4  1  0
  7  6  1  0
  8  7  1  0
  9  8  1  0
  9 10  1  0
 10 11  1  1
 10  6  1  0
 11 18  1  0
 12 11  2  0
 13 14  1  0
 15 14  1  0
 16 15  1  0
 17 16  1  6
 18 17  1  0
 19 20  1  0
 19 17  1  0
 21 19  2  0
M  END
$$$$
