APM.pdb
     RDKit          3D

 21 21  0  0  1  0  0  0  0  0999 V2000
   27.9011  -19.1414  -15.1744 C   0  0  0  0  0  0  0  0  0  0  0  0
   27.8048  -20.6128  -14.8233 C   0  0  2  0  0  0  0  0  0  0  0  0
   28.2606  -21.3944  -15.9224 N   0  0  0  0  0  0  0  0  0  0  0  0
   26.5266  -20.9762  -14.2331 C   0  0  0  0  0  0  0  0  0  0  0  0
   25.6506  -21.4259  -15.0527 O   0  0  0  0  0  0  0  0  0  0  0  0
   26.1324  -20.8947  -12.8745 N   0  0  0  0  0  0  0  0  0  0  0  0
   26.9951  -20.3823  -11.8294 C   0  0  0  0  0  0  0  0  0  0  0  0
   26.4446  -21.1123  -10.5909 C   0  0  0  0  0  0  0  0  0  0  0  0
   24.9808  -21.0517  -10.8418 C   0  0  0  0  0  0  0  0  0  0  0  0
   24.8498  -21.2841  -12.3230 C   0  0  1  0  0  0  0  0  0  0  0  0
   23.7374  -20.4670  -12.8327 C   0  0  0  0  0  0  0  0  0  0  0  0
   23.9730  -19.3210  -13.2896 O   0  0  0  0  0  0  0  0  0  0  0  0
   21.4139  -21.9518  -17.5979 C   0  0  0  0  0  0  0  0  0  0  0  0
   20.5655  -20.3272  -17.6458 S   0  0  0  0  0  0  0  0  0  0  0  0
   20.7218  -19.5812  -16.0055 C   0  0  0  0  0  0  0  0  0  0  0  0
   21.7114  -20.3277  -15.1409 C   0  0  0  0  0  0  0  0  0  0  0  0
   21.3793  -20.2053  -13.6715 C   0  0  2  0  0  0  0  0  0  0  0  0
   22.3806  -20.8839  -12.8500 N   0  0  0  0  0  0  0  0  0  0  0  0
   20.0620  -20.8396  -13.4325 C   0  0  0  0  0  0  0  0  0  0  0  0
   18.9015  -20.0712  -13.3389 O   0  0  0  0  0  0  0  0  0  0  0  0
   19.9854  -22.0821  -13.3124 O   0  0  0  0  0  0  0  0  0  0  0  0
  2  1  1  6
  3  2  1  0
  4  5  2  0
  4  2  1  0
  6  4  1  0
  7  6  1  0
  8  7  1  0
  9  8  1  0
  9 10  1  0
 10 11  1  6
 10  6  1  0
 11 18  1  0
 12 11  2  0
 13 14  1  0
 15 14  1  0
 16 15  1  0
 17 16  1  6
 18 17  1  0
 19 20  1  0
 19 17  1  0
 21 19  2  0
M  END
$$$$
