APM.pdb
     RDKit          3D

 21 21  0  0  1  0  0  0  0  0999 V2000
   44.0238  -11.6288   -8.0759 C   0  0  0  0  0  0  0  0  0  0  0  0
   44.5589  -10.4147   -7.3429 C   0  0  2  0  0  0  0  0  0  0  0  0
   44.7299  -10.7288   -5.9648 N   0  0  0  0  0  0  0  0  0  0  0  0
   43.8392   -9.1923   -7.6623 C   0  0  0  0  0  0  0  0  0  0  0  0
   42.9571   -8.8336   -6.8053 O   0  0  0  0  0  0  0  0  0  0  0  0
   43.9909   -8.3552   -8.7956 N   0  0  0  0  0  0  0  0  0  0  0  0
   44.9906   -8.5825   -9.8193 C   0  0  0  0  0  0  0  0  0  0  0  0
   45.2039   -7.1579  -10.3623 C   0  0  0  0  0  0  0  0  0  0  0  0
   43.8111   -6.6389  -10.3782 C   0  0  0  0  0  0  0  0  0  0  0  0
   43.1991   -7.1841   -9.1158 C   0  0  1  0  0  0  0  0  0  0  0  0
   41.7865   -7.5037   -9.3755 C   0  0  0  0  0  0  0  0  0  0  0  0
   41.4973   -8.5471  -10.0121 O   0  0  0  0  0  0  0  0  0  0  0  0
   36.2977   -9.5610   -6.0333 C   0  0  0  0  0  0  0  0  0  0  0  0
   36.2147   -7.8033   -6.5481 S   0  0  0  0  0  0  0  0  0  0  0  0
   37.1160   -7.6485   -8.1085 C   0  0  0  0  0  0  0  0  0  0  0  0
   38.5716   -7.3082   -7.8852 C   0  0  0  0  0  0  0  0  0  0  0  0
   39.3087   -7.1060   -9.1891 C   0  0  2  0  0  0  0  0  0  0  0  0
   40.6939   -6.7033   -8.9506 N   0  0  0  0  0  0  0  0  0  0  0  0
   38.6287   -6.0340   -9.9526 C   0  0  0  0  0  0  0  0  0  0  0  0
   37.4794   -6.3009  -10.6970 O   0  0  0  0  0  0  0  0  0  0  0  0
   39.0888   -4.8713   -9.9319 O   0  0  0  0  0  0  0  0  0  0  0  0
  2  1  1  6
  3  2  1  0
  4  5  2  0
  4  2  1  0
  6  4  1  0
  7  6  1  0
  8  7  1  0
  9  8  1  0
  9 10  1  0
 10 11  1  6
 10  6  1  0
 11 18  1  0
 12 11  2  0
 13 14  1  0
 15 14  1  0
 16 15  1  0
 17 16  1  1
 18 17  1  0
 19 20  1  0
 19 17  1  0
 21 19  2  0
M  END
$$$$
