APM.pdb
     RDKit          3D

 21 21  0  0  1  0  0  0  0  0999 V2000
   17.7014  -11.2319  -17.7084 C   0  0  0  0  0  0  0  0  0  0  0  0
   18.9901  -11.0953  -18.4948 C   0  0  2  0  0  0  0  0  0  0  0  0
   19.6740  -12.3439  -18.5069 N   0  0  0  0  0  0  0  0  0  0  0  0
   19.7606   -9.9182  -18.1275 C   0  0  0  0  0  0  0  0  0  0  0  0
   20.7317  -10.1271  -17.3184 O   0  0  0  0  0  0  0  0  0  0  0  0
   19.5718   -8.5788  -18.5498 N   0  0  0  0  0  0  0  0  0  0  0  0
   18.4917   -8.1694  -19.4243 C   0  0  0  0  0  0  0  0  0  0  0  0
   19.0950   -6.9218  -20.0946 C   0  0  0  0  0  0  0  0  0  0  0  0
   19.7929   -6.2821  -18.9487 C   0  0  0  0  0  0  0  0  0  0  0  0
   20.3865   -7.4363  -18.1865 C   0  0  1  0  0  0  0  0  0  0  0  0
   20.3320   -7.1305  -16.7483 C   0  0  0  0  0  0  0  0  0  0  0  0
   19.3942   -7.5956  -16.0541 O   0  0  0  0  0  0  0  0  0  0  0  0
   21.0957   -9.6805  -10.6351 C   0  0  0  0  0  0  0  0  0  0  0  0
   22.3018   -9.3960  -11.9863 S   0  0  0  0  0  0  0  0  0  0  0  0
   22.0319   -7.7219  -12.6154 C   0  0  0  0  0  0  0  0  0  0  0  0
   21.7888   -7.7147  -14.1071 C   0  0  0  0  0  0  0  0  0  0  0  0
   21.3926   -6.3441  -14.6061 C   0  0  2  0  0  0  0  0  0  0  0  0
   21.2831   -6.3291  -16.0641 N   0  0  0  0  0  0  0  0  0  0  0  0
   22.4373   -5.3755  -14.1997 C   0  0  0  0  0  0  0  0  0  0  0  0
   22.4668   -4.8513  -12.9073 O   0  0  0  0  0  0  0  0  0  0  0  0
   23.3073   -5.0202  -15.0249 O   0  0  0  0  0  0  0  0  0  0  0  0
  2  1  1  1
  3  2  1  0
  4  5  2  0
  4  2  1  0
  6  4  1  0
  7  6  1  0
  8  7  1  0
  9  8  1  0
  9 10  1  0
 10 11  1  1
 10  6  1  0
 11 18  1  0
 12 11  2  0
 13 14  1  0
 15 14  1  0
 16 15  1  0
 17 16  1  6
 18 17  1  0
 19 20  1  0
 19 17  1  0
 21 19  2  0
M  END
$$$$
