APM.pdb
     RDKit          3D

 21 21  0  0  1  0  0  0  0  0999 V2000
   27.5292  -16.9588  -14.2642 C   0  0  0  0  0  0  0  0  0  0  0  0
   26.3966  -17.8567  -14.7207 C   0  0  2  0  0  0  0  0  0  0  0  0
   25.3693  -17.0647  -15.3074 N   0  0  0  0  0  0  0  0  0  0  0  0
   25.9961  -18.8266  -13.7142 C   0  0  0  0  0  0  0  0  0  0  0  0
   25.1083  -18.4224  -12.8837 O   0  0  0  0  0  0  0  0  0  0  0  0
   26.4627  -20.1531  -13.5389 N   0  0  0  0  0  0  0  0  0  0  0  0
   27.4054  -20.7859  -14.4388 C   0  0  0  0  0  0  0  0  0  0  0  0
   27.0527  -22.2733  -14.2573 C   0  0  0  0  0  0  0  0  0  0  0  0
   26.8214  -22.3426  -12.7906 C   0  0  0  0  0  0  0  0  0  0  0  0
   26.0998  -21.0614  -12.4693 C   0  0  1  0  0  0  0  0  0  0  0  0
   26.5397  -20.5905  -11.1465 C   0  0  0  0  0  0  0  0  0  0  0  0
   27.7494  -20.3058  -10.9643 O   0  0  0  0  0  0  0  0  0  0  0  0
   29.0137  -19.5264   -4.2979 C   0  0  0  0  0  0  0  0  0  0  0  0
   28.3800  -18.8385   -5.8748 S   0  0  0  0  0  0  0  0  0  0  0  0
   27.2754  -20.0716   -6.6034 C   0  0  0  0  0  0  0  0  0  0  0  0
   26.9029  -19.7215   -8.0257 C   0  0  0  0  0  0  0  0  0  0  0  0
   26.0918  -20.8160   -8.6806 C   0  0  2  0  0  0  0  0  0  0  0  0
   25.6802  -20.4274  -10.0287 N   0  0  0  0  0  0  0  0  0  0  0  0
   24.8782  -21.0541   -7.8651 C   0  0  0  0  0  0  0  0  0  0  0  0
   23.6041  -20.8989   -8.4115 O   0  0  0  0  0  0  0  0  0  0  0  0
   24.9937  -21.3993   -6.6686 O   0  0  0  0  0  0  0  0  0  0  0  0
  2  1  1  1
  3  2  1  0
  4  5  2  0
  4  2  1  0
  6  4  1  0
  7  6  1  0
  8  7  1  0
  9  8  1  0
  9 10  1  0
 10 11  1  1
 10  6  1  0
 11 18  1  0
 12 11  2  0
 13 14  1  0
 15 14  1  0
 16 15  1  0
 17 16  1  1
 18 17  1  0
 19 20  1  0
 19 17  1  0
 21 19  2  0
M  END
$$$$
