APM.pdb
     RDKit          3D

 21 21  0  0  1  0  0  0  0  0999 V2000
   24.4305  -18.3282  -13.7351 C   0  0  0  0  0  0  0  0  0  0  0  0
   25.1644  -19.3931  -14.5256 C   0  0  2  0  0  0  0  0  0  0  0  0
   24.2994  -19.9250  -15.5234 N   0  0  0  0  0  0  0  0  0  0  0  0
   25.8715  -20.3437  -13.6826 C   0  0  0  0  0  0  0  0  0  0  0  0
   25.1873  -21.3589  -13.3050 O   0  0  0  0  0  0  0  0  0  0  0  0
   27.2131  -20.2867  -13.2298 N   0  0  0  0  0  0  0  0  0  0  0  0
   28.0505  -19.1143  -13.3816 C   0  0  0  0  0  0  0  0  0  0  0  0
   29.4563  -19.7413  -13.4036 C   0  0  0  0  0  0  0  0  0  0  0  0
   29.3267  -20.7874  -12.3556 C   0  0  0  0  0  0  0  0  0  0  0  0
   27.9427  -21.3432  -12.5572 C   0  0  1  0  0  0  0  0  0  0  0  0
   27.3740  -21.6827  -11.2433 C   0  0  0  0  0  0  0  0  0  0  0  0
   27.9069  -22.5892  -10.5564 O   0  0  0  0  0  0  0  0  0  0  0  0
   27.7379  -19.4587   -4.3436 C   0  0  0  0  0  0  0  0  0  0  0  0
   28.0065  -19.2085   -6.1398 S   0  0  0  0  0  0  0  0  0  0  0  0
   26.7483  -20.1658   -7.0184 C   0  0  0  0  0  0  0  0  0  0  0  0
   27.0213  -20.2227   -8.5039 C   0  0  0  0  0  0  0  0  0  0  0  0
   25.9949  -21.0590   -9.2330 C   0  0  2  0  0  0  0  0  0  0  0  0
   26.2388  -21.0479  -10.6746 N   0  0  0  0  0  0  0  0  0  0  0  0
   24.6530  -20.4866   -8.9754 C   0  0  0  0  0  0  0  0  0  0  0  0
   23.9509  -19.8216   -9.9808 O   0  0  0  0  0  0  0  0  0  0  0  0
   24.1388  -20.5993   -7.8409 O   0  0  0  0  0  0  0  0  0  0  0  0
  2  1  1  1
  3  2  1  0
  4  5  2  0
  4  2  1  0
  6  4  1  0
  7  6  1  0
  8  7  1  0
  9  8  1  0
  9 10  1  0
 10 11  1  1
 10  6  1  0
 11 18  1  0
 12 11  2  0
 13 14  1  0
 15 14  1  0
 16 15  1  0
 17 16  1  1
 18 17  1  0
 19 20  1  0
 19 17  1  0
 21 19  2  0
M  END
$$$$
