AEI.pdb
     RDKit          3D

 23 22  0  0  1  0  0  0  0  0999 V2000
    7.9941  -12.3617   19.6599 C   0  0  0  0  0  0  0  0  0  0  0  0
    8.3133  -13.7631   19.2074 C   0  0  2  0  0  0  0  0  0  0  0  0
    7.4451  -14.1182   18.1331 N   0  0  0  0  0  0  0  0  0  0  0  0
    8.1977  -14.6796   20.3737 C   0  0  0  0  0  0  0  0  0  0  0  0
    7.0879  -15.2064   20.6431 O   0  0  0  0  0  0  0  0  0  0  0  0
    9.2922  -15.0025   21.2206 N   0  0  0  0  0  0  0  0  0  0  0  0
    9.1827  -15.9365   22.3290 C   0  0  1  0  0  0  0  0  0  0  0  0
   10.0245  -17.1541   22.1423 C   0  0  0  0  0  0  0  0  0  0  0  0
   10.0629  -17.6804   20.7463 C   0  0  0  0  0  0  0  0  0  0  0  0
   10.9948  -18.8307   20.6854 C   0  0  0  0  0  0  0  0  0  0  0  0
   11.5193  -19.2777   21.7369 O   0  0  0  0  0  0  0  0  0  0  0  0
    9.4346  -15.2224   23.6068 C   0  0  0  0  0  0  0  0  0  0  0  0
   10.4304  -14.4573   23.6403 O   0  0  0  0  0  0  0  0  0  0  0  0
   11.3318  -19.4623   19.4950 O   0  0  0  0  0  0  0  0  0  0  0  0
    5.7864  -12.2398   25.9605 C   0  0  0  0  0  0  0  0  0  0  0  0
    7.0645  -12.8930   25.5039 C   0  0  0  0  0  0  0  0  0  0  0  0
    7.6522  -13.8597   26.4673 C   0  0  2  0  0  0  0  0  0  0  0  0
    8.1782  -13.0472   27.6622 C   0  0  0  0  0  0  0  0  0  0  0  0
    8.8109  -14.6551   25.9827 C   0  0  2  0  0  0  0  0  0  0  0  0
    8.6079  -15.3776   24.7509 N   0  0  0  0  0  0  0  0  0  0  0  0
    9.1813  -15.6379   27.0483 C   0  0  0  0  0  0  0  0  0  0  0  0
   10.0532  -15.3360   28.0799 O   0  0  0  0  0  0  0  0  0  0  0  0
    8.6994  -16.7923   27.0349 O   0  0  0  0  0  0  0  0  0  0  0  0
  2  1  1  1
  2  3  1  0
  4  2  1  0
  4  5  2  0
  6  4  1  0
  7  6  1  0
  7 12  1  0
  7  8  1  6
  9  8  1  0
  9 10  1  0
 10 14  1  0
 11 10  2  0
 12 13  2  0
 12 20  1  0
 16 15  1  0
 17 18  1  1
 17 16  1  0
 19 17  1  0
 19 20  1  6
 21 22  1  0
 21 19  1  0
 23 21  2  0
M  END
$$$$
