AEI.pdb
     RDKit          3D

 23 22  0  0  1  0  0  0  0  0999 V2000
    7.8941  -12.4277   19.7620 C   0  0  0  0  0  0  0  0  0  0  0  0
    8.0677  -13.8801   19.4006 C   0  0  2  0  0  0  0  0  0  0  0  0
    7.0200  -14.2717   18.5158 N   0  0  0  0  0  0  0  0  0  0  0  0
    8.1002  -14.6833   20.6525 C   0  0  0  0  0  0  0  0  0  0  0  0
    7.0212  -15.0566   21.1801 O   0  0  0  0  0  0  0  0  0  0  0  0
    9.3057  -15.0624   21.3024 N   0  0  0  0  0  0  0  0  0  0  0  0
    9.3359  -15.9523   22.4515 C   0  0  1  0  0  0  0  0  0  0  0  0
   10.3424  -17.0443   22.3088 C   0  0  0  0  0  0  0  0  0  0  0  0
   10.3678  -18.0230   23.4353 C   0  0  0  0  0  0  0  0  0  0  0  0
   11.3812  -19.0658   23.1509 C   0  0  0  0  0  0  0  0  0  0  0  0
   11.4068  -19.6360   22.0307 O   0  0  0  0  0  0  0  0  0  0  0  0
    9.4888  -15.1533   23.6942 C   0  0  0  0  0  0  0  0  0  0  0  0
   10.4265  -14.3177   23.7176 O   0  0  0  0  0  0  0  0  0  0  0  0
   12.3340  -19.4611   24.0813 O   0  0  0  0  0  0  0  0  0  0  0  0
    5.8734  -12.0199   25.9530 C   0  0  0  0  0  0  0  0  0  0  0  0
    7.1325  -12.7301   25.5301 C   0  0  0  0  0  0  0  0  0  0  0  0
    7.6150  -13.7670   26.4789 C   0  0  2  0  0  0  0  0  0  0  0  0
    8.0575  -13.0400   27.7596 C   0  0  0  0  0  0  0  0  0  0  0  0
    8.7918  -14.5649   26.0444 C   0  0  2  0  0  0  0  0  0  0  0  0
    8.6324  -15.3051   24.8167 N   0  0  0  0  0  0  0  0  0  0  0  0
    9.1293  -15.5315   27.1354 C   0  0  0  0  0  0  0  0  0  0  0  0
    9.9867  -15.2213   28.1768 O   0  0  0  0  0  0  0  0  0  0  0  0
    8.6317  -16.6793   27.1357 O   0  0  0  0  0  0  0  0  0  0  0  0
  2  1  1  1
  2  3  1  0
  4  2  1  0
  4  5  2  0
  6  4  1  0
  7  6  1  0
  7 12  1  0
  7  8  1  6
  9  8  1  0
  9 10  1  0
 10 14  1  0
 11 10  2  0
 12 13  2  0
 12 20  1  0
 16 15  1  0
 17 18  1  1
 17 16  1  0
 19 17  1  0
 19 20  1  6
 21 22  1  0
 21 19  1  0
 23 21  2  0
M  END
$$$$
