AEI.pdb
     RDKit          3D

 23 22  0  0  1  0  0  0  0  0999 V2000
    6.8627  -13.3043   19.0602 C   0  0  0  0  0  0  0  0  0  0  0  0
    8.2148  -13.3998   19.7181 C   0  0  2  0  0  0  0  0  0  0  0  0
    9.1674  -13.8694   18.7663 N   0  0  0  0  0  0  0  0  0  0  0  0
    8.1042  -14.2815   20.9114 C   0  0  0  0  0  0  0  0  0  0  0  0
    7.2190  -14.0516   21.7747 O   0  0  0  0  0  0  0  0  0  0  0  0
    8.9592  -15.3937   21.1386 N   0  0  0  0  0  0  0  0  0  0  0  0
    8.8694  -16.2276   22.3258 C   0  0  1  0  0  0  0  0  0  0  0  0
    9.6159  -17.5118   22.1863 C   0  0  0  0  0  0  0  0  0  0  0  0
    9.6321  -18.3627   23.4123 C   0  0  0  0  0  0  0  0  0  0  0  0
   10.4480  -19.5722   23.1543 C   0  0  0  0  0  0  0  0  0  0  0  0
    9.9051  -20.6250   22.7329 O   0  0  0  0  0  0  0  0  0  0  0  0
    9.2571  -15.4344   23.5203 C   0  0  0  0  0  0  0  0  0  0  0  0
   10.3345  -14.7925   23.4475 O   0  0  0  0  0  0  0  0  0  0  0  0
   11.8216  -19.6094   23.3582 O   0  0  0  0  0  0  0  0  0  0  0  0
    5.9532  -11.9718   25.8862 C   0  0  0  0  0  0  0  0  0  0  0  0
    7.1477  -12.7397   25.3840 C   0  0  0  0  0  0  0  0  0  0  0  0
    7.7353  -13.6923   26.3614 C   0  0  2  0  0  0  0  0  0  0  0  0
    8.3866  -12.8560   27.4755 C   0  0  0  0  0  0  0  0  0  0  0  0
    8.8090  -14.5852   25.8513 C   0  0  2  0  0  0  0  0  0  0  0  0
    8.4688  -15.3854   24.7004 N   0  0  0  0  0  0  0  0  0  0  0  0
    9.2174  -15.5046   26.9587 C   0  0  0  0  0  0  0  0  0  0  0  0
   10.1337  -15.1483   27.9330 O   0  0  0  0  0  0  0  0  0  0  0  0
    8.7281  -16.6533   27.0359 O   0  0  0  0  0  0  0  0  0  0  0  0
  2  1  1  6
  2  3  1  0
  4  2  1  0
  4  5  2  0
  6  4  1  0
  7  6  1  0
  7 12  1  0
  7  8  1  6
  9  8  1  0
  9 10  1  0
 10 14  1  0
 11 10  2  0
 12 13  2  0
 12 20  1  0
 16 15  1  0
 17 18  1  1
 17 16  1  0
 19 17  1  0
 19 20  1  6
 21 22  1  0
 21 19  1  0
 23 21  2  0
M  END
$$$$
