AEI.pdb
     RDKit          3D

 23 22  0  0  1  0  0  0  0  0999 V2000
    8.1011  -12.4031   19.6589 C   0  0  0  0  0  0  0  0  0  0  0  0
    8.2133  -13.8792   19.3779 C   0  0  2  0  0  0  0  0  0  0  0  0
    7.1633  -14.2697   18.4953 N   0  0  0  0  0  0  0  0  0  0  0  0
    8.1879  -14.6148   20.6708 C   0  0  0  0  0  0  0  0  0  0  0  0
    7.0889  -14.8252   21.2452 O   0  0  0  0  0  0  0  0  0  0  0  0
    9.3586  -15.1051   21.3099 N   0  0  0  0  0  0  0  0  0  0  0  0
    9.3160  -15.9961   22.4577 C   0  0  1  0  0  0  0  0  0  0  0  0
   10.2419  -17.1579   22.3205 C   0  0  0  0  0  0  0  0  0  0  0  0
    9.9204  -18.0849   21.1958 C   0  0  0  0  0  0  0  0  0  0  0  0
   10.9947  -19.0985   21.0786 C   0  0  0  0  0  0  0  0  0  0  0  0
   11.0179  -20.0898   21.8516 O   0  0  0  0  0  0  0  0  0  0  0  0
    9.5172  -15.2117   23.7029 C   0  0  0  0  0  0  0  0  0  0  0  0
   10.5302  -14.4700   23.7465 O   0  0  0  0  0  0  0  0  0  0  0  0
   12.0090  -19.0124   20.1334 O   0  0  0  0  0  0  0  0  0  0  0  0
    5.8404  -12.1976   26.1997 C   0  0  0  0  0  0  0  0  0  0  0  0
    7.1535  -12.7717   25.7363 C   0  0  0  0  0  0  0  0  0  0  0  0
    7.7152  -13.8345   26.6099 C   0  0  2  0  0  0  0  0  0  0  0  0
    8.2485  -13.1459   27.8772 C   0  0  0  0  0  0  0  0  0  0  0  0
    8.8615  -14.6053   26.0603 C   0  0  2  0  0  0  0  0  0  0  0  0
    8.6254  -15.2770   24.8059 N   0  0  0  0  0  0  0  0  0  0  0  0
    9.2640  -15.6299   27.0736 C   0  0  0  0  0  0  0  0  0  0  0  0
   10.1947  -15.3804   28.0671 O   0  0  0  0  0  0  0  0  0  0  0  0
    8.7559  -16.7728   27.0491 O   0  0  0  0  0  0  0  0  0  0  0  0
  2  1  1  1
  2  3  1  0
  4  2  1  0
  4  5  2  0
  6  4  1  0
  7  6  1  0
  7 12  1  0
  7  8  1  6
  9  8  1  0
  9 10  1  0
 10 14  1  0
 11 10  2  0
 12 13  2  0
 12 20  1  0
 16 15  1  0
 17 18  1  1
 17 16  1  0
 19 17  1  0
 19 20  1  6
 21 22  1  0
 21 19  1  0
 23 21  2  0
M  END
$$$$
