AEI.pdb
     RDKit          3D

 23 22  0  0  1  0  0  0  0  0999 V2000
    7.9398  -13.6895   19.6012 C   0  0  0  0  0  0  0  0  0  0  0  0
    7.7837  -15.1864   19.6733 C   0  0  2  0  0  0  0  0  0  0  0  0
    6.9102  -15.6175   18.6316 N   0  0  0  0  0  0  0  0  0  0  0  0
    7.2926  -15.5506   21.0297 C   0  0  0  0  0  0  0  0  0  0  0  0
    6.1622  -15.1513   21.4099 O   0  0  0  0  0  0  0  0  0  0  0  0
    8.0425  -16.3411   21.9421 N   0  0  0  0  0  0  0  0  0  0  0  0
    7.5982  -16.6140   23.2989 C   0  0  1  0  0  0  0  0  0  0  0  0
    7.6768  -18.0616   23.6512 C   0  0  0  0  0  0  0  0  0  0  0  0
    7.3174  -18.3824   25.0638 C   0  0  0  0  0  0  0  0  0  0  0  0
    7.4213  -19.8456   25.2721 C   0  0  0  0  0  0  0  0  0  0  0  0
    7.8315  -20.5901   24.3457 O   0  0  0  0  0  0  0  0  0  0  0  0
    8.3195  -15.7255   24.2457 C   0  0  0  0  0  0  0  0  0  0  0  0
    9.5554  -15.5910   24.0651 O   0  0  0  0  0  0  0  0  0  0  0  0
    7.0805  -20.4600   26.4704 O   0  0  0  0  0  0  0  0  0  0  0  0
    5.9686  -11.1585   26.4454 C   0  0  0  0  0  0  0  0  0  0  0  0
    6.9669  -12.1200   25.8560 C   0  0  0  0  0  0  0  0  0  0  0  0
    7.5554  -13.0824   26.8233 C   0  0  2  0  0  0  0  0  0  0  0  0
    8.5239  -12.2917   27.7186 C   0  0  0  0  0  0  0  0  0  0  0  0
    8.3588  -14.1923   26.2465 C   0  0  2  0  0  0  0  0  0  0  0  0
    7.6705  -15.0488   25.3122 N   0  0  0  0  0  0  0  0  0  0  0  0
    8.8652  -15.0368   27.3730 C   0  0  0  0  0  0  0  0  0  0  0  0
   10.0322  -14.7526   28.0607 O   0  0  0  0  0  0  0  0  0  0  0  0
    8.2294  -16.0521   27.7336 O   0  0  0  0  0  0  0  0  0  0  0  0
  2  1  1  1
  2  3  1  0
  4  2  1  0
  4  5  2  0
  6  4  1  0
  7  6  1  0
  7 12  1  0
  7  8  1  1
  9  8  1  0
  9 10  1  0
 10 14  1  0
 11 10  2  0
 12 13  2  0
 12 20  1  0
 16 15  1  0
 17 18  1  1
 17 16  1  0
 19 17  1  0
 19 20  1  6
 21 22  1  0
 21 19  1  0
 23 21  2  0
M  END
$$$$
