AEI.pdb
     RDKit          3D

 23 22  0  0  1  0  0  0  0  0999 V2000
    8.0481  -12.3771   19.3913 C   0  0  0  0  0  0  0  0  0  0  0  0
    8.2480  -13.8144   18.9857 C   0  0  2  0  0  0  0  0  0  0  0  0
    7.2512  -14.1754   18.0317 N   0  0  0  0  0  0  0  0  0  0  0  0
    8.2172  -14.6640   20.2066 C   0  0  0  0  0  0  0  0  0  0  0  0
    7.1359  -15.1956   20.5672 O   0  0  0  0  0  0  0  0  0  0  0  0
    9.3635  -14.9163   21.0078 N   0  0  0  0  0  0  0  0  0  0  0  0
    9.3467  -15.8211   22.1454 C   0  0  1  0  0  0  0  0  0  0  0  0
   10.3744  -16.8976   22.0411 C   0  0  0  0  0  0  0  0  0  0  0  0
   10.1235  -17.9002   20.9645 C   0  0  0  0  0  0  0  0  0  0  0  0
   11.2163  -18.9007   20.9671 C   0  0  0  0  0  0  0  0  0  0  0  0
   11.2313  -19.8252   20.1152 O   0  0  0  0  0  0  0  0  0  0  0  0
    9.4239  -15.0370   23.4045 C   0  0  0  0  0  0  0  0  0  0  0  0
   10.3898  -14.2416   23.5171 O   0  0  0  0  0  0  0  0  0  0  0  0
   12.2573  -18.8738   21.8865 O   0  0  0  0  0  0  0  0  0  0  0  0
    6.7107  -11.2791   27.0120 C   0  0  0  0  0  0  0  0  0  0  0  0
    7.4970  -12.5620   27.0795 C   0  0  0  0  0  0  0  0  0  0  0  0
    7.4195  -13.4085   25.8606 C   0  0  2  0  0  0  0  0  0  0  0  0
    6.1319  -14.2422   25.9678 C   0  0  0  0  0  0  0  0  0  0  0  0
    8.5180  -14.3912   25.6667 C   0  0  2  0  0  0  0  0  0  0  0  0
    8.4678  -15.1597   24.4472 N   0  0  0  0  0  0  0  0  0  0  0  0
    8.5037  -15.3417   26.8221 C   0  0  0  0  0  0  0  0  0  0  0  0
    8.2277  -16.6908   26.6831 O   0  0  0  0  0  0  0  0  0  0  0  0
    8.7473  -14.9307   27.9783 O   0  0  0  0  0  0  0  0  0  0  0  0
  2  1  1  1
  2  3  1  0
  4  2  1  0
  4  5  2  0
  6  4  1  0
  7  6  1  0
  7 12  1  0
  7  8  1  6
  9  8  1  0
  9 10  1  0
 10 14  1  0
 11 10  2  0
 12 13  2  0
 12 20  1  0
 16 15  1  0
 17 18  1  1
 17 16  1  0
 19 17  1  0
 19 20  1  6
 21 22  1  0
 21 19  1  0
 23 21  2  0
M  END
$$$$
