AEI.pdb
     RDKit          3D

 23 22  0  0  1  0  0  0  0  0999 V2000
    7.2938  -16.8997   18.1988 C   0  0  0  0  0  0  0  0  0  0  0  0
    8.1827  -15.9124   18.9097 C   0  0  2  0  0  0  0  0  0  0  0  0
    9.5215  -16.0657   18.4426 N   0  0  0  0  0  0  0  0  0  0  0  0
    8.0527  -16.1227   20.3768 C   0  0  0  0  0  0  0  0  0  0  0  0
    6.9227  -16.0289   20.9209 O   0  0  0  0  0  0  0  0  0  0  0  0
    9.1551  -16.4304   21.2192 N   0  0  0  0  0  0  0  0  0  0  0  0
    8.9972  -16.8651   22.5973 C   0  0  1  0  0  0  0  0  0  0  0  0
    9.7925  -18.0878   22.9109 C   0  0  0  0  0  0  0  0  0  0  0  0
    9.0774  -19.3767   22.6764 C   0  0  0  0  0  0  0  0  0  0  0  0
    9.9599  -20.5008   23.0672 C   0  0  0  0  0  0  0  0  0  0  0  0
   10.9345  -20.3036   23.8365 O   0  0  0  0  0  0  0  0  0  0  0  0
    9.2634  -15.7248   23.5111 C   0  0  0  0  0  0  0  0  0  0  0  0
   10.3421  -15.1039   23.3413 O   0  0  0  0  0  0  0  0  0  0  0  0
    9.7647  -21.8006   22.6176 O   0  0  0  0  0  0  0  0  0  0  0  0
    6.5198  -11.0163   26.2668 C   0  0  0  0  0  0  0  0  0  0  0  0
    7.6559  -12.0052   26.2811 C   0  0  0  0  0  0  0  0  0  0  0  0
    7.4327  -13.2267   25.4647 C   0  0  2  0  0  0  0  0  0  0  0  0
    6.2821  -14.0076   26.1211 C   0  0  0  0  0  0  0  0  0  0  0  0
    8.5683  -14.1823   25.3800 C   0  0  2  0  0  0  0  0  0  0  0  0
    8.3615  -15.3333   24.5357 N   0  0  0  0  0  0  0  0  0  0  0  0
    8.8782  -14.6632   26.7625 C   0  0  0  0  0  0  0  0  0  0  0  0
    9.5512  -13.8921   27.6942 O   0  0  0  0  0  0  0  0  0  0  0  0
    8.5275  -15.8085   27.1238 O   0  0  0  0  0  0  0  0  0  0  0  0
  2  1  1  6
  2  3  1  0
  4  2  1  0
  4  5  2  0
  6  4  1  0
  7  6  1  0
  7 12  1  0
  7  8  1  1
  9  8  1  0
  9 10  1  0
 10 14  1  0
 11 10  2  0
 12 13  2  0
 12 20  1  0
 16 15  1  0
 17 18  1  1
 17 16  1  0
 19 17  1  0
 19 20  1  6
 21 22  1  0
 21 19  1  0
 23 21  2  0
M  END
$$$$
