AEI.pdb
     RDKit          3D

 23 22  0  0  1  0  0  0  0  0999 V2000
    8.3364  -12.2090   19.4019 C   0  0  0  0  0  0  0  0  0  0  0  0
    8.2900  -13.6514   18.9688 C   0  0  2  0  0  0  0  0  0  0  0  0
    7.1985  -13.8362   18.0695 N   0  0  0  0  0  0  0  0  0  0  0  0
    8.1958  -14.5110   20.1795 C   0  0  0  0  0  0  0  0  0  0  0  0
    7.0654  -14.8232   20.6342 O   0  0  0  0  0  0  0  0  0  0  0  0
    9.3334  -15.0115   20.8684 N   0  0  0  0  0  0  0  0  0  0  0  0
    9.2349  -15.9362   21.9857 C   0  0  1  0  0  0  0  0  0  0  0  0
   10.1292  -17.1208   21.8345 C   0  0  0  0  0  0  0  0  0  0  0  0
   10.0369  -18.1197   22.9395 C   0  0  0  0  0  0  0  0  0  0  0  0
   11.0070  -19.2116   22.6905 C   0  0  0  0  0  0  0  0  0  0  0  0
   12.2424  -18.9801   22.7174 O   0  0  0  0  0  0  0  0  0  0  0  0
    9.4271  -15.1975   23.2599 C   0  0  0  0  0  0  0  0  0  0  0  0
   10.4648  -14.4960   23.3559 O   0  0  0  0  0  0  0  0  0  0  0  0
   10.6160  -20.5169   22.4207 O   0  0  0  0  0  0  0  0  0  0  0  0
    6.7067  -11.4421   27.0218 C   0  0  0  0  0  0  0  0  0  0  0  0
    7.7097  -12.5615   26.9233 C   0  0  0  0  0  0  0  0  0  0  0  0
    7.5869  -13.4067   25.7072 C   0  0  2  0  0  0  0  0  0  0  0  0
    6.2417  -14.1456   25.8018 C   0  0  0  0  0  0  0  0  0  0  0  0
    8.6146  -14.4664   25.5317 C   0  0  2  0  0  0  0  0  0  0  0  0
    8.5006  -15.2622   24.3341 N   0  0  0  0  0  0  0  0  0  0  0  0
    8.5474  -15.3824   26.7127 C   0  0  0  0  0  0  0  0  0  0  0  0
    9.0851  -15.0598   27.9467 O   0  0  0  0  0  0  0  0  0  0  0  0
    7.9878  -16.4969   26.6139 O   0  0  0  0  0  0  0  0  0  0  0  0
  2  1  1  1
  2  3  1  0
  4  2  1  0
  4  5  2  0
  6  4  1  0
  7  6  1  0
  7 12  1  0
  7  8  1  6
  9  8  1  0
  9 10  1  0
 10 14  1  0
 11 10  2  0
 12 13  2  0
 12 20  1  0
 16 15  1  0
 17 18  1  1
 17 16  1  0
 19 17  1  0
 19 20  1  6
 21 22  1  0
 21 19  1  0
 23 21  2  0
M  END
$$$$
