AEI.pdb
     RDKit          3D

 23 22  0  0  1  0  0  0  0  0999 V2000
    8.3584  -12.2389   19.4395 C   0  0  0  0  0  0  0  0  0  0  0  0
    8.3130  -13.7048   19.0938 C   0  0  2  0  0  0  0  0  0  0  0  0
    7.2409  -13.9388   18.1829 N   0  0  0  0  0  0  0  0  0  0  0  0
    8.1866  -14.4886   20.3520 C   0  0  0  0  0  0  0  0  0  0  0  0
    7.0445  -14.7719   20.7962 O   0  0  0  0  0  0  0  0  0  0  0  0
    9.3054  -14.9467   21.0988 N   0  0  0  0  0  0  0  0  0  0  0  0
    9.1916  -15.9190   22.1734 C   0  0  1  0  0  0  0  0  0  0  0  0
   10.0547  -17.1172   21.9606 C   0  0  0  0  0  0  0  0  0  0  0  0
    9.7346  -17.9099   20.7372 C   0  0  0  0  0  0  0  0  0  0  0  0
   10.8285  -18.8765   20.4837 C   0  0  0  0  0  0  0  0  0  0  0  0
   11.3615  -19.4954   21.4395 O   0  0  0  0  0  0  0  0  0  0  0  0
    9.4113  -15.2447   23.4785 C   0  0  0  0  0  0  0  0  0  0  0  0
   10.4865  -14.6091   23.6126 O   0  0  0  0  0  0  0  0  0  0  0  0
   11.3132  -19.1454   19.2100 O   0  0  0  0  0  0  0  0  0  0  0  0
    5.6055  -12.2545   25.8545 C   0  0  0  0  0  0  0  0  0  0  0  0
    6.8934  -12.8753   25.3804 C   0  0  0  0  0  0  0  0  0  0  0  0
    7.4930  -13.8632   26.3145 C   0  0  2  0  0  0  0  0  0  0  0  0
    8.0125  -13.0801   27.5317 C   0  0  0  0  0  0  0  0  0  0  0  0
    8.6593  -14.6318   25.8053 C   0  0  2  0  0  0  0  0  0  0  0  0
    8.4703  -15.2990   24.5405 N   0  0  0  0  0  0  0  0  0  0  0  0
    9.0242  -15.6600   26.8291 C   0  0  0  0  0  0  0  0  0  0  0  0
    9.9767  -15.4410   27.8091 O   0  0  0  0  0  0  0  0  0  0  0  0
    8.4623  -16.7777   26.8266 O   0  0  0  0  0  0  0  0  0  0  0  0
  2  1  1  1
  2  3  1  0
  4  2  1  0
  4  5  2  0
  6  4  1  0
  7  6  1  0
  7 12  1  0
  7  8  1  6
  9  8  1  0
  9 10  1  0
 10 14  1  0
 11 10  2  0
 12 13  2  0
 12 20  1  0
 16 15  1  0
 17 18  1  1
 17 16  1  0
 19 17  1  0
 19 20  1  6
 21 22  1  0
 21 19  1  0
 23 21  2  0
M  END
$$$$
