AEI.pdb
     RDKit          3D

 23 22  0  0  1  0  0  0  0  0999 V2000
    6.9618  -13.3361   19.0276 C   0  0  0  0  0  0  0  0  0  0  0  0
    8.2703  -13.3528   19.7744 C   0  0  2  0  0  0  0  0  0  0  0  0
    9.3162  -13.7262   18.8796 N   0  0  0  0  0  0  0  0  0  0  0  0
    8.1452  -14.2732   20.9366 C   0  0  0  0  0  0  0  0  0  0  0  0
    7.1942  -14.1267   21.7465 O   0  0  0  0  0  0  0  0  0  0  0  0
    9.0577  -15.3324   21.1918 N   0  0  0  0  0  0  0  0  0  0  0  0
    8.9559  -16.1977   22.3554 C   0  0  1  0  0  0  0  0  0  0  0  0
    9.7061  -17.4767   22.1902 C   0  0  0  0  0  0  0  0  0  0  0  0
    9.1799  -18.3774   21.1227 C   0  0  0  0  0  0  0  0  0  0  0  0
   10.0578  -19.5658   21.0125 C   0  0  0  0  0  0  0  0  0  0  0  0
   10.7731  -19.7330   19.9922 O   0  0  0  0  0  0  0  0  0  0  0  0
    9.3289  -15.4359   23.5747 C   0  0  0  0  0  0  0  0  0  0  0  0
   10.4422  -14.8542   23.5596 O   0  0  0  0  0  0  0  0  0  0  0  0
   10.1374  -20.5356   22.0039 O   0  0  0  0  0  0  0  0  0  0  0  0
    5.8935  -12.0684   25.8720 C   0  0  0  0  0  0  0  0  0  0  0  0
    7.1556  -12.7506   25.4134 C   0  0  0  0  0  0  0  0  0  0  0  0
    7.7582  -13.6821   26.4020 C   0  0  2  0  0  0  0  0  0  0  0  0
    8.4296  -12.8222   27.4857 C   0  0  0  0  0  0  0  0  0  0  0  0
    8.8215  -14.5885   25.8941 C   0  0  2  0  0  0  0  0  0  0  0  0
    8.4888  -15.3520   24.7165 N   0  0  0  0  0  0  0  0  0  0  0  0
    9.1822  -15.5442   26.9874 C   0  0  0  0  0  0  0  0  0  0  0  0
    8.7856  -16.8702   26.9888 O   0  0  0  0  0  0  0  0  0  0  0  0
    9.8714  -15.1592   27.9578 O   0  0  0  0  0  0  0  0  0  0  0  0
  2  1  1  6
  2  3  1  0
  4  2  1  0
  4  5  2  0
  6  4  1  0
  7  6  1  0
  7 12  1  0
  7  8  1  6
  9  8  1  0
  9 10  1  0
 10 14  1  0
 11 10  2  0
 12 13  2  0
 12 20  1  0
 16 15  1  0
 17 18  1  1
 17 16  1  0
 19 17  1  0
 19 20  1  6
 21 22  1  0
 21 19  1  0
 23 21  2  0
M  END
$$$$
