AEI.pdb
     RDKit          3D

 23 22  0  0  1  0  0  0  0  0999 V2000
    8.2410  -12.1162   19.5044 C   0  0  0  0  0  0  0  0  0  0  0  0
    8.1380  -13.5468   19.0428 C   0  0  2  0  0  0  0  0  0  0  0  0
    7.1300  -13.6442   18.0386 N   0  0  0  0  0  0  0  0  0  0  0  0
    7.8664  -14.4112   20.2229 C   0  0  0  0  0  0  0  0  0  0  0  0
    6.6858  -14.5496   20.6339 O   0  0  0  0  0  0  0  0  0  0  0  0
    8.8852  -15.1056   20.9294 N   0  0  0  0  0  0  0  0  0  0  0  0
    8.6102  -15.9575   22.0747 C   0  0  1  0  0  0  0  0  0  0  0  0
    9.2031  -17.3195   21.9358 C   0  0  0  0  0  0  0  0  0  0  0  0
    8.9430  -18.2355   23.0851 C   0  0  0  0  0  0  0  0  0  0  0  0
    9.5407  -19.5602   22.7964 C   0  0  0  0  0  0  0  0  0  0  0  0
    9.5403  -20.0137   21.6239 O   0  0  0  0  0  0  0  0  0  0  0  0
    9.0053  -15.2550   23.3223 C   0  0  0  0  0  0  0  0  0  0  0  0
   10.1478  -14.7330   23.3398 O   0  0  0  0  0  0  0  0  0  0  0  0
   10.1192  -20.3535   23.7790 O   0  0  0  0  0  0  0  0  0  0  0  0
    5.5600  -11.9195   25.8605 C   0  0  0  0  0  0  0  0  0  0  0  0
    6.8090  -12.5733   25.3302 C   0  0  0  0  0  0  0  0  0  0  0  0
    7.4124  -13.5914   26.2289 C   0  0  2  0  0  0  0  0  0  0  0  0
    8.0558  -12.8359   27.4036 C   0  0  0  0  0  0  0  0  0  0  0  0
    8.4963  -14.4270   25.6484 C   0  0  2  0  0  0  0  0  0  0  0  0
    8.1546  -15.1622   24.4554 N   0  0  0  0  0  0  0  0  0  0  0  0
    8.9424  -15.4034   26.6905 C   0  0  0  0  0  0  0  0  0  0  0  0
    9.9488  -15.1264   27.5994 O   0  0  0  0  0  0  0  0  0  0  0  0
    8.4025  -16.5291   26.7705 O   0  0  0  0  0  0  0  0  0  0  0  0
  2  1  1  1
  2  3  1  0
  4  2  1  0
  4  5  2  0
  6  4  1  0
  7  6  1  0
  7 12  1  0
  7  8  1  6
  9  8  1  0
  9 10  1  0
 10 14  1  0
 11 10  2  0
 12 13  2  0
 12 20  1  0
 16 15  1  0
 17 18  1  1
 17 16  1  0
 19 17  1  0
 19 20  1  6
 21 22  1  0
 21 19  1  0
 23 21  2  0
M  END
$$$$
