GEW.pdb
     RDKit          3D

 28 29  0  0  1  0  0  0  0  0999 V2000
   30.3648  -22.0657  -13.3586 N   0  0  0  0  0  0  0  0  0  0  0  0
   29.3794  -21.4560  -14.2544 C   0  0  0  0  0  0  0  0  0  0  0  0
   28.2659  -20.8658  -13.5024 C   0  0  0  0  0  0  0  0  0  0  0  0
   28.4106  -19.7693  -12.8999 O   0  0  0  0  0  0  0  0  0  0  0  0
   27.0059  -21.5437  -13.4544 N   0  0  0  0  0  0  0  0  0  0  0  0
   25.8538  -20.9107  -12.9351 C   0  0  1  0  0  0  0  0  0  0  0  0
   24.5311  -21.1912  -13.5302 C   0  0  0  0  0  0  0  0  0  0  0  0
   23.3447  -20.4798  -13.0206 C   0  0  0  0  0  0  0  0  0  0  0  0
   22.9608  -19.3074  -13.7950 C   0  0  0  0  0  0  0  0  0  0  0  0
   23.2901  -19.0060  -14.9461 O   0  0  0  0  0  0  0  0  0  0  0  0
   25.7531  -21.2859  -11.4733 C   0  0  0  0  0  0  0  0  0  0  0  0
   25.6609  -22.5155  -11.1620 O   0  0  0  0  0  0  0  0  0  0  0  0
   22.0975  -18.3849  -13.1538 O   0  0  0  0  0  0  0  0  0  0  0  0
   25.7570  -20.3355  -10.4324 N   0  0  0  0  0  0  0  0  0  0  0  0
   25.5186  -20.7702   -9.0714 C   0  0  1  0  0  0  0  0  0  0  0  0
   26.0141  -19.7341   -8.0766 C   0  0  0  0  0  0  0  0  0  0  0  0
   27.3968  -20.0925   -7.6782 C   0  0  0  0  0  0  0  0  0  0  0  0
   28.2906  -20.7920   -8.4614 C   0  0  0  0  0  0  0  0  0  0  0  0
   29.4205  -20.9202   -7.7507 N   0  0  0  0  0  0  0  0  0  0  0  0
   29.2885  -20.3323   -6.5446 C   0  0  0  0  0  0  0  0  0  0  0  0
   30.1680  -20.2047   -5.4777 C   0  0  0  0  0  0  0  0  0  0  0  0
   29.7278  -19.5351   -4.3596 C   0  0  0  0  0  0  0  0  0  0  0  0
   28.4575  -19.0049   -4.2916 C   0  0  0  0  0  0  0  0  0  0  0  0
   27.5892  -19.1354   -5.3544 C   0  0  0  0  0  0  0  0  0  0  0  0
   28.0240  -19.8145   -6.4983 C   0  0  0  0  0  0  0  0  0  0  0  0
   24.0803  -21.0595   -8.8876 C   0  0  0  0  0  0  0  0  0  0  0  0
   23.2533  -20.6623   -9.7371 O   0  0  0  0  0  0  0  0  0  0  0  0
   23.6235  -21.7644   -7.7915 O   0  0  0  0  0  0  0  0  0  0  0  0
  1  2  1  0
  3  4  2  0
  3  2  1  0
  5  3  1  0
  6  5  1  0
  6  7  1  6
  8  7  1  0
  9 13  1  0
  9  8  1  0
 10  9  2  0
 11  6  1  0
 11 12  2  0
 14 11  1  0
 15 14  1  0
 15 16  1  1
 17 16  1  0
 17 25  1  0
 18 19  1  0
 18 17  2  0
 19 20  1  0
 20 25  2  0
 20 21  1  0
 21 22  2  0
 22 23  1  0
 24 23  2  0
 25 24  1  0
 26 15  1  0
 26 28  1  0
 27 26  2  0
M  END
$$$$
