GEW.pdb
     RDKit          3D

 28 29  0  0  1  0  0  0  0  0999 V2000
   23.2760  -25.6591  -15.0797 N   0  0  0  0  0  0  0  0  0  0  0  0
   23.1113  -24.4603  -14.2546 C   0  0  0  0  0  0  0  0  0  0  0  0
   24.4006  -23.9826  -13.7417 C   0  0  0  0  0  0  0  0  0  0  0  0
   25.1872  -24.7710  -13.1538 O   0  0  0  0  0  0  0  0  0  0  0  0
   24.7650  -22.6086  -13.9119 N   0  0  0  0  0  0  0  0  0  0  0  0
   26.0104  -22.1200  -13.4558 C   0  0  1  0  0  0  0  0  0  0  0  0
   26.6495  -20.9813  -14.1467 C   0  0  0  0  0  0  0  0  0  0  0  0
   27.5101  -21.2372  -15.3160 C   0  0  0  0  0  0  0  0  0  0  0  0
   27.3611  -20.2768  -16.4010 C   0  0  0  0  0  0  0  0  0  0  0  0
   26.8717  -20.4532  -17.5208 O   0  0  0  0  0  0  0  0  0  0  0  0
   25.8294  -21.6987  -12.0145 C   0  0  0  0  0  0  0  0  0  0  0  0
   24.6980  -21.2501  -11.6456 O   0  0  0  0  0  0  0  0  0  0  0  0
   27.8369  -18.9659  -16.1507 O   0  0  0  0  0  0  0  0  0  0  0  0
   26.8575  -21.7793  -11.0538 N   0  0  0  0  0  0  0  0  0  0  0  0
   26.6540  -21.1964   -9.7435 C   0  0  1  0  0  0  0  0  0  0  0  0
   27.9456  -21.1971   -8.9432 C   0  0  0  0  0  0  0  0  0  0  0  0
   27.7203  -20.4342   -7.6916 C   0  0  0  0  0  0  0  0  0  0  0  0
   26.6435  -19.6069   -7.4513 C   0  0  0  0  0  0  0  0  0  0  0  0
   26.8041  -19.0991   -6.2206 N   0  0  0  0  0  0  0  0  0  0  0  0
   27.9388  -19.5662   -5.6619 C   0  0  0  0  0  0  0  0  0  0  0  0
   28.5236  -19.3325   -4.4244 C   0  0  0  0  0  0  0  0  0  0  0  0
   29.7092  -19.9712   -4.1438 C   0  0  0  0  0  0  0  0  0  0  0  0
   30.3043  -20.8169   -5.0547 C   0  0  0  0  0  0  0  0  0  0  0  0
   29.7186  -21.0443   -6.2818 C   0  0  0  0  0  0  0  0  0  0  0  0
   28.5122  -20.4008   -6.5806 C   0  0  0  0  0  0  0  0  0  0  0  0
   26.1017  -19.8324   -9.8875 C   0  0  0  0  0  0  0  0  0  0  0  0
   25.0933  -19.4979   -9.2283 O   0  0  0  0  0  0  0  0  0  0  0  0
   26.6772  -18.9103  -10.7392 O   0  0  0  0  0  0  0  0  0  0  0  0
  1  2  1  0
  3  4  2  0
  3  2  1  0
  5  3  1  0
  6  5  1  0
  6  7  1  6
  8  7  1  0
  9 13  1  0
  9  8  1  0
 10  9  2  0
 11  6  1  0
 11 12  2  0
 14 11  1  0
 15 14  1  0
 15 16  1  6
 17 16  1  0
 17 25  1  0
 18 19  1  0
 18 17  2  0
 19 20  1  0
 20 25  2  0
 20 21  1  0
 21 22  2  0
 22 23  1  0
 24 23  2  0
 25 24  1  0
 26 15  1  0
 26 28  1  0
 27 26  2  0
M  END
$$$$
