GEW.pdb
     RDKit          3D

 28 29  0  0  1  0  0  0  0  0999 V2000
   17.3066  -15.0611  -16.0948 N   0  0  0  0  0  0  0  0  0  0  0  0
   17.7591  -14.8842  -17.4764 C   0  0  0  0  0  0  0  0  0  0  0  0
   19.0233  -14.1411  -17.5344 C   0  0  0  0  0  0  0  0  0  0  0  0
   20.0323  -14.5444  -16.8978 O   0  0  0  0  0  0  0  0  0  0  0  0
   19.1078  -12.9482  -18.3213 N   0  0  0  0  0  0  0  0  0  0  0  0
   20.3272  -12.2466  -18.4578 C   0  0  1  0  0  0  0  0  0  0  0  0
   20.7591  -11.7781  -19.7906 C   0  0  0  0  0  0  0  0  0  0  0  0
   21.3207  -12.7471  -20.7493 C   0  0  0  0  0  0  0  0  0  0  0  0
   21.7202  -12.1743  -22.0276 C   0  0  0  0  0  0  0  0  0  0  0  0
   21.0016  -11.7344  -22.9300 O   0  0  0  0  0  0  0  0  0  0  0  0
   20.2415  -11.0180  -17.5798 C   0  0  0  0  0  0  0  0  0  0  0  0
   19.1333  -10.3992  -17.4997 O   0  0  0  0  0  0  0  0  0  0  0  0
   23.1129  -12.1086  -22.2797 O   0  0  0  0  0  0  0  0  0  0  0  0
   21.3345  -10.5217  -16.8411 N   0  0  0  0  0  0  0  0  0  0  0  0
   21.1913   -9.2830  -16.1042 C   0  0  1  0  0  0  0  0  0  0  0  0
   22.3684   -9.0702  -15.1673 C   0  0  0  0  0  0  0  0  0  0  0  0
   22.2170   -7.7447  -14.5201 C   0  0  0  0  0  0  0  0  0  0  0  0
   21.5051   -7.5046  -13.3637 C   0  0  0  0  0  0  0  0  0  0  0  0
   21.6003   -6.1916  -13.1081 N   0  0  0  0  0  0  0  0  0  0  0  0
   22.3433   -5.5799  -14.0523 C   0  0  0  0  0  0  0  0  0  0  0  0
   22.7170   -4.2528  -14.2178 C   0  0  0  0  0  0  0  0  0  0  0  0
   23.4957   -3.9364  -15.3068 C   0  0  0  0  0  0  0  0  0  0  0  0
   23.8965   -4.8980  -16.2089 C   0  0  0  0  0  0  0  0  0  0  0  0
   23.5217   -6.2137  -16.0388 C   0  0  0  0  0  0  0  0  0  0  0  0
   22.7294   -6.5498  -14.9353 C   0  0  0  0  0  0  0  0  0  0  0  0
   21.0363   -8.1576  -17.0505 C   0  0  0  0  0  0  0  0  0  0  0  0
   21.7815   -8.0807  -18.0516 O   0  0  0  0  0  0  0  0  0  0  0  0
   20.0800   -7.1808  -16.8549 O   0  0  0  0  0  0  0  0  0  0  0  0
  1  2  1  0
  3  4  2  0
  3  2  1  0
  5  3  1  0
  6  5  1  0
  6  7  1  6
  8  7  1  0
  9 13  1  0
  9  8  1  0
 10  9  2  0
 11  6  1  0
 11 12  2  0
 14 11  1  0
 15 14  1  0
 15 16  1  6
 17 16  1  0
 17 25  1  0
 18 19  1  0
 18 17  2  0
 19 20  1  0
 20 25  2  0
 20 21  1  0
 21 22  2  0
 22 23  1  0
 24 23  2  0
 25 24  1  0
 26 15  1  0
 26 28  1  0
 27 26  2  0
M  END
$$$$
