GEW.pdb
     RDKit          3D

 28 29  0  0  1  0  0  0  0  0999 V2000
   30.2442  -23.9820  -16.9759 N   0  0  0  0  0  0  0  0  0  0  0  0
   29.0610  -23.2382  -17.4137 C   0  0  0  0  0  0  0  0  0  0  0  0
   28.5928  -22.3164  -16.3722 C   0  0  0  0  0  0  0  0  0  0  0  0
   29.3784  -21.9136  -15.4740 O   0  0  0  0  0  0  0  0  0  0  0  0
   27.2317  -21.8728  -16.3790 N   0  0  0  0  0  0  0  0  0  0  0  0
   26.7998  -20.8236  -15.5362 C   0  0  1  0  0  0  0  0  0  0  0  0
   25.9890  -19.7214  -16.0931 C   0  0  0  0  0  0  0  0  0  0  0  0
   26.6189  -18.7538  -17.0099 C   0  0  0  0  0  0  0  0  0  0  0  0
   27.4868  -17.7800  -16.3617 C   0  0  0  0  0  0  0  0  0  0  0  0
   28.7074  -17.6389  -16.4826 O   0  0  0  0  0  0  0  0  0  0  0  0
   25.9758  -21.4437  -14.4298 C   0  0  0  0  0  0  0  0  0  0  0  0
   25.1613  -22.3756  -14.7222 O   0  0  0  0  0  0  0  0  0  0  0  0
   26.8598  -16.8710  -15.4740 O   0  0  0  0  0  0  0  0  0  0  0  0
   26.0663  -21.0387  -13.0828 N   0  0  0  0  0  0  0  0  0  0  0  0
   25.3340  -21.7700  -12.0694 C   0  0  1  0  0  0  0  0  0  0  0  0
   26.2604  -22.2281  -10.9555 C   0  0  0  0  0  0  0  0  0  0  0  0
   26.3596  -21.1400   -9.9529 C   0  0  0  0  0  0  0  0  0  0  0  0
   25.4048  -20.1675   -9.7424 C   0  0  0  0  0  0  0  0  0  0  0  0
   25.8628  -19.3709   -8.7657 N   0  0  0  0  0  0  0  0  0  0  0  0
   27.0713  -19.7919   -8.3414 C   0  0  0  0  0  0  0  0  0  0  0  0
   27.9308  -19.3017   -7.3672 C   0  0  0  0  0  0  0  0  0  0  0  0
   29.1179  -19.9666   -7.1652 C   0  0  0  0  0  0  0  0  0  0  0  0
   29.4518  -21.0833   -7.9006 C   0  0  0  0  0  0  0  0  0  0  0  0
   28.5940  -21.5645   -8.8666 C   0  0  0  0  0  0  0  0  0  0  0  0
   27.3827  -20.8977   -9.0828 C   0  0  0  0  0  0  0  0  0  0  0  0
   24.2310  -20.9319  -11.5522 C   0  0  0  0  0  0  0  0  0  0  0  0
   24.2830  -19.6892  -11.6796 O   0  0  0  0  0  0  0  0  0  0  0  0
   23.1349  -21.4926  -10.9270 O   0  0  0  0  0  0  0  0  0  0  0  0
  1  2  1  0
  3  4  2  0
  3  2  1  0
  5  3  1  0
  6  5  1  0
  6  7  1  6
  8  7  1  0
  9 13  1  0
  9  8  1  0
 10  9  2  0
 11  6  1  0
 11 12  2  0
 14 11  1  0
 15 14  1  0
 15 16  1  1
 17 16  1  0
 17 25  1  0
 18 19  1  0
 18 17  2  0
 19 20  1  0
 20 25  2  0
 20 21  1  0
 21 22  2  0
 22 23  1  0
 24 23  2  0
 25 24  1  0
 26 15  1  0
 26 28  1  0
 27 26  2  0
M  END
$$$$
