GEW.pdb
     RDKit          3D

 28 29  0  0  1  0  0  0  0  0999 V2000
   23.3373  -19.3527  -21.3398 N   0  0  0  0  0  0  0  0  0  0  0  0
   23.2666  -20.2276  -20.1674 C   0  0  0  0  0  0  0  0  0  0  0  0
   24.5984  -20.7004  -19.7717 C   0  0  0  0  0  0  0  0  0  0  0  0
   25.5842  -20.5545  -20.5417 O   0  0  0  0  0  0  0  0  0  0  0  0
   24.7760  -21.3326  -18.4995 N   0  0  0  0  0  0  0  0  0  0  0  0
   26.0334  -21.8444  -18.1061 C   0  0  1  0  0  0  0  0  0  0  0  0
   26.6249  -21.4278  -16.8181 C   0  0  0  0  0  0  0  0  0  0  0  0
   27.9609  -21.9254  -16.4427 C   0  0  0  0  0  0  0  0  0  0  0  0
   29.0456  -21.4519  -17.2918 C   0  0  0  0  0  0  0  0  0  0  0  0
   29.0506  -20.4906  -18.0666 O   0  0  0  0  0  0  0  0  0  0  0  0
   25.9106  -23.3510  -18.0527 C   0  0  0  0  0  0  0  0  0  0  0  0
   24.9167  -23.8629  -17.4464 O   0  0  0  0  0  0  0  0  0  0  0  0
   30.2581  -22.1822  -17.2293 O   0  0  0  0  0  0  0  0  0  0  0  0
   26.8475  -24.2214  -18.6453 N   0  0  0  0  0  0  0  0  0  0  0  0
   26.7308  -25.6484  -18.4258 C   0  0  1  0  0  0  0  0  0  0  0  0
   27.9321  -26.3846  -18.9947 C   0  0  0  0  0  0  0  0  0  0  0  0
   27.6546  -27.8404  -18.9450 C   0  0  0  0  0  0  0  0  0  0  0  0
   27.1051  -28.5775  -19.9728 C   0  0  0  0  0  0  0  0  0  0  0  0
   27.0070  -29.8433  -19.5409 N   0  0  0  0  0  0  0  0  0  0  0  0
   27.4705  -29.9485  -18.2792 C   0  0  0  0  0  0  0  0  0  0  0  0
   27.5733  -31.0346  -17.4202 C   0  0  0  0  0  0  0  0  0  0  0  0
   28.1005  -30.8154  -16.1687 C   0  0  0  0  0  0  0  0  0  0  0  0
   28.5155  -29.5627  -15.7717 C   0  0  0  0  0  0  0  0  0  0  0  0
   28.4103  -28.4885  -16.6294 C   0  0  0  0  0  0  0  0  0  0  0  0
   27.8757  -28.6972  -17.9059 C   0  0  0  0  0  0  0  0  0  0  0  0
   26.5600  -25.9161  -16.9817 C   0  0  0  0  0  0  0  0  0  0  0  0
   27.2807  -25.3221  -16.1504 O   0  0  0  0  0  0  0  0  0  0  0  0
   25.6154  -26.8134  -16.5241 O   0  0  0  0  0  0  0  0  0  0  0  0
  1  2  1  0
  3  4  2  0
  3  2  1  0
  5  3  1  0
  6  5  1  0
  6  7  1  1
  8  7  1  0
  9 13  1  0
  9  8  1  0
 10  9  2  0
 11  6  1  0
 11 12  2  0
 14 11  1  0
 15 14  1  0
 15 16  1  1
 17 16  1  0
 17 25  1  0
 18 19  1  0
 18 17  2  0
 19 20  1  0
 20 25  2  0
 20 21  1  0
 21 22  2  0
 22 23  1  0
 24 23  2  0
 25 24  1  0
 26 15  1  0
 26 28  1  0
 27 26  2  0
M  END
$$$$
