GEW.pdb
     RDKit          3D

 28 29  0  0  1  0  0  0  0  0999 V2000
   27.4881  -20.8182  -16.8130 N   0  0  0  0  0  0  0  0  0  0  0  0
   28.3878  -20.8521  -15.6579 C   0  0  0  0  0  0  0  0  0  0  0  0
   27.7592  -20.2577  -14.4724 C   0  0  0  0  0  0  0  0  0  0  0  0
   28.2417  -19.2214  -13.9440 O   0  0  0  0  0  0  0  0  0  0  0  0
   26.5882  -20.8626  -13.9137 N   0  0  0  0  0  0  0  0  0  0  0  0
   25.8713  -20.2397  -12.8669 C   0  0  1  0  0  0  0  0  0  0  0  0
   24.4205  -20.0019  -13.0111 C   0  0  0  0  0  0  0  0  0  0  0  0
   23.9117  -19.3671  -14.2406 C   0  0  0  0  0  0  0  0  0  0  0  0
   22.4709  -19.1545  -14.2625 C   0  0  0  0  0  0  0  0  0  0  0  0
   21.8521  -18.0861  -14.2549 O   0  0  0  0  0  0  0  0  0  0  0  0
   26.0437  -21.0945  -11.6310 C   0  0  0  0  0  0  0  0  0  0  0  0
   25.9906  -22.3596  -11.7497 O   0  0  0  0  0  0  0  0  0  0  0  0
   21.6637  -20.3185  -14.2964 O   0  0  0  0  0  0  0  0  0  0  0  0
   26.2622  -20.5562  -10.3469 N   0  0  0  0  0  0  0  0  0  0  0  0
   26.3909  -21.4491   -9.2137 C   0  0  1  0  0  0  0  0  0  0  0  0
   27.7904  -21.3811   -8.6259 C   0  0  0  0  0  0  0  0  0  0  0  0
   27.8349  -20.2630   -7.6529 C   0  0  0  0  0  0  0  0  0  0  0  0
   27.2351  -19.0340   -7.8307 C   0  0  0  0  0  0  0  0  0  0  0  0
   27.5080  -18.3014   -6.7412 N   0  0  0  0  0  0  0  0  0  0  0  0
   28.2576  -19.0092   -5.8723 C   0  0  0  0  0  0  0  0  0  0  0  0
   28.7819  -18.6862   -4.6278 C   0  0  0  0  0  0  0  0  0  0  0  0
   29.5213  -19.6447   -3.9745 C   0  0  0  0  0  0  0  0  0  0  0  0
   29.7399  -20.8872   -4.5291 C   0  0  0  0  0  0  0  0  0  0  0  0
   29.2167  -21.2013   -5.7653 C   0  0  0  0  0  0  0  0  0  0  0  0
   28.4624  -20.2354   -6.4412 C   0  0  0  0  0  0  0  0  0  0  0  0
   25.3590  -21.1240   -8.2059 C   0  0  0  0  0  0  0  0  0  0  0  0
   24.6067  -20.1411   -8.3821 O   0  0  0  0  0  0  0  0  0  0  0  0
   25.2036  -21.8861   -7.0648 O   0  0  0  0  0  0  0  0  0  0  0  0
  1  2  1  0
  3  4  2  0
  3  2  1  0
  5  3  1  0
  6  5  1  0
  6  7  1  6
  8  7  1  0
  9 13  1  0
  9  8  1  0
 10  9  2  0
 11  6  1  0
 11 12  2  0
 14 11  1  0
 15 14  1  0
 15 16  1  1
 17 16  1  0
 17 25  1  0
 18 19  1  0
 18 17  2  0
 19 20  1  0
 20 25  2  0
 20 21  1  0
 21 22  2  0
 22 23  1  0
 24 23  2  0
 25 24  1  0
 26 15  1  0
 26 28  1  0
 27 26  2  0
M  END
$$$$
