GEW.pdb
     RDKit          3D

 28 29  0  0  1  0  0  0  0  0999 V2000
   26.8688  -15.9022  -15.4533 N   0  0  0  0  0  0  0  0  0  0  0  0
   27.1808  -16.3448  -14.0925 C   0  0  0  0  0  0  0  0  0  0  0  0
   26.6681  -17.6963  -13.8387 C   0  0  0  0  0  0  0  0  0  0  0  0
   25.4341  -17.9368  -13.9122 O   0  0  0  0  0  0  0  0  0  0  0  0
   27.5799  -18.7483  -13.5049 N   0  0  0  0  0  0  0  0  0  0  0  0
   27.1291  -20.0741  -13.3137 C   0  0  1  0  0  0  0  0  0  0  0  0
   27.8466  -21.1933  -13.9580 C   0  0  0  0  0  0  0  0  0  0  0  0
   27.3609  -21.7146  -15.2486 C   0  0  0  0  0  0  0  0  0  0  0  0
   26.0290  -22.3025  -15.2032 C   0  0  0  0  0  0  0  0  0  0  0  0
   25.6394  -23.2714  -14.5445 O   0  0  0  0  0  0  0  0  0  0  0  0
   27.1546  -20.3494  -11.8267 C   0  0  0  0  0  0  0  0  0  0  0  0
   28.2614  -20.2598  -11.2067 O   0  0  0  0  0  0  0  0  0  0  0  0
   25.0435  -21.6916  -16.0175 O   0  0  0  0  0  0  0  0  0  0  0  0
   26.0065  -20.7019  -11.0891 N   0  0  0  0  0  0  0  0  0  0  0  0
   26.1216  -20.9419   -9.6653 C   0  0  1  0  0  0  0  0  0  0  0  0
   26.6117  -19.6979   -8.9435 C   0  0  0  0  0  0  0  0  0  0  0  0
   26.6245  -19.9771   -7.4871 C   0  0  0  0  0  0  0  0  0  0  0  0
   25.5939  -20.5649   -6.7843 C   0  0  0  0  0  0  0  0  0  0  0  0
   25.9825  -20.6376   -5.5028 N   0  0  0  0  0  0  0  0  0  0  0  0
   27.2190  -20.1210   -5.3548 C   0  0  0  0  0  0  0  0  0  0  0  0
   28.0316  -19.9746   -4.2384 C   0  0  0  0  0  0  0  0  0  0  0  0
   29.2672  -19.3963   -4.4153 C   0  0  0  0  0  0  0  0  0  0  0  0
   29.6930  -18.9731   -5.6558 C   0  0  0  0  0  0  0  0  0  0  0  0
   28.8810  -19.1212   -6.7600 C   0  0  0  0  0  0  0  0  0  0  0  0
   27.6213  -19.7079   -6.5945 C   0  0  0  0  0  0  0  0  0  0  0  0
   24.8222  -21.4055   -9.1334 C   0  0  0  0  0  0  0  0  0  0  0  0
   23.7612  -20.8957   -9.5548 O   0  0  0  0  0  0  0  0  0  0  0  0
   24.7506  -22.3968   -8.1747 O   0  0  0  0  0  0  0  0  0  0  0  0
  1  2  1  0
  3  4  2  0
  3  2  1  0
  5  3  1  0
  6  5  1  0
  6  7  1  6
  8  7  1  0
  9 13  1  0
  9  8  1  0
 10  9  2  0
 11  6  1  0
 11 12  2  0
 14 11  1  0
 15 14  1  0
 15 16  1  1
 17 16  1  0
 17 25  1  0
 18 19  1  0
 18 17  2  0
 19 20  1  0
 20 25  2  0
 20 21  1  0
 21 22  2  0
 22 23  1  0
 24 23  2  0
 25 24  1  0
 26 15  1  0
 26 28  1  0
 27 26  2  0
M  END
$$$$
