GEW.pdb
     RDKit          3D

 28 29  0  0  1  0  0  0  0  0999 V2000
   30.9811  -24.7027  -15.7600 N   0  0  0  0  0  0  0  0  0  0  0  0
   30.3111  -23.6194  -16.4828 C   0  0  0  0  0  0  0  0  0  0  0  0
   29.6769  -22.6719  -15.5588 C   0  0  0  0  0  0  0  0  0  0  0  0
   30.0460  -22.6062  -14.3565 O   0  0  0  0  0  0  0  0  0  0  0  0
   28.6302  -21.8164  -16.0301 N   0  0  0  0  0  0  0  0  0  0  0  0
   28.1778  -20.7211  -15.2596 C   0  0  1  0  0  0  0  0  0  0  0  0
   27.9102  -19.4241  -15.9144 C   0  0  0  0  0  0  0  0  0  0  0  0
   27.2637  -18.3463  -15.1437 C   0  0  0  0  0  0  0  0  0  0  0  0
   27.1619  -17.0746  -15.8466 C   0  0  0  0  0  0  0  0  0  0  0  0
   27.4927  -16.8096  -17.0063 O   0  0  0  0  0  0  0  0  0  0  0  0
   26.8849  -21.1398  -14.5958 C   0  0  0  0  0  0  0  0  0  0  0  0
   25.9690  -21.6563  -15.3112 O   0  0  0  0  0  0  0  0  0  0  0  0
   26.6138  -15.9929  -15.1139 O   0  0  0  0  0  0  0  0  0  0  0  0
   26.6429  -20.9860  -13.2158 N   0  0  0  0  0  0  0  0  0  0  0  0
   25.4517  -21.5687  -12.6333 C   0  0  1  0  0  0  0  0  0  0  0  0
   25.7895  -22.3475  -11.3731 C   0  0  0  0  0  0  0  0  0  0  0  0
   26.3002  -21.3950  -10.3578 C   0  0  0  0  0  0  0  0  0  0  0  0
   25.5316  -20.4718   -9.6805 C   0  0  0  0  0  0  0  0  0  0  0  0
   26.3540  -19.7996   -8.8618 N   0  0  0  0  0  0  0  0  0  0  0  0
   27.6175  -20.2531   -8.9860 C   0  0  0  0  0  0  0  0  0  0  0  0
   28.7993  -19.8785   -8.3606 C   0  0  0  0  0  0  0  0  0  0  0  0
   29.9502  -20.5459   -8.7105 C   0  0  0  0  0  0  0  0  0  0  0  0
   29.9403  -21.5543   -9.6497 C   0  0  0  0  0  0  0  0  0  0  0  0
   28.7635  -21.9211  -10.2671 C   0  0  0  0  0  0  0  0  0  0  0  0
   27.5850  -21.2504   -9.9207 C   0  0  0  0  0  0  0  0  0  0  0  0
   24.4579  -20.5063  -12.3686 C   0  0  0  0  0  0  0  0  0  0  0  0
   24.8071  -19.3063  -12.4050 O   0  0  0  0  0  0  0  0  0  0  0  0
   23.1418  -20.8091  -12.0802 O   0  0  0  0  0  0  0  0  0  0  0  0
  1  2  1  0
  3  4  2  0
  3  2  1  0
  5  3  1  0
  6  5  1  0
  6  7  1  6
  8  7  1  0
  9 13  1  0
  9  8  1  0
 10  9  2  0
 11  6  1  0
 11 12  2  0
 14 11  1  0
 15 14  1  0
 15 16  1  1
 17 16  1  0
 17 25  1  0
 18 19  1  0
 18 17  2  0
 19 20  1  0
 20 25  2  0
 20 21  1  0
 21 22  2  0
 22 23  1  0
 24 23  2  0
 25 24  1  0
 26 15  1  0
 26 28  1  0
 27 26  2  0
M  END
$$$$
