GEW.pdb
     RDKit          3D

 28 29  0  0  1  0  0  0  0  0999 V2000
   14.6642  -10.3854  -15.8639 N   0  0  0  0  0  0  0  0  0  0  0  0
   16.0301  -10.4446  -15.3387 C   0  0  0  0  0  0  0  0  0  0  0  0
   16.9793   -9.7821  -16.2408 C   0  0  0  0  0  0  0  0  0  0  0  0
   17.1365  -10.1956  -17.4200 O   0  0  0  0  0  0  0  0  0  0  0  0
   17.7319   -8.6571  -15.7745 N   0  0  0  0  0  0  0  0  0  0  0  0
   18.6384   -7.9809  -16.6224 C   0  0  1  0  0  0  0  0  0  0  0  0
   18.4870   -6.5291  -16.8498 C   0  0  0  0  0  0  0  0  0  0  0  0
   18.2110   -5.6439  -15.7036 C   0  0  0  0  0  0  0  0  0  0  0  0
   17.9340   -4.2588  -16.0594 C   0  0  0  0  0  0  0  0  0  0  0  0
   16.8419   -3.7257  -16.2774 O   0  0  0  0  0  0  0  0  0  0  0  0
   20.0249   -8.1822  -16.0526 C   0  0  0  0  0  0  0  0  0  0  0  0
   20.1766   -8.1618  -14.7901 O   0  0  0  0  0  0  0  0  0  0  0  0
   19.0567   -3.4021  -16.1736 O   0  0  0  0  0  0  0  0  0  0  0  0
   21.1641   -8.3930  -16.8553 N   0  0  0  0  0  0  0  0  0  0  0  0
   22.4567   -8.5653  -16.2248 C   0  0  1  0  0  0  0  0  0  0  0  0
   22.9411   -9.9987  -16.3636 C   0  0  0  0  0  0  0  0  0  0  0  0
   24.2693  -10.1083  -15.7134 C   0  0  0  0  0  0  0  0  0  0  0  0
   24.4772  -10.3817  -14.3778 C   0  0  0  0  0  0  0  0  0  0  0  0
   25.8034  -10.3901  -14.1795 N   0  0  0  0  0  0  0  0  0  0  0  0
   26.4545  -10.1334  -15.3319 C   0  0  0  0  0  0  0  0  0  0  0  0
   27.8079  -10.0372  -15.6268 C   0  0  0  0  0  0  0  0  0  0  0  0
   28.1634   -9.7570  -16.9258 C   0  0  0  0  0  0  0  0  0  0  0  0
   27.2145   -9.5761  -17.9087 C   0  0  0  0  0  0  0  0  0  0  0  0
   25.8724   -9.6726  -17.6090 C   0  0  0  0  0  0  0  0  0  0  0  0
   25.4965   -9.9571  -16.2913 C   0  0  0  0  0  0  0  0  0  0  0  0
   23.4218   -7.6045  -16.8007 C   0  0  0  0  0  0  0  0  0  0  0  0
   23.4622   -7.4312  -18.0383 O   0  0  0  0  0  0  0  0  0  0  0  0
   24.2871   -6.8870  -15.9986 O   0  0  0  0  0  0  0  0  0  0  0  0
  1  2  1  0
  3  4  2  0
  3  2  1  0
  5  3  1  0
  6  5  1  0
  6  7  1  1
  8  7  1  0
  9 13  1  0
  9  8  1  0
 10  9  2  0
 11  6  1  0
 11 12  2  0
 14 11  1  0
 15 14  1  0
 15 16  1  6
 17 16  1  0
 17 25  1  0
 18 19  1  0
 18 17  2  0
 19 20  1  0
 20 25  2  0
 20 21  1  0
 21 22  2  0
 22 23  1  0
 24 23  2  0
 25 24  1  0
 26 15  1  0
 26 28  1  0
 27 26  2  0
M  END
$$$$
