GEW.pdb
     RDKit          3D

 28 29  0  0  1  0  0  0  0  0999 V2000
   30.1213  -22.5989  -14.9339 N   0  0  0  0  0  0  0  0  0  0  0  0
   28.8141  -22.5037  -15.5876 C   0  0  0  0  0  0  0  0  0  0  0  0
   27.9133  -21.6068  -14.8543 C   0  0  0  0  0  0  0  0  0  0  0  0
   28.3609  -20.8415  -13.9598 O   0  0  0  0  0  0  0  0  0  0  0  0
   26.5146  -21.6037  -15.1596 N   0  0  0  0  0  0  0  0  0  0  0  0
   25.6449  -20.6425  -14.5960 C   0  0  1  0  0  0  0  0  0  0  0  0
   24.4533  -20.2003  -15.3489 C   0  0  0  0  0  0  0  0  0  0  0  0
   23.5451  -19.2082  -14.7452 C   0  0  0  0  0  0  0  0  0  0  0  0
   23.0597  -18.1898  -15.6666 C   0  0  0  0  0  0  0  0  0  0  0  0
   22.5832  -18.3402  -16.7956 O   0  0  0  0  0  0  0  0  0  0  0  0
   25.1387  -21.2049  -13.2864 C   0  0  0  0  0  0  0  0  0  0  0  0
   24.6479  -22.3781  -13.2731 O   0  0  0  0  0  0  0  0  0  0  0  0
   23.1402  -16.8476  -15.2200 O   0  0  0  0  0  0  0  0  0  0  0  0
   25.1844  -20.4901  -12.0725 N   0  0  0  0  0  0  0  0  0  0  0  0
   24.7232  -21.1252  -10.8552 C   0  0  1  0  0  0  0  0  0  0  0  0
   25.2403  -20.3896   -9.6303 C   0  0  0  0  0  0  0  0  0  0  0  0
   26.6712  -20.7334   -9.4481 C   0  0  0  0  0  0  0  0  0  0  0  0
   27.3992  -21.5597  -10.2781 C   0  0  0  0  0  0  0  0  0  0  0  0
   28.6415  -21.6254   -9.7773 N   0  0  0  0  0  0  0  0  0  0  0  0
   28.7403  -20.8759   -8.6610 C   0  0  0  0  0  0  0  0  0  0  0  0
   29.8045  -20.6324   -7.8028 C   0  0  0  0  0  0  0  0  0  0  0  0
   29.5845  -19.8043   -6.7266 C   0  0  0  0  0  0  0  0  0  0  0  0
   28.3521  -19.2309   -6.4995 C   0  0  0  0  0  0  0  0  0  0  0  0
   27.2997  -19.4771   -7.3553 C   0  0  0  0  0  0  0  0  0  0  0  0
   27.5094  -20.3178   -8.4544 C   0  0  0  0  0  0  0  0  0  0  0  0
   23.2466  -21.2011  -10.8636 C   0  0  0  0  0  0  0  0  0  0  0  0
   22.6002  -20.6230  -11.7643 O   0  0  0  0  0  0  0  0  0  0  0  0
   22.5575  -21.9012   -9.8931 O   0  0  0  0  0  0  0  0  0  0  0  0
  1  2  1  0
  3  4  2  0
  3  2  1  0
  5  3  1  0
  6  5  1  0
  6  7  1  6
  8  7  1  0
  9 13  1  0
  9  8  1  0
 10  9  2  0
 11  6  1  0
 11 12  2  0
 14 11  1  0
 15 14  1  0
 15 16  1  1
 17 16  1  0
 17 25  1  0
 18 19  1  0
 18 17  2  0
 19 20  1  0
 20 25  2  0
 20 21  1  0
 21 22  2  0
 22 23  1  0
 24 23  2  0
 25 24  1  0
 26 15  1  0
 26 28  1  0
 27 26  2  0
M  END
$$$$
