GEW.pdb
     RDKit          3D

 28 29  0  0  1  0  0  0  0  0999 V2000
   21.1357  -20.1606  -16.8152 N   0  0  0  0  0  0  0  0  0  0  0  0
   20.7282  -20.9043  -15.6211 C   0  0  0  0  0  0  0  0  0  0  0  0
   21.8699  -21.5857  -14.9997 C   0  0  0  0  0  0  0  0  0  0  0  0
   21.6879  -22.4502  -14.1022 O   0  0  0  0  0  0  0  0  0  0  0  0
   23.2003  -21.2633  -15.4186 N   0  0  0  0  0  0  0  0  0  0  0  0
   24.3180  -21.9592  -14.9047 C   0  0  1  0  0  0  0  0  0  0  0  0
   25.4861  -22.2144  -15.7724 C   0  0  0  0  0  0  0  0  0  0  0  0
   26.4482  -23.2664  -15.3968 C   0  0  0  0  0  0  0  0  0  0  0  0
   26.1253  -24.5933  -15.9035 C   0  0  0  0  0  0  0  0  0  0  0  0
   25.8566  -24.9288  -17.0610 O   0  0  0  0  0  0  0  0  0  0  0  0
   24.8307  -21.1752  -13.7172 C   0  0  0  0  0  0  0  0  0  0  0  0
   24.7023  -19.9099  -13.7176 O   0  0  0  0  0  0  0  0  0  0  0  0
   26.1143  -25.6441  -14.9532 O   0  0  0  0  0  0  0  0  0  0  0  0
   25.4469  -21.7801  -12.6032 N   0  0  0  0  0  0  0  0  0  0  0  0
   25.9534  -20.9477  -11.5314 C   0  0  1  0  0  0  0  0  0  0  0  0
   26.3329  -21.7891  -10.3244 C   0  0  0  0  0  0  0  0  0  0  0  0
   26.6309  -20.8770   -9.1938 C   0  0  0  0  0  0  0  0  0  0  0  0
   25.7085  -20.0674   -8.5651 C   0  0  0  0  0  0  0  0  0  0  0  0
   26.3629  -19.3957   -7.6064 N   0  0  0  0  0  0  0  0  0  0  0  0
   27.6662  -19.7408   -7.5943 C   0  0  0  0  0  0  0  0  0  0  0  0
   28.7252  -19.3234   -6.7991 C   0  0  0  0  0  0  0  0  0  0  0  0
   29.9631  -19.8734   -7.0385 C   0  0  0  0  0  0  0  0  0  0  0  0
   30.1556  -20.8083   -8.0325 C   0  0  0  0  0  0  0  0  0  0  0  0
   29.0999  -21.2181   -8.8186 C   0  0  0  0  0  0  0  0  0  0  0  0
   27.8347  -20.6667   -8.5862 C   0  0  0  0  0  0  0  0  0  0  0  0
   27.0970  -20.1489  -12.0215 C   0  0  0  0  0  0  0  0  0  0  0  0
   27.9987  -20.7001  -12.6896 O   0  0  0  0  0  0  0  0  0  0  0  0
   27.1947  -18.7969  -11.7578 O   0  0  0  0  0  0  0  0  0  0  0  0
  1  2  1  0
  3  4  2  0
  3  2  1  0
  5  3  1  0
  6  5  1  0
  6  7  1  6
  8  7  1  0
  9 13  1  0
  9  8  1  0
 10  9  2  0
 11  6  1  0
 11 12  2  0
 14 11  1  0
 15 14  1  0
 15 16  1  1
 17 16  1  0
 17 25  1  0
 18 19  1  0
 18 17  2  0
 19 20  1  0
 20 25  2  0
 20 21  1  0
 21 22  2  0
 22 23  1  0
 24 23  2  0
 25 24  1  0
 26 15  1  0
 26 28  1  0
 27 26  2  0
M  END
$$$$
