GEW.pdb
     RDKit          3D

 28 29  0  0  1  0  0  0  0  0999 V2000
   35.6256  -36.5591   -3.3187 N   0  0  0  0  0  0  0  0  0  0  0  0
   34.3547  -36.0769   -2.7733 C   0  0  0  0  0  0  0  0  0  0  0  0
   33.2114  -36.6615   -3.4840 C   0  0  0  0  0  0  0  0  0  0  0  0
   33.3602  -37.1698   -4.6266 O   0  0  0  0  0  0  0  0  0  0  0  0
   31.9175  -36.6525   -2.8716 N   0  0  0  0  0  0  0  0  0  0  0  0
   30.8059  -37.2576   -3.5009 C   0  0  1  0  0  0  0  0  0  0  0  0
   29.8971  -38.1184   -2.7163 C   0  0  0  0  0  0  0  0  0  0  0  0
   28.7828  -38.8020   -3.3979 C   0  0  0  0  0  0  0  0  0  0  0  0
   27.4574  -38.3473   -2.9999 C   0  0  0  0  0  0  0  0  0  0  0  0
   26.4806  -38.1081   -3.7161 O   0  0  0  0  0  0  0  0  0  0  0  0
   29.9537  -36.1481   -4.0758 C   0  0  0  0  0  0  0  0  0  0  0  0
   29.5351  -35.2327   -3.2985 O   0  0  0  0  0  0  0  0  0  0  0  0
   27.2505  -38.1498   -1.6122 O   0  0  0  0  0  0  0  0  0  0  0  0
   29.5987  -36.0770   -5.4379 N   0  0  0  0  0  0  0  0  0  0  0  0
   28.6411  -35.0808   -5.8724 C   0  0  1  0  0  0  0  0  0  0  0  0
   29.2781  -34.1052   -6.8476 C   0  0  0  0  0  0  0  0  0  0  0  0
   28.1964  -33.3810   -7.5579 C   0  0  0  0  0  0  0  0  0  0  0  0
   28.0740  -33.2862   -8.9282 C   0  0  0  0  0  0  0  0  0  0  0  0
   26.9807  -32.5503   -9.1759 N   0  0  0  0  0  0  0  0  0  0  0  0
   26.3971  -32.1693   -8.0217 C   0  0  0  0  0  0  0  0  0  0  0  0
   25.2631  -31.4097   -7.7666 C   0  0  0  0  0  0  0  0  0  0  0  0
   24.9195  -31.1909   -6.4527 C   0  0  0  0  0  0  0  0  0  0  0  0
   25.6699  -31.7046   -5.4172 C   0  0  0  0  0  0  0  0  0  0  0  0
   26.7948  -32.4577   -5.6775 C   0  0  0  0  0  0  0  0  0  0  0  0
   27.1562  -32.6881   -7.0098 C   0  0  0  0  0  0  0  0  0  0  0  0
   27.4615  -35.7500   -6.4616 C   0  0  0  0  0  0  0  0  0  0  0  0
   27.6204  -36.6906   -7.2698 O   0  0  0  0  0  0  0  0  0  0  0  0
   26.1773  -35.3589   -6.1382 O   0  0  0  0  0  0  0  0  0  0  0  0
  1  2  1  0
  3  4  2  0
  3  2  1  0
  5  3  1  0
  6  5  1  0
  6  7  1  1
  8  7  1  0
  9 13  1  0
  9  8  1  0
 10  9  2  0
 11  6  1  0
 11 12  2  0
 14 11  1  0
 15 14  1  0
 15 16  1  6
 17 16  1  0
 17 25  1  0
 18 19  1  0
 18 17  2  0
 19 20  1  0
 20 25  2  0
 20 21  1  0
 21 22  2  0
 22 23  1  0
 24 23  2  0
 25 24  1  0
 26 15  1  0
 26 28  1  0
 27 26  2  0
M  END
$$$$
