GEW.pdb
     RDKit          3D

 28 29  0  0  1  0  0  0  0  0999 V2000
   22.5752  -23.5429  -15.5669 N   0  0  0  0  0  0  0  0  0  0  0  0
   22.0179  -22.9812  -14.3345 C   0  0  0  0  0  0  0  0  0  0  0  0
   20.8294  -23.7233  -13.8979 C   0  0  0  0  0  0  0  0  0  0  0  0
   20.3574  -24.6504  -14.6077 O   0  0  0  0  0  0  0  0  0  0  0  0
   20.2031  -23.3889  -12.6548 N   0  0  0  0  0  0  0  0  0  0  0  0
   19.0921  -24.1194  -12.1754 C   0  0  1  0  0  0  0  0  0  0  0  0
   18.9637  -24.3952  -10.7298 C   0  0  0  0  0  0  0  0  0  0  0  0
   17.8463  -25.2289  -10.2504 C   0  0  0  0  0  0  0  0  0  0  0  0
   17.8720  -25.5158   -8.8226 C   0  0  0  0  0  0  0  0  0  0  0  0
   17.0431  -26.1350   -8.1487 O   0  0  0  0  0  0  0  0  0  0  0  0
   17.8463  -23.3624  -12.5786 C   0  0  0  0  0  0  0  0  0  0  0  0
   17.7006  -22.1650  -12.1757 O   0  0  0  0  0  0  0  0  0  0  0  0
   18.9889  -25.0247   -8.1022 O   0  0  0  0  0  0  0  0  0  0  0  0
   16.8330  -23.9205  -13.3836 N   0  0  0  0  0  0  0  0  0  0  0  0
   15.7017  -23.1033  -13.7715 C   0  0  1  0  0  0  0  0  0  0  0  0
   15.5159  -23.1149  -15.2795 C   0  0  0  0  0  0  0  0  0  0  0  0
   16.5854  -22.2875  -15.8885 C   0  0  0  0  0  0  0  0  0  0  0  0
   17.8754  -22.7119  -16.1282 C   0  0  0  0  0  0  0  0  0  0  0  0
   18.5336  -21.6804  -16.6768 N   0  0  0  0  0  0  0  0  0  0  0  0
   17.7197  -20.6125  -16.7988 C   0  0  0  0  0  0  0  0  0  0  0  0
   17.9390  -19.3360  -17.2992 C   0  0  0  0  0  0  0  0  0  0  0  0
   16.8852  -18.4519  -17.2866 C   0  0  0  0  0  0  0  0  0  0  0  0
   15.6490  -18.8123  -16.7954 C   0  0  0  0  0  0  0  0  0  0  0  0
   15.4382  -20.0812  -16.2997 C   0  0  0  0  0  0  0  0  0  0  0  0
   16.5016  -20.9910  -16.3064 C   0  0  0  0  0  0  0  0  0  0  0  0
   14.4878  -23.5704  -13.0682 C   0  0  0  0  0  0  0  0  0  0  0  0
   14.5267  -24.6227  -12.3941 O   0  0  0  0  0  0  0  0  0  0  0  0
   13.3016  -22.8669  -13.1376 O   0  0  0  0  0  0  0  0  0  0  0  0
  1  2  1  0
  3  4  2  0
  3  2  1  0
  5  3  1  0
  6  5  1  0
  6  7  1  1
  8  7  1  0
  9 13  1  0
  9  8  1  0
 10  9  2  0
 11  6  1  0
 11 12  2  0
 14 11  1  0
 15 14  1  0
 15 16  1  6
 17 16  1  0
 17 25  1  0
 18 19  1  0
 18 17  2  0
 19 20  1  0
 20 25  2  0
 20 21  1  0
 21 22  2  0
 22 23  1  0
 24 23  2  0
 25 24  1  0
 26 15  1  0
 26 28  1  0
 27 26  2  0
M  END
$$$$
