GEW.pdb
     RDKit          3D

 28 29  0  0  1  0  0  0  0  0999 V2000
   28.6778  -17.1242  -16.7065 N   0  0  0  0  0  0  0  0  0  0  0  0
   28.7948  -18.2199  -15.7417 C   0  0  0  0  0  0  0  0  0  0  0  0
   27.6691  -18.2261  -14.8002 C   0  0  0  0  0  0  0  0  0  0  0  0
   27.2010  -17.1449  -14.3553 O   0  0  0  0  0  0  0  0  0  0  0  0
   27.1001  -19.4725  -14.3852 N   0  0  0  0  0  0  0  0  0  0  0  0
   25.9271  -19.5153  -13.5978 C   0  0  1  0  0  0  0  0  0  0  0  0
   24.6905  -20.1014  -14.1545 C   0  0  0  0  0  0  0  0  0  0  0  0
   23.4638  -20.1092  -13.3369 C   0  0  0  0  0  0  0  0  0  0  0  0
   22.3070  -20.7135  -13.9839 C   0  0  0  0  0  0  0  0  0  0  0  0
   21.7532  -20.3785  -15.0353 O   0  0  0  0  0  0  0  0  0  0  0  0
   26.2503  -20.3055  -12.3493 C   0  0  0  0  0  0  0  0  0  0  0  0
   27.0053  -21.3241  -12.4482 O   0  0  0  0  0  0  0  0  0  0  0  0
   21.7336  -21.8321  -13.3302 O   0  0  0  0  0  0  0  0  0  0  0  0
   25.7544  -19.9673  -11.0741 N   0  0  0  0  0  0  0  0  0  0  0  0
   26.1137  -20.7824   -9.9320 C   0  0  1  0  0  0  0  0  0  0  0  0
   27.3026  -20.1891   -9.1949 C   0  0  0  0  0  0  0  0  0  0  0  0
   27.1401  -20.4653   -7.7470 C   0  0  0  0  0  0  0  0  0  0  0  0
   26.2079  -21.3246   -7.2043 C   0  0  0  0  0  0  0  0  0  0  0  0
   26.3734  -21.2956   -5.8739 N   0  0  0  0  0  0  0  0  0  0  0  0
   27.3724  -20.4538   -5.5409 C   0  0  0  0  0  0  0  0  0  0  0  0
   27.9061  -20.0940   -4.3105 C   0  0  0  0  0  0  0  0  0  0  0  0
   28.9434  -19.1906   -4.3003 C   0  0  0  0  0  0  0  0  0  0  0  0
   29.4429  -18.6548   -5.4676 C   0  0  0  0  0  0  0  0  0  0  0  0
   28.9082  -19.0160   -6.6858 C   0  0  0  0  0  0  0  0  0  0  0  0
   27.8524  -19.9343   -6.7110 C   0  0  0  0  0  0  0  0  0  0  0  0
   24.9417  -20.9361   -9.0436 C   0  0  0  0  0  0  0  0  0  0  0  0
   25.0128  -21.6864   -8.0459 O   0  0  0  0  0  0  0  0  0  0  0  0
   23.7602  -20.2652   -9.2901 O   0  0  0  0  0  0  0  0  0  0  0  0
  1  2  1  0
  3  4  2  0
  3  2  1  0
  5  3  1  0
  6  5  1  0
  6  7  1  6
  8  7  1  0
  9 13  1  0
  9  8  1  0
 10  9  2  0
 11  6  1  0
 11 12  2  0
 14 11  1  0
 15 14  1  0
 15 16  1  1
 17 16  1  0
 17 25  1  0
 18 19  1  0
 18 17  2  0
 19 20  1  0
 20 25  2  0
 20 21  1  0
 21 22  2  0
 22 23  1  0
 24 23  2  0
 25 24  1  0
 26 15  1  0
 26 28  1  0
 27 26  2  0
M  END
$$$$
