GEW.pdb
     RDKit          3D

 28 29  0  0  1  0  0  0  0  0999 V2000
   29.6247  -22.7731  -15.8169 N   0  0  0  0  0  0  0  0  0  0  0  0
   28.2467  -22.2782  -15.8511 C   0  0  0  0  0  0  0  0  0  0  0  0
   27.9471  -21.4480  -14.6786 C   0  0  0  0  0  0  0  0  0  0  0  0
   28.8617  -21.1167  -13.8786 O   0  0  0  0  0  0  0  0  0  0  0  0
   26.6037  -21.0126  -14.4441 N   0  0  0  0  0  0  0  0  0  0  0  0
   26.3010  -20.0979  -13.4099 C   0  0  1  0  0  0  0  0  0  0  0  0
   25.1872  -19.1421  -13.5783 C   0  0  0  0  0  0  0  0  0  0  0  0
   25.3130  -18.0536  -14.5647 C   0  0  0  0  0  0  0  0  0  0  0  0
   24.1451  -17.1892  -14.6669 C   0  0  0  0  0  0  0  0  0  0  0  0
   23.0494  -17.3100  -14.1108 O   0  0  0  0  0  0  0  0  0  0  0  0
   25.9873  -20.9059  -12.1704 C   0  0  0  0  0  0  0  0  0  0  0  0
   25.1988  -21.8987  -12.2705 O   0  0  0  0  0  0  0  0  0  0  0  0
   24.2707  -16.0594  -15.5125 O   0  0  0  0  0  0  0  0  0  0  0  0
   26.5285  -20.6125  -10.9025 N   0  0  0  0  0  0  0  0  0  0  0  0
   26.2269  -21.4797   -9.7822 C   0  0  1  0  0  0  0  0  0  0  0  0
   27.4468  -21.6641   -8.8954 C   0  0  0  0  0  0  0  0  0  0  0  0
   27.5525  -20.4901   -7.9957 C   0  0  0  0  0  0  0  0  0  0  0  0
   26.9436  -19.2714   -8.2091 C   0  0  0  0  0  0  0  0  0  0  0  0
   27.2842  -18.4763   -7.1844 N   0  0  0  0  0  0  0  0  0  0  0  0
   28.0860  -19.1342   -6.3230 C   0  0  0  0  0  0  0  0  0  0  0  0
   28.6870  -18.7398   -5.1350 C   0  0  0  0  0  0  0  0  0  0  0  0
   29.4650  -19.6609   -4.4727 C   0  0  0  0  0  0  0  0  0  0  0  0
   29.6479  -20.9352   -4.9645 C   0  0  0  0  0  0  0  0  0  0  0  0
   29.0486  -21.3201   -6.1448 C   0  0  0  0  0  0  0  0  0  0  0  0
   28.2542  -20.3931   -6.8292 C   0  0  0  0  0  0  0  0  0  0  0  0
   25.0799  -20.9329   -9.0262 C   0  0  0  0  0  0  0  0  0  0  0  0
   24.6116  -21.5726   -8.0594 O   0  0  0  0  0  0  0  0  0  0  0  0
   24.5081  -19.7222   -9.3639 O   0  0  0  0  0  0  0  0  0  0  0  0
  1  2  1  0
  3  4  2  0
  3  2  1  0
  5  3  1  0
  6  5  1  0
  6  7  1  6
  8  7  1  0
  9 13  1  0
  9  8  1  0
 10  9  2  0
 11  6  1  0
 11 12  2  0
 14 11  1  0
 15 14  1  0
 15 16  1  1
 17 16  1  0
 17 25  1  0
 18 19  1  0
 18 17  2  0
 19 20  1  0
 20 25  2  0
 20 21  1  0
 21 22  2  0
 22 23  1  0
 24 23  2  0
 25 24  1  0
 26 15  1  0
 26 28  1  0
 27 26  2  0
M  END
$$$$
