GEW.pdb
     RDKit          3D

 28 29  0  0  1  0  0  0  0  0999 V2000
   22.5422   -6.3280  -20.2771 N   0  0  0  0  0  0  0  0  0  0  0  0
   21.8519   -7.6118  -20.4193 C   0  0  0  0  0  0  0  0  0  0  0  0
   21.4899   -8.1723  -19.1121 C   0  0  0  0  0  0  0  0  0  0  0  0
   22.3076   -8.8861  -18.4734 O   0  0  0  0  0  0  0  0  0  0  0  0
   20.1963   -7.9044  -18.5606 N   0  0  0  0  0  0  0  0  0  0  0  0
   19.7933   -8.4723  -17.3307 C   0  0  1  0  0  0  0  0  0  0  0  0
   18.7629   -7.7988  -16.5139 C   0  0  0  0  0  0  0  0  0  0  0  0
   19.0609   -6.4843  -15.9165 C   0  0  0  0  0  0  0  0  0  0  0  0
   17.9087   -5.8042  -15.3405 C   0  0  0  0  0  0  0  0  0  0  0  0
   17.8638   -4.6970  -14.7960 O   0  0  0  0  0  0  0  0  0  0  0  0
   19.2662   -9.8591  -17.6253 C   0  0  0  0  0  0  0  0  0  0  0  0
   18.7911  -10.1006  -18.7800 O   0  0  0  0  0  0  0  0  0  0  0  0
   16.6728   -6.4939  -15.4074 O   0  0  0  0  0  0  0  0  0  0  0  0
   19.2757  -10.9035  -16.6789 N   0  0  0  0  0  0  0  0  0  0  0  0
   18.7855  -12.2124  -17.0591 C   0  0  1  0  0  0  0  0  0  0  0  0
   19.4336  -13.2995  -16.2184 C   0  0  0  0  0  0  0  0  0  0  0  0
   19.0952  -14.6149  -16.8135 C   0  0  0  0  0  0  0  0  0  0  0  0
   19.8358  -15.2605  -17.7812 C   0  0  0  0  0  0  0  0  0  0  0  0
   19.2030  -16.4095  -18.0600 N   0  0  0  0  0  0  0  0  0  0  0  0
   18.0878  -16.5275  -17.3116 C   0  0  0  0  0  0  0  0  0  0  0  0
   17.1212  -17.5221  -17.2443 C   0  0  0  0  0  0  0  0  0  0  0  0
   16.0809  -17.3474  -16.3613 C   0  0  0  0  0  0  0  0  0  0  0  0
   15.9925  -16.2255  -15.5659 C   0  0  0  0  0  0  0  0  0  0  0  0
   16.9554  -15.2416  -15.6380 C   0  0  0  0  0  0  0  0  0  0  0  0
   18.0195  -15.4063  -16.5321 C   0  0  0  0  0  0  0  0  0  0  0  0
   17.3114  -12.2419  -16.9477 C   0  0  0  0  0  0  0  0  0  0  0  0
   16.7516  -11.7020  -15.9688 O   0  0  0  0  0  0  0  0  0  0  0  0
   16.5304  -12.8560  -17.9068 O   0  0  0  0  0  0  0  0  0  0  0  0
  1  2  1  0
  3  4  2  0
  3  2  1  0
  5  3  1  0
  6  5  1  0
  6  7  1  6
  8  7  1  0
  9 13  1  0
  9  8  1  0
 10  9  2  0
 11  6  1  0
 11 12  2  0
 14 11  1  0
 15 14  1  0
 15 16  1  1
 17 16  1  0
 17 25  1  0
 18 19  1  0
 18 17  2  0
 19 20  1  0
 20 25  2  0
 20 21  1  0
 21 22  2  0
 22 23  1  0
 24 23  2  0
 25 24  1  0
 26 15  1  0
 26 28  1  0
 27 26  2  0
M  END
$$$$
