DDM.pdb
     RDKit          3D

 25 24  0  0  1  0  0  0  0  0999 V2000
   19.1929  -24.0827  -13.4982 N   0  0  0  0  0  0  0  0  0  0  0  0
   19.4182  -22.7351  -13.0534 C   0  0  1  0  0  0  0  0  0  0  0  0
   19.1067  -21.7410  -14.1550 C   0  0  0  0  0  0  0  0  0  0  0  0
   19.7407  -22.1425  -15.4227 C   0  0  0  0  0  0  0  0  0  0  0  0
   20.2151  -21.2780  -16.1836 O   0  0  0  0  0  0  0  0  0  0  0  0
   18.7405  -22.4285  -11.7923 C   0  0  0  0  0  0  0  0  0  0  0  0
   18.4883  -21.2395  -11.4711 O   0  0  0  0  0  0  0  0  0  0  0  0
   19.8067  -23.4754  -15.7624 O   0  0  0  0  0  0  0  0  0  0  0  0
   18.3264  -23.4335  -10.8564 N   0  0  0  0  0  0  0  0  0  0  0  0
   17.5699  -23.1800   -9.6725 C   0  0  1  0  0  0  0  0  0  0  0  0
   16.2714  -22.4866  -10.0677 C   0  0  0  0  0  0  0  0  0  0  0  0
   15.3176  -22.4501   -8.9390 C   0  0  0  0  0  0  0  0  0  0  0  0
   14.5772  -23.4168   -8.6378 O   0  0  0  0  0  0  0  0  0  0  0  0
   17.3031  -24.4393   -8.9407 C   0  0  0  0  0  0  0  0  0  0  0  0
   16.9901  -25.5156   -9.5141 O   0  0  0  0  0  0  0  0  0  0  0  0
   15.2554  -21.2795   -8.1905 O   0  0  0  0  0  0  0  0  0  0  0  0
   17.7891  -28.0099   -1.8303 C   0  0  0  0  0  0  0  0  0  0  0  0
   18.1046  -26.5865   -2.8824 S   0  0  0  0  0  0  0  0  0  0  0  0
   17.3206  -26.7898   -4.5057 C   0  0  0  0  0  0  0  0  0  0  0  0
   17.5789  -25.5473   -5.3183 C   0  0  0  0  0  0  0  0  0  0  0  0
   17.1217  -25.6943   -6.7515 C   0  0  2  0  0  0  0  0  0  0  0  0
   17.3888  -24.4999   -7.5187 N   0  0  0  0  0  0  0  0  0  0  0  0
   15.7535  -26.1823   -6.8754 C   0  0  0  0  0  0  0  0  0  0  0  0
   14.7979  -25.3904   -6.8188 O   0  0  0  0  0  0  0  0  0  0  0  0
   15.5004  -27.5191   -7.0561 O   0  0  0  0  0  0  0  0  0  0  0  0
  2  3  1  0
  2  1  1  6
  3  4  1  0
  4  8  1  0
  5  4  2  0
  6  7  2  0
  6  2  1  0
  9  6  1  0
 10 14  1  0
 10  9  1  0
 10 11  1  6
 12 11  1  0
 12 16  1  0
 13 12  2  0
 14 22  1  0
 15 14  2  0
 18 19  1  0
 18 17  1  0
 21 20  1  1
 20 19  1  0
 22 21  1  0
 23 21  1  0
 23 25  1  0
 24 23  2  0
M  END
$$$$
