DDM.pdb
     RDKit          3D

 25 24  0  0  1  0  0  0  0  0999 V2000
   16.2642   -9.8714  -16.7281 N   0  0  0  0  0  0  0  0  0  0  0  0
   16.7146  -10.7793  -15.7095 C   0  0  1  0  0  0  0  0  0  0  0  0
   16.5076  -12.2194  -16.1364 C   0  0  0  0  0  0  0  0  0  0  0  0
   15.1688  -12.4090  -16.7212 C   0  0  0  0  0  0  0  0  0  0  0  0
   14.9855  -12.2084  -17.9368 O   0  0  0  0  0  0  0  0  0  0  0  0
   18.0801  -10.5025  -15.2599 C   0  0  0  0  0  0  0  0  0  0  0  0
   18.7031  -11.3317  -14.5495 O   0  0  0  0  0  0  0  0  0  0  0  0
   14.1225  -12.8085  -15.9199 O   0  0  0  0  0  0  0  0  0  0  0  0
   18.7879   -9.2986  -15.5872 N   0  0  0  0  0  0  0  0  0  0  0  0
   20.1518   -9.0407  -15.2534 C   0  0  1  0  0  0  0  0  0  0  0  0
   21.0165  -10.1301  -15.8770 C   0  0  0  0  0  0  0  0  0  0  0  0
   22.4447   -9.9341  -15.5503 C   0  0  0  0  0  0  0  0  0  0  0  0
   22.8503   -9.0477  -14.7609 O   0  0  0  0  0  0  0  0  0  0  0  0
   20.5619   -7.6976  -15.7226 C   0  0  0  0  0  0  0  0  0  0  0  0
   20.2679   -7.2465  -16.8607 O   0  0  0  0  0  0  0  0  0  0  0  0
   23.3632  -10.7831  -16.1584 O   0  0  0  0  0  0  0  0  0  0  0  0
   19.7964   -0.9447  -17.7004 C   0  0  0  0  0  0  0  0  0  0  0  0
   19.4202   -2.5976  -17.1013 S   0  0  0  0  0  0  0  0  0  0  0  0
   20.8605   -3.3372  -16.2828 C   0  0  0  0  0  0  0  0  0  0  0  0
   20.5085   -4.7464  -15.8812 C   0  0  0  0  0  0  0  0  0  0  0  0
   21.6785   -5.4748  -15.2608 C   0  0  2  0  0  0  0  0  0  0  0  0
   21.3269   -6.8266  -14.8925 N   0  0  0  0  0  0  0  0  0  0  0  0
   22.3294   -4.7226  -14.1949 C   0  0  0  0  0  0  0  0  0  0  0  0
   23.1576   -3.8376  -14.4676 O   0  0  0  0  0  0  0  0  0  0  0  0
   22.0385   -4.9791  -12.8782 O   0  0  0  0  0  0  0  0  0  0  0  0
  2  3  1  0
  2  1  1  6
  3  4  1  0
  4  8  1  0
  5  4  2  0
  6  7  2  0
  6  2  1  0
  9  6  1  0
 10 14  1  0
 10  9  1  0
 10 11  1  6
 12 11  1  0
 12 16  1  0
 13 12  2  0
 14 22  1  0
 15 14  2  0
 18 19  1  0
 18 17  1  0
 21 20  1  1
 20 19  1  0
 22 21  1  0
 23 21  1  0
 23 25  1  0
 24 23  2  0
M  END
$$$$
