DDM.pdb
     RDKit          3D

 25 24  0  0  1  0  0  0  0  0999 V2000
   17.7985  -12.9657  -17.1807 N   0  0  0  0  0  0  0  0  0  0  0  0
   17.3011  -11.8245  -16.4631 C   0  0  1  0  0  0  0  0  0  0  0  0
   17.0827  -12.1569  -14.9999 C   0  0  0  0  0  0  0  0  0  0  0  0
   16.0866  -13.2313  -14.8460 C   0  0  0  0  0  0  0  0  0  0  0  0
   15.4201  -13.6088  -15.8282 O   0  0  0  0  0  0  0  0  0  0  0  0
   18.1129  -10.6231  -16.6659 C   0  0  0  0  0  0  0  0  0  0  0  0
   19.3166  -10.7129  -17.0171 O   0  0  0  0  0  0  0  0  0  0  0  0
   15.8957  -13.8158  -13.6138 O   0  0  0  0  0  0  0  0  0  0  0  0
   17.6090   -9.2925  -16.4837 N   0  0  0  0  0  0  0  0  0  0  0  0
   18.3665   -8.1005  -16.6922 C   0  0  1  0  0  0  0  0  0  0  0  0
   17.4220   -6.9070  -16.6101 C   0  0  0  0  0  0  0  0  0  0  0  0
   18.1337   -5.6400  -16.8813 C   0  0  0  0  0  0  0  0  0  0  0  0
   17.7947   -4.5434  -16.3753 O   0  0  0  0  0  0  0  0  0  0  0  0
   19.4562   -7.9904  -15.6959 C   0  0  0  0  0  0  0  0  0  0  0  0
   19.2807   -8.1657  -14.4615 O   0  0  0  0  0  0  0  0  0  0  0  0
   19.2263   -5.6903  -17.7403 O   0  0  0  0  0  0  0  0  0  0  0  0
   26.7414  -10.1201  -14.2435 C   0  0  0  0  0  0  0  0  0  0  0  0
   25.3960   -9.8366  -15.4021 S   0  0  0  0  0  0  0  0  0  0  0  0
   24.1259   -8.7642  -14.6755 C   0  0  0  0  0  0  0  0  0  0  0  0
   22.9514   -8.7109  -15.6182 C   0  0  0  0  0  0  0  0  0  0  0  0
   21.9173   -7.6957  -15.1888 C   0  0  2  0  0  0  0  0  0  0  0  0
   20.7891   -7.6735  -16.0907 N   0  0  0  0  0  0  0  0  0  0  0  0
   22.4787   -6.3788  -14.9126 C   0  0  0  0  0  0  0  0  0  0  0  0
   22.4079   -5.4761  -15.7633 O   0  0  0  0  0  0  0  0  0  0  0  0
   23.0919   -6.1165  -13.7130 O   0  0  0  0  0  0  0  0  0  0  0  0
  2  3  1  0
  2  1  1  6
  3  4  1  0
  4  8  1  0
  5  4  2  0
  6  7  2  0
  6  2  1  0
  9  6  1  0
 10 14  1  0
 10  9  1  0
 10 11  1  1
 12 11  1  0
 12 16  1  0
 13 12  2  0
 14 22  1  0
 15 14  2  0
 18 19  1  0
 18 17  1  0
 21 20  1  6
 20 19  1  0
 22 21  1  0
 23 21  1  0
 23 25  1  0
 24 23  2  0
M  END
$$$$
