DDM.pdb
     RDKit          3D

 25 24  0  0  1  0  0  0  0  0999 V2000
   27.9618  -10.9263  -18.9266 N   0  0  0  0  0  0  0  0  0  0  0  0
   29.3266  -11.3394  -19.1032 C   0  0  1  0  0  0  0  0  0  0  0  0
   29.5151  -12.0328  -20.4383 C   0  0  0  0  0  0  0  0  0  0  0  0
   28.6433  -13.2154  -20.5462 C   0  0  0  0  0  0  0  0  0  0  0  0
   28.8104  -14.1849  -19.7822 O   0  0  0  0  0  0  0  0  0  0  0  0
   30.2857  -10.2568  -18.8759 C   0  0  0  0  0  0  0  0  0  0  0  0
   31.5204  -10.4545  -19.0060 O   0  0  0  0  0  0  0  0  0  0  0  0
   27.6442  -13.2447  -21.4936 O   0  0  0  0  0  0  0  0  0  0  0  0
   29.8984   -8.9282  -18.4984 N   0  0  0  0  0  0  0  0  0  0  0  0
   30.7987   -7.8305  -18.3482 C   0  0  1  0  0  0  0  0  0  0  0  0
   29.9910   -6.5379  -18.3585 C   0  0  0  0  0  0  0  0  0  0  0  0
   29.4195   -6.2731  -19.6958 C   0  0  0  0  0  0  0  0  0  0  0  0
   30.0066   -6.5749  -20.7624 O   0  0  0  0  0  0  0  0  0  0  0  0
   31.5826   -7.9621  -17.0990 C   0  0  0  0  0  0  0  0  0  0  0  0
   31.0652   -8.2559  -15.9894 O   0  0  0  0  0  0  0  0  0  0  0  0
   28.1723   -5.6600  -19.7493 O   0  0  0  0  0  0  0  0  0  0  0  0
   37.6243  -11.0877  -13.5767 C   0  0  0  0  0  0  0  0  0  0  0  0
   36.5853  -10.7875  -15.0131 S   0  0  0  0  0  0  0  0  0  0  0  0
   35.5049   -9.3546  -14.7475 C   0  0  0  0  0  0  0  0  0  0  0  0
   34.6369   -9.1800  -15.9669 C   0  0  0  0  0  0  0  0  0  0  0  0
   33.8145   -7.9133  -15.9087 C   0  0  2  0  0  0  0  0  0  0  0  0
   32.9938   -7.7588  -17.0873 N   0  0  0  0  0  0  0  0  0  0  0  0
   34.5976   -6.7296  -15.5749 C   0  0  0  0  0  0  0  0  0  0  0  0
   34.8867   -5.9007  -16.4540 O   0  0  0  0  0  0  0  0  0  0  0  0
   35.0261   -6.5130  -14.2890 O   0  0  0  0  0  0  0  0  0  0  0  0
  2  3  1  0
  2  1  1  6
  3  4  1  0
  4  8  1  0
  5  4  2  0
  6  7  2  0
  6  2  1  0
  9  6  1  0
 10 14  1  0
 10  9  1  0
 10 11  1  1
 12 11  1  0
 12 16  1  0
 13 12  2  0
 14 22  1  0
 15 14  2  0
 18 19  1  0
 18 17  1  0
 21 20  1  6
 20 19  1  0
 22 21  1  0
 23 21  1  0
 23 25  1  0
 24 23  2  0
M  END
$$$$
