DDM.pdb
     RDKit          3D

 25 24  0  0  1  0  0  0  0  0999 V2000
   15.1394  -13.4034  -13.8575 N   0  0  0  0  0  0  0  0  0  0  0  0
   14.5331  -12.1341  -13.5646 C   0  0  1  0  0  0  0  0  0  0  0  0
   13.1753  -12.3183  -12.9154 C   0  0  0  0  0  0  0  0  0  0  0  0
   12.2892  -13.1305  -13.7672 C   0  0  0  0  0  0  0  0  0  0  0  0
   11.6615  -14.0889  -13.2783 O   0  0  0  0  0  0  0  0  0  0  0  0
   15.4146  -11.2393  -12.8123 C   0  0  0  0  0  0  0  0  0  0  0  0
   15.7187  -11.4913  -11.6188 O   0  0  0  0  0  0  0  0  0  0  0  0
   12.1577  -12.8262  -15.1038 O   0  0  0  0  0  0  0  0  0  0  0  0
   15.9800  -10.0428  -13.3657 N   0  0  0  0  0  0  0  0  0  0  0  0
   16.8757   -9.1717  -12.6750 C   0  0  1  0  0  0  0  0  0  0  0  0
   17.7833   -8.5005  -13.6992 C   0  0  0  0  0  0  0  0  0  0  0  0
   18.7352   -7.5757  -13.0481 C   0  0  0  0  0  0  0  0  0  0  0  0
   19.1437   -7.7310  -11.8723 O   0  0  0  0  0  0  0  0  0  0  0  0
   16.1266   -8.1685  -11.8845 C   0  0  0  0  0  0  0  0  0  0  0  0
   15.2748   -7.3908  -12.3893 O   0  0  0  0  0  0  0  0  0  0  0  0
   19.1847   -6.4904  -13.7925 O   0  0  0  0  0  0  0  0  0  0  0  0
   12.1935   -8.7135   -7.7208 C   0  0  0  0  0  0  0  0  0  0  0  0
   12.5460   -7.0409   -7.1634 S   0  0  0  0  0  0  0  0  0  0  0  0
   14.0807   -6.4176   -7.9031 C   0  0  0  0  0  0  0  0  0  0  0  0
   14.6523   -7.4927   -8.7910 C   0  0  0  0  0  0  0  0  0  0  0  0
   15.7519   -6.9714   -9.6875 C   0  0  2  0  0  0  0  0  0  0  0  0
   16.3352   -8.0280  -10.4811 N   0  0  0  0  0  0  0  0  0  0  0  0
   16.7312   -6.1509   -8.9850 C   0  0  0  0  0  0  0  0  0  0  0  0
   17.9037   -6.5424   -8.8610 O   0  0  0  0  0  0  0  0  0  0  0  0
   16.3747   -4.9374   -8.4518 O   0  0  0  0  0  0  0  0  0  0  0  0
  2  3  1  0
  2  1  1  1
  3  4  1  0
  4  8  1  0
  5  4  2  0
  6  7  2  0
  6  2  1  0
  9  6  1  0
 10 14  1  0
 10  9  1  0
 10 11  1  6
 12 11  1  0
 12 16  1  0
 13 12  2  0
 14 22  1  0
 15 14  2  0
 18 19  1  0
 18 17  1  0
 21 20  1  1
 20 19  1  0
 22 21  1  0
 23 21  1  0
 23 25  1  0
 24 23  2  0
M  END
$$$$
