DDM.pdb
     RDKit          3D

 25 24  0  0  1  0  0  0  0  0999 V2000
   33.5365   -8.6842  -23.2369 N   0  0  0  0  0  0  0  0  0  0  0  0
   34.2157   -7.8031  -22.3275 C   0  0  1  0  0  0  0  0  0  0  0  0
   34.8961   -6.6724  -23.0741 C   0  0  0  0  0  0  0  0  0  0  0  0
   36.0468   -7.1688  -23.8486 C   0  0  0  0  0  0  0  0  0  0  0  0
   36.6892   -8.1572  -23.4464 O   0  0  0  0  0  0  0  0  0  0  0  0
   33.3594   -7.3385  -21.2346 C   0  0  0  0  0  0  0  0  0  0  0  0
   32.7382   -6.2493  -21.3238 O   0  0  0  0  0  0  0  0  0  0  0  0
   36.4086   -6.5368  -25.0174 O   0  0  0  0  0  0  0  0  0  0  0  0
   33.1717   -8.0710  -20.0157 N   0  0  0  0  0  0  0  0  0  0  0  0
   32.2567   -7.7081  -18.9816 C   0  0  1  0  0  0  0  0  0  0  0  0
   31.5474   -8.9682  -18.4996 C   0  0  0  0  0  0  0  0  0  0  0  0
   30.5395   -8.6540  -17.4649 C   0  0  0  0  0  0  0  0  0  0  0  0
   30.3285   -7.4903  -17.0468 O   0  0  0  0  0  0  0  0  0  0  0  0
   32.9631   -7.0327  -17.8693 C   0  0  0  0  0  0  0  0  0  0  0  0
   34.0001   -7.4989  -17.3285 O   0  0  0  0  0  0  0  0  0  0  0  0
   29.8032   -9.7133  -16.9453 O   0  0  0  0  0  0  0  0  0  0  0  0
   31.0834   -1.0533  -15.3035 C   0  0  0  0  0  0  0  0  0  0  0  0
   32.8810   -1.0821  -15.3249 S   0  0  0  0  0  0  0  0  0  0  0  0
   33.5058   -2.7847  -15.2789 C   0  0  0  0  0  0  0  0  0  0  0  0
   32.7584   -3.5942  -16.3071 C   0  0  0  0  0  0  0  0  0  0  0  0
   33.1975   -5.0403  -16.3280 C   0  0  2  0  0  0  0  0  0  0  0  0
   32.4961   -5.7932  -17.3418 N   0  0  0  0  0  0  0  0  0  0  0  0
   33.1855   -5.6679  -15.0121 C   0  0  0  0  0  0  0  0  0  0  0  0
   32.1439   -6.1832  -14.5727 O   0  0  0  0  0  0  0  0  0  0  0  0
   34.3205   -5.6995  -14.2408 O   0  0  0  0  0  0  0  0  0  0  0  0
  2  3  1  0
  2  1  1  6
  3  4  1  0
  4  8  1  0
  5  4  2  0
  6  7  2  0
  6  2  1  0
  9  6  1  0
 10 14  1  0
 10  9  1  0
 10 11  1  1
 12 11  1  0
 12 16  1  0
 13 12  2  0
 14 22  1  0
 15 14  2  0
 18 19  1  0
 18 17  1  0
 21 20  1  1
 20 19  1  0
 22 21  1  0
 23 21  1  0
 23 25  1  0
 24 23  2  0
M  END
$$$$
