DDM.pdb
     RDKit          3D

 25 24  0  0  1  0  0  0  0  0999 V2000
   20.4902   -3.5501  -15.6166 N   0  0  0  0  0  0  0  0  0  0  0  0
   21.8483   -3.8508  -15.9767 C   0  0  1  0  0  0  0  0  0  0  0  0
   22.7805   -2.7291  -15.5624 C   0  0  0  0  0  0  0  0  0  0  0  0
   22.4104   -1.4648  -16.2220 C   0  0  0  0  0  0  0  0  0  0  0  0
   22.0542   -0.4862  -15.5387 O   0  0  0  0  0  0  0  0  0  0  0  0
   22.2864   -5.1667  -15.5075 C   0  0  0  0  0  0  0  0  0  0  0  0
   22.8041   -5.3034  -14.3700 O   0  0  0  0  0  0  0  0  0  0  0  0
   22.4600   -1.3694  -17.5949 O   0  0  0  0  0  0  0  0  0  0  0  0
   22.1610   -6.3630  -16.2888 N   0  0  0  0  0  0  0  0  0  0  0  0
   22.5183   -7.6697  -15.8383 C   0  0  1  0  0  0  0  0  0  0  0  0
   21.3607   -8.6163  -16.1332 C   0  0  0  0  0  0  0  0  0  0  0  0
   20.2254   -8.3771  -15.2172 C   0  0  0  0  0  0  0  0  0  0  0  0
   19.0574   -8.1576  -15.6185 O   0  0  0  0  0  0  0  0  0  0  0  0
   23.7647   -8.1279  -16.4933 C   0  0  0  0  0  0  0  0  0  0  0  0
   24.1270   -7.7364  -17.6338 O   0  0  0  0  0  0  0  0  0  0  0  0
   20.4881   -8.4011  -13.8517 O   0  0  0  0  0  0  0  0  0  0  0  0
   29.9547  -13.1281  -15.7555 C   0  0  0  0  0  0  0  0  0  0  0  0
   28.4210  -12.4511  -15.1059 S   0  0  0  0  0  0  0  0  0  0  0  0
   27.7641  -11.1608  -16.1989 C   0  0  0  0  0  0  0  0  0  0  0  0
   26.5103  -10.6025  -15.5766 C   0  0  0  0  0  0  0  0  0  0  0  0
   25.8088   -9.6185  -16.4845 C   0  0  2  0  0  0  0  0  0  0  0  0
   24.6379   -9.0555  -15.8531 N   0  0  0  0  0  0  0  0  0  0  0  0
   25.5645  -10.1396  -17.8241 C   0  0  0  0  0  0  0  0  0  0  0  0
   24.5902  -10.8793  -18.0411 O   0  0  0  0  0  0  0  0  0  0  0  0
   26.4038   -9.8223  -18.8628 O   0  0  0  0  0  0  0  0  0  0  0  0
  2  3  1  0
  2  1  1  1
  3  4  1  0
  4  8  1  0
  5  4  2  0
  6  7  2  0
  6  2  1  0
  9  6  1  0
 10 14  1  0
 10  9  1  0
 10 11  1  6
 12 11  1  0
 12 16  1  0
 13 12  2  0
 14 22  1  0
 15 14  2  0
 18 19  1  0
 18 17  1  0
 21 20  1  1
 20 19  1  0
 22 21  1  0
 23 21  1  0
 23 25  1  0
 24 23  2  0
M  END
$$$$
