DDM.pdb
     RDKit          3D

 25 24  0  0  1  0  0  0  0  0999 V2000
   18.8719  -12.0537  -14.5069 N   0  0  0  0  0  0  0  0  0  0  0  0
   19.0265  -11.9350  -15.9305 C   0  0  1  0  0  0  0  0  0  0  0  0
   17.6980  -12.1193  -16.6376 C   0  0  0  0  0  0  0  0  0  0  0  0
   17.0663  -13.3926  -16.2501 C   0  0  0  0  0  0  0  0  0  0  0  0
   16.6615  -13.5580  -15.0839 O   0  0  0  0  0  0  0  0  0  0  0  0
   19.7267  -10.7127  -16.3296 C   0  0  0  0  0  0  0  0  0  0  0  0
   20.0022  -10.4953  -17.5368 O   0  0  0  0  0  0  0  0  0  0  0  0
   16.9254  -14.3975  -17.1811 O   0  0  0  0  0  0  0  0  0  0  0  0
   20.1387   -9.7018  -15.3991 N   0  0  0  0  0  0  0  0  0  0  0  0
   20.8015   -8.4890  -15.7567 C   0  0  1  0  0  0  0  0  0  0  0  0
   20.2917   -7.3743  -14.8507 C   0  0  0  0  0  0  0  0  0  0  0  0
   20.9495   -6.0874  -15.1614 C   0  0  0  0  0  0  0  0  0  0  0  0
   21.3689   -5.3028  -14.2772 O   0  0  0  0  0  0  0  0  0  0  0  0
   22.2701   -8.6408  -15.6442 C   0  0  0  0  0  0  0  0  0  0  0  0
   22.8512   -8.9349  -14.5667 O   0  0  0  0  0  0  0  0  0  0  0  0
   21.0990   -5.7519  -16.5028 O   0  0  0  0  0  0  0  0  0  0  0  0
   28.3579  -12.2503  -15.0347 C   0  0  0  0  0  0  0  0  0  0  0  0
   26.6049  -11.9157  -15.2529 S   0  0  0  0  0  0  0  0  0  0  0  0
   26.3430  -10.3056  -16.0467 C   0  0  0  0  0  0  0  0  0  0  0  0
   24.8613  -10.0358  -16.0988 C   0  0  0  0  0  0  0  0  0  0  0  0
   24.5424   -8.7117  -16.7542 C   0  0  2  0  0  0  0  0  0  0  0  0
   23.1204   -8.4583  -16.7740 N   0  0  0  0  0  0  0  0  0  0  0  0
   25.1919   -8.5347  -18.0475 C   0  0  0  0  0  0  0  0  0  0  0  0
   24.5426   -8.6661  -19.0984 O   0  0  0  0  0  0  0  0  0  0  0  0
   26.5260   -8.2211  -18.1240 O   0  0  0  0  0  0  0  0  0  0  0  0
  2  3  1  0
  2  1  1  1
  3  4  1  0
  4  8  1  0
  5  4  2  0
  6  7  2  0
  6  2  1  0
  9  6  1  0
 10 14  1  0
 10  9  1  0
 10 11  1  1
 12 11  1  0
 12 16  1  0
 13 12  2  0
 14 22  1  0
 15 14  2  0
 18 19  1  0
 18 17  1  0
 21 20  1  6
 20 19  1  0
 22 21  1  0
 23 21  1  0
 23 25  1  0
 24 23  2  0
M  END
$$$$
