DDM.pdb
     RDKit          3D

 25 24  0  0  1  0  0  0  0  0999 V2000
   24.9808  -17.7829  -17.8523 N   0  0  0  0  0  0  0  0  0  0  0  0
   25.6686  -18.5974  -16.8888 C   0  0  1  0  0  0  0  0  0  0  0  0
   27.1318  -18.2108  -16.7976 C   0  0  0  0  0  0  0  0  0  0  0  0
   27.8648  -18.6316  -18.0043 C   0  0  0  0  0  0  0  0  0  0  0  0
   27.3648  -19.4718  -18.7760 O   0  0  0  0  0  0  0  0  0  0  0  0
   24.9995  -18.6311  -15.5870 C   0  0  0  0  0  0  0  0  0  0  0  0
   25.2110  -17.7334  -14.7326 O   0  0  0  0  0  0  0  0  0  0  0  0
   29.1028  -18.0928  -18.2753 O   0  0  0  0  0  0  0  0  0  0  0  0
   24.0796  -19.6618  -15.2010 N   0  0  0  0  0  0  0  0  0  0  0  0
   23.3948  -19.7136  -13.9494 C   0  0  1  0  0  0  0  0  0  0  0  0
   22.0499  -20.3987  -14.1622 C   0  0  0  0  0  0  0  0  0  0  0  0
   21.2311  -20.3672  -12.9319 C   0  0  0  0  0  0  0  0  0  0  0  0
   21.5953  -19.7840  -11.8828 O   0  0  0  0  0  0  0  0  0  0  0  0
   24.2053  -20.4280  -12.9370 C   0  0  0  0  0  0  0  0  0  0  0  0
   24.7023  -21.5682  -13.1328 O   0  0  0  0  0  0  0  0  0  0  0  0
   20.0042  -21.0214  -12.9621 O   0  0  0  0  0  0  0  0  0  0  0  0
   28.3072  -19.6487   -6.1744 C   0  0  0  0  0  0  0  0  0  0  0  0
   27.3590  -18.9150   -7.5143 S   0  0  0  0  0  0  0  0  0  0  0  0
   26.5850  -20.1946   -8.5412 C   0  0  0  0  0  0  0  0  0  0  0  0
   25.8533  -19.5193   -9.6723 C   0  0  0  0  0  0  0  0  0  0  0  0
   25.2278  -20.5127  -10.6245 C   0  0  2  0  0  0  0  0  0  0  0  0
   24.4709  -19.8499  -11.6611 N   0  0  0  0  0  0  0  0  0  0  0  0
   24.4977  -21.5797   -9.9505 C   0  0  0  0  0  0  0  0  0  0  0  0
   25.1014  -22.4003   -9.2396 O   0  0  0  0  0  0  0  0  0  0  0  0
   23.1370  -21.6938  -10.0902 O   0  0  0  0  0  0  0  0  0  0  0  0
  2  3  1  0
  2  1  1  6
  3  4  1  0
  4  8  1  0
  5  4  2  0
  6  7  2  0
  6  2  1  0
  9  6  1  0
 10 14  1  0
 10  9  1  0
 10 11  1  6
 12 11  1  0
 12 16  1  0
 13 12  2  0
 14 22  1  0
 15 14  2  0
 18 19  1  0
 18 17  1  0
 21 20  1  1
 20 19  1  0
 22 21  1  0
 23 21  1  0
 23 25  1  0
 24 23  2  0
M  END
$$$$
