DDM.pdb
     RDKit          3D

 25 24  0  0  1  0  0  0  0  0999 V2000
   15.9824  -10.9626  -17.3029 N   0  0  0  0  0  0  0  0  0  0  0  0
   15.9526   -9.9943  -16.2418 C   0  0  1  0  0  0  0  0  0  0  0  0
   16.0010  -10.6729  -14.8867 C   0  0  0  0  0  0  0  0  0  0  0  0
   14.8753  -11.6093  -14.7251 C   0  0  0  0  0  0  0  0  0  0  0  0
   15.0926  -12.8015  -14.4372 O   0  0  0  0  0  0  0  0  0  0  0  0
   16.9616   -8.9448  -16.3968 C   0  0  0  0  0  0  0  0  0  0  0  0
   18.1441   -9.2322  -16.7124 O   0  0  0  0  0  0  0  0  0  0  0  0
   13.5837  -11.1619  -14.8932 O   0  0  0  0  0  0  0  0  0  0  0  0
   16.6835   -7.5508  -16.2051 N   0  0  0  0  0  0  0  0  0  0  0  0
   17.6435   -6.5033  -16.3443 C   0  0  1  0  0  0  0  0  0  0  0  0
   16.9056   -5.1697  -16.3563 C   0  0  0  0  0  0  0  0  0  0  0  0
   16.2177   -4.9487  -17.6459 C   0  0  0  0  0  0  0  0  0  0  0  0
   16.6086   -5.4549  -18.7250 O   0  0  0  0  0  0  0  0  0  0  0  0
   18.6386   -6.5548  -15.2492 C   0  0  0  0  0  0  0  0  0  0  0  0
   18.3220   -6.6733  -14.0363 O   0  0  0  0  0  0  0  0  0  0  0  0
   15.0873   -4.1385  -17.6383 O   0  0  0  0  0  0  0  0  0  0  0  0
   22.7079  -10.7433  -14.4668 C   0  0  0  0  0  0  0  0  0  0  0  0
   23.7628   -9.5070  -13.6978 S   0  0  0  0  0  0  0  0  0  0  0  0
   22.8812   -7.9347  -13.4933 C   0  0  0  0  0  0  0  0  0  0  0  0
   21.8200   -7.8417  -14.5591 C   0  0  0  0  0  0  0  0  0  0  0  0
   21.0526   -6.5412  -14.4922 C   0  0  2  0  0  0  0  0  0  0  0  0
   20.0366   -6.4712  -15.5166 N   0  0  0  0  0  0  0  0  0  0  0  0
   21.9117   -5.3648  -14.4309 C   0  0  0  0  0  0  0  0  0  0  0  0
   22.1205   -4.6871  -15.4510 O   0  0  0  0  0  0  0  0  0  0  0  0
   22.5009   -4.9886  -13.2497 O   0  0  0  0  0  0  0  0  0  0  0  0
  2  3  1  0
  2  1  1  6
  3  4  1  0
  4  8  1  0
  5  4  2  0
  6  7  2  0
  6  2  1  0
  9  6  1  0
 10 14  1  0
 10  9  1  0
 10 11  1  1
 12 11  1  0
 12 16  1  0
 13 12  2  0
 14 22  1  0
 15 14  2  0
 18 19  1  0
 18 17  1  0
 21 20  1  6
 20 19  1  0
 22 21  1  0
 23 21  1  0
 23 25  1  0
 24 23  2  0
M  END
$$$$
