RTE.pdb
     RDKit          3D

 28 27  0  0  1  0  0  0  0  0999 V2000
    9.1823  -13.5942   16.4558 N   0  0  0  0  0  0  0  0  0  0  0  0
    8.3755  -13.0707   17.5146 C   0  0  0  0  0  0  0  0  0  0  0  0
    8.5207  -11.8426   17.8203 N   0  0  0  0  0  0  0  0  0  0  0  0
    7.4355  -13.8723   18.2186 N   0  0  0  0  0  0  0  0  0  0  0  0
    7.8000  -15.2360   18.5708 C   0  0  0  0  0  0  0  0  0  0  0  0
    8.9096  -15.2031   19.5599 C   0  0  0  0  0  0  0  0  0  0  0  0
    8.5198  -14.7232   20.9283 C   0  0  0  0  0  0  0  0  0  0  0  0
    7.9363  -15.7893   21.8180 C   0  0  2  0  0  0  0  0  0  0  0  0
    6.6091  -16.1025   21.4153 N   0  0  0  0  0  0  0  0  0  0  0  0
    8.0489  -15.3719   23.2477 C   0  0  0  0  0  0  0  0  0  0  0  0
    7.8244  -14.1709   23.5151 O   0  0  0  0  0  0  0  0  0  0  0  0
    8.0011  -11.3230   18.5410 C   0  0  0  0  0  0  0  0  0  0  0  0
    6.9764  -14.0584   25.1939 C   0  0  2  0  0  0  0  0  0  0  0  0
    7.2042  -15.2958   26.0760 O   0  0  0  0  0  0  0  0  0  0  0  0
    6.0059  -15.9431   26.1203 C   0  0  2  0  0  0  0  0  0  0  0  0
    8.3933  -16.0081   25.6802 N   0  0  0  0  0  0  0  0  0  0  0  0
    8.3937  -16.2888   24.2602 C   0  0  0  0  0  0  0  0  0  0  0  0
    8.8809  -17.1643   26.4014 O   0  0  0  0  0  0  0  0  0  0  0  0
    8.6925  -18.3099   25.9272 N   0  0  0  0  0  0  0  0  0  0  0  0
    9.5750  -17.1466   27.6322 C   0  0  1  0  0  0  0  0  0  0  0  0
   10.2505  -18.2388   28.2676 C   0  0  0  0  0  0  0  0  0  0  0  0
   11.0259  -19.1246   27.3968 C   0  0  0  0  0  0  0  0  0  0  0  0
   12.1705  -18.5951   26.6311 C   0  0  0  0  0  0  0  0  0  0  0  0
   12.9254  -19.4525   25.7530 O   0  0  0  0  0  0  0  0  0  0  0  0
   12.5162  -20.6655   25.6160 C   0  0  0  0  0  0  0  0  0  0  0  0
   10.8450  -17.8543   29.5596 O   0  0  0  0  0  0  0  0  0  0  0  0
   10.8204  -16.6562   29.9383 O   0  0  0  0  0  0  0  0  0  0  0  0
   14.0504  -19.1793   25.0110 O   0  0  0  0  0  0  0  0  0  0  0  0
  2  1  1  0
  2  3  2  0
  4  2  1  0
  5  4  1  0
  6  5  1  0
  7  6  1  0
  8 10  1  0
  8  7  1  0
  8  9  1  6
 10 11  2  0
 13 12  1  1
 13 15  1  0
 14 13  1  0
 15 16  1  1
 16 10  1  0
 17 15  1  0
 18 17  2  0
 19 17  1  0
 20 19  1  0
 20 25  1  0
 20 21  1  1
 22 21  1  0
 23 22  1  0
 24 23  2  0
 25 28  1  0
 26 25  2  0
 27 23  1  0
M  END
$$$$
