RTE.pdb
     RDKit          3D

 28 27  0  0  1  0  0  0  0  0999 V2000
    7.9234  -14.4319   14.0320 N   0  0  0  0  0  0  0  0  0  0  0  0
    8.9880  -15.0159   14.7881 C   0  0  0  0  0  0  0  0  0  0  0  0
    9.3757  -16.1849   14.4629 N   0  0  0  0  0  0  0  0  0  0  0  0
    9.6101  -14.3361   15.8711 N   0  0  0  0  0  0  0  0  0  0  0  0
    9.0230  -13.0944   16.3508 C   0  0  0  0  0  0  0  0  0  0  0  0
    7.8020  -13.4063   17.1397 C   0  0  0  0  0  0  0  0  0  0  0  0
    7.9950  -13.3986   18.6289 C   0  0  0  0  0  0  0  0  0  0  0  0
    8.8658  -14.5122   19.1486 C   0  0  2  0  0  0  0  0  0  0  0  0
    8.3395  -15.7762   18.7650 N   0  0  0  0  0  0  0  0  0  0  0  0
    9.0541  -14.3608   20.6225 C   0  0  0  0  0  0  0  0  0  0  0  0
    9.6016  -13.3116   21.0271 O   0  0  0  0  0  0  0  0  0  0  0  0
   10.1421  -16.7203   14.8935 C   0  0  0  0  0  0  0  0  0  0  0  0
    6.7701  -14.1937   23.3858 C   0  0  2  0  0  0  0  0  0  0  0  0
    7.6670  -15.3988   23.7090 O   0  0  0  0  0  0  0  0  0  0  0  0
    6.8575  -16.4923   23.6332 C   0  0  2  0  0  0  0  0  0  0  0  0
    8.8927  -15.3562   22.9514 N   0  0  0  0  0  0  0  0  0  0  0  0
    8.6344  -15.3559   21.5271 C   0  0  0  0  0  0  0  0  0  0  0  0
   10.0129  -16.2261   23.2391 O   0  0  0  0  0  0  0  0  0  0  0  0
   10.6660  -16.7226   22.2906 N   0  0  0  0  0  0  0  0  0  0  0  0
   10.4731  -16.5947   24.5234 C   0  0  1  0  0  0  0  0  0  0  0  0
   11.7639  -17.1096   24.8721 C   0  0  0  0  0  0  0  0  0  0  0  0
   12.9146  -16.4993   24.2033 C   0  0  0  0  0  0  0  0  0  0  0  0
   13.3941  -17.0364   22.9155 C   0  0  0  0  0  0  0  0  0  0  0  0
   14.6349  -16.5770   22.3452 O   0  0  0  0  0  0  0  0  0  0  0  0
   14.6120  -16.1837   21.1194 C   0  0  0  0  0  0  0  0  0  0  0  0
   11.8812  -17.3991   26.3119 O   0  0  0  0  0  0  0  0  0  0  0  0
   10.9897  -17.0168   27.1111 O   0  0  0  0  0  0  0  0  0  0  0  0
   15.8835  -16.4861   22.9140 O   0  0  0  0  0  0  0  0  0  0  0  0
  2  1  1  0
  2  3  2  0
  4  2  1  0
  5  4  1  0
  6  5  1  0
  7  6  1  0
  8 10  1  0
  8  7  1  0
  8  9  1  1
 10 11  2  0
 13 12  1  1
 13 15  1  0
 14 13  1  0
 15 16  1  1
 16 10  1  0
 17 15  1  0
 18 17  2  0
 19 17  1  0
 20 19  1  0
 20 25  1  0
 20 21  1  1
 22 21  1  0
 23 22  1  0
 24 23  2  0
 25 28  1  0
 26 25  2  0
 27 23  1  0
M  END
$$$$
