RTE.pdb
     RDKit          3D

 28 27  0  0  1  0  0  0  0  0999 V2000
   12.1181  -18.7233   15.2543 N   0  0  0  0  0  0  0  0  0  0  0  0
   12.7389  -17.5580   14.7039 C   0  0  0  0  0  0  0  0  0  0  0  0
   13.9945  -17.5976   14.4929 N   0  0  0  0  0  0  0  0  0  0  0  0
   12.0025  -16.3818   14.3938 N   0  0  0  0  0  0  0  0  0  0  0  0
   10.5866  -16.3323   14.7241 C   0  0  0  0  0  0  0  0  0  0  0  0
   10.4346  -16.0150   16.1686 C   0  0  0  0  0  0  0  0  0  0  0  0
    9.0192  -16.0241   16.6702 C   0  0  0  0  0  0  0  0  0  0  0  0
    8.5806  -14.7365   17.3167 C   0  0  2  0  0  0  0  0  0  0  0  0
    9.0152  -13.6209   16.5496 N   0  0  0  0  0  0  0  0  0  0  0  0
    9.0368  -14.7037   18.7385 C   0  0  0  0  0  0  0  0  0  0  0  0
   10.1950  -14.2874   18.9610 O   0  0  0  0  0  0  0  0  0  0  0  0
   14.5893  -16.8199   14.1754 C   0  0  0  0  0  0  0  0  0  0  0  0
    6.6766  -13.2614   21.2883 C   0  0  2  0  0  0  0  0  0  0  0  0
    7.2925  -14.5214   21.9162 O   0  0  0  0  0  0  0  0  0  0  0  0
    6.2581  -15.3920   22.0868 C   0  0  2  0  0  0  0  0  0  0  0  0
    8.4735  -14.9374   21.2020 N   0  0  0  0  0  0  0  0  0  0  0  0
    8.2014  -15.1232   19.7925 C   0  0  0  0  0  0  0  0  0  0  0  0
    9.3293  -16.0050   21.6737 O   0  0  0  0  0  0  0  0  0  0  0  0
    9.8716  -16.7718   20.8426 N   0  0  0  0  0  0  0  0  0  0  0  0
    9.6354  -16.2928   23.0229 C   0  0  1  0  0  0  0  0  0  0  0  0
   10.8449  -16.8607   23.5402 C   0  0  0  0  0  0  0  0  0  0  0  0
   12.0903  -16.4574   22.8842 C   0  0  0  0  0  0  0  0  0  0  0  0
   12.9071  -17.4549   22.1670 C   0  0  0  0  0  0  0  0  0  0  0  0
   14.2187  -17.1143   21.6775 O   0  0  0  0  0  0  0  0  0  0  0  0
   14.8434  -18.0067   20.9911 C   0  0  0  0  0  0  0  0  0  0  0  0
   10.8400  -16.9445   25.0111 O   0  0  0  0  0  0  0  0  0  0  0  0
    9.9328  -16.3839   25.6759 O   0  0  0  0  0  0  0  0  0  0  0  0
   14.9388  -15.9526   21.8279 O   0  0  0  0  0  0  0  0  0  0  0  0
  2  1  1  0
  2  3  2  0
  4  2  1  0
  5  4  1  0
  6  5  1  0
  7  6  1  0
  8 10  1  0
  8  7  1  0
  8  9  1  6
 10 11  2  0
 13 12  1  1
 13 15  1  0
 14 13  1  0
 15 16  1  1
 16 10  1  0
 17 15  1  0
 18 17  2  0
 19 17  1  0
 20 19  1  0
 20 25  1  0
 20 21  1  1
 22 21  1  0
 23 22  1  0
 24 23  2  0
 25 28  1  0
 26 25  2  0
 27 23  1  0
M  END
$$$$
