RTE.pdb
     RDKit          3D

 28 27  0  0  1  0  0  0  0  0999 V2000
    7.4996  -11.3378   20.5558 N   0  0  0  0  0  0  0  0  0  0  0  0
    8.1453  -12.5704   20.2244 C   0  0  0  0  0  0  0  0  0  0  0  0
    8.6472  -12.6834   19.0591 N   0  0  0  0  0  0  0  0  0  0  0  0
    8.2378  -13.6492   21.1462 N   0  0  0  0  0  0  0  0  0  0  0  0
    7.0121  -14.2441   21.6562 C   0  0  0  0  0  0  0  0  0  0  0  0
    6.9108  -15.6446   21.1674 C   0  0  0  0  0  0  0  0  0  0  0  0
    8.0956  -16.5104   21.4862 C   0  0  0  0  0  0  0  0  0  0  0  0
    7.9621  -17.9393   21.0292 C   0  0  2  0  0  0  0  0  0  0  0  0
    6.8106  -18.5413   21.6066 N   0  0  0  0  0  0  0  0  0  0  0  0
    9.2301  -18.6788   21.3050 C   0  0  0  0  0  0  0  0  0  0  0  0
    9.2682  -19.3909   22.3325 O   0  0  0  0  0  0  0  0  0  0  0  0
    9.1330  -13.5061   18.6762 C   0  0  0  0  0  0  0  0  0  0  0  0
   13.9218  -19.5835   19.8974 C   0  0  1  0  0  0  0  0  0  0  0  0
   12.5258  -19.0220   19.5856 O   0  0  0  0  0  0  0  0  0  0  0  0
   12.1262  -19.6418   18.4397 C   0  0  1  0  0  0  0  0  0  0  0  0
   11.6791  -19.0490   20.7519 N   0  0  0  0  0  0  0  0  0  0  0  0
   10.3432  -18.5829   20.4467 C   0  0  0  0  0  0  0  0  0  0  0  0
   12.0992  -18.5100   22.0277 O   0  0  0  0  0  0  0  0  0  0  0  0
   11.3325  -17.7387   22.6524 N   0  0  0  0  0  0  0  0  0  0  0  0
   13.3284  -18.7659   22.6763 C   0  0  1  0  0  0  0  0  0  0  0  0
   13.7103  -18.3821   24.0028 C   0  0  0  0  0  0  0  0  0  0  0  0
   12.6524  -18.3841   25.0151 C   0  0  0  0  0  0  0  0  0  0  0  0
   12.8469  -19.1025   26.2890 C   0  0  0  0  0  0  0  0  0  0  0  0
   11.8228  -19.0895   27.3025 O   0  0  0  0  0  0  0  0  0  0  0  0
   12.1258  -19.5771   28.4549 C   0  0  0  0  0  0  0  0  0  0  0  0
   15.0267  -18.9222   24.3849 O   0  0  0  0  0  0  0  0  0  0  0  0
   15.4247  -20.0173   23.9140 O   0  0  0  0  0  0  0  0  0  0  0  0
   10.5298  -18.6259   27.2398 O   0  0  0  0  0  0  0  0  0  0  0  0
  2  1  1  0
  2  3  2  0
  4  2  1  0
  5  4  1  0
  6  5  1  0
  7  6  1  0
  8 10  1  0
  8  7  1  0
  8  9  1  1
 10 11  2  0
 13 12  1  6
 13 15  1  0
 14 13  1  0
 15 16  1  6
 16 10  1  0
 17 15  1  0
 18 17  2  0
 19 17  1  0
 20 19  1  0
 20 25  1  0
 20 21  1  1
 22 21  1  0
 23 22  1  0
 24 23  2  0
 25 28  1  0
 26 25  2  0
 27 23  1  0
M  END
$$$$
