RTE.pdb
     RDKit          3D

 28 27  0  0  1  0  0  0  0  0999 V2000
    7.8165  -11.3641   20.8702 N   0  0  0  0  0  0  0  0  0  0  0  0
    8.0297  -12.0849   19.6532 C   0  0  0  0  0  0  0  0  0  0  0  0
    8.7002  -11.5127   18.7336 N   0  0  0  0  0  0  0  0  0  0  0  0
    7.5212  -13.3973   19.4507 N   0  0  0  0  0  0  0  0  0  0  0  0
    7.9665  -14.4665   20.3311 C   0  0  0  0  0  0  0  0  0  0  0  0
    8.6331  -15.5191   19.5198 C   0  0  0  0  0  0  0  0  0  0  0  0
    9.4671  -15.0042   18.3822 C   0  0  0  0  0  0  0  0  0  0  0  0
   10.0949  -16.0798   17.5352 C   0  0  2  0  0  0  0  0  0  0  0  0
    9.1738  -17.1399   17.3132 N   0  0  0  0  0  0  0  0  0  0  0  0
   11.3827  -16.5204   18.1504 C   0  0  0  0  0  0  0  0  0  0  0  0
   11.9208  -17.5482   17.6832 O   0  0  0  0  0  0  0  0  0  0  0  0
    8.8951  -11.8835   17.7935 C   0  0  0  0  0  0  0  0  0  0  0  0
   13.5239  -16.0626   17.0552 C   0  0  2  0  0  0  0  0  0  0  0  0
   14.1440  -15.4152   18.3032 O   0  0  0  0  0  0  0  0  0  0  0  0
   14.3613  -14.1111   17.9732 C   0  0  2  0  0  0  0  0  0  0  0  0
   13.3933  -15.7425   19.4895 N   0  0  0  0  0  0  0  0  0  0  0  0
   11.9737  -15.8116   19.2149 C   0  0  0  0  0  0  0  0  0  0  0  0
   13.6088  -15.0712   20.7534 O   0  0  0  0  0  0  0  0  0  0  0  0
   12.7271  -14.2979   21.1977 N   0  0  0  0  0  0  0  0  0  0  0  0
   14.7496  -15.1945   21.5783 C   0  0  1  0  0  0  0  0  0  0  0  0
   14.7935  -15.6115   22.9483 C   0  0  0  0  0  0  0  0  0  0  0  0
   13.8308  -16.6386   23.3512 C   0  0  0  0  0  0  0  0  0  0  0  0
   13.8383  -17.1611   24.7309 C   0  0  0  0  0  0  0  0  0  0  0  0
   12.9073  -18.1846   25.1329 O   0  0  0  0  0  0  0  0  0  0  0  0
   12.1238  -18.6592   24.2282 C   0  0  0  0  0  0  0  0  0  0  0  0
   16.1721  -15.7268   23.4548 O   0  0  0  0  0  0  0  0  0  0  0  0
   16.9532  -16.5888   22.9792 O   0  0  0  0  0  0  0  0  0  0  0  0
   12.7105  -18.7584   26.3670 O   0  0  0  0  0  0  0  0  0  0  0  0
  2  1  1  0
  2  3  2  0
  4  2  1  0
  5  4  1  0
  6  5  1  0
  7  6  1  0
  8 10  1  0
  8  7  1  0
  8  9  1  1
 10 11  2  0
 13 12  1  6
 13 15  1  0
 14 13  1  0
 15 16  1  1
 16 10  1  0
 17 15  1  0
 18 17  2  0
 19 17  1  0
 20 19  1  0
 20 25  1  0
 20 21  1  1
 22 21  1  0
 23 22  1  0
 24 23  2  0
 25 28  1  0
 26 25  2  0
 27 23  1  0
M  END
$$$$
