RTE.pdb
     RDKit          3D

 28 27  0  0  1  0  0  0  0  0999 V2000
    7.4768  -14.4191   15.0350 N   0  0  0  0  0  0  0  0  0  0  0  0
    7.8822  -13.6624   16.1792 C   0  0  0  0  0  0  0  0  0  0  0  0
    8.4628  -12.5466   15.9780 N   0  0  0  0  0  0  0  0  0  0  0  0
    7.6569  -14.1174   17.5074 N   0  0  0  0  0  0  0  0  0  0  0  0
    8.0706  -15.4647   17.8678 C   0  0  0  0  0  0  0  0  0  0  0  0
    9.5558  -15.5254   17.9004 C   0  0  0  0  0  0  0  0  0  0  0  0
   10.1694  -15.2270   19.2381 C   0  0  0  0  0  0  0  0  0  0  0  0
   10.1577  -16.3861   20.1997 C   0  0  2  0  0  0  0  0  0  0  0  0
    9.0699  -17.2569   19.9168 N   0  0  0  0  0  0  0  0  0  0  0  0
   10.1724  -15.8779   21.6041 C   0  0  0  0  0  0  0  0  0  0  0  0
   11.1275  -15.1433   21.9395 O   0  0  0  0  0  0  0  0  0  0  0  0
    8.7659  -11.8733   16.6950 C   0  0  0  0  0  0  0  0  0  0  0  0
    7.5741  -14.0321   23.5142 C   0  0  2  0  0  0  0  0  0  0  0  0
    7.8939  -15.2947   24.3296 O   0  0  0  0  0  0  0  0  0  0  0  0
    6.7595  -16.0492   24.3018 C   0  0  2  0  0  0  0  0  0  0  0  0
    9.1525  -15.8714   23.9280 N   0  0  0  0  0  0  0  0  0  0  0  0
    9.1546  -16.2086   22.5203 C   0  0  0  0  0  0  0  0  0  0  0  0
    9.7962  -16.9280   24.6789 O   0  0  0  0  0  0  0  0  0  0  0  0
   10.1543  -17.9738   24.0865 N   0  0  0  0  0  0  0  0  0  0  0  0
   10.0786  -16.9130   26.0635 C   0  0  1  0  0  0  0  0  0  0  0  0
   10.7833  -17.9050   26.8199 C   0  0  0  0  0  0  0  0  0  0  0  0
   11.9458  -18.5174   26.1738 C   0  0  0  0  0  0  0  0  0  0  0  0
   12.7220  -19.5572   26.8761 C   0  0  0  0  0  0  0  0  0  0  0  0
   13.9333  -20.0833   26.2999 O   0  0  0  0  0  0  0  0  0  0  0  0
   14.9688  -19.3182   26.3008 C   0  0  0  0  0  0  0  0  0  0  0  0
   10.9001  -17.5452   28.2438 O   0  0  0  0  0  0  0  0  0  0  0  0
   10.5528  -16.4045   28.6410 O   0  0  0  0  0  0  0  0  0  0  0  0
   14.1743  -21.3108   25.7291 O   0  0  0  0  0  0  0  0  0  0  0  0
  2  1  1  0
  2  3  2  0
  4  2  1  0
  5  4  1  0
  6  5  1  0
  7  6  1  0
  8 10  1  0
  8  7  1  0
  8  9  1  1
 10 11  2  0
 13 12  1  1
 13 15  1  0
 14 13  1  0
 15 16  1  1
 16 10  1  0
 17 15  1  0
 18 17  2  0
 19 17  1  0
 20 19  1  0
 20 25  1  0
 20 21  1  1
 22 21  1  0
 23 22  1  0
 24 23  2  0
 25 28  1  0
 26 25  2  0
 27 23  1  0
M  END
$$$$
