RTE.pdb
     RDKit          3D

 28 27  0  0  1  0  0  0  0  0999 V2000
    6.2882  -13.3365   19.3111 N   0  0  0  0  0  0  0  0  0  0  0  0
    7.5082  -12.5910   19.2669 C   0  0  0  0  0  0  0  0  0  0  0  0
    7.5921  -11.5458   19.9901 N   0  0  0  0  0  0  0  0  0  0  0  0
    8.6059  -12.9815   18.4516 N   0  0  0  0  0  0  0  0  0  0  0  0
    9.4112  -14.1229   18.8578 C   0  0  0  0  0  0  0  0  0  0  0  0
    8.6255  -14.9619   19.8009 C   0  0  0  0  0  0  0  0  0  0  0  0
    9.3546  -16.1612   20.3346 C   0  0  0  0  0  0  0  0  0  0  0  0
   10.0725  -16.9697   19.2860 C   0  0  2  0  0  0  0  0  0  0  0  0
    9.1456  -17.7341   18.5256 N   0  0  0  0  0  0  0  0  0  0  0  0
   11.1458  -17.7879   19.9256 C   0  0  0  0  0  0  0  0  0  0  0  0
   10.7900  -18.7949   20.5766 O   0  0  0  0  0  0  0  0  0  0  0  0
    8.3808  -10.8854   20.0270 C   0  0  0  0  0  0  0  0  0  0  0  0
   13.5775  -19.7932   18.5078 C   0  0  2  0  0  0  0  0  0  0  0  0
   14.4108  -18.8101   19.3445 O   0  0  0  0  0  0  0  0  0  0  0  0
   15.0828  -18.0375   18.4453 C   0  0  2  0  0  0  0  0  0  0  0  0
   13.6116  -18.1899   20.3715 N   0  0  0  0  0  0  0  0  0  0  0  0
   12.5070  -17.4455   19.8050 C   0  0  0  0  0  0  0  0  0  0  0  0
   14.1963  -17.4345   21.4588 O   0  0  0  0  0  0  0  0  0  0  0  0
   14.0872  -16.1851   21.4685 N   0  0  0  0  0  0  0  0  0  0  0  0
   14.9064  -17.9692   22.5574 C   0  0  1  0  0  0  0  0  0  0  0  0
   15.5469  -17.2468   23.6160 C   0  0  0  0  0  0  0  0  0  0  0  0
   15.2540  -17.6887   24.9808 C   0  0  0  0  0  0  0  0  0  0  0  0
   13.8570  -17.7823   25.4459 C   0  0  0  0  0  0  0  0  0  0  0  0
   13.5434  -18.4066   26.7060 O   0  0  0  0  0  0  0  0  0  0  0  0
   14.4974  -19.0205   27.3149 C   0  0  0  0  0  0  0  0  0  0  0  0
   16.9411  -16.8976   23.2921 O   0  0  0  0  0  0  0  0  0  0  0  0
   17.5160  -17.4270   22.3080 O   0  0  0  0  0  0  0  0  0  0  0  0
   12.3514  -18.4567   27.3898 O   0  0  0  0  0  0  0  0  0  0  0  0
  2  1  1  0
  2  3  2  0
  4  2  1  0
  5  4  1  0
  6  5  1  0
  7  6  1  0
  8 10  1  0
  8  7  1  0
  8  9  1  1
 10 11  2  0
 13 12  1  1
 13 15  1  0
 14 13  1  0
 15 16  1  1
 16 10  1  0
 17 15  1  0
 18 17  2  0
 19 17  1  0
 20 19  1  0
 20 25  1  0
 20 21  1  1
 22 21  1  0
 23 22  1  0
 24 23  2  0
 25 28  1  0
 26 25  2  0
 27 23  1  0
M  END
$$$$
