RTE.pdb
     RDKit          3D

 28 27  0  0  1  0  0  0  0  0999 V2000
   10.3724  -22.0791   17.4280 N   0  0  0  0  0  0  0  0  0  0  0  0
    9.9060  -22.1999   16.0812 C   0  0  0  0  0  0  0  0  0  0  0  0
   10.4418  -23.0906   15.3447 N   0  0  0  0  0  0  0  0  0  0  0  0
    8.8801  -21.3666   15.5568 N   0  0  0  0  0  0  0  0  0  0  0  0
    8.2219  -20.4203   16.4443 C   0  0  0  0  0  0  0  0  0  0  0  0
    8.7581  -19.0577   16.1870 C   0  0  0  0  0  0  0  0  0  0  0  0
    8.9770  -18.2241   17.4167 C   0  0  0  0  0  0  0  0  0  0  0  0
    8.7882  -16.7447   17.2064 C   0  0  2  0  0  0  0  0  0  0  0  0
    9.4155  -16.3292   15.9999 N   0  0  0  0  0  0  0  0  0  0  0  0
    9.2531  -15.9991   18.4143 C   0  0  0  0  0  0  0  0  0  0  0  0
   10.4539  -15.6511   18.4479 O   0  0  0  0  0  0  0  0  0  0  0  0
   10.2034  -23.3043   14.3666 C   0  0  0  0  0  0  0  0  0  0  0  0
    7.4543  -13.0715   20.1125 C   0  0  2  0  0  0  0  0  0  0  0  0
    7.7512  -14.1407   21.1755 O   0  0  0  0  0  0  0  0  0  0  0  0
    6.5362  -14.6072   21.5792 C   0  0  2  0  0  0  0  0  0  0  0  0
    8.7620  -15.0627   20.7213 N   0  0  0  0  0  0  0  0  0  0  0  0
    8.3796  -15.6962   19.4773 C   0  0  0  0  0  0  0  0  0  0  0  0
    9.3669  -16.0434   21.5970 O   0  0  0  0  0  0  0  0  0  0  0  0
    9.7021  -17.1592   21.1329 N   0  0  0  0  0  0  0  0  0  0  0  0
    9.6337  -15.8779   22.9749 C   0  0  1  0  0  0  0  0  0  0  0  0
   10.7503  -16.3879   23.7138 C   0  0  0  0  0  0  0  0  0  0  0  0
   12.0549  -16.3303   23.0514 C   0  0  0  0  0  0  0  0  0  0  0  0
   13.2643  -16.7995   23.7542 C   0  0  0  0  0  0  0  0  0  0  0  0
   14.5634  -16.6722   23.1441 O   0  0  0  0  0  0  0  0  0  0  0  0
   15.2838  -15.6638   23.4930 C   0  0  0  0  0  0  0  0  0  0  0  0
   10.6889  -16.0279   25.1411 O   0  0  0  0  0  0  0  0  0  0  0  0
   10.2509  -14.9042   25.4942 O   0  0  0  0  0  0  0  0  0  0  0  0
   15.1826  -17.4784   22.2180 O   0  0  0  0  0  0  0  0  0  0  0  0
  2  1  1  0
  2  3  2  0
  4  2  1  0
  5  4  1  0
  6  5  1  0
  7  6  1  0
  8 10  1  0
  8  7  1  0
  8  9  1  6
 10 11  2  0
 13 12  1  1
 13 15  1  0
 14 13  1  0
 15 16  1  1
 16 10  1  0
 17 15  1  0
 18 17  2  0
 19 17  1  0
 20 19  1  0
 20 25  1  0
 20 21  1  1
 22 21  1  0
 23 22  1  0
 24 23  2  0
 25 28  1  0
 26 25  2  0
 27 23  1  0
M  END
$$$$
