RTE.pdb
     RDKit          3D

 28 27  0  0  1  0  0  0  0  0999 V2000
    7.5972  -14.1275   12.9628 N   0  0  0  0  0  0  0  0  0  0  0  0
    7.9382  -15.2104   13.8330 C   0  0  0  0  0  0  0  0  0  0  0  0
    8.5386  -16.2130   13.3262 N   0  0  0  0  0  0  0  0  0  0  0  0
    7.6291  -15.1936   15.2208 N   0  0  0  0  0  0  0  0  0  0  0  0
    6.9179  -14.0485   15.7680 C   0  0  0  0  0  0  0  0  0  0  0  0
    7.9009  -13.1008   16.3563 C   0  0  0  0  0  0  0  0  0  0  0  0
    8.0406  -13.1840   17.8492 C   0  0  0  0  0  0  0  0  0  0  0  0
    9.1473  -14.0906   18.3203 C   0  0  2  0  0  0  0  0  0  0  0  0
    8.9094  -15.4275   17.8983 N   0  0  0  0  0  0  0  0  0  0  0  0
    9.3238  -13.9478   19.7965 C   0  0  0  0  0  0  0  0  0  0  0  0
    9.5762  -12.8048   20.2371 O   0  0  0  0  0  0  0  0  0  0  0  0
    8.9092  -17.0284   13.8334 C   0  0  0  0  0  0  0  0  0  0  0  0
    7.5555  -13.5032   22.3914 C   0  0  2  0  0  0  0  0  0  0  0  0
    8.2483  -14.8015   22.8339 O   0  0  0  0  0  0  0  0  0  0  0  0
    7.2734  -15.7534   22.8491 C   0  0  2  0  0  0  0  0  0  0  0  0
    9.4624  -15.0258   22.0898 N   0  0  0  0  0  0  0  0  0  0  0  0
    9.2120  -15.0519   20.6643 C   0  0  0  0  0  0  0  0  0  0  0  0
   10.4012  -16.0719   22.4346 O   0  0  0  0  0  0  0  0  0  0  0  0
   10.3015  -17.1943   21.8840 N   0  0  0  0  0  0  0  0  0  0  0  0
   11.4628  -15.9662   23.3614 C   0  0  1  0  0  0  0  0  0  0  0  0
   12.3205  -17.0150   23.8274 C   0  0  0  0  0  0  0  0  0  0  0  0
   13.7028  -16.6425   24.1345 C   0  0  0  0  0  0  0  0  0  0  0  0
   14.4951  -15.8667   23.1612 C   0  0  0  0  0  0  0  0  0  0  0  0
   15.8580  -15.4999   23.4507 O   0  0  0  0  0  0  0  0  0  0  0  0
   16.1413  -15.1928   24.6686 C   0  0  0  0  0  0  0  0  0  0  0  0
   11.6336  -17.9290   24.7567 O   0  0  0  0  0  0  0  0  0  0  0  0
   10.6327  -17.5378   25.4082 O   0  0  0  0  0  0  0  0  0  0  0  0
   16.9444  -15.4209   22.6114 O   0  0  0  0  0  0  0  0  0  0  0  0
  2  1  1  0
  2  3  2  0
  4  2  1  0
  5  4  1  0
  6  5  1  0
  7  6  1  0
  8 10  1  0
  8  7  1  0
  8  9  1  1
 10 11  2  0
 13 12  1  1
 13 15  1  0
 14 13  1  0
 15 16  1  1
 16 10  1  0
 17 15  1  0
 18 17  2  0
 19 17  1  0
 20 19  1  0
 20 25  1  0
 20 21  1  1
 22 21  1  0
 23 22  1  0
 24 23  2  0
 25 28  1  0
 26 25  2  0
 27 23  1  0
M  END
$$$$
