RTE.pdb
     RDKit          3D

 28 27  0  0  1  0  0  0  0  0999 V2000
   12.0570  -17.0307   13.2189 N   0  0  0  0  0  0  0  0  0  0  0  0
   10.8990  -17.8059   12.8961 C   0  0  0  0  0  0  0  0  0  0  0  0
   10.9079  -18.4598   11.8029 N   0  0  0  0  0  0  0  0  0  0  0  0
    9.7627  -17.8620   13.7490 N   0  0  0  0  0  0  0  0  0  0  0  0
    9.3149  -16.6423   14.4033 C   0  0  0  0  0  0  0  0  0  0  0  0
   10.3095  -16.2513   15.4370 C   0  0  0  0  0  0  0  0  0  0  0  0
   10.0412  -14.9321   16.1024 C   0  0  0  0  0  0  0  0  0  0  0  0
    8.7509  -14.8779   16.8774 C   0  0  2  0  0  0  0  0  0  0  0  0
    7.7681  -14.1445   16.1576 N   0  0  0  0  0  0  0  0  0  0  0  0
    9.0081  -14.3517   18.2513 C   0  0  0  0  0  0  0  0  0  0  0  0
    9.3592  -13.1555   18.3522 O   0  0  0  0  0  0  0  0  0  0  0  0
   10.1600  -19.0702   11.4457 C   0  0  0  0  0  0  0  0  0  0  0  0
    7.2779  -13.0880   20.6100 C   0  0  2  0  0  0  0  0  0  0  0  0
    7.8761  -14.2774   21.3772 O   0  0  0  0  0  0  0  0  0  0  0  0
    6.8433  -15.1429   21.5799 C   0  0  2  0  0  0  0  0  0  0  0  0
    9.0927  -14.7403   20.7578 N   0  0  0  0  0  0  0  0  0  0  0  0
    8.8632  -15.1643   19.3930 C   0  0  0  0  0  0  0  0  0  0  0  0
    9.9887  -15.6717   21.4090 O   0  0  0  0  0  0  0  0  0  0  0  0
   10.7826  -16.3499   20.7143 N   0  0  0  0  0  0  0  0  0  0  0  0
   10.0732  -15.9132   22.7989 C   0  0  1  0  0  0  0  0  0  0  0  0
   11.2167  -16.3591   23.5380 C   0  0  0  0  0  0  0  0  0  0  0  0
   12.5185  -15.8536   23.0979 C   0  0  0  0  0  0  0  0  0  0  0  0
   13.5724  -16.7932   22.6700 C   0  0  0  0  0  0  0  0  0  0  0  0
   14.9132  -16.3281   22.4209 O   0  0  0  0  0  0  0  0  0  0  0  0
   15.3858  -16.4951   21.2349 C   0  0  0  0  0  0  0  0  0  0  0  0
   10.9583  -16.4192   24.9873 O   0  0  0  0  0  0  0  0  0  0  0  0
   10.2845  -15.5198   25.5499 O   0  0  0  0  0  0  0  0  0  0  0  0
   15.8027  -15.7138   23.2707 O   0  0  0  0  0  0  0  0  0  0  0  0
  2  1  1  0
  2  3  2  0
  4  2  1  0
  5  4  1  0
  6  5  1  0
  7  6  1  0
  8 10  1  0
  8  7  1  0
  8  9  1  6
 10 11  2  0
 13 12  1  1
 13 15  1  0
 14 13  1  0
 15 16  1  1
 16 10  1  0
 17 15  1  0
 18 17  2  0
 19 17  1  0
 20 19  1  0
 20 25  1  0
 20 21  1  1
 22 21  1  0
 23 22  1  0
 24 23  2  0
 25 28  1  0
 26 25  2  0
 27 23  1  0
M  END
$$$$
