RTE.pdb
     RDKit          3D

 28 27  0  0  1  0  0  0  0  0999 V2000
    6.7872  -11.8770   17.9923 N   0  0  0  0  0  0  0  0  0  0  0  0
    7.7094  -12.7519   18.6483 C   0  0  0  0  0  0  0  0  0  0  0  0
    8.7622  -12.2381   19.1485 N   0  0  0  0  0  0  0  0  0  0  0  0
    7.4826  -14.1517   18.7527 N   0  0  0  0  0  0  0  0  0  0  0  0
    8.4187  -14.9595   19.5191 C   0  0  0  0  0  0  0  0  0  0  0  0
    9.2638  -15.7458   18.5820 C   0  0  0  0  0  0  0  0  0  0  0  0
   10.0797  -14.9226   17.6273 C   0  0  0  0  0  0  0  0  0  0  0  0
   10.9897  -15.7253   16.7352 C   0  0  2  0  0  0  0  0  0  0  0  0
   10.2959  -16.8403   16.1900 N   0  0  0  0  0  0  0  0  0  0  0  0
   12.2308  -16.0943   17.4798 C   0  0  0  0  0  0  0  0  0  0  0  0
   12.3294  -17.2738   17.8839 O   0  0  0  0  0  0  0  0  0  0  0  0
    9.5388  -12.7428   19.5975 C   0  0  0  0  0  0  0  0  0  0  0  0
   15.2859  -15.9927   15.9445 C   0  0  2  0  0  0  0  0  0  0  0  0
   15.5923  -15.2370   17.2469 O   0  0  0  0  0  0  0  0  0  0  0  0
   15.9020  -13.9644   16.8711 C   0  0  2  0  0  0  0  0  0  0  0  0
   14.5703  -15.4669   18.2373 N   0  0  0  0  0  0  0  0  0  0  0  0
   13.2541  -15.1565   17.7211 C   0  0  0  0  0  0  0  0  0  0  0  0
   14.6836  -14.9809   19.5958 O   0  0  0  0  0  0  0  0  0  0  0  0
   14.4113  -13.7824   19.8453 N   0  0  0  0  0  0  0  0  0  0  0  0
   15.0835  -15.7372   20.7205 C   0  0  1  0  0  0  0  0  0  0  0  0
   15.3562  -15.2559   22.0422 C   0  0  0  0  0  0  0  0  0  0  0  0
   14.6669  -15.9348   23.1413 C   0  0  0  0  0  0  0  0  0  0  0  0
   13.1942  -16.0232   23.1506 C   0  0  0  0  0  0  0  0  0  0  0  0
   12.5098  -16.7587   24.1834 O   0  0  0  0  0  0  0  0  0  0  0  0
   13.2312  -17.2856   25.1106 C   0  0  0  0  0  0  0  0  0  0  0  0
   16.7762  -14.9118   22.2311 O   0  0  0  0  0  0  0  0  0  0  0  0
   17.1573  -14.3457   23.2864 O   0  0  0  0  0  0  0  0  0  0  0  0
   11.1660  -16.9994   24.3479 O   0  0  0  0  0  0  0  0  0  0  0  0
  2  1  1  0
  2  3  2  0
  4  2  1  0
  5  4  1  0
  6  5  1  0
  7  6  1  0
  8 10  1  0
  8  7  1  0
  8  9  1  1
 10 11  2  0
 13 12  1  6
 13 15  1  0
 14 13  1  0
 15 16  1  1
 16 10  1  0
 17 15  1  0
 18 17  2  0
 19 17  1  0
 20 19  1  0
 20 25  1  0
 20 21  1  1
 22 21  1  0
 23 22  1  0
 24 23  2  0
 25 28  1  0
 26 25  2  0
 27 23  1  0
M  END
$$$$
