RTE.pdb
     RDKit          3D

 28 27  0  0  1  0  0  0  0  0999 V2000
    8.0332  -11.4285   21.0782 N   0  0  0  0  0  0  0  0  0  0  0  0
    7.9902  -12.2186   19.8866 C   0  0  0  0  0  0  0  0  0  0  0  0
    8.7441  -11.8753   18.9189 N   0  0  0  0  0  0  0  0  0  0  0  0
    7.1435  -13.3540   19.7602 N   0  0  0  0  0  0  0  0  0  0  0  0
    7.7113  -14.6788   19.9577 C   0  0  0  0  0  0  0  0  0  0  0  0
    6.6222  -15.6891   19.8963 C   0  0  0  0  0  0  0  0  0  0  0  0
    7.0579  -17.1019   20.1589 C   0  0  0  0  0  0  0  0  0  0  0  0
    7.8435  -17.7288   19.0371 C   0  0  2  0  0  0  0  0  0  0  0  0
    7.0343  -18.6490   18.3160 N   0  0  0  0  0  0  0  0  0  0  0  0
    9.1024  -18.3268   19.5743 C   0  0  0  0  0  0  0  0  0  0  0  0
    9.0139  -19.4367   20.1440 O   0  0  0  0  0  0  0  0  0  0  0  0
    8.8495  -12.3633   18.0188 C   0  0  0  0  0  0  0  0  0  0  0  0
   12.7480  -17.6084   17.8636 C   0  0  2  0  0  0  0  0  0  0  0  0
   12.4412  -18.6823   18.9190 O   0  0  0  0  0  0  0  0  0  0  0  0
   13.6405  -19.2523   19.2250 C   0  0  1  0  0  0  0  0  0  0  0  0
   11.6037  -18.1589   19.9690 N   0  0  0  0  0  0  0  0  0  0  0  0
   10.3438  -17.6727   19.4480 C   0  0  0  0  0  0  0  0  0  0  0  0
   12.0994  -17.2393   20.9706 O   0  0  0  0  0  0  0  0  0  0  0  0
   11.8948  -16.0097   20.8322 N   0  0  0  0  0  0  0  0  0  0  0  0
   12.8187  -17.5859   22.1366 C   0  0  1  0  0  0  0  0  0  0  0  0
   13.3067  -16.7031   23.1542 C   0  0  0  0  0  0  0  0  0  0  0  0
   12.6441  -16.7770   24.4578 C   0  0  0  0  0  0  0  0  0  0  0  0
   12.9135  -17.9104   25.3631 C   0  0  0  0  0  0  0  0  0  0  0  0
   12.2246  -18.0227   26.6235 O   0  0  0  0  0  0  0  0  0  0  0  0
   12.5173  -19.0306   27.3693 C   0  0  0  0  0  0  0  0  0  0  0  0
   14.7752  -16.5856   23.1366 O   0  0  0  0  0  0  0  0  0  0  0  0
   15.4704  -17.4101   22.4916 O   0  0  0  0  0  0  0  0  0  0  0  0
   11.2724  -17.2021   27.1811 O   0  0  0  0  0  0  0  0  0  0  0  0
  2  1  1  0
  2  3  2  0
  4  2  1  0
  5  4  1  0
  6  5  1  0
  7  6  1  0
  8 10  1  0
  8  7  1  0
  8  9  1  1
 10 11  2  0
 13 12  1  6
 13 15  1  0
 14 13  1  0
 15 16  1  6
 16 10  1  0
 17 15  1  0
 18 17  2  0
 19 17  1  0
 20 19  1  0
 20 25  1  0
 20 21  1  1
 22 21  1  0
 23 22  1  0
 24 23  2  0
 25 28  1  0
 26 25  2  0
 27 23  1  0
M  END
$$$$
