RTE.pdb
     RDKit          3D

 28 27  0  0  1  0  0  0  0  0999 V2000
    7.5924  -12.7641   21.0350 N   0  0  0  0  0  0  0  0  0  0  0  0
    8.2286  -12.6711   19.7572 C   0  0  0  0  0  0  0  0  0  0  0  0
    8.2587  -11.5308   19.1902 N   0  0  0  0  0  0  0  0  0  0  0  0
    8.8155  -13.7982   19.1190 N   0  0  0  0  0  0  0  0  0  0  0  0
    7.9835  -14.9579   18.8375 C   0  0  0  0  0  0  0  0  0  0  0  0
    7.5759  -15.5877   20.1212 C   0  0  0  0  0  0  0  0  0  0  0  0
    8.5617  -16.5726   20.6807 C   0  0  0  0  0  0  0  0  0  0  0  0
    9.1610  -17.5015   19.6577 C   0  0  2  0  0  0  0  0  0  0  0  0
    8.1703  -18.3827   19.1442 N   0  0  0  0  0  0  0  0  0  0  0  0
   10.3442  -18.2011   20.2420 C   0  0  0  0  0  0  0  0  0  0  0  0
   10.1222  -19.1138   21.0678 O   0  0  0  0  0  0  0  0  0  0  0  0
    8.6509  -11.3154   18.2633 C   0  0  0  0  0  0  0  0  0  0  0  0
   13.2623  -19.3045   18.0558 C   0  0  2  0  0  0  0  0  0  0  0  0
   13.8454  -18.6205   19.3021 O   0  0  0  0  0  0  0  0  0  0  0  0
   14.4785  -17.5027   18.8476 C   0  0  2  0  0  0  0  0  0  0  0  0
   12.8603  -18.5147   20.3492 N   0  0  0  0  0  0  0  0  0  0  0  0
   11.6609  -17.8524   19.8822 C   0  0  0  0  0  0  0  0  0  0  0  0
   13.1878  -18.0411   21.6771 O   0  0  0  0  0  0  0  0  0  0  0  0
   12.8882  -16.8678   22.0033 N   0  0  0  0  0  0  0  0  0  0  0  0
   13.8349  -18.7838   22.6904 C   0  0  1  0  0  0  0  0  0  0  0  0
   14.1836  -18.3411   24.0076 C   0  0  0  0  0  0  0  0  0  0  0  0
   13.6396  -19.1163   25.1243 C   0  0  0  0  0  0  0  0  0  0  0  0
   13.9512  -18.7325   26.5144 C   0  0  0  0  0  0  0  0  0  0  0  0
   13.4936  -19.5378   27.6181 O   0  0  0  0  0  0  0  0  0  0  0  0
   13.5464  -20.8166   27.4783 C   0  0  0  0  0  0  0  0  0  0  0  0
   15.5867  -17.9005   24.0972 O   0  0  0  0  0  0  0  0  0  0  0  0
   16.4169  -18.2425   23.2180 O   0  0  0  0  0  0  0  0  0  0  0  0
   12.9920  -19.1524   28.8390 O   0  0  0  0  0  0  0  0  0  0  0  0
  2  1  1  0
  2  3  2  0
  4  2  1  0
  5  4  1  0
  6  5  1  0
  7  6  1  0
  8 10  1  0
  8  7  1  0
  8  9  1  1
 10 11  2  0
 13 12  1  6
 13 15  1  0
 14 13  1  0
 15 16  1  1
 16 10  1  0
 17 15  1  0
 18 17  2  0
 19 17  1  0
 20 19  1  0
 20 25  1  0
 20 21  1  1
 22 21  1  0
 23 22  1  0
 24 23  2  0
 25 28  1  0
 26 25  2  0
 27 23  1  0
M  END
$$$$
