RTE.pdb
     RDKit          3D

 28 27  0  0  1  0  0  0  0  0999 V2000
    7.7269  -14.9177   15.4656 N   0  0  0  0  0  0  0  0  0  0  0  0
    7.4984  -13.7465   16.2545 C   0  0  0  0  0  0  0  0  0  0  0  0
    6.3567  -13.1877   16.1709 N   0  0  0  0  0  0  0  0  0  0  0  0
    8.4949  -13.2035   17.1112 N   0  0  0  0  0  0  0  0  0  0  0  0
    8.2318  -13.1371   18.5405 C   0  0  0  0  0  0  0  0  0  0  0  0
    7.6686  -14.4367   18.9926 C   0  0  0  0  0  0  0  0  0  0  0  0
    7.1947  -14.4566   20.4173 C   0  0  0  0  0  0  0  0  0  0  0  0
    8.2552  -14.1127   21.4300 C   0  0  2  0  0  0  0  0  0  0  0  0
    9.4652  -13.7466   20.7791 N   0  0  0  0  0  0  0  0  0  0  0  0
    8.4104  -15.2369   22.4009 C   0  0  0  0  0  0  0  0  0  0  0  0
    7.4096  -15.5498   23.0826 O   0  0  0  0  0  0  0  0  0  0  0  0
    6.0429  -12.3514   16.6823 C   0  0  0  0  0  0  0  0  0  0  0  0
    8.5530  -18.5810   22.2220 C   0  0  1  0  0  0  0  0  0  0  0  0
    8.7977  -17.9064   23.5808 O   0  0  0  0  0  0  0  0  0  0  0  0
    8.8218  -18.9163   24.4953 C   0  0  1  0  0  0  0  0  0  0  0  0
    9.8931  -16.9720   23.5107 N   0  0  0  0  0  0  0  0  0  0  0  0
    9.6323  -15.9224   22.5487 C   0  0  0  0  0  0  0  0  0  0  0  0
   11.2711  -17.3997   23.3974 O   0  0  0  0  0  0  0  0  0  0  0  0
   11.6721  -17.9056   22.3222 N   0  0  0  0  0  0  0  0  0  0  0  0
   12.2575  -17.3075   24.4052 C   0  0  1  0  0  0  0  0  0  0  0  0
   13.6353  -17.6900   24.3137 C   0  0  0  0  0  0  0  0  0  0  0  0
   14.5981  -16.6150   24.0664 C   0  0  0  0  0  0  0  0  0  0  0  0
   16.0408  -16.9149   23.9912 C   0  0  0  0  0  0  0  0  0  0  0  0
   16.9973  -15.8639   23.7535 O   0  0  0  0  0  0  0  0  0  0  0  0
   17.7085  -15.4749   24.7538 C   0  0  0  0  0  0  0  0  0  0  0  0
   13.9970  -18.7213   25.3018 O   0  0  0  0  0  0  0  0  0  0  0  0
   13.3129  -18.8679   26.3458 O   0  0  0  0  0  0  0  0  0  0  0  0
   17.2861  -15.1839   22.5938 O   0  0  0  0  0  0  0  0  0  0  0  0
  2  1  1  0
  2  3  2  0
  4  2  1  0
  5  4  1  0
  6  5  1  0
  7  6  1  0
  8 10  1  0
  8  7  1  0
  8  9  1  6
 10 11  2  0
 13 12  1  1
 13 15  1  0
 14 13  1  0
 15 16  1  1
 16 10  1  0
 17 15  1  0
 18 17  2  0
 19 17  1  0
 20 19  1  0
 20 25  1  0
 20 21  1  1
 22 21  1  0
 23 22  1  0
 24 23  2  0
 25 28  1  0
 26 25  2  0
 27 23  1  0
M  END
$$$$
