NST.pdb
     RDKit          3D

 22 21  0  0  1  0  0  0  0  0999 V2000
    6.0114  -19.0701   16.2641 N   0  0  0  0  0  0  0  0  0  0  0  0
    6.7909  -19.7918   17.2204 C   0  0  0  0  0  0  0  0  0  0  0  0
    6.6212  -21.0328   17.3338 O   0  0  0  0  0  0  0  0  0  0  0  0
    7.7836  -19.0758   18.0624 C   0  0  0  0  0  0  0  0  0  0  0  0
    7.6304  -17.5751   17.8337 C   0  0  2  0  0  0  0  0  0  0  0  0
    8.2454  -17.3020   16.5431 N   0  0  0  0  0  0  0  0  0  0  0  0
    8.3261  -16.8110   18.9084 C   0  0  0  0  0  0  0  0  0  0  0  0
    9.5610  -16.7772   19.0303 O   0  0  0  0  0  0  0  0  0  0  0  0
    7.7305  -13.6048   22.5007 O   0  0  0  0  0  0  0  0  0  0  0  0
    7.1378  -14.2969   21.4545 C   0  0  0  0  0  0  0  0  0  0  0  0
    8.1538  -15.2638   20.8856 C   0  0  2  0  0  0  0  0  0  0  0  0
    7.5525  -16.0847   19.8409 N   0  0  0  0  0  0  0  0  0  0  0  0
    8.7799  -16.1303   21.8876 C   0  0  0  0  0  0  0  0  0  0  0  0
    8.1298  -17.1605   22.2670 O   0  0  0  0  0  0  0  0  0  0  0  0
   11.7382  -18.2147   21.7628 C   0  0  0  0  0  0  0  0  0  0  0  0
   11.9035  -17.4375   23.0463 C   0  0  1  0  0  0  0  0  0  0  0  0
   12.8349  -16.4364   22.8363 O   0  0  0  0  0  0  0  0  0  0  0  0
   10.5537  -16.8866   23.4441 C   0  0  2  0  0  0  0  0  0  0  0  0
   10.0548  -15.9204   22.4741 N   0  0  0  0  0  0  0  0  0  0  0  0
   10.6231  -16.2257   24.7640 C   0  0  0  0  0  0  0  0  0  0  0  0
   10.9748  -16.9091   25.9266 O   0  0  0  0  0  0  0  0  0  0  0  0
   10.3637  -14.9971   24.8998 O   0  0  0  0  0  0  0  0  0  0  0  0
  1  2  1  0
  2  3  2  0
  2  4  1  0
  4  5  1  0
  5  6  1  6
  5  7  1  0
  7  8  2  0
  9 10  1  0
 11 10  1  1
 11 13  1  0
 12  7  1  0
 12 11  1  0
 13 14  2  0
 16 15  1  6
 16 18  1  0
 17 16  1  0
 18 20  1  0
 19 13  1  0
 18 19  1  6
 20 22  2  0
 20 21  1  0
M  END
$$$$
