NST.pdb
     RDKit          3D

 22 21  0  0  1  0  0  0  0  0999 V2000
    8.8496  -19.3498   15.8584 N   0  0  0  0  0  0  0  0  0  0  0  0
    9.5999  -18.1677   15.5713 C   0  0  0  0  0  0  0  0  0  0  0  0
   10.0540  -18.0003   14.4105 O   0  0  0  0  0  0  0  0  0  0  0  0
    9.8336  -17.1587   16.6365 C   0  0  0  0  0  0  0  0  0  0  0  0
    9.2865  -17.6997   17.9541 C   0  0  2  0  0  0  0  0  0  0  0  0
    7.8379  -17.7076   17.8128 N   0  0  0  0  0  0  0  0  0  0  0  0
    9.6893  -16.8174   19.0864 C   0  0  0  0  0  0  0  0  0  0  0  0
   10.8622  -16.4682   19.2943 O   0  0  0  0  0  0  0  0  0  0  0  0
    6.8272  -15.6094   22.0055 O   0  0  0  0  0  0  0  0  0  0  0  0
    7.7905  -14.7187   21.5543 C   0  0  0  0  0  0  0  0  0  0  0  0
    9.0079  -15.5089   21.1250 C   0  0  2  0  0  0  0  0  0  0  0  0
    8.6957  -16.3484   19.9742 N   0  0  0  0  0  0  0  0  0  0  0  0
    9.5897  -16.3334   22.1874 C   0  0  0  0  0  0  0  0  0  0  0  0
    9.1391  -17.5188   22.3291 O   0  0  0  0  0  0  0  0  0  0  0  0
   13.0822  -17.4088   22.6626 C   0  0  0  0  0  0  0  0  0  0  0  0
   12.6436  -16.9403   24.0289 C   0  0  1  0  0  0  0  0  0  0  0  0
   13.2188  -15.7064   24.2753 O   0  0  0  0  0  0  0  0  0  0  0  0
   11.1337  -16.8796   24.0472 C   0  0  2  0  0  0  0  0  0  0  0  0
   10.6174  -15.9239   23.0759 N   0  0  0  0  0  0  0  0  0  0  0  0
   10.6385  -16.4951   25.3853 C   0  0  0  0  0  0  0  0  0  0  0  0
   10.8487  -17.2815   26.5166 O   0  0  0  0  0  0  0  0  0  0  0  0
    9.9947  -15.4237   25.5664 O   0  0  0  0  0  0  0  0  0  0  0  0
  1  2  1  0
  2  3  2  0
  2  4  1  0
  4  5  1  0
  5  6  1  6
  5  7  1  0
  7  8  2  0
  9 10  1  0
 11 10  1  1
 11 13  1  0
 12  7  1  0
 12 11  1  0
 13 14  2  0
 16 15  1  6
 16 18  1  0
 17 16  1  0
 18 20  1  0
 19 13  1  0
 18 19  1  6
 20 22  2  0
 20 21  1  0
M  END
$$$$
