NST.pdb
     RDKit          3D

 22 21  0  0  1  0  0  0  0  0999 V2000
    7.2277  -16.0613   14.9755 N   0  0  0  0  0  0  0  0  0  0  0  0
    8.5676  -15.5653   15.0122 C   0  0  0  0  0  0  0  0  0  0  0  0
    9.2188  -15.4872   13.9391 O   0  0  0  0  0  0  0  0  0  0  0  0
    9.1717  -15.1513   16.3049 C   0  0  0  0  0  0  0  0  0  0  0  0
    8.1171  -14.4164   17.1269 C   0  0  2  0  0  0  0  0  0  0  0  0
    7.9097  -13.1387   16.4615 N   0  0  0  0  0  0  0  0  0  0  0  0
    8.6011  -14.1995   18.5202 C   0  0  0  0  0  0  0  0  0  0  0  0
    9.5654  -13.4698   18.8008 O   0  0  0  0  0  0  0  0  0  0  0  0
    7.3157  -14.0925   23.0910 O   0  0  0  0  0  0  0  0  0  0  0  0
    6.9718  -14.3556   21.7729 C   0  0  0  0  0  0  0  0  0  0  0  0
    8.2436  -14.5762   20.9825 C   0  0  2  0  0  0  0  0  0  0  0  0
    7.9376  -14.8512   19.5835 N   0  0  0  0  0  0  0  0  0  0  0  0
    9.0996  -15.6403   21.5134 C   0  0  0  0  0  0  0  0  0  0  0  0
    8.8216  -16.8415   21.1847 O   0  0  0  0  0  0  0  0  0  0  0  0
   13.1843  -17.4911   23.4469 C   0  0  0  0  0  0  0  0  0  0  0  0
   12.4417  -16.2360   23.0573 C   0  0  1  0  0  0  0  0  0  0  0  0
   13.0671  -15.6801   21.9556 O   0  0  0  0  0  0  0  0  0  0  0  0
   11.0044  -16.6049   22.7715 C   0  0  2  0  0  0  0  0  0  0  0  0
   10.2176  -15.4474   22.3656 N   0  0  0  0  0  0  0  0  0  0  0  0
   10.3678  -17.2042   23.9628 C   0  0  0  0  0  0  0  0  0  0  0  0
    9.4816  -16.4978   24.7740 O   0  0  0  0  0  0  0  0  0  0  0  0
   10.6009  -18.3978   24.3037 O   0  0  0  0  0  0  0  0  0  0  0  0
  1  2  1  0
  2  3  2  0
  2  4  1  0
  4  5  1  0
  5  6  1  6
  5  7  1  0
  7  8  2  0
  9 10  1  0
 11 10  1  1
 11 13  1  0
 12  7  1  0
 12 11  1  0
 13 14  2  0
 16 15  1  6
 16 18  1  0
 17 16  1  0
 18 20  1  0
 19 13  1  0
 18 19  1  1
 20 22  2  0
 20 21  1  0
M  END
$$$$
