NST.pdb
     RDKit          3D

 22 21  0  0  1  0  0  0  0  0999 V2000
    7.7732  -12.0914   18.7934 N   0  0  0  0  0  0  0  0  0  0  0  0
    7.8583  -13.4914   19.0679 C   0  0  0  0  0  0  0  0  0  0  0  0
    8.2071  -14.2736   18.1469 O   0  0  0  0  0  0  0  0  0  0  0  0
    7.5369  -14.0036   20.4250 C   0  0  0  0  0  0  0  0  0  0  0  0
    8.8241  -14.4901   21.0841 C   0  0  2  0  0  0  0  0  0  0  0  0
    9.3450  -15.5385   20.2193 N   0  0  0  0  0  0  0  0  0  0  0  0
    8.5396  -15.0357   22.4420 C   0  0  0  0  0  0  0  0  0  0  0  0
    7.8679  -14.4306   23.2926 O   0  0  0  0  0  0  0  0  0  0  0  0
    7.8483  -18.9614   23.5762 O   0  0  0  0  0  0  0  0  0  0  0  0
    9.0259  -18.3996   24.0478 C   0  0  0  0  0  0  0  0  0  0  0  0
    8.8483  -16.8976   24.1066 C   0  0  2  0  0  0  0  0  0  0  0  0
    9.0545  -16.3042   22.7905 N   0  0  0  0  0  0  0  0  0  0  0  0
    9.7139  -16.2317   25.0834 C   0  0  0  0  0  0  0  0  0  0  0  0
   10.9105  -15.9664   24.7285 O   0  0  0  0  0  0  0  0  0  0  0  0
    9.5255  -12.9292   27.0090 C   0  0  0  0  0  0  0  0  0  0  0  0
    9.7493  -14.0413   28.0050 C   0  0  1  0  0  0  0  0  0  0  0  0
    8.5422  -14.3347   28.6138 O   0  0  0  0  0  0  0  0  0  0  0  0
   10.3203  -15.2303   27.2676 C   0  0  2  0  0  0  0  0  0  0  0  0
    9.3323  -15.8542   26.3969 N   0  0  0  0  0  0  0  0  0  0  0  0
   10.8134  -16.2507   28.2160 C   0  0  0  0  0  0  0  0  0  0  0  0
   11.8013  -15.9799   29.1611 O   0  0  0  0  0  0  0  0  0  0  0  0
   10.3566  -17.4282   28.2128 O   0  0  0  0  0  0  0  0  0  0  0  0
  1  2  1  0
  2  3  2  0
  2  4  1  0
  4  5  1  0
  5  6  1  6
  5  7  1  0
  7  8  2  0
  9 10  1  0
 11 10  1  6
 11 13  1  0
 12  7  1  0
 12 11  1  0
 13 14  2  0
 16 15  1  6
 16 18  1  0
 17 16  1  0
 18 20  1  0
 19 13  1  0
 18 19  1  1
 20 22  2  0
 20 21  1  0
M  END
$$$$
