NST.pdb
     RDKit          3D

 22 21  0  0  1  0  0  0  0  0999 V2000
    9.9077  -16.8937   15.4690 N   0  0  0  0  0  0  0  0  0  0  0  0
   10.7149  -16.1982   16.4217 C   0  0  0  0  0  0  0  0  0  0  0  0
   11.9645  -16.1996   16.2791 O   0  0  0  0  0  0  0  0  0  0  0  0
   10.0761  -15.4880   17.5596 C   0  0  0  0  0  0  0  0  0  0  0  0
    8.5665  -15.6958   17.4832 C   0  0  2  0  0  0  0  0  0  0  0  0
    8.0812  -14.7452   16.4936 N   0  0  0  0  0  0  0  0  0  0  0  0
    7.9365  -15.4282   18.8076 C   0  0  0  0  0  0  0  0  0  0  0  0
    7.5027  -14.3145   19.1433 O   0  0  0  0  0  0  0  0  0  0  0  0
    7.1102  -18.6853   21.4662 O   0  0  0  0  0  0  0  0  0  0  0  0
    6.2081  -17.6884   21.1237 C   0  0  0  0  0  0  0  0  0  0  0  0
    6.9753  -16.3995   20.9207 C   0  0  2  0  0  0  0  0  0  0  0  0
    7.8212  -16.4866   19.7360 N   0  0  0  0  0  0  0  0  0  0  0  0
    7.7881  -16.0006   22.0727 C   0  0  0  0  0  0  0  0  0  0  0  0
    9.0561  -16.0880   21.9599 O   0  0  0  0  0  0  0  0  0  0  0  0
    7.7750  -12.7841   24.3372 C   0  0  0  0  0  0  0  0  0  0  0  0
    7.7402  -14.0209   25.2020 C   0  0  1  0  0  0  0  0  0  0  0  0
    6.4472  -14.1996   25.6604 O   0  0  0  0  0  0  0  0  0  0  0  0
    8.2192  -15.1914   24.3750 C   0  0  2  0  0  0  0  0  0  0  0  0
    7.2823  -15.5221   23.3091 N   0  0  0  0  0  0  0  0  0  0  0  0
    8.4052  -16.3907   25.2182 C   0  0  0  0  0  0  0  0  0  0  0  0
    9.2931  -16.4212   26.2920 O   0  0  0  0  0  0  0  0  0  0  0  0
    7.7604  -17.4548   25.0010 O   0  0  0  0  0  0  0  0  0  0  0  0
  1  2  1  0
  2  3  2  0
  2  4  1  0
  4  5  1  0
  5  6  1  6
  5  7  1  0
  7  8  2  0
  9 10  1  0
 11 10  1  1
 11 13  1  0
 12  7  1  0
 12 11  1  0
 13 14  2  0
 16 15  1  6
 16 18  1  0
 17 16  1  0
 18 20  1  0
 19 13  1  0
 18 19  1  6
 20 22  2  0
 20 21  1  0
M  END
$$$$
