NST.pdb
     RDKit          3D

 22 21  0  0  1  0  0  0  0  0999 V2000
   13.9027  -17.8062   20.3574 N   0  0  0  0  0  0  0  0  0  0  0  0
   13.0768  -16.7715   19.8187 C   0  0  0  0  0  0  0  0  0  0  0  0
   13.2443  -16.4174   18.6236 O   0  0  0  0  0  0  0  0  0  0  0  0
   12.0392  -16.1311   20.6675 C   0  0  0  0  0  0  0  0  0  0  0  0
   10.9316  -17.1449   20.9383 C   0  0  2  0  0  0  0  0  0  0  0  0
   10.1251  -17.1896   19.7275 N   0  0  0  0  0  0  0  0  0  0  0  0
   10.0994  -16.7099   22.0963 C   0  0  0  0  0  0  0  0  0  0  0  0
    9.2153  -15.8426   22.0125 O   0  0  0  0  0  0  0  0  0  0  0  0
    9.4388  -19.2885   25.3228 O   0  0  0  0  0  0  0  0  0  0  0  0
    8.6059  -18.3242   24.7741 C   0  0  0  0  0  0  0  0  0  0  0  0
    9.4295  -17.0859   24.4926 C   0  0  2  0  0  0  0  0  0  0  0  0
   10.3180  -17.3072   23.3576 N   0  0  0  0  0  0  0  0  0  0  0  0
   10.2105  -16.6149   25.6394 C   0  0  0  0  0  0  0  0  0  0  0  0
   11.4629  -16.8591   25.6418 O   0  0  0  0  0  0  0  0  0  0  0  0
   10.2289  -13.0986   27.5670 C   0  0  0  0  0  0  0  0  0  0  0  0
   10.1171  -14.2580   28.5272 C   0  0  1  0  0  0  0  0  0  0  0  0
    8.7999  -14.3625   28.9374 O   0  0  0  0  0  0  0  0  0  0  0  0
   10.5956  -15.5057   27.8218 C   0  0  2  0  0  0  0  0  0  0  0  0
    9.6898  -15.9057   26.7527 N   0  0  0  0  0  0  0  0  0  0  0  0
   10.7200  -16.6319   28.7705 C   0  0  0  0  0  0  0  0  0  0  0  0
   11.5581  -16.5853   29.8830 O   0  0  0  0  0  0  0  0  0  0  0  0
   10.0648  -17.7003   28.6139 O   0  0  0  0  0  0  0  0  0  0  0  0
  1  2  1  0
  2  3  2  0
  2  4  1  0
  4  5  1  0
  5  6  1  6
  5  7  1  0
  7  8  2  0
  9 10  1  0
 11 10  1  1
 11 13  1  0
 12  7  1  0
 12 11  1  0
 13 14  2  0
 16 15  1  6
 16 18  1  0
 17 16  1  0
 18 20  1  0
 19 13  1  0
 18 19  1  6
 20 22  2  0
 20 21  1  0
M  END
$$$$
