NST.pdb
     RDKit          3D

 22 21  0  0  1  0  0  0  0  0999 V2000
    8.4859  -13.0297   16.4134 N   0  0  0  0  0  0  0  0  0  0  0  0
    8.4671  -14.3390   16.9864 C   0  0  0  0  0  0  0  0  0  0  0  0
    9.1710  -15.2425   16.4667 O   0  0  0  0  0  0  0  0  0  0  0  0
    7.6245  -14.6167   18.1780 C   0  0  0  0  0  0  0  0  0  0  0  0
    8.4919  -14.5098   19.4287 C   0  0  2  0  0  0  0  0  0  0  0  0
    9.5751  -15.4650   19.2474 N   0  0  0  0  0  0  0  0  0  0  0  0
    7.6988  -14.8541   20.6433 C   0  0  0  0  0  0  0  0  0  0  0  0
    6.4630  -14.7525   20.7016 O   0  0  0  0  0  0  0  0  0  0  0  0
    7.0598  -17.5910   24.3174 O   0  0  0  0  0  0  0  0  0  0  0  0
    7.7636  -17.2406   23.1743 C   0  0  0  0  0  0  0  0  0  0  0  0
    7.6721  -15.7401   22.9984 C   0  0  2  0  0  0  0  0  0  0  0  0
    8.3758  -15.3206   21.7920 N   0  0  0  0  0  0  0  0  0  0  0  0
    8.1679  -14.9733   24.1444 C   0  0  0  0  0  0  0  0  0  0  0  0
    9.4212  -14.7412   24.2024 O   0  0  0  0  0  0  0  0  0  0  0  0
    6.8346  -11.5420   25.8473 C   0  0  0  0  0  0  0  0  0  0  0  0
    7.0367  -12.6613   26.8397 C   0  0  1  0  0  0  0  0  0  0  0  0
    5.8056  -13.2264   27.1206 O   0  0  0  0  0  0  0  0  0  0  0  0
    7.9990  -13.6597   26.2389 C   0  0  2  0  0  0  0  0  0  0  0  0
    7.3683  -14.4634   25.1999 N   0  0  0  0  0  0  0  0  0  0  0  0
    8.5266  -14.5716   27.2751 C   0  0  0  0  0  0  0  0  0  0  0  0
    8.4140  -15.9576   27.1811 O   0  0  0  0  0  0  0  0  0  0  0  0
    9.1101  -14.1310   28.3049 O   0  0  0  0  0  0  0  0  0  0  0  0
  1  2  1  0
  2  3  2  0
  2  4  1  0
  4  5  1  0
  5  6  1  6
  5  7  1  0
  7  8  2  0
  9 10  1  0
 11 10  1  1
 11 13  1  0
 12  7  1  0
 12 11  1  0
 13 14  2  0
 16 15  1  6
 16 18  1  0
 17 16  1  0
 18 20  1  0
 19 13  1  0
 18 19  1  6
 20 22  2  0
 20 21  1  0
M  END
$$$$
