NST.pdb
     RDKit          3D

 22 21  0  0  1  0  0  0  0  0999 V2000
   13.6313  -17.9658   18.0410 N   0  0  0  0  0  0  0  0  0  0  0  0
   12.2541  -17.7855   17.7037 C   0  0  0  0  0  0  0  0  0  0  0  0
   11.7398  -18.5232   16.8244 O   0  0  0  0  0  0  0  0  0  0  0  0
   11.4522  -16.7388   18.3882 C   0  0  0  0  0  0  0  0  0  0  0  0
   10.6420  -17.3920   19.5039 C   0  0  2  0  0  0  0  0  0  0  0  0
    9.6432  -18.2184   18.8422 N   0  0  0  0  0  0  0  0  0  0  0  0
    9.9783  -16.3530   20.3422 C   0  0  0  0  0  0  0  0  0  0  0  0
   10.5832  -15.3892   20.8384 O   0  0  0  0  0  0  0  0  0  0  0  0
    5.9005  -16.7651   21.5783 O   0  0  0  0  0  0  0  0  0  0  0  0
    6.3795  -15.5542   21.0997 C   0  0  0  0  0  0  0  0  0  0  0  0
    7.8632  -15.4796   21.3892 C   0  0  2  0  0  0  0  0  0  0  0  0
    8.5920  -16.4591   20.5916 N   0  0  0  0  0  0  0  0  0  0  0  0
    8.2050  -15.6503   22.8037 C   0  0  0  0  0  0  0  0  0  0  0  0
    8.8181  -16.7180   23.1388 O   0  0  0  0  0  0  0  0  0  0  0  0
    6.8605  -13.2271   26.0707 C   0  0  0  0  0  0  0  0  0  0  0  0
    8.2169  -13.8868   26.1295 C   0  0  1  0  0  0  0  0  0  0  0  0
    8.4815  -14.2297   27.4434 O   0  0  0  0  0  0  0  0  0  0  0  0
    8.1979  -15.0921   25.2182 C   0  0  2  0  0  0  0  0  0  0  0  0
    7.9114  -14.7239   23.8377 N   0  0  0  0  0  0  0  0  0  0  0  0
    7.1807  -16.0693   25.6587 C   0  0  0  0  0  0  0  0  0  0  0  0
    5.9994  -16.2907   24.9531 O   0  0  0  0  0  0  0  0  0  0  0  0
    7.3378  -16.7560   26.7071 O   0  0  0  0  0  0  0  0  0  0  0  0
  1  2  1  0
  2  3  2  0
  2  4  1  0
  4  5  1  0
  5  6  1  6
  5  7  1  0
  7  8  2  0
  9 10  1  0
 11 10  1  1
 11 13  1  0
 12  7  1  0
 12 11  1  0
 13 14  2  0
 16 15  1  1
 16 18  1  0
 17 16  1  0
 18 20  1  0
 19 13  1  0
 18 19  1  6
 20 22  2  0
 20 21  1  0
M  END
$$$$
