NST.pdb
     RDKit          3D

 22 21  0  0  1  0  0  0  0  0999 V2000
    7.7462  -19.8652   19.6313 N   0  0  0  0  0  0  0  0  0  0  0  0
    7.3531  -19.4888   18.3098 C   0  0  0  0  0  0  0  0  0  0  0  0
    7.8487  -20.0999   17.3286 O   0  0  0  0  0  0  0  0  0  0  0  0
    6.3729  -18.3903   18.1104 C   0  0  0  0  0  0  0  0  0  0  0  0
    7.1172  -17.1501   17.6246 C   0  0  2  0  0  0  0  0  0  0  0  0
    7.9974  -17.6037   16.5579 N   0  0  0  0  0  0  0  0  0  0  0  0
    7.9157  -16.5544   18.7337 C   0  0  0  0  0  0  0  0  0  0  0  0
    9.1512  -16.6479   18.8104 O   0  0  0  0  0  0  0  0  0  0  0  0
    7.7385  -13.7379   22.6820 O   0  0  0  0  0  0  0  0  0  0  0  0
    7.0037  -14.3831   21.6979 C   0  0  0  0  0  0  0  0  0  0  0  0
    7.9500  -15.2270   20.8714 C   0  0  2  0  0  0  0  0  0  0  0  0
    7.2447  -15.8453   19.7547 N   0  0  0  0  0  0  0  0  0  0  0  0
    8.6526  -16.2599   21.6371 C   0  0  0  0  0  0  0  0  0  0  0  0
    8.0527  -17.3713   21.8192 O   0  0  0  0  0  0  0  0  0  0  0  0
   12.7896  -16.3837   22.5783 C   0  0  0  0  0  0  0  0  0  0  0  0
   11.9101  -17.5989   22.4092 C   0  0  1  0  0  0  0  0  0  0  0  0
   12.4761  -18.6508   23.1071 O   0  0  0  0  0  0  0  0  0  0  0  0
   10.5274  -17.2575   22.9143 C   0  0  2  0  0  0  0  0  0  0  0  0
    9.9505  -16.1289   22.1954 N   0  0  0  0  0  0  0  0  0  0  0  0
   10.5603  -16.9233   24.3534 C   0  0  0  0  0  0  0  0  0  0  0  0
   10.1698  -15.6781   24.8425 O   0  0  0  0  0  0  0  0  0  0  0  0
   10.9485  -17.7610   25.2153 O   0  0  0  0  0  0  0  0  0  0  0  0
  1  2  1  0
  2  3  2  0
  2  4  1  0
  4  5  1  0
  5  6  1  6
  5  7  1  0
  7  8  2  0
  9 10  1  0
 11 10  1  1
 11 13  1  0
 12  7  1  0
 12 11  1  0
 13 14  2  0
 16 15  1  1
 16 18  1  0
 17 16  1  0
 18 20  1  0
 19 13  1  0
 18 19  1  6
 20 22  2  0
 20 21  1  0
M  END
$$$$
