NST.pdb
     RDKit          3D

 22 21  0  0  1  0  0  0  0  0999 V2000
    9.0639  -14.3961   18.0420 N   0  0  0  0  0  0  0  0  0  0  0  0
    8.2855  -13.3916   18.6960 C   0  0  0  0  0  0  0  0  0  0  0  0
    7.9701  -12.3537   18.0595 O   0  0  0  0  0  0  0  0  0  0  0  0
    7.8611  -13.5816   20.1070 C   0  0  0  0  0  0  0  0  0  0  0  0
    8.3945  -14.9218   20.6042 C   0  0  2  0  0  0  0  0  0  0  0  0
    7.7676  -15.9364   19.7699 N   0  0  0  0  0  0  0  0  0  0  0  0
    8.0267  -15.1305   22.0338 C   0  0  0  0  0  0  0  0  0  0  0  0
    7.2155  -14.4130   22.6405 O   0  0  0  0  0  0  0  0  0  0  0  0
    7.8261  -18.2887   25.6158 O   0  0  0  0  0  0  0  0  0  0  0  0
    8.2206  -18.0261   24.3119 C   0  0  0  0  0  0  0  0  0  0  0  0
    8.2532  -16.5257   24.1158 C   0  0  2  0  0  0  0  0  0  0  0  0
    8.6243  -16.1948   22.7449 N   0  0  0  0  0  0  0  0  0  0  0  0
    9.1402  -15.8212   25.0452 C   0  0  0  0  0  0  0  0  0  0  0  0
   10.3432  -15.6155   24.6729 O   0  0  0  0  0  0  0  0  0  0  0  0
    9.0949  -12.4406   26.9123 C   0  0  0  0  0  0  0  0  0  0  0  0
    9.2979  -13.5449   27.9212 C   0  0  1  0  0  0  0  0  0  0  0  0
    8.0959  -13.7769   28.5657 O   0  0  0  0  0  0  0  0  0  0  0  0
    9.7987  -14.7689   27.1901 C   0  0  2  0  0  0  0  0  0  0  0  0
    8.7728  -15.3449   26.3304 N   0  0  0  0  0  0  0  0  0  0  0  0
   10.2419  -15.8072   28.1437 C   0  0  0  0  0  0  0  0  0  0  0  0
   11.2624  -15.5894   29.0676 O   0  0  0  0  0  0  0  0  0  0  0  0
    9.7096  -16.9524   28.1647 O   0  0  0  0  0  0  0  0  0  0  0  0
  1  2  1  0
  2  3  2  0
  2  4  1  0
  4  5  1  0
  5  6  1  6
  5  7  1  0
  7  8  2  0
  9 10  1  0
 11 10  1  6
 11 13  1  0
 12  7  1  0
 12 11  1  0
 13 14  2  0
 16 15  1  6
 16 18  1  0
 17 16  1  0
 18 20  1  0
 19 13  1  0
 18 19  1  1
 20 22  2  0
 20 21  1  0
M  END
$$$$
