NST.pdb
     RDKit          3D

 22 21  0  0  1  0  0  0  0  0999 V2000
   14.4330  -15.2909   20.3622 N   0  0  0  0  0  0  0  0  0  0  0  0
   13.6402  -14.4152   19.5575 C   0  0  0  0  0  0  0  0  0  0  0  0
   14.1570  -13.8867   18.5400 O   0  0  0  0  0  0  0  0  0  0  0  0
   12.2278  -14.1407   19.9277 C   0  0  0  0  0  0  0  0  0  0  0  0
   11.4508  -15.4537   19.9081 C   0  0  2  0  0  0  0  0  0  0  0  0
   11.2472  -15.7774   18.5037 N   0  0  0  0  0  0  0  0  0  0  0  0
   10.1378  -15.2918   20.5955 C   0  0  0  0  0  0  0  0  0  0  0  0
    9.1889  -14.6546   20.1110 O   0  0  0  0  0  0  0  0  0  0  0  0
    8.8947  -18.0053   23.4724 O   0  0  0  0  0  0  0  0  0  0  0  0
    8.0729  -17.2273   22.6698 C   0  0  0  0  0  0  0  0  0  0  0  0
    8.6763  -15.8429   22.5685 C   0  0  2  0  0  0  0  0  0  0  0  0
    9.9512  -15.8888   21.8620 N   0  0  0  0  0  0  0  0  0  0  0  0
    8.8575  -15.1746   23.8598 C   0  0  0  0  0  0  0  0  0  0  0  0
   10.0347  -15.1478   24.3512 O   0  0  0  0  0  0  0  0  0  0  0  0
    7.1527  -11.7767   25.6355 C   0  0  0  0  0  0  0  0  0  0  0  0
    7.0689  -13.0645   26.4188 C   0  0  1  0  0  0  0  0  0  0  0  0
    5.8041  -13.5991   26.2503 O   0  0  0  0  0  0  0  0  0  0  0  0
    8.1518  -13.9935   25.9209 C   0  0  2  0  0  0  0  0  0  0  0  0
    7.8299  -14.5506   24.6135 N   0  0  0  0  0  0  0  0  0  0  0  0
    8.3601  -15.1122   26.8637 C   0  0  0  0  0  0  0  0  0  0  0  0
    8.7215  -14.9128   28.1949 O   0  0  0  0  0  0  0  0  0  0  0  0
    8.2185  -16.3138   26.5014 O   0  0  0  0  0  0  0  0  0  0  0  0
  1  2  1  0
  2  3  2  0
  2  4  1  0
  4  5  1  0
  5  6  1  6
  5  7  1  0
  7  8  2  0
  9 10  1  0
 11 10  1  1
 11 13  1  0
 12  7  1  0
 12 11  1  0
 13 14  2  0
 16 15  1  6
 16 18  1  0
 17 16  1  0
 18 20  1  0
 19 13  1  0
 18 19  1  6
 20 22  2  0
 20 21  1  0
M  END
$$$$
