QDR.pdb
     RDKit          3D

 29 28  0  0  1  0  0  0  0  0999 V2000
    9.3809  -14.0346   17.2613 N   0  0  0  0  0  0  0  0  0  0  0  0
    9.0601  -14.8755   16.1607 C   0  0  0  0  0  0  0  0  0  0  0  0
    8.5870  -14.3493   15.1069 O   0  0  0  0  0  0  0  0  0  0  0  0
    9.2681  -16.3442   16.2249 C   0  0  0  0  0  0  0  0  0  0  0  0
    9.8480  -16.7125   17.5576 C   0  0  0  0  0  0  0  0  0  0  0  0
   10.2322  -18.1709   17.6371 C   0  0  2  0  0  0  0  0  0  0  0  0
    9.0058  -18.9361   17.5169 N   0  0  0  0  0  0  0  0  0  0  0  0
   10.8510  -18.4378   18.9607 C   0  0  0  0  0  0  0  0  0  0  0  0
   10.1553  -18.8348   19.9071 O   0  0  0  0  0  0  0  0  0  0  0  0
   12.2431  -18.2514   19.1905 N   0  0  0  0  0  0  0  0  0  0  0  0
   12.8867  -18.5236   20.4394 C   0  0  1  0  0  0  0  0  0  0  0  0
   14.3815  -18.4787   20.4020 C   0  0  0  0  0  0  0  0  0  0  0  0
   14.9411  -18.9582   21.6631 C   0  0  0  0  0  0  0  0  0  0  0  0
   14.7407  -18.3061   22.7344 O   0  0  0  0  0  0  0  0  0  0  0  0
   12.4163  -17.5375   21.4615 C   0  0  0  0  0  0  0  0  0  0  0  0
   12.7441  -16.3068   21.3237 O   0  0  0  0  0  0  0  0  0  0  0  0
   15.7004  -20.1063   21.7929 O   0  0  0  0  0  0  0  0  0  0  0  0
    7.3768  -12.1634   19.2863 N   0  0  0  0  0  0  0  0  0  0  0  0
    7.2885  -13.1441   20.2978 C   0  0  0  0  0  0  0  0  0  0  0  0
    6.1243  -13.4638   20.7854 N   0  0  0  0  0  0  0  0  0  0  0  0
    8.4497  -13.7915   20.7945 N   0  0  0  0  0  0  0  0  0  0  0  0
    8.3929  -14.9313   21.6823 C   0  0  0  0  0  0  0  0  0  0  0  0
    9.7870  -15.3189   22.1601 C   0  0  0  0  0  0  0  0  0  0  0  0
    9.7549  -16.5155   23.0495 C   0  0  0  0  0  0  0  0  0  0  0  0
   11.1267  -16.9409   23.5038 C   0  0  2  0  0  0  0  0  0  0  0  0
   11.6238  -17.9636   22.5574 N   0  0  0  0  0  0  0  0  0  0  0  0
   11.0210  -17.5628   24.8418 C   0  0  0  0  0  0  0  0  0  0  0  0
   11.0642  -16.8684   26.0267 O   0  0  0  0  0  0  0  0  0  0  0  0
   10.8820  -18.8362   24.9075 O   0  0  0  0  0  0  0  0  0  0  0  0
  2  1  1  0
  2  3  2  0
  4  2  1  0
  5  4  1  0
  5  6  1  0
  6  7  1  1
  8  9  2  0
  8  6  1  0
 10  8  1  0
 11 10  1  0
 12 13  1  0
 11 12  1  6
 13 17  1  0
 13 14  2  0
 15 16  2  0
 15 11  1  0
 19 20  2  0
 19 18  1  0
 21 19  1  0
 22 21  1  0
 23 22  1  0
 25 24  1  6
 24 23  1  0
 25 26  1  0
 26 15  1  0
 27 25  1  0
 28 27  1  0
 29 27  2  0
M  END
$$$$
