QDR.pdb
     RDKit          3D

 29 28  0  0  1  0  0  0  0  0999 V2000
   12.2595  -20.0643   18.7129 N   0  0  0  0  0  0  0  0  0  0  0  0
   11.4565  -18.9897   18.2419 C   0  0  0  0  0  0  0  0  0  0  0  0
   11.0026  -19.0392   17.0575 O   0  0  0  0  0  0  0  0  0  0  0  0
   11.1443  -17.8229   19.1054 C   0  0  0  0  0  0  0  0  0  0  0  0
   11.9231  -17.9198   20.3830 C   0  0  0  0  0  0  0  0  0  0  0  0
   11.0560  -18.2959   21.5609 C   0  0  2  0  0  0  0  0  0  0  0  0
    9.8292  -18.8495   21.0203 N   0  0  0  0  0  0  0  0  0  0  0  0
   10.7417  -17.0722   22.3418 C   0  0  0  0  0  0  0  0  0  0  0  0
   11.6561  -16.3649   22.7899 O   0  0  0  0  0  0  0  0  0  0  0  0
    9.4014  -16.6706   22.6018 N   0  0  0  0  0  0  0  0  0  0  0  0
    9.0519  -15.5294   23.3916 C   0  0  1  0  0  0  0  0  0  0  0  0
    7.7971  -14.8316   22.9716 C   0  0  0  0  0  0  0  0  0  0  0  0
    8.0071  -14.1060   21.7214 C   0  0  0  0  0  0  0  0  0  0  0  0
    9.1681  -14.0473   21.2097 O   0  0  0  0  0  0  0  0  0  0  0  0
    8.8969  -15.9472   24.8198 C   0  0  0  0  0  0  0  0  0  0  0  0
    8.2191  -17.0024   25.0808 O   0  0  0  0  0  0  0  0  0  0  0  0
    7.0097  -13.4521   21.0222 O   0  0  0  0  0  0  0  0  0  0  0  0
   10.4540  -18.8324   31.0170 N   0  0  0  0  0  0  0  0  0  0  0  0
   11.3691  -19.7187   30.4088 C   0  0  0  0  0  0  0  0  0  0  0  0
   12.3549  -20.2056   31.1063 N   0  0  0  0  0  0  0  0  0  0  0  0
   11.2334  -20.0913   29.0461 N   0  0  0  0  0  0  0  0  0  0  0  0
   11.3610  -19.1469   27.9586 C   0  0  0  0  0  0  0  0  0  0  0  0
   10.4423  -17.9492   28.1676 C   0  0  0  0  0  0  0  0  0  0  0  0
   10.6197  -16.9224   27.1007 C   0  0  0  0  0  0  0  0  0  0  0  0
    9.6166  -15.8026   27.1970 C   0  0  2  0  0  0  0  0  0  0  0  0
    9.4915  -15.1861   25.8580 N   0  0  0  0  0  0  0  0  0  0  0  0
   10.1271  -14.7761   28.1319 C   0  0  0  0  0  0  0  0  0  0  0  0
   10.5395  -13.5203   27.7566 O   0  0  0  0  0  0  0  0  0  0  0  0
   10.1942  -15.0728   29.3779 O   0  0  0  0  0  0  0  0  0  0  0  0
  2  1  1  0
  2  3  2  0
  4  2  1  0
  5  4  1  0
  5  6  1  0
  6  7  1  6
  8  9  2  0
  8  6  1  0
 10  8  1  0
 11 10  1  0
 12 13  1  0
 11 12  1  6
 13 17  1  0
 13 14  2  0
 15 16  2  0
 15 11  1  0
 19 20  2  0
 19 18  1  0
 21 19  1  0
 22 21  1  0
 23 22  1  0
 25 24  1  6
 24 23  1  0
 25 26  1  0
 26 15  1  0
 27 25  1  0
 28 27  1  0
 29 27  2  0
M  END
$$$$
