QDR.pdb
     RDKit          3D

 29 28  0  0  1  0  0  0  0  0999 V2000
    6.9612  -13.3754   17.0080 N   0  0  0  0  0  0  0  0  0  0  0  0
    8.0185  -14.2714   16.6902 C   0  0  0  0  0  0  0  0  0  0  0  0
    8.8581  -13.9348   15.7996 O   0  0  0  0  0  0  0  0  0  0  0  0
    8.1537  -15.5807   17.3771 C   0  0  0  0  0  0  0  0  0  0  0  0
    8.9912  -15.4180   18.6101 C   0  0  0  0  0  0  0  0  0  0  0  0
   10.2278  -16.2846   18.5869 C   0  0  2  0  0  0  0  0  0  0  0  0
   10.0626  -17.2241   17.4942 N   0  0  0  0  0  0  0  0  0  0  0  0
   10.3209  -17.0309   19.8677 C   0  0  0  0  0  0  0  0  0  0  0  0
    9.3332  -17.1202   20.6120 O   0  0  0  0  0  0  0  0  0  0  0  0
   11.5268  -17.6619   20.2836 N   0  0  0  0  0  0  0  0  0  0  0  0
   11.6469  -18.4379   21.4801 C   0  0  1  0  0  0  0  0  0  0  0  0
   12.9569  -19.1404   21.6477 C   0  0  0  0  0  0  0  0  0  0  0  0
   12.7936  -20.3444   22.4585 C   0  0  0  0  0  0  0  0  0  0  0  0
   13.0926  -21.4800   21.9747 O   0  0  0  0  0  0  0  0  0  0  0  0
   11.4390  -17.5502   22.6663 C   0  0  0  0  0  0  0  0  0  0  0  0
   12.1204  -16.4687   22.7507 O   0  0  0  0  0  0  0  0  0  0  0  0
   12.3222  -20.3514   23.7581 O   0  0  0  0  0  0  0  0  0  0  0  0
    6.8182  -11.7304   24.0723 N   0  0  0  0  0  0  0  0  0  0  0  0
    7.2199  -12.3287   22.8584 C   0  0  0  0  0  0  0  0  0  0  0  0
    7.5444  -11.5769   21.8461 N   0  0  0  0  0  0  0  0  0  0  0  0
    7.2778  -13.7400   22.7207 N   0  0  0  0  0  0  0  0  0  0  0  0
    7.4302  -14.6322   23.8482 C   0  0  0  0  0  0  0  0  0  0  0  0
    8.8525  -15.1741   23.9249 C   0  0  0  0  0  0  0  0  0  0  0  0
    8.9269  -16.4208   24.7399 C   0  0  0  0  0  0  0  0  0  0  0  0
   10.3218  -16.9847   24.8162 C   0  0  2  0  0  0  0  0  0  0  0  0
   10.5048  -17.9049   23.6723 N   0  0  0  0  0  0  0  0  0  0  0  0
   10.4589  -17.7668   26.0642 C   0  0  0  0  0  0  0  0  0  0  0  0
   10.9829  -17.2750   27.2354 O   0  0  0  0  0  0  0  0  0  0  0  0
   10.0662  -18.9878   26.0589 O   0  0  0  0  0  0  0  0  0  0  0  0
  2  1  1  0
  2  3  2  0
  4  2  1  0
  5  4  1  0
  5  6  1  0
  6  7  1  6
  8  9  2  0
  8  6  1  0
 10  8  1  0
 11 10  1  0
 12 13  1  0
 11 12  1  1
 13 17  1  0
 13 14  2  0
 15 16  2  0
 15 11  1  0
 19 20  2  0
 19 18  1  0
 21 19  1  0
 22 21  1  0
 23 22  1  0
 25 24  1  6
 24 23  1  0
 25 26  1  0
 26 15  1  0
 27 25  1  0
 28 27  1  0
 29 27  2  0
M  END
$$$$
