QDR.pdb
     RDKit          3D

 29 28  0  0  1  0  0  0  0  0999 V2000
    9.0776  -12.1477   18.8063 N   0  0  0  0  0  0  0  0  0  0  0  0
    8.5512  -12.6878   20.0116 C   0  0  0  0  0  0  0  0  0  0  0  0
    8.5387  -11.9616   21.0526 O   0  0  0  0  0  0  0  0  0  0  0  0
    8.0217  -14.0737   20.0701 C   0  0  0  0  0  0  0  0  0  0  0  0
    8.4349  -14.8226   18.8387 C   0  0  0  0  0  0  0  0  0  0  0  0
    8.0611  -16.2846   18.8993 C   0  0  2  0  0  0  0  0  0  0  0  0
    6.6155  -16.3453   19.0013 N   0  0  0  0  0  0  0  0  0  0  0  0
    8.6661  -16.8898   20.1133 C   0  0  0  0  0  0  0  0  0  0  0  0
    7.9745  -17.0891   21.1230 O   0  0  0  0  0  0  0  0  0  0  0  0
   10.0398  -17.2583   20.1643 N   0  0  0  0  0  0  0  0  0  0  0  0
   10.6394  -17.9421   21.2693 C   0  0  1  0  0  0  0  0  0  0  0  0
   11.9809  -18.5413   20.9877 C   0  0  0  0  0  0  0  0  0  0  0  0
   12.4526  -19.3075   22.1384 C   0  0  0  0  0  0  0  0  0  0  0  0
   11.8503  -20.3717   22.4816 O   0  0  0  0  0  0  0  0  0  0  0  0
   10.7848  -16.9925   22.4163 C   0  0  0  0  0  0  0  0  0  0  0  0
   11.4051  -15.8884   22.2245 O   0  0  0  0  0  0  0  0  0  0  0  0
   13.5413  -18.9572   22.9152 O   0  0  0  0  0  0  0  0  0  0  0  0
    4.6878  -13.3354   26.3759 N   0  0  0  0  0  0  0  0  0  0  0  0
    5.9944  -12.8394   26.5747 C   0  0  0  0  0  0  0  0  0  0  0  0
    6.1776  -11.5644   26.7643 N   0  0  0  0  0  0  0  0  0  0  0  0
    7.1165  -13.7084   26.5728 N   0  0  0  0  0  0  0  0  0  0  0  0
    8.3467  -13.3989   25.8789 C   0  0  0  0  0  0  0  0  0  0  0  0
    9.3655  -14.5189   26.0519 C   0  0  0  0  0  0  0  0  0  0  0  0
    9.2191  -15.5678   25.0019 C   0  0  0  0  0  0  0  0  0  0  0  0
   10.4751  -16.3763   24.8068 C   0  0  2  0  0  0  0  0  0  0  0  0
   10.2438  -17.3149   23.6868 N   0  0  0  0  0  0  0  0  0  0  0  0
   10.7332  -17.1699   26.0282 C   0  0  0  0  0  0  0  0  0  0  0  0
   11.3111  -16.6712   27.1707 O   0  0  0  0  0  0  0  0  0  0  0  0
   10.3996  -18.4084   26.0263 O   0  0  0  0  0  0  0  0  0  0  0  0
  2  1  1  0
  2  3  2  0
  4  2  1  0
  5  4  1  0
  5  6  1  0
  6  7  1  1
  8  9  2  0
  8  6  1  0
 10  8  1  0
 11 10  1  0
 12 13  1  0
 11 12  1  6
 13 17  1  0
 13 14  2  0
 15 16  2  0
 15 11  1  0
 19 20  2  0
 19 18  1  0
 21 19  1  0
 22 21  1  0
 23 22  1  0
 25 24  1  1
 24 23  1  0
 25 26  1  0
 26 15  1  0
 27 25  1  0
 28 27  1  0
 29 27  2  0
M  END
$$$$
