QDR.pdb
     RDKit          3D

 29 28  0  0  1  0  0  0  0  0999 V2000
    8.3702  -13.4579   15.2963 N   0  0  0  0  0  0  0  0  0  0  0  0
    7.5601  -14.5962   15.5597 C   0  0  0  0  0  0  0  0  0  0  0  0
    7.3029  -15.3968   14.6088 O   0  0  0  0  0  0  0  0  0  0  0  0
    7.0164  -14.8597   16.9160 C   0  0  0  0  0  0  0  0  0  0  0  0
    7.3099  -13.6933   17.8111 C   0  0  0  0  0  0  0  0  0  0  0  0
    8.7305  -13.7016   18.3234 C   0  0  2  0  0  0  0  0  0  0  0  0
    9.5881  -13.9556   17.1815 N   0  0  0  0  0  0  0  0  0  0  0  0
    8.8841  -14.8023   19.3088 C   0  0  0  0  0  0  0  0  0  0  0  0
    8.0523  -14.9490   20.2165 O   0  0  0  0  0  0  0  0  0  0  0  0
    9.9735  -15.7163   19.2505 N   0  0  0  0  0  0  0  0  0  0  0  0
   10.1506  -16.8022   20.1656 C   0  0  1  0  0  0  0  0  0  0  0  0
   11.3279  -17.6806   19.8823 C   0  0  0  0  0  0  0  0  0  0  0  0
   11.1135  -18.4470   18.6575 C   0  0  0  0  0  0  0  0  0  0  0  0
    9.9666  -18.9306   18.4046 O   0  0  0  0  0  0  0  0  0  0  0  0
   10.2971  -16.2595   21.5521 C   0  0  0  0  0  0  0  0  0  0  0  0
   11.2526  -15.4409   21.7932 O   0  0  0  0  0  0  0  0  0  0  0  0
   12.0923  -18.7003   17.7146 O   0  0  0  0  0  0  0  0  0  0  0  0
    6.6103  -10.6647   27.8040 N   0  0  0  0  0  0  0  0  0  0  0  0
    6.3300  -11.5076   26.7070 C   0  0  0  0  0  0  0  0  0  0  0  0
    5.6283  -11.0538   25.7085 N   0  0  0  0  0  0  0  0  0  0  0  0
    6.8017  -12.8457   26.6714 N   0  0  0  0  0  0  0  0  0  0  0  0
    6.7996  -13.6461   25.4673 C   0  0  0  0  0  0  0  0  0  0  0  0
    8.1137  -14.4025   25.3144 C   0  0  0  0  0  0  0  0  0  0  0  0
    8.1573  -15.1861   24.0463 C   0  0  0  0  0  0  0  0  0  0  0  0
    9.4513  -15.9368   23.8696 C   0  0  2  0  0  0  0  0  0  0  0  0
    9.3929  -16.6473   22.5731 N   0  0  0  0  0  0  0  0  0  0  0  0
    9.5747  -16.9462   24.9439 C   0  0  0  0  0  0  0  0  0  0  0  0
    9.8815  -16.6554   26.2513 O   0  0  0  0  0  0  0  0  0  0  0  0
    9.3861  -18.1782   24.6406 O   0  0  0  0  0  0  0  0  0  0  0  0
  2  1  1  0
  2  3  2  0
  4  2  1  0
  5  4  1  0
  5  6  1  0
  6  7  1  6
  8  9  2  0
  8  6  1  0
 10  8  1  0
 11 10  1  0
 12 13  1  0
 11 12  1  6
 13 17  1  0
 13 14  2  0
 15 16  2  0
 15 11  1  0
 19 20  2  0
 19 18  1  0
 21 19  1  0
 22 21  1  0
 23 22  1  0
 25 24  1  1
 24 23  1  0
 25 26  1  0
 26 15  1  0
 27 25  1  0
 28 27  1  0
 29 27  2  0
M  END
$$$$
