QDR.pdb
     RDKit          3D

 29 28  0  0  1  0  0  0  0  0999 V2000
    9.7440  -15.9460   13.7659 N   0  0  0  0  0  0  0  0  0  0  0  0
   11.1135  -16.3104   13.6507 C   0  0  0  0  0  0  0  0  0  0  0  0
   11.6082  -16.4701   12.4927 O   0  0  0  0  0  0  0  0  0  0  0  0
   11.9644  -16.5046   14.8518 C   0  0  0  0  0  0  0  0  0  0  0  0
   11.1041  -16.8697   16.0243 C   0  0  0  0  0  0  0  0  0  0  0  0
   10.9987  -15.7512   17.0336 C   0  0  2  0  0  0  0  0  0  0  0  0
   11.4764  -14.5479   16.3796 N   0  0  0  0  0  0  0  0  0  0  0  0
   11.8730  -16.0611   18.1937 C   0  0  0  0  0  0  0  0  0  0  0  0
   11.7018  -17.1025   18.8445 O   0  0  0  0  0  0  0  0  0  0  0  0
   12.9235  -15.1897   18.5966 N   0  0  0  0  0  0  0  0  0  0  0  0
   13.7872  -15.4459   19.7086 C   0  0  1  0  0  0  0  0  0  0  0  0
   15.0334  -14.6190   19.7433 C   0  0  0  0  0  0  0  0  0  0  0  0
   15.9030  -15.0469   20.8361 C   0  0  0  0  0  0  0  0  0  0  0  0
   15.7490  -16.1950   21.3567 O   0  0  0  0  0  0  0  0  0  0  0  0
   13.0360  -15.2102   20.9808 C   0  0  0  0  0  0  0  0  0  0  0  0
   13.0951  -14.0511   21.5230 O   0  0  0  0  0  0  0  0  0  0  0  0
   16.9183  -14.2766   21.3721 O   0  0  0  0  0  0  0  0  0  0  0  0
    7.0302  -13.8049   18.9521 N   0  0  0  0  0  0  0  0  0  0  0  0
    7.4986  -12.8881   19.9179 C   0  0  0  0  0  0  0  0  0  0  0  0
    7.7628  -11.6622   19.5678 N   0  0  0  0  0  0  0  0  0  0  0  0
    7.6867  -13.2791   21.2692 N   0  0  0  0  0  0  0  0  0  0  0  0
    8.1303  -14.6021   21.6482 C   0  0  0  0  0  0  0  0  0  0  0  0
    9.5949  -14.5853   22.0686 C   0  0  0  0  0  0  0  0  0  0  0  0
   10.0659  -15.9363   22.4892 C   0  0  0  0  0  0  0  0  0  0  0  0
   11.5360  -15.9650   22.8166 C   0  0  2  0  0  0  0  0  0  0  0  0
   12.2757  -16.2531   21.5681 N   0  0  0  0  0  0  0  0  0  0  0  0
   11.7967  -17.0643   23.7716 C   0  0  0  0  0  0  0  0  0  0  0  0
   12.4636  -18.2240   23.4577 O   0  0  0  0  0  0  0  0  0  0  0  0
   11.3720  -16.9336   24.9748 O   0  0  0  0  0  0  0  0  0  0  0  0
  2  1  1  0
  2  3  2  0
  4  2  1  0
  5  4  1  0
  5  6  1  0
  6  7  1  6
  8  9  2  0
  8  6  1  0
 10  8  1  0
 11 10  1  0
 12 13  1  0
 11 12  1  6
 13 17  1  0
 13 14  2  0
 15 16  2  0
 15 11  1  0
 19 20  2  0
 19 18  1  0
 21 19  1  0
 22 21  1  0
 23 22  1  0
 25 24  1  6
 24 23  1  0
 25 26  1  0
 26 15  1  0
 27 25  1  0
 28 27  1  0
 29 27  2  0
M  END
$$$$
