QDR.pdb
     RDKit          3D

 29 28  0  0  1  0  0  0  0  0999 V2000
    7.9019  -13.2476   14.2820 N   0  0  0  0  0  0  0  0  0  0  0  0
    8.3490  -14.5929   14.3906 C   0  0  0  0  0  0  0  0  0  0  0  0
    8.5041  -15.2730   13.3301 O   0  0  0  0  0  0  0  0  0  0  0  0
    8.6340  -15.2075   15.7118 C   0  0  0  0  0  0  0  0  0  0  0  0
    8.4676  -14.1801   16.7910 C   0  0  0  0  0  0  0  0  0  0  0  0
    8.7643  -14.7325   18.1650 C   0  0  2  0  0  0  0  0  0  0  0  0
    8.6078  -13.6364   19.1019 N   0  0  0  0  0  0  0  0  0  0  0  0
   10.1690  -15.2139   18.2010 C   0  0  0  0  0  0  0  0  0  0  0  0
   10.4900  -16.2501   17.6004 O   0  0  0  0  0  0  0  0  0  0  0  0
   11.1842  -14.5165   18.9140 N   0  0  0  0  0  0  0  0  0  0  0  0
   12.4302  -15.1038   19.3022 C   0  0  1  0  0  0  0  0  0  0  0  0
   13.6418  -14.2938   18.9649 C   0  0  0  0  0  0  0  0  0  0  0  0
   14.8584  -15.0655   19.2056 C   0  0  0  0  0  0  0  0  0  0  0  0
   14.8961  -16.2994   18.9072 O   0  0  0  0  0  0  0  0  0  0  0  0
   12.4244  -15.3406   20.7795 C   0  0  0  0  0  0  0  0  0  0  0  0
   13.0207  -14.4985   21.5386 O   0  0  0  0  0  0  0  0  0  0  0  0
   16.0165  -14.5451   19.7527 O   0  0  0  0  0  0  0  0  0  0  0  0
    8.3464  -13.2856   20.8125 N   0  0  0  0  0  0  0  0  0  0  0  0
    7.6383  -13.3972   22.0287 C   0  0  0  0  0  0  0  0  0  0  0  0
    7.3570  -12.3247   22.7112 N   0  0  0  0  0  0  0  0  0  0  0  0
    7.2247  -14.6617   22.5227 N   0  0  0  0  0  0  0  0  0  0  0  0
    8.1054  -15.5431   23.2563 C   0  0  0  0  0  0  0  0  0  0  0  0
    9.3003  -15.9519   22.4033 C   0  0  0  0  0  0  0  0  0  0  0  0
   10.2365  -16.8400   23.1508 C   0  0  0  0  0  0  0  0  0  0  0  0
   11.6796  -16.5986   22.7926 C   0  0  2  0  0  0  0  0  0  0  0  0
   11.7698  -16.4759   21.3210 N   0  0  0  0  0  0  0  0  0  0  0  0
   12.4827  -17.7693   23.2082 C   0  0  0  0  0  0  0  0  0  0  0  0
   13.3092  -17.7942   24.3056 O   0  0  0  0  0  0  0  0  0  0  0  0
   12.4090  -18.8356   22.4991 O   0  0  0  0  0  0  0  0  0  0  0  0
  2  1  1  0
  2  3  2  0
  4  2  1  0
  5  4  1  0
  5  6  1  0
  6  7  1  1
  8  9  2  0
  8  6  1  0
 10  8  1  0
 11 10  1  0
 12 13  1  0
 11 12  1  1
 13 17  1  0
 13 14  2  0
 15 16  2  0
 15 11  1  0
 19 20  2  0
 19 18  1  0
 21 19  1  0
 22 21  1  0
 23 22  1  0
 25 24  1  6
 24 23  1  0
 25 26  1  0
 26 15  1  0
 27 25  1  0
 28 27  1  0
 29 27  2  0
M  END
$$$$
