QDR.pdb
     RDKit          3D

 29 28  0  0  1  0  0  0  0  0999 V2000
    7.4988  -12.4549   19.4893 N   0  0  0  0  0  0  0  0  0  0  0  0
    7.8804  -13.7317   18.9935 C   0  0  0  0  0  0  0  0  0  0  0  0
    7.2468  -14.2189   18.0074 O   0  0  0  0  0  0  0  0  0  0  0  0
    8.9970  -14.4953   19.6054 C   0  0  0  0  0  0  0  0  0  0  0  0
    9.5261  -13.7484   20.7929 C   0  0  0  0  0  0  0  0  0  0  0  0
   10.7086  -14.4391   21.4297 C   0  0  2  0  0  0  0  0  0  0  0  0
   11.3088  -15.2743   20.4069 N   0  0  0  0  0  0  0  0  0  0  0  0
   10.2276  -15.2950   22.5442 C   0  0  0  0  0  0  0  0  0  0  0  0
    9.4285  -14.8442   23.3782 O   0  0  0  0  0  0  0  0  0  0  0  0
   10.6578  -16.6431   22.6959 N   0  0  0  0  0  0  0  0  0  0  0  0
   10.2686  -17.4844   23.7862 C   0  0  1  0  0  0  0  0  0  0  0  0
   10.6419  -18.9252   23.6359 C   0  0  0  0  0  0  0  0  0  0  0  0
    9.8728  -19.5452   22.5599 C   0  0  0  0  0  0  0  0  0  0  0  0
   10.4745  -20.0942   21.5854 O   0  0  0  0  0  0  0  0  0  0  0  0
   10.8865  -16.9723   25.0489 C   0  0  0  0  0  0  0  0  0  0  0  0
   12.1484  -16.7530   25.0699 O   0  0  0  0  0  0  0  0  0  0  0  0
    8.4917  -19.5853   22.5115 O   0  0  0  0  0  0  0  0  0  0  0  0
    6.9740  -14.0484   25.1297 N   0  0  0  0  0  0  0  0  0  0  0  0
    6.8264  -12.8393   25.8431 C   0  0  0  0  0  0  0  0  0  0  0  0
    5.7578  -12.1157   25.6706 N   0  0  0  0  0  0  0  0  0  0  0  0
    7.8248  -12.3964   26.7493 N   0  0  0  0  0  0  0  0  0  0  0  0
    8.4258  -13.2628   27.7387 C   0  0  0  0  0  0  0  0  0  0  0  0
    9.2765  -14.3388   27.0748 C   0  0  0  0  0  0  0  0  0  0  0  0
    9.9185  -15.2352   28.0790 C   0  0  0  0  0  0  0  0  0  0  0  0
   10.7550  -16.3158   27.4450 C   0  0  2  0  0  0  0  0  0  0  0  0
   10.0852  -16.7363   26.1947 N   0  0  0  0  0  0  0  0  0  0  0  0
   10.8083  -17.4812   28.3545 C   0  0  0  0  0  0  0  0  0  0  0  0
   11.5173  -17.5165   29.5310 O   0  0  0  0  0  0  0  0  0  0  0  0
   10.1526  -18.5340   28.0274 O   0  0  0  0  0  0  0  0  0  0  0  0
  2  1  1  0
  2  3  2  0
  4  2  1  0
  5  4  1  0
  5  6  1  0
  6  7  1  6
  8  9  2  0
  8  6  1  0
 10  8  1  0
 11 10  1  0
 12 13  1  0
 11 12  1  6
 13 17  1  0
 13 14  2  0
 15 16  2  0
 15 11  1  0
 19 20  2  0
 19 18  1  0
 21 19  1  0
 22 21  1  0
 23 22  1  0
 25 24  1  1
 24 23  1  0
 25 26  1  0
 26 15  1  0
 27 25  1  0
 28 27  1  0
 29 27  2  0
M  END
$$$$
