QDR.pdb
     RDKit          3D

 29 28  0  0  1  0  0  0  0  0999 V2000
   11.6980  -13.4103   17.6464 N   0  0  0  0  0  0  0  0  0  0  0  0
   11.2182  -12.9590   18.9064 C   0  0  0  0  0  0  0  0  0  0  0  0
   12.0318  -12.8796   19.8775 O   0  0  0  0  0  0  0  0  0  0  0  0
    9.7951  -12.5832   19.1011 C   0  0  0  0  0  0  0  0  0  0  0  0
    9.0771  -13.6864   19.8191 C   0  0  0  0  0  0  0  0  0  0  0  0
    8.8879  -14.9105   18.9550 C   0  0  2  0  0  0  0  0  0  0  0  0
    7.4746  -14.9872   18.6378 N   0  0  0  0  0  0  0  0  0  0  0  0
    9.2849  -16.1153   19.7277 C   0  0  0  0  0  0  0  0  0  0  0  0
    8.4414  -16.7406   20.3872 O   0  0  0  0  0  0  0  0  0  0  0  0
   10.6261  -16.5911   19.7409 N   0  0  0  0  0  0  0  0  0  0  0  0
   11.0538  -17.7445   20.4722 C   0  0  1  0  0  0  0  0  0  0  0  0
   12.0887  -18.5787   19.7860 C   0  0  0  0  0  0  0  0  0  0  0  0
   12.3682  -19.7871   20.5575 C   0  0  0  0  0  0  0  0  0  0  0  0
   11.4468  -20.3285   21.2438 O   0  0  0  0  0  0  0  0  0  0  0  0
   11.6047  -17.3134   21.7947 C   0  0  0  0  0  0  0  0  0  0  0  0
   12.5666  -16.4677   21.8128 O   0  0  0  0  0  0  0  0  0  0  0  0
   13.5993  -20.4145   20.6054 O   0  0  0  0  0  0  0  0  0  0  0  0
   10.6262  -15.8890   29.8338 N   0  0  0  0  0  0  0  0  0  0  0  0
    9.9155  -14.9337   29.0754 C   0  0  0  0  0  0  0  0  0  0  0  0
    9.8176  -13.7100   29.5092 N   0  0  0  0  0  0  0  0  0  0  0  0
    9.3040  -15.2836   27.8433 N   0  0  0  0  0  0  0  0  0  0  0  0
   10.0416  -15.3896   26.6042 C   0  0  0  0  0  0  0  0  0  0  0  0
   10.8454  -16.6834   26.5583 C   0  0  0  0  0  0  0  0  0  0  0  0
   10.5489  -17.4764   25.3306 C   0  0  0  0  0  0  0  0  0  0  0  0
   11.6235  -17.3509   24.2823 C   0  0  2  0  0  0  0  0  0  0  0  0
   11.0675  -17.8341   22.9993 N   0  0  0  0  0  0  0  0  0  0  0  0
   12.7608  -18.2225   24.6499 C   0  0  0  0  0  0  0  0  0  0  0  0
   13.8773  -17.7975   25.3288 O   0  0  0  0  0  0  0  0  0  0  0  0
   12.7086  -19.4590   24.3129 O   0  0  0  0  0  0  0  0  0  0  0  0
  2  1  1  0
  2  3  2  0
  4  2  1  0
  5  4  1  0
  5  6  1  0
  6  7  1  1
  8  9  2  0
  8  6  1  0
 10  8  1  0
 11 10  1  0
 12 13  1  0
 11 12  1  6
 13 17  1  0
 13 14  2  0
 15 16  2  0
 15 11  1  0
 19 20  2  0
 19 18  1  0
 21 19  1  0
 22 21  1  0
 23 22  1  0
 25 24  1  1
 24 23  1  0
 25 26  1  0
 26 15  1  0
 27 25  1  0
 28 27  1  0
 29 27  2  0
M  END
$$$$
