QDR.pdb
     RDKit          3D

 29 28  0  0  1  0  0  0  0  0999 V2000
    6.4739  -13.7659   15.4178 N   0  0  0  0  0  0  0  0  0  0  0  0
    7.4883  -14.7576   15.5132 C   0  0  0  0  0  0  0  0  0  0  0  0
    8.0454  -15.1666   14.4485 O   0  0  0  0  0  0  0  0  0  0  0  0
    7.9012  -15.3158   16.8256 C   0  0  0  0  0  0  0  0  0  0  0  0
    7.6966  -14.2870   17.8969 C   0  0  0  0  0  0  0  0  0  0  0  0
    8.9821  -13.9225   18.6007 C   0  0  2  0  0  0  0  0  0  0  0  0
    9.9490  -13.5980   17.5692 N   0  0  0  0  0  0  0  0  0  0  0  0
    9.4619  -15.0970   19.3730 C   0  0  0  0  0  0  0  0  0  0  0  0
    8.7466  -15.6020   20.2509 O   0  0  0  0  0  0  0  0  0  0  0  0
   10.7395  -15.6787   19.1396 N   0  0  0  0  0  0  0  0  0  0  0  0
   11.2354  -16.8197   19.8470 C   0  0  1  0  0  0  0  0  0  0  0  0
   12.4131  -17.4913   19.2149 C   0  0  0  0  0  0  0  0  0  0  0  0
   12.0088  -18.2076   18.0078 C   0  0  0  0  0  0  0  0  0  0  0  0
   10.9664  -18.9331   18.0202 O   0  0  0  0  0  0  0  0  0  0  0  0
   11.6210  -16.4106   21.2335 C   0  0  0  0  0  0  0  0  0  0  0  0
   12.6392  -15.6489   21.3881 O   0  0  0  0  0  0  0  0  0  0  0  0
   12.6924  -18.1603   16.8071 O   0  0  0  0  0  0  0  0  0  0  0  0
   10.1227  -15.8770   28.4734 N   0  0  0  0  0  0  0  0  0  0  0  0
    9.8283  -14.4970   28.5154 C   0  0  0  0  0  0  0  0  0  0  0  0
   10.1848  -13.7934   29.5513 N   0  0  0  0  0  0  0  0  0  0  0  0
    9.1490  -13.8596   27.4447 N   0  0  0  0  0  0  0  0  0  0  0  0
    8.8925  -14.5116   26.1799 C   0  0  0  0  0  0  0  0  0  0  0  0
   10.1615  -15.1525   25.6309 C   0  0  0  0  0  0  0  0  0  0  0  0
    9.9436  -15.7425   24.2788 C   0  0  0  0  0  0  0  0  0  0  0  0
   11.2026  -16.3178   23.6843 C   0  0  2  0  0  0  0  0  0  0  0  0
   10.8696  -16.8604   22.3488 N   0  0  0  0  0  0  0  0  0  0  0  0
   11.6704  -17.4355   24.5330 C   0  0  0  0  0  0  0  0  0  0  0  0
   11.5190  -18.7647   24.2196 O   0  0  0  0  0  0  0  0  0  0  0  0
   12.2555  -17.1515   25.6385 O   0  0  0  0  0  0  0  0  0  0  0  0
  2  1  1  0
  2  3  2  0
  4  2  1  0
  5  4  1  0
  5  6  1  0
  6  7  1  6
  8  9  2  0
  8  6  1  0
 10  8  1  0
 11 10  1  0
 12 13  1  0
 11 12  1  6
 13 17  1  0
 13 14  2  0
 15 16  2  0
 15 11  1  0
 19 20  2  0
 19 18  1  0
 21 19  1  0
 22 21  1  0
 23 22  1  0
 25 24  1  1
 24 23  1  0
 25 26  1  0
 26 15  1  0
 27 25  1  0
 28 27  1  0
 29 27  2  0
M  END
$$$$
