QDR.pdb
     RDKit          3D

 29 28  0  0  1  0  0  0  0  0999 V2000
    7.8971  -12.8680   17.6006 N   0  0  0  0  0  0  0  0  0  0  0  0
    7.7648  -13.9626   16.7028 C   0  0  0  0  0  0  0  0  0  0  0  0
    7.7409  -13.7304   15.4551 O   0  0  0  0  0  0  0  0  0  0  0  0
    7.6555  -15.3581   17.1977 C   0  0  0  0  0  0  0  0  0  0  0  0
    7.6266  -15.3597   18.6967 C   0  0  0  0  0  0  0  0  0  0  0  0
    8.9834  -15.0857   19.3008 C   0  0  2  0  0  0  0  0  0  0  0  0
    9.9703  -15.4638   18.3074 N   0  0  0  0  0  0  0  0  0  0  0  0
    9.1547  -15.9298   20.5109 C   0  0  0  0  0  0  0  0  0  0  0  0
    8.2975  -15.9191   21.4066 O   0  0  0  0  0  0  0  0  0  0  0  0
   10.2901  -16.7697   20.6864 N   0  0  0  0  0  0  0  0  0  0  0  0
   10.5057  -17.5845   21.8430 C   0  0  1  0  0  0  0  0  0  0  0  0
   11.6738  -18.5145   21.7509 C   0  0  0  0  0  0  0  0  0  0  0  0
   11.8244  -19.2735   22.9897 C   0  0  0  0  0  0  0  0  0  0  0  0
   12.5331  -18.8090   23.9358 O   0  0  0  0  0  0  0  0  0  0  0  0
   10.7040  -16.7040   23.0362 C   0  0  0  0  0  0  0  0  0  0  0  0
   11.4457  -15.6663   22.9170 O   0  0  0  0  0  0  0  0  0  0  0  0
   11.2381  -20.5028   23.2274 O   0  0  0  0  0  0  0  0  0  0  0  0
    5.6090  -11.3437   24.9822 N   0  0  0  0  0  0  0  0  0  0  0  0
    6.2202  -11.9105   26.1214 C   0  0  0  0  0  0  0  0  0  0  0  0
    6.0993  -11.3228   27.2770 N   0  0  0  0  0  0  0  0  0  0  0  0
    6.9662  -13.1144   26.0306 N   0  0  0  0  0  0  0  0  0  0  0  0
    7.0062  -13.9235   24.8329 C   0  0  0  0  0  0  0  0  0  0  0  0
    7.8590  -15.1684   25.0455 C   0  0  0  0  0  0  0  0  0  0  0  0
    9.3163  -14.8525   25.0189 C   0  0  0  0  0  0  0  0  0  0  0  0
   10.1759  -16.0374   25.3743 C   0  0  2  0  0  0  0  0  0  0  0  0
   10.0802  -17.0177   24.2703 N   0  0  0  0  0  0  0  0  0  0  0  0
    9.6430  -16.6701   26.6007 C   0  0  0  0  0  0  0  0  0  0  0  0
    9.7555  -16.1361   27.8618 O   0  0  0  0  0  0  0  0  0  0  0  0
    9.0360  -17.7942   26.4865 O   0  0  0  0  0  0  0  0  0  0  0  0
  2  1  1  0
  2  3  2  0
  4  2  1  0
  5  4  1  0
  5  6  1  0
  6  7  1  6
  8  9  2  0
  8  6  1  0
 10  8  1  0
 11 10  1  0
 12 13  1  0
 11 12  1  6
 13 17  1  0
 13 14  2  0
 15 16  2  0
 15 11  1  0
 19 20  2  0
 19 18  1  0
 21 19  1  0
 22 21  1  0
 23 22  1  0
 25 24  1  6
 24 23  1  0
 25 26  1  0
 26 15  1  0
 27 25  1  0
 28 27  1  0
 29 27  2  0
M  END
$$$$
