PFC.pdb
     RDKit          3D

 25 26  0  0  1  0  0  0  0  0999 V2000
   14.8989  -18.4440    4.5564 N   0  0  0  0  0  0  0  0  0  0  0  0
   13.8089  -18.1913    3.6502 C   0  0  0  0  0  0  0  0  0  0  0  0
   14.4690  -17.7735    2.3536 C   0  0  0  0  0  0  0  0  0  0  0  0
   15.6939  -18.6593    2.3395 C   0  0  0  0  0  0  0  0  0  0  0  0
   16.0666  -18.7438    3.7756 C   0  0  1  0  0  0  0  0  0  0  0  0
   17.2099  -17.9291    4.1783 C   0  0  0  0  0  0  0  0  0  0  0  0
   18.3356  -18.1638    3.6672 O   0  0  0  0  0  0  0  0  0  0  0  0
   17.1128  -16.8811    5.1218 N   0  0  0  0  0  0  0  0  0  0  0  0
   18.2499  -16.0443    5.5017 C   0  0  1  0  0  0  0  0  0  0  0  0
   17.7526  -14.6383    5.6338 C   0  0  0  0  0  0  0  0  0  0  0  0
   18.7527  -13.6403    5.9688 C   0  0  0  0  0  0  0  0  0  0  0  0
   19.3393  -12.9625    4.8917 C   0  0  0  0  0  0  0  0  0  0  0  0
   20.3002  -11.9950    5.0959 C   0  0  0  0  0  0  0  0  0  0  0  0
   20.6689  -11.7126    6.4001 C   0  0  0  0  0  0  0  0  0  0  0  0
   20.0811  -12.3901    7.4576 C   0  0  0  0  0  0  0  0  0  0  0  0
   19.1201  -13.3580    7.2569 C   0  0  0  0  0  0  0  0  0  0  0  0
   18.7351  -16.4779    6.8498 C   0  0  0  0  0  0  0  0  0  0  0  0
   17.9051  -16.7435    7.7574 O   0  0  0  0  0  0  0  0  0  0  0  0
   20.1008  -16.6075    7.1638 N   0  0  0  0  0  0  0  0  0  0  0  0
   20.6073  -17.0625    8.4442 C   0  0  1  0  0  0  0  0  0  0  0  0
   21.7287  -18.0616    8.2842 C   0  0  0  0  0  0  0  0  0  0  0  0
   21.0478  -19.7215    8.5100 S   0  0  0  0  0  0  0  0  0  0  0  0
   21.1434  -15.9189    9.2266 C   0  0  0  0  0  0  0  0  0  0  0  0
   21.3698  -16.0115   10.5902 O   0  0  0  0  0  0  0  0  0  0  0  0
   21.4069  -14.8281    8.6622 O   0  0  0  0  0  0  0  0  0  0  0  0
  1  2  1  0
  3  2  1  0
  4  5  1  0
  4  3  1  0
  5  1  1  0
  5  6  1  6
  6  7  2  0
  8  6  1  0
  8  9  1  0
  9 17  1  0
  9 10  1  1
 10 11  1  0
 11 16  1  0
 12 11  2  0
 12 13  1  0
 13 14  2  0
 14 15  1  0
 16 15  2  0
 17 18  2  0
 19 20  1  0
 19 17  1  0
 20 23  1  0
 20 21  1  6
 22 21  1  0
 23 25  2  0
 23 24  1  0
M  END
$$$$
