PFC.pdb
     RDKit          3D

 25 26  0  0  1  0  0  0  0  0999 V2000
   28.0458  -20.5742  -15.8311 N   0  0  0  0  0  0  0  0  0  0  0  0
   27.9491  -20.2598  -17.2329 C   0  0  0  0  0  0  0  0  0  0  0  0
   27.4961  -18.8161  -17.2780 C   0  0  0  0  0  0  0  0  0  0  0  0
   28.2331  -18.2315  -16.0947 C   0  0  0  0  0  0  0  0  0  0  0  0
   28.2305  -19.3454  -15.1109 C   0  0  1  0  0  0  0  0  0  0  0  0
   27.2763  -19.2136  -14.0131 C   0  0  0  0  0  0  0  0  0  0  0  0
   27.2226  -18.1277  -13.3795 O   0  0  0  0  0  0  0  0  0  0  0  0
   26.4030  -20.2548  -13.6244 N   0  0  0  0  0  0  0  0  0  0  0  0
   25.3697  -20.0876  -12.6037 C   0  0  1  0  0  0  0  0  0  0  0  0
   24.1402  -20.7936  -13.0847 C   0  0  0  0  0  0  0  0  0  0  0  0
   22.9394  -20.5866  -12.2950 C   0  0  0  0  0  0  0  0  0  0  0  0
   22.6044  -21.6067  -11.3946 C   0  0  0  0  0  0  0  0  0  0  0  0
   21.4847  -21.5132  -10.5954 C   0  0  0  0  0  0  0  0  0  0  0  0
   20.6996  -20.3786  -10.7095 C   0  0  0  0  0  0  0  0  0  0  0  0
   21.0416  -19.3760  -11.6042 C   0  0  0  0  0  0  0  0  0  0  0  0
   22.1604  -19.4663  -12.4047 C   0  0  0  0  0  0  0  0  0  0  0  0
   25.8190  -20.7712  -11.3500 C   0  0  0  0  0  0  0  0  0  0  0  0
   26.1508  -21.9844  -11.3840 O   0  0  0  0  0  0  0  0  0  0  0  0
   25.8919  -20.1149  -10.1072 N   0  0  0  0  0  0  0  0  0  0  0  0
   26.1218  -20.7826   -8.8407 C   0  0  1  0  0  0  0  0  0  0  0  0
   27.0281  -19.9807   -7.9368 C   0  0  0  0  0  0  0  0  0  0  0  0
   28.7213  -20.1274   -8.5544 S   0  0  0  0  0  0  0  0  0  0  0  0
   24.8391  -20.9796   -8.1171 C   0  0  0  0  0  0  0  0  0  0  0  0
   24.7685  -21.7182   -6.9472 O   0  0  0  0  0  0  0  0  0  0  0  0
   23.7758  -20.4744   -8.5555 O   0  0  0  0  0  0  0  0  0  0  0  0
  1  2  1  0
  3  2  1  0
  4  5  1  0
  4  3  1  0
  5  1  1  0
  5  6  1  1
  6  7  2  0
  8  6  1  0
  8  9  1  0
  9 17  1  0
  9 10  1  6
 10 11  1  0
 11 16  1  0
 12 11  2  0
 12 13  1  0
 13 14  2  0
 14 15  1  0
 16 15  2  0
 17 18  2  0
 19 20  1  0
 19 17  1  0
 20 23  1  0
 20 21  1  1
 22 21  1  0
 23 25  2  0
 23 24  1  0
M  END
$$$$
