PFC.pdb
     RDKit          3D

 25 26  0  0  1  0  0  0  0  0999 V2000
   27.9941  -21.3921  -17.8168 N   0  0  0  0  0  0  0  0  0  0  0  0
   27.5860  -21.3100  -19.1952 C   0  0  0  0  0  0  0  0  0  0  0  0
   26.2108  -20.6782  -19.1574 C   0  0  0  0  0  0  0  0  0  0  0  0
   26.3631  -19.6920  -18.0219 C   0  0  0  0  0  0  0  0  0  0  0  0
   27.2641  -20.4012  -17.0765 C   0  0  1  0  0  0  0  0  0  0  0  0
   26.6165  -20.9741  -15.8995 C   0  0  0  0  0  0  0  0  0  0  0  0
   26.5662  -22.2258  -15.7803 O   0  0  0  0  0  0  0  0  0  0  0  0
   26.0389  -20.1847  -14.8791 N   0  0  0  0  0  0  0  0  0  0  0  0
   25.4050  -20.7572  -13.6926 C   0  0  1  0  0  0  0  0  0  0  0  0
   25.7540  -19.8840  -12.5275 C   0  0  0  0  0  0  0  0  0  0  0  0
   25.2065  -20.2882  -11.2449 C   0  0  0  0  0  0  0  0  0  0  0  0
   23.9406  -19.7814  -10.9222 C   0  0  0  0  0  0  0  0  0  0  0  0
   23.3272  -20.1011   -9.7294 C   0  0  0  0  0  0  0  0  0  0  0  0
   24.0012  -20.9397   -8.8581 C   0  0  0  0  0  0  0  0  0  0  0  0
   25.2535  -21.4348   -9.1888 C   0  0  0  0  0  0  0  0  0  0  0  0
   25.8696  -21.1172  -10.3805 C   0  0  0  0  0  0  0  0  0  0  0  0
   23.9194  -20.7001  -13.8678 C   0  0  0  0  0  0  0  0  0  0  0  0
   23.3768  -19.6353  -14.2616 O   0  0  0  0  0  0  0  0  0  0  0  0
   23.0780  -21.7983  -13.6099 N   0  0  0  0  0  0  0  0  0  0  0  0
   21.6367  -21.7806  -13.7681 C   0  0  1  0  0  0  0  0  0  0  0  0
   21.1079  -23.1046  -14.2671 C   0  0  0  0  0  0  0  0  0  0  0  0
   21.8214  -23.4235  -15.8977 S   0  0  0  0  0  0  0  0  0  0  0  0
   20.9748  -21.5032  -12.4672 C   0  0  0  0  0  0  0  0  0  0  0  0
   19.6306  -21.1773  -12.3884 O   0  0  0  0  0  0  0  0  0  0  0  0
   21.6274  -21.5586  -11.3953 O   0  0  0  0  0  0  0  0  0  0  0  0
  1  2  1  0
  3  2  1  0
  4  5  1  0
  4  3  1  0
  5  1  1  0
  5  6  1  1
  6  7  2  0
  8  6  1  0
  8  9  1  0
  9 17  1  0
  9 10  1  1
 10 11  1  0
 11 16  1  0
 12 11  2  0
 12 13  1  0
 13 14  2  0
 14 15  1  0
 16 15  2  0
 17 18  2  0
 19 20  1  0
 19 17  1  0
 20 23  1  0
 20 21  1  1
 22 21  1  0
 23 25  2  0
 23 24  1  0
M  END
$$$$
