PFC.pdb
     RDKit          3D

 25 26  0  0  1  0  0  0  0  0999 V2000
   27.8335  -22.3048  -15.7954 N   0  0  0  0  0  0  0  0  0  0  0  0
   28.1654  -22.9098  -17.0591 C   0  0  0  0  0  0  0  0  0  0  0  0
   28.0614  -21.7863  -18.0683 C   0  0  0  0  0  0  0  0  0  0  0  0
   28.5828  -20.6138  -17.2692 C   0  0  0  0  0  0  0  0  0  0  0  0
   28.0907  -20.8952  -15.8955 C   0  0  1  0  0  0  0  0  0  0  0  0
   26.9413  -20.1041  -15.4641 C   0  0  0  0  0  0  0  0  0  0  0  0
   27.0495  -18.8516  -15.4097 O   0  0  0  0  0  0  0  0  0  0  0  0
   25.7031  -20.6815  -15.1017 N   0  0  0  0  0  0  0  0  0  0  0  0
   24.5383  -19.8880  -14.7129 C   0  0  1  0  0  0  0  0  0  0  0  0
   23.3756  -20.3617  -15.5285 C   0  0  0  0  0  0  0  0  0  0  0  0
   23.4270  -20.0528  -16.9464 C   0  0  0  0  0  0  0  0  0  0  0  0
   22.8822  -18.8215  -17.3342 C   0  0  0  0  0  0  0  0  0  0  0  0
   22.8785  -18.4277  -18.6556 C   0  0  0  0  0  0  0  0  0  0  0  0
   23.4305  -19.2874  -19.5899 C   0  0  0  0  0  0  0  0  0  0  0  0
   23.9666  -20.5033  -19.1936 C   0  0  0  0  0  0  0  0  0  0  0  0
   23.9719  -20.9001  -17.8733 C   0  0  0  0  0  0  0  0  0  0  0  0
   24.2242  -20.1694  -13.2766 C   0  0  0  0  0  0  0  0  0  0  0  0
   23.1968  -19.6674  -12.7513 O   0  0  0  0  0  0  0  0  0  0  0  0
   25.0345  -20.9837  -12.4637 N   0  0  0  0  0  0  0  0  0  0  0  0
   24.8034  -21.2194  -11.0516 C   0  0  1  0  0  0  0  0  0  0  0  0
   25.8785  -20.5967  -10.1927 C   0  0  0  0  0  0  0  0  0  0  0  0
   27.4877  -21.0172  -10.9024 S   0  0  0  0  0  0  0  0  0  0  0  0
   23.5063  -20.6289  -10.6320 C   0  0  0  0  0  0  0  0  0  0  0  0
   23.0582  -20.7096   -9.3235 O   0  0  0  0  0  0  0  0  0  0  0  0
   22.7769  -20.0353  -11.4649 O   0  0  0  0  0  0  0  0  0  0  0  0
  1  2  1  0
  3  2  1  0
  4  5  1  0
  4  3  1  0
  5  1  1  0
  5  6  1  6
  6  7  2  0
  8  6  1  0
  8  9  1  0
  9 17  1  0
  9 10  1  6
 10 11  1  0
 11 16  1  0
 12 11  2  0
 12 13  1  0
 13 14  2  0
 14 15  1  0
 16 15  2  0
 17 18  2  0
 19 20  1  0
 19 17  1  0
 20 23  1  0
 20 21  1  1
 22 21  1  0
 23 25  2  0
 23 24  1  0
M  END
$$$$
