PFC.pdb
     RDKit          3D

 25 26  0  0  1  0  0  0  0  0999 V2000
   27.4648  -20.4332  -17.2497 N   0  0  0  0  0  0  0  0  0  0  0  0
   28.7795  -20.1292  -17.7520 C   0  0  0  0  0  0  0  0  0  0  0  0
   29.6844  -21.1723  -17.1319 C   0  0  0  0  0  0  0  0  0  0  0  0
   28.7884  -22.3898  -17.1360 C   0  0  0  0  0  0  0  0  0  0  0  0
   27.4415  -21.8192  -16.8736 C   0  0  1  0  0  0  0  0  0  0  0  0
   26.9336  -22.0026  -15.5166 C   0  0  0  0  0  0  0  0  0  0  0  0
   26.6725  -23.1665  -15.1157 O   0  0  0  0  0  0  0  0  0  0  0  0
   26.7191  -20.9276  -14.6242 N   0  0  0  0  0  0  0  0  0  0  0  0
   26.1868  -21.1078  -13.2745 C   0  0  1  0  0  0  0  0  0  0  0  0
   26.9800  -20.2321  -12.3549 C   0  0  0  0  0  0  0  0  0  0  0  0
   26.6151  -20.2911  -10.9507 C   0  0  0  0  0  0  0  0  0  0  0  0
   25.5312  -19.4954  -10.5563 C   0  0  0  0  0  0  0  0  0  0  0  0
   25.1003  -19.4754   -9.2467 C   0  0  0  0  0  0  0  0  0  0  0  0
   25.7722  -20.2669   -8.3309 C   0  0  0  0  0  0  0  0  0  0  0  0
   26.8434  -21.0500   -8.7334 C   0  0  0  0  0  0  0  0  0  0  0  0
   27.2769  -21.0724  -10.0420 C   0  0  0  0  0  0  0  0  0  0  0  0
   24.7713  -20.6214  -13.2483 C   0  0  0  0  0  0  0  0  0  0  0  0
   24.5082  -19.4438  -13.6051 O   0  0  0  0  0  0  0  0  0  0  0  0
   23.6946  -21.4289  -12.8369 N   0  0  0  0  0  0  0  0  0  0  0  0
   22.3085  -21.0030  -12.8272 C   0  0  1  0  0  0  0  0  0  0  0  0
   21.4114  -21.9862  -13.5412 C   0  0  0  0  0  0  0  0  0  0  0  0
   22.0760  -22.2609  -15.2004 S   0  0  0  0  0  0  0  0  0  0  0  0
   21.8113  -20.8848  -11.4321 C   0  0  0  0  0  0  0  0  0  0  0  0
   20.5910  -20.2971  -11.1407 O   0  0  0  0  0  0  0  0  0  0  0  0
   22.4950  -21.3206  -10.4726 O   0  0  0  0  0  0  0  0  0  0  0  0
  1  2  1  0
  3  2  1  0
  4  5  1  0
  4  3  1  0
  5  1  1  0
  5  6  1  1
  6  7  2  0
  8  6  1  0
  8  9  1  0
  9 17  1  0
  9 10  1  1
 10 11  1  0
 11 16  1  0
 12 11  2  0
 12 13  1  0
 13 14  2  0
 14 15  1  0
 16 15  2  0
 17 18  2  0
 19 20  1  0
 19 17  1  0
 20 23  1  0
 20 21  1  6
 22 21  1  0
 23 25  2  0
 23 24  1  0
M  END
$$$$
