PFC.pdb
     RDKit          3D

 25 26  0  0  1  0  0  0  0  0999 V2000
   25.8133  -12.9862  -15.2342 N   0  0  0  0  0  0  0  0  0  0  0  0
   26.0819  -14.3989  -15.1611 C   0  0  0  0  0  0  0  0  0  0  0  0
   25.4288  -14.9841  -16.3951 C   0  0  0  0  0  0  0  0  0  0  0  0
   25.6777  -13.8949  -17.4134 C   0  0  0  0  0  0  0  0  0  0  0  0
   25.5713  -12.6496  -16.6094 C   0  0  1  0  0  0  0  0  0  0  0  0
   24.3286  -11.8996  -16.7717 C   0  0  0  0  0  0  0  0  0  0  0  0
   23.9252  -11.6327  -17.9334 O   0  0  0  0  0  0  0  0  0  0  0  0
   23.5505  -11.4553  -15.6785 N   0  0  0  0  0  0  0  0  0  0  0  0
   22.3479  -10.6392  -15.8372 C   0  0  1  0  0  0  0  0  0  0  0  0
   21.2104  -11.3829  -15.2090 C   0  0  0  0  0  0  0  0  0  0  0  0
   20.6987  -12.5141  -15.9621 C   0  0  0  0  0  0  0  0  0  0  0  0
   19.7454  -12.2244  -16.9474 C   0  0  0  0  0  0  0  0  0  0  0  0
   19.1934  -13.2232  -17.7213 C   0  0  0  0  0  0  0  0  0  0  0  0
   19.6102  -14.5239  -17.4950 C   0  0  0  0  0  0  0  0  0  0  0  0
   20.5543  -14.7978  -16.5170 C   0  0  0  0  0  0  0  0  0  0  0  0
   21.1082  -13.8015  -15.7415 C   0  0  0  0  0  0  0  0  0  0  0  0
   22.5286   -9.3651  -15.0724 C   0  0  0  0  0  0  0  0  0  0  0  0
   23.2390   -9.3547  -14.0339 O   0  0  0  0  0  0  0  0  0  0  0  0
   21.9333   -8.1507  -15.4614 N   0  0  0  0  0  0  0  0  0  0  0  0
   22.0449   -6.9094  -14.7201 C   0  0  1  0  0  0  0  0  0  0  0  0
   23.1767   -6.0485  -15.2291 C   0  0  0  0  0  0  0  0  0  0  0  0
   23.2220   -4.5303  -14.2477 S   0  0  0  0  0  0  0  0  0  0  0  0
   20.7955   -6.1152  -14.8459 C   0  0  0  0  0  0  0  0  0  0  0  0
   20.3747   -5.2554  -13.8444 O   0  0  0  0  0  0  0  0  0  0  0  0
   20.0831   -6.2065  -15.8765 O   0  0  0  0  0  0  0  0  0  0  0  0
  1  2  1  0
  3  2  1  0
  4  5  1  0
  4  3  1  0
  5  1  1  0
  5  6  1  1
  6  7  2  0
  8  6  1  0
  8  9  1  0
  9 17  1  0
  9 10  1  1
 10 11  1  0
 11 16  1  0
 12 11  2  0
 12 13  1  0
 13 14  2  0
 14 15  1  0
 16 15  2  0
 17 18  2  0
 19 20  1  0
 19 17  1  0
 20 23  1  0
 20 21  1  6
 22 21  1  0
 23 25  2  0
 23 24  1  0
M  END
$$$$
