PFC.pdb
     RDKit          3D

 25 26  0  0  1  0  0  0  0  0999 V2000
   30.0784  -20.5225  -10.9400 N   0  0  0  0  0  0  0  0  0  0  0  0
   31.3869  -20.3190  -10.3746 C   0  0  0  0  0  0  0  0  0  0  0  0
   31.4658  -21.2895   -9.2155 C   0  0  0  0  0  0  0  0  0  0  0  0
   30.7051  -22.4756   -9.7628 C   0  0  0  0  0  0  0  0  0  0  0  0
   29.6414  -21.8443  -10.5865 C   0  0  1  0  0  0  0  0  0  0  0  0
   28.3080  -21.8314   -9.9907 C   0  0  0  0  0  0  0  0  0  0  0  0
   27.7743  -22.9243   -9.6679 O   0  0  0  0  0  0  0  0  0  0  0  0
   27.5818  -20.6415   -9.7571 N   0  0  0  0  0  0  0  0  0  0  0  0
   26.2199  -20.6316   -9.2254 C   0  0  1  0  0  0  0  0  0  0  0  0
   26.1191  -19.4905   -8.2614 C   0  0  0  0  0  0  0  0  0  0  0  0
   26.7920  -19.6742   -6.9879 C   0  0  0  0  0  0  0  0  0  0  0  0
   27.8494  -18.7972   -6.7117 C   0  0  0  0  0  0  0  0  0  0  0  0
   28.5573  -18.8827   -5.5316 C   0  0  0  0  0  0  0  0  0  0  0  0
   28.1911  -19.8633   -4.6255 C   0  0  0  0  0  0  0  0  0  0  0  0
   27.1429  -20.7252   -4.9103 C   0  0  0  0  0  0  0  0  0  0  0  0
   26.4331  -20.6425   -6.0893 C   0  0  0  0  0  0  0  0  0  0  0  0
   25.2688  -20.3568  -10.3482 C   0  0  0  0  0  0  0  0  0  0  0  0
   25.4200  -19.3291  -11.0583 O   0  0  0  0  0  0  0  0  0  0  0  0
   24.1900  -21.2053  -10.6592 N   0  0  0  0  0  0  0  0  0  0  0  0
   23.2742  -20.9945  -11.7636 C   0  0  1  0  0  0  0  0  0  0  0  0
   22.6617  -22.2892  -12.2432 C   0  0  0  0  0  0  0  0  0  0  0  0
   21.4327  -21.9011  -13.5116 S   0  0  0  0  0  0  0  0  0  0  0  0
   22.1583  -20.1049  -11.3503 C   0  0  0  0  0  0  0  0  0  0  0  0
   21.9517  -19.7635  -10.0236 O   0  0  0  0  0  0  0  0  0  0  0  0
   21.3665  -19.6361  -12.2054 O   0  0  0  0  0  0  0  0  0  0  0  0
  1  2  1  0
  3  2  1  0
  4  5  1  0
  4  3  1  0
  5  1  1  0
  5  6  1  1
  6  7  2  0
  8  6  1  0
  8  9  1  0
  9 17  1  0
  9 10  1  1
 10 11  1  0
 11 16  1  0
 12 11  2  0
 12 13  1  0
 13 14  2  0
 14 15  1  0
 16 15  2  0
 17 18  2  0
 19 20  1  0
 19 17  1  0
 20 23  1  0
 20 21  1  1
 22 21  1  0
 23 25  2  0
 23 24  1  0
M  END
$$$$
