PFC.pdb
     RDKit          3D

 25 26  0  0  1  0  0  0  0  0999 V2000
   27.1186  -18.8095  -14.7049 N   0  0  0  0  0  0  0  0  0  0  0  0
   28.4099  -18.1901  -14.5562 C   0  0  0  0  0  0  0  0  0  0  0  0
   29.2910  -19.2652  -13.9565 C   0  0  0  0  0  0  0  0  0  0  0  0
   28.7672  -20.5041  -14.6464 C   0  0  0  0  0  0  0  0  0  0  0  0
   27.3119  -20.2311  -14.7726 C   0  0  1  0  0  0  0  0  0  0  0  0
   26.4541  -20.9389  -13.8258 C   0  0  0  0  0  0  0  0  0  0  0  0
   26.4159  -22.1962  -13.8604 O   0  0  0  0  0  0  0  0  0  0  0  0
   25.6582  -20.2751  -12.8647 N   0  0  0  0  0  0  0  0  0  0  0  0
   24.7184  -20.9740  -11.9897 C   0  0  1  0  0  0  0  0  0  0  0  0
   24.7678  -20.3087  -10.6494 C   0  0  0  0  0  0  0  0  0  0  0  0
   25.9807  -20.5207   -9.8798 C   0  0  0  0  0  0  0  0  0  0  0  0
   26.1088  -19.7713   -8.7028 C   0  0  0  0  0  0  0  0  0  0  0  0
   27.2204  -19.8943   -7.8963 C   0  0  0  0  0  0  0  0  0  0  0  0
   28.2085  -20.7825   -8.2853 C   0  0  0  0  0  0  0  0  0  0  0  0
   28.0702  -21.5186   -9.4523 C   0  0  0  0  0  0  0  0  0  0  0  0
   26.9601  -21.3980  -10.2609 C   0  0  0  0  0  0  0  0  0  0  0  0
   23.3343  -20.7931  -12.5305 C   0  0  0  0  0  0  0  0  0  0  0  0
   22.9146  -19.6380  -12.8004 O   0  0  0  0  0  0  0  0  0  0  0  0
   22.4575  -21.8699  -12.7585 N   0  0  0  0  0  0  0  0  0  0  0  0
   21.1362  -21.7408  -13.3420 C   0  0  1  0  0  0  0  0  0  0  0  0
   20.7359  -22.9778  -14.1107 C   0  0  0  0  0  0  0  0  0  0  0  0
   21.9682  -23.2684  -15.4019 S   0  0  0  0  0  0  0  0  0  0  0  0
   20.1178  -21.5322  -12.2805 C   0  0  0  0  0  0  0  0  0  0  0  0
   18.7978  -21.2413  -12.5842 O   0  0  0  0  0  0  0  0  0  0  0  0
   20.4347  -21.6158  -11.0678 O   0  0  0  0  0  0  0  0  0  0  0  0
  1  2  1  0
  3  2  1  0
  4  5  1  0
  4  3  1  0
  5  1  1  0
  5  6  1  1
  6  7  2  0
  8  6  1  0
  8  9  1  0
  9 17  1  0
  9 10  1  1
 10 11  1  0
 11 16  1  0
 12 11  2  0
 12 13  1  0
 13 14  2  0
 14 15  1  0
 16 15  2  0
 17 18  2  0
 19 20  1  0
 19 17  1  0
 20 23  1  0
 20 21  1  1
 22 21  1  0
 23 25  2  0
 23 24  1  0
M  END
$$$$
