PFC.pdb
     RDKit          3D

 25 26  0  0  1  0  0  0  0  0999 V2000
   26.4673  -21.0636  -16.2079 N   0  0  0  0  0  0  0  0  0  0  0  0
   27.4903  -20.6883  -17.1490 C   0  0  0  0  0  0  0  0  0  0  0  0
   27.9516  -19.3189  -16.6977 C   0  0  0  0  0  0  0  0  0  0  0  0
   27.8731  -19.4545  -15.1942 C   0  0  0  0  0  0  0  0  0  0  0  0
   26.6862  -20.3263  -14.9948 C   0  0  1  0  0  0  0  0  0  0  0  0
   25.4731  -19.6461  -14.5492 C   0  0  0  0  0  0  0  0  0  0  0  0
   25.4815  -19.0480  -13.4421 O   0  0  0  0  0  0  0  0  0  0  0  0
   24.2801  -19.6266  -15.3071 N   0  0  0  0  0  0  0  0  0  0  0  0
   23.0775  -18.9132  -14.8802 C   0  0  1  0  0  0  0  0  0  0  0  0
   22.5143  -18.2175  -16.0803 C   0  0  0  0  0  0  0  0  0  0  0  0
   21.2648  -17.5072  -15.8740 C   0  0  0  0  0  0  0  0  0  0  0  0
   20.1101  -18.1226  -16.3754 C   0  0  0  0  0  0  0  0  0  0  0  0
   18.8705  -17.5354  -16.2346 C   0  0  0  0  0  0  0  0  0  0  0  0
   18.8008  -16.3167  -15.5815 C   0  0  0  0  0  0  0  0  0  0  0  0
   19.9506  -15.7177  -15.0897 C   0  0  0  0  0  0  0  0  0  0  0  0
   21.1916  -16.3021  -15.2288 C   0  0  0  0  0  0  0  0  0  0  0  0
   22.0626  -19.9145  -14.4237 C   0  0  0  0  0  0  0  0  0  0  0  0
   21.9792  -21.0286  -15.0025 O   0  0  0  0  0  0  0  0  0  0  0  0
   21.1767  -19.6712  -13.3576 N   0  0  0  0  0  0  0  0  0  0  0  0
   20.1670  -20.6069  -12.9020 C   0  0  1  0  0  0  0  0  0  0  0  0
   20.4423  -21.0949  -11.4994 C   0  0  0  0  0  0  0  0  0  0  0  0
   19.0883  -22.1847  -11.0006 S   0  0  0  0  0  0  0  0  0  0  0  0
   18.8287  -19.9617  -12.8900 C   0  0  0  0  0  0  0  0  0  0  0  0
   17.6606  -20.7066  -12.8895 O   0  0  0  0  0  0  0  0  0  0  0  0
   18.7246  -18.7099  -12.8798 O   0  0  0  0  0  0  0  0  0  0  0  0
  1  2  1  0
  3  2  1  0
  4  5  1  0
  4  3  1  0
  5  1  1  0
  5  6  1  6
  6  7  2  0
  8  6  1  0
  8  9  1  0
  9 17  1  0
  9 10  1  6
 10 11  1  0
 11 16  1  0
 12 11  2  0
 12 13  1  0
 13 14  2  0
 14 15  1  0
 16 15  2  0
 17 18  2  0
 19 20  1  0
 19 17  1  0
 20 23  1  0
 20 21  1  1
 22 21  1  0
 23 25  2  0
 23 24  1  0
M  END
$$$$
