PFC.pdb
     RDKit          3D

 25 26  0  0  1  0  0  0  0  0999 V2000
   28.3680  -20.6790  -18.1832 N   0  0  0  0  0  0  0  0  0  0  0  0
   28.1154  -20.3366  -19.5587 C   0  0  0  0  0  0  0  0  0  0  0  0
   28.3666  -18.8461  -19.6417 C   0  0  0  0  0  0  0  0  0  0  0  0
   29.5303  -18.6829  -18.6907 C   0  0  0  0  0  0  0  0  0  0  0  0
   29.2430  -19.6833  -17.6301 C   0  0  1  0  0  0  0  0  0  0  0  0
   28.7220  -19.1414  -16.3779 C   0  0  0  0  0  0  0  0  0  0  0  0
   29.3735  -18.2428  -15.7850 O   0  0  0  0  0  0  0  0  0  0  0  0
   27.5117  -19.5806  -15.7947 N   0  0  0  0  0  0  0  0  0  0  0  0
   26.8971  -18.9205  -14.6440 C   0  0  1  0  0  0  0  0  0  0  0  0
   25.6457  -18.2515  -15.1215 C   0  0  0  0  0  0  0  0  0  0  0  0
   25.8203  -16.9571  -15.7559 C   0  0  0  0  0  0  0  0  0  0  0  0
   25.6450  -16.9176  -17.1456 C   0  0  0  0  0  0  0  0  0  0  0  0
   25.7871  -15.7403  -17.8492 C   0  0  0  0  0  0  0  0  0  0  0  0
   26.1091  -14.5959  -17.1398 C   0  0  0  0  0  0  0  0  0  0  0  0
   26.2800  -14.6479  -15.7647 C   0  0  0  0  0  0  0  0  0  0  0  0
   26.1386  -15.8232  -15.0581 C   0  0  0  0  0  0  0  0  0  0  0  0
   26.4969  -19.9651  -13.6493 C   0  0  0  0  0  0  0  0  0  0  0  0
   26.1500  -21.1072  -14.0474 O   0  0  0  0  0  0  0  0  0  0  0  0
   26.4875  -19.7331  -12.2613 N   0  0  0  0  0  0  0  0  0  0  0  0
   26.0898  -20.7137  -11.2697 C   0  0  1  0  0  0  0  0  0  0  0  0
   26.3958  -20.2510   -9.8648 C   0  0  0  0  0  0  0  0  0  0  0  0
   25.7514  -21.4824   -8.7079 S   0  0  0  0  0  0  0  0  0  0  0  0
   24.6269  -20.9627  -11.3434 C   0  0  0  0  0  0  0  0  0  0  0  0
   24.0923  -22.2264  -11.1515 O   0  0  0  0  0  0  0  0  0  0  0  0
   23.8312  -20.0211  -11.5846 O   0  0  0  0  0  0  0  0  0  0  0  0
  1  2  1  0
  3  2  1  0
  4  5  1  0
  4  3  1  0
  5  1  1  0
  5  6  1  1
  6  7  2  0
  8  6  1  0
  8  9  1  0
  9 17  1  0
  9 10  1  6
 10 11  1  0
 11 16  1  0
 12 11  2  0
 12 13  1  0
 13 14  2  0
 14 15  1  0
 16 15  2  0
 17 18  2  0
 19 20  1  0
 19 17  1  0
 20 23  1  0
 20 21  1  1
 22 21  1  0
 23 25  2  0
 23 24  1  0
M  END
$$$$
