PFC.pdb
     RDKit          3D

 25 26  0  0  1  0  0  0  0  0999 V2000
   26.7364  -19.5873  -13.3774 N   0  0  0  0  0  0  0  0  0  0  0  0
   27.7208  -18.9181  -14.1873 C   0  0  0  0  0  0  0  0  0  0  0  0
   29.0276  -19.6104  -13.8636 C   0  0  0  0  0  0  0  0  0  0  0  0
   28.5751  -21.0419  -13.6875 C   0  0  0  0  0  0  0  0  0  0  0  0
   27.2333  -20.8983  -13.0651 C   0  0  1  0  0  0  0  0  0  0  0  0
   27.1715  -21.1725  -11.6319 C   0  0  0  0  0  0  0  0  0  0  0  0
   27.5093  -22.3104  -11.2141 O   0  0  0  0  0  0  0  0  0  0  0  0
   26.7472  -20.2142  -10.6834 N   0  0  0  0  0  0  0  0  0  0  0  0
   26.6847  -20.4881   -9.2487 C   0  0  1  0  0  0  0  0  0  0  0  0
   27.2572  -19.3020   -8.5365 C   0  0  0  0  0  0  0  0  0  0  0  0
   27.5653  -19.4938   -7.1305 C   0  0  0  0  0  0  0  0  0  0  0  0
   28.8056  -20.0775   -6.8403 C   0  0  0  0  0  0  0  0  0  0  0  0
   29.1996  -20.3053   -5.5387 C   0  0  0  0  0  0  0  0  0  0  0  0
   28.3309  -19.9391   -4.5249 C   0  0  0  0  0  0  0  0  0  0  0  0
   27.1062  -19.3622   -4.8249 C   0  0  0  0  0  0  0  0  0  0  0  0
   26.7092  -19.1330   -6.1251 C   0  0  0  0  0  0  0  0  0  0  0  0
   25.2480  -20.6044   -8.8448 C   0  0  0  0  0  0  0  0  0  0  0  0
   24.3577  -20.0404   -9.5321 O   0  0  0  0  0  0  0  0  0  0  0  0
   24.8300  -21.3272   -7.7119 N   0  0  0  0  0  0  0  0  0  0  0  0
   23.4539  -21.6902   -7.4338 C   0  0  1  0  0  0  0  0  0  0  0  0
   23.3196  -22.4300   -6.1238 C   0  0  0  0  0  0  0  0  0  0  0  0
   24.6275  -23.6757   -6.0377 S   0  0  0  0  0  0  0  0  0  0  0  0
   22.6044  -20.4747   -7.3432 C   0  0  0  0  0  0  0  0  0  0  0  0
   23.1386  -19.2018   -7.4609 O   0  0  0  0  0  0  0  0  0  0  0  0
   21.3663  -20.5747   -7.1554 O   0  0  0  0  0  0  0  0  0  0  0  0
  1  2  1  0
  3  2  1  0
  4  5  1  0
  4  3  1  0
  5  1  1  0
  5  6  1  1
  6  7  2  0
  8  6  1  0
  8  9  1  0
  9 17  1  0
  9 10  1  1
 10 11  1  0
 11 16  1  0
 12 11  2  0
 12 13  1  0
 13 14  2  0
 14 15  1  0
 16 15  2  0
 17 18  2  0
 19 20  1  0
 19 17  1  0
 20 23  1  0
 20 21  1  1
 22 21  1  0
 23 25  2  0
 23 24  1  0
M  END
$$$$
