PFC.pdb
     RDKit          3D

 25 26  0  0  1  0  0  0  0  0999 V2000
   26.6689  -19.7516  -13.5332 N   0  0  0  0  0  0  0  0  0  0  0  0
   27.6892  -19.2337  -14.4071 C   0  0  0  0  0  0  0  0  0  0  0  0
   28.9032  -20.0992  -14.1445 C   0  0  0  0  0  0  0  0  0  0  0  0
   28.2666  -21.4517  -13.9201 C   0  0  0  0  0  0  0  0  0  0  0  0
   26.9955  -21.1164  -13.2271 C   0  0  1  0  0  0  0  0  0  0  0  0
   26.9777  -21.3668  -11.7883 C   0  0  0  0  0  0  0  0  0  0  0  0
   27.1145  -22.5469  -11.3735 O   0  0  0  0  0  0  0  0  0  0  0  0
   26.8131  -20.3398  -10.8312 N   0  0  0  0  0  0  0  0  0  0  0  0
   26.7348  -20.5963   -9.3940 C   0  0  1  0  0  0  0  0  0  0  0  0
   27.4265  -19.4675   -8.6947 C   0  0  0  0  0  0  0  0  0  0  0  0
   27.6513  -19.6452   -7.2712 C   0  0  0  0  0  0  0  0  0  0  0  0
   26.7134  -19.0525   -6.4153 C   0  0  0  0  0  0  0  0  0  0  0  0
   26.8305  -19.1589   -5.0456 C   0  0  0  0  0  0  0  0  0  0  0  0
   27.9051  -19.8705   -4.5402 C   0  0  0  0  0  0  0  0  0  0  0  0
   28.8266  -20.4525   -5.3975 C   0  0  0  0  0  0  0  0  0  0  0  0
   28.7124  -20.3481   -6.7674 C   0  0  0  0  0  0  0  0  0  0  0  0
   25.2967  -20.5680   -8.9795 C   0  0  0  0  0  0  0  0  0  0  0  0
   24.4841  -19.8274   -9.5915 O   0  0  0  0  0  0  0  0  0  0  0  0
   24.7932  -21.3427   -7.9179 N   0  0  0  0  0  0  0  0  0  0  0  0
   23.3914  -21.6634   -7.7311 C   0  0  1  0  0  0  0  0  0  0  0  0
   23.1385  -22.3326   -6.4009 C   0  0  0  0  0  0  0  0  0  0  0  0
   24.1829  -21.5378   -5.1570 S   0  0  0  0  0  0  0  0  0  0  0  0
   22.5667  -20.4281   -7.7674 C   0  0  0  0  0  0  0  0  0  0  0  0
   21.1825  -20.4748   -7.7335 O   0  0  0  0  0  0  0  0  0  0  0  0
   23.1129  -19.2986   -7.8303 O   0  0  0  0  0  0  0  0  0  0  0  0
  1  2  1  0
  3  2  1  0
  4  5  1  0
  4  3  1  0
  5  1  1  0
  5  6  1  1
  6  7  2  0
  8  6  1  0
  8  9  1  0
  9 17  1  0
  9 10  1  1
 10 11  1  0
 11 16  1  0
 12 11  2  0
 12 13  1  0
 13 14  2  0
 14 15  1  0
 16 15  2  0
 17 18  2  0
 19 20  1  0
 19 17  1  0
 20 23  1  0
 20 21  1  1
 22 21  1  0
 23 25  2  0
 23 24  1  0
M  END
$$$$
