PFC.pdb
     RDKit          3D

 25 26  0  0  1  0  0  0  0  0999 V2000
   19.8991  -15.2105  -19.6835 N   0  0  0  0  0  0  0  0  0  0  0  0
   19.9957  -15.1334  -21.1180 C   0  0  0  0  0  0  0  0  0  0  0  0
   19.8837  -13.6579  -21.4374 C   0  0  0  0  0  0  0  0  0  0  0  0
   20.6290  -13.0405  -20.2762 C   0  0  0  0  0  0  0  0  0  0  0  0
   20.2925  -13.9397  -19.1419 C   0  0  1  0  0  0  0  0  0  0  0  0
   19.3018  -13.4229  -18.2013 C   0  0  0  0  0  0  0  0  0  0  0  0
   18.1006  -13.7760  -18.3264 O   0  0  0  0  0  0  0  0  0  0  0  0
   19.6294  -12.5384  -17.1486 N   0  0  0  0  0  0  0  0  0  0  0  0
   18.6278  -11.9601  -16.2542 C   0  0  1  0  0  0  0  0  0  0  0  0
   18.9026  -12.4739  -14.8750 C   0  0  0  0  0  0  0  0  0  0  0  0
   18.6628  -13.8906  -14.6660 C   0  0  0  0  0  0  0  0  0  0  0  0
   19.7958  -14.7145  -14.6345 C   0  0  0  0  0  0  0  0  0  0  0  0
   19.6830  -16.0752  -14.4421 C   0  0  0  0  0  0  0  0  0  0  0  0
   18.4139  -16.6042  -14.2805 C   0  0  0  0  0  0  0  0  0  0  0  0
   17.3004  -15.7784  -14.3135 C   0  0  0  0  0  0  0  0  0  0  0  0
   17.4096  -14.4176  -14.5057 C   0  0  0  0  0  0  0  0  0  0  0  0
   18.8112  -10.4747  -16.2254 C   0  0  0  0  0  0  0  0  0  0  0  0
   19.9714   -9.9878  -16.2325 O   0  0  0  0  0  0  0  0  0  0  0  0
   17.7312   -9.5732  -16.1898 N   0  0  0  0  0  0  0  0  0  0  0  0
   17.8685   -8.1297  -16.2058 C   0  0  1  0  0  0  0  0  0  0  0  0
   16.6941   -7.4590  -16.8784 C   0  0  0  0  0  0  0  0  0  0  0  0
   16.6093   -8.0417  -18.5881 S   0  0  0  0  0  0  0  0  0  0  0  0
   17.9447   -7.6000  -14.8198 C   0  0  0  0  0  0  0  0  0  0  0  0
   18.1684   -6.2568  -14.5643 O   0  0  0  0  0  0  0  0  0  0  0  0
   17.8062   -8.3678  -13.8353 O   0  0  0  0  0  0  0  0  0  0  0  0
  1  2  1  0
  3  2  1  0
  4  5  1  0
  4  3  1  0
  5  1  1  0
  5  6  1  6
  6  7  2  0
  8  6  1  0
  8  9  1  0
  9 17  1  0
  9 10  1  1
 10 11  1  0
 11 16  1  0
 12 11  2  0
 12 13  1  0
 13 14  2  0
 14 15  1  0
 16 15  2  0
 17 18  2  0
 19 20  1  0
 19 17  1  0
 20 23  1  0
 20 21  1  1
 22 21  1  0
 23 25  2  0
 23 24  1  0
M  END
$$$$
