YVG.pdb
     RDKit          3D

 24 24  0  0  1  0  0  0  0  0999 V2000
   19.7285  -23.3925   -7.3197 O   0  0  0  0  0  0  0  0  0  0  0  0
   20.6606  -22.5799   -7.9804 C   0  0  0  0  0  0  0  0  0  0  0  0
   20.6875  -22.6122   -9.3426 C   0  0  0  0  0  0  0  0  0  0  0  0
   21.6149  -21.8040  -10.0084 C   0  0  0  0  0  0  0  0  0  0  0  0
   22.4756  -20.9991   -9.3044 C   0  0  0  0  0  0  0  0  0  0  0  0
   23.4393  -20.1606  -10.0271 C   0  0  0  0  0  0  0  0  0  0  0  0
   24.7715  -20.8654  -10.2413 C   0  0  2  0  0  0  0  0  0  0  0  0
   25.5289  -20.9186   -8.9944 N   0  0  0  0  0  0  0  0  0  0  0  0
   25.5079  -20.0626  -11.2616 C   0  0  0  0  0  0  0  0  0  0  0  0
   25.9890  -18.9651  -10.9014 O   0  0  0  0  0  0  0  0  0  0  0  0
   22.4180  -20.9941   -7.9332 C   0  0  0  0  0  0  0  0  0  0  0  0
   21.5117  -21.7827   -7.2527 C   0  0  0  0  0  0  0  0  0  0  0  0
   27.7191  -21.7810  -14.3994 C   0  0  0  0  0  0  0  0  0  0  0  0
   27.7784  -20.3985  -13.8054 C   0  0  2  0  0  0  0  0  0  0  0  0
   28.5833  -20.3465  -12.5394 C   0  0  0  0  0  0  0  0  0  0  0  0
   26.4069  -19.8115  -13.5827 C   0  0  2  0  0  0  0  0  0  0  0  0
   25.6503  -20.5409  -12.5942 N   0  0  0  0  0  0  0  0  0  0  0  0
   25.6518  -19.6969  -14.8564 C   0  0  0  0  0  0  0  0  0  0  0  0
   24.7339  -20.5326  -15.0611 O   0  0  0  0  0  0  0  0  0  0  0  0
   25.9230  -18.7032  -15.8247 N   0  0  0  0  0  0  0  0  0  0  0  0
   25.1321  -18.6766  -17.0373 C   0  0  0  0  0  0  0  0  0  0  0  0
   25.5944  -17.5800  -17.9003 C   0  0  0  0  0  0  0  0  0  0  0  0
   26.5592  -16.8777  -17.5470 O   0  0  0  0  0  0  0  0  0  0  0  0
   24.9643  -17.3297  -19.0938 O   0  0  0  0  0  0  0  0  0  0  0  0
  2  1  1  0
  3  2  2  0
  4  3  1  0
  5  4  2  0
  5 11  1  0
  6  5  1  0
  7  8  1  1
  7  6  1  0
  9  7  1  0
 10  9  2  0
 11 12  2  0
 12  2  1  0
 14 13  1  1
 14 15  1  0
 16 17  1  1
 16 14  1  0
 17  9  1  0
 18 16  1  0
 19 18  2  0
 20 18  1  0
 21 20  1  0
 22 24  1  0
 22 21  1  0
 23 22  2  0
M  END
$$$$
