YVG.pdb
     RDKit          3D

 24 24  0  0  1  0  0  0  0  0999 V2000
   15.6535   -9.0574  -22.2563 O   0  0  0  0  0  0  0  0  0  0  0  0
   16.3128   -8.8902  -21.0304 C   0  0  0  0  0  0  0  0  0  0  0  0
   15.5787   -8.4783  -19.9586 C   0  0  0  0  0  0  0  0  0  0  0  0
   16.2301   -8.3094  -18.7323 C   0  0  0  0  0  0  0  0  0  0  0  0
   17.5757   -8.5532  -18.6142 C   0  0  0  0  0  0  0  0  0  0  0  0
   18.2352   -8.3684  -17.3162 C   0  0  0  0  0  0  0  0  0  0  0  0
   18.7889   -9.6722  -16.7588 C   0  0  2  0  0  0  0  0  0  0  0  0
   17.7034  -10.5954  -16.4414 N   0  0  0  0  0  0  0  0  0  0  0  0
   19.5404   -9.3101  -15.5211 C   0  0  0  0  0  0  0  0  0  0  0  0
   18.9120   -9.3078  -14.4391 O   0  0  0  0  0  0  0  0  0  0  0  0
   18.2809   -8.9668  -19.7166 C   0  0  0  0  0  0  0  0  0  0  0  0
   17.6612   -9.1409  -20.9380 C   0  0  0  0  0  0  0  0  0  0  0  0
   23.8321   -9.5329  -15.3196 C   0  0  0  0  0  0  0  0  0  0  0  0
   22.8451   -9.5821  -14.1834 C   0  0  2  0  0  0  0  0  0  0  0  0
   22.3616  -10.9740  -13.8966 C   0  0  0  0  0  0  0  0  0  0  0  0
   21.6772   -8.6521  -14.3985 C   0  0  2  0  0  0  0  0  0  0  0  0
   20.9234   -8.9810  -15.5840 N   0  0  0  0  0  0  0  0  0  0  0  0
   22.1103   -7.2317  -14.4173 C   0  0  0  0  0  0  0  0  0  0  0  0
   22.6847   -6.8164  -15.4567 O   0  0  0  0  0  0  0  0  0  0  0  0
   21.9038   -6.3502  -13.3315 N   0  0  0  0  0  0  0  0  0  0  0  0
   22.3988   -4.9931  -13.4310 C   0  0  0  0  0  0  0  0  0  0  0  0
   21.3499   -4.1282  -13.9904 C   0  0  0  0  0  0  0  0  0  0  0  0
   20.2742   -4.6253  -14.3708 O   0  0  0  0  0  0  0  0  0  0  0  0
   21.5549   -2.7750  -14.0938 O   0  0  0  0  0  0  0  0  0  0  0  0
  2  1  1  0
  3  2  2  0
  4  3  1  0
  5  4  2  0
  5 11  1  0
  6  5  1  0
  7  8  1  1
  7  6  1  0
  9  7  1  0
 10  9  2  0
 11 12  2  0
 12  2  1  0
 14 13  1  6
 14 15  1  0
 16 17  1  6
 16 14  1  0
 17  9  1  0
 18 16  1  0
 19 18  2  0
 20 18  1  0
 21 20  1  0
 22 24  1  0
 22 21  1  0
 23 22  2  0
M  END
$$$$
