YVG.pdb
     RDKit          3D

 24 24  0  0  1  0  0  0  0  0999 V2000
   29.2048  -19.9439   -3.3731 O   0  0  0  0  0  0  0  0  0  0  0  0
   28.6179  -19.8385   -4.6420 C   0  0  0  0  0  0  0  0  0  0  0  0
   29.2379  -19.0591   -5.5723 C   0  0  0  0  0  0  0  0  0  0  0  0
   28.6580  -18.9493   -6.8405 C   0  0  0  0  0  0  0  0  0  0  0  0
   27.4929  -19.6114   -7.1378 C   0  0  0  0  0  0  0  0  0  0  0  0
   26.9049  -19.4795   -8.4761 C   0  0  0  0  0  0  0  0  0  0  0  0
   27.0205  -20.7627   -9.2868 C   0  0  2  0  0  0  0  0  0  0  0  0
   28.4226  -21.1054   -9.5059 N   0  0  0  0  0  0  0  0  0  0  0  0
   26.3423  -20.4950  -10.5891 C   0  0  0  0  0  0  0  0  0  0  0  0
   26.9696  -19.8336  -11.4462 O   0  0  0  0  0  0  0  0  0  0  0  0
   26.8982  -20.3869   -6.1741 C   0  0  0  0  0  0  0  0  0  0  0  0
   27.4508  -20.5114   -4.9150 C   0  0  0  0  0  0  0  0  0  0  0  0
   23.8691  -21.6289  -14.3826 C   0  0  0  0  0  0  0  0  0  0  0  0
   24.5802  -21.8675  -13.0768 C   0  0  2  0  0  0  0  0  0  0  0  0
   24.2281  -23.1896  -12.4592 C   0  0  0  0  0  0  0  0  0  0  0  0
   24.3571  -20.7486  -12.0903 C   0  0  2  0  0  0  0  0  0  0  0  0
   25.0275  -20.9811  -10.8341 N   0  0  0  0  0  0  0  0  0  0  0  0
   22.9098  -20.4872  -11.8835 C   0  0  0  0  0  0  0  0  0  0  0  0
   22.3290  -21.1375  -10.9766 O   0  0  0  0  0  0  0  0  0  0  0  0
   22.1790  -19.5537  -12.6537 N   0  0  0  0  0  0  0  0  0  0  0  0
   20.7931  -19.3043  -12.3166 C   0  0  0  0  0  0  0  0  0  0  0  0
   19.9292  -20.2009  -13.0981 C   0  0  0  0  0  0  0  0  0  0  0  0
   20.4143  -21.2087  -13.6441 O   0  0  0  0  0  0  0  0  0  0  0  0
   18.5901  -19.9287  -13.2266 O   0  0  0  0  0  0  0  0  0  0  0  0
  2  1  1  0
  3  2  2  0
  4  3  1  0
  5  4  2  0
  5 11  1  0
  6  5  1  0
  7  8  1  6
  7  6  1  0
  9  7  1  0
 10  9  2  0
 11 12  2  0
 12  2  1  0
 14 13  1  6
 14 15  1  0
 16 17  1  1
 16 14  1  0
 17  9  1  0
 18 16  1  0
 19 18  2  0
 20 18  1  0
 21 20  1  0
 22 24  1  0
 22 21  1  0
 23 22  2  0
M  END
$$$$
