YVG.pdb
     RDKit          3D

 24 24  0  0  1  0  0  0  0  0999 V2000
   18.8187  -22.9620   -8.4062 O   0  0  0  0  0  0  0  0  0  0  0  0
   19.7451  -22.6843   -9.4212 C   0  0  0  0  0  0  0  0  0  0  0  0
   19.4012  -22.9895  -10.7041 C   0  0  0  0  0  0  0  0  0  0  0  0
   20.3207  -22.7152  -11.7220 C   0  0  0  0  0  0  0  0  0  0  0  0
   21.5388  -22.1524  -11.4327 C   0  0  0  0  0  0  0  0  0  0  0  0
   22.4858  -21.8746  -12.5191 C   0  0  0  0  0  0  0  0  0  0  0  0
   22.6818  -20.3822  -12.7469 C   0  0  2  0  0  0  0  0  0  0  0  0
   21.4605  -19.7798  -13.2729 N   0  0  0  0  0  0  0  0  0  0  0  0
   23.7913  -20.2544  -13.7369 C   0  0  0  0  0  0  0  0  0  0  0  0
   23.5012  -20.3470  -14.9505 O   0  0  0  0  0  0  0  0  0  0  0  0
   21.8487  -21.8593  -10.1282 C   0  0  0  0  0  0  0  0  0  0  0  0
   20.9584  -22.1203   -9.1057 C   0  0  0  0  0  0  0  0  0  0  0  0
   28.4553  -18.8125  -14.6346 C   0  0  0  0  0  0  0  0  0  0  0  0
   27.3804  -19.1191  -13.6256 C   0  0  2  0  0  0  0  0  0  0  0  0
   27.8998  -19.8782  -12.4392 C   0  0  0  0  0  0  0  0  0  0  0  0
   26.2067  -19.8400  -14.2401 C   0  0  2  0  0  0  0  0  0  0  0  0
   25.1282  -20.0349  -13.3017 N   0  0  0  0  0  0  0  0  0  0  0  0
   26.6208  -21.1275  -14.8537 C   0  0  0  0  0  0  0  0  0  0  0  0
   26.9145  -22.0708  -14.0747 O   0  0  0  0  0  0  0  0  0  0  0  0
   26.6944  -21.3250  -16.2516 N   0  0  0  0  0  0  0  0  0  0  0  0
   27.2107  -22.5817  -16.7522 C   0  0  0  0  0  0  0  0  0  0  0  0
   28.3722  -22.3254  -17.6162 C   0  0  0  0  0  0  0  0  0  0  0  0
   29.0099  -23.2801  -18.0967 O   0  0  0  0  0  0  0  0  0  0  0  0
   28.7539  -21.0365  -17.8934 O   0  0  0  0  0  0  0  0  0  0  0  0
  2  1  1  0
  3  2  2  0
  4  3  1  0
  5  4  2  0
  5 11  1  0
  6  5  1  0
  7  8  1  6
  7  6  1  0
  9  7  1  0
 10  9  2  0
 11 12  2  0
 12  2  1  0
 14 13  1  6
 14 15  1  0
 16 17  1  1
 16 14  1  0
 17  9  1  0
 18 16  1  0
 19 18  2  0
 20 18  1  0
 21 20  1  0
 22 24  1  0
 22 21  1  0
 23 22  2  0
M  END
$$$$
