YVG.pdb
     RDKit          3D

 24 24  0  0  1  0  0  0  0  0999 V2000
   31.3649  -21.0804  -10.7853 O   0  0  0  0  0  0  0  0  0  0  0  0
   30.0375  -20.9077  -11.2021 C   0  0  0  0  0  0  0  0  0  0  0  0
   29.8173  -20.4272  -12.4582 C   0  0  0  0  0  0  0  0  0  0  0  0
   28.4953  -20.2524  -12.8807 C   0  0  0  0  0  0  0  0  0  0  0  0
   27.4475  -20.5581  -12.0483 C   0  0  0  0  0  0  0  0  0  0  0  0
   26.0696  -20.3656  -12.5159 C   0  0  0  0  0  0  0  0  0  0  0  0
   25.1914  -21.5781  -12.2403 C   0  0  2  0  0  0  0  0  0  0  0  0
   25.7147  -22.7558  -12.9261 N   0  0  0  0  0  0  0  0  0  0  0  0
   23.8345  -21.2358  -12.7592 C   0  0  0  0  0  0  0  0  0  0  0  0
   23.5175  -21.6699  -13.8891 O   0  0  0  0  0  0  0  0  0  0  0  0
   27.7097  -21.0398  -10.7902 C   0  0  0  0  0  0  0  0  0  0  0  0
   29.0056  -21.2212  -10.3497 C   0  0  0  0  0  0  0  0  0  0  0  0
   20.0803  -18.7474  -11.0544 C   0  0  0  0  0  0  0  0  0  0  0  0
   20.6840  -20.1267  -11.0814 C   0  0  2  0  0  0  0  0  0  0  0  0
   21.4571  -20.4446   -9.8346 C   0  0  0  0  0  0  0  0  0  0  0  0
   21.5378  -20.3543  -12.3037 C   0  0  2  0  0  0  0  0  0  0  0  0
   22.9422  -20.4424  -11.9850 N   0  0  0  0  0  0  0  0  0  0  0  0
   21.2888  -19.3205  -13.3405 C   0  0  0  0  0  0  0  0  0  0  0  0
   21.8729  -18.2144  -13.2056 O   0  0  0  0  0  0  0  0  0  0  0  0
   20.4370  -19.5321  -14.4488 N   0  0  0  0  0  0  0  0  0  0  0  0
   20.3045  -18.4823  -15.4371 C   0  0  0  0  0  0  0  0  0  0  0  0
   19.0416  -17.7616  -15.2208 C   0  0  0  0  0  0  0  0  0  0  0  0
   18.4173  -17.9113  -14.1546 O   0  0  0  0  0  0  0  0  0  0  0  0
   18.5504  -16.9250  -16.1917 O   0  0  0  0  0  0  0  0  0  0  0  0
  2  1  1  0
  3  2  2  0
  4  3  1  0
  5  4  2  0
  5 11  1  0
  6  5  1  0
  7  8  1  6
  7  6  1  0
  9  7  1  0
 10  9  2  0
 11 12  2  0
 12  2  1  0
 14 13  1  1
 14 15  1  0
 16 17  1  1
 16 14  1  0
 17  9  1  0
 18 16  1  0
 19 18  2  0
 20 18  1  0
 21 20  1  0
 22 24  1  0
 22 21  1  0
 23 22  2  0
M  END
$$$$
