YVG.pdb
     RDKit          3D

 24 24  0  0  1  0  0  0  0  0999 V2000
   19.3598  -23.1428   -7.8621 O   0  0  0  0  0  0  0  0  0  0  0  0
   20.3884  -22.3687   -8.4174 C   0  0  0  0  0  0  0  0  0  0  0  0
   21.2165  -21.6982   -7.5676 C   0  0  0  0  0  0  0  0  0  0  0  0
   22.2449  -20.9239   -8.1148 C   0  0  0  0  0  0  0  0  0  0  0  0
   22.4136  -20.8431   -9.4746 C   0  0  0  0  0  0  0  0  0  0  0  0
   23.5005  -20.0236  -10.0233 C   0  0  0  0  0  0  0  0  0  0  0  0
   24.7370  -20.8488  -10.3512 C   0  0  2  0  0  0  0  0  0  0  0  0
   25.4572  -21.1992   -9.1307 N   0  0  0  0  0  0  0  0  0  0  0  0
   25.5885  -19.9923  -11.2282 C   0  0  0  0  0  0  0  0  0  0  0  0
   26.1197  -18.9821  -10.7155 O   0  0  0  0  0  0  0  0  0  0  0  0
   21.5591  -21.5329  -10.2979 C   0  0  0  0  0  0  0  0  0  0  0  0
   20.5364  -22.3040   -9.7825 C   0  0  0  0  0  0  0  0  0  0  0  0
   27.8692  -21.5082  -14.4382 C   0  0  0  0  0  0  0  0  0  0  0  0
   27.9908  -20.2260  -13.6580 C   0  0  2  0  0  0  0  0  0  0  0  0
   28.6974  -20.4112  -12.3466 C   0  0  0  0  0  0  0  0  0  0  0  0
   26.6566  -19.5547  -13.4479 C   0  0  2  0  0  0  0  0  0  0  0  0
   25.7810  -20.3250  -12.5983 N   0  0  0  0  0  0  0  0  0  0  0  0
   26.0004  -19.2336  -14.7409 C   0  0  0  0  0  0  0  0  0  0  0  0
   25.0672  -19.9882  -15.1184 O   0  0  0  0  0  0  0  0  0  0  0  0
   26.3801  -18.1337  -15.5439 N   0  0  0  0  0  0  0  0  0  0  0  0
   25.6231  -17.8535  -16.7460 C   0  0  0  0  0  0  0  0  0  0  0  0
   26.2540  -18.5261  -17.8908 C   0  0  0  0  0  0  0  0  0  0  0  0
   27.2727  -19.2199  -17.7178 O   0  0  0  0  0  0  0  0  0  0  0  0
   25.7221  -18.3904  -19.1488 O   0  0  0  0  0  0  0  0  0  0  0  0
  2  1  1  0
  3  2  2  0
  4  3  1  0
  5  4  2  0
  5 11  1  0
  6  5  1  0
  7  8  1  1
  7  6  1  0
  9  7  1  0
 10  9  2  0
 11 12  2  0
 12  2  1  0
 14 13  1  1
 14 15  1  0
 16 17  1  1
 16 14  1  0
 17  9  1  0
 18 16  1  0
 19 18  2  0
 20 18  1  0
 21 20  1  0
 22 24  1  0
 22 21  1  0
 23 22  2  0
M  END
$$$$
