YVG.pdb
     RDKit          3D

 24 24  0  0  1  0  0  0  0  0999 V2000
   24.7615   -1.7395    1.6445 O   0  0  0  0  0  0  0  0  0  0  0  0
   24.8326   -0.8940    0.5284 C   0  0  0  0  0  0  0  0  0  0  0  0
   24.7499    0.4503    0.7363 C   0  0  0  0  0  0  0  0  0  0  0  0
   24.8201    1.2999   -0.3728 C   0  0  0  0  0  0  0  0  0  0  0  0
   24.9686    0.7893   -1.6382 C   0  0  0  0  0  0  0  0  0  0  0  0
   25.0396    1.7024   -2.7851 C   0  0  0  0  0  0  0  0  0  0  0  0
   26.4324    1.7537   -3.3972 C   0  0  2  0  0  0  0  0  0  0  0  0
   27.3440    2.4987   -2.5340 N   0  0  0  0  0  0  0  0  0  0  0  0
   26.2840    2.4430   -4.7127 C   0  0  0  0  0  0  0  0  0  0  0  0
   26.6145    3.6480   -4.7782 O   0  0  0  0  0  0  0  0  0  0  0  0
   25.0481   -0.5704   -1.8070 C   0  0  0  0  0  0  0  0  0  0  0  0
   24.9814   -1.4300   -0.7286 C   0  0  0  0  0  0  0  0  0  0  0  0
   26.1608    1.9955   -9.6049 C   0  0  0  0  0  0  0  0  0  0  0  0
   26.2719    1.4041   -8.2245 C   0  0  2  0  0  0  0  0  0  0  0  0
   25.6004    0.0663   -8.1122 C   0  0  0  0  0  0  0  0  0  0  0  0
   25.7628    2.3408   -7.1575 C   0  0  2  0  0  0  0  0  0  0  0  0
   25.7825    1.7420   -5.8449 N   0  0  0  0  0  0  0  0  0  0  0  0
   24.4108    2.8581   -7.4888 C   0  0  0  0  0  0  0  0  0  0  0  0
   23.4245    2.1481   -7.1631 O   0  0  0  0  0  0  0  0  0  0  0  0
   24.1988    4.0933   -8.1430 N   0  0  0  0  0  0  0  0  0  0  0  0
   22.8450    4.4803   -8.4810 C   0  0  0  0  0  0  0  0  0  0  0  0
   22.8526    5.8271   -9.0701 C   0  0  0  0  0  0  0  0  0  0  0  0
   23.9231    6.4541   -9.1699 O   0  0  0  0  0  0  0  0  0  0  0  0
   21.6824    6.3937   -9.5098 O   0  0  0  0  0  0  0  0  0  0  0  0
  2  1  1  0
  3  2  2  0
  4  3  1  0
  5  4  2  0
  5 11  1  0
  6  5  1  0
  7  8  1  1
  7  6  1  0
  9  7  1  0
 10  9  2  0
 11 12  2  0
 12  2  1  0
 14 13  1  6
 14 15  1  0
 16 17  1  1
 16 14  1  0
 17  9  1  0
 18 16  1  0
 19 18  2  0
 20 18  1  0
 21 20  1  0
 22 24  1  0
 22 21  1  0
 23 22  2  0
M  END
$$$$
