YVG.pdb
     RDKit          3D

 24 24  0  0  1  0  0  0  0  0999 V2000
   22.2200  -21.4369   -7.3437 O   0  0  0  0  0  0  0  0  0  0  0  0
   22.6975  -21.4325   -8.6618 C   0  0  0  0  0  0  0  0  0  0  0  0
   21.8288  -21.7602   -9.6595 C   0  0  0  0  0  0  0  0  0  0  0  0
   22.2984  -21.7579  -10.9771 C   0  0  0  0  0  0  0  0  0  0  0  0
   23.6027  -21.4331  -11.2555 C   0  0  0  0  0  0  0  0  0  0  0  0
   24.0704  -21.4382  -12.6466 C   0  0  0  0  0  0  0  0  0  0  0  0
   23.9515  -20.0689  -13.3010 C   0  0  2  0  0  0  0  0  0  0  0  0
   22.5579  -19.7730  -13.6198 N   0  0  0  0  0  0  0  0  0  0  0  0
   24.7671  -20.1318  -14.5494 C   0  0  0  0  0  0  0  0  0  0  0  0
   24.1984  -20.5125  -15.5969 O   0  0  0  0  0  0  0  0  0  0  0  0
   24.4473  -21.1086  -10.2235 C   0  0  0  0  0  0  0  0  0  0  0  0
   24.0080  -21.1036   -8.9146 C   0  0  0  0  0  0  0  0  0  0  0  0
   28.6281  -18.5419  -17.1176 C   0  0  0  0  0  0  0  0  0  0  0  0
   27.8093  -18.5445  -15.8538 C   0  0  2  0  0  0  0  0  0  0  0  0
   28.6483  -18.3779  -14.6203 C   0  0  0  0  0  0  0  0  0  0  0  0
   26.9388  -19.7708  -15.7378 C   0  0  2  0  0  0  0  0  0  0  0  0
   26.1428  -19.7685  -14.5344 N   0  0  0  0  0  0  0  0  0  0  0  0
   27.7390  -21.0172  -15.8471 C   0  0  0  0  0  0  0  0  0  0  0  0
   28.5198  -21.2876  -14.8984 O   0  0  0  0  0  0  0  0  0  0  0  0
   27.6551  -21.8904  -16.9557 N   0  0  0  0  0  0  0  0  0  0  0  0
   28.4831  -23.0781  -16.9723 C   0  0  0  0  0  0  0  0  0  0  0  0
   29.3330  -23.0667  -18.1717 C   0  0  0  0  0  0  0  0  0  0  0  0
   30.1444  -23.9904  -18.3652 O   0  0  0  0  0  0  0  0  0  0  0  0
   29.2333  -22.0403  -19.0774 O   0  0  0  0  0  0  0  0  0  0  0  0
  2  1  1  0
  3  2  2  0
  4  3  1  0
  5  4  2  0
  5 11  1  0
  6  5  1  0
  7  8  1  6
  7  6  1  0
  9  7  1  0
 10  9  2  0
 11 12  2  0
 12  2  1  0
 14 13  1  6
 14 15  1  0
 16 17  1  1
 16 14  1  0
 17  9  1  0
 18 16  1  0
 19 18  2  0
 20 18  1  0
 21 20  1  0
 22 24  1  0
 22 21  1  0
 23 22  2  0
M  END
$$$$
