YHV.pdb
     RDKit          3D

 30 31  0  0  1  0  0  0  0  0999 V2000
   21.6382  -15.9634  -20.1029 O   0  0  0  0  0  0  0  0  0  0  0  0
   21.3760  -14.7217  -19.5212 C   0  0  0  0  0  0  0  0  0  0  0  0
   21.6498  -14.5364  -18.1910 C   0  0  0  0  0  0  0  0  0  0  0  0
   21.4033  -13.3085  -17.5650 C   0  0  0  0  0  0  0  0  0  0  0  0
   20.8764  -12.2490  -18.2723 C   0  0  0  0  0  0  0  0  0  0  0  0
   20.6044  -10.9428  -17.6259 C   0  0  0  0  0  0  0  0  0  0  0  0
   19.5005  -10.9842  -16.6216 C   0  0  2  0  0  0  0  0  0  0  0  0
   18.2913  -11.3999  -17.3117 N   0  0  0  0  0  0  0  0  0  0  0  0
   19.3102   -9.7623  -15.8411 C   0  0  0  0  0  0  0  0  0  0  0  0
   18.7232   -8.7629  -16.3236 O   0  0  0  0  0  0  0  0  0  0  0  0
   20.6047  -12.4518  -19.6173 C   0  0  0  0  0  0  0  0  0  0  0  0
   20.8486  -13.6627  -20.2321 C   0  0  0  0  0  0  0  0  0  0  0  0
   19.7731   -9.6153  -14.4847 N   0  0  0  0  0  0  0  0  0  0  0  0
   19.5124   -8.4055  -13.7407 C   0  0  1  0  0  0  0  0  0  0  0  0
   19.1373   -8.6839  -12.3069 C   0  0  0  0  0  0  0  0  0  0  0  0
   17.7745   -9.1998  -12.1621 C   0  0  0  0  0  0  0  0  0  0  0  0
   16.8990   -9.4671  -13.1854 C   0  0  0  0  0  0  0  0  0  0  0  0
   15.7565   -9.9256  -12.6126 N   0  0  0  0  0  0  0  0  0  0  0  0
   15.8948   -9.9504  -11.2856 C   0  0  0  0  0  0  0  0  0  0  0  0
   17.1412   -9.5015  -11.0197 N   0  0  0  0  0  0  0  0  0  0  0  0
   20.6598   -7.5070  -13.8713 C   0  0  0  0  0  0  0  0  0  0  0  0
   21.8307   -7.9049  -13.6467 O   0  0  0  0  0  0  0  0  0  0  0  0
   21.6940   -5.8100  -16.8211 C   0  0  0  0  0  0  0  0  0  0  0  0
   21.6070   -4.7077  -15.7945 C   0  0  2  0  0  0  0  0  0  0  0  0
   22.6537   -3.6542  -15.9595 C   0  0  0  0  0  0  0  0  0  0  0  0
   21.6351   -5.2971  -14.3989 C   0  0  2  0  0  0  0  0  0  0  0  0
   20.4940   -6.1454  -14.2582 N   0  0  0  0  0  0  0  0  0  0  0  0
   21.6322   -4.2617  -13.3577 C   0  0  0  0  0  0  0  0  0  0  0  0
   20.5643   -3.9226  -12.8031 O   0  0  0  0  0  0  0  0  0  0  0  0
   22.8101   -3.6550  -12.9838 O   0  0  0  0  0  0  0  0  0  0  0  0
  2  1  1  0
  2  3  2  0
  4  3  1  0
  5  4  2  0
  6  5  1  0
  7  9  1  0
  7  6  1  0
  7  8  1  6
  9 10  2  0
 11 12  2  0
 11  5  1  0
 12  2  1  0
 13 14  1  0
 13  9  1  0
 14 15  1  1
 15 16  1  0
 16 17  2  0
 18 17  1  0
 19 18  1  0
 20 19  2  0
 20 16  1  0
 21 14  1  0
 22 21  2  0
 24 23  1  6
 24 25  1  0
 24 26  1  0
 26 27  1  1
 27 21  1  0
 28 26  1  0
 28 30  1  0
 29 28  2  0
M  END
$$$$
