YHV.pdb
     RDKit          3D

 30 31  0  0  1  0  0  0  0  0999 V2000
   19.3533  -13.1283  -16.8254 O   0  0  0  0  0  0  0  0  0  0  0  0
   20.0485  -14.3254  -16.6448 C   0  0  0  0  0  0  0  0  0  0  0  0
   21.3594  -14.2825  -16.2467 C   0  0  0  0  0  0  0  0  0  0  0  0
   22.0963  -15.4572  -16.0529 C   0  0  0  0  0  0  0  0  0  0  0  0
   21.5210  -16.6931  -16.2582 C   0  0  0  0  0  0  0  0  0  0  0  0
   22.2863  -17.9477  -16.0626 C   0  0  0  0  0  0  0  0  0  0  0  0
   23.6594  -17.9151  -16.6479 C   0  0  2  0  0  0  0  0  0  0  0  0
   23.5414  -18.2059  -18.0666 N   0  0  0  0  0  0  0  0  0  0  0  0
   24.6504  -18.7593  -15.9818 C   0  0  0  0  0  0  0  0  0  0  0  0
   24.6010  -20.0113  -16.0593 O   0  0  0  0  0  0  0  0  0  0  0  0
   20.1939  -16.7201  -16.6608 C   0  0  0  0  0  0  0  0  0  0  0  0
   19.4697  -15.5612  -16.8510 C   0  0  0  0  0  0  0  0  0  0  0  0
   25.7382  -18.2282  -15.2006 N   0  0  0  0  0  0  0  0  0  0  0  0
   26.6530  -19.1077  -14.5116 C   0  0  1  0  0  0  0  0  0  0  0  0
   28.0949  -18.7882  -14.8167 C   0  0  0  0  0  0  0  0  0  0  0  0
   28.4643  -19.0802  -16.2032 C   0  0  0  0  0  0  0  0  0  0  0  0
   28.9303  -20.2807  -16.6793 C   0  0  0  0  0  0  0  0  0  0  0  0
   29.1476  -20.1159  -18.0095 N   0  0  0  0  0  0  0  0  0  0  0  0
   28.8354  -18.8689  -18.3672 C   0  0  0  0  0  0  0  0  0  0  0  0
   28.4159  -18.2404  -17.2471 N   0  0  0  0  0  0  0  0  0  0  0  0
   26.3496  -19.0875  -13.0803 C   0  0  0  0  0  0  0  0  0  0  0  0
   26.4580  -18.0337  -12.4038 O   0  0  0  0  0  0  0  0  0  0  0  0
   23.9198  -21.9946  -11.2422 C   0  0  0  0  0  0  0  0  0  0  0  0
   24.1572  -20.5639  -10.8262 C   0  0  2  0  0  0  0  0  0  0  0  0
   23.2743  -19.5837  -11.5278 C   0  0  0  0  0  0  0  0  0  0  0  0
   25.6201  -20.2101  -11.0016 C   0  0  2  0  0  0  0  0  0  0  0  0
   25.9194  -20.2624  -12.3978 N   0  0  0  0  0  0  0  0  0  0  0  0
   26.5044  -21.1150  -10.2565 C   0  0  0  0  0  0  0  0  0  0  0  0
   27.2063  -21.9555  -10.8598 O   0  0  0  0  0  0  0  0  0  0  0  0
   26.5668  -21.0436   -8.8830 O   0  0  0  0  0  0  0  0  0  0  0  0
  2  1  1  0
  2  3  2  0
  4  3  1  0
  5  4  2  0
  6  5  1  0
  7  9  1  0
  7  6  1  0
  7  8  1  6
  9 10  2  0
 11 12  2  0
 11  5  1  0
 12  2  1  0
 13 14  1  0
 13  9  1  0
 14 15  1  1
 15 16  1  0
 16 17  2  0
 18 17  1  0
 19 18  1  0
 20 19  2  0
 20 16  1  0
 21 14  1  0
 22 21  2  0
 24 23  1  6
 24 25  1  0
 24 26  1  0
 26 27  1  6
 27 21  1  0
 28 26  1  0
 28 30  1  0
 29 28  2  0
M  END
$$$$
