YHV.pdb
     RDKit          3D

 30 31  0  0  1  0  0  0  0  0999 V2000
   21.9849  -17.2572  -26.2452 O   0  0  0  0  0  0  0  0  0  0  0  0
   21.9482  -17.7396  -24.9356 C   0  0  0  0  0  0  0  0  0  0  0  0
   21.6804  -16.8694  -23.9110 C   0  0  0  0  0  0  0  0  0  0  0  0
   21.6335  -17.3079  -22.5821 C   0  0  0  0  0  0  0  0  0  0  0  0
   21.8564  -18.6314  -22.2673 C   0  0  0  0  0  0  0  0  0  0  0  0
   21.8153  -19.1137  -20.8660 C   0  0  0  0  0  0  0  0  0  0  0  0
   23.1602  -19.2329  -20.2287 C   0  0  2  0  0  0  0  0  0  0  0  0
   23.8374  -20.3659  -20.8360 N   0  0  0  0  0  0  0  0  0  0  0  0
   23.1639  -19.2932  -18.7676 C   0  0  0  0  0  0  0  0  0  0  0  0
   23.1992  -20.3904  -18.1584 O   0  0  0  0  0  0  0  0  0  0  0  0
   22.1260  -19.4997  -23.3149 C   0  0  0  0  0  0  0  0  0  0  0  0
   22.1717  -19.0654  -24.6238 C   0  0  0  0  0  0  0  0  0  0  0  0
   23.1279  -18.1202  -17.9320 N   0  0  0  0  0  0  0  0  0  0  0  0
   23.2943  -18.2252  -16.5014 C   0  0  1  0  0  0  0  0  0  0  0  0
   23.9706  -17.0128  -15.9125 C   0  0  0  0  0  0  0  0  0  0  0  0
   25.3863  -16.9157  -16.2737 C   0  0  0  0  0  0  0  0  0  0  0  0
   26.1023  -17.8418  -16.9911 C   0  0  0  0  0  0  0  0  0  0  0  0
   27.3676  -17.3606  -17.0977 N   0  0  0  0  0  0  0  0  0  0  0  0
   27.4565  -16.1824  -16.4776 C   0  0  0  0  0  0  0  0  0  0  0  0
   26.2308  -15.9185  -15.9741 N   0  0  0  0  0  0  0  0  0  0  0  0
   21.9975  -18.5151  -15.8889 C   0  0  0  0  0  0  0  0  0  0  0  0
   20.9354  -18.0168  -16.3401 O   0  0  0  0  0  0  0  0  0  0  0  0
   18.9143  -21.4487  -13.9469 C   0  0  0  0  0  0  0  0  0  0  0  0
   20.2945  -21.1161  -14.4579 C   0  0  2  0  0  0  0  0  0  0  0  0
   21.3635  -22.0064  -13.9128 C   0  0  0  0  0  0  0  0  0  0  0  0
   20.6062  -19.6570  -14.1938 C   0  0  2  0  0  0  0  0  0  0  0  0
   21.8886  -19.3738  -14.7567 N   0  0  0  0  0  0  0  0  0  0  0  0
   20.5965  -19.3367  -12.7608 C   0  0  0  0  0  0  0  0  0  0  0  0
   21.6669  -19.1238  -12.1510 O   0  0  0  0  0  0  0  0  0  0  0  0
   19.4038  -19.2685  -12.0765 O   0  0  0  0  0  0  0  0  0  0  0  0
  2  1  1  0
  2  3  2  0
  4  3  1  0
  5  4  2  0
  6  5  1  0
  7  9  1  0
  7  6  1  0
  7  8  1  6
  9 10  2  0
 11 12  2  0
 11  5  1  0
 12  2  1  0
 13 14  1  0
 13  9  1  0
 14 15  1  1
 15 16  1  0
 16 17  2  0
 18 17  1  0
 19 18  1  0
 20 19  2  0
 20 16  1  0
 21 14  1  0
 22 21  2  0
 24 23  1  1
 24 25  1  0
 24 26  1  0
 26 27  1  1
 27 21  1  0
 28 26  1  0
 28 30  1  0
 29 28  2  0
M  END
$$$$
