YHV.pdb
     RDKit          3D

 30 31  0  0  1  0  0  0  0  0999 V2000
   28.2210  -19.7997   -4.2664 O   0  0  0  0  0  0  0  0  0  0  0  0
   27.6865  -19.7581   -5.5554 C   0  0  0  0  0  0  0  0  0  0  0  0
   28.1430  -18.8133   -6.4373 C   0  0  0  0  0  0  0  0  0  0  0  0
   27.6364  -18.7338   -7.7401 C   0  0  0  0  0  0  0  0  0  0  0  0
   26.6609  -19.6068   -8.1725 C   0  0  0  0  0  0  0  0  0  0  0  0
   26.1090  -19.5354   -9.5466 C   0  0  0  0  0  0  0  0  0  0  0  0
   26.3453  -20.7668  -10.3570 C   0  0  2  0  0  0  0  0  0  0  0  0
   27.7799  -20.9047  -10.5420 N   0  0  0  0  0  0  0  0  0  0  0  0
   25.6062  -20.8458  -11.6164 C   0  0  0  0  0  0  0  0  0  0  0  0
   26.0083  -20.2556  -12.6489 O   0  0  0  0  0  0  0  0  0  0  0  0
   26.2092  -20.5571   -7.2687 C   0  0  0  0  0  0  0  0  0  0  0  0
   26.7100  -20.6337   -5.9853 C   0  0  0  0  0  0  0  0  0  0  0  0
   24.3834  -21.5929  -11.7651 N   0  0  0  0  0  0  0  0  0  0  0  0
   23.6891  -21.6320  -13.0306 C   0  0  1  0  0  0  0  0  0  0  0  0
   23.2762  -23.0305  -13.4150 C   0  0  0  0  0  0  0  0  0  0  0  0
   24.3333  -23.7684  -14.1095 C   0  0  0  0  0  0  0  0  0  0  0  0
   25.5696  -23.2786  -14.4512 C   0  0  0  0  0  0  0  0  0  0  0  0
   26.2306  -24.2870  -15.0757 N   0  0  0  0  0  0  0  0  0  0  0  0
   25.4536  -25.3704  -15.1309 C   0  0  0  0  0  0  0  0  0  0  0  0
   24.2880  -25.0395  -14.5330 N   0  0  0  0  0  0  0  0  0  0  0  0
   22.5687  -20.6917  -12.9909 C   0  0  0  0  0  0  0  0  0  0  0  0
   22.0126  -20.3827  -11.9068 O   0  0  0  0  0  0  0  0  0  0  0  0
   21.2056  -18.7921  -16.5400 C   0  0  0  0  0  0  0  0  0  0  0  0
   21.0784  -18.1645  -15.1738 C   0  0  2  0  0  0  0  0  0  0  0  0
   22.2031  -17.2414  -14.8338 C   0  0  0  0  0  0  0  0  0  0  0  0
   20.9150  -19.2430  -14.1221 C   0  0  2  0  0  0  0  0  0  0  0  0
   22.0645  -20.0897  -14.1802 N   0  0  0  0  0  0  0  0  0  0  0  0
   19.6914  -20.0306  -14.3186 C   0  0  0  0  0  0  0  0  0  0  0  0
   19.7462  -21.1725  -14.8247 O   0  0  0  0  0  0  0  0  0  0  0  0
   18.4707  -19.5148  -13.9453 O   0  0  0  0  0  0  0  0  0  0  0  0
  2  1  1  0
  2  3  2  0
  4  3  1  0
  5  4  2  0
  6  5  1  0
  7  9  1  0
  7  6  1  0
  7  8  1  6
  9 10  2  0
 11 12  2  0
 11  5  1  0
 12  2  1  0
 13 14  1  0
 13  9  1  0
 14 15  1  1
 15 16  1  0
 16 17  2  0
 18 17  1  0
 19 18  1  0
 20 19  2  0
 20 16  1  0
 21 14  1  0
 22 21  2  0
 24 23  1  6
 24 25  1  0
 24 26  1  0
 26 27  1  6
 27 21  1  0
 28 26  1  0
 28 30  1  0
 29 28  2  0
M  END
$$$$
