YHV.pdb
     RDKit          3D

 30 31  0  0  1  0  0  0  0  0999 V2000
   19.7920  -23.5491   -6.7360 O   0  0  0  0  0  0  0  0  0  0  0  0
   20.7010  -22.7848   -7.4698 C   0  0  0  0  0  0  0  0  0  0  0  0
   20.5564  -22.6996   -8.8302 C   0  0  0  0  0  0  0  0  0  0  0  0
   21.4438  -21.9449   -9.6070 C   0  0  0  0  0  0  0  0  0  0  0  0
   22.4908  -21.2648   -9.0223 C   0  0  0  0  0  0  0  0  0  0  0  0
   23.4432  -20.4643   -9.8285 C   0  0  0  0  0  0  0  0  0  0  0  0
   24.7699  -21.1207  -10.0234 C   0  0  2  0  0  0  0  0  0  0  0  0
   25.5698  -20.8597   -8.8388 N   0  0  0  0  0  0  0  0  0  0  0  0
   25.4693  -20.7766  -11.2607 C   0  0  0  0  0  0  0  0  0  0  0  0
   26.3166  -19.8510  -11.2973 O   0  0  0  0  0  0  0  0  0  0  0  0
   22.6238  -21.3607   -7.6449 C   0  0  0  0  0  0  0  0  0  0  0  0
   21.7481  -22.1049   -6.8814 C   0  0  0  0  0  0  0  0  0  0  0  0
   25.2434  -21.4608  -12.5083 N   0  0  0  0  0  0  0  0  0  0  0  0
   26.0865  -21.2098  -13.6534 C   0  0  1  0  0  0  0  0  0  0  0  0
   26.2737  -22.4383  -14.5078 C   0  0  0  0  0  0  0  0  0  0  0  0
   27.1587  -22.2099  -15.6518 C   0  0  0  0  0  0  0  0  0  0  0  0
   26.9362  -22.6265  -16.9410 C   0  0  0  0  0  0  0  0  0  0  0  0
   27.9981  -22.2072  -17.6761 N   0  0  0  0  0  0  0  0  0  0  0  0
   28.8590  -21.5532  -16.8939 C   0  0  0  0  0  0  0  0  0  0  0  0
   28.3318  -21.5611  -15.6499 N   0  0  0  0  0  0  0  0  0  0  0  0
   25.5556  -20.0671  -14.3972 C   0  0  0  0  0  0  0  0  0  0  0  0
   24.3180  -19.8834  -14.5178 O   0  0  0  0  0  0  0  0  0  0  0  0
   26.1405  -15.5934  -16.1562 C   0  0  0  0  0  0  0  0  0  0  0  0
   26.7285  -16.8019  -15.4703 C   0  0  2  0  0  0  0  0  0  0  0  0
   28.1596  -17.0500  -15.8211 C   0  0  0  0  0  0  0  0  0  0  0  0
   25.8743  -18.0219  -15.7495 C   0  0  2  0  0  0  0  0  0  0  0  0
   26.4214  -19.1178  -15.0140 N   0  0  0  0  0  0  0  0  0  0  0  0
   25.8181  -18.3458  -17.1806 C   0  0  0  0  0  0  0  0  0  0  0  0
   26.6915  -19.0731  -17.7013 O   0  0  0  0  0  0  0  0  0  0  0  0
   24.7991  -17.8488  -17.9617 O   0  0  0  0  0  0  0  0  0  0  0  0
  2  1  1  0
  2  3  2  0
  4  3  1  0
  5  4  2  0
  6  5  1  0
  7  9  1  0
  7  6  1  0
  7  8  1  1
  9 10  2  0
 11 12  2  0
 11  5  1  0
 12  2  1  0
 13 14  1  0
 13  9  1  0
 14 15  1  6
 15 16  1  0
 16 17  2  0
 18 17  1  0
 19 18  1  0
 20 19  2  0
 20 16  1  0
 21 14  1  0
 22 21  2  0
 24 23  1  6
 24 25  1  0
 24 26  1  0
 26 27  1  1
 27 21  1  0
 28 26  1  0
 28 30  1  0
 29 28  2  0
M  END
$$$$
