YHV.pdb
     RDKit          3D

 30 31  0  0  1  0  0  0  0  0999 V2000
   27.7838  -20.4545   -6.5550 O   0  0  0  0  0  0  0  0  0  0  0  0
   27.3691  -20.3968   -7.8867 C   0  0  0  0  0  0  0  0  0  0  0  0
   28.3128  -20.4043   -8.8808 C   0  0  0  0  0  0  0  0  0  0  0  0
   27.9438  -20.3478  -10.2302 C   0  0  0  0  0  0  0  0  0  0  0  0
   26.6164  -20.2827  -10.5968 C   0  0  0  0  0  0  0  0  0  0  0  0
   26.2063  -20.2178  -12.0200 C   0  0  0  0  0  0  0  0  0  0  0  0
   25.9461  -21.5531  -12.6350 C   0  0  2  0  0  0  0  0  0  0  0  0
   27.2080  -22.0539  -13.1526 N   0  0  0  0  0  0  0  0  0  0  0  0
   24.8752  -21.5925  -13.6301 C   0  0  0  0  0  0  0  0  0  0  0  0
   25.0989  -21.3509  -14.8415 O   0  0  0  0  0  0  0  0  0  0  0  0
   25.6733  -20.2760   -9.5796 C   0  0  0  0  0  0  0  0  0  0  0  0
   26.0393  -20.3318   -8.2505 C   0  0  0  0  0  0  0  0  0  0  0  0
   23.5078  -21.9058  -13.3019 N   0  0  0  0  0  0  0  0  0  0  0  0
   22.5115  -22.0458  -14.3376 C   0  0  1  0  0  0  0  0  0  0  0  0
   21.9315  -23.4368  -14.3908 C   0  0  0  0  0  0  0  0  0  0  0  0
   22.8436  -24.4144  -14.9877 C   0  0  0  0  0  0  0  0  0  0  0  0
   24.1039  -24.1556  -15.4672 C   0  0  0  0  0  0  0  0  0  0  0  0
   24.5960  -25.3339  -15.9290 N   0  0  0  0  0  0  0  0  0  0  0  0
   23.6931  -26.3005  -15.7532 C   0  0  0  0  0  0  0  0  0  0  0  0
   22.6183  -25.7229  -15.1729 N   0  0  0  0  0  0  0  0  0  0  0  0
   21.4967  -21.0052  -14.1692 C   0  0  0  0  0  0  0  0  0  0  0  0
   21.1516  -20.6072  -13.0280 O   0  0  0  0  0  0  0  0  0  0  0  0
   19.8354  -19.0346  -17.5426 C   0  0  0  0  0  0  0  0  0  0  0  0
   19.9746  -18.3830  -16.1889 C   0  0  2  0  0  0  0  0  0  0  0  0
   21.2347  -17.5955  -16.0321 C   0  0  0  0  0  0  0  0  0  0  0  0
   19.8373  -19.4244  -15.0969 C   0  0  2  0  0  0  0  0  0  0  0  0
   20.8602  -20.4027  -15.2929 N   0  0  0  0  0  0  0  0  0  0  0  0
   18.5147  -20.0622  -15.0997 C   0  0  0  0  0  0  0  0  0  0  0  0
   18.3598  -21.1996  -15.5951 O   0  0  0  0  0  0  0  0  0  0  0  0
   17.4321  -19.4094  -14.5546 O   0  0  0  0  0  0  0  0  0  0  0  0
  2  1  1  0
  2  3  2  0
  4  3  1  0
  5  4  2  0
  6  5  1  0
  7  9  1  0
  7  6  1  0
  7  8  1  6
  9 10  2  0
 11 12  2  0
 11  5  1  0
 12  2  1  0
 13 14  1  0
 13  9  1  0
 14 15  1  1
 15 16  1  0
 16 17  2  0
 18 17  1  0
 19 18  1  0
 20 19  2  0
 20 16  1  0
 21 14  1  0
 22 21  2  0
 24 23  1  6
 24 25  1  0
 24 26  1  0
 26 27  1  6
 27 21  1  0
 28 26  1  0
 28 30  1  0
 29 28  2  0
M  END
$$$$
