YHV.pdb
     RDKit          3D

 30 31  0  0  1  0  0  0  0  0999 V2000
   16.9472  -10.5464  -25.8873 O   0  0  0  0  0  0  0  0  0  0  0  0
   17.1197  -11.4648  -24.8501 C   0  0  0  0  0  0  0  0  0  0  0  0
   17.3186  -12.7863  -25.1547 C   0  0  0  0  0  0  0  0  0  0  0  0
   17.4962  -13.7428  -24.1478 C   0  0  0  0  0  0  0  0  0  0  0  0
   17.4756  -13.3799  -22.8180 C   0  0  0  0  0  0  0  0  0  0  0  0
   17.6574  -14.3788  -21.7377 C   0  0  0  0  0  0  0  0  0  0  0  0
   18.9773  -14.2870  -21.0460 C   0  0  2  0  0  0  0  0  0  0  0  0
   20.0027  -14.6772  -21.9985 N   0  0  0  0  0  0  0  0  0  0  0  0
   19.0796  -15.0135  -19.7810 C   0  0  0  0  0  0  0  0  0  0  0  0
   19.5306  -16.1841  -19.7338 O   0  0  0  0  0  0  0  0  0  0  0  0
   17.2734  -12.0391  -22.5257 C   0  0  0  0  0  0  0  0  0  0  0  0
   17.0987  -11.0982  -23.5196 C   0  0  0  0  0  0  0  0  0  0  0  0
   18.6782  -14.4515  -18.5166 N   0  0  0  0  0  0  0  0  0  0  0  0
   18.7459  -15.2332  -17.3044 C   0  0  1  0  0  0  0  0  0  0  0  0
   19.0805  -14.3924  -16.0981 C   0  0  0  0  0  0  0  0  0  0  0  0
   20.4939  -14.0140  -16.0389 C   0  0  0  0  0  0  0  0  0  0  0  0
   21.4894  -14.4778  -16.8628 C   0  0  0  0  0  0  0  0  0  0  0  0
   22.6390  -13.8748  -16.4646 N   0  0  0  0  0  0  0  0  0  0  0  0
   22.3904  -13.0637  -15.4346 C   0  0  0  0  0  0  0  0  0  0  0  0
   21.0665  -13.1575  -15.1812 N   0  0  0  0  0  0  0  0  0  0  0  0
   17.5021  -15.9887  -17.1521 C   0  0  0  0  0  0  0  0  0  0  0  0
   16.3815  -15.4419  -17.3105 O   0  0  0  0  0  0  0  0  0  0  0  0
   17.5996  -20.2355  -17.0143 C   0  0  0  0  0  0  0  0  0  0  0  0
   16.5616  -19.3741  -17.6905 C   0  0  2  0  0  0  0  0  0  0  0  0
   16.9037  -19.0244  -19.1023 C   0  0  0  0  0  0  0  0  0  0  0  0
   16.3023  -18.1312  -16.8634 C   0  0  2  0  0  0  0  0  0  0  0  0
   17.5133  -17.3741  -16.8182 N   0  0  0  0  0  0  0  0  0  0  0  0
   15.8508  -18.4522  -15.5036 C   0  0  0  0  0  0  0  0  0  0  0  0
   16.6160  -18.2958  -14.5274 O   0  0  0  0  0  0  0  0  0  0  0  0
   14.5765  -18.9295  -15.2937 O   0  0  0  0  0  0  0  0  0  0  0  0
  2  1  1  0
  2  3  2  0
  4  3  1  0
  5  4  2  0
  6  5  1  0
  7  9  1  0
  7  6  1  0
  7  8  1  6
  9 10  2  0
 11 12  2  0
 11  5  1  0
 12  2  1  0
 13 14  1  0
 13  9  1  0
 14 15  1  1
 15 16  1  0
 16 17  2  0
 18 17  1  0
 19 18  1  0
 20 19  2  0
 20 16  1  0
 21 14  1  0
 22 21  2  0
 24 23  1  1
 24 25  1  0
 24 26  1  0
 26 27  1  1
 27 21  1  0
 28 26  1  0
 28 30  1  0
 29 28  2  0
M  END
$$$$
