YHV.pdb
     RDKit          3D

 30 31  0  0  1  0  0  0  0  0999 V2000
   22.1845  -28.6395  -10.5250 O   0  0  0  0  0  0  0  0  0  0  0  0
   22.7434  -29.6198   -9.7031 C   0  0  0  0  0  0  0  0  0  0  0  0
   23.8413  -29.3081   -8.9440 C   0  0  0  0  0  0  0  0  0  0  0  0
   24.4355  -30.2588   -8.1052 C   0  0  0  0  0  0  0  0  0  0  0  0
   23.9304  -31.5387   -8.0201 C   0  0  0  0  0  0  0  0  0  0  0  0
   24.5485  -32.5602   -7.1412 C   0  0  0  0  0  0  0  0  0  0  0  0
   25.8613  -33.0694   -7.6374 C   0  0  2  0  0  0  0  0  0  0  0  0
   25.6074  -33.8490   -8.8369 N   0  0  0  0  0  0  0  0  0  0  0  0
   26.6695  -33.7936   -6.6572 C   0  0  0  0  0  0  0  0  0  0  0  0
   26.5306  -35.0285   -6.4793 O   0  0  0  0  0  0  0  0  0  0  0  0
   22.8192  -31.8389   -8.7941 C   0  0  0  0  0  0  0  0  0  0  0  0
   22.2353  -30.9004   -9.6199 C   0  0  0  0  0  0  0  0  0  0  0  0
   27.6678  -33.1567   -5.8365 N   0  0  0  0  0  0  0  0  0  0  0  0
   28.4446  -33.9209   -4.8890 C   0  0  1  0  0  0  0  0  0  0  0  0
   29.8798  -33.4628   -4.8225 C   0  0  0  0  0  0  0  0  0  0  0  0
   30.7326  -34.1066   -5.8237 C   0  0  0  0  0  0  0  0  0  0  0  0
   30.3937  -35.1885   -6.5981 C   0  0  0  0  0  0  0  0  0  0  0  0
   31.4674  -35.4580   -7.3845 N   0  0  0  0  0  0  0  0  0  0  0  0
   32.4467  -34.5896   -7.1251 C   0  0  0  0  0  0  0  0  0  0  0  0
   31.9831  -33.7623   -6.1626 N   0  0  0  0  0  0  0  0  0  0  0  0
   27.7722  -33.8974   -3.5897 C   0  0  0  0  0  0  0  0  0  0  0  0
   27.3033  -32.8320   -3.1154 O   0  0  0  0  0  0  0  0  0  0  0  0
   25.0599  -36.2044   -0.3655 C   0  0  0  0  0  0  0  0  0  0  0  0
   25.8969  -36.2086   -1.6208 C   0  0  2  0  0  0  0  0  0  0  0  0
   26.5995  -37.5044   -1.8655 C   0  0  0  0  0  0  0  0  0  0  0  0
   26.8731  -35.0499   -1.5956 C   0  0  2  0  0  0  0  0  0  0  0  0
   27.6230  -35.0819   -2.8114 N   0  0  0  0  0  0  0  0  0  0  0  0
   27.7752  -35.1078   -0.4385 C   0  0  0  0  0  0  0  0  0  0  0  0
   28.9248  -35.5855   -0.5535 O   0  0  0  0  0  0  0  0  0  0  0  0
   27.3595  -34.6344    0.7856 O   0  0  0  0  0  0  0  0  0  0  0  0
  2  1  1  0
  2  3  2  0
  4  3  1  0
  5  4  2  0
  6  5  1  0
  7  9  1  0
  7  6  1  0
  7  8  1  6
  9 10  2  0
 11 12  2  0
 11  5  1  0
 12  2  1  0
 13 14  1  0
 13  9  1  0
 14 15  1  1
 15 16  1  0
 16 17  2  0
 18 17  1  0
 19 18  1  0
 20 19  2  0
 20 16  1  0
 21 14  1  0
 22 21  2  0
 24 23  1  1
 24 25  1  0
 24 26  1  0
 26 27  1  6
 27 21  1  0
 28 26  1  0
 28 30  1  0
 29 28  2  0
M  END
$$$$
