YHV.pdb
     RDKit          3D

 30 31  0  0  1  0  0  0  0  0999 V2000
   27.5752  -12.8309  -22.2198 O   0  0  0  0  0  0  0  0  0  0  0  0
   26.9112  -13.7703  -21.4288 C   0  0  0  0  0  0  0  0  0  0  0  0
   26.2426  -14.8012  -22.0361 C   0  0  0  0  0  0  0  0  0  0  0  0
   25.5628  -15.7665  -21.2835 C   0  0  0  0  0  0  0  0  0  0  0  0
   25.5474  -15.7057  -19.9064 C   0  0  0  0  0  0  0  0  0  0  0  0
   24.8295  -16.7158  -19.0926 C   0  0  0  0  0  0  0  0  0  0  0  0
   25.6567  -17.9085  -18.7431 C   0  0  2  0  0  0  0  0  0  0  0  0
   25.9147  -18.6418  -19.9706 N   0  0  0  0  0  0  0  0  0  0  0  0
   25.1208  -18.7601  -17.6818 C   0  0  0  0  0  0  0  0  0  0  0  0
   24.5025  -19.8207  -17.9439 O   0  0  0  0  0  0  0  0  0  0  0  0
   26.2285  -14.6568  -19.3065 C   0  0  0  0  0  0  0  0  0  0  0  0
   26.8978  -13.7067  -20.0501 C   0  0  0  0  0  0  0  0  0  0  0  0
   25.2591  -18.4522  -16.2812 N   0  0  0  0  0  0  0  0  0  0  0  0
   24.7348  -19.3425  -15.2724 C   0  0  1  0  0  0  0  0  0  0  0  0
   25.6659  -19.4863  -14.0949 C   0  0  0  0  0  0  0  0  0  0  0  0
   25.0765  -20.2438  -12.9890 C   0  0  0  0  0  0  0  0  0  0  0  0
   23.8085  -20.7693  -12.9552 C   0  0  0  0  0  0  0  0  0  0  0  0
   23.6740  -21.3887  -11.7543 N   0  0  0  0  0  0  0  0  0  0  0  0
   24.8026  -21.2651  -11.0533 C   0  0  0  0  0  0  0  0  0  0  0  0
   25.6590  -20.5584  -11.8233 N   0  0  0  0  0  0  0  0  0  0  0  0
   23.3927  -18.8993  -14.8940 C   0  0  0  0  0  0  0  0  0  0  0  0
   23.1714  -17.7141  -14.5386 O   0  0  0  0  0  0  0  0  0  0  0  0
   18.6738  -19.0053  -15.3073 C   0  0  0  0  0  0  0  0  0  0  0  0
   20.0493  -19.5016  -15.6793 C   0  0  2  0  0  0  0  0  0  0  0  0
   20.0584  -20.9033  -16.1968 C   0  0  0  0  0  0  0  0  0  0  0  0
   20.9919  -19.3433  -14.5036 C   0  0  2  0  0  0  0  0  0  0  0  0
   22.2840  -19.7947  -14.9137 N   0  0  0  0  0  0  0  0  0  0  0  0
   20.5408  -20.0927  -13.3242 C   0  0  0  0  0  0  0  0  0  0  0  0
   20.9648  -21.2485  -13.1065 O   0  0  0  0  0  0  0  0  0  0  0  0
   19.6443  -19.5253  -12.4468 O   0  0  0  0  0  0  0  0  0  0  0  0
  2  1  1  0
  2  3  2  0
  4  3  1  0
  5  4  2  0
  6  5  1  0
  7  9  1  0
  7  6  1  0
  7  8  1  6
  9 10  2  0
 11 12  2  0
 11  5  1  0
 12  2  1  0
 13 14  1  0
 13  9  1  0
 14 15  1  1
 15 16  1  0
 16 17  2  0
 18 17  1  0
 19 18  1  0
 20 19  2  0
 20 16  1  0
 21 14  1  0
 22 21  2  0
 24 23  1  1
 24 25  1  0
 24 26  1  0
 26 27  1  6
 27 21  1  0
 28 26  1  0
 28 30  1  0
 29 28  2  0
M  END
$$$$
