YHV.pdb
     RDKit          3D

 30 31  0  0  1  0  0  0  0  0999 V2000
   15.1696  -16.1767  -16.8617 O   0  0  0  0  0  0  0  0  0  0  0  0
   16.4337  -16.7220  -16.6302 C   0  0  0  0  0  0  0  0  0  0  0  0
   16.5869  -18.0839  -16.6487 C   0  0  0  0  0  0  0  0  0  0  0  0
   17.8355  -18.6755  -16.4220 C   0  0  0  0  0  0  0  0  0  0  0  0
   18.9485  -17.9011  -16.1730 C   0  0  0  0  0  0  0  0  0  0  0  0
   20.2779  -18.5092  -15.9262 C   0  0  0  0  0  0  0  0  0  0  0  0
   21.3478  -18.0144  -16.8425 C   0  0  2  0  0  0  0  0  0  0  0  0
   21.0122  -18.4487  -18.1879 N   0  0  0  0  0  0  0  0  0  0  0  0
   22.7160  -18.3652  -16.4638 C   0  0  0  0  0  0  0  0  0  0  0  0
   23.1279  -19.5496  -16.5232 O   0  0  0  0  0  0  0  0  0  0  0  0
   18.7776  -16.5247  -16.1576 C   0  0  0  0  0  0  0  0  0  0  0  0
   17.5462  -15.9439  -16.3814 C   0  0  0  0  0  0  0  0  0  0  0  0
   23.6772  -17.3962  -16.0024 N   0  0  0  0  0  0  0  0  0  0  0  0
   25.0422  -17.7800  -15.7290 C   0  0  1  0  0  0  0  0  0  0  0  0
   26.0096  -16.6413  -15.9330 C   0  0  0  0  0  0  0  0  0  0  0  0
   26.4254  -16.4871  -17.3285 C   0  0  0  0  0  0  0  0  0  0  0  0
   26.0148  -17.2631  -18.3841 C   0  0  0  0  0  0  0  0  0  0  0  0
   26.6374  -16.7800  -19.4899 N   0  0  0  0  0  0  0  0  0  0  0  0
   27.4097  -15.7439  -19.1571 C   0  0  0  0  0  0  0  0  0  0  0  0
   27.2712  -15.5727  -17.8240 N   0  0  0  0  0  0  0  0  0  0  0  0
   25.1157  -18.3646  -14.3897 C   0  0  0  0  0  0  0  0  0  0  0  0
   24.5708  -17.8086  -13.4028 O   0  0  0  0  0  0  0  0  0  0  0  0
   24.3920  -21.9572  -13.4615 C   0  0  0  0  0  0  0  0  0  0  0  0
   25.7494  -21.6114  -12.9008 C   0  0  2  0  0  0  0  0  0  0  0  0
   26.0320  -22.2540  -11.5818 C   0  0  0  0  0  0  0  0  0  0  0  0
   25.9097  -20.1065  -12.8249 C   0  0  2  0  0  0  0  0  0  0  0  0
   25.8082  -19.5873  -14.1522 N   0  0  0  0  0  0  0  0  0  0  0  0
   27.1886  -19.7132  -12.2201 C   0  0  0  0  0  0  0  0  0  0  0  0
   28.1950  -19.5168  -12.9354 O   0  0  0  0  0  0  0  0  0  0  0  0
   27.2884  -19.5574  -10.8558 O   0  0  0  0  0  0  0  0  0  0  0  0
  2  1  1  0
  2  3  2  0
  4  3  1  0
  5  4  2  0
  6  5  1  0
  7  9  1  0
  7  6  1  0
  7  8  1  6
  9 10  2  0
 11 12  2  0
 11  5  1  0
 12  2  1  0
 13 14  1  0
 13  9  1  0
 14 15  1  1
 15 16  1  0
 16 17  2  0
 18 17  1  0
 19 18  1  0
 20 19  2  0
 20 16  1  0
 21 14  1  0
 22 21  2  0
 24 23  1  1
 24 25  1  0
 24 26  1  0
 26 27  1  6
 27 21  1  0
 28 26  1  0
 28 30  1  0
 29 28  2  0
M  END
$$$$
