YHV.pdb
     RDKit          3D

 30 31  0  0  1  0  0  0  0  0999 V2000
   16.6312  -19.4059  -16.3000 O   0  0  0  0  0  0  0  0  0  0  0  0
   17.2903  -18.1904  -16.4925 C   0  0  0  0  0  0  0  0  0  0  0  0
   16.8392  -17.0750  -15.8356 C   0  0  0  0  0  0  0  0  0  0  0  0
   17.4686  -15.8349  -15.9979 C   0  0  0  0  0  0  0  0  0  0  0  0
   18.5627  -15.7017  -16.8259 C   0  0  0  0  0  0  0  0  0  0  0  0
   19.2396  -14.3962  -17.0140 C   0  0  0  0  0  0  0  0  0  0  0  0
   18.6510  -13.5622  -18.1034 C   0  0  2  0  0  0  0  0  0  0  0  0
   18.9387  -14.2195  -19.3668 N   0  0  0  0  0  0  0  0  0  0  0  0
   19.0416  -12.1529  -18.1015 C   0  0  0  0  0  0  0  0  0  0  0  0
   20.0373  -11.7494  -18.7509 O   0  0  0  0  0  0  0  0  0  0  0  0
   19.0074  -16.8392  -17.4835 C   0  0  0  0  0  0  0  0  0  0  0  0
   18.3857  -18.0603  -17.3220 C   0  0  0  0  0  0  0  0  0  0  0  0
   18.3268  -11.1397  -17.3679 N   0  0  0  0  0  0  0  0  0  0  0  0
   18.7529   -9.7605  -17.4041 C   0  0  1  0  0  0  0  0  0  0  0  0
   17.6656   -8.8371  -17.8931 C   0  0  0  0  0  0  0  0  0  0  0  0
   17.1951   -9.1701  -19.2392 C   0  0  0  0  0  0  0  0  0  0  0  0
   16.0237   -9.8160  -19.5487 C   0  0  0  0  0  0  0  0  0  0  0  0
   15.9807   -9.9205  -20.9018 N   0  0  0  0  0  0  0  0  0  0  0  0
   17.0730   -9.3675  -21.4326 C   0  0  0  0  0  0  0  0  0  0  0  0
   17.8133   -8.9089  -20.3997 N   0  0  0  0  0  0  0  0  0  0  0  0
   19.2770   -9.3871  -16.0900 C   0  0  0  0  0  0  0  0  0  0  0  0
   18.6209   -9.6013  -15.0394 O   0  0  0  0  0  0  0  0  0  0  0  0
   23.3964   -8.7798  -15.5514 C   0  0  0  0  0  0  0  0  0  0  0  0
   22.3998   -9.3198  -14.5555 C   0  0  2  0  0  0  0  0  0  0  0  0
   22.1638  -10.7895  -14.6842 C   0  0  0  0  0  0  0  0  0  0  0  0
   21.1016   -8.5439  -14.6502 C   0  0  2  0  0  0  0  0  0  0  0  0
   20.5520   -8.7659  -15.9503 N   0  0  0  0  0  0  0  0  0  0  0  0
   21.2941   -7.1071  -14.4167 C   0  0  0  0  0  0  0  0  0  0  0  0
   21.2913   -6.3027  -15.3738 O   0  0  0  0  0  0  0  0  0  0  0  0
   21.4798   -6.6342  -13.1371 O   0  0  0  0  0  0  0  0  0  0  0  0
  2  1  1  0
  2  3  2  0
  4  3  1  0
  5  4  2  0
  6  5  1  0
  7  9  1  0
  7  6  1  0
  7  8  1  6
  9 10  2  0
 11 12  2  0
 11  5  1  0
 12  2  1  0
 13 14  1  0
 13  9  1  0
 14 15  1  1
 15 16  1  0
 16 17  2  0
 18 17  1  0
 19 18  1  0
 20 19  2  0
 20 16  1  0
 21 14  1  0
 22 21  2  0
 24 23  1  6
 24 25  1  0
 24 26  1  0
 26 27  1  6
 27 21  1  0
 28 26  1  0
 28 30  1  0
 29 28  2  0
M  END
$$$$
