YHV.pdb
     RDKit          3D

 30 31  0  0  1  0  0  0  0  0999 V2000
   14.6532  -15.4833  -15.6420 O   0  0  0  0  0  0  0  0  0  0  0  0
   15.5057  -14.3785  -15.6807 C   0  0  0  0  0  0  0  0  0  0  0  0
   15.0694  -13.2188  -16.2667 C   0  0  0  0  0  0  0  0  0  0  0  0
   15.8895  -12.0856  -16.3287 C   0  0  0  0  0  0  0  0  0  0  0  0
   17.1626  -12.1060  -15.8002 C   0  0  0  0  0  0  0  0  0  0  0  0
   18.0472  -10.9178  -15.8602 C   0  0  0  0  0  0  0  0  0  0  0  0
   18.5807  -10.6305  -17.2247 C   0  0  2  0  0  0  0  0  0  0  0  0
   19.4832  -11.7116  -17.5823 N   0  0  0  0  0  0  0  0  0  0  0  0
   19.1865   -9.3112  -17.4014 C   0  0  0  0  0  0  0  0  0  0  0  0
   20.4289   -9.1470  -17.3282 O   0  0  0  0  0  0  0  0  0  0  0  0
   17.5897  -13.2867  -15.2106 C   0  0  0  0  0  0  0  0  0  0  0  0
   16.7798  -14.4021  -15.1506 C   0  0  0  0  0  0  0  0  0  0  0  0
   18.4178   -8.1222  -17.6678 N   0  0  0  0  0  0  0  0  0  0  0  0
   19.0703   -6.8531  -17.8887 C   0  0  1  0  0  0  0  0  0  0  0  0
   18.3324   -5.9949  -18.8852 C   0  0  0  0  0  0  0  0  0  0  0  0
   18.3769   -6.5325  -20.2465 C   0  0  0  0  0  0  0  0  0  0  0  0
   19.1927   -7.5443  -20.6892 C   0  0  0  0  0  0  0  0  0  0  0  0
   18.9117   -7.7255  -22.0052 N   0  0  0  0  0  0  0  0  0  0  0  0
   17.9611   -6.8700  -22.3862 C   0  0  0  0  0  0  0  0  0  0  0  0
   17.6395   -6.1406  -21.2953 N   0  0  0  0  0  0  0  0  0  0  0  0
   19.2768   -6.1907  -16.6004 C   0  0  0  0  0  0  0  0  0  0  0  0
   18.3331   -6.0406  -15.7838 O   0  0  0  0  0  0  0  0  0  0  0  0
   22.3945   -4.9973  -13.1173 C   0  0  0  0  0  0  0  0  0  0  0  0
   21.7491   -5.8654  -14.1692 C   0  0  2  0  0  0  0  0  0  0  0  0
   22.7303   -6.5294  -15.0796 C   0  0  0  0  0  0  0  0  0  0  0  0
   20.7310   -5.0603  -14.9511 C   0  0  2  0  0  0  0  0  0  0  0  0
   20.5562   -5.6901  -16.2217 N   0  0  0  0  0  0  0  0  0  0  0  0
   21.1444   -3.6624  -15.1276 C   0  0  0  0  0  0  0  0  0  0  0  0
   21.0293   -2.8435  -14.1900 O   0  0  0  0  0  0  0  0  0  0  0  0
   21.6634   -3.2425  -16.3317 O   0  0  0  0  0  0  0  0  0  0  0  0
  2  1  1  0
  2  3  2  0
  4  3  1  0
  5  4  2  0
  6  5  1  0
  7  9  1  0
  7  6  1  0
  7  8  1  1
  9 10  2  0
 11 12  2  0
 11  5  1  0
 12  2  1  0
 13 14  1  0
 13  9  1  0
 14 15  1  6
 15 16  1  0
 16 17  2  0
 18 17  1  0
 19 18  1  0
 20 19  2  0
 20 16  1  0
 21 14  1  0
 22 21  2  0
 24 23  1  1
 24 25  1  0
 24 26  1  0
 26 27  1  6
 27 21  1  0
 28 26  1  0
 28 30  1  0
 29 28  2  0
M  END
$$$$
