YHV.pdb
     RDKit          3D

 30 31  0  0  1  0  0  0  0  0999 V2000
   32.3082  -34.7794  -21.9459 O   0  0  0  0  0  0  0  0  0  0  0  0
   31.3218  -34.2826  -21.0920 C   0  0  0  0  0  0  0  0  0  0  0  0
   30.7808  -33.0485  -21.3435 C   0  0  0  0  0  0  0  0  0  0  0  0
   29.7893  -32.5098  -20.5147 C   0  0  0  0  0  0  0  0  0  0  0  0
   29.3288  -33.2086  -19.4191 C   0  0  0  0  0  0  0  0  0  0  0  0
   28.2828  -32.6529  -18.5274 C   0  0  0  0  0  0  0  0  0  0  0  0
   28.7390  -31.4860  -17.7155 C   0  0  2  0  0  0  0  0  0  0  0  0
   29.6866  -31.9776  -16.7299 N   0  0  0  0  0  0  0  0  0  0  0  0
   27.6765  -30.6773  -17.1191 C   0  0  0  0  0  0  0  0  0  0  0  0
   27.4907  -30.6543  -15.8778 O   0  0  0  0  0  0  0  0  0  0  0  0
   29.8857  -34.4558  -19.1778 C   0  0  0  0  0  0  0  0  0  0  0  0
   30.8627  -34.9848  -19.9961 C   0  0  0  0  0  0  0  0  0  0  0  0
   26.7793  -29.8608  -17.8963 N   0  0  0  0  0  0  0  0  0  0  0  0
   25.7709  -29.0513  -17.2536 C   0  0  1  0  0  0  0  0  0  0  0  0
   25.8414  -27.6054  -17.6763 C   0  0  0  0  0  0  0  0  0  0  0  0
   27.0097  -26.9078  -17.1354 C   0  0  0  0  0  0  0  0  0  0  0  0
   27.9441  -27.4393  -16.2813 C   0  0  0  0  0  0  0  0  0  0  0  0
   28.8493  -26.4581  -16.0326 N   0  0  0  0  0  0  0  0  0  0  0  0
   28.5097  -25.3514  -16.6964 C   0  0  0  0  0  0  0  0  0  0  0  0
   27.3757  -25.6399  -17.3719 N   0  0  0  0  0  0  0  0  0  0  0  0
   24.4571  -29.6538  -17.4810 C   0  0  0  0  0  0  0  0  0  0  0  0
   24.1886  -30.2513  -18.5538 O   0  0  0  0  0  0  0  0  0  0  0  0
   22.5487  -32.0773  -15.2330 C   0  0  0  0  0  0  0  0  0  0  0  0
   21.6906  -30.8633  -15.4904 C   0  0  2  0  0  0  0  0  0  0  0  0
   20.2281  -31.1653  -15.5386 C   0  0  0  0  0  0  0  0  0  0  0  0
   22.1496  -30.1638  -16.7538 C   0  0  2  0  0  0  0  0  0  0  0  0
   23.4307  -29.5865  -16.4945 N   0  0  0  0  0  0  0  0  0  0  0  0
   21.2037  -29.1297  -17.1920 C   0  0  0  0  0  0  0  0  0  0  0  0
   21.4040  -27.9275  -16.9135 O   0  0  0  0  0  0  0  0  0  0  0  0
   20.0855  -29.4786  -17.9155 O   0  0  0  0  0  0  0  0  0  0  0  0
  2  1  1  0
  2  3  2  0
  4  3  1  0
  5  4  2  0
  6  5  1  0
  7  9  1  0
  7  6  1  0
  7  8  1  1
  9 10  2  0
 11 12  2  0
 11  5  1  0
 12  2  1  0
 13 14  1  0
 13  9  1  0
 14 15  1  6
 15 16  1  0
 16 17  2  0
 18 17  1  0
 19 18  1  0
 20 19  2  0
 20 16  1  0
 21 14  1  0
 22 21  2  0
 24 23  1  6
 24 25  1  0
 24 26  1  0
 26 27  1  1
 27 21  1  0
 28 26  1  0
 28 30  1  0
 29 28  2  0
M  END
$$$$
