QPE.pdb
     RDKit          3D

 26 26  0  0  1  0  0  0  0  0999 V2000
   17.9389  -19.3202  -12.9497 N   0  0  0  0  0  0  0  0  0  0  0  0
   18.7870  -18.7640  -13.9513 C   0  0  0  0  0  0  0  0  0  0  0  0
   18.2056  -18.2834  -14.9526 O   0  0  0  0  0  0  0  0  0  0  0  0
   20.2391  -18.7357  -13.8484 C   0  0  0  0  0  0  0  0  0  0  0  0
   20.8629  -19.1248  -12.5633 C   0  0  0  0  0  0  0  0  0  0  0  0
   21.8125  -20.2767  -12.5868 C   0  0  2  0  0  0  0  0  0  0  0  0
   21.7495  -20.9367  -13.8772 N   0  0  0  0  0  0  0  0  0  0  0  0
   21.6871  -21.2294  -11.4853 C   0  0  0  0  0  0  0  0  0  0  0  0
   21.0849  -22.3352  -11.7617 O   0  0  0  0  0  0  0  0  0  0  0  0
   22.1651  -21.0322  -10.1854 N   0  0  0  0  0  0  0  0  0  0  0  0
   22.8000  -19.7815   -9.7326 C   0  0  0  0  0  0  0  0  0  0  0  0
   23.9705  -20.3281   -8.9447 C   0  0  0  0  0  0  0  0  0  0  0  0
   23.3736  -21.5434   -8.2632 C   0  0  0  0  0  0  0  0  0  0  0  0
   22.1302  -21.9092   -9.0588 C   0  0  1  0  0  0  0  0  0  0  0  0
   20.8982  -21.7248   -8.2372 C   0  0  0  0  0  0  0  0  0  0  0  0
   20.4084  -20.5676   -8.1466 O   0  0  0  0  0  0  0  0  0  0  0  0
   20.2572  -22.7698   -7.5616 N   0  0  0  0  0  0  0  0  0  0  0  0
   18.7648  -22.8981   -7.4991 C   0  0  1  0  0  0  0  0  0  0  0  0
   18.3640  -23.4072   -8.8384 C   0  0  0  0  0  0  0  0  0  0  0  0
   16.9836  -23.7863   -9.1301 C   0  0  0  0  0  0  0  0  0  0  0  0
   16.6950  -24.2652  -10.4832 C   0  0  0  0  0  0  0  0  0  0  0  0
   17.6299  -24.3528  -11.3308 O   0  0  0  0  0  0  0  0  0  0  0  0
   18.5328  -23.8611   -6.4263 C   0  0  0  0  0  0  0  0  0  0  0  0
   19.5422  -24.7175   -6.0095 O   0  0  0  0  0  0  0  0  0  0  0  0
   15.4216  -24.6364  -10.8853 O   0  0  0  0  0  0  0  0  0  0  0  0
   17.4426  -23.9648   -5.8406 O   0  0  0  0  0  0  0  0  0  0  0  0
  2  1  1  0
  3  2  2  0
  4  2  1  0
  5  6  1  0
  5  4  1  0
  6  8  1  0
  6  7  1  6
  8 10  1  0
  9  8  2  0
 10 11  1  0
 10 14  1  0
 11 12  1  0
 12 13  1  0
 14 13  1  0
 14 15  1  1
 15 16  2  0
 17 15  1  0
 18 17  1  0
 18 19  1  6
 20 21  1  0
 20 19  1  0
 21 25  1  0
 22 21  2  0
 23 18  1  0
 24 23  1  0
 26 23  2  0
M  END
$$$$
