QPE.pdb
     RDKit          3D

 26 26  0  0  1  0  0  0  0  0999 V2000
   21.0315  -12.8191  -19.0016 N   0  0  0  0  0  0  0  0  0  0  0  0
   19.6911  -12.8563  -19.4851 C   0  0  0  0  0  0  0  0  0  0  0  0
   19.4758  -13.6459  -20.4347 O   0  0  0  0  0  0  0  0  0  0  0  0
   18.6155  -12.0456  -18.9321 C   0  0  0  0  0  0  0  0  0  0  0  0
   18.9378  -11.0911  -17.8472 C   0  0  0  0  0  0  0  0  0  0  0  0
   19.2486  -11.6642  -16.5041 C   0  0  2  0  0  0  0  0  0  0  0  0
   18.0911  -12.3759  -15.9958 N   0  0  0  0  0  0  0  0  0  0  0  0
   19.7826  -10.7262  -15.5184 C   0  0  0  0  0  0  0  0  0  0  0  0
   18.9171  -10.1723  -14.7401 O   0  0  0  0  0  0  0  0  0  0  0  0
   21.1334  -10.3974  -15.3618 N   0  0  0  0  0  0  0  0  0  0  0  0
   22.2095  -10.9560  -16.1999 C   0  0  0  0  0  0  0  0  0  0  0  0
   23.2550  -11.2625  -15.1498 C   0  0  0  0  0  0  0  0  0  0  0  0
   23.1263  -10.0880  -14.2002 C   0  0  0  0  0  0  0  0  0  0  0  0
   21.7504   -9.4896  -14.4481 C   0  0  1  0  0  0  0  0  0  0  0  0
   21.8617   -8.1115  -15.0095 C   0  0  0  0  0  0  0  0  0  0  0  0
   22.1201   -7.9853  -16.2361 O   0  0  0  0  0  0  0  0  0  0  0  0
   21.6937   -6.9507  -14.2455 N   0  0  0  0  0  0  0  0  0  0  0  0
   21.6657   -5.5798  -14.8515 C   0  0  1  0  0  0  0  0  0  0  0  0
   20.2241   -5.2193  -14.9261 C   0  0  0  0  0  0  0  0  0  0  0  0
   19.7900   -3.8846  -15.3316 C   0  0  0  0  0  0  0  0  0  0  0  0
   18.3484   -3.6315  -15.3592 C   0  0  0  0  0  0  0  0  0  0  0  0
   17.5424   -4.5590  -15.0583 O   0  0  0  0  0  0  0  0  0  0  0  0
   22.4150   -4.7555  -13.9076 C   0  0  0  0  0  0  0  0  0  0  0  0
   23.0551   -3.5978  -14.3275 O   0  0  0  0  0  0  0  0  0  0  0  0
   17.8156   -2.3993  -15.7038 O   0  0  0  0  0  0  0  0  0  0  0  0
   22.5188   -5.0390  -12.7030 O   0  0  0  0  0  0  0  0  0  0  0  0
  2  1  1  0
  3  2  2  0
  4  2  1  0
  5  6  1  0
  5  4  1  0
  6  8  1  0
  6  7  1  1
  8 10  1  0
  9  8  2  0
 10 11  1  0
 10 14  1  0
 11 12  1  0
 12 13  1  0
 14 13  1  0
 14 15  1  6
 15 16  2  0
 17 15  1  0
 18 17  1  0
 18 19  1  1
 20 21  1  0
 20 19  1  0
 21 25  1  0
 22 21  2  0
 23 18  1  0
 24 23  1  0
 26 23  2  0
M  END
$$$$
