QPE.pdb
     RDKit          3D

 26 26  0  0  1  0  0  0  0  0999 V2000
   26.2011  -18.2838  -16.6434 N   0  0  0  0  0  0  0  0  0  0  0  0
   27.6135  -18.0941  -16.6164 C   0  0  0  0  0  0  0  0  0  0  0  0
   28.0992  -17.4741  -17.5917 O   0  0  0  0  0  0  0  0  0  0  0  0
   28.4673  -18.5732  -15.5386 C   0  0  0  0  0  0  0  0  0  0  0  0
   27.8270  -19.0752  -14.3016 C   0  0  0  0  0  0  0  0  0  0  0  0
   27.7380  -20.5558  -14.1317 C   0  0  2  0  0  0  0  0  0  0  0  0
   28.3083  -21.2166  -15.2905 N   0  0  0  0  0  0  0  0  0  0  0  0
   26.4138  -21.0821  -13.8061 C   0  0  0  0  0  0  0  0  0  0  0  0
   25.8418  -21.7795  -14.7272 O   0  0  0  0  0  0  0  0  0  0  0  0
   25.7409  -20.8896  -12.5947 N   0  0  0  0  0  0  0  0  0  0  0  0
   26.2495  -20.0331  -11.5084 C   0  0  0  0  0  0  0  0  0  0  0  0
   25.9716  -20.9079  -10.3055 C   0  0  0  0  0  0  0  0  0  0  0  0
   24.6344  -21.5327  -10.6508 C   0  0  0  0  0  0  0  0  0  0  0  0
   24.4831  -21.4066  -12.1588 C   0  0  1  0  0  0  0  0  0  0  0  0
   23.3490  -20.5013  -12.5069 C   0  0  0  0  0  0  0  0  0  0  0  0
   23.4897  -19.2649  -12.3102 O   0  0  0  0  0  0  0  0  0  0  0  0
   22.1364  -20.9531  -13.0410 N   0  0  0  0  0  0  0  0  0  0  0  0
   21.1687  -20.0426  -13.7353 C   0  0  1  0  0  0  0  0  0  0  0  0
   21.1052  -20.5413  -15.1356 C   0  0  0  0  0  0  0  0  0  0  0  0
   20.1454  -20.0022  -16.0961 C   0  0  0  0  0  0  0  0  0  0  0  0
   20.1465  -20.5849  -17.4391 C   0  0  0  0  0  0  0  0  0  0  0  0
   20.9419  -21.5297  -17.7127 O   0  0  0  0  0  0  0  0  0  0  0  0
   19.9180  -20.2248  -13.0042 C   0  0  0  0  0  0  0  0  0  0  0  0
   18.9194  -19.2622  -13.0535 O   0  0  0  0  0  0  0  0  0  0  0  0
   19.2990  -20.1428  -18.4427 O   0  0  0  0  0  0  0  0  0  0  0  0
   19.6840  -21.2295  -12.3128 O   0  0  0  0  0  0  0  0  0  0  0  0
  2  1  1  0
  3  2  2  0
  4  2  1  0
  5  6  1  0
  5  4  1  0
  6  8  1  0
  6  7  1  6
  8 10  1  0
  9  8  2  0
 10 11  1  0
 10 14  1  0
 11 12  1  0
 12 13  1  0
 14 13  1  0
 14 15  1  1
 15 16  2  0
 17 15  1  0
 18 17  1  0
 18 19  1  6
 20 21  1  0
 20 19  1  0
 21 25  1  0
 22 21  2  0
 23 18  1  0
 24 23  1  0
 26 23  2  0
M  END
$$$$
