QPE.pdb
     RDKit          3D

 26 26  0  0  1  0  0  0  0  0999 V2000
   19.5380  -32.7312   -8.5380 N   0  0  0  0  0  0  0  0  0  0  0  0
   20.1118  -32.1946   -9.7273 C   0  0  0  0  0  0  0  0  0  0  0  0
   19.3013  -31.7210  -10.5581 O   0  0  0  0  0  0  0  0  0  0  0  0
   21.5437  -32.1777   -9.9909 C   0  0  0  0  0  0  0  0  0  0  0  0
   22.4557  -32.7398   -8.9690 C   0  0  0  0  0  0  0  0  0  0  0  0
   23.3506  -33.8569   -9.3935 C   0  0  2  0  0  0  0  0  0  0  0  0
   22.5656  -34.8989  -10.0281 N   0  0  0  0  0  0  0  0  0  0  0  0
   24.2311  -34.3972   -8.3593 C   0  0  0  0  0  0  0  0  0  0  0  0
   23.8582  -35.5099   -7.8257 O   0  0  0  0  0  0  0  0  0  0  0  0
   25.4217  -33.8082   -7.9203 N   0  0  0  0  0  0  0  0  0  0  0  0
   25.8771  -32.4743   -8.3514 C   0  0  0  0  0  0  0  0  0  0  0  0
   27.3441  -32.7451   -8.6049 C   0  0  0  0  0  0  0  0  0  0  0  0
   27.7049  -33.6978   -7.4825 C   0  0  0  0  0  0  0  0  0  0  0  0
   26.3948  -34.2986   -6.9972 C   0  0  1  0  0  0  0  0  0  0  0  0
   26.1039  -33.8806   -5.5945 C   0  0  0  0  0  0  0  0  0  0  0  0
   25.6709  -32.7142   -5.3965 O   0  0  0  0  0  0  0  0  0  0  0  0
   26.2864  -34.7161   -4.4863 N   0  0  0  0  0  0  0  0  0  0  0  0
   25.9130  -34.3062   -3.0935 C   0  0  1  0  0  0  0  0  0  0  0  0
   25.9312  -35.5658   -2.3017 C   0  0  0  0  0  0  0  0  0  0  0  0
   27.1829  -36.2418   -1.9696 C   0  0  0  0  0  0  0  0  0  0  0  0
   27.0983  -37.4066   -1.0867 C   0  0  0  0  0  0  0  0  0  0  0  0
   28.1515  -38.0311   -0.7689 O   0  0  0  0  0  0  0  0  0  0  0  0
   26.9616  -33.3681   -2.7030 C   0  0  0  0  0  0  0  0  0  0  0  0
   28.1188  -33.2410   -3.4586 O   0  0  0  0  0  0  0  0  0  0  0  0
   25.8957  -37.8640   -0.5714 O   0  0  0  0  0  0  0  0  0  0  0  0
   26.8775  -32.6480   -1.6948 O   0  0  0  0  0  0  0  0  0  0  0  0
  2  1  1  0
  3  2  2  0
  4  2  1  0
  5  6  1  0
  5  4  1  0
  6  8  1  0
  6  7  1  1
  8 10  1  0
  9  8  2  0
 10 11  1  0
 10 14  1  0
 11 12  1  0
 12 13  1  0
 14 13  1  0
 14 15  1  1
 15 16  2  0
 17 15  1  0
 18 17  1  0
 18 19  1  1
 20 21  1  0
 20 19  1  0
 21 25  1  0
 22 21  2  0
 23 18  1  0
 24 23  1  0
 26 23  2  0
M  END
$$$$
