QPE.pdb
     RDKit          3D

 26 26  0  0  1  0  0  0  0  0999 V2000
   22.1143  -16.9920  -20.5625 N   0  0  0  0  0  0  0  0  0  0  0  0
   21.0208  -16.4248  -19.8454 C   0  0  0  0  0  0  0  0  0  0  0  0
   19.8968  -16.5333  -20.3898 O   0  0  0  0  0  0  0  0  0  0  0  0
   21.1639  -15.7582  -18.5588 C   0  0  0  0  0  0  0  0  0  0  0  0
   22.5139  -15.6674  -17.9577 C   0  0  0  0  0  0  0  0  0  0  0  0
   22.6232  -15.9007  -16.4871 C   0  0  2  0  0  0  0  0  0  0  0  0
   21.7657  -17.0057  -16.1017 N   0  0  0  0  0  0  0  0  0  0  0  0
   22.4111  -14.7299  -15.6381 C   0  0  0  0  0  0  0  0  0  0  0  0
   21.2733  -14.6690  -15.0350 O   0  0  0  0  0  0  0  0  0  0  0  0
   23.3337  -13.6977  -15.4363 N   0  0  0  0  0  0  0  0  0  0  0  0
   24.6527  -13.6454  -16.0919 C   0  0  0  0  0  0  0  0  0  0  0  0
   25.5283  -13.2249  -14.9316 C   0  0  0  0  0  0  0  0  0  0  0  0
   24.6497  -12.2338  -14.1945 C   0  0  0  0  0  0  0  0  0  0  0  0
   23.2228  -12.5198  -14.6365 C   0  0  1  0  0  0  0  0  0  0  0  0
   22.6608  -11.3683  -15.4014 C   0  0  0  0  0  0  0  0  0  0  0  0
   22.9999  -11.2296  -16.6068 O   0  0  0  0  0  0  0  0  0  0  0  0
   21.7761  -10.4337  -14.8507 N   0  0  0  0  0  0  0  0  0  0  0  0
   21.1431   -9.3430  -15.6614 C   0  0  1  0  0  0  0  0  0  0  0  0
   19.6776   -9.5635  -15.5288 C   0  0  0  0  0  0  0  0  0  0  0  0
   19.0473  -10.8023  -15.9785 C   0  0  0  0  0  0  0  0  0  0  0  0
   17.6033  -10.9289  -15.7734 C   0  0  0  0  0  0  0  0  0  0  0  0
   17.1273  -12.0045  -15.3080 O   0  0  0  0  0  0  0  0  0  0  0  0
   21.5980   -8.1116  -15.0222 C   0  0  0  0  0  0  0  0  0  0  0  0
   21.4914   -6.8911  -15.6743 O   0  0  0  0  0  0  0  0  0  0  0  0
   16.7172   -9.9049  -16.0688 O   0  0  0  0  0  0  0  0  0  0  0  0
   22.0950   -8.0891  -13.8843 O   0  0  0  0  0  0  0  0  0  0  0  0
  2  1  1  0
  3  2  2  0
  4  2  1  0
  5  6  1  0
  5  4  1  0
  6  8  1  0
  6  7  1  1
  8 10  1  0
  9  8  2  0
 10 11  1  0
 10 14  1  0
 11 12  1  0
 12 13  1  0
 14 13  1  0
 14 15  1  6
 15 16  2  0
 17 15  1  0
 18 17  1  0
 18 19  1  1
 20 21  1  0
 20 19  1  0
 21 25  1  0
 22 21  2  0
 23 18  1  0
 24 23  1  0
 26 23  2  0
M  END
$$$$
