QPE.pdb
     RDKit          3D

 26 26  0  0  1  0  0  0  0  0999 V2000
   24.5515  -31.6925  -15.9499 N   0  0  0  0  0  0  0  0  0  0  0  0
   24.6196  -31.9036  -17.3580 C   0  0  0  0  0  0  0  0  0  0  0  0
   23.6034  -32.4178  -17.8820 O   0  0  0  0  0  0  0  0  0  0  0  0
   25.7780  -31.5525  -18.1671 C   0  0  0  0  0  0  0  0  0  0  0  0
   27.0388  -31.1971  -17.4772 C   0  0  0  0  0  0  0  0  0  0  0  0
   27.5649  -29.8156  -17.6860 C   0  0  2  0  0  0  0  0  0  0  0  0
   28.8708  -29.6902  -17.0664 N   0  0  0  0  0  0  0  0  0  0  0  0
   26.6727  -28.7268  -17.2920 C   0  0  0  0  0  0  0  0  0  0  0  0
   26.7897  -28.3134  -16.0766 O   0  0  0  0  0  0  0  0  0  0  0  0
   25.7262  -28.1150  -18.1209 N   0  0  0  0  0  0  0  0  0  0  0  0
   25.4658  -28.5371  -19.5088 C   0  0  0  0  0  0  0  0  0  0  0  0
   25.3807  -27.1943  -20.2011 C   0  0  0  0  0  0  0  0  0  0  0  0
   24.6575  -26.3391  -19.1797 C   0  0  0  0  0  0  0  0  0  0  0  0
   24.8290  -27.0398  -17.8408 C   0  0  1  0  0  0  0  0  0  0  0  0
   23.5163  -27.5208  -17.3189 C   0  0  0  0  0  0  0  0  0  0  0  0
   23.0030  -28.5439  -17.8452 O   0  0  0  0  0  0  0  0  0  0  0  0
   22.8247  -26.8955  -16.2748 N   0  0  0  0  0  0  0  0  0  0  0  0
   21.5384  -27.4307  -15.7212 C   0  0  1  0  0  0  0  0  0  0  0  0
   21.3405  -26.7087  -14.4355 C   0  0  0  0  0  0  0  0  0  0  0  0
   20.5782  -25.4643  -14.3672 C   0  0  0  0  0  0  0  0  0  0  0  0
   19.6321  -25.3212  -13.2592 C   0  0  0  0  0  0  0  0  0  0  0  0
   19.5009  -26.2594  -12.4209 O   0  0  0  0  0  0  0  0  0  0  0  0
   20.5425  -27.0860  -16.7319 C   0  0  0  0  0  0  0  0  0  0  0  0
   19.3053  -27.7145  -16.7538 O   0  0  0  0  0  0  0  0  0  0  0  0
   18.8610  -24.1834  -13.0813 O   0  0  0  0  0  0  0  0  0  0  0  0
   20.7436  -26.2299  -17.6087 O   0  0  0  0  0  0  0  0  0  0  0  0
  2  1  1  0
  3  2  2  0
  4  2  1  0
  5  6  1  0
  5  4  1  0
  6  8  1  0
  6  7  1  1
  8 10  1  0
  9  8  2  0
 10 11  1  0
 10 14  1  0
 11 12  1  0
 12 13  1  0
 14 13  1  0
 14 15  1  6
 15 16  2  0
 17 15  1  0
 18 17  1  0
 18 19  1  1
 20 21  1  0
 20 19  1  0
 21 25  1  0
 22 21  2  0
 23 18  1  0
 24 23  1  0
 26 23  2  0
M  END
$$$$
