QPE.pdb
     RDKit          3D

 26 26  0  0  1  0  0  0  0  0999 V2000
   22.0174  -19.6932  -14.4973 N   0  0  0  0  0  0  0  0  0  0  0  0
   22.3758  -20.6494  -15.4918 C   0  0  0  0  0  0  0  0  0  0  0  0
   21.4203  -21.2160  -16.0728 O   0  0  0  0  0  0  0  0  0  0  0  0
   23.7534  -20.9690  -15.8386 C   0  0  0  0  0  0  0  0  0  0  0  0
   24.8414  -20.3539  -15.0450 C   0  0  0  0  0  0  0  0  0  0  0  0
   25.6791  -21.2673  -14.2126 C   0  0  2  0  0  0  0  0  0  0  0  0
   26.2538  -22.3034  -15.0498 N   0  0  0  0  0  0  0  0  0  0  0  0
   25.0296  -21.8269  -13.0287 C   0  0  0  0  0  0  0  0  0  0  0  0
   24.8130  -23.0975  -13.0516 O   0  0  0  0  0  0  0  0  0  0  0  0
   24.6385  -21.0997  -11.8994 N   0  0  0  0  0  0  0  0  0  0  0  0
   24.7993  -19.6398  -11.7755 C   0  0  0  0  0  0  0  0  0  0  0  0
   25.3183  -19.5322  -10.3582 C   0  0  0  0  0  0  0  0  0  0  0  0
   24.5198  -20.5954   -9.6304 C   0  0  0  0  0  0  0  0  0  0  0  0
   24.0089  -21.5493  -10.6990 C   0  0  1  0  0  0  0  0  0  0  0  0
   22.5202  -21.5006  -10.7893 C   0  0  0  0  0  0  0  0  0  0  0  0
   22.0006  -20.9949  -11.8196 O   0  0  0  0  0  0  0  0  0  0  0  0
   21.6697  -21.9876   -9.7899 N   0  0  0  0  0  0  0  0  0  0  0  0
   20.1974  -22.1756  -10.0007 C   0  0  1  0  0  0  0  0  0  0  0  0
   19.7307  -22.9386   -8.8117 C   0  0  0  0  0  0  0  0  0  0  0  0
   18.3422  -23.3730   -8.6791 C   0  0  0  0  0  0  0  0  0  0  0  0
   18.0099  -24.2001   -7.5177 C   0  0  0  0  0  0  0  0  0  0  0  0
   18.9175  -24.5265   -6.6993 O   0  0  0  0  0  0  0  0  0  0  0  0
   19.6669  -20.8163  -10.0544 C   0  0  0  0  0  0  0  0  0  0  0  0
   18.5508  -20.5190  -10.8240 O   0  0  0  0  0  0  0  0  0  0  0  0
   16.7225  -24.6483   -7.2673 O   0  0  0  0  0  0  0  0  0  0  0  0
   20.1743  -19.8717   -9.4280 O   0  0  0  0  0  0  0  0  0  0  0  0
  2  1  1  0
  3  2  2  0
  4  2  1  0
  5  6  1  0
  5  4  1  0
  6  8  1  0
  6  7  1  6
  8 10  1  0
  9  8  2  0
 10 11  1  0
 10 14  1  0
 11 12  1  0
 12 13  1  0
 14 13  1  0
 14 15  1  6
 15 16  2  0
 17 15  1  0
 18 17  1  0
 18 19  1  1
 20 21  1  0
 20 19  1  0
 21 25  1  0
 22 21  2  0
 23 18  1  0
 24 23  1  0
 26 23  2  0
M  END
$$$$
