QPE.pdb
     RDKit          3D

 26 26  0  0  1  0  0  0  0  0999 V2000
   21.1590   -9.0768  -19.2905 N   0  0  0  0  0  0  0  0  0  0  0  0
   19.8786   -9.1069  -18.6650 C   0  0  0  0  0  0  0  0  0  0  0  0
   19.4467   -8.0043  -18.2535 O   0  0  0  0  0  0  0  0  0  0  0  0
   19.0936  -10.3222  -18.5013 C   0  0  0  0  0  0  0  0  0  0  0  0
   19.8095  -11.6048  -18.3156 C   0  0  0  0  0  0  0  0  0  0  0  0
   19.9030  -12.1389  -16.9246 C   0  0  2  0  0  0  0  0  0  0  0  0
   18.6890  -12.8619  -16.5952 N   0  0  0  0  0  0  0  0  0  0  0  0
   20.2511  -11.1667  -15.8900 C   0  0  0  0  0  0  0  0  0  0  0  0
   19.2746  -10.7424  -15.1632 O   0  0  0  0  0  0  0  0  0  0  0  0
   21.5374  -10.6785  -15.6371 N   0  0  0  0  0  0  0  0  0  0  0  0
   22.7226  -11.0607  -16.4255 C   0  0  0  0  0  0  0  0  0  0  0  0
   23.7363  -11.2793  -15.3236 C   0  0  0  0  0  0  0  0  0  0  0  0
   23.4041  -10.1729  -14.3422 C   0  0  0  0  0  0  0  0  0  0  0  0
   21.9796   -9.7413  -14.6544 C   0  0  1  0  0  0  0  0  0  0  0  0
   21.9463   -8.3369  -15.1577 C   0  0  0  0  0  0  0  0  0  0  0  0
   22.2192   -8.1303  -16.3701 O   0  0  0  0  0  0  0  0  0  0  0  0
   21.6273   -7.2361  -14.3539 N   0  0  0  0  0  0  0  0  0  0  0  0
   21.4280   -5.8583  -14.9104 C   0  0  1  0  0  0  0  0  0  0  0  0
   19.9526   -5.6806  -14.9838 C   0  0  0  0  0  0  0  0  0  0  0  0
   19.3539   -4.3905  -15.3177 C   0  0  0  0  0  0  0  0  0  0  0  0
   17.8920   -4.3132  -15.3169 C   0  0  0  0  0  0  0  0  0  0  0  0
   17.2072   -5.3756  -15.3691 O   0  0  0  0  0  0  0  0  0  0  0  0
   22.0634   -4.9812  -13.9311 C   0  0  0  0  0  0  0  0  0  0  0  0
   22.5319   -3.7275  -14.2985 O   0  0  0  0  0  0  0  0  0  0  0  0
   17.2106   -3.1077  -15.2580 O   0  0  0  0  0  0  0  0  0  0  0  0
   22.2164   -5.3020  -12.7412 O   0  0  0  0  0  0  0  0  0  0  0  0
  2  1  1  0
  3  2  2  0
  4  2  1  0
  5  6  1  0
  5  4  1  0
  6  8  1  0
  6  7  1  1
  8 10  1  0
  9  8  2  0
 10 11  1  0
 10 14  1  0
 11 12  1  0
 12 13  1  0
 14 13  1  0
 14 15  1  6
 15 16  2  0
 17 15  1  0
 18 17  1  0
 18 19  1  1
 20 21  1  0
 20 19  1  0
 21 25  1  0
 22 21  2  0
 23 18  1  0
 24 23  1  0
 26 23  2  0
M  END
$$$$
