QPE.pdb
     RDKit          3D

 26 26  0  0  1  0  0  0  0  0999 V2000
   23.8788  -22.0236  -13.9575 N   0  0  0  0  0  0  0  0  0  0  0  0
   23.2584  -22.1856  -12.6845 C   0  0  0  0  0  0  0  0  0  0  0  0
   22.0101  -22.3001  -12.6969 O   0  0  0  0  0  0  0  0  0  0  0  0
   23.9974  -22.2240  -11.4305 C   0  0  0  0  0  0  0  0  0  0  0  0
   25.4672  -22.0510  -11.4723 C   0  0  0  0  0  0  0  0  0  0  0  0
   26.0079  -20.7125  -11.0913 C   0  0  2  0  0  0  0  0  0  0  0  0
   25.3847  -20.2653   -9.8599 N   0  0  0  0  0  0  0  0  0  0  0  0
   25.9548  -19.6842  -12.1288 C   0  0  0  0  0  0  0  0  0  0  0  0
   25.1121  -18.7285  -11.9331 O   0  0  0  0  0  0  0  0  0  0  0  0
   26.7364  -19.6627  -13.2888 N   0  0  0  0  0  0  0  0  0  0  0  0
   27.6942  -20.7250  -13.6446 C   0  0  0  0  0  0  0  0  0  0  0  0
   28.8743  -19.8982  -14.1065 C   0  0  0  0  0  0  0  0  0  0  0  0
   28.2093  -18.7534  -14.8447 C   0  0  0  0  0  0  0  0  0  0  0  0
   26.7739  -18.7020  -14.3449 C   0  0  1  0  0  0  0  0  0  0  0  0
   25.8157  -19.0297  -15.4409 C   0  0  0  0  0  0  0  0  0  0  0  0
   25.7259  -20.2287  -15.8170 O   0  0  0  0  0  0  0  0  0  0  0  0
   25.0107  -18.0752  -16.0736 N   0  0  0  0  0  0  0  0  0  0  0  0
   24.0148  -18.4322  -17.1358 C   0  0  1  0  0  0  0  0  0  0  0  0
   23.0718  -17.2824  -17.1840 C   0  0  0  0  0  0  0  0  0  0  0  0
   21.7049  -17.3933  -16.6804 C   0  0  0  0  0  0  0  0  0  0  0  0
   20.9241  -16.1581  -16.5922 C   0  0  0  0  0  0  0  0  0  0  0  0
   20.5412  -15.5807  -17.6506 O   0  0  0  0  0  0  0  0  0  0  0  0
   24.8171  -18.5673  -18.3482 C   0  0  0  0  0  0  0  0  0  0  0  0
   24.3610  -19.3189  -19.4221 O   0  0  0  0  0  0  0  0  0  0  0  0
   20.5763  -15.5826  -15.3803 O   0  0  0  0  0  0  0  0  0  0  0  0
   25.9281  -18.0289  -18.4822 O   0  0  0  0  0  0  0  0  0  0  0  0
  2  1  1  0
  3  2  2  0
  4  2  1  0
  5  6  1  0
  5  4  1  0
  6  8  1  0
  6  7  1  1
  8 10  1  0
  9  8  2  0
 10 11  1  0
 10 14  1  0
 11 12  1  0
 12 13  1  0
 14 13  1  0
 14 15  1  6
 15 16  2  0
 17 15  1  0
 18 17  1  0
 18 19  1  6
 20 21  1  0
 20 19  1  0
 21 25  1  0
 22 21  2  0
 23 18  1  0
 24 23  1  0
 26 23  2  0
M  END
$$$$
