QPE.pdb
     RDKit          3D

 26 26  0  0  1  0  0  0  0  0999 V2000
   27.4209  -17.1533  -14.8803 N   0  0  0  0  0  0  0  0  0  0  0  0
   28.0537  -17.8443  -15.9545 C   0  0  0  0  0  0  0  0  0  0  0  0
   29.0145  -17.2480  -16.4956 O   0  0  0  0  0  0  0  0  0  0  0  0
   27.6389  -19.1612  -16.4168 C   0  0  0  0  0  0  0  0  0  0  0  0
   26.5377  -19.8453  -15.7019 C   0  0  0  0  0  0  0  0  0  0  0  0
   26.9085  -20.9733  -14.7969 C   0  0  2  0  0  0  0  0  0  0  0  0
   27.4931  -22.0512  -15.5724 N   0  0  0  0  0  0  0  0  0  0  0  0
   25.8497  -21.4561  -13.9123 C   0  0  0  0  0  0  0  0  0  0  0  0
   25.1494  -22.4428  -14.3569 O   0  0  0  0  0  0  0  0  0  0  0  0
   25.5519  -20.9378  -12.6474 N   0  0  0  0  0  0  0  0  0  0  0  0
   26.3733  -19.9173  -11.9719 C   0  0  0  0  0  0  0  0  0  0  0  0
   26.4171  -20.4753  -10.5661 C   0  0  0  0  0  0  0  0  0  0  0  0
   25.0173  -21.0275  -10.3840 C   0  0  0  0  0  0  0  0  0  0  0  0
   24.4516  -21.2215  -11.7823 C   0  0  1  0  0  0  0  0  0  0  0  0
   23.2953  -20.3088  -12.0210 C   0  0  0  0  0  0  0  0  0  0  0  0
   23.5267  -19.0805  -12.1791 O   0  0  0  0  0  0  0  0  0  0  0  0
   21.9665  -20.7451  -12.0789 N   0  0  0  0  0  0  0  0  0  0  0  0
   20.8376  -19.8489  -12.4912 C   0  0  1  0  0  0  0  0  0  0  0  0
   20.6296  -20.1293  -13.9374 C   0  0  0  0  0  0  0  0  0  0  0  0
   20.0696  -21.3978  -14.3972 C   0  0  0  0  0  0  0  0  0  0  0  0
   19.6144  -21.4615  -15.7872 C   0  0  0  0  0  0  0  0  0  0  0  0
   19.2038  -22.5592  -16.2635 O   0  0  0  0  0  0  0  0  0  0  0  0
   19.7180  -20.2764  -11.6571 C   0  0  0  0  0  0  0  0  0  0  0  0
   19.7202  -21.5243  -11.0497 O   0  0  0  0  0  0  0  0  0  0  0  0
   19.6101  -20.3539  -16.6203 O   0  0  0  0  0  0  0  0  0  0  0  0
   18.7233  -19.5623  -11.4501 O   0  0  0  0  0  0  0  0  0  0  0  0
  2  1  1  0
  3  2  2  0
  4  2  1  0
  5  6  1  0
  5  4  1  0
  6  8  1  0
  6  7  1  6
  8 10  1  0
  9  8  2  0
 10 11  1  0
 10 14  1  0
 11 12  1  0
 12 13  1  0
 14 13  1  0
 14 15  1  6
 15 16  2  0
 17 15  1  0
 18 17  1  0
 18 19  1  6
 20 21  1  0
 20 19  1  0
 21 25  1  0
 22 21  2  0
 23 18  1  0
 24 23  1  0
 26 23  2  0
M  END
$$$$
