QPE.pdb
     RDKit          3D

 26 26  0  0  1  0  0  0  0  0999 V2000
   25.0138  -19.5087  -16.8348 N   0  0  0  0  0  0  0  0  0  0  0  0
   25.6849  -18.5593  -16.0102 C   0  0  0  0  0  0  0  0  0  0  0  0
   24.9543  -17.8954  -15.2375 O   0  0  0  0  0  0  0  0  0  0  0  0
   27.1257  -18.3510  -16.0352 C   0  0  0  0  0  0  0  0  0  0  0  0
   27.9599  -19.0710  -15.0465 C   0  0  0  0  0  0  0  0  0  0  0  0
   27.8775  -20.5617  -15.0408 C   0  0  2  0  0  0  0  0  0  0  0  0
   28.1783  -21.0737  -16.3645 N   0  0  0  0  0  0  0  0  0  0  0  0
   26.6401  -21.1302  -14.5094 C   0  0  0  0  0  0  0  0  0  0  0  0
   25.9565  -21.8563  -15.3262 O   0  0  0  0  0  0  0  0  0  0  0  0
   26.1585  -20.9488  -13.2085 N   0  0  0  0  0  0  0  0  0  0  0  0
   26.8055  -20.0721  -12.2159 C   0  0  0  0  0  0  0  0  0  0  0  0
   26.7425  -20.9468  -10.9829 C   0  0  0  0  0  0  0  0  0  0  0  0
   25.3859  -21.6100  -11.1150 C   0  0  0  0  0  0  0  0  0  0  0  0
   24.9986  -21.4973  -12.5813 C   0  0  1  0  0  0  0  0  0  0  0  0
   23.7993  -20.6257  -12.7505 C   0  0  0  0  0  0  0  0  0  0  0  0
   23.9202  -19.3926  -12.5219 O   0  0  0  0  0  0  0  0  0  0  0  0
   22.5465  -21.1053  -13.1503 N   0  0  0  0  0  0  0  0  0  0  0  0
   21.3958  -20.1979  -13.4667 C   0  0  1  0  0  0  0  0  0  0  0  0
   21.2562  -20.2522  -14.9470 C   0  0  0  0  0  0  0  0  0  0  0  0
   20.1601  -19.5760  -15.6366 C   0  0  0  0  0  0  0  0  0  0  0  0
   20.0785  -19.7472  -17.0883 C   0  0  0  0  0  0  0  0  0  0  0  0
   20.9351  -20.4614  -17.6852 O   0  0  0  0  0  0  0  0  0  0  0  0
   20.2649  -20.7945  -12.7617 C   0  0  0  0  0  0  0  0  0  0  0  0
   20.2074  -22.1635  -12.5405 O   0  0  0  0  0  0  0  0  0  0  0  0
   19.0863  -19.1541  -17.8529 O   0  0  0  0  0  0  0  0  0  0  0  0
   19.3125  -20.1242  -12.3307 O   0  0  0  0  0  0  0  0  0  0  0  0
  2  1  1  0
  3  2  2  0
  4  2  1  0
  5  6  1  0
  5  4  1  0
  6  8  1  0
  6  7  1  6
  8 10  1  0
  9  8  2  0
 10 11  1  0
 10 14  1  0
 11 12  1  0
 12 13  1  0
 14 13  1  0
 14 15  1  1
 15 16  2  0
 17 15  1  0
 18 17  1  0
 18 19  1  6
 20 21  1  0
 20 19  1  0
 21 25  1  0
 22 21  2  0
 23 18  1  0
 24 23  1  0
 26 23  2  0
M  END
$$$$
