QPE.pdb
     RDKit          3D

 26 26  0  0  1  0  0  0  0  0999 V2000
   19.2063  -25.2162   -9.3579 N   0  0  0  0  0  0  0  0  0  0  0  0
   19.3092  -25.0869  -10.7736 C   0  0  0  0  0  0  0  0  0  0  0  0
   19.2995  -23.9140  -11.2161 O   0  0  0  0  0  0  0  0  0  0  0  0
   19.4236  -26.2229  -11.6772 C   0  0  0  0  0  0  0  0  0  0  0  0
   19.5242  -27.5802  -11.0947 C   0  0  0  0  0  0  0  0  0  0  0  0
   19.5724  -28.7294  -12.0466 C   0  0  2  0  0  0  0  0  0  0  0  0
   18.3355  -28.7913  -12.8022 N   0  0  0  0  0  0  0  0  0  0  0  0
   19.9162  -30.0256  -11.4649 C   0  0  0  0  0  0  0  0  0  0  0  0
   18.9241  -30.7473  -11.0690 O   0  0  0  0  0  0  0  0  0  0  0  0
   21.2134  -30.5272  -11.3137 N   0  0  0  0  0  0  0  0  0  0  0  0
   22.4266  -29.7622  -11.6536 C   0  0  0  0  0  0  0  0  0  0  0  0
   23.2378  -30.8217  -12.3671 C   0  0  0  0  0  0  0  0  0  0  0  0
   22.9398  -32.0688  -11.5587 C   0  0  0  0  0  0  0  0  0  0  0  0
   21.6493  -31.7882  -10.8044 C   0  0  1  0  0  0  0  0  0  0  0  0
   21.8899  -31.7502   -9.3322 C   0  0  0  0  0  0  0  0  0  0  0  0
   22.3447  -30.6888   -8.8285 O   0  0  0  0  0  0  0  0  0  0  0  0
   21.6367  -32.8318   -8.4803 N   0  0  0  0  0  0  0  0  0  0  0  0
   21.7841  -32.7411   -6.9912 C   0  0  1  0  0  0  0  0  0  0  0  0
   20.8166  -33.7310   -6.4458 C   0  0  0  0  0  0  0  0  0  0  0  0
   20.7152  -33.9905   -5.0117 C   0  0  0  0  0  0  0  0  0  0  0  0
   19.7668  -35.0210   -4.5854 C   0  0  0  0  0  0  0  0  0  0  0  0
   19.0560  -35.6149   -5.4470 O   0  0  0  0  0  0  0  0  0  0  0  0
   23.1767  -33.1051   -6.7463 C   0  0  0  0  0  0  0  0  0  0  0  0
   23.8219  -32.7055   -5.5843 O   0  0  0  0  0  0  0  0  0  0  0  0
   19.6103  -35.3848   -3.2572 O   0  0  0  0  0  0  0  0  0  0  0  0
   23.8462  -33.7777   -7.5473 O   0  0  0  0  0  0  0  0  0  0  0  0
  2  1  1  0
  3  2  2  0
  4  2  1  0
  5  6  1  0
  5  4  1  0
  6  8  1  0
  6  7  1  1
  8 10  1  0
  9  8  2  0
 10 11  1  0
 10 14  1  0
 11 12  1  0
 12 13  1  0
 14 13  1  0
 14 15  1  1
 15 16  2  0
 17 15  1  0
 18 17  1  0
 18 19  1  1
 20 21  1  0
 20 19  1  0
 21 25  1  0
 22 21  2  0
 23 18  1  0
 24 23  1  0
 26 23  2  0
M  END
$$$$
