TWH.pdb
     RDKit          3D

 32 34  0  0  1  0  0  0  0  0999 V2000
   10.1694  -19.4065   18.7323 C   0  0  0  0  0  0  0  0  0  0  0  0
   10.2300  -18.5785   20.0058 C   0  0  1  0  0  0  0  0  0  0  0  0
   11.4608  -18.7213   20.6259 O   0  0  0  0  0  0  0  0  0  0  0  0
    9.9494  -17.1378   19.6286 C   0  0  2  0  0  0  0  0  0  0  0  0
   10.9472  -16.6568   18.6823 N   0  0  0  0  0  0  0  0  0  0  0  0
    9.9599  -16.3333   20.8724 C   0  0  0  0  0  0  0  0  0  0  0  0
   11.0107  -15.7745   21.2982 O   0  0  0  0  0  0  0  0  0  0  0  0
    8.7830  -16.1764   21.6082 N   0  0  0  0  0  0  0  0  0  0  0  0
    8.7717  -15.4846   22.9291 C   0  0  1  0  0  0  0  0  0  0  0  0
    7.3825  -15.0188   23.0993 C   0  0  0  0  0  0  0  0  0  0  0  0
    6.9437  -14.6039   24.4344 C   0  0  0  0  0  0  0  0  0  0  0  0
    6.2708  -15.2554   25.4423 C   0  0  0  0  0  0  0  0  0  0  0  0
    6.0946  -14.4459   26.4928 N   0  0  0  0  0  0  0  0  0  0  0  0
    6.6438  -13.2571   26.1981 C   0  0  0  0  0  0  0  0  0  0  0  0
    6.7546  -12.0753   26.9323 C   0  0  0  0  0  0  0  0  0  0  0  0
    7.3845  -10.9700   26.4231 C   0  0  0  0  0  0  0  0  0  0  0  0
    7.9265  -11.0272   25.1434 C   0  0  0  0  0  0  0  0  0  0  0  0
    7.8052  -12.2098   24.4317 C   0  0  0  0  0  0  0  0  0  0  0  0
    7.1791  -13.3203   24.9283 C   0  0  0  0  0  0  0  0  0  0  0  0
    9.3902  -16.3242   23.9172 C   0  0  0  0  0  0  0  0  0  0  0  0
    9.2839  -17.5972   23.7947 O   0  0  0  0  0  0  0  0  0  0  0  0
   10.1392  -15.9516   25.0502 N   0  0  0  0  0  0  0  0  0  0  0  0
   10.3561  -16.7806   26.2034 C   0  0  1  0  0  0  0  0  0  0  0  0
    9.3653  -17.8553   26.4006 C   0  0  0  0  0  0  0  0  0  0  0  0
    9.6983  -18.7472   27.5254 C   0  0  0  0  0  0  0  0  0  0  0  0
   10.7871  -18.5805   28.4106 C   0  0  0  0  0  0  0  0  0  0  0  0
   10.7982  -19.5670   29.3143 N   0  0  0  0  0  0  0  0  0  0  0  0
    9.7666  -20.3624   29.0527 C   0  0  0  0  0  0  0  0  0  0  0  0
    9.1211  -19.8633   27.9866 N   0  0  0  0  0  0  0  0  0  0  0  0
   11.6861  -17.3804   26.0379 C   0  0  0  0  0  0  0  0  0  0  0  0
   12.3579  -17.2166   24.8279 O   0  0  0  0  0  0  0  0  0  0  0  0
   12.3017  -18.0483   26.8928 O   0  0  0  0  0  0  0  0  0  0  0  0
  2  1  1  6
  3  2  1  0
  4  5  1  6
  4  2  1  0
  6  4  1  0
  7  6  2  0
  8  6  1  0
  9  8  1  0
  9 10  1  1
 11 10  1  0
 11 12  2  0
 13 12  1  0
 14 13  1  0
 15 14  2  0
 16 15  1  0
 17 16  2  0
 17 18  1  0
 18 19  2  0
 19 14  1  0
 19 11  1  0
 20  9  1  0
 20 21  2  0
 22 20  1  0
 23 22  1  0
 23 24  1  6
 25 24  1  0
 25 26  2  0
 27 26  1  0
 28 27  1  0
 29 28  2  0
 29 25  1  0
 30 23  1  0
 31 30  1  0
 32 30  2  0
M  END
$$$$
