TWH.pdb
     RDKit          3D

 32 34  0  0  1  0  0  0  0  0999 V2000
    9.9115  -19.9730   19.2891 C   0  0  0  0  0  0  0  0  0  0  0  0
   10.1323  -19.2178   20.5898 C   0  0  1  0  0  0  0  0  0  0  0  0
   11.4711  -19.2357   20.9463 O   0  0  0  0  0  0  0  0  0  0  0  0
    9.6174  -17.8062   20.3923 C   0  0  2  0  0  0  0  0  0  0  0  0
   10.3845  -17.1257   19.3574 N   0  0  0  0  0  0  0  0  0  0  0  0
    9.7243  -17.0991   21.6896 C   0  0  0  0  0  0  0  0  0  0  0  0
   10.7141  -16.3652   21.9714 O   0  0  0  0  0  0  0  0  0  0  0  0
    8.7102  -17.2353   22.6406 N   0  0  0  0  0  0  0  0  0  0  0  0
    8.8027  -16.5902   23.9818 C   0  0  1  0  0  0  0  0  0  0  0  0
    7.4214  -16.1820   24.3002 C   0  0  0  0  0  0  0  0  0  0  0  0
    7.1203  -14.7510   24.3945 C   0  0  0  0  0  0  0  0  0  0  0  0
    6.5315  -13.8599   23.5271 C   0  0  0  0  0  0  0  0  0  0  0  0
    6.4767  -12.6383   24.0699 N   0  0  0  0  0  0  0  0  0  0  0  0
    7.0236  -12.7026   25.2940 C   0  0  0  0  0  0  0  0  0  0  0  0
    7.2073  -11.7354   26.2834 C   0  0  0  0  0  0  0  0  0  0  0  0
    7.7871  -12.0406   27.4870 C   0  0  0  0  0  0  0  0  0  0  0  0
    8.2029  -13.3457   27.7284 C   0  0  0  0  0  0  0  0  0  0  0  0
    8.0113  -14.2901   26.7327 C   0  0  0  0  0  0  0  0  0  0  0  0
    7.4339  -13.9989   25.5271 C   0  0  0  0  0  0  0  0  0  0  0  0
    9.5408  -17.4399   24.8745 C   0  0  0  0  0  0  0  0  0  0  0  0
    9.2057  -18.6754   24.9637 O   0  0  0  0  0  0  0  0  0  0  0  0
   10.6340  -17.1160   25.7012 N   0  0  0  0  0  0  0  0  0  0  0  0
   11.3320  -18.0456   26.5456 C   0  0  1  0  0  0  0  0  0  0  0  0
   12.7964  -17.8756   26.5921 C   0  0  0  0  0  0  0  0  0  0  0  0
   13.4259  -17.9322   25.2610 C   0  0  0  0  0  0  0  0  0  0  0  0
   13.1372  -18.8829   24.2561 C   0  0  0  0  0  0  0  0  0  0  0  0
   13.8867  -18.6472   23.1733 N   0  0  0  0  0  0  0  0  0  0  0  0
   14.6458  -17.5883   23.4334 C   0  0  0  0  0  0  0  0  0  0  0  0
   14.3616  -17.1732   24.6780 N   0  0  0  0  0  0  0  0  0  0  0  0
   10.7865  -17.8673   27.8972 C   0  0  0  0  0  0  0  0  0  0  0  0
   11.2831  -18.6506   28.9375 O   0  0  0  0  0  0  0  0  0  0  0  0
    9.8914  -17.0638   28.2275 O   0  0  0  0  0  0  0  0  0  0  0  0
  2  1  1  6
  3  2  1  0
  4  5  1  6
  4  2  1  0
  6  4  1  0
  7  6  2  0
  8  6  1  0
  9  8  1  0
  9 10  1  1
 11 10  1  0
 11 12  2  0
 13 12  1  0
 14 13  1  0
 15 14  2  0
 16 15  1  0
 17 16  2  0
 17 18  1  0
 18 19  2  0
 19 14  1  0
 19 11  1  0
 20  9  1  0
 20 21  2  0
 22 20  1  0
 23 22  1  0
 23 24  1  1
 25 24  1  0
 25 26  2  0
 27 26  1  0
 28 27  1  0
 29 28  2  0
 29 25  1  0
 30 23  1  0
 31 30  1  0
 32 30  2  0
M  END
$$$$
