TWH.pdb
     RDKit          3D

 32 34  0  0  1  0  0  0  0  0999 V2000
    9.2898  -18.5173   17.6985 C   0  0  0  0  0  0  0  0  0  0  0  0
    9.3971  -18.1886   19.1789 C   0  0  1  0  0  0  0  0  0  0  0  0
   10.3240  -19.0114   19.7982 O   0  0  0  0  0  0  0  0  0  0  0  0
    9.7710  -16.7246   19.2966 C   0  0  2  0  0  0  0  0  0  0  0  0
   11.0625  -16.4781   18.6691 N   0  0  0  0  0  0  0  0  0  0  0  0
    9.8011  -16.3790   20.7367 C   0  0  0  0  0  0  0  0  0  0  0  0
   10.8584  -16.4684   21.4237 O   0  0  0  0  0  0  0  0  0  0  0  0
    8.6365  -15.9386   21.3699 N   0  0  0  0  0  0  0  0  0  0  0  0
    8.6130  -15.6073   22.8236 C   0  0  1  0  0  0  0  0  0  0  0  0
    7.4020  -14.7843   23.0035 C   0  0  0  0  0  0  0  0  0  0  0  0
    6.9408  -14.5094   24.3669 C   0  0  0  0  0  0  0  0  0  0  0  0
    6.3115  -15.2825   25.3152 C   0  0  0  0  0  0  0  0  0  0  0  0
    6.0874  -14.5752   26.4286 N   0  0  0  0  0  0  0  0  0  0  0  0
    6.5614  -13.3344   26.2351 C   0  0  0  0  0  0  0  0  0  0  0  0
    6.6000  -12.2129   27.0649 C   0  0  0  0  0  0  0  0  0  0  0  0
    7.1594  -11.0324   26.6510 C   0  0  0  0  0  0  0  0  0  0  0  0
    7.7014  -10.9497   25.3728 C   0  0  0  0  0  0  0  0  0  0  0  0
    7.6524  -12.0746   24.5653 C   0  0  0  0  0  0  0  0  0  0  0  0
    7.0972  -13.2590   24.9661 C   0  0  0  0  0  0  0  0  0  0  0  0
    8.8072  -16.8047   23.5931 C   0  0  0  0  0  0  0  0  0  0  0  0
    8.3801  -17.9170   23.1164 O   0  0  0  0  0  0  0  0  0  0  0  0
    9.4312  -16.9587   24.8462 N   0  0  0  0  0  0  0  0  0  0  0  0
   10.4912  -17.8861   25.1303 C   0  0  1  0  0  0  0  0  0  0  0  0
   11.6850  -17.7581   24.2736 C   0  0  0  0  0  0  0  0  0  0  0  0
   12.6933  -18.8016   24.5302 C   0  0  0  0  0  0  0  0  0  0  0  0
   12.5801  -19.8347   25.4877 C   0  0  0  0  0  0  0  0  0  0  0  0
   13.6719  -20.6073   25.4596 N   0  0  0  0  0  0  0  0  0  0  0  0
   14.4845  -20.1200   24.5281 C   0  0  0  0  0  0  0  0  0  0  0  0
   13.8902  -19.0465   23.9834 N   0  0  0  0  0  0  0  0  0  0  0  0
   10.8784  -17.6568   26.5280 C   0  0  0  0  0  0  0  0  0  0  0  0
   10.1922  -16.6997   27.2734 O   0  0  0  0  0  0  0  0  0  0  0  0
   11.7907  -18.2446   27.1428 O   0  0  0  0  0  0  0  0  0  0  0  0
  2  1  1  6
  3  2  1  0
  4  5  1  1
  4  2  1  0
  6  4  1  0
  7  6  2  0
  8  6  1  0
  9  8  1  0
  9 10  1  1
 11 10  1  0
 11 12  2  0
 13 12  1  0
 14 13  1  0
 15 14  2  0
 16 15  1  0
 17 16  2  0
 17 18  1  0
 18 19  2  0
 19 14  1  0
 19 11  1  0
 20  9  1  0
 20 21  2  0
 22 20  1  0
 23 22  1  0
 23 24  1  6
 25 24  1  0
 25 26  2  0
 27 26  1  0
 28 27  1  0
 29 28  2  0
 29 25  1  0
 30 23  1  0
 31 30  1  0
 32 30  2  0
M  END
$$$$
