TWH.pdb
     RDKit          3D

 32 34  0  0  1  0  0  0  0  0999 V2000
    9.6237  -19.1776   20.2843 C   0  0  0  0  0  0  0  0  0  0  0  0
   10.4928  -18.2703   19.4283 C   0  0  1  0  0  0  0  0  0  0  0  0
   10.6883  -18.8208   18.1719 O   0  0  0  0  0  0  0  0  0  0  0  0
    9.8103  -16.9192   19.3549 C   0  0  2  0  0  0  0  0  0  0  0  0
   10.4683  -16.0704   18.3705 N   0  0  0  0  0  0  0  0  0  0  0  0
    9.8617  -16.3116   20.7049 C   0  0  0  0  0  0  0  0  0  0  0  0
   10.9405  -15.8813   21.2037 O   0  0  0  0  0  0  0  0  0  0  0  0
    8.6930  -16.2022   21.4623 N   0  0  0  0  0  0  0  0  0  0  0  0
    8.7092  -15.6665   22.8539 C   0  0  1  0  0  0  0  0  0  0  0  0
    7.3288  -15.2068   23.0972 C   0  0  0  0  0  0  0  0  0  0  0  0
    6.9378  -14.8656   24.4676 C   0  0  0  0  0  0  0  0  0  0  0  0
    6.3267  -15.5809   25.4715 C   0  0  0  0  0  0  0  0  0  0  0  0
    6.1754  -14.8252   26.5652 N   0  0  0  0  0  0  0  0  0  0  0  0
    6.6800  -13.6093   26.3033 C   0  0  0  0  0  0  0  0  0  0  0  0
    6.7917  -12.4595   27.0865 C   0  0  0  0  0  0  0  0  0  0  0  0
    7.3698  -11.3149   26.6032 C   0  0  0  0  0  0  0  0  0  0  0  0
    7.8568  -11.2986   25.3005 C   0  0  0  0  0  0  0  0  0  0  0  0
    7.7356  -12.4506   24.5402 C   0  0  0  0  0  0  0  0  0  0  0  0
    7.1609  -13.5997   25.0104 C   0  0  0  0  0  0  0  0  0  0  0  0
    9.3297  -16.6212   23.7298 C   0  0  0  0  0  0  0  0  0  0  0  0
    9.0047  -17.8578   23.6192 O   0  0  0  0  0  0  0  0  0  0  0  0
   10.2925  -16.4039   24.7343 N   0  0  0  0  0  0  0  0  0  0  0  0
   10.8478  -17.4257   25.5780 C   0  0  1  0  0  0  0  0  0  0  0  0
   12.3212  -17.4577   25.6403 C   0  0  0  0  0  0  0  0  0  0  0  0
   12.9379  -18.0100   24.4213 C   0  0  0  0  0  0  0  0  0  0  0  0
   12.2371  -18.4892   23.2916 C   0  0  0  0  0  0  0  0  0  0  0  0
   13.1009  -18.9194   22.3650 N   0  0  0  0  0  0  0  0  0  0  0  0
   14.3267  -18.7399   22.8450 C   0  0  0  0  0  0  0  0  0  0  0  0
   14.2151  -18.1984   24.0683 N   0  0  0  0  0  0  0  0  0  0  0  0
   10.3171  -17.1835   26.9255 C   0  0  0  0  0  0  0  0  0  0  0  0
   10.6421  -18.0691   27.9515 O   0  0  0  0  0  0  0  0  0  0  0  0
    9.5769  -16.2384   27.2641 O   0  0  0  0  0  0  0  0  0  0  0  0
  2  1  1  1
  3  2  1  0
  4  5  1  6
  4  2  1  0
  6  4  1  0
  7  6  2  0
  8  6  1  0
  9  8  1  0
  9 10  1  1
 11 10  1  0
 11 12  2  0
 13 12  1  0
 14 13  1  0
 15 14  2  0
 16 15  1  0
 17 16  2  0
 17 18  1  0
 18 19  2  0
 19 14  1  0
 19 11  1  0
 20  9  1  0
 20 21  2  0
 22 20  1  0
 23 22  1  0
 23 24  1  1
 25 24  1  0
 25 26  2  0
 27 26  1  0
 28 27  1  0
 29 28  2  0
 29 25  1  0
 30 23  1  0
 31 30  1  0
 32 30  2  0
M  END
$$$$
