TWH.pdb
     RDKit          3D

 32 34  0  0  1  0  0  0  0  0999 V2000
    9.8712  -18.7702   18.5551 C   0  0  0  0  0  0  0  0  0  0  0  0
   10.2693  -18.3719   19.9671 C   0  0  1  0  0  0  0  0  0  0  0  0
   11.5983  -18.6810   20.2079 O   0  0  0  0  0  0  0  0  0  0  0  0
    9.9961  -16.8889   20.1184 C   0  0  2  0  0  0  0  0  0  0  0  0
   10.8138  -16.1240   19.1863 N   0  0  0  0  0  0  0  0  0  0  0  0
   10.2913  -16.5144   21.5208 C   0  0  0  0  0  0  0  0  0  0  0  0
   11.3832  -15.9704   21.8518 O   0  0  0  0  0  0  0  0  0  0  0  0
    9.3464  -16.7616   22.5195 N   0  0  0  0  0  0  0  0  0  0  0  0
    9.6174  -16.4414   23.9504 C   0  0  1  0  0  0  0  0  0  0  0  0
    8.2841  -16.2688   24.5575 C   0  0  0  0  0  0  0  0  0  0  0  0
    7.5368  -15.0428   24.2644 C   0  0  0  0  0  0  0  0  0  0  0  0
    6.8459  -14.6111   23.1557 C   0  0  0  0  0  0  0  0  0  0  0  0
    6.3223  -13.3983   23.3681 N   0  0  0  0  0  0  0  0  0  0  0  0
    6.6561  -13.0132   24.6099 C   0  0  0  0  0  0  0  0  0  0  0  0
    6.3635  -11.8580   25.3364 C   0  0  0  0  0  0  0  0  0  0  0  0
    6.8072  -11.6864   26.6215 C   0  0  0  0  0  0  0  0  0  0  0  0
    7.5678  -12.6875   27.2162 C   0  0  0  0  0  0  0  0  0  0  0  0
    7.8469  -13.8259   26.4773 C   0  0  0  0  0  0  0  0  0  0  0  0
    7.4101  -14.0099   25.1938 C   0  0  0  0  0  0  0  0  0  0  0  0
   10.5506  -17.3922   24.4878 C   0  0  0  0  0  0  0  0  0  0  0  0
   10.4779  -18.6123   24.0968 O   0  0  0  0  0  0  0  0  0  0  0  0
   11.5897  -17.1837   25.4153 N   0  0  0  0  0  0  0  0  0  0  0  0
   11.6425  -17.7505   26.7344 C   0  0  1  0  0  0  0  0  0  0  0  0
   10.5142  -17.3970   27.6163 C   0  0  0  0  0  0  0  0  0  0  0  0
   10.6191  -16.0350   28.1689 C   0  0  0  0  0  0  0  0  0  0  0  0
   11.6648  -15.1212   27.9072 C   0  0  0  0  0  0  0  0  0  0  0  0
   11.4502  -13.9778   28.5676 N   0  0  0  0  0  0  0  0  0  0  0  0
   10.3142  -14.1118   29.2435 C   0  0  0  0  0  0  0  0  0  0  0  0
    9.8306  -15.3397   28.9973 N   0  0  0  0  0  0  0  0  0  0  0  0
   11.6734  -19.2079   26.5579 C   0  0  0  0  0  0  0  0  0  0  0  0
   10.5699  -19.8462   25.9946 O   0  0  0  0  0  0  0  0  0  0  0  0
   12.6131  -19.9655   26.8720 O   0  0  0  0  0  0  0  0  0  0  0  0
  2  1  1  6
  3  2  1  0
  4  5  1  6
  4  2  1  0
  6  4  1  0
  7  6  2  0
  8  6  1  0
  9  8  1  0
  9 10  1  1
 11 10  1  0
 11 12  2  0
 13 12  1  0
 14 13  1  0
 15 14  2  0
 16 15  1  0
 17 16  2  0
 17 18  1  0
 18 19  2  0
 19 14  1  0
 19 11  1  0
 20  9  1  0
 20 21  2  0
 22 20  1  0
 23 22  1  0
 23 24  1  1
 25 24  1  0
 25 26  2  0
 27 26  1  0
 28 27  1  0
 29 28  2  0
 29 25  1  0
 30 23  1  0
 31 30  1  0
 32 30  2  0
M  END
$$$$
