TWH.pdb
     RDKit          3D

 32 34  0  0  1  0  0  0  0  0999 V2000
    7.5251  -20.5011   19.1756 C   0  0  0  0  0  0  0  0  0  0  0  0
    8.2075  -19.6190   20.2088 C   0  0  1  0  0  0  0  0  0  0  0  0
    9.4358  -20.1480   20.5710 O   0  0  0  0  0  0  0  0  0  0  0  0
    8.3417  -18.2332   19.6103 C   0  0  2  0  0  0  0  0  0  0  0  0
    9.1682  -18.2754   18.4113 N   0  0  0  0  0  0  0  0  0  0  0  0
    8.9373  -17.3506   20.6400 C   0  0  0  0  0  0  0  0  0  0  0  0
   10.1798  -17.1231   20.6880 O   0  0  0  0  0  0  0  0  0  0  0  0
    8.1166  -16.7428   21.5931 N   0  0  0  0  0  0  0  0  0  0  0  0
    8.6668  -15.8153   22.6230 C   0  0  1  0  0  0  0  0  0  0  0  0
    7.6401  -14.7669   22.7736 C   0  0  0  0  0  0  0  0  0  0  0  0
    7.9115  -13.6490   23.6813 C   0  0  0  0  0  0  0  0  0  0  0  0
    8.7339  -12.5497   23.5915 C   0  0  0  0  0  0  0  0  0  0  0  0
    8.6401  -11.7981   24.6944 N   0  0  0  0  0  0  0  0  0  0  0  0
    7.7616  -12.3840   25.5230 C   0  0  0  0  0  0  0  0  0  0  0  0
    7.2866  -12.0207   26.7841 C   0  0  0  0  0  0  0  0  0  0  0  0
    6.3598  -12.7805   27.4486 C   0  0  0  0  0  0  0  0  0  0  0  0
    5.8809  -13.9421   26.8519 C   0  0  0  0  0  0  0  0  0  0  0  0
    6.3658  -14.2845   25.5999 C   0  0  0  0  0  0  0  0  0  0  0  0
    7.2908  -13.5349   24.9257 C   0  0  0  0  0  0  0  0  0  0  0  0
    9.1165  -16.5704   23.7594 C   0  0  0  0  0  0  0  0  0  0  0  0
    8.3718  -17.5177   24.2008 O   0  0  0  0  0  0  0  0  0  0  0  0
   10.3091  -16.4334   24.4959 N   0  0  0  0  0  0  0  0  0  0  0  0
   10.6811  -17.2471   25.6201 C   0  0  1  0  0  0  0  0  0  0  0  0
   12.1071  -17.6188   25.6828 C   0  0  0  0  0  0  0  0  0  0  0  0
   12.5102  -18.5416   24.6070 C   0  0  0  0  0  0  0  0  0  0  0  0
   11.6287  -19.2828   23.7881 C   0  0  0  0  0  0  0  0  0  0  0  0
   12.3247  -20.0199   22.9151 N   0  0  0  0  0  0  0  0  0  0  0  0
   13.6147  -19.7883   23.1331 C   0  0  0  0  0  0  0  0  0  0  0  0
   13.7106  -18.9074   24.1417 N   0  0  0  0  0  0  0  0  0  0  0  0
   10.3341  -16.4771   26.8213 C   0  0  0  0  0  0  0  0  0  0  0  0
   10.5007  -17.0640   28.0744 O   0  0  0  0  0  0  0  0  0  0  0  0
    9.8866  -15.3130   26.8432 O   0  0  0  0  0  0  0  0  0  0  0  0
  2  1  1  6
  3  2  1  0
  4  5  1  6
  4  2  1  0
  6  4  1  0
  7  6  2  0
  8  6  1  0
  9  8  1  0
  9 10  1  1
 11 10  1  0
 11 12  2  0
 13 12  1  0
 14 13  1  0
 15 14  2  0
 16 15  1  0
 17 16  2  0
 17 18  1  0
 18 19  2  0
 19 14  1  0
 19 11  1  0
 20  9  1  0
 20 21  2  0
 22 20  1  0
 23 22  1  0
 23 24  1  6
 25 24  1  0
 25 26  2  0
 27 26  1  0
 28 27  1  0
 29 28  2  0
 29 25  1  0
 30 23  1  0
 31 30  1  0
 32 30  2  0
M  END
$$$$
