TWH.pdb
     RDKit          3D

 32 34  0  0  1  0  0  0  0  0999 V2000
    8.1715  -15.0183   16.4799 C   0  0  0  0  0  0  0  0  0  0  0  0
    8.6860  -14.9462   17.9086 C   0  0  1  0  0  0  0  0  0  0  0  0
   10.0571  -14.7479   17.9269 O   0  0  0  0  0  0  0  0  0  0  0  0
    7.9420  -13.8256   18.6068 C   0  0  2  0  0  0  0  0  0  0  0  0
    8.2215  -12.5503   17.9605 N   0  0  0  0  0  0  0  0  0  0  0  0
    8.3701  -13.8121   20.0249 C   0  0  0  0  0  0  0  0  0  0  0  0
    9.3865  -13.1669   20.4102 O   0  0  0  0  0  0  0  0  0  0  0  0
    7.6403  -14.5268   20.9777 N   0  0  0  0  0  0  0  0  0  0  0  0
    8.0558  -14.5733   22.4090 C   0  0  1  0  0  0  0  0  0  0  0  0
    6.7950  -14.7010   23.1640 C   0  0  0  0  0  0  0  0  0  0  0  0
    6.8616  -14.7850   24.6254 C   0  0  0  0  0  0  0  0  0  0  0  0
    6.9061  -15.8461   25.5002 C   0  0  0  0  0  0  0  0  0  0  0  0
    6.9598  -15.4135   26.7651 N   0  0  0  0  0  0  0  0  0  0  0  0
    6.9520  -14.0714   26.7461 C   0  0  0  0  0  0  0  0  0  0  0  0
    7.0067  -13.1256   27.7710 C   0  0  0  0  0  0  0  0  0  0  0  0
    7.0019  -11.7807   27.5079 C   0  0  0  0  0  0  0  0  0  0  0  0
    6.9408  -11.3477   26.1876 C   0  0  0  0  0  0  0  0  0  0  0  0
    6.8868  -12.3032   25.1856 C   0  0  0  0  0  0  0  0  0  0  0  0
    6.8911  -13.6485   25.4344 C   0  0  0  0  0  0  0  0  0  0  0  0
    9.1098  -15.5355   22.5730 C   0  0  0  0  0  0  0  0  0  0  0  0
    8.9598  -16.7035   22.0628 O   0  0  0  0  0  0  0  0  0  0  0  0
   10.3465  -15.3885   23.2306 N   0  0  0  0  0  0  0  0  0  0  0  0
   11.3167  -16.4339   23.4040 C   0  0  1  0  0  0  0  0  0  0  0  0
   12.6991  -16.0767   23.0337 C   0  0  0  0  0  0  0  0  0  0  0  0
   12.8558  -15.7925   21.5964 C   0  0  0  0  0  0  0  0  0  0  0  0
   11.8363  -15.8954   20.6233 C   0  0  0  0  0  0  0  0  0  0  0  0
   12.3172  -15.5659   19.4191 N   0  0  0  0  0  0  0  0  0  0  0  0
   13.6000  -15.2552   19.5705 C   0  0  0  0  0  0  0  0  0  0  0  0
   13.9072  -15.3942   20.8700 N   0  0  0  0  0  0  0  0  0  0  0  0
   11.2815  -16.7998   24.8256 C   0  0  0  0  0  0  0  0  0  0  0  0
   12.1445  -17.7896   25.2925 O   0  0  0  0  0  0  0  0  0  0  0  0
   10.5332  -16.3054   25.6925 O   0  0  0  0  0  0  0  0  0  0  0  0
  2  1  1  6
  3  2  1  0
  4  5  1  6
  4  2  1  0
  6  4  1  0
  7  6  2  0
  8  6  1  0
  9  8  1  0
  9 10  1  1
 11 10  1  0
 11 12  2  0
 13 12  1  0
 14 13  1  0
 15 14  2  0
 16 15  1  0
 17 16  2  0
 17 18  1  0
 18 19  2  0
 19 14  1  0
 19 11  1  0
 20  9  1  0
 20 21  2  0
 22 20  1  0
 23 22  1  0
 23 24  1  1
 25 24  1  0
 25 26  2  0
 27 26  1  0
 28 27  1  0
 29 28  2  0
 29 25  1  0
 30 23  1  0
 31 30  1  0
 32 30  2  0
M  END
$$$$
