TWH.pdb
     RDKit          3D

 32 34  0  0  1  0  0  0  0  0999 V2000
    7.0755  -18.5513   18.5128 C   0  0  0  0  0  0  0  0  0  0  0  0
    7.8039  -18.2053   19.8014 C   0  0  1  0  0  0  0  0  0  0  0  0
    8.6578  -19.2311   20.1730 O   0  0  0  0  0  0  0  0  0  0  0  0
    8.5470  -16.9046   19.5718 C   0  0  2  0  0  0  0  0  0  0  0  0
    9.5482  -17.0692   18.5263 N   0  0  0  0  0  0  0  0  0  0  0  0
    9.1730  -16.5078   20.8543 C   0  0  0  0  0  0  0  0  0  0  0  0
   10.3790  -16.7767   21.1210 O   0  0  0  0  0  0  0  0  0  0  0  0
    8.4236  -15.8147   21.8080 N   0  0  0  0  0  0  0  0  0  0  0  0
    9.0081  -15.4070   23.1179 C   0  0  1  0  0  0  0  0  0  0  0  0
    8.1396  -14.3141   23.5947 C   0  0  0  0  0  0  0  0  0  0  0  0
    8.1860  -13.9542   25.0144 C   0  0  0  0  0  0  0  0  0  0  0  0
    8.8935  -14.4539   26.0834 C   0  0  0  0  0  0  0  0  0  0  0  0
    8.5926  -13.7859   27.2028 N   0  0  0  0  0  0  0  0  0  0  0  0
    7.6895  -12.8422   26.8936 C   0  0  0  0  0  0  0  0  0  0  0  0
    7.0557  -11.8705   27.6695 C   0  0  0  0  0  0  0  0  0  0  0  0
    6.1630  -10.9856   27.1238 C   0  0  0  0  0  0  0  0  0  0  0  0
    5.8815  -11.0577   25.7636 C   0  0  0  0  0  0  0  0  0  0  0  0
    6.5214  -12.0299   25.0117 C   0  0  0  0  0  0  0  0  0  0  0  0
    7.4146  -12.9191   25.5440 C   0  0  0  0  0  0  0  0  0  0  0  0
    9.2329  -16.5720   23.9279 C   0  0  0  0  0  0  0  0  0  0  0  0
    8.3435  -17.4971   23.9331 O   0  0  0  0  0  0  0  0  0  0  0  0
   10.3342  -16.8773   24.7507 N   0  0  0  0  0  0  0  0  0  0  0  0
   10.5696  -18.1508   25.3730 C   0  0  1  0  0  0  0  0  0  0  0  0
   11.7994  -18.8427   24.9435 C   0  0  0  0  0  0  0  0  0  0  0  0
   12.0018  -20.1342   25.6236 C   0  0  0  0  0  0  0  0  0  0  0  0
   11.0232  -20.8335   26.3654 C   0  0  0  0  0  0  0  0  0  0  0  0
   11.5391  -21.9696   26.8480 N   0  0  0  0  0  0  0  0  0  0  0  0
   12.8056  -22.0354   26.4517 C   0  0  0  0  0  0  0  0  0  0  0  0
   13.0674  -20.9377   25.7246 N   0  0  0  0  0  0  0  0  0  0  0  0
   10.6422  -17.8985   26.8177 C   0  0  0  0  0  0  0  0  0  0  0  0
   10.6714  -18.9816   27.6944 O   0  0  0  0  0  0  0  0  0  0  0  0
   10.6786  -16.7790   27.3665 O   0  0  0  0  0  0  0  0  0  0  0  0
  2  1  1  6
  3  2  1  0
  4  5  1  6
  4  2  1  0
  6  4  1  0
  7  6  2  0
  8  6  1  0
  9  8  1  0
  9 10  1  1
 11 10  1  0
 11 12  2  0
 13 12  1  0
 14 13  1  0
 15 14  2  0
 16 15  1  0
 17 16  2  0
 17 18  1  0
 18 19  2  0
 19 14  1  0
 19 11  1  0
 20  9  1  0
 20 21  2  0
 22 20  1  0
 23 22  1  0
 23 24  1  6
 25 24  1  0
 25 26  2  0
 27 26  1  0
 28 27  1  0
 29 28  2  0
 29 25  1  0
 30 23  1  0
 31 30  1  0
 32 30  2  0
M  END
$$$$
