TWH.pdb
     RDKit          3D

 32 34  0  0  1  0  0  0  0  0999 V2000
    6.8043  -17.6750   19.2689 C   0  0  0  0  0  0  0  0  0  0  0  0
    7.8579  -17.3153   20.3041 C   0  0  1  0  0  0  0  0  0  0  0  0
    9.0648  -17.0170   19.6926 O   0  0  0  0  0  0  0  0  0  0  0  0
    7.3271  -16.1468   21.1102 C   0  0  2  0  0  0  0  0  0  0  0  0
    7.1020  -14.9948   20.2472 N   0  0  0  0  0  0  0  0  0  0  0  0
    8.3180  -15.8381   22.1671 C   0  0  0  0  0  0  0  0  0  0  0  0
    9.1498  -14.8937   22.0484 O   0  0  0  0  0  0  0  0  0  0  0  0
    8.3474  -16.6021   23.3362 N   0  0  0  0  0  0  0  0  0  0  0  0
    9.2591  -16.2671   24.4677 C   0  0  1  0  0  0  0  0  0  0  0  0
    8.3953  -16.2756   25.6635 C   0  0  0  0  0  0  0  0  0  0  0  0
    7.3020  -15.3031   25.7421 C   0  0  0  0  0  0  0  0  0  0  0  0
    5.9414  -15.4092   25.5673 C   0  0  0  0  0  0  0  0  0  0  0  0
    5.3484  -14.2231   25.7446 N   0  0  0  0  0  0  0  0  0  0  0  0
    6.2998  -13.3225   26.0370 C   0  0  0  0  0  0  0  0  0  0  0  0
    6.2333  -11.9584   26.3248 C   0  0  0  0  0  0  0  0  0  0  0  0
    7.3572  -11.2302   26.6154 C   0  0  0  0  0  0  0  0  0  0  0  0
    8.5943  -11.8659   26.6234 C   0  0  0  0  0  0  0  0  0  0  0  0
    8.6379  -13.2203   26.3346 C   0  0  0  0  0  0  0  0  0  0  0  0
    7.5237  -13.9589   26.0431 C   0  0  0  0  0  0  0  0  0  0  0  0
   10.4307  -17.0959   24.4031 C   0  0  0  0  0  0  0  0  0  0  0  0
   10.2957  -18.3241   24.0565 O   0  0  0  0  0  0  0  0  0  0  0  0
   11.7714  -16.7531   24.6647 N   0  0  0  0  0  0  0  0  0  0  0  0
   12.8754  -17.6724   24.6461 C   0  0  1  0  0  0  0  0  0  0  0  0
   14.1517  -17.1125   24.1631 C   0  0  0  0  0  0  0  0  0  0  0  0
   14.0254  -16.4241   22.8665 C   0  0  0  0  0  0  0  0  0  0  0  0
   13.0814  -16.7332   21.8614 C   0  0  0  0  0  0  0  0  0  0  0  0
   13.2423  -15.9160   20.8145 N   0  0  0  0  0  0  0  0  0  0  0  0
   14.2467  -15.0938   21.0979 C   0  0  0  0  0  0  0  0  0  0  0  0
   14.7031  -15.4069   22.3210 N   0  0  0  0  0  0  0  0  0  0  0  0
   13.0495  -18.1383   26.0276 C   0  0  0  0  0  0  0  0  0  0  0  0
   12.4969  -19.3607   26.4056 O   0  0  0  0  0  0  0  0  0  0  0  0
   13.6578  -17.5355   26.9345 O   0  0  0  0  0  0  0  0  0  0  0  0
  2  1  1  6
  3  2  1  0
  4  5  1  6
  4  2  1  0
  6  4  1  0
  7  6  2  0
  8  6  1  0
  9  8  1  0
  9 10  1  1
 11 10  1  0
 11 12  2  0
 13 12  1  0
 14 13  1  0
 15 14  2  0
 16 15  1  0
 17 16  2  0
 17 18  1  0
 18 19  2  0
 19 14  1  0
 19 11  1  0
 20  9  1  0
 20 21  2  0
 22 20  1  0
 23 22  1  0
 23 24  1  1
 25 24  1  0
 25 26  2  0
 27 26  1  0
 28 27  1  0
 29 28  2  0
 29 25  1  0
 30 23  1  0
 31 30  1  0
 32 30  2  0
M  END
$$$$
