TWH.pdb
     RDKit          3D

 32 34  0  0  1  0  0  0  0  0999 V2000
    6.9805  -15.0446   18.0904 C   0  0  0  0  0  0  0  0  0  0  0  0
    7.9151  -15.1426   19.2853 C   0  0  1  0  0  0  0  0  0  0  0  0
    9.2184  -14.8541   18.9138 O   0  0  0  0  0  0  0  0  0  0  0  0
    7.4037  -14.1882   20.3457 C   0  0  2  0  0  0  0  0  0  0  0  0
    7.3828  -12.8243   19.8341 N   0  0  0  0  0  0  0  0  0  0  0  0
    8.2919  -14.3036   21.5256 C   0  0  0  0  0  0  0  0  0  0  0  0
    9.2041  -13.4607   21.7605 O   0  0  0  0  0  0  0  0  0  0  0  0
    8.1300  -15.3680   22.4155 N   0  0  0  0  0  0  0  0  0  0  0  0
    8.9967  -15.5210   23.6193 C   0  0  1  0  0  0  0  0  0  0  0  0
    8.0800  -15.9503   24.6922 C   0  0  0  0  0  0  0  0  0  0  0  0
    7.0957  -14.9887   25.1960 C   0  0  0  0  0  0  0  0  0  0  0  0
    5.7265  -15.0322   25.3247 C   0  0  0  0  0  0  0  0  0  0  0  0
    5.2645  -13.8897   25.8456 N   0  0  0  0  0  0  0  0  0  0  0  0
    6.3121  -13.0805   26.0675 C   0  0  0  0  0  0  0  0  0  0  0  0
    6.3981  -11.7950   26.6043 C   0  0  0  0  0  0  0  0  0  0  0  0
    7.6023  -11.1582   26.7534 C   0  0  0  0  0  0  0  0  0  0  0  0
    8.7671  -11.8085   26.3599 C   0  0  0  0  0  0  0  0  0  0  0  0
    8.6593  -13.0839   25.8293 C   0  0  0  0  0  0  0  0  0  0  0  0
    7.4637  -13.7309   25.6752 C   0  0  0  0  0  0  0  0  0  0  0  0
   10.1520  -16.3061   23.2837 C   0  0  0  0  0  0  0  0  0  0  0  0
    9.9795  -17.5154   22.8903 O   0  0  0  0  0  0  0  0  0  0  0  0
   11.5106  -15.9361   23.3114 N   0  0  0  0  0  0  0  0  0  0  0  0
   12.6145  -16.8424   23.1556 C   0  0  1  0  0  0  0  0  0  0  0  0
   13.8508  -16.2414   22.6207 C   0  0  0  0  0  0  0  0  0  0  0  0
   13.7199  -15.8039   21.2198 C   0  0  0  0  0  0  0  0  0  0  0  0
   12.7838  -16.3051   20.2873 C   0  0  0  0  0  0  0  0  0  0  0  0
   12.9373  -15.6912   19.1086 N   0  0  0  0  0  0  0  0  0  0  0  0
   13.9295  -14.8169   19.2377 C   0  0  0  0  0  0  0  0  0  0  0  0
   14.3856  -14.8943   20.4979 N   0  0  0  0  0  0  0  0  0  0  0  0
   12.8885  -17.3941   24.4885 C   0  0  0  0  0  0  0  0  0  0  0  0
   13.9483  -18.2850   24.6488 O   0  0  0  0  0  0  0  0  0  0  0  0
   12.2505  -17.1458   25.5311 O   0  0  0  0  0  0  0  0  0  0  0  0
  2  1  1  6
  3  2  1  0
  4  5  1  6
  4  2  1  0
  6  4  1  0
  7  6  2  0
  8  6  1  0
  9  8  1  0
  9 10  1  1
 11 10  1  0
 11 12  2  0
 13 12  1  0
 14 13  1  0
 15 14  2  0
 16 15  1  0
 17 16  2  0
 17 18  1  0
 18 19  2  0
 19 14  1  0
 19 11  1  0
 20  9  1  0
 20 21  2  0
 22 20  1  0
 23 22  1  0
 23 24  1  1
 25 24  1  0
 25 26  2  0
 27 26  1  0
 28 27  1  0
 29 28  2  0
 29 25  1  0
 30 23  1  0
 31 30  1  0
 32 30  2  0
M  END
$$$$
