TWH.pdb
     RDKit          3D

 32 34  0  0  1  0  0  0  0  0999 V2000
    6.7171  -15.6039   18.1640 C   0  0  0  0  0  0  0  0  0  0  0  0
    7.7899  -15.5775   19.2408 C   0  0  1  0  0  0  0  0  0  0  0  0
    9.0372  -15.3431   18.6851 O   0  0  0  0  0  0  0  0  0  0  0  0
    7.4059  -14.5075   20.2430 C   0  0  2  0  0  0  0  0  0  0  0  0
    7.3801  -13.1985   19.6039 N   0  0  0  0  0  0  0  0  0  0  0  0
    8.3934  -14.5448   21.3465 C   0  0  0  0  0  0  0  0  0  0  0  0
    9.3739  -13.7484   21.3934 O   0  0  0  0  0  0  0  0  0  0  0  0
    8.2516  -15.4802   22.3742 N   0  0  0  0  0  0  0  0  0  0  0  0
    9.1837  -15.5124   23.5378 C   0  0  1  0  0  0  0  0  0  0  0  0
    8.3441  -15.9124   24.6828 C   0  0  0  0  0  0  0  0  0  0  0  0
    7.3155  -14.9810   25.1536 C   0  0  0  0  0  0  0  0  0  0  0  0
    5.9562  -15.0998   25.3302 C   0  0  0  0  0  0  0  0  0  0  0  0
    5.4375  -13.9550   25.7887 N   0  0  0  0  0  0  0  0  0  0  0  0
    6.4375  -13.0694   25.9214 C   0  0  0  0  0  0  0  0  0  0  0  0
    6.4568  -11.7473   26.3681 C   0  0  0  0  0  0  0  0  0  0  0  0
    7.6218  -11.0287   26.4345 C   0  0  0  0  0  0  0  0  0  0  0  0
    8.8138  -11.6315   26.0469 C   0  0  0  0  0  0  0  0  0  0  0  0
    8.7722  -12.9446   25.6064 C   0  0  0  0  0  0  0  0  0  0  0  0
    7.6163  -13.6731   25.5354 C   0  0  0  0  0  0  0  0  0  0  0  0
   10.3589  -16.2628   23.1922 C   0  0  0  0  0  0  0  0  0  0  0  0
   10.2165  -17.3696   22.5585 O   0  0  0  0  0  0  0  0  0  0  0  0
   11.7099  -15.9551   23.4442 N   0  0  0  0  0  0  0  0  0  0  0  0
   12.8287  -16.7526   23.0239 C   0  0  1  0  0  0  0  0  0  0  0  0
   14.0566  -15.9979   22.7107 C   0  0  0  0  0  0  0  0  0  0  0  0
   13.9260  -15.1582   21.5069 C   0  0  0  0  0  0  0  0  0  0  0  0
   12.9318  -15.2982   20.5123 C   0  0  0  0  0  0  0  0  0  0  0  0
   13.1037  -14.3749   19.5595 N   0  0  0  0  0  0  0  0  0  0  0  0
   14.1629  -13.6458   19.8935 C   0  0  0  0  0  0  0  0  0  0  0  0
   14.6421  -14.1223   21.0535 N   0  0  0  0  0  0  0  0  0  0  0  0
   13.1078  -17.6859   24.1227 C   0  0  0  0  0  0  0  0  0  0  0  0
   12.2989  -17.6587   25.2573 O   0  0  0  0  0  0  0  0  0  0  0  0
   14.0262  -18.5293   24.1540 O   0  0  0  0  0  0  0  0  0  0  0  0
  2  1  1  6
  3  2  1  0
  4  5  1  6
  4  2  1  0
  6  4  1  0
  7  6  2  0
  8  6  1  0
  9  8  1  0
  9 10  1  1
 11 10  1  0
 11 12  2  0
 13 12  1  0
 14 13  1  0
 15 14  2  0
 16 15  1  0
 17 16  2  0
 17 18  1  0
 18 19  2  0
 19 14  1  0
 19 11  1  0
 20  9  1  0
 20 21  2  0
 22 20  1  0
 23 22  1  0
 23 24  1  1
 25 24  1  0
 25 26  2  0
 27 26  1  0
 28 27  1  0
 29 28  2  0
 29 25  1  0
 30 23  1  0
 31 30  1  0
 32 30  2  0
M  END
$$$$
