TWH.pdb
     RDKit          3D

 32 34  0  0  1  0  0  0  0  0999 V2000
    7.0655  -18.4410   19.5429 C   0  0  0  0  0  0  0  0  0  0  0  0
    8.0524  -17.7794   20.4913 C   0  0  1  0  0  0  0  0  0  0  0  0
    9.3033  -17.6765   19.9043 O   0  0  0  0  0  0  0  0  0  0  0  0
    7.4887  -16.4233   20.8652 C   0  0  2  0  0  0  0  0  0  0  0  0
    7.3290  -15.5945   19.6778 N   0  0  0  0  0  0  0  0  0  0  0  0
    8.4186  -15.7973   21.8335 C   0  0  0  0  0  0  0  0  0  0  0  0
    9.2963  -14.9619   21.4733 O   0  0  0  0  0  0  0  0  0  0  0  0
    8.3367  -16.1275   23.1884 N   0  0  0  0  0  0  0  0  0  0  0  0
    9.2571  -15.5287   24.1972 C   0  0  1  0  0  0  0  0  0  0  0  0
    8.5232  -15.6124   25.4741 C   0  0  0  0  0  0  0  0  0  0  0  0
    7.2891  -14.8363   25.6224 C   0  0  0  0  0  0  0  0  0  0  0  0
    5.9598  -15.1899   25.6525 C   0  0  0  0  0  0  0  0  0  0  0  0
    5.1869  -14.1090   25.8085 N   0  0  0  0  0  0  0  0  0  0  0  0
    5.9866  -13.0336   25.8835 C   0  0  0  0  0  0  0  0  0  0  0  0
    5.7085  -11.6771   26.0583 C   0  0  0  0  0  0  0  0  0  0  0  0
    6.7077  -10.7416   26.1220 C   0  0  0  0  0  0  0  0  0  0  0  0
    8.0313  -11.1538   26.0094 C   0  0  0  0  0  0  0  0  0  0  0  0
    8.2853  -12.5048   25.8361 C   0  0  0  0  0  0  0  0  0  0  0  0
    7.2973  -13.4490   25.7710 C   0  0  0  0  0  0  0  0  0  0  0  0
   10.5634  -16.1110   24.0623 C   0  0  0  0  0  0  0  0  0  0  0  0
   10.6574  -17.3132   23.6231 O   0  0  0  0  0  0  0  0  0  0  0  0
   11.8195  -15.5387   24.3417 N   0  0  0  0  0  0  0  0  0  0  0  0
   12.8222  -16.1251   25.1872 C   0  0  1  0  0  0  0  0  0  0  0  0
   12.3245  -17.1191   26.1567 C   0  0  0  0  0  0  0  0  0  0  0  0
   11.6918  -16.5059   27.3378 C   0  0  0  0  0  0  0  0  0  0  0  0
   11.6029  -15.1191   27.5943 C   0  0  0  0  0  0  0  0  0  0  0  0
   10.9678  -14.9070   28.7525 N   0  0  0  0  0  0  0  0  0  0  0  0
   10.6429  -16.0932   29.2551 C   0  0  0  0  0  0  0  0  0  0  0  0
   11.0793  -17.0351   28.4038 N   0  0  0  0  0  0  0  0  0  0  0  0
   13.7910  -16.7720   24.2933 C   0  0  0  0  0  0  0  0  0  0  0  0
   14.8767  -17.4489   24.8460 O   0  0  0  0  0  0  0  0  0  0  0  0
   13.7485  -16.7792   23.0467 O   0  0  0  0  0  0  0  0  0  0  0  0
  2  1  1  6
  3  2  1  0
  4  5  1  6
  4  2  1  0
  6  4  1  0
  7  6  2  0
  8  6  1  0
  9  8  1  0
  9 10  1  1
 11 10  1  0
 11 12  2  0
 13 12  1  0
 14 13  1  0
 15 14  2  0
 16 15  1  0
 17 16  2  0
 17 18  1  0
 18 19  2  0
 19 14  1  0
 19 11  1  0
 20  9  1  0
 20 21  2  0
 22 20  1  0
 23 22  1  0
 23 24  1  1
 25 24  1  0
 25 26  2  0
 27 26  1  0
 28 27  1  0
 29 28  2  0
 29 25  1  0
 30 23  1  0
 31 30  1  0
 32 30  2  0
M  END
$$$$
