TWH.pdb
     RDKit          3D

 32 34  0  0  1  0  0  0  0  0999 V2000
   10.0684  -18.9220   20.1245 C   0  0  0  0  0  0  0  0  0  0  0  0
   10.7148  -17.8787   19.2275 C   0  0  1  0  0  0  0  0  0  0  0  0
   10.8388  -18.3543   17.9321 O   0  0  0  0  0  0  0  0  0  0  0  0
    9.8620  -16.6276   19.2925 C   0  0  2  0  0  0  0  0  0  0  0  0
   10.3557  -15.6269   18.3559 N   0  0  0  0  0  0  0  0  0  0  0  0
    9.9025  -16.1234   20.6848 C   0  0  0  0  0  0  0  0  0  0  0  0
   10.9667  -15.6828   21.2055 O   0  0  0  0  0  0  0  0  0  0  0  0
    8.7397  -16.1266   21.4588 N   0  0  0  0  0  0  0  0  0  0  0  0
    8.7355  -15.6378   22.8676 C   0  0  1  0  0  0  0  0  0  0  0  0
    7.3274  -15.2962   23.1443 C   0  0  0  0  0  0  0  0  0  0  0  0
    6.9382  -15.0047   24.5266 C   0  0  0  0  0  0  0  0  0  0  0  0
    6.3716  -15.7697   25.5199 C   0  0  0  0  0  0  0  0  0  0  0  0
    6.2001  -15.0472   26.6329 N   0  0  0  0  0  0  0  0  0  0  0  0
    6.6471  -13.8043   26.3944 C   0  0  0  0  0  0  0  0  0  0  0  0
    6.7172  -12.6691   27.2034 C   0  0  0  0  0  0  0  0  0  0  0  0
    7.2381  -11.4889   26.7411 C   0  0  0  0  0  0  0  0  0  0  0  0
    7.7082  -11.4206   25.4339 C   0  0  0  0  0  0  0  0  0  0  0  0
    7.6290  -12.5589   24.6478 C   0  0  0  0  0  0  0  0  0  0  0  0
    7.1115  -13.7431   25.0969 C   0  0  0  0  0  0  0  0  0  0  0  0
    9.4421  -16.5695   23.7022 C   0  0  0  0  0  0  0  0  0  0  0  0
    8.8463  -17.6487   24.0588 O   0  0  0  0  0  0  0  0  0  0  0  0
   10.7536  -16.4845   24.2083 N   0  0  0  0  0  0  0  0  0  0  0  0
   11.2846  -17.3041   25.2621 C   0  0  1  0  0  0  0  0  0  0  0  0
   12.6536  -16.9644   25.6936 C   0  0  0  0  0  0  0  0  0  0  0  0
   13.6136  -16.9113   24.5770 C   0  0  0  0  0  0  0  0  0  0  0  0
   13.3112  -17.1719   23.2214 C   0  0  0  0  0  0  0  0  0  0  0  0
   14.4111  -17.0355   22.4721 N   0  0  0  0  0  0  0  0  0  0  0  0
   15.4092  -16.6989   23.2819 C   0  0  0  0  0  0  0  0  0  0  0  0
   14.9211  -16.6286   24.5305 N   0  0  0  0  0  0  0  0  0  0  0  0
   10.3723  -17.1542   26.4029 C   0  0  0  0  0  0  0  0  0  0  0  0
   10.6347  -17.8566   27.5777 O   0  0  0  0  0  0  0  0  0  0  0  0
    9.3482  -16.4430   26.4353 O   0  0  0  0  0  0  0  0  0  0  0  0
  2  1  1  1
  3  2  1  0
  4  5  1  6
  4  2  1  0
  6  4  1  0
  7  6  2  0
  8  6  1  0
  9  8  1  0
  9 10  1  1
 11 10  1  0
 11 12  2  0
 13 12  1  0
 14 13  1  0
 15 14  2  0
 16 15  1  0
 17 16  2  0
 17 18  1  0
 18 19  2  0
 19 14  1  0
 19 11  1  0
 20  9  1  0
 20 21  2  0
 22 20  1  0
 23 22  1  0
 23 24  1  1
 25 24  1  0
 25 26  2  0
 27 26  1  0
 28 27  1  0
 29 28  2  0
 29 25  1  0
 30 23  1  0
 31 30  1  0
 32 30  2  0
M  END
$$$$
