AEF.pdb
     RDKit          3D

 26 26  0  0  1  0  0  0  0  0999 V2000
   28.2445  -17.2907  -16.1592 C   0  0  0  0  0  0  0  0  0  0  0  0
   27.8402  -18.5866  -16.8210 C   0  0  2  0  0  0  0  0  0  0  0  0
   27.1634  -18.3470  -18.0750 N   0  0  0  0  0  0  0  0  0  0  0  0
   26.9018  -19.3113  -15.9248 C   0  0  0  0  0  0  0  0  0  0  0  0
   25.9633  -18.6897  -15.3638 O   0  0  0  0  0  0  0  0  0  0  0  0
   27.0459  -20.7188  -15.6839 N   0  0  0  0  0  0  0  0  0  0  0  0
   26.0869  -21.3484  -14.8024 C   0  0  1  0  0  0  0  0  0  0  0  0
   25.7004  -22.7360  -15.2559 C   0  0  0  0  0  0  0  0  0  0  0  0
   24.7018  -23.3696  -14.3146 C   0  0  0  0  0  0  0  0  0  0  0  0
   24.4200  -24.7626  -14.7284 C   0  0  0  0  0  0  0  0  0  0  0  0
   24.9985  -25.3445  -15.6867 O   0  0  0  0  0  0  0  0  0  0  0  0
   26.5968  -21.3688  -13.3961 C   0  0  0  0  0  0  0  0  0  0  0  0
   27.7560  -21.8192  -13.1935 O   0  0  0  0  0  0  0  0  0  0  0  0
   23.4668  -25.4906  -14.0354 O   0  0  0  0  0  0  0  0  0  0  0  0
   25.7764  -20.8882  -12.3431 N   0  0  0  0  0  0  0  0  0  0  0  0
   26.1897  -21.0271  -10.9431 C   0  0  1  0  0  0  0  0  0  0  0  0
   27.2615  -20.0090  -10.7156 C   0  0  0  0  0  0  0  0  0  0  0  0
   27.7674  -19.9093   -9.3505 C   0  0  0  0  0  0  0  0  0  0  0  0
   28.8040  -20.7154   -8.8981 C   0  0  0  0  0  0  0  0  0  0  0  0
   29.2359  -20.5760   -7.5983 C   0  0  0  0  0  0  0  0  0  0  0  0
   28.6683  -19.6606   -6.7378 C   0  0  0  0  0  0  0  0  0  0  0  0
   27.6247  -18.8507   -7.1975 C   0  0  0  0  0  0  0  0  0  0  0  0
   27.1845  -18.9819   -8.4964 C   0  0  0  0  0  0  0  0  0  0  0  0
   25.0031  -20.8478  -10.1078 C   0  0  0  0  0  0  0  0  0  0  0  0
   24.9965  -21.3576   -8.8222 O   0  0  0  0  0  0  0  0  0  0  0  0
   23.9883  -20.2464  -10.5179 O   0  0  0  0  0  0  0  0  0  0  0  0
  2  4  1  0
  2  1  1  1
  3  2  1  0
  4  5  2  0
  6  7  1  0
  6  4  1  0
  7  8  1  6
  8  9  1  0
  9 10  1  0
 10 14  1  0
 11 10  2  0
 12 13  2  0
 12  7  1  0
 15 12  1  0
 16 24  1  0
 16 15  1  0
 16 17  1  1
 18 23  2  0
 18 17  1  0
 19 18  1  0
 20 21  1  0
 20 19  2  0
 21 22  2  0
 22 23  1  0
 24 25  1  0
 26 24  2  0
M  END
$$$$
