AEF.pdb
     RDKit          3D

 26 26  0  0  1  0  0  0  0  0999 V2000
   16.9591   -3.8664  -16.4123 C   0  0  0  0  0  0  0  0  0  0  0  0
   17.4362   -5.2951  -16.5233 C   0  0  2  0  0  0  0  0  0  0  0  0
   17.1194   -5.8554  -17.8170 N   0  0  0  0  0  0  0  0  0  0  0  0
   16.7494   -6.1124  -15.4892 C   0  0  0  0  0  0  0  0  0  0  0  0
   15.6402   -5.7392  -15.0285 O   0  0  0  0  0  0  0  0  0  0  0  0
   17.3313   -7.3303  -15.0010 N   0  0  0  0  0  0  0  0  0  0  0  0
   16.5543   -8.1157  -14.0670 C   0  0  1  0  0  0  0  0  0  0  0  0
   16.9870   -9.5617  -14.0188 C   0  0  0  0  0  0  0  0  0  0  0  0
   16.7214  -10.2645  -15.3303 C   0  0  0  0  0  0  0  0  0  0  0  0
   17.3476  -11.6058  -15.3288 C   0  0  0  0  0  0  0  0  0  0  0  0
   18.4424  -11.8725  -14.7615 O   0  0  0  0  0  0  0  0  0  0  0  0
   16.5902   -7.5016  -12.7033 C   0  0  0  0  0  0  0  0  0  0  0  0
   17.6054   -6.8266  -12.3849 O   0  0  0  0  0  0  0  0  0  0  0  0
   16.7103  -12.6467  -15.9839 O   0  0  0  0  0  0  0  0  0  0  0  0
   15.4984   -7.6911  -11.8172 N   0  0  0  0  0  0  0  0  0  0  0  0
   15.5336   -7.1539  -10.4534 C   0  0  1  0  0  0  0  0  0  0  0  0
   14.1458   -6.6883  -10.1463 C   0  0  0  0  0  0  0  0  0  0  0  0
   13.8995   -6.2832   -8.7662 C   0  0  0  0  0  0  0  0  0  0  0  0
   14.4303   -5.1097   -8.2466 C   0  0  0  0  0  0  0  0  0  0  0  0
   14.1641   -4.7827   -6.9361 C   0  0  0  0  0  0  0  0  0  0  0  0
   13.3874   -5.5867   -6.1294 C   0  0  0  0  0  0  0  0  0  0  0  0
   12.8546   -6.7677   -6.6567 C   0  0  0  0  0  0  0  0  0  0  0  0
   13.1147   -7.1047   -7.9669 C   0  0  0  0  0  0  0  0  0  0  0  0
   16.0223   -8.2116   -9.5699 C   0  0  0  0  0  0  0  0  0  0  0  0
   16.7149   -7.8696   -8.4227 O   0  0  0  0  0  0  0  0  0  0  0  0
   15.8349   -9.4212   -9.8171 O   0  0  0  0  0  0  0  0  0  0  0  0
  2  4  1  0
  2  1  1  6
  3  2  1  0
  4  5  2  0
  6  7  1  0
  6  4  1  0
  7  8  1  1
  8  9  1  0
  9 10  1  0
 10 14  1  0
 11 10  2  0
 12 13  2  0
 12  7  1  0
 15 12  1  0
 16 24  1  0
 16 15  1  0
 16 17  1  1
 18 23  2  0
 18 17  1  0
 19 18  1  0
 20 21  1  0
 20 19  2  0
 21 22  2  0
 22 23  1  0
 24 25  1  0
 26 24  2  0
M  END
$$$$
