AEF.pdb
     RDKit          3D

 26 26  0  0  1  0  0  0  0  0999 V2000
   28.9224  -18.6978  -14.4301 C   0  0  0  0  0  0  0  0  0  0  0  0
   27.6397  -19.4150  -14.7783 C   0  0  2  0  0  0  0  0  0  0  0  0
   26.9123  -18.7170  -15.8135 N   0  0  0  0  0  0  0  0  0  0  0  0
   26.7769  -19.4702  -13.5694 C   0  0  0  0  0  0  0  0  0  0  0  0
   26.2874  -18.4116  -13.0986 O   0  0  0  0  0  0  0  0  0  0  0  0
   26.4881  -20.7183  -12.9220 N   0  0  0  0  0  0  0  0  0  0  0  0
   25.6381  -20.6841  -11.7518 C   0  0  1  0  0  0  0  0  0  0  0  0
   24.4155  -21.5591  -11.8926 C   0  0  0  0  0  0  0  0  0  0  0  0
   23.4246  -20.9747  -12.8730 C   0  0  0  0  0  0  0  0  0  0  0  0
   22.4905  -20.0627  -12.1753 C   0  0  0  0  0  0  0  0  0  0  0  0
   21.9478  -20.3220  -11.0664 O   0  0  0  0  0  0  0  0  0  0  0  0
   26.4145  -21.0445  -10.5249 C   0  0  0  0  0  0  0  0  0  0  0  0
   27.1685  -22.0528  -10.5768 O   0  0  0  0  0  0  0  0  0  0  0  0
   22.1790  -18.8447  -12.7569 O   0  0  0  0  0  0  0  0  0  0  0  0
   26.2852  -20.2553   -9.3531 N   0  0  0  0  0  0  0  0  0  0  0  0
   26.9735  -20.6291   -8.1136 C   0  0  1  0  0  0  0  0  0  0  0  0
   27.6355  -19.3875   -7.6064 C   0  0  0  0  0  0  0  0  0  0  0  0
   28.2253  -19.4774   -6.2747 C   0  0  0  0  0  0  0  0  0  0  0  0
   29.3005  -20.3159   -6.0102 C   0  0  0  0  0  0  0  0  0  0  0  0
   29.8118  -20.3586   -4.7327 C   0  0  0  0  0  0  0  0  0  0  0  0
   29.2862  -19.5938   -3.7132 C   0  0  0  0  0  0  0  0  0  0  0  0
   28.2034  -18.7507   -3.9839 C   0  0  0  0  0  0  0  0  0  0  0  0
   27.6839  -18.7001   -5.2588 C   0  0  0  0  0  0  0  0  0  0  0  0
   25.9783  -21.1945   -7.2037 C   0  0  0  0  0  0  0  0  0  0  0  0
   26.3988  -21.9560   -6.1285 O   0  0  0  0  0  0  0  0  0  0  0  0
   24.7534  -21.0125   -7.3651 O   0  0  0  0  0  0  0  0  0  0  0  0
  2  4  1  0
  2  1  1  1
  3  2  1  0
  4  5  2  0
  6  7  1  0
  6  4  1  0
  7  8  1  6
  8  9  1  0
  9 10  1  0
 10 14  1  0
 11 10  2  0
 12 13  2  0
 12  7  1  0
 15 12  1  0
 16 24  1  0
 16 15  1  0
 16 17  1  1
 18 23  2  0
 18 17  1  0
 19 18  1  0
 20 21  1  0
 20 19  2  0
 21 22  2  0
 22 23  1  0
 24 25  1  0
 26 24  2  0
M  END
$$$$
