AEF.pdb
     RDKit          3D

 26 26  0  0  1  0  0  0  0  0999 V2000
   19.1296    3.4832  -10.2646 C   0  0  0  0  0  0  0  0  0  0  0  0
   20.2477    3.9201  -11.1812 C   0  0  2  0  0  0  0  0  0  0  0  0
   20.0687    3.3943  -12.5152 N   0  0  0  0  0  0  0  0  0  0  0  0
   21.5346    3.3982  -10.6516 C   0  0  0  0  0  0  0  0  0  0  0  0
   21.8344    2.1872  -10.8118 O   0  0  0  0  0  0  0  0  0  0  0  0
   22.4507    4.2554   -9.9547 N   0  0  0  0  0  0  0  0  0  0  0  0
   23.7600    3.7240   -9.6440 C   0  0  1  0  0  0  0  0  0  0  0  0
   24.8778    4.5209  -10.2731 C   0  0  0  0  0  0  0  0  0  0  0  0
   26.2306    3.9267   -9.9544 C   0  0  0  0  0  0  0  0  0  0  0  0
   27.3076    4.7806  -10.5041 C   0  0  0  0  0  0  0  0  0  0  0  0
   28.1089    5.4490   -9.7951 O   0  0  0  0  0  0  0  0  0  0  0  0
   23.9482    3.6162   -8.1638 C   0  0  0  0  0  0  0  0  0  0  0  0
   23.5560    4.5749   -7.4462 O   0  0  0  0  0  0  0  0  0  0  0  0
   27.4637    4.8658  -11.8778 O   0  0  0  0  0  0  0  0  0  0  0  0
   24.5531    2.4567   -7.6138 N   0  0  0  0  0  0  0  0  0  0  0  0
   24.7928    2.3444   -6.1717 C   0  0  1  0  0  0  0  0  0  0  0  0
   24.8357    0.8816   -5.8627 C   0  0  0  0  0  0  0  0  0  0  0  0
   26.0494    0.1796   -6.2668 C   0  0  0  0  0  0  0  0  0  0  0  0
   26.1975   -0.3403   -7.5463 C   0  0  0  0  0  0  0  0  0  0  0  0
   27.3655   -0.9947   -7.8670 C   0  0  0  0  0  0  0  0  0  0  0  0
   28.3878   -1.1466   -6.9547 C   0  0  0  0  0  0  0  0  0  0  0  0
   28.2347   -0.6215   -5.6673 C   0  0  0  0  0  0  0  0  0  0  0  0
   27.0700    0.0352   -5.3356 C   0  0  0  0  0  0  0  0  0  0  0  0
   26.0314    3.0597   -5.8683 C   0  0  0  0  0  0  0  0  0  0  0  0
   26.2914    3.4411   -4.5646 O   0  0  0  0  0  0  0  0  0  0  0  0
   26.8684    3.3402   -6.7516 O   0  0  0  0  0  0  0  0  0  0  0  0
  2  4  1  0
  2  1  1  1
  3  2  1  0
  4  5  2  0
  6  7  1  0
  6  4  1  0
  7  8  1  1
  8  9  1  0
  9 10  1  0
 10 14  1  0
 11 10  2  0
 12 13  2  0
 12  7  1  0
 15 12  1  0
 16 24  1  0
 16 15  1  0
 16 17  1  6
 18 23  2  0
 18 17  1  0
 19 18  1  0
 20 21  1  0
 20 19  2  0
 21 22  2  0
 22 23  1  0
 24 25  1  0
 26 24  2  0
M  END
$$$$
