AEF.pdb
     RDKit          3D

 26 26  0  0  1  0  0  0  0  0999 V2000
   20.9346  -12.2185  -15.6480 C   0  0  0  0  0  0  0  0  0  0  0  0
   20.8411  -11.9717  -17.1350 C   0  0  2  0  0  0  0  0  0  0  0  0
   21.8140  -12.7568  -17.8597 N   0  0  0  0  0  0  0  0  0  0  0  0
   21.1195  -10.5365  -17.4022 C   0  0  0  0  0  0  0  0  0  0  0  0
   22.3074  -10.1358  -17.5042 O   0  0  0  0  0  0  0  0  0  0  0  0
   20.0509   -9.5893  -17.5474 N   0  0  0  0  0  0  0  0  0  0  0  0
   20.4030   -8.2336  -17.9094 C   0  0  1  0  0  0  0  0  0  0  0  0
   19.4052   -7.6028  -18.8511 C   0  0  0  0  0  0  0  0  0  0  0  0
   19.8943   -6.2686  -19.3659 C   0  0  0  0  0  0  0  0  0  0  0  0
   18.8892   -5.6694  -20.2725 C   0  0  0  0  0  0  0  0  0  0  0  0
   18.8963   -5.8114  -21.5260 O   0  0  0  0  0  0  0  0  0  0  0  0
   20.5891   -7.3922  -16.6865 C   0  0  0  0  0  0  0  0  0  0  0  0
   19.8002   -7.5704  -15.7201 O   0  0  0  0  0  0  0  0  0  0  0  0
   17.8694   -4.9023  -19.7334 O   0  0  0  0  0  0  0  0  0  0  0  0
   21.6317   -6.4309  -16.6455 N   0  0  0  0  0  0  0  0  0  0  0  0
   21.8451   -5.6018  -15.4552 C   0  0  1  0  0  0  0  0  0  0  0  0
   23.2468   -5.8630  -15.0034 C   0  0  0  0  0  0  0  0  0  0  0  0
   23.5646   -7.2499  -14.6792 C   0  0  0  0  0  0  0  0  0  0  0  0
   24.5504   -7.9494  -15.3632 C   0  0  0  0  0  0  0  0  0  0  0  0
   24.8027   -9.2566  -15.0126 C   0  0  0  0  0  0  0  0  0  0  0  0
   24.1048   -9.8866  -14.0043 C   0  0  0  0  0  0  0  0  0  0  0  0
   23.1129   -9.1784  -13.3180 C   0  0  0  0  0  0  0  0  0  0  0  0
   22.8522   -7.8698  -13.6606 C   0  0  0  0  0  0  0  0  0  0  0  0
   21.5823   -4.2122  -15.8266 C   0  0  0  0  0  0  0  0  0  0  0  0
   21.6151   -3.2325  -14.8510 O   0  0  0  0  0  0  0  0  0  0  0  0
   21.3272   -3.8771  -17.0023 O   0  0  0  0  0  0  0  0  0  0  0  0
  2  4  1  0
  2  1  1  1
  3  2  1  0
  4  5  2  0
  6  7  1  0
  6  4  1  0
  7  8  1  6
  8  9  1  0
  9 10  1  0
 10 14  1  0
 11 10  2  0
 12 13  2  0
 12  7  1  0
 15 12  1  0
 16 24  1  0
 16 15  1  0
 16 17  1  6
 18 23  2  0
 18 17  1  0
 19 18  1  0
 20 21  1  0
 20 19  2  0
 21 22  2  0
 22 23  1  0
 24 25  1  0
 26 24  2  0
M  END
$$$$
