AEF.pdb
     RDKit          3D

 26 26  0  0  1  0  0  0  0  0999 V2000
   29.8192  -34.5748   -5.2902 C   0  0  0  0  0  0  0  0  0  0  0  0
   29.3900  -35.9921   -4.9936 C   0  0  2  0  0  0  0  0  0  0  0  0
   28.7388  -36.5932   -6.1349 N   0  0  0  0  0  0  0  0  0  0  0  0
   28.4188  -35.9743   -3.8686 C   0  0  0  0  0  0  0  0  0  0  0  0
   27.2068  -35.7208   -4.0894 O   0  0  0  0  0  0  0  0  0  0  0  0
   28.8394  -36.2430   -2.5229 N   0  0  0  0  0  0  0  0  0  0  0  0
   27.8189  -36.2832   -1.4983 C   0  0  1  0  0  0  0  0  0  0  0  0
   28.2545  -37.0461   -0.2700 C   0  0  0  0  0  0  0  0  0  0  0  0
   28.3778  -38.5262   -0.5505 C   0  0  0  0  0  0  0  0  0  0  0  0
   27.1708  -39.2398   -0.0761 C   0  0  0  0  0  0  0  0  0  0  0  0
   26.2679  -38.7086    0.6268 O   0  0  0  0  0  0  0  0  0  0  0  0
   27.3768  -34.8999   -1.1391 C   0  0  0  0  0  0  0  0  0  0  0  0
   28.1903  -33.9541   -1.3164 O   0  0  0  0  0  0  0  0  0  0  0  0
   27.0016  -40.5729   -0.4126 O   0  0  0  0  0  0  0  0  0  0  0  0
   26.0744  -34.6907   -0.6168 N   0  0  0  0  0  0  0  0  0  0  0  0
   25.5685  -33.3357   -0.3756 C   0  0  1  0  0  0  0  0  0  0  0  0
   25.5369  -32.6530   -1.7060 C   0  0  0  0  0  0  0  0  0  0  0  0
   24.8201  -31.3829   -1.7545 C   0  0  0  0  0  0  0  0  0  0  0  0
   25.2122  -30.2962   -0.9835 C   0  0  0  0  0  0  0  0  0  0  0  0
   24.4939  -29.1250   -1.0712 C   0  0  0  0  0  0  0  0  0  0  0  0
   23.3999  -29.0035   -1.9012 C   0  0  0  0  0  0  0  0  0  0  0  0
   23.0085  -30.1003   -2.6760 C   0  0  0  0  0  0  0  0  0  0  0  0
   23.7201  -31.2772   -2.5960 C   0  0  0  0  0  0  0  0  0  0  0  0
   24.2620  -33.4557    0.2698 C   0  0  0  0  0  0  0  0  0  0  0  0
   23.9419  -32.6071    1.3139 O   0  0  0  0  0  0  0  0  0  0  0  0
   23.4195  -34.3038   -0.0913 O   0  0  0  0  0  0  0  0  0  0  0  0
  2  4  1  0
  2  1  1  6
  3  2  1  0
  4  5  2  0
  6  7  1  0
  6  4  1  0
  7  8  1  1
  8  9  1  0
  9 10  1  0
 10 14  1  0
 11 10  2  0
 12 13  2  0
 12  7  1  0
 15 12  1  0
 16 24  1  0
 16 15  1  0
 16 17  1  6
 18 23  2  0
 18 17  1  0
 19 18  1  0
 20 21  1  0
 20 19  2  0
 21 22  2  0
 22 23  1  0
 24 25  1  0
 26 24  2  0
M  END
$$$$
