AEF.pdb
     RDKit          3D

 26 26  0  0  1  0  0  0  0  0999 V2000
   32.2879  -21.5781  -12.7567 C   0  0  0  0  0  0  0  0  0  0  0  0
   31.0219  -22.3180  -12.3948 C   0  0  2  0  0  0  0  0  0  0  0  0
   30.4742  -23.0116  -13.5380 N   0  0  0  0  0  0  0  0  0  0  0  0
   30.0093  -21.3363  -11.9259 C   0  0  0  0  0  0  0  0  0  0  0  0
   30.3053  -20.5112  -11.0240 O   0  0  0  0  0  0  0  0  0  0  0  0
   28.6881  -21.3104  -12.4861 N   0  0  0  0  0  0  0  0  0  0  0  0
   27.7586  -20.3329  -11.9632 C   0  0  1  0  0  0  0  0  0  0  0  0
   26.7100  -19.9267  -12.9711 C   0  0  0  0  0  0  0  0  0  0  0  0
   27.0884  -18.6468  -13.6805 C   0  0  0  0  0  0  0  0  0  0  0  0
   26.7619  -18.7435  -15.1211 C   0  0  0  0  0  0  0  0  0  0  0  0
   27.0296  -17.8465  -15.9667 O   0  0  0  0  0  0  0  0  0  0  0  0
   27.1239  -20.8296  -10.7028 C   0  0  0  0  0  0  0  0  0  0  0  0
   26.8780  -22.0620  -10.6101 O   0  0  0  0  0  0  0  0  0  0  0  0
   26.1238  -19.8794  -15.5915 O   0  0  0  0  0  0  0  0  0  0  0  0
   26.8198  -19.9163   -9.6606 N   0  0  0  0  0  0  0  0  0  0  0  0
   26.3706  -20.3930   -8.3488 C   0  0  1  0  0  0  0  0  0  0  0  0
   26.6606  -19.2936   -7.3772 C   0  0  0  0  0  0  0  0  0  0  0  0
   27.5891  -19.6220   -6.3005 C   0  0  0  0  0  0  0  0  0  0  0  0
   27.2543  -19.4283   -4.9665 C   0  0  0  0  0  0  0  0  0  0  0  0
   28.1742  -19.7553   -3.9959 C   0  0  0  0  0  0  0  0  0  0  0  0
   29.4142  -20.2680   -4.3125 C   0  0  0  0  0  0  0  0  0  0  0  0
   29.7473  -20.4616   -5.6572 C   0  0  0  0  0  0  0  0  0  0  0  0
   28.8343  -20.1378   -6.6367 C   0  0  0  0  0  0  0  0  0  0  0  0
   24.9542  -20.7384   -8.4608 C   0  0  0  0  0  0  0  0  0  0  0  0
   24.3956  -21.6118   -7.5454 O   0  0  0  0  0  0  0  0  0  0  0  0
   24.2265  -20.2692   -9.3607 O   0  0  0  0  0  0  0  0  0  0  0  0
  2  4  1  0
  2  1  1  6
  3  2  1  0
  4  5  2  0
  6  7  1  0
  6  4  1  0
  7  8  1  6
  8  9  1  0
  9 10  1  0
 10 14  1  0
 11 10  2  0
 12 13  2  0
 12  7  1  0
 15 12  1  0
 16 24  1  0
 16 15  1  0
 16 17  1  1
 18 23  2  0
 18 17  1  0
 19 18  1  0
 20 21  1  0
 20 19  2  0
 21 22  2  0
 22 23  1  0
 24 25  1  0
 26 24  2  0
M  END
$$$$
