AEF.pdb
     RDKit          3D

 26 26  0  0  1  0  0  0  0  0999 V2000
   22.3410  -13.3751  -17.7368 C   0  0  0  0  0  0  0  0  0  0  0  0
   20.8958  -12.9399  -17.7899 C   0  0  2  0  0  0  0  0  0  0  0  0
   20.2703  -13.3464  -19.0275 N   0  0  0  0  0  0  0  0  0  0  0  0
   20.8377  -11.4568  -17.7125 C   0  0  0  0  0  0  0  0  0  0  0  0
   21.5692  -10.7599  -18.4616 O   0  0  0  0  0  0  0  0  0  0  0  0
   19.9559  -10.7973  -16.7918 N   0  0  0  0  0  0  0  0  0  0  0  0
   19.9724   -9.3509  -16.7690 C   0  0  1  0  0  0  0  0  0  0  0  0
   18.6143   -8.7561  -16.4821 C   0  0  0  0  0  0  0  0  0  0  0  0
   18.6448   -7.2463  -16.5465 C   0  0  0  0  0  0  0  0  0  0  0  0
   17.3089   -6.6929  -16.2294 C   0  0  0  0  0  0  0  0  0  0  0  0
   17.1180   -5.6974  -15.4784 O   0  0  0  0  0  0  0  0  0  0  0  0
   20.9915   -8.8500  -15.7951 C   0  0  0  0  0  0  0  0  0  0  0  0
   21.0117   -9.3622  -14.6440 O   0  0  0  0  0  0  0  0  0  0  0  0
   16.1859   -7.2884  -16.7800 O   0  0  0  0  0  0  0  0  0  0  0  0
   21.8950   -7.8280  -16.1852 N   0  0  0  0  0  0  0  0  0  0  0  0
   22.8956   -7.3093  -15.2473 C   0  0  1  0  0  0  0  0  0  0  0  0
   24.2253   -7.4800  -15.9104 C   0  0  0  0  0  0  0  0  0  0  0  0
   24.8475   -8.7918  -15.7642 C   0  0  0  0  0  0  0  0  0  0  0  0
   24.0920   -9.9571  -15.7428 C   0  0  0  0  0  0  0  0  0  0  0  0
   24.7369  -11.1650  -15.5998 C   0  0  0  0  0  0  0  0  0  0  0  0
   26.1076  -11.2475  -15.4777 C   0  0  0  0  0  0  0  0  0  0  0  0
   26.8647  -10.0715  -15.4999 C   0  0  0  0  0  0  0  0  0  0  0  0
   26.2297   -8.8573  -15.6425 C   0  0  0  0  0  0  0  0  0  0  0  0
   22.5476   -5.9215  -14.9462 C   0  0  0  0  0  0  0  0  0  0  0  0
   22.9050   -5.3837  -13.7232 O   0  0  0  0  0  0  0  0  0  0  0  0
   21.9345   -5.2000  -15.7605 O   0  0  0  0  0  0  0  0  0  0  0  0
  2  4  1  0
  2  1  1  6
  3  2  1  0
  4  5  2  0
  6  7  1  0
  6  4  1  0
  7  8  1  1
  8  9  1  0
  9 10  1  0
 10 14  1  0
 11 10  2  0
 12 13  2  0
 12  7  1  0
 15 12  1  0
 16 24  1  0
 16 15  1  0
 16 17  1  6
 18 23  2  0
 18 17  1  0
 19 18  1  0
 20 21  1  0
 20 19  2  0
 21 22  2  0
 22 23  1  0
 24 25  1  0
 26 24  2  0
M  END
$$$$
