AEF.pdb
     RDKit          3D

 26 26  0  0  1  0  0  0  0  0999 V2000
   29.1972  -18.7739  -14.1346 C   0  0  0  0  0  0  0  0  0  0  0  0
   27.7912  -19.1277  -14.5577 C   0  0  2  0  0  0  0  0  0  0  0  0
   27.2191  -18.0965  -15.3928 N   0  0  0  0  0  0  0  0  0  0  0  0
   26.9429  -19.2579  -13.3443 C   0  0  0  0  0  0  0  0  0  0  0  0
   26.4235  -18.2351  -12.8286 O   0  0  0  0  0  0  0  0  0  0  0  0
   26.7020  -20.5388  -12.7432 N   0  0  0  0  0  0  0  0  0  0  0  0
   25.8424  -20.5812  -11.5803 C   0  0  1  0  0  0  0  0  0  0  0  0
   24.6931  -21.5479  -11.7388 C   0  0  0  0  0  0  0  0  0  0  0  0
   23.4351  -21.0270  -11.0825 C   0  0  0  0  0  0  0  0  0  0  0  0
   22.5278  -20.4499  -12.0998 C   0  0  0  0  0  0  0  0  0  0  0  0
   21.8931  -19.3703  -11.9477 O   0  0  0  0  0  0  0  0  0  0  0  0
   26.6345  -20.8903  -10.3494 C   0  0  0  0  0  0  0  0  0  0  0  0
   27.4591  -21.8417  -10.3999 O   0  0  0  0  0  0  0  0  0  0  0  0
   22.3497  -21.1190  -13.2996 O   0  0  0  0  0  0  0  0  0  0  0  0
   26.4411  -20.1173   -9.1755 N   0  0  0  0  0  0  0  0  0  0  0  0
   27.1180  -20.4681   -7.9230 C   0  0  1  0  0  0  0  0  0  0  0  0
   27.6748  -19.1940   -7.3720 C   0  0  0  0  0  0  0  0  0  0  0  0
   28.3014  -19.2873   -6.0575 C   0  0  0  0  0  0  0  0  0  0  0  0
   29.4859  -19.9863   -5.8641 C   0  0  0  0  0  0  0  0  0  0  0  0
   30.0271  -20.0403   -4.5993 C   0  0  0  0  0  0  0  0  0  0  0  0
   29.4260  -19.4211   -3.5242 C   0  0  0  0  0  0  0  0  0  0  0  0
   28.2333  -18.7181   -3.7235 C   0  0  0  0  0  0  0  0  0  0  0  0
   27.6829  -18.6576   -4.9849 C   0  0  0  0  0  0  0  0  0  0  0  0
   26.1395  -21.1216   -7.0551 C   0  0  0  0  0  0  0  0  0  0  0  0
   26.5811  -21.9557   -6.0442 O   0  0  0  0  0  0  0  0  0  0  0  0
   24.9103  -20.9517   -7.1960 O   0  0  0  0  0  0  0  0  0  0  0  0
  2  4  1  0
  2  1  1  1
  3  2  1  0
  4  5  2  0
  6  7  1  0
  6  4  1  0
  7  8  1  6
  8  9  1  0
  9 10  1  0
 10 14  1  0
 11 10  2  0
 12 13  2  0
 12  7  1  0
 15 12  1  0
 16 24  1  0
 16 15  1  0
 16 17  1  1
 18 23  2  0
 18 17  1  0
 19 18  1  0
 20 21  1  0
 20 19  2  0
 21 22  2  0
 22 23  1  0
 24 25  1  0
 26 24  2  0
M  END
$$$$
