AEF.pdb
     RDKit          3D

 26 26  0  0  1  0  0  0  0  0999 V2000
   15.3283   -9.1057  -17.4665 C   0  0  0  0  0  0  0  0  0  0  0  0
   15.6030   -8.1240  -18.5809 C   0  0  2  0  0  0  0  0  0  0  0  0
   16.0152   -8.8024  -19.7884 N   0  0  0  0  0  0  0  0  0  0  0  0
   16.7065   -7.2201  -18.1635 C   0  0  0  0  0  0  0  0  0  0  0  0
   17.8348   -7.3120  -18.7117 O   0  0  0  0  0  0  0  0  0  0  0  0
   16.5094   -6.2353  -17.1381 N   0  0  0  0  0  0  0  0  0  0  0  0
   17.6219   -5.3659  -16.8226 C   0  0  1  0  0  0  0  0  0  0  0  0
   17.2118   -3.9188  -16.6878 C   0  0  0  0  0  0  0  0  0  0  0  0
   18.3956   -3.0334  -16.3725 C   0  0  0  0  0  0  0  0  0  0  0  0
   18.0806   -2.1435  -15.2323 C   0  0  0  0  0  0  0  0  0  0  0  0
   18.5054   -2.3241  -14.0583 O   0  0  0  0  0  0  0  0  0  0  0  0
   18.3280   -5.8380  -15.5912 C   0  0  0  0  0  0  0  0  0  0  0  0
   17.6717   -6.5158  -14.7559 O   0  0  0  0  0  0  0  0  0  0  0  0
   17.2719   -1.0390  -15.4442 O   0  0  0  0  0  0  0  0  0  0  0  0
   19.6963   -5.5165  -15.3976 N   0  0  0  0  0  0  0  0  0  0  0  0
   20.4801   -6.1653  -14.3419 C   0  0  1  0  0  0  0  0  0  0  0  0
   20.4849   -7.6275  -14.6566 C   0  0  0  0  0  0  0  0  0  0  0  0
   21.4273   -8.4409  -13.8953 C   0  0  0  0  0  0  0  0  0  0  0  0
   22.6496   -8.8290  -14.4286 C   0  0  0  0  0  0  0  0  0  0  0  0
   23.4953   -9.5984  -13.6617 C   0  0  0  0  0  0  0  0  0  0  0  0
   23.1616   -9.9921  -12.3834 C   0  0  0  0  0  0  0  0  0  0  0  0
   21.9296   -9.5990  -11.8502 C   0  0  0  0  0  0  0  0  0  0  0  0
   21.0756   -8.8289  -12.6088 C   0  0  0  0  0  0  0  0  0  0  0  0
   21.8059   -5.5489  -14.3280 C   0  0  0  0  0  0  0  0  0  0  0  0
   22.2414   -4.8539  -15.4416 O   0  0  0  0  0  0  0  0  0  0  0  0
   22.5640   -5.6290  -13.3388 O   0  0  0  0  0  0  0  0  0  0  0  0
  2  4  1  0
  2  1  1  1
  3  2  1  0
  4  5  2  0
  6  7  1  0
  6  4  1  0
  7  8  1  1
  8  9  1  0
  9 10  1  0
 10 14  1  0
 11 10  2  0
 12 13  2  0
 12  7  1  0
 15 12  1  0
 16 24  1  0
 16 15  1  0
 16 17  1  6
 18 23  2  0
 18 17  1  0
 19 18  1  0
 20 21  1  0
 20 19  2  0
 21 22  2  0
 22 23  1  0
 24 25  1  0
 26 24  2  0
M  END
$$$$
