AEF.pdb
     RDKit          3D

 26 26  0  0  1  0  0  0  0  0999 V2000
   16.3571  -13.2411  -18.6647 C   0  0  0  0  0  0  0  0  0  0  0  0
   16.7550  -12.9667  -17.2339 C   0  0  2  0  0  0  0  0  0  0  0  0
   15.6449  -13.1711  -16.3318 N   0  0  0  0  0  0  0  0  0  0  0  0
   17.1844  -11.5485  -17.1183 C   0  0  0  0  0  0  0  0  0  0  0  0
   18.0223  -11.0781  -17.9299 O   0  0  0  0  0  0  0  0  0  0  0  0
   16.6579  -10.6968  -16.0901 N   0  0  0  0  0  0  0  0  0  0  0  0
   17.1603   -9.3418  -16.0211 C   0  0  1  0  0  0  0  0  0  0  0  0
   16.1484   -8.3719  -15.4592 C   0  0  0  0  0  0  0  0  0  0  0  0
   14.9708   -8.1967  -16.3904 C   0  0  0  0  0  0  0  0  0  0  0  0
   13.9599   -9.2490  -16.1417 C   0  0  0  0  0  0  0  0  0  0  0  0
   13.5377   -9.5646  -14.9956 O   0  0  0  0  0  0  0  0  0  0  0  0
   18.4374   -9.2915  -15.2438 C   0  0  0  0  0  0  0  0  0  0  0  0
   18.4726   -9.8710  -14.1254 O   0  0  0  0  0  0  0  0  0  0  0  0
   13.4314   -9.9423  -17.2182 O   0  0  0  0  0  0  0  0  0  0  0  0
   19.5587   -8.6043  -15.7761 N   0  0  0  0  0  0  0  0  0  0  0  0
   20.8671   -8.6748  -15.1181 C   0  0  1  0  0  0  0  0  0  0  0  0
   21.7891   -9.3523  -16.0815 C   0  0  0  0  0  0  0  0  0  0  0  0
   23.1976   -9.3844  -15.7015 C   0  0  0  0  0  0  0  0  0  0  0  0
   24.0726   -8.3689  -16.0651 C   0  0  0  0  0  0  0  0  0  0  0  0
   25.3909   -8.4572  -15.6785 C   0  0  0  0  0  0  0  0  0  0  0  0
   25.8632   -9.5232  -14.9429 C   0  0  0  0  0  0  0  0  0  0  0  0
   24.9786  -10.5437  -14.5788 C   0  0  0  0  0  0  0  0  0  0  0  0
   23.6571  -10.4656  -14.9603 C   0  0  0  0  0  0  0  0  0  0  0  0
   21.2626   -7.3123  -14.7644 C   0  0  0  0  0  0  0  0  0  0  0  0
   22.0286   -7.1016  -13.6324 O   0  0  0  0  0  0  0  0  0  0  0  0
   20.9301   -6.3254  -15.4537 O   0  0  0  0  0  0  0  0  0  0  0  0
  2  4  1  0
  2  1  1  6
  3  2  1  0
  4  5  2  0
  6  7  1  0
  6  4  1  0
  7  8  1  1
  8  9  1  0
  9 10  1  0
 10 14  1  0
 11 10  2  0
 12 13  2  0
 12  7  1  0
 15 12  1  0
 16 24  1  0
 16 15  1  0
 16 17  1  6
 18 23  2  0
 18 17  1  0
 19 18  1  0
 20 21  1  0
 20 19  2  0
 21 22  2  0
 22 23  1  0
 24 25  1  0
 26 24  2  0
M  END
$$$$
