AEF.pdb
     RDKit          3D

 26 26  0  0  1  0  0  0  0  0999 V2000
   22.0970  -13.5243  -16.5228 C   0  0  0  0  0  0  0  0  0  0  0  0
   20.9590  -12.9048  -17.2988 C   0  0  2  0  0  0  0  0  0  0  0  0
   20.9488  -13.3609  -18.6699 N   0  0  0  0  0  0  0  0  0  0  0  0
   21.1315  -11.4286  -17.3081 C   0  0  0  0  0  0  0  0  0  0  0  0
   22.1534  -10.9193  -17.8355 O   0  0  0  0  0  0  0  0  0  0  0  0
   20.1468  -10.5643  -16.7221 N   0  0  0  0  0  0  0  0  0  0  0  0
   20.3203   -9.1384  -16.8948 C   0  0  1  0  0  0  0  0  0  0  0  0
   19.0107   -8.3866  -16.8938 C   0  0  0  0  0  0  0  0  0  0  0  0
   17.8296   -9.3292  -16.8587 C   0  0  0  0  0  0  0  0  0  0  0  0
   16.5781   -8.5740  -16.6247 C   0  0  0  0  0  0  0  0  0  0  0  0
   16.5322   -7.3291  -16.4261 O   0  0  0  0  0  0  0  0  0  0  0  0
   21.2513   -8.5909  -15.8598 C   0  0  0  0  0  0  0  0  0  0  0  0
   21.2712   -9.1461  -14.7288 O   0  0  0  0  0  0  0  0  0  0  0  0
   15.3721   -9.2554  -16.6194 O   0  0  0  0  0  0  0  0  0  0  0  0
   22.0753   -7.4788  -16.1720 N   0  0  0  0  0  0  0  0  0  0  0  0
   23.0161   -6.9383  -15.1858 C   0  0  1  0  0  0  0  0  0  0  0  0
   24.3786   -7.0583  -15.7910 C   0  0  0  0  0  0  0  0  0  0  0  0
   24.8651   -8.4176  -16.0029 C   0  0  0  0  0  0  0  0  0  0  0  0
   25.4717   -9.1404  -14.9838 C   0  0  0  0  0  0  0  0  0  0  0  0
   25.9122  -10.4181  -15.2461 C   0  0  0  0  0  0  0  0  0  0  0  0
   25.7676  -10.9961  -16.4893 C   0  0  0  0  0  0  0  0  0  0  0  0
   25.1561  -10.2647  -17.5128 C   0  0  0  0  0  0  0  0  0  0  0  0
   24.7115   -8.9853  -17.2613 C   0  0  0  0  0  0  0  0  0  0  0  0
   22.6096   -5.5659  -14.8871 C   0  0  0  0  0  0  0  0  0  0  0  0
   23.1573   -4.9200  -13.7937 O   0  0  0  0  0  0  0  0  0  0  0  0
   21.7791   -4.9526  -15.5897 O   0  0  0  0  0  0  0  0  0  0  0  0
  2  4  1  0
  2  1  1  1
  3  2  1  0
  4  5  2  0
  6  7  1  0
  6  4  1  0
  7  8  1  1
  8  9  1  0
  9 10  1  0
 10 14  1  0
 11 10  2  0
 12 13  2  0
 12  7  1  0
 15 12  1  0
 16 24  1  0
 16 15  1  0
 16 17  1  6
 18 23  2  0
 18 17  1  0
 19 18  1  0
 20 21  1  0
 20 19  2  0
 21 22  2  0
 22 23  1  0
 24 25  1  0
 26 24  2  0
M  END
$$$$
