AEF.pdb
     RDKit          3D

 26 26  0  0  1  0  0  0  0  0999 V2000
   29.1312  -18.3451  -14.3304 C   0  0  0  0  0  0  0  0  0  0  0  0
   27.9304  -19.1958  -14.6701 C   0  0  2  0  0  0  0  0  0  0  0  0
   27.1258  -18.5806  -15.7007 N   0  0  0  0  0  0  0  0  0  0  0  0
   27.0862  -19.3418  -13.4556 C   0  0  0  0  0  0  0  0  0  0  0  0
   26.6929  -18.3193  -12.8377 O   0  0  0  0  0  0  0  0  0  0  0  0
   26.7071  -20.6377  -12.9687 N   0  0  0  0  0  0  0  0  0  0  0  0
   25.8159  -20.6904  -11.8303 C   0  0  1  0  0  0  0  0  0  0  0  0
   24.6816  -21.6687  -12.0217 C   0  0  0  0  0  0  0  0  0  0  0  0
   23.7661  -21.2439  -13.1468 C   0  0  0  0  0  0  0  0  0  0  0  0
   22.6639  -20.4065  -12.6222 C   0  0  0  0  0  0  0  0  0  0  0  0
   22.3963  -19.2479  -13.0435 O   0  0  0  0  0  0  0  0  0  0  0  0
   26.5765  -20.9927  -10.5781 C   0  0  0  0  0  0  0  0  0  0  0  0
   27.5165  -21.8293  -10.6443 O   0  0  0  0  0  0  0  0  0  0  0  0
   21.8646  -20.9054  -11.6067 O   0  0  0  0  0  0  0  0  0  0  0  0
   26.2269  -20.3408   -9.3675 N   0  0  0  0  0  0  0  0  0  0  0  0
   26.8239  -20.7499   -8.0923 C   0  0  1  0  0  0  0  0  0  0  0  0
   27.6733  -19.6063   -7.6367 C   0  0  0  0  0  0  0  0  0  0  0  0
   28.1837  -19.6944   -6.2724 C   0  0  0  0  0  0  0  0  0  0  0  0
   29.2707  -20.4976   -5.9528 C   0  0  0  0  0  0  0  0  0  0  0  0
   29.7043  -20.5407   -4.6469 C   0  0  0  0  0  0  0  0  0  0  0  0
   29.0899  -19.8101   -3.6523 C   0  0  0  0  0  0  0  0  0  0  0  0
   27.9955  -19.0024   -3.9785 C   0  0  0  0  0  0  0  0  0  0  0  0
   27.5532  -18.9518   -5.2822 C   0  0  0  0  0  0  0  0  0  0  0  0
   25.7343  -21.0910   -7.1788 C   0  0  0  0  0  0  0  0  0  0  0  0
   25.9947  -21.8959   -6.0846 O   0  0  0  0  0  0  0  0  0  0  0  0
   24.5688  -20.6781   -7.3535 O   0  0  0  0  0  0  0  0  0  0  0  0
  2  4  1  0
  2  1  1  1
  3  2  1  0
  4  5  2  0
  6  7  1  0
  6  4  1  0
  7  8  1  6
  8  9  1  0
  9 10  1  0
 10 14  1  0
 11 10  2  0
 12 13  2  0
 12  7  1  0
 15 12  1  0
 16 24  1  0
 16 15  1  0
 16 17  1  1
 18 23  2  0
 18 17  1  0
 19 18  1  0
 20 21  1  0
 20 19  2  0
 21 22  2  0
 22 23  1  0
 24 25  1  0
 26 24  2  0
M  END
$$$$
