MHV.pdb
     RDKit          3D

 26 26  0  0  1  0  0  0  0  0999 V2000
   30.4799  -25.1756  -21.3197 C   0  0  0  0  0  0  0  0  0  0  0  0
   31.4843  -26.0670  -20.1468 S   0  0  0  0  0  0  0  0  0  0  0  0
   30.6446  -26.6726  -18.6939 C   0  0  0  0  0  0  0  0  0  0  0  0
   29.3602  -25.9508  -18.4462 C   0  0  0  0  0  0  0  0  0  0  0  0
   28.6892  -26.4350  -17.1984 C   0  0  2  0  0  0  0  0  0  0  0  0
   29.6593  -26.8984  -16.2200 N   0  0  0  0  0  0  0  0  0  0  0  0
   27.8213  -27.5907  -17.6241 C   0  0  0  0  0  0  0  0  0  0  0  0
   28.2525  -28.4365  -18.4205 O   0  0  0  0  0  0  0  0  0  0  0  0
   26.5169  -27.7084  -17.1146 N   0  0  0  0  0  0  0  0  0  0  0  0
   25.6314  -28.8122  -17.4327 C   0  0  1  0  0  0  0  0  0  0  0  0
   25.4236  -29.6374  -16.2246 C   0  0  0  0  0  0  0  0  0  0  0  0
   26.4073  -30.6788  -15.9411 C   0  0  0  0  0  0  0  0  0  0  0  0
   27.4609  -31.1969  -16.6148 C   0  0  0  0  0  0  0  0  0  0  0  0
   28.0202  -32.1612  -15.8720 N   0  0  0  0  0  0  0  0  0  0  0  0
   27.3197  -32.2503  -14.7324 C   0  0  0  0  0  0  0  0  0  0  0  0
   26.3391  -31.3603  -14.7567 N   0  0  0  0  0  0  0  0  0  0  0  0
   24.3413  -28.1491  -17.8715 C   0  0  0  0  0  0  0  0  0  0  0  0
   23.9643  -27.0392  -17.4205 O   0  0  0  0  0  0  0  0  0  0  0  0
   20.6999  -27.7847  -21.2351 C   0  0  0  0  0  0  0  0  0  0  0  0
   22.0236  -28.2784  -20.7627 C   0  0  1  0  0  0  0  0  0  0  0  0
   23.1408  -27.6872  -21.5978 C   0  0  0  0  0  0  0  0  0  0  0  0
   22.2665  -28.1475  -19.2946 C   0  0  2  0  0  0  0  0  0  0  0  0
   23.4827  -28.7622  -18.8294 N   0  0  0  0  0  0  0  0  0  0  0  0
   21.1369  -28.8123  -18.5951 C   0  0  0  0  0  0  0  0  0  0  0  0
   19.9445  -28.1580  -18.3306 O   0  0  0  0  0  0  0  0  0  0  0  0
   21.2663  -29.9926  -18.2362 O   0  0  0  0  0  0  0  0  0  0  0  0
  2  1  1  0
  3  4  1  0
  3  2  1  0
  4  5  1  0
  5  6  1  1
  5  7  1  0
  7  8  2  0
  9  7  1  0
  9 10  1  0
 10 11  1  1
 11 12  1  0
 12 16  1  0
 12 13  2  0
 13 14  1  0
 15 14  1  0
 16 15  2  0
 17 10  1  0
 17 18  2  0
 20 19  1  6
 20 22  1  0
 21 20  1  0
 22 23  1  6
 23 17  1  0
 24 22  1  0
 24 25  1  0
 26 24  2  0
M  END
$$$$
