MHV.pdb
     RDKit          3D

 26 26  0  0  1  0  0  0  0  0999 V2000
   28.7299  -11.8071  -17.1855 C   0  0  0  0  0  0  0  0  0  0  0  0
   27.9784  -12.5583  -15.7536 S   0  0  0  0  0  0  0  0  0  0  0  0
   26.3133  -13.1625  -15.9665 C   0  0  0  0  0  0  0  0  0  0  0  0
   25.3679  -12.0751  -16.3608 C   0  0  0  0  0  0  0  0  0  0  0  0
   24.0232  -12.6219  -16.7280 C   0  0  2  0  0  0  0  0  0  0  0  0
   24.1014  -13.4807  -17.8982 N   0  0  0  0  0  0  0  0  0  0  0  0
   23.1686  -11.4228  -17.0473 C   0  0  0  0  0  0  0  0  0  0  0  0
   23.1018  -10.9937  -18.2079 O   0  0  0  0  0  0  0  0  0  0  0  0
   22.4445  -10.7895  -16.0230 N   0  0  0  0  0  0  0  0  0  0  0  0
   21.4784   -9.7344  -16.2620 C   0  0  1  0  0  0  0  0  0  0  0  0
   20.1603  -10.1493  -15.7385 C   0  0  0  0  0  0  0  0  0  0  0  0
   19.4234  -11.1613  -16.4905 C   0  0  0  0  0  0  0  0  0  0  0  0
   18.8852  -11.2159  -17.7313 C   0  0  0  0  0  0  0  0  0  0  0  0
   18.3014  -12.4097  -17.8998 N   0  0  0  0  0  0  0  0  0  0  0  0
   18.4715  -13.1056  -16.7666 C   0  0  0  0  0  0  0  0  0  0  0  0
   19.1488  -12.3655  -15.9019 N   0  0  0  0  0  0  0  0  0  0  0  0
   22.0208   -8.5432  -15.4981 C   0  0  0  0  0  0  0  0  0  0  0  0
   22.5180   -8.6464  -14.3493 O   0  0  0  0  0  0  0  0  0  0  0  0
   22.0580   -4.6003  -17.3612 C   0  0  0  0  0  0  0  0  0  0  0  0
   23.0330   -5.0067  -16.3108 C   0  0  1  0  0  0  0  0  0  0  0  0
   23.5535   -3.7922  -15.5696 C   0  0  0  0  0  0  0  0  0  0  0  0
   22.5680   -6.0898  -15.3932 C   0  0  2  0  0  0  0  0  0  0  0  0
   21.9916   -7.2317  -16.0545 N   0  0  0  0  0  0  0  0  0  0  0  0
   21.5202   -5.5096  -14.5142 C   0  0  0  0  0  0  0  0  0  0  0  0
   20.1897   -5.8859  -14.6038 O   0  0  0  0  0  0  0  0  0  0  0  0
   21.8482   -4.6598  -13.6721 O   0  0  0  0  0  0  0  0  0  0  0  0
  2  1  1  0
  3  4  1  0
  3  2  1  0
  4  5  1  0
  5  6  1  6
  5  7  1  0
  7  8  2  0
  9  7  1  0
  9 10  1  0
 10 11  1  1
 11 12  1  0
 12 16  1  0
 12 13  2  0
 13 14  1  0
 15 14  1  0
 16 15  2  0
 17 10  1  0
 17 18  2  0
 20 19  1  6
 20 22  1  0
 21 20  1  0
 22 23  1  6
 23 17  1  0
 24 22  1  0
 24 25  1  0
 26 24  2  0
M  END
$$$$
