MHV.pdb
     RDKit          3D

 26 26  0  0  1  0  0  0  0  0999 V2000
   26.6288  -20.0418   -5.5345 C   0  0  0  0  0  0  0  0  0  0  0  0
   28.0370  -19.5418   -6.5072 S   0  0  0  0  0  0  0  0  0  0  0  0
   27.9806  -19.9563   -8.2416 C   0  0  0  0  0  0  0  0  0  0  0  0
   27.2529  -21.2373   -8.4890 C   0  0  0  0  0  0  0  0  0  0  0  0
   27.4072  -21.6922   -9.9072 C   0  0  2  0  0  0  0  0  0  0  0  0
   28.7648  -21.4884  -10.3850 N   0  0  0  0  0  0  0  0  0  0  0  0
   26.4628  -20.8394  -10.7141 C   0  0  0  0  0  0  0  0  0  0  0  0
   26.6711  -19.6246  -10.8417 O   0  0  0  0  0  0  0  0  0  0  0  0
   25.3410  -21.4262  -11.3241 N   0  0  0  0  0  0  0  0  0  0  0  0
   24.6343  -20.8282  -12.4406 C   0  0  1  0  0  0  0  0  0  0  0  0
   24.9856  -21.5459  -13.6837 C   0  0  0  0  0  0  0  0  0  0  0  0
   24.4503  -21.0243  -14.9384 C   0  0  0  0  0  0  0  0  0  0  0  0
   24.6281  -19.8827  -15.6436 C   0  0  0  0  0  0  0  0  0  0  0  0
   23.8624  -19.9264  -16.7419 N   0  0  0  0  0  0  0  0  0  0  0  0
   23.2033  -21.0937  -16.7281 C   0  0  0  0  0  0  0  0  0  0  0  0
   23.5467  -21.7717  -15.6433 N   0  0  0  0  0  0  0  0  0  0  0  0
   23.1683  -21.0065  -12.1009 C   0  0  0  0  0  0  0  0  0  0  0  0
   22.7556  -21.9229  -11.3475 O   0  0  0  0  0  0  0  0  0  0  0  0
   20.5134  -18.4772  -10.6584 C   0  0  0  0  0  0  0  0  0  0  0  0
   20.0534  -19.0644  -11.9479 C   0  0  1  0  0  0  0  0  0  0  0  0
   20.0156  -18.0059  -13.0310 C   0  0  0  0  0  0  0  0  0  0  0  0
   20.7678  -20.3048  -12.3751 C   0  0  2  0  0  0  0  0  0  0  0  0
   22.1748  -20.1314  -12.6278 N   0  0  0  0  0  0  0  0  0  0  0  0
   20.1424  -20.7652  -13.6416 C   0  0  0  0  0  0  0  0  0  0  0  0
   18.8592  -21.2863  -13.6847 O   0  0  0  0  0  0  0  0  0  0  0  0
   20.7913  -20.6800  -14.6954 O   0  0  0  0  0  0  0  0  0  0  0  0
  2  1  1  0
  3  4  1  0
  3  2  1  0
  4  5  1  0
  5  6  1  6
  5  7  1  0
  7  8  2  0
  9  7  1  0
  9 10  1  0
 10 11  1  6
 11 12  1  0
 12 16  1  0
 12 13  2  0
 13 14  1  0
 15 14  1  0
 16 15  2  0
 17 10  1  0
 17 18  2  0
 20 19  1  1
 20 22  1  0
 21 20  1  0
 22 23  1  6
 23 17  1  0
 24 22  1  0
 24 25  1  0
 26 24  2  0
M  END
$$$$
