MHV.pdb
     RDKit          3D

 26 26  0  0  1  0  0  0  0  0999 V2000
   27.1840  -15.3839  -14.4755 C   0  0  0  0  0  0  0  0  0  0  0  0
   26.6980  -16.5103  -15.7696 S   0  0  0  0  0  0  0  0  0  0  0  0
   27.1083  -16.0179  -17.4345 C   0  0  0  0  0  0  0  0  0  0  0  0
   26.2746  -14.8698  -17.9018 C   0  0  0  0  0  0  0  0  0  0  0  0
   24.8460  -15.2722  -18.0995 C   0  0  2  0  0  0  0  0  0  0  0  0
   24.6940  -16.1375  -19.2577 N   0  0  0  0  0  0  0  0  0  0  0  0
   24.0897  -13.9903  -18.3339 C   0  0  0  0  0  0  0  0  0  0  0  0
   24.2659  -13.3417  -19.3750 O   0  0  0  0  0  0  0  0  0  0  0  0
   23.1808  -13.5296  -17.3663 N   0  0  0  0  0  0  0  0  0  0  0  0
   22.3961  -12.3194  -17.5191 C   0  0  1  0  0  0  0  0  0  0  0  0
   20.9959  -12.5913  -17.1328 C   0  0  0  0  0  0  0  0  0  0  0  0
   20.0695  -11.4625  -17.1144 C   0  0  0  0  0  0  0  0  0  0  0  0
   20.1918  -10.1316  -17.3285 C   0  0  0  0  0  0  0  0  0  0  0  0
   18.9942   -9.5534  -17.1672 N   0  0  0  0  0  0  0  0  0  0  0  0
   18.1192  -10.5189  -16.8518 C   0  0  0  0  0  0  0  0  0  0  0  0
   18.7525  -11.6816  -16.8151 N   0  0  0  0  0  0  0  0  0  0  0  0
   23.0421  -11.3266  -16.5738 C   0  0  0  0  0  0  0  0  0  0  0  0
   23.3607  -11.6238  -15.3958 O   0  0  0  0  0  0  0  0  0  0  0  0
   26.3785   -9.6983  -16.6294 C   0  0  0  0  0  0  0  0  0  0  0  0
   25.3470   -8.6236  -16.6189 C   0  0  1  0  0  0  0  0  0  0  0  0
   25.2997   -7.9186  -17.9590 C   0  0  0  0  0  0  0  0  0  0  0  0
   23.9963   -9.0402  -16.1359 C   0  0  2  0  0  0  0  0  0  0  0  0
   23.3219   -9.9903  -16.9820 N   0  0  0  0  0  0  0  0  0  0  0  0
   23.1497   -7.8209  -16.0741 C   0  0  0  0  0  0  0  0  0  0  0  0
   22.1336   -7.5805  -16.9851 O   0  0  0  0  0  0  0  0  0  0  0  0
   23.3600   -6.9907  -15.1767 O   0  0  0  0  0  0  0  0  0  0  0  0
  2  1  1  0
  3  4  1  0
  3  2  1  0
  4  5  1  0
  5  6  1  6
  5  7  1  0
  7  8  2  0
  9  7  1  0
  9 10  1  0
 10 11  1  1
 11 12  1  0
 12 16  1  0
 12 13  2  0
 13 14  1  0
 15 14  1  0
 16 15  2  0
 17 10  1  0
 17 18  2  0
 20 19  1  6
 20 22  1  0
 21 20  1  0
 22 23  1  6
 23 17  1  0
 24 22  1  0
 24 25  1  0
 26 24  2  0
M  END
$$$$
