MHV.pdb
     RDKit          3D

 26 26  0  0  1  0  0  0  0  0999 V2000
   31.4406  -30.7640  -16.3279 C   0  0  0  0  0  0  0  0  0  0  0  0
   30.2087  -31.3280  -17.4870 S   0  0  0  0  0  0  0  0  0  0  0  0
   29.1698  -32.6704  -16.9380 C   0  0  0  0  0  0  0  0  0  0  0  0
   28.3709  -32.3039  -15.7300 C   0  0  0  0  0  0  0  0  0  0  0  0
   27.6650  -33.4931  -15.1560 C   0  0  2  0  0  0  0  0  0  0  0  0
   27.0110  -34.2736  -16.1935 N   0  0  0  0  0  0  0  0  0  0  0  0
   26.6228  -32.9366  -14.2209 C   0  0  0  0  0  0  0  0  0  0  0  0
   26.9559  -32.2082  -13.2754 O   0  0  0  0  0  0  0  0  0  0  0  0
   25.2671  -33.2461  -14.4236 N   0  0  0  0  0  0  0  0  0  0  0  0
   24.1931  -32.6977  -13.6177 C   0  0  1  0  0  0  0  0  0  0  0  0
   22.9042  -32.9123  -14.3078 C   0  0  0  0  0  0  0  0  0  0  0  0
   21.6894  -32.4916  -13.6149 C   0  0  0  0  0  0  0  0  0  0  0  0
   21.4275  -31.9595  -12.3981 C   0  0  0  0  0  0  0  0  0  0  0  0
   20.1059  -31.7765  -12.2789 N   0  0  0  0  0  0  0  0  0  0  0  0
   19.5364  -32.1930  -13.4189 C   0  0  0  0  0  0  0  0  0  0  0  0
   20.4799  -32.6293  -14.2396 N   0  0  0  0  0  0  0  0  0  0  0  0
   24.2561  -33.4779  -12.3201 C   0  0  0  0  0  0  0  0  0  0  0  0
   24.5323  -34.7025  -12.2804 O   0  0  0  0  0  0  0  0  0  0  0  0
   26.5990  -32.9622   -9.5141 C   0  0  0  0  0  0  0  0  0  0  0  0
   25.2299  -32.9682   -8.9270 C   0  0  1  0  0  0  0  0  0  0  0  0
   24.8806  -31.6001   -8.3780 C   0  0  0  0  0  0  0  0  0  0  0  0
   24.1609  -33.5294   -9.8065 C   0  0  2  0  0  0  0  0  0  0  0  0
   24.0010  -32.8506  -11.0663 N   0  0  0  0  0  0  0  0  0  0  0  0
   22.8742  -33.4136   -9.0729 C   0  0  0  0  0  0  0  0  0  0  0  0
   22.5593  -34.2324   -8.0003 O   0  0  0  0  0  0  0  0  0  0  0  0
   22.0546  -32.5549   -9.4333 O   0  0  0  0  0  0  0  0  0  0  0  0
  2  1  1  0
  3  4  1  0
  3  2  1  0
  4  5  1  0
  5  6  1  6
  5  7  1  0
  7  8  2  0
  9  7  1  0
  9 10  1  0
 10 11  1  6
 11 12  1  0
 12 16  1  0
 12 13  2  0
 13 14  1  0
 15 14  1  0
 16 15  2  0
 17 10  1  0
 17 18  2  0
 20 19  1  6
 20 22  1  0
 21 20  1  0
 22 23  1  6
 23 17  1  0
 24 22  1  0
 24 25  1  0
 26 24  2  0
M  END
$$$$
