MHV.pdb
     RDKit          3D

 26 26  0  0  1  0  0  0  0  0999 V2000
   17.1959  -15.3176  -22.7197 C   0  0  0  0  0  0  0  0  0  0  0  0
   18.8431  -15.8875  -22.3440 S   0  0  0  0  0  0  0  0  0  0  0  0
   19.9440  -14.6852  -21.6194 C   0  0  0  0  0  0  0  0  0  0  0  0
   19.2129  -13.4778  -21.1301 C   0  0  0  0  0  0  0  0  0  0  0  0
   20.1575  -12.4195  -20.6511 C   0  0  2  0  0  0  0  0  0  0  0  0
   21.4939  -12.9540  -20.4473 N   0  0  0  0  0  0  0  0  0  0  0  0
   19.6048  -11.9460  -19.3318 C   0  0  0  0  0  0  0  0  0  0  0  0
   18.4579  -11.4815  -19.2648 O   0  0  0  0  0  0  0  0  0  0  0  0
   20.3949  -12.0325  -18.1729 N   0  0  0  0  0  0  0  0  0  0  0  0
   19.9293  -11.6380  -16.8571 C   0  0  1  0  0  0  0  0  0  0  0  0
   20.0380  -12.7870  -15.9342 C   0  0  0  0  0  0  0  0  0  0  0  0
   18.9477  -13.7586  -15.9348 C   0  0  0  0  0  0  0  0  0  0  0  0
   17.7609  -13.8520  -16.5790 C   0  0  0  0  0  0  0  0  0  0  0  0
   17.1399  -14.9720  -16.1861 N   0  0  0  0  0  0  0  0  0  0  0  0
   17.9345  -15.5828  -15.2957 C   0  0  0  0  0  0  0  0  0  0  0  0
   19.0336  -14.8625  -15.1310 N   0  0  0  0  0  0  0  0  0  0  0  0
   20.8607  -10.5155  -16.4461 C   0  0  0  0  0  0  0  0  0  0  0  0
   22.1061  -10.5816  -16.5953 O   0  0  0  0  0  0  0  0  0  0  0  0
   21.5987   -7.2492  -17.7916 C   0  0  0  0  0  0  0  0  0  0  0  0
   21.1189   -7.0267  -16.3989 C   0  0  1  0  0  0  0  0  0  0  0  0
   19.7403   -6.3987  -16.4052 C   0  0  0  0  0  0  0  0  0  0  0  0
   21.2108   -8.2126  -15.4952 C   0  0  2  0  0  0  0  0  0  0  0  0
   20.3609   -9.3155  -15.8623 N   0  0  0  0  0  0  0  0  0  0  0  0
   20.8029   -7.7702  -14.1369 C   0  0  0  0  0  0  0  0  0  0  0  0
   21.5925   -6.9337  -13.3645 O   0  0  0  0  0  0  0  0  0  0  0  0
   19.7188   -8.1633  -13.6796 O   0  0  0  0  0  0  0  0  0  0  0  0
  2  1  1  0
  3  4  1  0
  3  2  1  0
  4  5  1  0
  5  6  1  1
  5  7  1  0
  7  8  2  0
  9  7  1  0
  9 10  1  0
 10 11  1  1
 11 12  1  0
 12 16  1  0
 12 13  2  0
 13 14  1  0
 15 14  1  0
 16 15  2  0
 17 10  1  0
 17 18  2  0
 20 19  1  6
 20 22  1  0
 21 20  1  0
 22 23  1  6
 23 17  1  0
 24 22  1  0
 24 25  1  0
 26 24  2  0
M  END
$$$$
