MHV.pdb
     RDKit          3D

 26 26  0  0  1  0  0  0  0  0999 V2000
   32.5568  -31.0373  -23.7987 C   0  0  0  0  0  0  0  0  0  0  0  0
   33.1567  -29.4197  -23.3484 S   0  0  0  0  0  0  0  0  0  0  0  0
   34.0688  -29.3181  -21.8184 C   0  0  0  0  0  0  0  0  0  0  0  0
   33.2682  -29.8040  -20.6545 C   0  0  0  0  0  0  0  0  0  0  0  0
   32.9758  -28.6982  -19.6882 C   0  0  2  0  0  0  0  0  0  0  0  0
   34.1594  -28.3308  -18.9285 N   0  0  0  0  0  0  0  0  0  0  0  0
   31.9312  -29.2429  -18.7489 C   0  0  0  0  0  0  0  0  0  0  0  0
   32.2567  -29.6732  -17.6333 O   0  0  0  0  0  0  0  0  0  0  0  0
   30.5821  -29.2623  -19.1414 N   0  0  0  0  0  0  0  0  0  0  0  0
   29.4969  -29.6341  -18.2538 C   0  0  1  0  0  0  0  0  0  0  0  0
   28.6451  -28.4536  -18.0001 C   0  0  0  0  0  0  0  0  0  0  0  0
   29.1891  -27.3992  -17.1486 C   0  0  0  0  0  0  0  0  0  0  0  0
   29.9390  -27.3825  -16.0218 C   0  0  0  0  0  0  0  0  0  0  0  0
   30.1427  -26.1106  -15.6540 N   0  0  0  0  0  0  0  0  0  0  0  0
   29.5218  -25.3277  -16.5478 C   0  0  0  0  0  0  0  0  0  0  0  0
   28.9389  -26.0906  -17.4601 N   0  0  0  0  0  0  0  0  0  0  0  0
   28.7375  -30.7048  -19.0112 C   0  0  0  0  0  0  0  0  0  0  0  0
   28.6221  -30.6951  -20.2618 O   0  0  0  0  0  0  0  0  0  0  0  0
   26.8359  -35.2875  -19.1318 C   0  0  0  0  0  0  0  0  0  0  0  0
   27.5792  -34.1978  -18.4396 C   0  0  1  0  0  0  0  0  0  0  0  0
   29.0373  -34.5725  -18.2707 C   0  0  0  0  0  0  0  0  0  0  0  0
   27.3953  -32.8328  -19.0177 C   0  0  2  0  0  0  0  0  0  0  0  0
   28.1091  -31.7878  -18.3308 N   0  0  0  0  0  0  0  0  0  0  0  0
   25.9478  -32.5074  -18.9398 C   0  0  0  0  0  0  0  0  0  0  0  0
   25.0064  -33.1311  -19.7428 O   0  0  0  0  0  0  0  0  0  0  0  0
   25.5700  -31.6484  -18.1285 O   0  0  0  0  0  0  0  0  0  0  0  0
  2  1  1  0
  3  4  1  0
  3  2  1  0
  4  5  1  0
  5  6  1  1
  5  7  1  0
  7  8  2  0
  9  7  1  0
  9 10  1  0
 10 11  1  6
 11 12  1  0
 12 16  1  0
 12 13  2  0
 13 14  1  0
 15 14  1  0
 16 15  2  0
 17 10  1  0
 17 18  2  0
 20 19  1  6
 20 22  1  0
 21 20  1  0
 22 23  1  1
 23 17  1  0
 24 22  1  0
 24 25  1  0
 26 24  2  0
M  END
$$$$
