MHV.pdb
     RDKit          3D

 26 26  0  0  1  0  0  0  0  0999 V2000
   30.7998  -21.0299   -9.2793 C   0  0  0  0  0  0  0  0  0  0  0  0
   29.6640  -20.7556   -7.9325 S   0  0  0  0  0  0  0  0  0  0  0  0
   27.9289  -20.8200   -8.3428 C   0  0  0  0  0  0  0  0  0  0  0  0
   27.6817  -20.5183   -9.7849 C   0  0  0  0  0  0  0  0  0  0  0  0
   26.2220  -20.3399  -10.0669 C   0  0  2  0  0  0  0  0  0  0  0  0
   25.4123  -21.2395   -9.2617 N   0  0  0  0  0  0  0  0  0  0  0  0
   26.0436  -20.6799  -11.5239 C   0  0  0  0  0  0  0  0  0  0  0  0
   26.7434  -20.1282  -12.3851 O   0  0  0  0  0  0  0  0  0  0  0  0
   25.0787  -21.6273  -11.9061 N   0  0  0  0  0  0  0  0  0  0  0  0
   24.8712  -22.0474  -13.2788 C   0  0  1  0  0  0  0  0  0  0  0  0
   24.4080  -23.4505  -13.2970 C   0  0  0  0  0  0  0  0  0  0  0  0
   24.0431  -24.0241  -14.5895 C   0  0  0  0  0  0  0  0  0  0  0  0
   23.9604  -23.5421  -15.8517 C   0  0  0  0  0  0  0  0  0  0  0  0
   23.5553  -24.5249  -16.6667 N   0  0  0  0  0  0  0  0  0  0  0  0
   23.3829  -25.6241  -15.9188 C   0  0  0  0  0  0  0  0  0  0  0  0
   23.6735  -25.3396  -14.6583 N   0  0  0  0  0  0  0  0  0  0  0  0
   23.8019  -21.1109  -13.8044 C   0  0  0  0  0  0  0  0  0  0  0  0
   22.8680  -20.6790  -13.0841 O   0  0  0  0  0  0  0  0  0  0  0  0
   22.4564  -17.7444  -17.1897 C   0  0  0  0  0  0  0  0  0  0  0  0
   23.4399  -18.6783  -16.5735 C   0  0  1  0  0  0  0  0  0  0  0  0
   24.5708  -17.9073  -15.9240 C   0  0  0  0  0  0  0  0  0  0  0  0
   22.8557  -19.7174  -15.6733 C   0  0  2  0  0  0  0  0  0  0  0  0
   23.8051  -20.6704  -15.1596 N   0  0  0  0  0  0  0  0  0  0  0  0
   21.8487  -20.4741  -16.4612 C   0  0  0  0  0  0  0  0  0  0  0  0
   20.4887  -20.2360  -16.3440 O   0  0  0  0  0  0  0  0  0  0  0  0
   22.2392  -21.3480  -17.2501 O   0  0  0  0  0  0  0  0  0  0  0  0
  2  1  1  0
  3  4  1  0
  3  2  1  0
  4  5  1  0
  5  6  1  1
  5  7  1  0
  7  8  2  0
  9  7  1  0
  9 10  1  0
 10 11  1  1
 11 12  1  0
 12 16  1  0
 12 13  2  0
 13 14  1  0
 15 14  1  0
 16 15  2  0
 17 10  1  0
 17 18  2  0
 20 19  1  1
 20 22  1  0
 21 20  1  0
 22 23  1  6
 23 17  1  0
 24 22  1  0
 24 25  1  0
 26 24  2  0
M  END
$$$$
