MHV.pdb
     RDKit          3D

 26 26  0  0  1  0  0  0  0  0999 V2000
   29.1361  -19.6104   -7.7287 C   0  0  0  0  0  0  0  0  0  0  0  0
   27.5743  -19.8134   -6.8929 S   0  0  0  0  0  0  0  0  0  0  0  0
   26.1520  -20.0732   -7.9381 C   0  0  0  0  0  0  0  0  0  0  0  0
   26.5404  -20.4332   -9.3350 C   0  0  0  0  0  0  0  0  0  0  0  0
   25.3524  -20.4623  -10.2459 C   0  0  2  0  0  0  0  0  0  0  0  0
   24.4268  -21.5207   -9.8768 N   0  0  0  0  0  0  0  0  0  0  0  0
   25.9002  -20.7384  -11.6221 C   0  0  0  0  0  0  0  0  0  0  0  0
   26.6941  -21.6724  -11.8034 O   0  0  0  0  0  0  0  0  0  0  0  0
   25.5078  -19.9319  -12.7039 N   0  0  0  0  0  0  0  0  0  0  0  0
   25.7909  -20.2588  -14.0883 C   0  0  1  0  0  0  0  0  0  0  0  0
   24.6257  -20.9517  -14.6762 C   0  0  0  0  0  0  0  0  0  0  0  0
   24.4773  -22.3777  -14.3980 C   0  0  0  0  0  0  0  0  0  0  0  0
   25.2007  -23.2895  -13.7070 C   0  0  0  0  0  0  0  0  0  0  0  0
   24.5935  -24.4805  -13.7913 N   0  0  0  0  0  0  0  0  0  0  0  0
   23.4896  -24.3190  -14.5345 C   0  0  0  0  0  0  0  0  0  0  0  0
   23.4028  -23.0521  -14.9107 N   0  0  0  0  0  0  0  0  0  0  0  0
   26.0242  -18.9179  -14.7546 C   0  0  0  0  0  0  0  0  0  0  0  0
   25.4848  -17.8586  -14.3490 O   0  0  0  0  0  0  0  0  0  0  0  0
   28.7592  -16.1779  -17.9195 C   0  0  0  0  0  0  0  0  0  0  0  0
   28.4872  -17.4515  -17.1962 C   0  0  1  0  0  0  0  0  0  0  0  0
   29.6363  -17.7931  -16.2700 C   0  0  0  0  0  0  0  0  0  0  0  0
   27.1567  -17.5307  -16.5219 C   0  0  2  0  0  0  0  0  0  0  0  0
   26.8778  -18.7936  -15.8889 N   0  0  0  0  0  0  0  0  0  0  0  0
   26.1170  -17.3154  -17.5611 C   0  0  0  0  0  0  0  0  0  0  0  0
   25.5657  -16.0682  -17.8068 O   0  0  0  0  0  0  0  0  0  0  0  0
   25.7301  -18.2852  -18.2309 O   0  0  0  0  0  0  0  0  0  0  0  0
  2  1  1  0
  3  4  1  0
  3  2  1  0
  4  5  1  0
  5  6  1  1
  5  7  1  0
  7  8  2  0
  9  7  1  0
  9 10  1  0
 10 11  1  6
 11 12  1  0
 12 16  1  0
 12 13  2  0
 13 14  1  0
 15 14  1  0
 16 15  2  0
 17 10  1  0
 17 18  2  0
 20 19  1  1
 20 22  1  0
 21 20  1  0
 22 23  1  6
 23 17  1  0
 24 22  1  0
 24 25  1  0
 26 24  2  0
M  END
$$$$
