MHV.pdb
     RDKit          3D

 26 26  0  0  1  0  0  0  0  0999 V2000
   26.9368  -19.4203   -4.6518 C   0  0  0  0  0  0  0  0  0  0  0  0
   28.6212  -19.4712   -5.2342 S   0  0  0  0  0  0  0  0  0  0  0  0
   28.9177  -20.4506   -6.6956 C   0  0  0  0  0  0  0  0  0  0  0  0
   27.9646  -20.1183   -7.7969 C   0  0  0  0  0  0  0  0  0  0  0  0
   28.0811  -21.0841   -8.9351 C   0  0  2  0  0  0  0  0  0  0  0  0
   29.4578  -21.2115   -9.3839 N   0  0  0  0  0  0  0  0  0  0  0  0
   27.2466  -20.5053  -10.0482 C   0  0  0  0  0  0  0  0  0  0  0  0
   27.5156  -19.3900  -10.5164 O   0  0  0  0  0  0  0  0  0  0  0  0
   26.1588  -21.2353  -10.5566 N   0  0  0  0  0  0  0  0  0  0  0  0
   25.4633  -20.8849  -11.7802 C   0  0  1  0  0  0  0  0  0  0  0  0
   25.9762  -21.7148  -12.8900 C   0  0  0  0  0  0  0  0  0  0  0  0
   25.3578  -21.5442  -14.2020 C   0  0  0  0  0  0  0  0  0  0  0  0
   24.3802  -20.7473  -14.6933 C   0  0  0  0  0  0  0  0  0  0  0  0
   24.2053  -21.0241  -15.9922 N   0  0  0  0  0  0  0  0  0  0  0  0
   25.0713  -21.9942  -16.3182 C   0  0  0  0  0  0  0  0  0  0  0  0
   25.7775  -22.3217  -15.2467 N   0  0  0  0  0  0  0  0  0  0  0  0
   24.0082  -21.1951  -11.4915 C   0  0  0  0  0  0  0  0  0  0  0  0
   23.6552  -22.0803  -10.6734 O   0  0  0  0  0  0  0  0  0  0  0  0
   21.2498  -19.1180   -9.9778 C   0  0  0  0  0  0  0  0  0  0  0  0
   20.8127  -19.5745  -11.3268 C   0  0  1  0  0  0  0  0  0  0  0  0
   20.7495  -18.4062  -12.2891 C   0  0  0  0  0  0  0  0  0  0  0  0
   21.5644  -20.7407  -11.8804 C   0  0  2  0  0  0  0  0  0  0  0  0
   22.9573  -20.4878  -12.1440 N   0  0  0  0  0  0  0  0  0  0  0  0
   20.9277  -21.1090  -13.1712 C   0  0  0  0  0  0  0  0  0  0  0  0
   19.6602  -21.6649  -13.2372 O   0  0  0  0  0  0  0  0  0  0  0  0
   21.5522  -20.9119  -14.2247 O   0  0  0  0  0  0  0  0  0  0  0  0
  2  1  1  0
  3  4  1  0
  3  2  1  0
  4  5  1  0
  5  6  1  6
  5  7  1  0
  7  8  2  0
  9  7  1  0
  9 10  1  0
 10 11  1  6
 11 12  1  0
 12 16  1  0
 12 13  2  0
 13 14  1  0
 15 14  1  0
 16 15  2  0
 17 10  1  0
 17 18  2  0
 20 19  1  1
 20 22  1  0
 21 20  1  0
 22 23  1  6
 23 17  1  0
 24 22  1  0
 24 25  1  0
 26 24  2  0
M  END
$$$$
