MHV.pdb
     RDKit          3D

 26 26  0  0  1  0  0  0  0  0999 V2000
   27.4402  -20.5005   -5.1292 C   0  0  0  0  0  0  0  0  0  0  0  0
   27.7742  -19.1872   -6.2882 S   0  0  0  0  0  0  0  0  0  0  0  0
   28.0489  -19.6834   -7.9797 C   0  0  0  0  0  0  0  0  0  0  0  0
   27.6571  -21.1052   -8.2182 C   0  0  0  0  0  0  0  0  0  0  0  0
   28.0998  -21.5785   -9.5680 C   0  0  2  0  0  0  0  0  0  0  0  0
   29.4604  -21.1569   -9.8580 N   0  0  0  0  0  0  0  0  0  0  0  0
   27.1592  -20.9360  -10.5542 C   0  0  0  0  0  0  0  0  0  0  0  0
   27.4357  -19.8382  -11.0581 O   0  0  0  0  0  0  0  0  0  0  0  0
   25.9632  -21.5861  -10.9030 N   0  0  0  0  0  0  0  0  0  0  0  0
   25.4618  -21.6619  -12.2618 C   0  0  1  0  0  0  0  0  0  0  0  0
   25.2536  -23.0780  -12.6290 C   0  0  0  0  0  0  0  0  0  0  0  0
   24.7317  -23.3596  -13.9636 C   0  0  0  0  0  0  0  0  0  0  0  0
   24.2380  -22.5993  -14.9687 C   0  0  0  0  0  0  0  0  0  0  0  0
   23.8882  -23.3974  -15.9861 N   0  0  0  0  0  0  0  0  0  0  0  0
   24.1612  -24.6585  -15.6220 C   0  0  0  0  0  0  0  0  0  0  0  0
   24.6725  -24.6549  -14.4002 N   0  0  0  0  0  0  0  0  0  0  0  0
   24.1482  -20.9072  -12.2240 C   0  0  0  0  0  0  0  0  0  0  0  0
   23.5059  -20.7211  -11.1608 O   0  0  0  0  0  0  0  0  0  0  0  0
   22.2993  -19.3461  -15.9167 C   0  0  0  0  0  0  0  0  0  0  0  0
   22.1131  -18.7431  -14.5672 C   0  0  1  0  0  0  0  0  0  0  0  0
   20.8002  -17.9904  -14.4975 C   0  0  0  0  0  0  0  0  0  0  0  0
   22.3063  -19.6781  -13.4184 C   0  0  2  0  0  0  0  0  0  0  0  0
   23.5712  -20.3660  -13.4093 N   0  0  0  0  0  0  0  0  0  0  0  0
   21.2401  -20.7095  -13.4994 C   0  0  0  0  0  0  0  0  0  0  0  0
   21.4865  -21.9913  -13.9646 O   0  0  0  0  0  0  0  0  0  0  0  0
   20.0911  -20.4127  -13.1383 O   0  0  0  0  0  0  0  0  0  0  0  0
  2  1  1  0
  3  4  1  0
  3  2  1  0
  4  5  1  0
  5  6  1  6
  5  7  1  0
  7  8  2  0
  9  7  1  0
  9 10  1  0
 10 11  1  1
 11 12  1  0
 12 16  1  0
 12 13  2  0
 13 14  1  0
 15 14  1  0
 16 15  2  0
 17 10  1  0
 17 18  2  0
 20 19  1  6
 20 22  1  0
 21 20  1  0
 22 23  1  6
 23 17  1  0
 24 22  1  0
 24 25  1  0
 26 24  2  0
M  END
$$$$
