MHV.pdb
     RDKit          3D

 26 26  0  0  1  0  0  0  0  0999 V2000
   15.0097  -30.1436   -4.6324 C   0  0  0  0  0  0  0  0  0  0  0  0
   16.2309  -30.4816   -3.3779 S   0  0  0  0  0  0  0  0  0  0  0  0
   17.4039  -29.1774   -3.0520 C   0  0  0  0  0  0  0  0  0  0  0  0
   17.1385  -27.9637   -3.8817 C   0  0  0  0  0  0  0  0  0  0  0  0
   18.1900  -26.9175   -3.6777 C   0  0  2  0  0  0  0  0  0  0  0  0
   18.1862  -26.4208   -2.3116 N   0  0  0  0  0  0  0  0  0  0  0  0
   17.8349  -25.7937   -4.6165 C   0  0  0  0  0  0  0  0  0  0  0  0
   17.1496  -24.8405   -4.2199 O   0  0  0  0  0  0  0  0  0  0  0  0
   18.2839  -25.8284   -5.9476 N   0  0  0  0  0  0  0  0  0  0  0  0
   18.0114  -24.7784   -6.9104 C   0  0  1  0  0  0  0  0  0  0  0  0
   19.1348  -24.6864   -7.8660 C   0  0  0  0  0  0  0  0  0  0  0  0
   18.9738  -23.7976   -9.0135 C   0  0  0  0  0  0  0  0  0  0  0  0
   17.9851  -22.9831   -9.4508 C   0  0  0  0  0  0  0  0  0  0  0  0
   18.3761  -22.3979  -10.5906 N   0  0  0  0  0  0  0  0  0  0  0  0
   19.6091  -22.8435  -10.8706 C   0  0  0  0  0  0  0  0  0  0  0  0
   19.9873  -23.6920   -9.9266 N   0  0  0  0  0  0  0  0  0  0  0  0
   16.7381  -25.2202   -7.6032 C   0  0  0  0  0  0  0  0  0  0  0  0
   16.5154  -26.4180   -7.9088 O   0  0  0  0  0  0  0  0  0  0  0  0
   13.0346  -25.2624   -6.7216 C   0  0  0  0  0  0  0  0  0  0  0  0
   13.2524  -24.4066   -7.9214 C   0  0  1  0  0  0  0  0  0  0  0  0
   13.0509  -22.9453   -7.5762 C   0  0  0  0  0  0  0  0  0  0  0  0
   14.5259  -24.6566   -8.6609 C   0  0  2  0  0  0  0  0  0  0  0  0
   15.7192  -24.2848   -7.9459 N   0  0  0  0  0  0  0  0  0  0  0  0
   14.4840  -23.8478   -9.9063 C   0  0  0  0  0  0  0  0  0  0  0  0
   13.7763  -24.2530  -11.0266 O   0  0  0  0  0  0  0  0  0  0  0  0
   15.1035  -22.7737   -9.9439 O   0  0  0  0  0  0  0  0  0  0  0  0
  2  1  1  0
  3  4  1  0
  3  2  1  0
  4  5  1  0
  5  6  1  1
  5  7  1  0
  7  8  2  0
  9  7  1  0
  9 10  1  0
 10 11  1  6
 11 12  1  0
 12 16  1  0
 12 13  2  0
 13 14  1  0
 15 14  1  0
 16 15  2  0
 17 10  1  0
 17 18  2  0
 20 19  1  1
 20 22  1  0
 21 20  1  0
 22 23  1  1
 23 17  1  0
 24 22  1  0
 24 25  1  0
 26 24  2  0
M  END
$$$$
