MHV.pdb
     RDKit          3D

 26 26  0  0  1  0  0  0  0  0999 V2000
   21.5222  -15.3775    1.5807 C   0  0  0  0  0  0  0  0  0  0  0  0
   20.5952  -14.4930    2.8207 S   0  0  0  0  0  0  0  0  0  0  0  0
   18.8199  -14.5278    2.6478 C   0  0  0  0  0  0  0  0  0  0  0  0
   18.1519  -15.1353    3.8380 C   0  0  0  0  0  0  0  0  0  0  0  0
   16.6679  -15.2141    3.6550 C   0  0  2  0  0  0  0  0  0  0  0  0
   16.0642  -13.8918    3.6402 N   0  0  0  0  0  0  0  0  0  0  0  0
   16.1508  -15.9836    4.8428 C   0  0  0  0  0  0  0  0  0  0  0  0
   15.4797  -15.4124    5.7140 O   0  0  0  0  0  0  0  0  0  0  0  0
   16.4318  -17.3553    4.9615 N   0  0  0  0  0  0  0  0  0  0  0  0
   15.8952  -18.1925    6.0174 C   0  0  1  0  0  0  0  0  0  0  0  0
   15.4089  -19.4615    5.4370 C   0  0  0  0  0  0  0  0  0  0  0  0
   14.1232  -19.4382    4.7448 C   0  0  0  0  0  0  0  0  0  0  0  0
   13.1845  -18.4894    4.5194 C   0  0  0  0  0  0  0  0  0  0  0  0
   12.1773  -19.0312    3.8220 N   0  0  0  0  0  0  0  0  0  0  0  0
   12.4813  -20.3194    3.6088 C   0  0  0  0  0  0  0  0  0  0  0  0
   13.6561  -20.5837    4.1604 N   0  0  0  0  0  0  0  0  0  0  0  0
   17.0685  -18.4295    6.9467 C   0  0  0  0  0  0  0  0  0  0  0  0
   18.2409  -18.5937    6.5270 O   0  0  0  0  0  0  0  0  0  0  0  0
   18.9428  -18.1561   11.5555 C   0  0  0  0  0  0  0  0  0  0  0  0
   17.7926  -18.0303   10.6172 C   0  0  1  0  0  0  0  0  0  0  0  0
   17.3329  -16.5894   10.5293 C   0  0  0  0  0  0  0  0  0  0  0  0
   17.9914  -18.6575    9.2762 C   0  0  2  0  0  0  0  0  0  0  0  0
   16.8948  -18.4785    8.3603 N   0  0  0  0  0  0  0  0  0  0  0  0
   18.1593  -20.1184    9.4881 C   0  0  0  0  0  0  0  0  0  0  0  0
   19.3969  -20.7375    9.4167 O   0  0  0  0  0  0  0  0  0  0  0  0
   17.1576  -20.8063    9.7374 O   0  0  0  0  0  0  0  0  0  0  0  0
  2  1  1  0
  3  4  1  0
  3  2  1  0
  4  5  1  0
  5  6  1  1
  5  7  1  0
  7  8  2  0
  9  7  1  0
  9 10  1  0
 10 11  1  6
 11 12  1  0
 12 16  1  0
 12 13  2  0
 13 14  1  0
 15 14  1  0
 16 15  2  0
 17 10  1  0
 17 18  2  0
 20 19  1  6
 20 22  1  0
 21 20  1  0
 22 23  1  6
 23 17  1  0
 24 22  1  0
 24 25  1  0
 26 24  2  0
M  END
$$$$
