MHV.pdb
     RDKit          3D

 26 26  0  0  1  0  0  0  0  0999 V2000
   23.1322  -15.6433  -21.1872 C   0  0  0  0  0  0  0  0  0  0  0  0
   22.2645  -14.5271  -20.1007 S   0  0  0  0  0  0  0  0  0  0  0  0
   21.7860  -12.9592  -20.8046 C   0  0  0  0  0  0  0  0  0  0  0  0
   21.0956  -12.0846  -19.8095 C   0  0  0  0  0  0  0  0  0  0  0  0
   22.0748  -11.2826  -19.0096 C   0  0  2  0  0  0  0  0  0  0  0  0
   22.7887  -12.1152  -18.0556 N   0  0  0  0  0  0  0  0  0  0  0  0
   21.2539  -10.2632  -18.2632 C   0  0  0  0  0  0  0  0  0  0  0  0
   20.4936   -9.5014  -18.8774 O   0  0  0  0  0  0  0  0  0  0  0  0
   21.3520  -10.1774  -16.8641 N   0  0  0  0  0  0  0  0  0  0  0  0
   20.4791   -9.3526  -16.0508 C   0  0  1  0  0  0  0  0  0  0  0  0
   19.7811  -10.2028  -15.0641 C   0  0  0  0  0  0  0  0  0  0  0  0
   18.5167  -10.8100  -15.4709 C   0  0  0  0  0  0  0  0  0  0  0  0
   17.7524  -10.7521  -16.5866 C   0  0  0  0  0  0  0  0  0  0  0  0
   16.6664  -11.5162  -16.4098 N   0  0  0  0  0  0  0  0  0  0  0  0
   16.7467  -12.0541  -15.1844 C   0  0  0  0  0  0  0  0  0  0  0  0
   17.8605  -11.6376  -14.6012 N   0  0  0  0  0  0  0  0  0  0  0  0
   21.4114   -8.3729  -15.3672 C   0  0  0  0  0  0  0  0  0  0  0  0
   22.4873   -8.7290  -14.8257 O   0  0  0  0  0  0  0  0  0  0  0  0
   20.8116   -4.1636  -16.0172 C   0  0  0  0  0  0  0  0  0  0  0  0
   22.1195   -4.7501  -15.6116 C   0  0  1  0  0  0  0  0  0  0  0  0
   23.0001   -3.6959  -14.9726 C   0  0  0  0  0  0  0  0  0  0  0  0
   22.0335   -6.0017  -14.8008 C   0  0  2  0  0  0  0  0  0  0  0  0
   21.1071   -6.9821  -15.3048 N   0  0  0  0  0  0  0  0  0  0  0  0
   21.5790   -5.6199  -13.4389 C   0  0  0  0  0  0  0  0  0  0  0  0
   20.3247   -5.9583  -12.9570 O   0  0  0  0  0  0  0  0  0  0  0  0
   22.3487   -4.9766  -12.7091 O   0  0  0  0  0  0  0  0  0  0  0  0
  2  1  1  0
  3  4  1  0
  3  2  1  0
  4  5  1  0
  5  6  1  1
  5  7  1  0
  7  8  2  0
  9  7  1  0
  9 10  1  0
 10 11  1  1
 11 12  1  0
 12 16  1  0
 12 13  2  0
 13 14  1  0
 15 14  1  0
 16 15  2  0
 17 10  1  0
 17 18  2  0
 20 19  1  1
 20 22  1  0
 21 20  1  0
 22 23  1  6
 23 17  1  0
 24 22  1  0
 24 25  1  0
 26 24  2  0
M  END
$$$$
