ALQ.pdb
     RDKit          3D

 23 22  0  0  1  0  0  0  0  0999 V2000
    8.7203  -18.4370   22.3962 C   0  0  0  0  0  0  0  0  0  0  0  0
    7.9107  -17.3653   21.7393 C   0  0  2  0  0  0  0  0  0  0  0  0
    8.1946  -17.1936   20.3413 N   0  0  0  0  0  0  0  0  0  0  0  0
    8.1469  -16.0611   22.4513 C   0  0  0  0  0  0  0  0  0  0  0  0
    9.0078  -15.2595   22.0155 O   0  0  0  0  0  0  0  0  0  0  0  0
    5.6958  -12.4636   26.8273 C   0  0  0  0  0  0  0  0  0  0  0  0
    6.7611  -12.6370   25.7370 C   0  0  1  0  0  0  0  0  0  0  0  0
    8.0956  -12.5628   26.4478 C   0  0  0  0  0  0  0  0  0  0  0  0
    6.5612  -14.0289   25.1847 C   0  0  0  0  0  0  0  0  0  0  0  0
    7.6583  -14.4334   24.2238 C   0  0  2  0  0  0  0  0  0  0  0  0
    7.4216  -15.7021   23.6117 N   0  0  0  0  0  0  0  0  0  0  0  0
    8.9113  -14.5050   25.0315 C   0  0  0  0  0  0  0  0  0  0  0  0
    9.2433  -13.4715   25.6739 O   0  0  0  0  0  0  0  0  0  0  0  0
   11.0865  -15.2857   29.9087 N   0  0  0  0  0  0  0  0  0  0  0  0
   10.4859  -16.4609   29.3914 C   0  0  0  0  0  0  0  0  0  0  0  0
   10.2665  -17.4369   30.1385 O   0  0  0  0  0  0  0  0  0  0  0  0
   10.1147  -16.5292   27.9454 C   0  0  0  0  0  0  0  0  0  0  0  0
   10.6321  -15.2984   27.2756 C   0  0  0  0  0  0  0  0  0  0  0  0
   10.9688  -15.5799   25.8464 C   0  0  2  0  0  0  0  0  0  0  0  0
    9.7084  -15.6609   25.0934 N   0  0  0  0  0  0  0  0  0  0  0  0
   11.7024  -16.8167   25.5887 C   0  0  0  0  0  0  0  0  0  0  0  0
   11.0417  -17.8898   24.9585 O   0  0  0  0  0  0  0  0  0  0  0  0
   12.9153  -16.9391   25.9206 O   0  0  0  0  0  0  0  0  0  0  0  0
  2  1  1  1
  2  3  1  0
  4  2  1  0
  4  5  2  0
  7  6  1  1
  7  9  1  0
  8  7  1  0
 10  9  1  1
 10 12  1  0
 10 11  1  0
 11  4  1  0
 12 13  2  0
 15 14  1  0
 16 15  2  0
 17 15  1  0
 18 17  1  0
 19 18  1  1
 20 19  1  0
 20 12  1  0
 21 19  1  0
 22 21  1  0
 23 21  2  0
M  END
$$$$
