ALQ.pdb
     RDKit          3D

 23 22  0  0  1  0  0  0  0  0999 V2000
    7.0945  -18.7158   23.1850 C   0  0  0  0  0  0  0  0  0  0  0  0
    6.6791  -17.5066   22.4098 C   0  0  2  0  0  0  0  0  0  0  0  0
    7.0510  -17.5467   21.0225 N   0  0  0  0  0  0  0  0  0  0  0  0
    7.2815  -16.2823   23.0437 C   0  0  0  0  0  0  0  0  0  0  0  0
    8.3914  -15.8552   22.6446 O   0  0  0  0  0  0  0  0  0  0  0  0
    6.9146  -11.4023   24.9058 C   0  0  0  0  0  0  0  0  0  0  0  0
    6.9499  -12.3823   26.0857 C   0  0  1  0  0  0  0  0  0  0  0  0
    6.0627  -11.7768   27.1524 C   0  0  0  0  0  0  0  0  0  0  0  0
    6.3255  -13.6606   25.5770 C   0  0  0  0  0  0  0  0  0  0  0  0
    7.2451  -14.4243   24.6489 C   0  0  2  0  0  0  0  0  0  0  0  0
    6.6305  -15.5859   24.0891 N   0  0  0  0  0  0  0  0  0  0  0  0
    8.4166  -14.8396   25.4751 C   0  0  0  0  0  0  0  0  0  0  0  0
    9.1538  -13.9238   25.9321 O   0  0  0  0  0  0  0  0  0  0  0  0
    9.7194  -20.8108   28.1358 N   0  0  0  0  0  0  0  0  0  0  0  0
   10.1078  -19.5603   28.6787 C   0  0  0  0  0  0  0  0  0  0  0  0
   10.0275  -19.3555   29.9077 O   0  0  0  0  0  0  0  0  0  0  0  0
   10.6152  -18.4845   27.7741 C   0  0  0  0  0  0  0  0  0  0  0  0
    9.5276  -17.4760   27.5981 C   0  0  0  0  0  0  0  0  0  0  0  0
    9.9062  -16.4707   26.5583 C   0  0  2  0  0  0  0  0  0  0  0  0
    8.7116  -16.1860   25.7496 N   0  0  0  0  0  0  0  0  0  0  0  0
   10.9653  -16.8677   25.6336 C   0  0  0  0  0  0  0  0  0  0  0  0
   12.2771  -16.4007   25.8489 O   0  0  0  0  0  0  0  0  0  0  0  0
   10.7248  -17.6201   24.6475 O   0  0  0  0  0  0  0  0  0  0  0  0
  2  1  1  1
  2  3  1  0
  4  2  1  0
  4  5  2  0
  7  6  1  6
  7  9  1  0
  8  7  1  0
 10  9  1  1
 10 12  1  0
 10 11  1  0
 11  4  1  0
 12 13  2  0
 15 14  1  0
 16 15  2  0
 17 15  1  0
 18 17  1  0
 19 18  1  1
 20 19  1  0
 20 12  1  0
 21 19  1  0
 22 21  1  0
 23 21  2  0
M  END
$$$$
