ALQ.pdb
     RDKit          3D

 23 22  0  0  1  0  0  0  0  0999 V2000
    7.7268  -17.4066   21.1548 C   0  0  0  0  0  0  0  0  0  0  0  0
    8.1970  -15.9973   20.9873 C   0  0  2  0  0  0  0  0  0  0  0  0
    9.2841  -15.8512   20.0591 N   0  0  0  0  0  0  0  0  0  0  0  0
    8.6189  -15.4547   22.3257 C   0  0  0  0  0  0  0  0  0  0  0  0
    9.8382  -15.3680   22.6074 O   0  0  0  0  0  0  0  0  0  0  0  0
    8.4582  -11.8865   26.0613 C   0  0  0  0  0  0  0  0  0  0  0  0
    7.5120  -13.0140   26.4942 C   0  0  1  0  0  0  0  0  0  0  0  0
    6.3510  -12.3351   27.1889 C   0  0  0  0  0  0  0  0  0  0  0  0
    7.0278  -13.6576   25.2159 C   0  0  0  0  0  0  0  0  0  0  0  0
    8.1292  -14.3962   24.4867 C   0  0  2  0  0  0  0  0  0  0  0  0
    7.6749  -15.0328   23.2913 N   0  0  0  0  0  0  0  0  0  0  0  0
    8.6305  -15.4343   25.4347 C   0  0  0  0  0  0  0  0  0  0  0  0
    7.7964  -16.2813   25.8564 O   0  0  0  0  0  0  0  0  0  0  0  0
   11.3410  -19.2733   23.4072 N   0  0  0  0  0  0  0  0  0  0  0  0
   11.6270  -18.7684   24.7004 C   0  0  0  0  0  0  0  0  0  0  0  0
   11.6885  -19.5418   25.6787 O   0  0  0  0  0  0  0  0  0  0  0  0
   11.8555  -17.3039   24.8910 C   0  0  0  0  0  0  0  0  0  0  0  0
   11.7605  -17.0064   26.3516 C   0  0  0  0  0  0  0  0  0  0  0  0
   10.3648  -16.6158   26.7188 C   0  0  2  0  0  0  0  0  0  0  0  0
    9.9696  -15.4913   25.8578 N   0  0  0  0  0  0  0  0  0  0  0  0
   10.1570  -16.1911   28.1011 C   0  0  0  0  0  0  0  0  0  0  0  0
   10.2853  -17.1366   29.1379 O   0  0  0  0  0  0  0  0  0  0  0  0
    9.8652  -14.9940   28.3809 O   0  0  0  0  0  0  0  0  0  0  0  0
  2  1  1  1
  2  3  1  0
  4  2  1  0
  4  5  2  0
  7  6  1  6
  7  9  1  0
  8  7  1  0
 10  9  1  1
 10 12  1  0
 10 11  1  0
 11  4  1  0
 12 13  2  0
 15 14  1  0
 16 15  2  0
 17 15  1  0
 18 17  1  0
 19 18  1  1
 20 19  1  0
 20 12  1  0
 21 19  1  0
 22 21  1  0
 23 21  2  0
M  END
$$$$
