ALQ.pdb
     RDKit          3D

 23 22  0  0  1  0  0  0  0  0999 V2000
    7.8628  -12.9710   19.9478 C   0  0  0  0  0  0  0  0  0  0  0  0
    7.9086  -14.3446   20.5366 C   0  0  2  0  0  0  0  0  0  0  0  0
    6.6575  -15.0484   20.4738 N   0  0  0  0  0  0  0  0  0  0  0  0
    8.3477  -14.2524   21.9726 C   0  0  0  0  0  0  0  0  0  0  0  0
    9.5348  -13.9510   22.2438 O   0  0  0  0  0  0  0  0  0  0  0  0
    5.2066  -12.3651   26.2280 C   0  0  0  0  0  0  0  0  0  0  0  0
    6.4650  -12.5092   25.3621 C   0  0  1  0  0  0  0  0  0  0  0  0
    7.5589  -11.7629   26.0956 C   0  0  0  0  0  0  0  0  0  0  0  0
    6.7858  -13.9855   25.3460 C   0  0  0  0  0  0  0  0  0  0  0  0
    7.9070  -14.3236   24.3873 C   0  0  2  0  0  0  0  0  0  0  0  0
    7.4558  -14.4973   23.0432 N   0  0  0  0  0  0  0  0  0  0  0  0
    8.4979  -15.6043   24.8754 C   0  0  0  0  0  0  0  0  0  0  0  0
    7.9615  -16.6750   24.4791 O   0  0  0  0  0  0  0  0  0  0  0  0
   14.3029  -16.0404   24.1724 N   0  0  0  0  0  0  0  0  0  0  0  0
   13.6065  -17.0849   23.5142 C   0  0  0  0  0  0  0  0  0  0  0  0
   14.2143  -17.8620   22.7489 O   0  0  0  0  0  0  0  0  0  0  0  0
   12.1389  -17.2545   23.7389 C   0  0  0  0  0  0  0  0  0  0  0  0
   11.6995  -16.2248   24.7275 C   0  0  0  0  0  0  0  0  0  0  0  0
   10.5694  -16.7423   25.5584 C   0  0  2  0  0  0  0  0  0  0  0  0
    9.6048  -15.6475   25.7403 N   0  0  0  0  0  0  0  0  0  0  0  0
   10.9196  -17.2309   26.8899 C   0  0  0  0  0  0  0  0  0  0  0  0
   10.7327  -16.3876   28.0032 O   0  0  0  0  0  0  0  0  0  0  0  0
   11.3856  -18.3931   27.0587 O   0  0  0  0  0  0  0  0  0  0  0  0
  2  1  1  1
  2  3  1  0
  4  2  1  0
  4  5  2  0
  7  6  1  1
  7  9  1  0
  8  7  1  0
 10  9  1  1
 10 12  1  0
 10 11  1  0
 11  4  1  0
 12 13  2  0
 15 14  1  0
 16 15  2  0
 17 15  1  0
 18 17  1  0
 19 18  1  1
 20 19  1  0
 20 12  1  0
 21 19  1  0
 22 21  1  0
 23 21  2  0
M  END
$$$$
