ALQ.pdb
     RDKit          3D

 23 22  0  0  1  0  0  0  0  0999 V2000
    6.9701  -16.3222   20.8279 C   0  0  0  0  0  0  0  0  0  0  0  0
    7.1996  -14.8550   21.0017 C   0  0  2  0  0  0  0  0  0  0  0  0
    7.9830  -14.2590   19.9550 N   0  0  0  0  0  0  0  0  0  0  0  0
    7.8805  -14.6142   22.3215 C   0  0  0  0  0  0  0  0  0  0  0  0
    9.1334  -14.6044   22.3844 O   0  0  0  0  0  0  0  0  0  0  0  0
    5.7121  -11.8360   26.7759 C   0  0  0  0  0  0  0  0  0  0  0  0
    6.6626  -12.2302   25.6379 C   0  0  1  0  0  0  0  0  0  0  0  0
    7.9162  -11.4065   25.8426 C   0  0  0  0  0  0  0  0  0  0  0  0
    6.9791  -13.6916   25.8543 C   0  0  0  0  0  0  0  0  0  0  0  0
    7.8424  -14.2661   24.7520 C   0  0  2  0  0  0  0  0  0  0  0  0
    7.1468  -14.3953   23.5111 N   0  0  0  0  0  0  0  0  0  0  0  0
    8.2662  -15.6186   25.2196 C   0  0  0  0  0  0  0  0  0  0  0  0
    7.4102  -16.5433   25.1619 O   0  0  0  0  0  0  0  0  0  0  0  0
   12.6584  -18.4523   23.2182 N   0  0  0  0  0  0  0  0  0  0  0  0
   13.0338  -17.3661   24.0480 C   0  0  0  0  0  0  0  0  0  0  0  0
   14.1110  -16.7663   23.8507 O   0  0  0  0  0  0  0  0  0  0  0  0
   12.1349  -16.9393   25.1629 C   0  0  0  0  0  0  0  0  0  0  0  0
   10.8985  -17.7754   25.1071 C   0  0  0  0  0  0  0  0  0  0  0  0
    9.8776  -17.2692   26.0750 C   0  0  2  0  0  0  0  0  0  0  0  0
    9.5573  -15.8817   25.7086 N   0  0  0  0  0  0  0  0  0  0  0  0
   10.2716  -17.2611   27.4818 C   0  0  0  0  0  0  0  0  0  0  0  0
   10.6537  -18.4702   28.0960 O   0  0  0  0  0  0  0  0  0  0  0  0
   10.2752  -16.1913   28.1540 O   0  0  0  0  0  0  0  0  0  0  0  0
  2  1  1  6
  2  3  1  0
  4  2  1  0
  4  5  2  0
  7  6  1  1
  7  9  1  0
  8  7  1  0
 10  9  1  1
 10 12  1  0
 10 11  1  0
 11  4  1  0
 12 13  2  0
 15 14  1  0
 16 15  2  0
 17 15  1  0
 18 17  1  0
 19 18  1  6
 20 19  1  0
 20 12  1  0
 21 19  1  0
 22 21  1  0
 23 21  2  0
M  END
$$$$
