ALQ.pdb
     RDKit          3D

 23 22  0  0  1  0  0  0  0  0999 V2000
    7.9832  -12.9299   19.3666 C   0  0  0  0  0  0  0  0  0  0  0  0
    7.8133  -14.2093   20.1214 C   0  0  2  0  0  0  0  0  0  0  0  0
    6.4787  -14.7397   20.0778 N   0  0  0  0  0  0  0  0  0  0  0  0
    8.2081  -13.9924   21.5569 C   0  0  0  0  0  0  0  0  0  0  0  0
    9.4103  -13.7845   21.8486 O   0  0  0  0  0  0  0  0  0  0  0  0
    8.0846  -11.8039   26.1547 C   0  0  0  0  0  0  0  0  0  0  0  0
    7.0564  -12.9400   26.2325 C   0  0  1  0  0  0  0  0  0  0  0  0
    5.9040  -12.3988   27.0515 C   0  0  0  0  0  0  0  0  0  0  0  0
    6.5979  -13.1772   24.8126 C   0  0  0  0  0  0  0  0  0  0  0  0
    7.6843  -13.7770   23.9463 C   0  0  2  0  0  0  0  0  0  0  0  0
    7.2572  -14.0151   22.6042 N   0  0  0  0  0  0  0  0  0  0  0  0
    8.0512  -15.0766   24.5818 C   0  0  0  0  0  0  0  0  0  0  0  0
    7.1551  -15.9621   24.6431 O   0  0  0  0  0  0  0  0  0  0  0  0
   12.2309  -17.9119   22.2067 N   0  0  0  0  0  0  0  0  0  0  0  0
   12.0141  -18.8659   23.2325 C   0  0  0  0  0  0  0  0  0  0  0  0
   12.5095  -20.0085   23.1443 O   0  0  0  0  0  0  0  0  0  0  0  0
   11.1887  -18.4998   24.4233 C   0  0  0  0  0  0  0  0  0  0  0  0
   10.7168  -17.0938   24.2455 C   0  0  0  0  0  0  0  0  0  0  0  0
    9.7186  -16.7371   25.2998 C   0  0  2  0  0  0  0  0  0  0  0  0
    9.3328  -15.3325   25.0991 N   0  0  0  0  0  0  0  0  0  0  0  0
   10.1694  -16.8644   26.6836 C   0  0  0  0  0  0  0  0  0  0  0  0
   10.3353  -18.1493   27.2375 O   0  0  0  0  0  0  0  0  0  0  0  0
   10.4120  -15.8447   27.3891 O   0  0  0  0  0  0  0  0  0  0  0  0
  2  1  1  6
  2  3  1  0
  4  2  1  0
  4  5  2  0
  7  6  1  6
  7  9  1  0
  8  7  1  0
 10  9  1  1
 10 12  1  0
 10 11  1  0
 11  4  1  0
 12 13  2  0
 15 14  1  0
 16 15  2  0
 17 15  1  0
 18 17  1  0
 19 18  1  6
 20 19  1  0
 20 12  1  0
 21 19  1  0
 22 21  1  0
 23 21  2  0
M  END
$$$$
