ALQ.pdb
     RDKit          3D

 23 22  0  0  1  0  0  0  0  0999 V2000
    6.7337  -18.4828   23.2765 C   0  0  0  0  0  0  0  0  0  0  0  0
    6.8723  -17.1122   22.6953 C   0  0  2  0  0  0  0  0  0  0  0  0
    7.4416  -17.0926   21.3762 N   0  0  0  0  0  0  0  0  0  0  0  0
    7.7224  -16.2717   23.6087 C   0  0  0  0  0  0  0  0  0  0  0  0
    8.9660  -16.2378   23.4475 O   0  0  0  0  0  0  0  0  0  0  0  0
    5.6535  -11.9113   26.4525 C   0  0  0  0  0  0  0  0  0  0  0  0
    6.4376  -12.7950   25.4735 C   0  0  1  0  0  0  0  0  0  0  0  0
    7.3465  -11.8574   24.7077 C   0  0  0  0  0  0  0  0  0  0  0  0
    7.2724  -13.7174   26.3308 C   0  0  0  0  0  0  0  0  0  0  0  0
    8.0180  -14.7501   25.5133 C   0  0  2  0  0  0  0  0  0  0  0  0
    7.1603  -15.5074   24.6581 N   0  0  0  0  0  0  0  0  0  0  0  0
    8.6653  -15.6682   26.4959 C   0  0  0  0  0  0  0  0  0  0  0  0
    7.9295  -16.5272   27.0542 O   0  0  0  0  0  0  0  0  0  0  0  0
   12.8500  -19.5284   26.9823 N   0  0  0  0  0  0  0  0  0  0  0  0
   12.3578  -18.9403   25.7901 C   0  0  0  0  0  0  0  0  0  0  0  0
   12.4035  -19.5694   24.7126 O   0  0  0  0  0  0  0  0  0  0  0  0
   11.7823  -17.5617   25.8260 C   0  0  0  0  0  0  0  0  0  0  0  0
   11.9035  -17.0452   27.2222 C   0  0  0  0  0  0  0  0  0  0  0  0
   10.5705  -16.6064   27.7380 C   0  0  2  0  0  0  0  0  0  0  0  0
   10.0345  -15.6028   26.8066 N   0  0  0  0  0  0  0  0  0  0  0  0
   10.5610  -16.0044   29.0691 C   0  0  0  0  0  0  0  0  0  0  0  0
   10.9037  -16.7949   30.1839 O   0  0  0  0  0  0  0  0  0  0  0  0
   10.2513  -14.7909   29.2361 O   0  0  0  0  0  0  0  0  0  0  0  0
  2  1  1  1
  2  3  1  0
  4  2  1  0
  4  5  2  0
  7  6  1  1
  7  9  1  0
  8  7  1  0
 10  9  1  1
 10 12  1  0
 10 11  1  0
 11  4  1  0
 12 13  2  0
 15 14  1  0
 16 15  2  0
 17 15  1  0
 18 17  1  0
 19 18  1  6
 20 19  1  0
 20 12  1  0
 21 19  1  0
 22 21  1  0
 23 21  2  0
M  END
$$$$
