ALQ.pdb
     RDKit          3D

 23 22  0  0  1  0  0  0  0  0999 V2000
    6.5459  -16.1428   20.8581 C   0  0  0  0  0  0  0  0  0  0  0  0
    6.9551  -14.7130   21.0118 C   0  0  2  0  0  0  0  0  0  0  0  0
    7.7776  -14.2230   19.9404 N   0  0  0  0  0  0  0  0  0  0  0  0
    7.6938  -14.5474   22.3120 C   0  0  0  0  0  0  0  0  0  0  0  0
    8.9459  -14.6222   22.3320 O   0  0  0  0  0  0  0  0  0  0  0  0
    5.6019  -11.7701   26.7923 C   0  0  0  0  0  0  0  0  0  0  0  0
    6.5109  -12.1452   25.6146 C   0  0  1  0  0  0  0  0  0  0  0  0
    7.7107  -11.2272   25.7101 C   0  0  0  0  0  0  0  0  0  0  0  0
    6.9451  -13.5699   25.8682 C   0  0  0  0  0  0  0  0  0  0  0  0
    7.7694  -14.1346   24.7315 C   0  0  2  0  0  0  0  0  0  0  0  0
    7.0159  -14.3067   23.5303 N   0  0  0  0  0  0  0  0  0  0  0  0
    8.2609  -15.4649   25.1967 C   0  0  0  0  0  0  0  0  0  0  0  0
    7.4007  -16.3728   25.3601 O   0  0  0  0  0  0  0  0  0  0  0  0
   14.5786  -17.2100   24.0734 N   0  0  0  0  0  0  0  0  0  0  0  0
   13.2089  -16.9174   23.8553 C   0  0  0  0  0  0  0  0  0  0  0  0
   12.7584  -16.8435   22.6932 O   0  0  0  0  0  0  0  0  0  0  0  0
   12.3025  -16.6970   25.0228 C   0  0  0  0  0  0  0  0  0  0  0  0
   11.0742  -17.5219   24.8180 C   0  0  0  0  0  0  0  0  0  0  0  0
    9.9988  -17.1089   25.7709 C   0  0  2  0  0  0  0  0  0  0  0  0
    9.6186  -15.7252   25.4502 N   0  0  0  0  0  0  0  0  0  0  0  0
   10.3478  -17.1399   27.1892 C   0  0  0  0  0  0  0  0  0  0  0  0
   10.6817  -18.3705   27.7887 O   0  0  0  0  0  0  0  0  0  0  0  0
   10.3549  -16.0849   27.8844 O   0  0  0  0  0  0  0  0  0  0  0  0
  2  1  1  6
  2  3  1  0
  4  2  1  0
  4  5  2  0
  7  6  1  1
  7  9  1  0
  8  7  1  0
 10  9  1  1
 10 12  1  0
 10 11  1  0
 11  4  1  0
 12 13  2  0
 15 14  1  0
 16 15  2  0
 17 15  1  0
 18 17  1  0
 19 18  1  6
 20 19  1  0
 20 12  1  0
 21 19  1  0
 22 21  1  0
 23 21  2  0
M  END
$$$$
