ALQ.pdb
     RDKit          3D

 23 22  0  0  1  0  0  0  0  0999 V2000
    8.1027  -17.6766   21.3113 C   0  0  0  0  0  0  0  0  0  0  0  0
    8.2393  -16.2026   21.1010 C   0  0  2  0  0  0  0  0  0  0  0  0
    9.2405  -15.8411   20.1359 N   0  0  0  0  0  0  0  0  0  0  0  0
    8.5639  -15.5441   22.4143 C   0  0  0  0  0  0  0  0  0  0  0  0
    9.7586  -15.4446   22.7838 O   0  0  0  0  0  0  0  0  0  0  0  0
    8.0278  -11.7535   25.9289 C   0  0  0  0  0  0  0  0  0  0  0  0
    7.1614  -12.9317   26.3929 C   0  0  1  0  0  0  0  0  0  0  0  0
    5.9373  -12.3161   27.0365 C   0  0  0  0  0  0  0  0  0  0  0  0
    6.7552  -13.6634   25.1351 C   0  0  0  0  0  0  0  0  0  0  0  0
    7.9234  -14.3527   24.4638 C   0  0  2  0  0  0  0  0  0  0  0  0
    7.5544  -15.0259   23.2592 N   0  0  0  0  0  0  0  0  0  0  0  0
    8.4357  -15.3522   25.4467 C   0  0  0  0  0  0  0  0  0  0  0  0
    7.6723  -16.3107   25.7458 O   0  0  0  0  0  0  0  0  0  0  0  0
   13.6706  -17.6355   24.9799 N   0  0  0  0  0  0  0  0  0  0  0  0
   12.4855  -18.3255   24.6212 C   0  0  0  0  0  0  0  0  0  0  0  0
   12.5093  -19.1926   23.7232 O   0  0  0  0  0  0  0  0  0  0  0  0
   11.2036  -18.0119   25.3224 C   0  0  0  0  0  0  0  0  0  0  0  0
   11.4561  -16.8821   26.2662 C   0  0  0  0  0  0  0  0  0  0  0  0
   10.1715  -16.3874   26.8496 C   0  0  2  0  0  0  0  0  0  0  0  0
    9.7103  -15.2563   26.0311 N   0  0  0  0  0  0  0  0  0  0  0  0
   10.2294  -15.9204   28.2327 C   0  0  0  0  0  0  0  0  0  0  0  0
   10.0126  -14.5556   28.5075 O   0  0  0  0  0  0  0  0  0  0  0  0
   10.4700  -16.7177   29.1828 O   0  0  0  0  0  0  0  0  0  0  0  0
  2  1  1  1
  2  3  1  0
  4  2  1  0
  4  5  2  0
  7  6  1  6
  7  9  1  0
  8  7  1  0
 10  9  1  1
 10 12  1  0
 10 11  1  0
 11  4  1  0
 12 13  2  0
 15 14  1  0
 16 15  2  0
 17 15  1  0
 18 17  1  0
 19 18  1  6
 20 19  1  0
 20 12  1  0
 21 19  1  0
 22 21  1  0
 23 21  2  0
M  END
$$$$
