ALQ.pdb
     RDKit          3D

 23 22  0  0  1  0  0  0  0  0999 V2000
    6.6961  -18.9978   23.7199 C   0  0  0  0  0  0  0  0  0  0  0  0
    6.2563  -17.6555   23.2296 C   0  0  2  0  0  0  0  0  0  0  0  0
    6.0121  -17.6023   21.8147 N   0  0  0  0  0  0  0  0  0  0  0  0
    7.3008  -16.6328   23.5856 C   0  0  0  0  0  0  0  0  0  0  0  0
    8.3662  -16.5735   22.9260 O   0  0  0  0  0  0  0  0  0  0  0  0
    6.0988  -11.9953   26.5584 C   0  0  0  0  0  0  0  0  0  0  0  0
    6.5958  -12.8378   25.3764 C   0  0  1  0  0  0  0  0  0  0  0  0
    7.1776  -11.8542   24.3836 C   0  0  0  0  0  0  0  0  0  0  0  0
    7.6999  -13.7091   25.9283 C   0  0  0  0  0  0  0  0  0  0  0  0
    8.1451  -14.7707   24.9458 C   0  0  2  0  0  0  0  0  0  0  0  0
    7.1209  -15.7226   24.6537 N   0  0  0  0  0  0  0  0  0  0  0  0
    9.2972  -15.4711   25.5858 C   0  0  0  0  0  0  0  0  0  0  0  0
   10.2413  -14.7539   26.0162 O   0  0  0  0  0  0  0  0  0  0  0  0
    9.6024  -20.9146   28.3788 N   0  0  0  0  0  0  0  0  0  0  0  0
   10.9647  -20.5239   28.4074 C   0  0  0  0  0  0  0  0  0  0  0  0
   11.7885  -21.1628   29.0944 O   0  0  0  0  0  0  0  0  0  0  0  0
   11.4141  -19.3420   27.6109 C   0  0  0  0  0  0  0  0  0  0  0  0
   10.2036  -18.6867   27.0311 C   0  0  0  0  0  0  0  0  0  0  0  0
   10.5833  -17.4489   26.2833 C   0  0  2  0  0  0  0  0  0  0  0  0
    9.3561  -16.8691   25.7178 N   0  0  0  0  0  0  0  0  0  0  0  0
   11.5224  -17.6263   25.1783 C   0  0  0  0  0  0  0  0  0  0  0  0
   11.0415  -17.5903   23.8544 O   0  0  0  0  0  0  0  0  0  0  0  0
   12.7543  -17.8108   25.3899 O   0  0  0  0  0  0  0  0  0  0  0  0
  2  1  1  6
  2  3  1  0
  4  2  1  0
  4  5  2  0
  7  6  1  1
  7  9  1  0
  8  7  1  0
 10  9  1  1
 10 12  1  0
 10 11  1  0
 11  4  1  0
 12 13  2  0
 15 14  1  0
 16 15  2  0
 17 15  1  0
 18 17  1  0
 19 18  1  6
 20 19  1  0
 20 12  1  0
 21 19  1  0
 22 21  1  0
 23 21  2  0
M  END
$$$$
