ALQ.pdb
     RDKit          3D

 23 22  0  0  1  0  0  0  0  0999 V2000
    6.0050  -17.2533   21.9372 C   0  0  0  0  0  0  0  0  0  0  0  0
    6.4592  -15.8550   21.6648 C   0  0  2  0  0  0  0  0  0  0  0  0
    7.0995  -15.6875   20.3895 N   0  0  0  0  0  0  0  0  0  0  0  0
    7.4075  -15.4232   22.7500 C   0  0  0  0  0  0  0  0  0  0  0  0
    8.6445  -15.5519   22.5851 O   0  0  0  0  0  0  0  0  0  0  0  0
    5.9342  -11.6689   26.6607 C   0  0  0  0  0  0  0  0  0  0  0  0
    6.6155  -12.3556   25.4699 C   0  0  1  0  0  0  0  0  0  0  0  0
    7.6742  -11.3881   24.9854 C   0  0  0  0  0  0  0  0  0  0  0  0
    7.2806  -13.5899   26.0328 C   0  0  0  0  0  0  0  0  0  0  0  0
    7.8927  -14.4594   24.9559 C   0  0  2  0  0  0  0  0  0  0  0  0
    6.9465  -14.8691   23.9674 N   0  0  0  0  0  0  0  0  0  0  0  0
    8.4281  -15.6663   25.6519 C   0  0  0  0  0  0  0  0  0  0  0  0
    7.5880  -16.4861   26.1135 O   0  0  0  0  0  0  0  0  0  0  0  0
    8.4073  -20.3420   23.7485 N   0  0  0  0  0  0  0  0  0  0  0  0
    9.3185  -20.4523   24.8286 C   0  0  0  0  0  0  0  0  0  0  0  0
    9.1820  -21.3580   25.6772 O   0  0  0  0  0  0  0  0  0  0  0  0
   10.4463  -19.4795   24.9499 C   0  0  0  0  0  0  0  0  0  0  0  0
    9.8827  -18.1006   24.8396 C   0  0  0  0  0  0  0  0  0  0  0  0
   10.2318  -17.2919   26.0477 C   0  0  2  0  0  0  0  0  0  0  0  0
    9.8047  -15.9065   25.8022 N   0  0  0  0  0  0  0  0  0  0  0  0
   11.6474  -17.2471   26.4062 C   0  0  0  0  0  0  0  0  0  0  0  0
   12.2644  -18.4060   26.9176 O   0  0  0  0  0  0  0  0  0  0  0  0
   12.3247  -16.1899   26.2656 O   0  0  0  0  0  0  0  0  0  0  0  0
  2  1  1  1
  2  3  1  0
  4  2  1  0
  4  5  2  0
  7  6  1  1
  7  9  1  0
  8  7  1  0
 10  9  1  1
 10 12  1  0
 10 11  1  0
 11  4  1  0
 12 13  2  0
 15 14  1  0
 16 15  2  0
 17 15  1  0
 18 17  1  0
 19 18  1  6
 20 19  1  0
 20 12  1  0
 21 19  1  0
 22 21  1  0
 23 21  2  0
M  END
$$$$
