ALQ.pdb
     RDKit          3D

 23 22  0  0  1  0  0  0  0  0999 V2000
    6.9950  -15.3905   20.3325 C   0  0  0  0  0  0  0  0  0  0  0  0
    7.2403  -13.9772   20.7546 C   0  0  2  0  0  0  0  0  0  0  0  0
    8.0311  -13.2194   19.8247 N   0  0  0  0  0  0  0  0  0  0  0  0
    7.9227  -13.9733   22.0955 C   0  0  0  0  0  0  0  0  0  0  0  0
    9.1753  -13.9471   22.1580 O   0  0  0  0  0  0  0  0  0  0  0  0
    5.9199  -11.7844   26.9202 C   0  0  0  0  0  0  0  0  0  0  0  0
    6.8509  -12.0712   25.7348 C   0  0  1  0  0  0  0  0  0  0  0  0
    8.1651  -11.3987   26.0697 C   0  0  0  0  0  0  0  0  0  0  0  0
    7.0422  -13.5697   25.7158 C   0  0  0  0  0  0  0  0  0  0  0  0
    7.8909  -14.0299   24.5503 C   0  0  2  0  0  0  0  0  0  0  0  0
    7.1904  -13.9985   23.3058 N   0  0  0  0  0  0  0  0  0  0  0  0
    8.2860  -15.4366   24.8550 C   0  0  0  0  0  0  0  0  0  0  0  0
    7.3860  -16.3173   24.7820 O   0  0  0  0  0  0  0  0  0  0  0  0
   12.3141  -18.9283   21.7810 N   0  0  0  0  0  0  0  0  0  0  0  0
   12.2367  -17.7210   22.5198 C   0  0  0  0  0  0  0  0  0  0  0  0
   13.2300  -16.9690   22.6026 O   0  0  0  0  0  0  0  0  0  0  0  0
   10.9599  -17.3492   23.2014 C   0  0  0  0  0  0  0  0  0  0  0  0
   11.1450  -17.5447   24.6706 C   0  0  0  0  0  0  0  0  0  0  0  0
    9.8835  -17.2245   25.4065 C   0  0  2  0  0  0  0  0  0  0  0  0
    9.5974  -15.7955   25.2110 N   0  0  0  0  0  0  0  0  0  0  0  0
    9.8991  -17.4654   26.8473 C   0  0  0  0  0  0  0  0  0  0  0  0
   10.0265  -18.7858   27.3225 O   0  0  0  0  0  0  0  0  0  0  0  0
    9.8005  -16.5126   27.6711 O   0  0  0  0  0  0  0  0  0  0  0  0
  2  1  1  6
  2  3  1  0
  4  2  1  0
  4  5  2  0
  7  6  1  1
  7  9  1  0
  8  7  1  0
 10  9  1  1
 10 12  1  0
 10 11  1  0
 11  4  1  0
 12 13  2  0
 15 14  1  0
 16 15  2  0
 17 15  1  0
 18 17  1  0
 19 18  1  1
 20 19  1  0
 20 12  1  0
 21 19  1  0
 22 21  1  0
 23 21  2  0
M  END
$$$$
