ALQ.pdb
     RDKit          3D

 23 22  0  0  1  0  0  0  0  0999 V2000
    7.7748  -13.9118   19.6483 C   0  0  0  0  0  0  0  0  0  0  0  0
    7.7491  -15.0648   20.5999 C   0  0  2  0  0  0  0  0  0  0  0  0
    6.4684  -15.7080   20.7028 N   0  0  0  0  0  0  0  0  0  0  0  0
    8.1697  -14.5892   21.9639 C   0  0  0  0  0  0  0  0  0  0  0  0
    9.3403  -14.1769   22.1472 O   0  0  0  0  0  0  0  0  0  0  0  0
    7.8042  -11.7313   26.1581 C   0  0  0  0  0  0  0  0  0  0  0  0
    7.0567  -13.0251   26.5065 C   0  0  1  0  0  0  0  0  0  0  0  0
    5.8639  -12.6022   27.3372 C   0  0  0  0  0  0  0  0  0  0  0  0
    6.5785  -13.5907   25.1897 C   0  0  0  0  0  0  0  0  0  0  0  0
    7.7177  -14.0845   24.3242 C   0  0  2  0  0  0  0  0  0  0  0  0
    7.2786  -14.5908   23.0627 N   0  0  0  0  0  0  0  0  0  0  0  0
    8.3752  -15.1830   25.0913 C   0  0  0  0  0  0  0  0  0  0  0  0
    7.6507  -16.1527   25.4459 O   0  0  0  0  0  0  0  0  0  0  0  0
   14.0057  -16.8719   23.9677 N   0  0  0  0  0  0  0  0  0  0  0  0
   12.8497  -17.0850   23.1754 C   0  0  0  0  0  0  0  0  0  0  0  0
   12.9605  -17.3932   21.9705 O   0  0  0  0  0  0  0  0  0  0  0  0
   11.4941  -16.9394   23.7871 C   0  0  0  0  0  0  0  0  0  0  0  0
   11.6713  -16.5749   25.2248 C   0  0  0  0  0  0  0  0  0  0  0  0
   10.3439  -16.4201   25.8952 C   0  0  2  0  0  0  0  0  0  0  0  0
    9.7417  -15.1659   25.4196 N   0  0  0  0  0  0  0  0  0  0  0  0
   10.3623  -16.3605   27.3548 C   0  0  0  0  0  0  0  0  0  0  0  0
   10.1863  -17.5471   28.0940 O   0  0  0  0  0  0  0  0  0  0  0  0
   10.5328  -15.2661   27.9628 O   0  0  0  0  0  0  0  0  0  0  0  0
  2  1  1  6
  2  3  1  0
  4  2  1  0
  4  5  2  0
  7  6  1  6
  7  9  1  0
  8  7  1  0
 10  9  1  1
 10 12  1  0
 10 11  1  0
 11  4  1  0
 12 13  2  0
 15 14  1  0
 16 15  2  0
 17 15  1  0
 18 17  1  0
 19 18  1  6
 20 19  1  0
 20 12  1  0
 21 19  1  0
 22 21  1  0
 23 21  2  0
M  END
$$$$
