ALQ.pdb
     RDKit          3D

 23 22  0  0  1  0  0  0  0  0999 V2000
    7.2519  -16.8821   20.6324 C   0  0  0  0  0  0  0  0  0  0  0  0
    7.6721  -15.4490   20.5592 C   0  0  2  0  0  0  0  0  0  0  0  0
    8.7350  -15.1995   19.6252 N   0  0  0  0  0  0  0  0  0  0  0  0
    8.1026  -14.9899   21.9258 C   0  0  0  0  0  0  0  0  0  0  0  0
    9.2943  -15.1400   22.2877 O   0  0  0  0  0  0  0  0  0  0  0  0
    8.1872  -11.8059   26.0958 C   0  0  0  0  0  0  0  0  0  0  0  0
    7.0912  -12.8605   26.2971 C   0  0  1  0  0  0  0  0  0  0  0  0
    5.9769  -12.1606   27.0455 C   0  0  0  0  0  0  0  0  0  0  0  0
    6.6145  -13.2274   24.9112 C   0  0  0  0  0  0  0  0  0  0  0  0
    7.6516  -14.0040   24.1292 C   0  0  2  0  0  0  0  0  0  0  0  0
    7.1972  -14.3863   22.8300 N   0  0  0  0  0  0  0  0  0  0  0  0
    7.9403  -15.2311   24.9282 C   0  0  0  0  0  0  0  0  0  0  0  0
    7.0596  -16.1341   24.9371 O   0  0  0  0  0  0  0  0  0  0  0  0
   11.6027  -19.6810   25.0328 N   0  0  0  0  0  0  0  0  0  0  0  0
   12.1156  -18.4131   24.6603 C   0  0  0  0  0  0  0  0  0  0  0  0
   13.2816  -18.3086   24.2264 O   0  0  0  0  0  0  0  0  0  0  0  0
   11.2550  -17.1982   24.7885 C   0  0  0  0  0  0  0  0  0  0  0  0
    9.8991  -17.6360   25.2368 C   0  0  0  0  0  0  0  0  0  0  0  0
    9.3665  -16.7094   26.2823 C   0  0  2  0  0  0  0  0  0  0  0  0
    9.1338  -15.4022   25.6504 N   0  0  0  0  0  0  0  0  0  0  0  0
   10.2287  -16.4792   27.4390 C   0  0  0  0  0  0  0  0  0  0  0  0
   10.8240  -15.2139   27.6121 O   0  0  0  0  0  0  0  0  0  0  0  0
   10.4483  -17.3929   28.2834 O   0  0  0  0  0  0  0  0  0  0  0  0
  2  1  1  1
  2  3  1  0
  4  2  1  0
  4  5  2  0
  7  6  1  6
  7  9  1  0
  8  7  1  0
 10  9  1  1
 10 12  1  0
 10 11  1  0
 11  4  1  0
 12 13  2  0
 15 14  1  0
 16 15  2  0
 17 15  1  0
 18 17  1  0
 19 18  1  6
 20 19  1  0
 20 12  1  0
 21 19  1  0
 22 21  1  0
 23 21  2  0
M  END
$$$$
