GLM.pdb
     RDKit          3D

 21 20  0  0  1  0  0  0  0  0999 V2000
    9.0221  -16.4019   19.9472 N   0  0  0  0  0  0  0  0  0  0  0  0
    7.9878  -16.1218   20.9110 C   0  0  0  0  0  0  0  0  0  0  0  0
    8.5608  -15.5786   22.1666 C   0  0  0  0  0  0  0  0  0  0  0  0
    9.7818  -15.6410   22.4313 O   0  0  0  0  0  0  0  0  0  0  0  0
    6.0552  -12.2448   26.8618 C   0  0  0  0  0  0  0  0  0  0  0  0
    7.2512  -12.8935   26.2167 C   0  0  2  0  0  0  0  0  0  0  0  0
    8.4304  -11.9464   26.1623 C   0  0  0  0  0  0  0  0  0  0  0  0
    7.0014  -13.5939   24.9360 C   0  0  0  0  0  0  0  0  0  0  0  0
    8.1013  -14.4069   24.3637 C   0  0  2  0  0  0  0  0  0  0  0  0
    7.6819  -14.9681   23.0933 N   0  0  0  0  0  0  0  0  0  0  0  0
    8.3130  -15.5513   25.3378 C   0  0  0  0  0  0  0  0  0  0  0  0
    7.3797  -16.3233   25.6287 O   0  0  0  0  0  0  0  0  0  0  0  0
   12.8750  -20.2043   23.4394 C   0  0  0  0  0  0  0  0  0  0  0  0
   12.9190  -19.0262   24.7869 S   0  0  0  0  0  0  0  0  0  0  0  0
   11.2687  -18.4661   25.2881 C   0  0  0  0  0  0  0  0  0  0  0  0
   11.3197  -17.3972   26.3360 C   0  0  0  0  0  0  0  0  0  0  0  0
    9.9612  -16.9180   26.6826 C   0  0  2  0  0  0  0  0  0  0  0  0
    9.5669  -15.7468   25.9186 N   0  0  0  0  0  0  0  0  0  0  0  0
    9.8741  -16.5774   28.1090 C   0  0  0  0  0  0  0  0  0  0  0  0
    9.9970  -17.6253   29.0486 O   0  0  0  0  0  0  0  0  0  0  0  0
    9.7012  -15.4508   28.5944 O   0  0  0  0  0  0  0  0  0  0  0  0
  1  2  1  0
  2  3  1  0
  3 10  1  0
  3  4  2  0
  6  5  1  6
  7  6  1  0
  9  8  1  1
  8  6  1  0
  9 11  1  0
 10  9  1  0
 11 12  2  0
 14 13  1  0
 15 16  1  0
 15 14  1  0
 17 16  1  6
 17 19  1  0
 18 11  1  0
 18 17  1  0
 19 20  1  0
 21 19  2  0
M  END
$$$$
