GLM.pdb
     RDKit          3D

 21 20  0  0  1  0  0  0  0  0999 V2000
    5.6642  -19.2637   23.7719 N   0  0  0  0  0  0  0  0  0  0  0  0
    6.0551  -18.1884   24.6483 C   0  0  0  0  0  0  0  0  0  0  0  0
    7.1094  -17.3499   24.0275 C   0  0  0  0  0  0  0  0  0  0  0  0
    7.8317  -17.7603   23.0923 O   0  0  0  0  0  0  0  0  0  0  0  0
    6.3149  -12.0350   25.2631 C   0  0  0  0  0  0  0  0  0  0  0  0
    6.6470  -13.4782   24.9907 C   0  0  2  0  0  0  0  0  0  0  0  0
    6.2550  -14.3637   26.1538 C   0  0  0  0  0  0  0  0  0  0  0  0
    8.0109  -13.7484   24.4810 C   0  0  0  0  0  0  0  0  0  0  0  0
    8.3316  -15.1325   24.0569 C   0  0  2  0  0  0  0  0  0  0  0  0
    7.2958  -16.0363   24.5210 N   0  0  0  0  0  0  0  0  0  0  0  0
    9.6228  -15.4895   24.7700 C   0  0  0  0  0  0  0  0  0  0  0  0
   10.6765  -14.8691   24.5319 O   0  0  0  0  0  0  0  0  0  0  0  0
   10.3179  -12.9448   28.3442 C   0  0  0  0  0  0  0  0  0  0  0  0
   10.8704  -14.3593   29.2928 S   0  0  0  0  0  0  0  0  0  0  0  0
   11.6779  -15.6215   28.2715 C   0  0  0  0  0  0  0  0  0  0  0  0
   10.7431  -16.7227   27.8754 C   0  0  0  0  0  0  0  0  0  0  0  0
   10.8133  -16.9908   26.4199 C   0  0  2  0  0  0  0  0  0  0  0  0
    9.6370  -16.5250   25.7057 N   0  0  0  0  0  0  0  0  0  0  0  0
   10.9604  -18.4290   26.1587 C   0  0  0  0  0  0  0  0  0  0  0  0
   12.2287  -18.9021   25.7543 O   0  0  0  0  0  0  0  0  0  0  0  0
   10.0799  -19.2951   26.2546 O   0  0  0  0  0  0  0  0  0  0  0  0
  1  2  1  0
  2  3  1  0
  3 10  1  0
  3  4  2  0
  6  5  1  1
  7  6  1  0
  9  8  1  1
  8  6  1  0
  9 11  1  0
 10  9  1  0
 11 12  2  0
 14 13  1  0
 15 16  1  0
 15 14  1  0
 17 16  1  1
 17 19  1  0
 18 11  1  0
 18 17  1  0
 19 20  1  0
 21 19  2  0
M  END
$$$$
