GLM.pdb
     RDKit          3D

 21 20  0  0  1  0  0  0  0  0999 V2000
    5.2041  -18.4101   21.8209 N   0  0  0  0  0  0  0  0  0  0  0  0
    5.0554  -17.7668   23.1020 C   0  0  0  0  0  0  0  0  0  0  0  0
    6.3141  -17.0987   23.5134 C   0  0  0  0  0  0  0  0  0  0  0  0
    7.3985  -17.2805   22.9169 O   0  0  0  0  0  0  0  0  0  0  0  0
    7.6553  -12.6562   24.6203 C   0  0  0  0  0  0  0  0  0  0  0  0
    6.6720  -13.2483   25.5949 C   0  0  2  0  0  0  0  0  0  0  0  0
    6.2440  -12.2331   26.6326 C   0  0  0  0  0  0  0  0  0  0  0  0
    7.0383  -14.5611   26.1742 C   0  0  0  0  0  0  0  0  0  0  0  0
    7.4493  -15.6397   25.2437 C   0  0  2  0  0  0  0  0  0  0  0  0
    6.2739  -16.2237   24.6254 N   0  0  0  0  0  0  0  0  0  0  0  0
    8.1021  -16.7005   26.1108 C   0  0  0  0  0  0  0  0  0  0  0  0
    7.4376  -17.3366   26.9508 O   0  0  0  0  0  0  0  0  0  0  0  0
   14.3927  -18.9685   24.9149 C   0  0  0  0  0  0  0  0  0  0  0  0
   13.4025  -20.3376   25.5071 S   0  0  0  0  0  0  0  0  0  0  0  0
   11.9111  -19.8002   26.3877 C   0  0  0  0  0  0  0  0  0  0  0  0
   11.2886  -18.5848   25.7724 C   0  0  0  0  0  0  0  0  0  0  0  0
   10.1646  -18.0805   26.5955 C   0  0  2  0  0  0  0  0  0  0  0  0
    9.4639  -16.9719   25.9703 N   0  0  0  0  0  0  0  0  0  0  0  0
   10.6394  -17.6307   27.9110 C   0  0  0  0  0  0  0  0  0  0  0  0
   11.0169  -18.6157   28.8509 O   0  0  0  0  0  0  0  0  0  0  0  0
   10.7496  -16.4598   28.3004 O   0  0  0  0  0  0  0  0  0  0  0  0
  1  2  1  0
  2  3  1  0
  3 10  1  0
  3  4  2  0
  6  5  1  1
  7  6  1  0
  9  8  1  1
  8  6  1  0
  9 11  1  0
 10  9  1  0
 11 12  2  0
 14 13  1  0
 15 16  1  0
 15 14  1  0
 17 16  1  6
 17 19  1  0
 18 11  1  0
 18 17  1  0
 19 20  1  0
 21 19  2  0
M  END
$$$$
