GLM.pdb
     RDKit          3D

 21 20  0  0  1  0  0  0  0  0999 V2000
    8.9092  -16.5223   19.3169 N   0  0  0  0  0  0  0  0  0  0  0  0
    8.1070  -16.7125   20.4990 C   0  0  0  0  0  0  0  0  0  0  0  0
    8.5885  -15.8610   21.6139 C   0  0  0  0  0  0  0  0  0  0  0  0
    9.7812  -15.4981   21.7169 O   0  0  0  0  0  0  0  0  0  0  0  0
    5.7205  -13.1582   26.5063 C   0  0  0  0  0  0  0  0  0  0  0  0
    6.9525  -13.3995   25.6748 C   0  0  2  0  0  0  0  0  0  0  0  0
    7.6517  -12.1011   25.3346 C   0  0  0  0  0  0  0  0  0  0  0  0
    6.7873  -14.2997   24.5106 C   0  0  0  0  0  0  0  0  0  0  0  0
    8.0119  -14.7948   23.8370 C   0  0  2  0  0  0  0  0  0  0  0  0
    7.6527  -15.4493   22.5930 N   0  0  0  0  0  0  0  0  0  0  0  0
    8.5960  -15.8409   24.7686 C   0  0  0  0  0  0  0  0  0  0  0  0
    8.2086  -17.0239   24.7235 O   0  0  0  0  0  0  0  0  0  0  0  0
    9.9305  -12.9530   28.4994 C   0  0  0  0  0  0  0  0  0  0  0  0
   10.9484  -14.1432   29.3672 S   0  0  0  0  0  0  0  0  0  0  0  0
   10.9876  -15.7635   28.5538 C   0  0  0  0  0  0  0  0  0  0  0  0
   11.5227  -15.6910   27.1568 C   0  0  0  0  0  0  0  0  0  0  0  0
   10.6156  -16.3633   26.1974 C   0  0  2  0  0  0  0  0  0  0  0  0
    9.5801  -15.4795   25.6899 N   0  0  0  0  0  0  0  0  0  0  0  0
    9.9574  -17.5193   26.8209 C   0  0  0  0  0  0  0  0  0  0  0  0
   10.7336  -18.6763   27.0549 O   0  0  0  0  0  0  0  0  0  0  0  0
    8.7724  -17.5983   27.1734 O   0  0  0  0  0  0  0  0  0  0  0  0
  1  2  1  0
  2  3  1  0
  3 10  1  0
  3  4  2  0
  6  5  1  6
  7  6  1  0
  9  8  1  1
  8  6  1  0
  9 11  1  0
 10  9  1  0
 11 12  2  0
 14 13  1  0
 15 16  1  0
 15 14  1  0
 17 16  1  1
 17 19  1  0
 18 11  1  0
 18 17  1  0
 19 20  1  0
 21 19  2  0
M  END
$$$$
