GLM.pdb
     RDKit          3D

 21 20  0  0  1  0  0  0  0  0999 V2000
    5.3991  -19.2269   22.3774 N   0  0  0  0  0  0  0  0  0  0  0  0
    5.6527  -17.8087   22.3391 C   0  0  0  0  0  0  0  0  0  0  0  0
    7.0768  -17.5289   22.0334 C   0  0  0  0  0  0  0  0  0  0  0  0
    7.9395  -18.4318   21.9607 O   0  0  0  0  0  0  0  0  0  0  0  0
    7.6901  -13.4023   18.8958 C   0  0  0  0  0  0  0  0  0  0  0  0
    7.5791  -13.9967   20.2748 C   0  0  2  0  0  0  0  0  0  0  0  0
    6.7545  -13.1175   21.1901 C   0  0  0  0  0  0  0  0  0  0  0  0
    8.8448  -14.4593   20.8891 C   0  0  0  0  0  0  0  0  0  0  0  0
    8.8327  -15.7540   21.6115 C   0  0  2  0  0  0  0  0  0  0  0  0
    7.4625  -16.1841   21.8175 N   0  0  0  0  0  0  0  0  0  0  0  0
    9.4468  -15.4696   22.9700 C   0  0  0  0  0  0  0  0  0  0  0  0
   10.6594  -15.2066   23.0803 O   0  0  0  0  0  0  0  0  0  0  0  0
    5.7911  -12.1456   26.9926 C   0  0  0  0  0  0  0  0  0  0  0  0
    7.2471  -12.3618   28.0119 S   0  0  0  0  0  0  0  0  0  0  0  0
    8.3801  -13.6213   27.3650 C   0  0  0  0  0  0  0  0  0  0  0  0
    7.9748  -14.1156   26.0105 C   0  0  0  0  0  0  0  0  0  0  0  0
    9.0265  -14.9713   25.4130 C   0  0  2  0  0  0  0  0  0  0  0  0
    8.6484  -15.5015   24.1142 N   0  0  0  0  0  0  0  0  0  0  0  0
    9.3394  -16.1068   26.2910 C   0  0  0  0  0  0  0  0  0  0  0  0
   10.1065  -15.8554   27.4505 O   0  0  0  0  0  0  0  0  0  0  0  0
    9.0002  -17.2871   26.1281 O   0  0  0  0  0  0  0  0  0  0  0  0
  1  2  1  0
  2  3  1  0
  3 10  1  0
  3  4  2  0
  6  5  1  6
  7  6  1  0
  9  8  1  6
  8  6  1  0
  9 11  1  0
 10  9  1  0
 11 12  2  0
 14 13  1  0
 15 16  1  0
 15 14  1  0
 17 16  1  1
 17 19  1  0
 18 11  1  0
 18 17  1  0
 19 20  1  0
 21 19  2  0
M  END
$$$$
