GLM.pdb
     RDKit          3D

 21 20  0  0  1  0  0  0  0  0999 V2000
    5.5961  -19.1953   21.2774 N   0  0  0  0  0  0  0  0  0  0  0  0
    5.6607  -17.8122   21.6776 C   0  0  0  0  0  0  0  0  0  0  0  0
    7.0189  -17.2566   21.4616 C   0  0  0  0  0  0  0  0  0  0  0  0
    7.9815  -17.9603   21.0834 O   0  0  0  0  0  0  0  0  0  0  0  0
    8.5707  -14.3619   18.6920 C   0  0  0  0  0  0  0  0  0  0  0  0
    7.8429  -13.6180   19.7802 C   0  0  2  0  0  0  0  0  0  0  0  0
    7.6578  -12.1590   19.4228 C   0  0  0  0  0  0  0  0  0  0  0  0
    8.3428  -13.8256   21.1587 C   0  0  0  0  0  0  0  0  0  0  0  0
    8.5142  -15.2203   21.6318 C   0  0  2  0  0  0  0  0  0  0  0  0
    7.2211  -15.8753   21.6956 N   0  0  0  0  0  0  0  0  0  0  0  0
    9.0562  -15.1086   23.0450 C   0  0  0  0  0  0  0  0  0  0  0  0
   10.2090  -14.6859   23.2553 O   0  0  0  0  0  0  0  0  0  0  0  0
    6.4674  -11.5906   27.6941 C   0  0  0  0  0  0  0  0  0  0  0  0
    5.6942  -12.8247   26.6524 S   0  0  0  0  0  0  0  0  0  0  0  0
    6.8836  -13.7166   25.6141 C   0  0  0  0  0  0  0  0  0  0  0  0
    7.6457  -14.7553   26.3781 C   0  0  0  0  0  0  0  0  0  0  0  0
    8.6578  -15.4180   25.5226 C   0  0  2  0  0  0  0  0  0  0  0  0
    8.2583  -15.4825   24.1272 N   0  0  0  0  0  0  0  0  0  0  0  0
    8.9156  -16.7892   25.9827 C   0  0  0  0  0  0  0  0  0  0  0  0
    9.5046  -16.9608   27.2553 O   0  0  0  0  0  0  0  0  0  0  0  0
    8.6701  -17.8370   25.3690 O   0  0  0  0  0  0  0  0  0  0  0  0
  1  2  1  0
  2  3  1  0
  3 10  1  0
  3  4  2  0
  6  5  1  6
  7  6  1  0
  9  8  1  1
  8  6  1  0
  9 11  1  0
 10  9  1  0
 11 12  2  0
 14 13  1  0
 15 16  1  0
 15 14  1  0
 17 16  1  1
 17 19  1  0
 18 11  1  0
 18 17  1  0
 19 20  1  0
 21 19  2  0
M  END
$$$$
