GLM.pdb
     RDKit          3D

 21 20  0  0  1  0  0  0  0  0999 V2000
    6.6275  -19.5556   22.5424 N   0  0  0  0  0  0  0  0  0  0  0  0
    6.3644  -18.7139   23.6824 C   0  0  0  0  0  0  0  0  0  0  0  0
    6.9817  -17.3760   23.5122 C   0  0  0  0  0  0  0  0  0  0  0  0
    7.7828  -17.1173   22.5870 O   0  0  0  0  0  0  0  0  0  0  0  0
    6.1944  -11.9423   26.5674 C   0  0  0  0  0  0  0  0  0  0  0  0
    6.8816  -12.7447   25.4944 C   0  0  2  0  0  0  0  0  0  0  0  0
    6.9082  -11.9978   24.1784 C   0  0  0  0  0  0  0  0  0  0  0  0
    6.4525  -14.1557   25.3599 C   0  0  0  0  0  0  0  0  0  0  0  0
    7.2025  -15.0223   24.4192 C   0  0  2  0  0  0  0  0  0  0  0  0
    6.6433  -16.3609   24.4389 N   0  0  0  0  0  0  0  0  0  0  0  0
    8.6158  -15.0938   24.9678 C   0  0  0  0  0  0  0  0  0  0  0  0
    9.3559  -14.0918   24.9585 O   0  0  0  0  0  0  0  0  0  0  0  0
    9.3300  -14.2613   29.5429 C   0  0  0  0  0  0  0  0  0  0  0  0
   10.9825  -14.3132   28.8556 S   0  0  0  0  0  0  0  0  0  0  0  0
   11.4509  -15.9641   28.2695 C   0  0  0  0  0  0  0  0  0  0  0  0
   10.3267  -16.6647   27.5704 C   0  0  0  0  0  0  0  0  0  0  0  0
   10.4038  -16.4749   26.1030 C   0  0  2  0  0  0  0  0  0  0  0  0
    9.0986  -16.2942   25.4908 N   0  0  0  0  0  0  0  0  0  0  0  0
   11.0494  -17.6267   25.4591 C   0  0  0  0  0  0  0  0  0  0  0  0
   12.4087  -17.8743   25.7543 O   0  0  0  0  0  0  0  0  0  0  0  0
   10.5271  -18.4248   24.6685 O   0  0  0  0  0  0  0  0  0  0  0  0
  1  2  1  0
  2  3  1  0
  3 10  1  0
  3  4  2  0
  6  5  1  1
  7  6  1  0
  9  8  1  1
  8  6  1  0
  9 11  1  0
 10  9  1  0
 11 12  2  0
 14 13  1  0
 15 16  1  0
 15 14  1  0
 17 16  1  1
 17 19  1  0
 18 11  1  0
 18 17  1  0
 19 20  1  0
 21 19  2  0
M  END
$$$$
