GLM.pdb
     RDKit          3D

 21 20  0  0  1  0  0  0  0  0999 V2000
    6.0726  -19.9563   22.8147 N   0  0  0  0  0  0  0  0  0  0  0  0
    6.0722  -19.1354   23.9993 C   0  0  0  0  0  0  0  0  0  0  0  0
    6.6719  -17.8062   23.7282 C   0  0  0  0  0  0  0  0  0  0  0  0
    7.4219  -17.5932   22.7499 O   0  0  0  0  0  0  0  0  0  0  0  0
    6.3694  -12.2954   26.7343 C   0  0  0  0  0  0  0  0  0  0  0  0
    7.0234  -13.1954   25.7196 C   0  0  2  0  0  0  0  0  0  0  0  0
    7.2106  -12.4887   24.3944 C   0  0  0  0  0  0  0  0  0  0  0  0
    6.4469  -14.5528   25.5846 C   0  0  0  0  0  0  0  0  0  0  0  0
    7.1496  -15.5211   24.7087 C   0  0  2  0  0  0  0  0  0  0  0  0
    6.3765  -16.7455   24.6178 N   0  0  0  0  0  0  0  0  0  0  0  0
    8.4546  -15.8389   25.4153 C   0  0  0  0  0  0  0  0  0  0  0  0
    8.4677  -16.5278   26.4531 O   0  0  0  0  0  0  0  0  0  0  0  0
   10.3652  -14.7857   30.0274 C   0  0  0  0  0  0  0  0  0  0  0  0
   10.3611  -13.3855   28.9115 S   0  0  0  0  0  0  0  0  0  0  0  0
   10.3347  -13.8751   27.1657 C   0  0  0  0  0  0  0  0  0  0  0  0
   11.0127  -15.1893   26.9285 C   0  0  0  0  0  0  0  0  0  0  0  0
   10.9672  -15.5677   25.4967 C   0  0  2  0  0  0  0  0  0  0  0  0
    9.6589  -15.3561   24.9012 N   0  0  0  0  0  0  0  0  0  0  0  0
   11.3219  -16.9820   25.3172 C   0  0  0  0  0  0  0  0  0  0  0  0
   12.0341  -17.6229   26.3554 O   0  0  0  0  0  0  0  0  0  0  0  0
   11.0623  -17.6942   24.3373 O   0  0  0  0  0  0  0  0  0  0  0  0
  1  2  1  0
  2  3  1  0
  3 10  1  0
  3  4  2  0
  6  5  1  1
  7  6  1  0
  9  8  1  1
  8  6  1  0
  9 11  1  0
 10  9  1  0
 11 12  2  0
 14 13  1  0
 15 16  1  0
 15 14  1  0
 17 16  1  1
 17 19  1  0
 18 11  1  0
 18 17  1  0
 19 20  1  0
 21 19  2  0
M  END
$$$$
