GLM.pdb
     RDKit          3D

 21 20  0  0  1  0  0  0  0  0999 V2000
    4.8289  -19.3835   20.1074 N   0  0  0  0  0  0  0  0  0  0  0  0
    5.0473  -18.9543   21.4658 C   0  0  0  0  0  0  0  0  0  0  0  0
    6.2560  -18.1008   21.5684 C   0  0  0  0  0  0  0  0  0  0  0  0
    7.3653  -18.5467   21.9363 O   0  0  0  0  0  0  0  0  0  0  0  0
    8.3513  -12.6711   21.3132 C   0  0  0  0  0  0  0  0  0  0  0  0
    7.9706  -13.6107   20.1999 C   0  0  2  0  0  0  0  0  0  0  0  0
    7.7667  -12.8684   18.8968 C   0  0  0  0  0  0  0  0  0  0  0  0
    6.8876  -14.5746   20.5019 C   0  0  0  0  0  0  0  0  0  0  0  0
    7.2329  -15.7813   21.2911 C   0  0  2  0  0  0  0  0  0  0  0  0
    6.1370  -16.7304   21.2343 N   0  0  0  0  0  0  0  0  0  0  0  0
    7.3708  -15.3057   22.7257 C   0  0  0  0  0  0  0  0  0  0  0  0
    6.3709  -15.1924   23.4599 O   0  0  0  0  0  0  0  0  0  0  0  0
    5.9499  -12.0512   26.6703 C   0  0  0  0  0  0  0  0  0  0  0  0
    7.6638  -12.4574   26.9919 S   0  0  0  0  0  0  0  0  0  0  0  0
    8.0042  -14.2337   26.8599 C   0  0  0  0  0  0  0  0  0  0  0  0
    7.7193  -14.7719   25.4916 C   0  0  0  0  0  0  0  0  0  0  0  0
    8.9261  -14.7261   24.6332 C   0  0  2  0  0  0  0  0  0  0  0  0
    8.6311  -14.9895   23.2351 N   0  0  0  0  0  0  0  0  0  0  0  0
    9.9228  -15.7095   25.0777 C   0  0  0  0  0  0  0  0  0  0  0  0
   10.8563  -15.3086   26.0594 O   0  0  0  0  0  0  0  0  0  0  0  0
   10.0418  -16.8773   24.6818 O   0  0  0  0  0  0  0  0  0  0  0  0
  1  2  1  0
  2  3  1  0
  3 10  1  0
  3  4  2  0
  6  5  1  1
  7  6  1  0
  9  8  1  6
  8  6  1  0
  9 11  1  0
 10  9  1  0
 11 12  2  0
 14 13  1  0
 15 16  1  0
 15 14  1  0
 17 16  1  1
 17 19  1  0
 18 11  1  0
 18 17  1  0
 19 20  1  0
 21 19  2  0
M  END
$$$$
