GLM.pdb
     RDKit          3D

 21 20  0  0  1  0  0  0  0  0999 V2000
    5.9756  -19.2726   22.8850 N   0  0  0  0  0  0  0  0  0  0  0  0
    5.7956  -18.4763   24.0728 C   0  0  0  0  0  0  0  0  0  0  0  0
    6.6103  -17.2382   24.0143 C   0  0  0  0  0  0  0  0  0  0  0  0
    7.6093  -17.1247   23.2700 O   0  0  0  0  0  0  0  0  0  0  0  0
    6.1822  -11.7561   27.0641 C   0  0  0  0  0  0  0  0  0  0  0  0
    6.9492  -12.6906   26.1665 C   0  0  2  0  0  0  0  0  0  0  0  0
    7.4889  -11.9691   24.9506 C   0  0  0  0  0  0  0  0  0  0  0  0
    6.2848  -13.9735   25.8408 C   0  0  0  0  0  0  0  0  0  0  0  0
    7.0433  -14.9639   25.0395 C   0  0  2  0  0  0  0  0  0  0  0  0
    6.2327  -16.1500   24.8370 N   0  0  0  0  0  0  0  0  0  0  0  0
    8.2386  -15.3495   25.8915 C   0  0  0  0  0  0  0  0  0  0  0  0
    8.2015  -15.2379   27.1316 O   0  0  0  0  0  0  0  0  0  0  0  0
    8.9200  -19.6930   28.8298 C   0  0  0  0  0  0  0  0  0  0  0  0
   10.6987  -19.5491   28.6831 S   0  0  0  0  0  0  0  0  0  0  0  0
   11.2089  -18.1914   27.5947 C   0  0  0  0  0  0  0  0  0  0  0  0
   10.0629  -17.6143   26.8221 C   0  0  0  0  0  0  0  0  0  0  0  0
   10.5003  -16.4765   25.9799 C   0  0  2  0  0  0  0  0  0  0  0  0
    9.3971  -15.8361   25.2842 N   0  0  0  0  0  0  0  0  0  0  0  0
   11.4760  -16.9149   24.9728 C   0  0  0  0  0  0  0  0  0  0  0  0
   12.8285  -17.0255   25.3656 O   0  0  0  0  0  0  0  0  0  0  0  0
   11.2439  -17.2056   23.7911 O   0  0  0  0  0  0  0  0  0  0  0  0
  1  2  1  0
  2  3  1  0
  3 10  1  0
  3  4  2  0
  6  5  1  6
  7  6  1  0
  9  8  1  1
  8  6  1  0
  9 11  1  0
 10  9  1  0
 11 12  2  0
 14 13  1  0
 15 16  1  0
 15 14  1  0
 17 16  1  6
 17 19  1  0
 18 11  1  0
 18 17  1  0
 19 20  1  0
 21 19  2  0
M  END
$$$$
