NDK.pdb
     RDKit          3D

 26 25  0  0  1  0  0  0  0  0999 V2000
    8.7636  -18.5679   15.9656 N   0  0  0  0  0  0  0  0  0  0  0  0
    9.5248  -17.5949   16.6491 C   0  0  0  0  0  0  0  0  0  0  0  0
   10.4872  -17.0101   16.1039 O   0  0  0  0  0  0  0  0  0  0  0  0
    9.1893  -17.2471   18.0432 C   0  0  0  0  0  0  0  0  0  0  0  0
   10.4611  -17.1464   18.8781 C   0  0  2  0  0  0  0  0  0  0  0  0
   11.3172  -18.2589   18.5285 N   0  0  0  0  0  0  0  0  0  0  0  0
   10.0927  -17.1343   20.2981 C   0  0  0  0  0  0  0  0  0  0  0  0
    9.3886  -16.1906   20.7396 O   0  0  0  0  0  0  0  0  0  0  0  0
   10.5334  -18.1820   21.1514 N   0  0  0  0  0  0  0  0  0  0  0  0
   10.2615  -18.1977   22.5756 C   0  0  1  0  0  0  0  0  0  0  0  0
   10.0723  -19.6323   22.9983 C   0  0  0  0  0  0  0  0  0  0  0  0
    9.7251  -19.6892   24.4374 C   0  0  0  0  0  0  0  0  0  0  0  0
   10.5655  -19.7831   25.3683 O   0  0  0  0  0  0  0  0  0  0  0  0
   11.3827  -17.5608   23.3312 C   0  0  0  0  0  0  0  0  0  0  0  0
   12.5855  -17.7054   23.0443 O   0  0  0  0  0  0  0  0  0  0  0  0
    8.3884  -19.6403   24.8678 O   0  0  0  0  0  0  0  0  0  0  0  0
   11.0618  -16.7431   24.4401 N   0  0  0  0  0  0  0  0  0  0  0  0
   12.1295  -16.0337   25.1906 C   0  0  1  0  0  0  0  0  0  0  0  0
   11.5229  -14.9937   26.0680 C   0  0  0  0  0  0  0  0  0  0  0  0
   11.1528  -15.5657   27.4020 C   0  0  0  0  0  0  0  0  0  0  0  0
   10.5732  -14.5018   28.3297 C   0  0  0  0  0  0  0  0  0  0  0  0
   10.1254  -15.0767   29.6386 C   0  0  0  0  0  0  0  0  0  0  0  0
    9.6585  -13.9868   30.5081 N   0  0  0  0  0  0  0  0  0  0  0  0
   12.9719  -16.9979   25.8953 C   0  0  0  0  0  0  0  0  0  0  0  0
   14.1718  -16.8421   26.1974 O   0  0  0  0  0  0  0  0  0  0  0  0
   12.3881  -18.2264   26.2775 O   0  0  0  0  0  0  0  0  0  0  0  0
  2  3  2  0
  2  1  1  0
  4  5  1  0
  4  2  1  0
  5  7  1  0
  5  6  1  1
  7  8  2  0
  9 10  1  0
  9  7  1  0
 10 14  1  0
 11 12  1  0
 10 11  1  1
 12 16  1  0
 13 12  2  0
 14 17  1  0
 14 15  2  0
 17 18  1  0
 18 24  1  0
 18 19  1  1
 20 21  1  0
 20 19  1  0
 22 21  1  0
 23 22  1  0
 24 26  1  0
 25 24  2  0
M  END
$$$$
