NDK.pdb
     RDKit          3D

 26 25  0  0  1  0  0  0  0  0999 V2000
    9.3916  -14.1234   15.8180 N   0  0  0  0  0  0  0  0  0  0  0  0
    8.0932  -14.5968   16.1063 C   0  0  0  0  0  0  0  0  0  0  0  0
    7.4018  -15.1863   15.2461 O   0  0  0  0  0  0  0  0  0  0  0  0
    7.5222  -14.3994   17.4524 C   0  0  0  0  0  0  0  0  0  0  0  0
    8.5227  -13.6720   18.3438 C   0  0  2  0  0  0  0  0  0  0  0  0
    8.9388  -12.4663   17.6612 N   0  0  0  0  0  0  0  0  0  0  0  0
    9.6398  -14.5774   18.6345 C   0  0  0  0  0  0  0  0  0  0  0  0
    9.3986  -15.7078   19.1297 O   0  0  0  0  0  0  0  0  0  0  0  0
   10.9720  -14.1684   18.3551 N   0  0  0  0  0  0  0  0  0  0  0  0
   12.1232  -15.0006   18.6460 C   0  0  1  0  0  0  0  0  0  0  0  0
   13.2366  -14.5992   17.7122 C   0  0  0  0  0  0  0  0  0  0  0  0
   12.9470  -15.0926   16.3457 C   0  0  0  0  0  0  0  0  0  0  0  0
   12.8543  -14.3577   15.3293 O   0  0  0  0  0  0  0  0  0  0  0  0
   12.5385  -14.8423   20.0729 C   0  0  0  0  0  0  0  0  0  0  0  0
   13.0979  -13.8265   20.5259 O   0  0  0  0  0  0  0  0  0  0  0  0
   12.7506  -16.4602   16.0903 O   0  0  0  0  0  0  0  0  0  0  0  0
   12.2818  -15.9089   20.9660 N   0  0  0  0  0  0  0  0  0  0  0  0
   12.6992  -15.8208   22.3888 C   0  0  1  0  0  0  0  0  0  0  0  0
   11.6940  -16.5017   23.2520 C   0  0  0  0  0  0  0  0  0  0  0  0
   12.3385  -17.0766   24.4759 C   0  0  0  0  0  0  0  0  0  0  0  0
   11.3139  -17.7336   25.3962 C   0  0  0  0  0  0  0  0  0  0  0  0
   11.9300  -18.2186   26.6727 C   0  0  0  0  0  0  0  0  0  0  0  0
   10.8648  -18.6731   27.5786 N   0  0  0  0  0  0  0  0  0  0  0  0
   14.0629  -16.3233   22.5431 C   0  0  0  0  0  0  0  0  0  0  0  0
   14.5460  -17.3229   21.9751 O   0  0  0  0  0  0  0  0  0  0  0  0
   14.9280  -15.6229   23.4132 O   0  0  0  0  0  0  0  0  0  0  0  0
  2  3  2  0
  2  1  1  0
  4  5  1  0
  4  2  1  0
  5  7  1  0
  5  6  1  6
  7  8  2  0
  9 10  1  0
  9  7  1  0
 10 14  1  0
 11 12  1  0
 10 11  1  6
 12 16  1  0
 13 12  2  0
 14 17  1  0
 14 15  2  0
 17 18  1  0
 18 24  1  0
 18 19  1  1
 20 21  1  0
 20 19  1  0
 22 21  1  0
 23 22  1  0
 24 26  1  0
 25 24  2  0
M  END
$$$$
