NDK.pdb
     RDKit          3D

 26 25  0  0  1  0  0  0  0  0999 V2000
    6.3877  -15.0107   14.5880 N   0  0  0  0  0  0  0  0  0  0  0  0
    7.6284  -14.3369   14.5863 C   0  0  0  0  0  0  0  0  0  0  0  0
    7.7622  -13.2059   14.0684 O   0  0  0  0  0  0  0  0  0  0  0  0
    8.8078  -14.9695   15.2075 C   0  0  0  0  0  0  0  0  0  0  0  0
    8.7889  -14.7447   16.7154 C   0  0  2  0  0  0  0  0  0  0  0  0
    8.4531  -13.3587   16.9587 N   0  0  0  0  0  0  0  0  0  0  0  0
   10.0969  -15.1195   17.2639 C   0  0  0  0  0  0  0  0  0  0  0  0
   11.0568  -15.3177   16.4763 O   0  0  0  0  0  0  0  0  0  0  0  0
   10.2616  -15.2536   18.6693 N   0  0  0  0  0  0  0  0  0  0  0  0
   11.5222  -15.6346   19.2764 C   0  0  1  0  0  0  0  0  0  0  0  0
   12.5960  -14.7292   18.7285 C   0  0  0  0  0  0  0  0  0  0  0  0
   13.9001  -15.0691   19.3437 C   0  0  0  0  0  0  0  0  0  0  0  0
   14.4989  -16.1631   19.1818 O   0  0  0  0  0  0  0  0  0  0  0  0
   11.4413  -15.5287   20.7649 C   0  0  0  0  0  0  0  0  0  0  0  0
   11.5197  -14.4557   21.3913 O   0  0  0  0  0  0  0  0  0  0  0  0
   14.5733  -14.1589   20.1759 O   0  0  0  0  0  0  0  0  0  0  0  0
   11.2645  -16.7177   21.5108 N   0  0  0  0  0  0  0  0  0  0  0  0
   10.7481  -16.6673   22.9027 C   0  0  1  0  0  0  0  0  0  0  0  0
   10.0294  -17.9331   23.2197 C   0  0  0  0  0  0  0  0  0  0  0  0
   10.9749  -19.0944   23.2501 C   0  0  0  0  0  0  0  0  0  0  0  0
   10.2438  -20.4095   23.5041 C   0  0  0  0  0  0  0  0  0  0  0  0
   11.1653  -21.5891   23.4438 C   0  0  0  0  0  0  0  0  0  0  0  0
   10.3880  -22.8182   23.6605 N   0  0  0  0  0  0  0  0  0  0  0  0
   11.8320  -16.3436   23.8280 C   0  0  0  0  0  0  0  0  0  0  0  0
   13.0526  -16.4041   23.5795 O   0  0  0  0  0  0  0  0  0  0  0  0
   11.4819  -15.9209   25.1299 O   0  0  0  0  0  0  0  0  0  0  0  0
  2  3  2  0
  2  1  1  0
  4  5  1  0
  4  2  1  0
  5  7  1  0
  5  6  1  6
  7  8  2  0
  9 10  1  0
  9  7  1  0
 10 14  1  0
 11 12  1  0
 10 11  1  6
 12 16  1  0
 13 12  2  0
 14 17  1  0
 14 15  2  0
 17 18  1  0
 18 24  1  0
 18 19  1  1
 20 21  1  0
 20 19  1  0
 22 21  1  0
 23 22  1  0
 24 26  1  0
 25 24  2  0
M  END
$$$$
