NDK.pdb
     RDKit          3D

 26 25  0  0  1  0  0  0  0  0999 V2000
    7.3553  -11.9435   17.8782 N   0  0  0  0  0  0  0  0  0  0  0  0
    7.5585  -13.2382   18.4031 C   0  0  0  0  0  0  0  0  0  0  0  0
    6.9718  -14.2383   17.9330 O   0  0  0  0  0  0  0  0  0  0  0  0
    8.4840  -13.4340   19.5354 C   0  0  0  0  0  0  0  0  0  0  0  0
    9.5660  -14.4401   19.1591 C   0  0  2  0  0  0  0  0  0  0  0  0
    8.9518  -15.4868   18.3718 N   0  0  0  0  0  0  0  0  0  0  0  0
   10.1902  -14.9422   20.3882 C   0  0  0  0  0  0  0  0  0  0  0  0
   10.8917  -14.1621   21.0812 O   0  0  0  0  0  0  0  0  0  0  0  0
    9.9959  -16.2953   20.7774 N   0  0  0  0  0  0  0  0  0  0  0  0
   10.7567  -16.9200   21.8421 C   0  0  1  0  0  0  0  0  0  0  0  0
   10.1437  -18.2682   22.1240 C   0  0  0  0  0  0  0  0  0  0  0  0
   10.7435  -18.8451   23.3495 C   0  0  0  0  0  0  0  0  0  0  0  0
   11.6695  -18.3072   24.0089 O   0  0  0  0  0  0  0  0  0  0  0  0
   12.1927  -17.0564   21.4512 C   0  0  0  0  0  0  0  0  0  0  0  0
   12.6132  -17.8900   20.6277 O   0  0  0  0  0  0  0  0  0  0  0  0
   10.3003  -20.0726   23.8703 O   0  0  0  0  0  0  0  0  0  0  0  0
   13.1340  -16.1872   22.0507 N   0  0  0  0  0  0  0  0  0  0  0  0
   14.5086  -16.0659   21.5009 C   0  0  1  0  0  0  0  0  0  0  0  0
   14.5538  -14.9687   20.4943 C   0  0  0  0  0  0  0  0  0  0  0  0
   15.9210  -14.8458   19.8948 C   0  0  0  0  0  0  0  0  0  0  0  0
   15.9737  -13.7520   18.8321 C   0  0  0  0  0  0  0  0  0  0  0  0
   17.3065  -13.6900   18.1508 C   0  0  0  0  0  0  0  0  0  0  0  0
   17.2167  -12.7789   17.0003 N   0  0  0  0  0  0  0  0  0  0  0  0
   15.4731  -15.9231   22.5895 C   0  0  0  0  0  0  0  0  0  0  0  0
   16.7055  -15.7790   22.4648 O   0  0  0  0  0  0  0  0  0  0  0  0
   14.9799  -15.9482   23.9133 O   0  0  0  0  0  0  0  0  0  0  0  0
  2  3  2  0
  2  1  1  0
  4  5  1  0
  4  2  1  0
  5  7  1  0
  5  6  1  1
  7  8  2  0
  9 10  1  0
  9  7  1  0
 10 14  1  0
 11 12  1  0
 10 11  1  6
 12 16  1  0
 13 12  2  0
 14 17  1  0
 14 15  2  0
 17 18  1  0
 18 24  1  0
 18 19  1  6
 20 21  1  0
 20 19  1  0
 22 21  1  0
 23 22  1  0
 24 26  1  0
 25 24  2  0
M  END
$$$$
