NDK.pdb
     RDKit          3D

 26 25  0  0  1  0  0  0  0  0999 V2000
    8.5855  -11.5720   19.6237 N   0  0  0  0  0  0  0  0  0  0  0  0
    8.2027  -12.8917   19.2995 C   0  0  0  0  0  0  0  0  0  0  0  0
    8.5877  -13.4488   18.2474 O   0  0  0  0  0  0  0  0  0  0  0  0
    7.3265  -13.6474   20.2150 C   0  0  0  0  0  0  0  0  0  0  0  0
    8.1500  -14.6414   21.0264 C   0  0  2  0  0  0  0  0  0  0  0  0
    8.8840  -15.4773   20.1015 N   0  0  0  0  0  0  0  0  0  0  0  0
    7.2458  -15.4061   21.8924 C   0  0  0  0  0  0  0  0  0  0  0  0
    6.5704  -14.7978   22.7612 O   0  0  0  0  0  0  0  0  0  0  0  0
    7.1454  -16.8156   21.7398 N   0  0  0  0  0  0  0  0  0  0  0  0
    6.2513  -17.6276   22.5423 C   0  0  1  0  0  0  0  0  0  0  0  0
    5.5971  -18.6374   21.6340 C   0  0  0  0  0  0  0  0  0  0  0  0
    4.5816  -19.4073   22.3894 C   0  0  0  0  0  0  0  0  0  0  0  0
    3.8974  -20.3460   21.9073 O   0  0  0  0  0  0  0  0  0  0  0  0
    7.0025  -18.3052   23.6424 C   0  0  0  0  0  0  0  0  0  0  0  0
    6.4890  -19.1075   24.4440 O   0  0  0  0  0  0  0  0  0  0  0  0
    4.3093  -19.1273   23.7391 O   0  0  0  0  0  0  0  0  0  0  0  0
    8.3809  -18.0205   23.7845 N   0  0  0  0  0  0  0  0  0  0  0  0
    9.1663  -18.6196   24.8938 C   0  0  1  0  0  0  0  0  0  0  0  0
   10.2217  -19.5128   24.3391 C   0  0  0  0  0  0  0  0  0  0  0  0
   11.0686  -20.0871   25.4331 C   0  0  0  0  0  0  0  0  0  0  0  0
   12.1367  -21.0281   24.8833 C   0  0  0  0  0  0  0  0  0  0  0  0
   12.9698  -21.6342   25.9709 C   0  0  0  0  0  0  0  0  0  0  0  0
   14.0640  -22.4069   25.3647 N   0  0  0  0  0  0  0  0  0  0  0  0
    9.6706  -17.5687   25.7754 C   0  0  0  0  0  0  0  0  0  0  0  0
   10.0791  -16.4452   25.4202 O   0  0  0  0  0  0  0  0  0  0  0  0
    9.7052  -17.8337   27.1627 O   0  0  0  0  0  0  0  0  0  0  0  0
  2  3  2  0
  2  1  1  0
  4  5  1  0
  4  2  1  0
  5  7  1  0
  5  6  1  6
  7  8  2  0
  9 10  1  0
  9  7  1  0
 10 14  1  0
 11 12  1  0
 10 11  1  6
 12 16  1  0
 13 12  2  0
 14 17  1  0
 14 15  2  0
 17 18  1  0
 18 24  1  0
 18 19  1  6
 20 21  1  0
 20 19  1  0
 22 21  1  0
 23 22  1  0
 24 26  1  0
 25 24  2  0
M  END
$$$$
