NDK.pdb
     RDKit          3D

 26 25  0  0  1  0  0  0  0  0999 V2000
    6.9050  -12.6269   18.4387 N   0  0  0  0  0  0  0  0  0  0  0  0
    7.4991  -13.8461   18.0467 C   0  0  0  0  0  0  0  0  0  0  0  0
    7.8970  -14.0377   16.8760 O   0  0  0  0  0  0  0  0  0  0  0  0
    7.6626  -14.9327   19.0313 C   0  0  0  0  0  0  0  0  0  0  0  0
    8.8479  -14.6380   19.9440 C   0  0  2  0  0  0  0  0  0  0  0  0
    9.9264  -14.1244   19.1279 N   0  0  0  0  0  0  0  0  0  0  0  0
    9.2090  -15.8672   20.6588 C   0  0  0  0  0  0  0  0  0  0  0  0
    8.3335  -16.4581   21.3411 O   0  0  0  0  0  0  0  0  0  0  0  0
   10.5350  -16.3714   20.5722 N   0  0  0  0  0  0  0  0  0  0  0  0
   10.9656  -17.5650   21.2741 C   0  0  1  0  0  0  0  0  0  0  0  0
   12.0220  -18.2418   20.4382 C   0  0  0  0  0  0  0  0  0  0  0  0
   11.4989  -18.4907   19.0747 C   0  0  0  0  0  0  0  0  0  0  0  0
   10.5334  -19.2526   18.8118 O   0  0  0  0  0  0  0  0  0  0  0  0
   11.4962  -17.2160   22.6269 C   0  0  0  0  0  0  0  0  0  0  0  0
   12.6219  -17.5504   23.0402 O   0  0  0  0  0  0  0  0  0  0  0  0
   12.0686  -17.8699   17.9503 O   0  0  0  0  0  0  0  0  0  0  0  0
   10.6724  -16.4594   23.4931 N   0  0  0  0  0  0  0  0  0  0  0  0
   11.0582  -16.2503   24.9122 C   0  0  1  0  0  0  0  0  0  0  0  0
   10.0819  -15.3379   25.5707 C   0  0  0  0  0  0  0  0  0  0  0  0
   10.4820  -15.0545   26.9861 C   0  0  0  0  0  0  0  0  0  0  0  0
    9.4908  -14.1214   27.6755 C   0  0  0  0  0  0  0  0  0  0  0  0
    9.8641  -13.8543   29.1015 C   0  0  0  0  0  0  0  0  0  0  0  0
    8.8586  -12.9665   29.7038 N   0  0  0  0  0  0  0  0  0  0  0  0
   11.2230  -17.5388   25.5819 C   0  0  0  0  0  0  0  0  0  0  0  0
   12.2873  -17.9956   26.0442 O   0  0  0  0  0  0  0  0  0  0  0  0
   10.0795  -18.3557   25.7278 O   0  0  0  0  0  0  0  0  0  0  0  0
  2  3  2  0
  2  1  1  0
  4  5  1  0
  4  2  1  0
  5  7  1  0
  5  6  1  6
  7  8  2  0
  9 10  1  0
  9  7  1  0
 10 14  1  0
 11 12  1  0
 10 11  1  6
 12 16  1  0
 13 12  2  0
 14 17  1  0
 14 15  2  0
 17 18  1  0
 18 24  1  0
 18 19  1  1
 20 21  1  0
 20 19  1  0
 22 21  1  0
 23 22  1  0
 24 26  1  0
 25 24  2  0
M  END
$$$$
