NDK.pdb
     RDKit          3D

 26 25  0  0  1  0  0  0  0  0999 V2000
    8.3205  -13.0581   16.3187 N   0  0  0  0  0  0  0  0  0  0  0  0
    7.6179  -14.2827   16.3213 C   0  0  0  0  0  0  0  0  0  0  0  0
    6.9287  -14.6479   15.3430 O   0  0  0  0  0  0  0  0  0  0  0  0
    7.6880  -15.1664   17.5007 C   0  0  0  0  0  0  0  0  0  0  0  0
    8.4391  -14.4719   18.6313 C   0  0  2  0  0  0  0  0  0  0  0  0
    9.7229  -14.0430   18.1207 N   0  0  0  0  0  0  0  0  0  0  0  0
    8.5557  -15.4016   19.7601 C   0  0  0  0  0  0  0  0  0  0  0  0
    7.5119  -15.7889   20.3443 O   0  0  0  0  0  0  0  0  0  0  0  0
    9.8386  -15.8495   20.1769 N   0  0  0  0  0  0  0  0  0  0  0  0
   10.0349  -16.6765   21.3517 C   0  0  1  0  0  0  0  0  0  0  0  0
   11.3113  -17.4567   21.1646 C   0  0  0  0  0  0  0  0  0  0  0  0
   11.2000  -18.3198   19.9658 C   0  0  0  0  0  0  0  0  0  0  0  0
   11.8319  -18.1335   18.8945 O   0  0  0  0  0  0  0  0  0  0  0  0
   10.0995  -15.8324   22.5833 C   0  0  0  0  0  0  0  0  0  0  0  0
   10.9129  -14.9046   22.7489 O   0  0  0  0  0  0  0  0  0  0  0  0
   10.3517  -19.4398   19.9496 O   0  0  0  0  0  0  0  0  0  0  0  0
    9.1821  -16.1006   23.6262 N   0  0  0  0  0  0  0  0  0  0  0  0
    9.1456  -15.2449   24.8399 C   0  0  1  0  0  0  0  0  0  0  0  0
    7.9299  -14.3844   24.8135 C   0  0  0  0  0  0  0  0  0  0  0  0
    7.8791  -13.4897   26.0137 C   0  0  0  0  0  0  0  0  0  0  0  0
    6.6300  -12.6131   26.0103 C   0  0  0  0  0  0  0  0  0  0  0  0
    6.6094  -11.6544   27.1613 C   0  0  0  0  0  0  0  0  0  0  0  0
    5.3753  -10.8573   27.1013 N   0  0  0  0  0  0  0  0  0  0  0  0
    9.2718  -16.0705   26.0392 C   0  0  0  0  0  0  0  0  0  0  0  0
    9.3407  -15.6551   27.2130 O   0  0  0  0  0  0  0  0  0  0  0  0
    9.3216  -17.4725   25.8709 O   0  0  0  0  0  0  0  0  0  0  0  0
  2  3  2  0
  2  1  1  0
  4  5  1  0
  4  2  1  0
  5  7  1  0
  5  6  1  6
  7  8  2  0
  9 10  1  0
  9  7  1  0
 10 14  1  0
 11 12  1  0
 10 11  1  6
 12 16  1  0
 13 12  2  0
 14 17  1  0
 14 15  2  0
 17 18  1  0
 18 24  1  0
 18 19  1  1
 20 21  1  0
 20 19  1  0
 22 21  1  0
 23 22  1  0
 24 26  1  0
 25 24  2  0
M  END
$$$$
