NDK.pdb
     RDKit          3D

 26 25  0  0  1  0  0  0  0  0999 V2000
    6.7846  -13.1846   16.7580 N   0  0  0  0  0  0  0  0  0  0  0  0
    7.4281  -13.9459   15.7584 C   0  0  0  0  0  0  0  0  0  0  0  0
    6.9459  -14.0658   14.6101 O   0  0  0  0  0  0  0  0  0  0  0  0
    8.7034  -14.6240   16.0596 C   0  0  0  0  0  0  0  0  0  0  0  0
    9.0645  -14.4314   17.5283 C   0  0  2  0  0  0  0  0  0  0  0  0
    9.0873  -13.0112   17.8027 N   0  0  0  0  0  0  0  0  0  0  0  0
   10.3535  -15.0830   17.7857 C   0  0  0  0  0  0  0  0  0  0  0  0
   10.4672  -16.3179   17.5784 O   0  0  0  0  0  0  0  0  0  0  0  0
   11.4502  -14.3155   18.2636 N   0  0  0  0  0  0  0  0  0  0  0  0
   12.7126  -14.9132   18.6531 C   0  0  1  0  0  0  0  0  0  0  0  0
   13.8118  -14.2215   17.8874 C   0  0  0  0  0  0  0  0  0  0  0  0
   15.1100  -14.8751   18.1740 C   0  0  0  0  0  0  0  0  0  0  0  0
   15.2479  -16.0970   18.4376 O   0  0  0  0  0  0  0  0  0  0  0  0
   12.9230  -14.7821   20.1269 C   0  0  0  0  0  0  0  0  0  0  0  0
   13.3680  -13.7581   20.6777 O   0  0  0  0  0  0  0  0  0  0  0  0
   16.3107  -14.1454   18.1693 O   0  0  0  0  0  0  0  0  0  0  0  0
   12.5976  -15.8861   20.9493 N   0  0  0  0  0  0  0  0  0  0  0  0
   12.8289  -15.8310   22.4156 C   0  0  1  0  0  0  0  0  0  0  0  0
   12.0170  -16.8798   23.0937 C   0  0  0  0  0  0  0  0  0  0  0  0
   12.2866  -16.8987   24.5670 C   0  0  0  0  0  0  0  0  0  0  0  0
   11.4578  -17.9648   25.2776 C   0  0  0  0  0  0  0  0  0  0  0  0
   11.7617  -18.0331   26.7430 C   0  0  0  0  0  0  0  0  0  0  0  0
   10.8333  -18.9765   27.3833 N   0  0  0  0  0  0  0  0  0  0  0  0
   14.2607  -15.9016   22.7001 C   0  0  0  0  0  0  0  0  0  0  0  0
   14.8928  -15.1582   23.4765 O   0  0  0  0  0  0  0  0  0  0  0  0
   15.0139  -16.8998   22.0425 O   0  0  0  0  0  0  0  0  0  0  0  0
  2  3  2  0
  2  1  1  0
  4  5  1  0
  4  2  1  0
  5  7  1  0
  5  6  1  6
  7  8  2  0
  9 10  1  0
  9  7  1  0
 10 14  1  0
 11 12  1  0
 10 11  1  6
 12 16  1  0
 13 12  2  0
 14 17  1  0
 14 15  2  0
 17 18  1  0
 18 24  1  0
 18 19  1  1
 20 21  1  0
 20 19  1  0
 22 21  1  0
 23 22  1  0
 24 26  1  0
 25 24  2  0
M  END
$$$$
