NDK.pdb
     RDKit          3D

 26 25  0  0  1  0  0  0  0  0999 V2000
   12.2662  -17.7133   17.9904 N   0  0  0  0  0  0  0  0  0  0  0  0
   10.9464  -18.2062   18.0815 C   0  0  0  0  0  0  0  0  0  0  0  0
   10.2342  -18.3713   17.0661 O   0  0  0  0  0  0  0  0  0  0  0  0
   10.3773  -18.5403   19.4011 C   0  0  0  0  0  0  0  0  0  0  0  0
   11.3460  -18.1352   20.5066 C   0  0  2  0  0  0  0  0  0  0  0  0
   12.5308  -18.9569   20.3891 N   0  0  0  0  0  0  0  0  0  0  0  0
   10.6730  -18.2864   21.8014 C   0  0  0  0  0  0  0  0  0  0  0  0
    9.6475  -17.5997   22.0420 O   0  0  0  0  0  0  0  0  0  0  0  0
   11.1852  -19.2008   22.7614 N   0  0  0  0  0  0  0  0  0  0  0  0
   10.6120  -19.3480   24.0852 C   0  0  1  0  0  0  0  0  0  0  0  0
   11.0068  -20.7027   24.6162 C   0  0  0  0  0  0  0  0  0  0  0  0
    9.9222  -21.6780   24.3572 C   0  0  0  0  0  0  0  0  0  0  0  0
    9.2131  -21.6934   23.3187 O   0  0  0  0  0  0  0  0  0  0  0  0
   11.0915  -18.2586   24.9891 C   0  0  0  0  0  0  0  0  0  0  0  0
   12.0297  -17.4882   24.7131 O   0  0  0  0  0  0  0  0  0  0  0  0
    9.6065  -22.6819   25.2881 O   0  0  0  0  0  0  0  0  0  0  0  0
   10.4422  -18.0893   26.2345 N   0  0  0  0  0  0  0  0  0  0  0  0
   10.6466  -16.8528   27.0318 C   0  0  1  0  0  0  0  0  0  0  0  0
    9.5931  -15.8553   26.6937 C   0  0  0  0  0  0  0  0  0  0  0  0
    9.7827  -14.5894   27.4717 C   0  0  0  0  0  0  0  0  0  0  0  0
    8.6485  -13.5996   27.2219 C   0  0  0  0  0  0  0  0  0  0  0  0
    8.8297  -12.3268   27.9909 C   0  0  0  0  0  0  0  0  0  0  0  0
    7.6445  -11.4774   27.8014 N   0  0  0  0  0  0  0  0  0  0  0  0
   10.7293  -17.1811   28.4535 C   0  0  0  0  0  0  0  0  0  0  0  0
   10.3326  -18.2356   28.9882 O   0  0  0  0  0  0  0  0  0  0  0  0
   11.3106  -16.2257   29.3169 O   0  0  0  0  0  0  0  0  0  0  0  0
  2  3  2  0
  2  1  1  0
  4  5  1  0
  4  2  1  0
  5  7  1  0
  5  6  1  1
  7  8  2  0
  9 10  1  0
  9  7  1  0
 10 14  1  0
 11 12  1  0
 10 11  1  1
 12 16  1  0
 13 12  2  0
 14 17  1  0
 14 15  2  0
 17 18  1  0
 18 24  1  0
 18 19  1  1
 20 21  1  0
 20 19  1  0
 22 21  1  0
 23 22  1  0
 24 26  1  0
 25 24  2  0
M  END
$$$$
