NDK.pdb
     RDKit          3D

 26 25  0  0  1  0  0  0  0  0999 V2000
    7.4250  -12.8057   16.6155 N   0  0  0  0  0  0  0  0  0  0  0  0
    7.3113  -14.1459   16.1866 C   0  0  0  0  0  0  0  0  0  0  0  0
    6.7097  -14.4507   15.1327 O   0  0  0  0  0  0  0  0  0  0  0  0
    7.9122  -15.2272   16.9908 C   0  0  0  0  0  0  0  0  0  0  0  0
    8.5142  -14.6557   18.2697 C   0  0  2  0  0  0  0  0  0  0  0  0
    9.3986  -13.5707   17.9040 N   0  0  0  0  0  0  0  0  0  0  0  0
    9.2012  -15.7337   18.9896 C   0  0  0  0  0  0  0  0  0  0  0  0
    8.5338  -16.7161   19.4023 O   0  0  0  0  0  0  0  0  0  0  0  0
   10.6029  -15.6544   19.2105 N   0  0  0  0  0  0  0  0  0  0  0  0
   11.3396  -16.6723   19.9344 C   0  0  1  0  0  0  0  0  0  0  0  0
   12.4375  -17.1813   19.0353 C   0  0  0  0  0  0  0  0  0  0  0  0
   13.0946  -18.3526   19.6604 C   0  0  0  0  0  0  0  0  0  0  0  0
   14.1426  -18.2939   20.3533 O   0  0  0  0  0  0  0  0  0  0  0  0
   11.9018  -16.1127   21.2010 C   0  0  0  0  0  0  0  0  0  0  0  0
   12.6486  -15.1179   21.2508 O   0  0  0  0  0  0  0  0  0  0  0  0
   12.5704  -19.6479   19.5133 O   0  0  0  0  0  0  0  0  0  0  0  0
   11.5669  -16.7490   22.4193 N   0  0  0  0  0  0  0  0  0  0  0  0
   12.0789  -16.2252   23.7116 C   0  0  1  0  0  0  0  0  0  0  0  0
   11.3605  -16.8795   24.8407 C   0  0  0  0  0  0  0  0  0  0  0  0
   11.8528  -16.3672   26.1594 C   0  0  0  0  0  0  0  0  0  0  0  0
   11.1616  -17.0638   27.3279 C   0  0  0  0  0  0  0  0  0  0  0  0
   11.5997  -16.5159   28.6516 C   0  0  0  0  0  0  0  0  0  0  0  0
   10.7872  -17.1228   29.7161 N   0  0  0  0  0  0  0  0  0  0  0  0
   13.5332  -16.3595   23.7660 C   0  0  0  0  0  0  0  0  0  0  0  0
   14.3448  -15.4532   24.0398 O   0  0  0  0  0  0  0  0  0  0  0  0
   14.0879  -17.6282   23.4849 O   0  0  0  0  0  0  0  0  0  0  0  0
  2  3  2  0
  2  1  1  0
  4  5  1  0
  4  2  1  0
  5  7  1  0
  5  6  1  6
  7  8  2  0
  9 10  1  0
  9  7  1  0
 10 14  1  0
 11 12  1  0
 10 11  1  6
 12 16  1  0
 13 12  2  0
 14 17  1  0
 14 15  2  0
 17 18  1  0
 18 24  1  0
 18 19  1  1
 20 21  1  0
 20 19  1  0
 22 21  1  0
 23 22  1  0
 24 26  1  0
 25 24  2  0
M  END
$$$$
