NDK.pdb
     RDKit          3D

 26 25  0  0  1  0  0  0  0  0999 V2000
    6.6761  -12.4482   18.2470 N   0  0  0  0  0  0  0  0  0  0  0  0
    7.7542  -13.2816   18.6162 C   0  0  0  0  0  0  0  0  0  0  0  0
    8.7631  -13.4135   17.8880 O   0  0  0  0  0  0  0  0  0  0  0  0
    7.7056  -14.0229   19.8909 C   0  0  0  0  0  0  0  0  0  0  0  0
    9.1058  -14.4805   20.2841 C   0  0  2  0  0  0  0  0  0  0  0  0
    9.6762  -15.1949   19.1629 N   0  0  0  0  0  0  0  0  0  0  0  0
    9.0098  -15.3028   21.4953 C   0  0  0  0  0  0  0  0  0  0  0  0
    8.1448  -15.0170   22.3620 O   0  0  0  0  0  0  0  0  0  0  0  0
    9.8901  -16.4044   21.6730 N   0  0  0  0  0  0  0  0  0  0  0  0
    9.9764  -17.1440   22.9173 C   0  0  1  0  0  0  0  0  0  0  0  0
   10.8797  -18.3300   22.6929 C   0  0  0  0  0  0  0  0  0  0  0  0
   10.5454  -18.9776   21.4031 C   0  0  0  0  0  0  0  0  0  0  0  0
   11.1362  -18.7460   20.3172 O   0  0  0  0  0  0  0  0  0  0  0  0
   10.5010  -16.2715   24.0115 C   0  0  0  0  0  0  0  0  0  0  0  0
   11.0084  -15.1502   23.8242 O   0  0  0  0  0  0  0  0  0  0  0  0
    9.5113  -19.9240   21.3084 O   0  0  0  0  0  0  0  0  0  0  0  0
   10.4173  -16.7449   25.3419 N   0  0  0  0  0  0  0  0  0  0  0  0
    9.9107  -15.8658   26.4268 C   0  0  1  0  0  0  0  0  0  0  0  0
    8.5672  -15.3365   26.0605 C   0  0  0  0  0  0  0  0  0  0  0  0
    8.3850  -13.9381   26.5656 C   0  0  0  0  0  0  0  0  0  0  0  0
    6.9237  -13.5029   26.5036 C   0  0  0  0  0  0  0  0  0  0  0  0
    6.7227  -12.1201   27.0437 C   0  0  0  0  0  0  0  0  0  0  0  0
    5.3243  -11.7190   26.8304 N   0  0  0  0  0  0  0  0  0  0  0  0
    9.9499  -16.5735   27.7048 C   0  0  0  0  0  0  0  0  0  0  0  0
    9.6283  -17.7632   27.8959 O   0  0  0  0  0  0  0  0  0  0  0  0
   10.3913  -15.8578   28.8403 O   0  0  0  0  0  0  0  0  0  0  0  0
  2  3  2  0
  2  1  1  0
  4  5  1  0
  4  2  1  0
  5  7  1  0
  5  6  1  6
  7  8  2  0
  9 10  1  0
  9  7  1  0
 10 14  1  0
 11 12  1  0
 10 11  1  6
 12 16  1  0
 13 12  2  0
 14 17  1  0
 14 15  2  0
 17 18  1  0
 18 24  1  0
 18 19  1  6
 20 21  1  0
 20 19  1  0
 22 21  1  0
 23 22  1  0
 24 26  1  0
 25 24  2  0
M  END
$$$$
