NDK.pdb
     RDKit          3D

 26 25  0  0  1  0  0  0  0  0999 V2000
    8.9082  -16.6355   14.4745 N   0  0  0  0  0  0  0  0  0  0  0  0
    8.1128  -17.6436   15.0613 C   0  0  0  0  0  0  0  0  0  0  0  0
    7.1664  -18.1787   14.4421 O   0  0  0  0  0  0  0  0  0  0  0  0
    8.3919  -18.0890   16.4399 C   0  0  0  0  0  0  0  0  0  0  0  0
    9.4212  -17.1701   17.0886 C   0  0  2  0  0  0  0  0  0  0  0  0
   10.7093  -17.4454   16.4905 N   0  0  0  0  0  0  0  0  0  0  0  0
    9.4056  -17.3945   18.5383 C   0  0  0  0  0  0  0  0  0  0  0  0
    8.3367  -17.2111   19.1746 O   0  0  0  0  0  0  0  0  0  0  0  0
   10.5911  -17.8131   19.2012 N   0  0  0  0  0  0  0  0  0  0  0  0
   10.6309  -18.1094   20.6202 C   0  0  1  0  0  0  0  0  0  0  0  0
   11.9594  -18.7537   20.9248 C   0  0  0  0  0  0  0  0  0  0  0  0
   11.9936  -20.1228   20.3600 C   0  0  0  0  0  0  0  0  0  0  0  0
   10.9767  -20.7678   19.9973 O   0  0  0  0  0  0  0  0  0  0  0  0
   10.4448  -16.8622   21.4224 C   0  0  0  0  0  0  0  0  0  0  0  0
   11.2393  -15.9038   21.4126 O   0  0  0  0  0  0  0  0  0  0  0  0
   13.2065  -20.8110   20.1883 O   0  0  0  0  0  0  0  0  0  0  0  0
    9.2973  -16.7608   22.2435 N   0  0  0  0  0  0  0  0  0  0  0  0
    9.0177  -15.5142   23.0013 C   0  0  1  0  0  0  0  0  0  0  0  0
    7.7302  -14.9226   22.5411 C   0  0  0  0  0  0  0  0  0  0  0  0
    7.9468  -13.5694   21.9365 C   0  0  0  0  0  0  0  0  0  0  0  0
    7.9395  -13.6261   20.4116 C   0  0  0  0  0  0  0  0  0  0  0  0
    8.2981  -12.3085   19.7954 C   0  0  0  0  0  0  0  0  0  0  0  0
    8.3730  -12.4648   18.3354 N   0  0  0  0  0  0  0  0  0  0  0  0
    9.0791  -15.7765   24.4378 C   0  0  0  0  0  0  0  0  0  0  0  0
    8.9568  -16.8893   24.9871 O   0  0  0  0  0  0  0  0  0  0  0  0
    9.2971  -14.6777   25.2987 O   0  0  0  0  0  0  0  0  0  0  0  0
  2  3  2  0
  2  1  1  0
  4  5  1  0
  4  2  1  0
  5  7  1  0
  5  6  1  6
  7  8  2  0
  9 10  1  0
  9  7  1  0
 10 14  1  0
 11 12  1  0
 10 11  1  1
 12 16  1  0
 13 12  2  0
 14 17  1  0
 14 15  2  0
 17 18  1  0
 18 24  1  0
 18 19  1  1
 20 21  1  0
 20 19  1  0
 22 21  1  0
 23 22  1  0
 24 26  1  0
 25 24  2  0
M  END
$$$$
