NDK.pdb
     RDKit          3D

 26 25  0  0  1  0  0  0  0  0999 V2000
    7.0073  -11.4516   17.9795 N   0  0  0  0  0  0  0  0  0  0  0  0
    7.6505  -12.4574   18.7330 C   0  0  0  0  0  0  0  0  0  0  0  0
    7.2466  -12.7872   19.8703 O   0  0  0  0  0  0  0  0  0  0  0  0
    8.8310  -13.1475   18.1789 C   0  0  0  0  0  0  0  0  0  0  0  0
    9.3882  -14.1332   19.1999 C   0  0  2  0  0  0  0  0  0  0  0  0
    9.5250  -13.4420   20.4633 N   0  0  0  0  0  0  0  0  0  0  0  0
   10.6614  -14.6619   18.6980 C   0  0  0  0  0  0  0  0  0  0  0  0
   10.6651  -15.3557   17.6494 O   0  0  0  0  0  0  0  0  0  0  0  0
   11.8666  -14.3856   19.3989 N   0  0  0  0  0  0  0  0  0  0  0  0
   13.1194  -15.0484   19.0924 C   0  0  1  0  0  0  0  0  0  0  0  0
   14.2247  -14.0289   19.2001 C   0  0  0  0  0  0  0  0  0  0  0  0
   15.4805  -14.5913   18.6513 C   0  0  0  0  0  0  0  0  0  0  0  0
   15.5899  -15.7467   18.1667 O   0  0  0  0  0  0  0  0  0  0  0  0
   13.3518  -16.1904   20.0281 C   0  0  0  0  0  0  0  0  0  0  0  0
   12.8188  -17.3088   19.9066 O   0  0  0  0  0  0  0  0  0  0  0  0
   16.6699  -13.8433   18.6374 O   0  0  0  0  0  0  0  0  0  0  0  0
   14.2305  -15.9923   21.1189 N   0  0  0  0  0  0  0  0  0  0  0  0
   14.4410  -17.0650   22.1247 C   0  0  1  0  0  0  0  0  0  0  0  0
   14.8447  -18.3252   21.4405 C   0  0  0  0  0  0  0  0  0  0  0  0
   15.1328  -19.4077   22.4350 C   0  0  0  0  0  0  0  0  0  0  0  0
   15.5023  -20.7194   21.7485 C   0  0  0  0  0  0  0  0  0  0  0  0
   15.7480  -21.8223   22.7321 C   0  0  0  0  0  0  0  0  0  0  0  0
   15.9335  -23.0852   22.0023 N   0  0  0  0  0  0  0  0  0  0  0  0
   15.3768  -16.6123   23.1519 C   0  0  0  0  0  0  0  0  0  0  0  0
   15.6512  -17.2110   24.2108 O   0  0  0  0  0  0  0  0  0  0  0  0
   16.0416  -15.3836   22.9411 O   0  0  0  0  0  0  0  0  0  0  0  0
  2  3  2  0
  2  1  1  0
  4  5  1  0
  4  2  1  0
  5  7  1  0
  5  6  1  1
  7  8  2  0
  9 10  1  0
  9  7  1  0
 10 14  1  0
 11 12  1  0
 10 11  1  1
 12 16  1  0
 13 12  2  0
 14 17  1  0
 14 15  2  0
 17 18  1  0
 18 24  1  0
 18 19  1  6
 20 21  1  0
 20 19  1  0
 22 21  1  0
 23 22  1  0
 24 26  1  0
 25 24  2  0
M  END
$$$$
