TVL.pdb
     RDKit          3D

 23 22  0  0  1  0  0  0  0  0999 V2000
   10.9224  -19.4491   22.4962 C   0  0  0  0  0  0  0  0  0  0  0  0
   11.9599  -18.8880   21.5448 C   0  0  1  0  0  0  0  0  0  0  0  0
   12.4640  -20.0254   20.8603 O   0  0  0  0  0  0  0  0  0  0  0  0
   11.3410  -17.9925   20.4894 C   0  0  2  0  0  0  0  0  0  0  0  0
   12.4926  -17.5331   19.6840 N   0  0  0  0  0  0  0  0  0  0  0  0
   10.7150  -16.7741   21.0269 C   0  0  0  0  0  0  0  0  0  0  0  0
   11.4201  -15.8403   21.5486 O   0  0  0  0  0  0  0  0  0  0  0  0
    7.4157  -14.5231   19.8279 C   0  0  0  0  0  0  0  0  0  0  0  0
    7.3655  -15.0212   21.2500 C   0  0  2  0  0  0  0  0  0  0  0  0
    6.7547  -14.0017   22.1529 C   0  0  0  0  0  0  0  0  0  0  0  0
    8.7407  -15.4072   21.7642 C   0  0  2  0  0  0  0  0  0  0  0  0
    9.3106  -16.4954   21.0304 N   0  0  0  0  0  0  0  0  0  0  0  0
    8.6051  -15.6120   23.2155 C   0  0  0  0  0  0  0  0  0  0  0  0
    8.6226  -16.8424   23.5750 O   0  0  0  0  0  0  0  0  0  0  0  0
    6.3029  -13.0586   25.4699 C   0  0  0  0  0  0  0  0  0  0  0  0
    6.9863  -13.3762   26.8139 C   0  0  2  0  0  0  0  0  0  0  0  0
    6.8726  -12.0767   27.6008 C   0  0  0  0  0  0  0  0  0  0  0  0
    8.3845  -13.7633   26.4858 C   0  0  0  0  0  0  0  0  0  0  0  0
    8.5391  -14.9691   25.6033 C   0  0  2  0  0  0  0  0  0  0  0  0
    8.4647  -14.6298   24.1984 N   0  0  0  0  0  0  0  0  0  0  0  0
    7.6678  -16.0996   25.9332 C   0  0  0  0  0  0  0  0  0  0  0  0
    6.5521  -16.3063   25.3944 O   0  0  0  0  0  0  0  0  0  0  0  0
    8.0603  -17.0390   26.9080 O   0  0  0  0  0  0  0  0  0  0  0  0
  2  1  1  1
  3  2  1  0
  4  2  1  0
  4  6  1  0
  4  5  1  6
  6  7  2  0
  9  8  1  6
 10  9  1  0
 11 13  1  0
 11  9  1  0
 12  6  1  0
 11 12  1  6
 13 14  2  0
 16 18  1  0
 16 15  1  6
 17 16  1  0
 19 18  1  1
 19 21  1  0
 20 19  1  0
 20 13  1  0
 21 22  2  0
 21 23  1  0
M  END
$$$$
