TVL.pdb
     RDKit          3D

 23 22  0  0  1  0  0  0  0  0999 V2000
    8.4019  -19.5165   21.9623 C   0  0  0  0  0  0  0  0  0  0  0  0
    9.2545  -19.4726   20.7103 C   0  0  1  0  0  0  0  0  0  0  0  0
    8.9030  -20.6516   20.0014 O   0  0  0  0  0  0  0  0  0  0  0  0
    8.8888  -18.3074   19.8117 C   0  0  2  0  0  0  0  0  0  0  0  0
    9.7778  -18.4608   18.6404 N   0  0  0  0  0  0  0  0  0  0  0  0
    9.2002  -16.9874   20.3824 C   0  0  0  0  0  0  0  0  0  0  0  0
   10.4100  -16.6286   20.6038 O   0  0  0  0  0  0  0  0  0  0  0  0
    6.3781  -13.6486   21.1019 C   0  0  0  0  0  0  0  0  0  0  0  0
    7.8646  -13.5714   20.8623 C   0  0  2  0  0  0  0  0  0  0  0  0
    8.1653  -13.4243   19.4078 C   0  0  0  0  0  0  0  0  0  0  0  0
    8.5921  -14.7817   21.4193 C   0  0  2  0  0  0  0  0  0  0  0  0
    8.2371  -15.9903   20.7405 N   0  0  0  0  0  0  0  0  0  0  0  0
    8.3702  -14.7731   22.8744 C   0  0  0  0  0  0  0  0  0  0  0  0
    7.2894  -15.3556   23.2431 O   0  0  0  0  0  0  0  0  0  0  0  0
    5.7230  -12.0208   26.4522 C   0  0  0  0  0  0  0  0  0  0  0  0
    6.9906  -12.8756   26.6444 C   0  0  2  0  0  0  0  0  0  0  0  0
    7.8931  -12.0059   27.5103 C   0  0  0  0  0  0  0  0  0  0  0  0
    7.5268  -13.1328   25.2811 C   0  0  0  0  0  0  0  0  0  0  0  0
    8.7243  -14.0370   25.2094 C   0  0  2  0  0  0  0  0  0  0  0  0
    9.1948  -14.2120   23.8520 N   0  0  0  0  0  0  0  0  0  0  0  0
    8.5794  -15.3203   25.9009 C   0  0  0  0  0  0  0  0  0  0  0  0
    8.5463  -15.4442   27.1504 O   0  0  0  0  0  0  0  0  0  0  0  0
    8.4675  -16.5165   25.1638 O   0  0  0  0  0  0  0  0  0  0  0  0
  2  1  1  1
  3  2  1  0
  4  2  1  0
  4  6  1  0
  4  5  1  6
  6  7  2  0
  9  8  1  6
 10  9  1  0
 11 13  1  0
 11  9  1  0
 12  6  1  0
 11 12  1  6
 13 14  2  0
 16 18  1  0
 16 15  1  6
 17 16  1  0
 19 18  1  6
 19 21  1  0
 20 19  1  0
 20 13  1  0
 21 22  2  0
 21 23  1  0
M  END
$$$$
