TVL.pdb
     RDKit          3D

 23 22  0  0  1  0  0  0  0  0999 V2000
    7.1702  -19.3426   22.8530 C   0  0  0  0  0  0  0  0  0  0  0  0
    7.8348  -19.5222   21.5030 C   0  0  1  0  0  0  0  0  0  0  0  0
    7.2272  -20.6857   20.9616 O   0  0  0  0  0  0  0  0  0  0  0  0
    7.5098  -18.3872   20.5517 C   0  0  2  0  0  0  0  0  0  0  0  0
    8.0495  -18.8390   19.2515 N   0  0  0  0  0  0  0  0  0  0  0  0
    8.2050  -17.1273   20.8593 C   0  0  0  0  0  0  0  0  0  0  0  0
    9.4810  -17.0817   20.9639 O   0  0  0  0  0  0  0  0  0  0  0  0
    7.1555  -13.3939   19.6001 C   0  0  0  0  0  0  0  0  0  0  0  0
    7.5583  -13.4095   21.0529 C   0  0  2  0  0  0  0  0  0  0  0  0
    8.3930  -12.2190   21.3897 C   0  0  0  0  0  0  0  0  0  0  0  0
    8.3013  -14.6810   21.4214 C   0  0  2  0  0  0  0  0  0  0  0  0
    7.5721  -15.8599   21.0670 N   0  0  0  0  0  0  0  0  0  0  0  0
    8.6705  -14.5562   22.8408 C   0  0  0  0  0  0  0  0  0  0  0  0
    9.6858  -13.8030   23.0540 O   0  0  0  0  0  0  0  0  0  0  0  0
    7.8763  -11.9294   26.2401 C   0  0  0  0  0  0  0  0  0  0  0  0
    6.8509  -12.9428   25.6962 C   0  0  2  0  0  0  0  0  0  0  0  0
    5.5406  -12.5302   26.3547 C   0  0  0  0  0  0  0  0  0  0  0  0
    7.3378  -14.2862   26.1092 C   0  0  0  0  0  0  0  0  0  0  0  0
    8.4580  -14.8569   25.2870 C   0  0  2  0  0  0  0  0  0  0  0  0
    8.0426  -15.1578   23.9337 N   0  0  0  0  0  0  0  0  0  0  0  0
    9.1690  -15.9830   25.8973 C   0  0  0  0  0  0  0  0  0  0  0  0
    9.5749  -15.9954   27.0859 O   0  0  0  0  0  0  0  0  0  0  0  0
    9.4383  -17.1449   25.1462 O   0  0  0  0  0  0  0  0  0  0  0  0
  2  1  1  1
  3  2  1  0
  4  2  1  0
  4  6  1  0
  4  5  1  6
  6  7  2  0
  9  8  1  6
 10  9  1  0
 11 13  1  0
 11  9  1  0
 12  6  1  0
 11 12  1  1
 13 14  2  0
 16 18  1  0
 16 15  1  1
 17 16  1  0
 19 18  1  1
 19 21  1  0
 20 19  1  0
 20 13  1  0
 21 22  2  0
 21 23  1  0
M  END
$$$$
