TVL.pdb
     RDKit          3D

 23 22  0  0  1  0  0  0  0  0999 V2000
    8.3153  -12.5177   20.2401 C   0  0  0  0  0  0  0  0  0  0  0  0
    7.8009  -13.3730   19.0998 C   0  0  1  0  0  0  0  0  0  0  0  0
    8.3294  -12.7612   17.9324 O   0  0  0  0  0  0  0  0  0  0  0  0
    8.3675  -14.7788   19.1405 C   0  0  2  0  0  0  0  0  0  0  0  0
    7.6301  -15.4970   18.0792 N   0  0  0  0  0  0  0  0  0  0  0  0
    8.0843  -15.5050   20.3885 C   0  0  0  0  0  0  0  0  0  0  0  0
    6.9030  -15.9181   20.6627 O   0  0  0  0  0  0  0  0  0  0  0  0
    9.0776  -18.5447   24.0245 C   0  0  0  0  0  0  0  0  0  0  0  0
    9.3657  -17.8736   22.7055 C   0  0  2  0  0  0  0  0  0  0  0  0
   10.8354  -17.7383   22.4836 C   0  0  0  0  0  0  0  0  0  0  0  0
    8.7017  -16.5122   22.6053 C   0  0  2  0  0  0  0  0  0  0  0  0
    9.0472  -15.8253   21.3986 N   0  0  0  0  0  0  0  0  0  0  0  0
    9.0063  -15.8023   23.8584 C   0  0  0  0  0  0  0  0  0  0  0  0
   10.2018  -15.3443   23.9239 O   0  0  0  0  0  0  0  0  0  0  0  0
    7.9566  -11.8904   25.5450 C   0  0  0  0  0  0  0  0  0  0  0  0
    6.8808  -12.9771   25.7348 C   0  0  2  0  0  0  0  0  0  0  0  0
    5.6936  -12.2217   26.3186 C   0  0  0  0  0  0  0  0  0  0  0  0
    7.4687  -13.9846   26.6575 C   0  0  0  0  0  0  0  0  0  0  0  0
    8.5782  -14.8230   26.0892 C   0  0  2  0  0  0  0  0  0  0  0  0
    8.1482  -15.5897   24.9396 N   0  0  0  0  0  0  0  0  0  0  0  0
    9.2897  -15.6576   27.0604 C   0  0  0  0  0  0  0  0  0  0  0  0
   10.0228  -15.2023   27.9731 O   0  0  0  0  0  0  0  0  0  0  0  0
    9.1774  -17.0617   27.0084 O   0  0  0  0  0  0  0  0  0  0  0  0
  2  1  1  1
  3  2  1  0
  4  2  1  0
  4  6  1  0
  4  5  1  6
  6  7  2  0
  9  8  1  1
 10  9  1  0
 11 13  1  0
 11  9  1  0
 12  6  1  0
 11 12  1  6
 13 14  2  0
 16 18  1  0
 16 15  1  1
 17 16  1  0
 19 18  1  1
 19 21  1  0
 20 19  1  0
 20 13  1  0
 21 22  2  0
 21 23  1  0
M  END
$$$$
