TVL.pdb
     RDKit          3D

 23 22  0  0  1  0  0  0  0  0999 V2000
   11.6340  -16.3386   20.6628 C   0  0  0  0  0  0  0  0  0  0  0  0
   10.8339  -16.6040   19.4035 C   0  0  1  0  0  0  0  0  0  0  0  0
   11.7885  -17.0970   18.4751 O   0  0  0  0  0  0  0  0  0  0  0  0
    9.8146  -17.7096   19.5976 C   0  0  2  0  0  0  0  0  0  0  0  0
    9.0651  -17.7385   18.3235 N   0  0  0  0  0  0  0  0  0  0  0  0
    8.8181  -17.4314   20.6438 C   0  0  0  0  0  0  0  0  0  0  0  0
    7.9060  -16.5479   20.4737 O   0  0  0  0  0  0  0  0  0  0  0  0
    6.3426  -18.5851   24.7916 C   0  0  0  0  0  0  0  0  0  0  0  0
    7.3657  -18.9493   23.7458 C   0  0  2  0  0  0  0  0  0  0  0  0
    8.5787  -19.5533   24.3712 C   0  0  0  0  0  0  0  0  0  0  0  0
    7.7630  -17.7524   22.9008 C   0  0  2  0  0  0  0  0  0  0  0  0
    8.7475  -18.0835   21.9165 N   0  0  0  0  0  0  0  0  0  0  0  0
    8.1280  -16.6780   23.8384 C   0  0  0  0  0  0  0  0  0  0  0  0
    9.3896  -16.5569   24.0314 O   0  0  0  0  0  0  0  0  0  0  0  0
    5.8649  -11.8881   26.9991 C   0  0  0  0  0  0  0  0  0  0  0  0
    7.1435  -12.6728   26.6472 C   0  0  2  0  0  0  0  0  0  0  0  0
    8.0582  -11.6258   26.0243 C   0  0  0  0  0  0  0  0  0  0  0  0
    6.7246  -13.7457   25.7061 C   0  0  0  0  0  0  0  0  0  0  0  0
    7.7765  -14.7618   25.3628 C   0  0  2  0  0  0  0  0  0  0  0  0
    7.2623  -15.8124   24.5107 N   0  0  0  0  0  0  0  0  0  0  0  0
    8.5154  -15.3052   26.5051 C   0  0  0  0  0  0  0  0  0  0  0  0
    9.6250  -14.8655   26.8965 O   0  0  0  0  0  0  0  0  0  0  0  0
    7.9915  -16.3872   27.2410 O   0  0  0  0  0  0  0  0  0  0  0  0
  2  1  1  1
  3  2  1  0
  4  2  1  0
  4  6  1  0
  4  5  1  6
  6  7  2  0
  9  8  1  1
 10  9  1  0
 11 13  1  0
 11  9  1  0
 12  6  1  0
 11 12  1  6
 13 14  2  0
 16 18  1  0
 16 15  1  6
 17 16  1  0
 19 18  1  1
 19 21  1  0
 20 19  1  0
 20 13  1  0
 21 22  2  0
 21 23  1  0
M  END
$$$$
