TVL.pdb
     RDKit          3D

 23 22  0  0  1  0  0  0  0  0999 V2000
   11.3541  -13.9088   20.1483 C   0  0  0  0  0  0  0  0  0  0  0  0
   10.3128  -13.1901   19.3144 C   0  0  1  0  0  0  0  0  0  0  0  0
   10.9550  -12.9579   18.0695 O   0  0  0  0  0  0  0  0  0  0  0  0
    9.1124  -14.0683   19.0198 C   0  0  2  0  0  0  0  0  0  0  0  0
    8.2064  -13.1946   18.2442 N   0  0  0  0  0  0  0  0  0  0  0  0
    8.3553  -14.4722   20.2152 C   0  0  0  0  0  0  0  0  0  0  0  0
    7.4038  -13.7476   20.6744 O   0  0  0  0  0  0  0  0  0  0  0  0
    8.7298  -18.3402   22.1917 C   0  0  0  0  0  0  0  0  0  0  0  0
    7.4729  -17.5085   22.1538 C   0  0  2  0  0  0  0  0  0  0  0  0
    6.6152  -17.8875   20.9927 C   0  0  0  0  0  0  0  0  0  0  0  0
    7.7781  -16.0222   22.1057 C   0  0  2  0  0  0  0  0  0  0  0  0
    8.5767  -15.6666   20.9729 N   0  0  0  0  0  0  0  0  0  0  0  0
    8.3333  -15.6640   23.4211 C   0  0  0  0  0  0  0  0  0  0  0  0
    9.6114  -15.5665   23.4415 O   0  0  0  0  0  0  0  0  0  0  0  0
    6.7135  -12.0915   27.4302 C   0  0  0  0  0  0  0  0  0  0  0  0
    7.4554  -12.8433   26.3083 C   0  0  2  0  0  0  0  0  0  0  0  0
    6.5769  -12.6340   25.0815 C   0  0  0  0  0  0  0  0  0  0  0  0
    7.5476  -14.2604   26.7506 C   0  0  0  0  0  0  0  0  0  0  0  0
    8.3200  -15.1786   25.8467 C   0  0  2  0  0  0  0  0  0  0  0  0
    7.6255  -15.4296   24.6021 N   0  0  0  0  0  0  0  0  0  0  0  0
    8.7824  -16.4221   26.4680 C   0  0  0  0  0  0  0  0  0  0  0  0
    8.2565  -17.5449   26.2668 O   0  0  0  0  0  0  0  0  0  0  0  0
    9.8795  -16.4095   27.3528 O   0  0  0  0  0  0  0  0  0  0  0  0
  2  1  1  1
  3  2  1  0
  4  2  1  0
  4  6  1  0
  4  5  1  6
  6  7  2  0
  9  8  1  6
 10  9  1  0
 11 13  1  0
 11  9  1  0
 12  6  1  0
 11 12  1  6
 13 14  2  0
 16 18  1  0
 16 15  1  1
 17 16  1  0
 19 18  1  1
 19 21  1  0
 20 19  1  0
 20 13  1  0
 21 22  2  0
 21 23  1  0
M  END
$$$$
