TVL.pdb
     RDKit          3D

 23 22  0  0  1  0  0  0  0  0999 V2000
    5.5869  -19.9484   21.0533 C   0  0  0  0  0  0  0  0  0  0  0  0
    6.4885  -18.8330   21.5424 C   0  0  1  0  0  0  0  0  0  0  0  0
    7.6009  -19.5032   22.1165 O   0  0  0  0  0  0  0  0  0  0  0  0
    7.0343  -17.9982   20.4003 C   0  0  2  0  0  0  0  0  0  0  0  0
    7.8601  -18.9458   19.6219 N   0  0  0  0  0  0  0  0  0  0  0  0
    7.9463  -16.9239   20.8234 C   0  0  0  0  0  0  0  0  0  0  0  0
    9.1817  -17.1597   21.0673 O   0  0  0  0  0  0  0  0  0  0  0  0
    6.8446  -12.6955   21.6569 C   0  0  0  0  0  0  0  0  0  0  0  0
    8.1275  -13.1612   21.0163 C   0  0  2  0  0  0  0  0  0  0  0  0
    8.0304  -13.1138   19.5277 C   0  0  0  0  0  0  0  0  0  0  0  0
    8.5087  -14.5609   21.4636 C   0  0  2  0  0  0  0  0  0  0  0  0
    7.5835  -15.5506   21.0033 N   0  0  0  0  0  0  0  0  0  0  0  0
    8.7091  -14.4970   22.9205 C   0  0  0  0  0  0  0  0  0  0  0  0
    9.8380  -14.0022   23.2730 O   0  0  0  0  0  0  0  0  0  0  0  0
    6.3646  -12.0770   26.3985 C   0  0  0  0  0  0  0  0  0  0  0  0
    7.5149  -13.0221   26.7962 C   0  0  2  0  0  0  0  0  0  0  0  0
    8.7521  -12.3712   26.1908 C   0  0  0  0  0  0  0  0  0  0  0  0
    7.1821  -14.3482   26.2105 C   0  0  0  0  0  0  0  0  0  0  0  0
    8.2226  -14.9426   25.3046 C   0  0  2  0  0  0  0  0  0  0  0  0
    7.8193  -14.9087   23.9151 N   0  0  0  0  0  0  0  0  0  0  0  0
    8.7055  -16.2693   25.6952 C   0  0  0  0  0  0  0  0  0  0  0  0
    8.4526  -17.3231   25.0601 O   0  0  0  0  0  0  0  0  0  0  0  0
    9.5049  -16.4247   26.8456 O   0  0  0  0  0  0  0  0  0  0  0  0
  2  1  1  6
  3  2  1  0
  4  2  1  0
  4  6  1  0
  4  5  1  6
  6  7  2  0
  9  8  1  1
 10  9  1  0
 11 13  1  0
 11  9  1  0
 12  6  1  0
 11 12  1  1
 13 14  2  0
 16 18  1  0
 16 15  1  6
 17 16  1  0
 19 18  1  1
 19 21  1  0
 20 19  1  0
 20 13  1  0
 21 22  2  0
 21 23  1  0
M  END
$$$$
