TVL.pdb
     RDKit          3D

 23 22  0  0  1  0  0  0  0  0999 V2000
   11.9354  -20.1356   20.9160 C   0  0  0  0  0  0  0  0  0  0  0  0
   11.5287  -18.8136   21.5350 C   0  0  1  0  0  0  0  0  0  0  0  0
   12.7497  -18.2397   21.9777 O   0  0  0  0  0  0  0  0  0  0  0  0
   10.9527  -17.8567   20.5096 C   0  0  2  0  0  0  0  0  0  0  0  0
   12.1097  -17.4926   19.6642 N   0  0  0  0  0  0  0  0  0  0  0  0
   10.4572  -16.5932   21.0783 C   0  0  0  0  0  0  0  0  0  0  0  0
   11.2655  -15.6907   21.4947 O   0  0  0  0  0  0  0  0  0  0  0  0
    6.2735  -15.4260   21.2320 C   0  0  0  0  0  0  0  0  0  0  0  0
    7.4120  -14.4393   21.2886 C   0  0  2  0  0  0  0  0  0  0  0  0
    7.7270  -13.9068   19.9304 C   0  0  0  0  0  0  0  0  0  0  0  0
    8.6586  -15.0473   21.9058 C   0  0  2  0  0  0  0  0  0  0  0  0
    9.0791  -16.2343   21.2264 N   0  0  0  0  0  0  0  0  0  0  0  0
    8.3873  -15.1928   23.3452 C   0  0  0  0  0  0  0  0  0  0  0  0
    8.1626  -16.3990   23.7168 O   0  0  0  0  0  0  0  0  0  0  0  0
    6.0677  -11.4276   27.2065 C   0  0  0  0  0  0  0  0  0  0  0  0
    7.0970  -12.5742   27.1984 C   0  0  2  0  0  0  0  0  0  0  0  0
    8.4406  -11.8619   27.1081 C   0  0  0  0  0  0  0  0  0  0  0  0
    6.7756  -13.4104   26.0111 C   0  0  0  0  0  0  0  0  0  0  0  0
    7.8137  -14.4255   25.6259 C   0  0  2  0  0  0  0  0  0  0  0  0
    8.3533  -14.1795   24.3058 N   0  0  0  0  0  0  0  0  0  0  0  0
    7.4112  -15.8241   25.7934 C   0  0  0  0  0  0  0  0  0  0  0  0
    6.4459  -16.3536   25.1888 O   0  0  0  0  0  0  0  0  0  0  0  0
    8.1177  -16.6665   26.6752 O   0  0  0  0  0  0  0  0  0  0  0  0
  2  1  1  6
  3  2  1  0
  4  2  1  0
  4  6  1  0
  4  5  1  6
  6  7  2  0
  9  8  1  6
 10  9  1  0
 11 13  1  0
 11  9  1  0
 12  6  1  0
 11 12  1  6
 13 14  2  0
 16 18  1  0
 16 15  1  6
 17 16  1  0
 19 18  1  6
 19 21  1  0
 20 19  1  0
 20 13  1  0
 21 22  2  0
 21 23  1  0
M  END
$$$$
