TVL.pdb
     RDKit          3D

 23 22  0  0  1  0  0  0  0  0999 V2000
    6.7644  -18.8170   23.7361 C   0  0  0  0  0  0  0  0  0  0  0  0
    7.3368  -19.5266   22.5257 C   0  0  1  0  0  0  0  0  0  0  0  0
    6.5433  -20.6967   22.3935 O   0  0  0  0  0  0  0  0  0  0  0  0
    7.1400  -18.7295   21.2510 C   0  0  2  0  0  0  0  0  0  0  0  0
    7.6760  -19.6072   20.1889 N   0  0  0  0  0  0  0  0  0  0  0  0
    7.9331  -17.4917   21.1877 C   0  0  0  0  0  0  0  0  0  0  0  0
    9.2124  -17.5254   21.1273 O   0  0  0  0  0  0  0  0  0  0  0  0
    8.4454  -12.5985   20.4870 C   0  0  0  0  0  0  0  0  0  0  0  0
    7.6193  -13.8558   20.3889 C   0  0  2  0  0  0  0  0  0  0  0  0
    6.2184  -13.6126   20.8423 C   0  0  0  0  0  0  0  0  0  0  0  0
    8.2276  -14.9971   21.1839 C   0  0  2  0  0  0  0  0  0  0  0  0
    7.3987  -16.1634   21.1837 N   0  0  0  0  0  0  0  0  0  0  0  0
    8.5696  -14.4521   22.5079 C   0  0  0  0  0  0  0  0  0  0  0  0
    8.4449  -13.1794   22.5988 O   0  0  0  0  0  0  0  0  0  0  0  0
    6.0377  -12.4993   26.4022 C   0  0  0  0  0  0  0  0  0  0  0  0
    7.4237  -13.1706   26.4547 C   0  0  2  0  0  0  0  0  0  0  0  0
    8.3698  -12.0337   26.8195 C   0  0  0  0  0  0  0  0  0  0  0  0
    7.6585  -13.7413   25.1014 C   0  0  0  0  0  0  0  0  0  0  0  0
    8.8830  -14.5996   24.9572 C   0  0  2  0  0  0  0  0  0  0  0  0
    8.9999  -15.1640   23.6297 N   0  0  0  0  0  0  0  0  0  0  0  0
    9.0563  -15.6187   25.9952 C   0  0  0  0  0  0  0  0  0  0  0  0
    8.1839  -16.4716   26.2938 O   0  0  0  0  0  0  0  0  0  0  0  0
   10.2563  -15.6867   26.7314 O   0  0  0  0  0  0  0  0  0  0  0  0
  2  1  1  1
  3  2  1  0
  4  2  1  0
  4  6  1  0
  4  5  1  6
  6  7  2  0
  9  8  1  1
 10  9  1  0
 11 13  1  0
 11  9  1  0
 12  6  1  0
 11 12  1  1
 13 14  2  0
 16 18  1  0
 16 15  1  6
 17 16  1  0
 19 18  1  6
 19 21  1  0
 20 19  1  0
 20 13  1  0
 21 22  2  0
 21 23  1  0
M  END
$$$$
