TVL.pdb
     RDKit          3D

 23 22  0  0  1  0  0  0  0  0999 V2000
    5.6975  -20.0628   21.4405 C   0  0  0  0  0  0  0  0  0  0  0  0
    6.6936  -18.9700   21.7721 C   0  0  1  0  0  0  0  0  0  0  0  0
    7.9021  -19.6637   22.0448 O   0  0  0  0  0  0  0  0  0  0  0  0
    6.9737  -18.0732   20.5821 C   0  0  2  0  0  0  0  0  0  0  0  0
    7.6262  -18.9666   19.6012 N   0  0  0  0  0  0  0  0  0  0  0  0
    7.9422  -16.9992   20.8537 C   0  0  0  0  0  0  0  0  0  0  0  0
    9.1969  -17.2431   20.9405 O   0  0  0  0  0  0  0  0  0  0  0  0
    6.9952  -12.7240   21.7273 C   0  0  0  0  0  0  0  0  0  0  0  0
    8.2208  -13.2427   21.0189 C   0  0  2  0  0  0  0  0  0  0  0  0
    8.0360  -13.2130   19.5382 C   0  0  0  0  0  0  0  0  0  0  0  0
    8.5811  -14.6481   21.4653 C   0  0  2  0  0  0  0  0  0  0  0  0
    7.6174  -15.6176   21.0426 N   0  0  0  0  0  0  0  0  0  0  0  0
    8.8294  -14.5786   22.9146 C   0  0  0  0  0  0  0  0  0  0  0  0
    9.8515  -13.8756   23.2380 O   0  0  0  0  0  0  0  0  0  0  0  0
    8.0548  -12.0512   26.3530 C   0  0  0  0  0  0  0  0  0  0  0  0
    6.9814  -12.9483   25.7069 C   0  0  2  0  0  0  0  0  0  0  0  0
    5.6724  -12.4397   26.2974 C   0  0  0  0  0  0  0  0  0  0  0  0
    7.3185  -14.3434   26.0972 C   0  0  0  0  0  0  0  0  0  0  0  0
    8.4314  -14.9886   25.3214 C   0  0  2  0  0  0  0  0  0  0  0  0
    8.0846  -15.1829   23.9298 N   0  0  0  0  0  0  0  0  0  0  0  0
    8.9813  -16.2088   25.9170 C   0  0  0  0  0  0  0  0  0  0  0  0
    9.2981  -16.3176   27.1276 O   0  0  0  0  0  0  0  0  0  0  0  0
    9.1864  -17.3565   25.1249 O   0  0  0  0  0  0  0  0  0  0  0  0
  2  1  1  6
  3  2  1  0
  4  2  1  0
  4  6  1  0
  4  5  1  6
  6  7  2  0
  9  8  1  1
 10  9  1  0
 11 13  1  0
 11  9  1  0
 12  6  1  0
 11 12  1  1
 13 14  2  0
 16 18  1  0
 16 15  1  1
 17 16  1  0
 19 18  1  1
 19 21  1  0
 20 19  1  0
 20 13  1  0
 21 22  2  0
 21 23  1  0
M  END
$$$$
