TVL.pdb
     RDKit          3D

 23 22  0  0  1  0  0  0  0  0999 V2000
    8.7491  -20.8437   20.1874 C   0  0  0  0  0  0  0  0  0  0  0  0
    8.9034  -19.4959   20.8626 C   0  0  1  0  0  0  0  0  0  0  0  0
    9.9939  -19.6701   21.7552 O   0  0  0  0  0  0  0  0  0  0  0  0
    9.3182  -18.4127   19.8860 C   0  0  2  0  0  0  0  0  0  0  0  0
   10.6827  -18.8026   19.4712 N   0  0  0  0  0  0  0  0  0  0  0  0
    9.4480  -17.0770   20.4895 C   0  0  0  0  0  0  0  0  0  0  0  0
   10.5426  -16.6999   21.0380 O   0  0  0  0  0  0  0  0  0  0  0  0
    8.0932  -12.3522   21.0234 C   0  0  0  0  0  0  0  0  0  0  0  0
    7.7499  -13.7257   20.5050 C   0  0  2  0  0  0  0  0  0  0  0  0
    6.3048  -14.0323   20.7178 C   0  0  0  0  0  0  0  0  0  0  0  0
    8.6053  -14.8035   21.1461 C   0  0  2  0  0  0  0  0  0  0  0  0
    8.4183  -16.0831   20.5336 N   0  0  0  0  0  0  0  0  0  0  0  0
    8.3467  -14.7402   22.5938 C   0  0  0  0  0  0  0  0  0  0  0  0
    7.3001  -15.3792   22.9676 O   0  0  0  0  0  0  0  0  0  0  0  0
    5.4566  -12.6094   26.4005 C   0  0  0  0  0  0  0  0  0  0  0  0
    6.9327  -13.0402   26.4994 C   0  0  2  0  0  0  0  0  0  0  0  0
    7.6057  -11.8836   27.2275 C   0  0  0  0  0  0  0  0  0  0  0  0
    7.4031  -13.2294   25.1011 C   0  0  0  0  0  0  0  0  0  0  0  0
    8.6692  -14.0214   24.9387 C   0  0  2  0  0  0  0  0  0  0  0  0
    9.1053  -14.0755   23.5598 N   0  0  0  0  0  0  0  0  0  0  0  0
    8.6569  -15.3507   25.5543 C   0  0  0  0  0  0  0  0  0  0  0  0
    9.2369  -15.6298   26.6330 O   0  0  0  0  0  0  0  0  0  0  0  0
    7.9673  -16.4137   24.9371 O   0  0  0  0  0  0  0  0  0  0  0  0
  2  1  1  6
  3  2  1  0
  4  2  1  0
  4  6  1  0
  4  5  1  1
  6  7  2  0
  9  8  1  1
 10  9  1  0
 11 13  1  0
 11  9  1  0
 12  6  1  0
 11 12  1  6
 13 14  2  0
 16 18  1  0
 16 15  1  6
 17 16  1  0
 19 18  1  6
 19 21  1  0
 20 19  1  0
 20 13  1  0
 21 22  2  0
 21 23  1  0
M  END
$$$$
