TVL.pdb
     RDKit          3D

 23 22  0  0  1  0  0  0  0  0999 V2000
    7.2758  -20.7850   21.8903 C   0  0  0  0  0  0  0  0  0  0  0  0
    7.8185  -19.3850   22.0953 C   0  0  1  0  0  0  0  0  0  0  0  0
    9.2021  -19.5758   22.3507 O   0  0  0  0  0  0  0  0  0  0  0  0
    7.7271  -18.5475   20.8346 C   0  0  2  0  0  0  0  0  0  0  0  0
    8.5954  -19.2528   19.8679 N   0  0  0  0  0  0  0  0  0  0  0  0
    8.2914  -17.1952   20.9693 C   0  0  0  0  0  0  0  0  0  0  0  0
    9.5578  -17.0045   21.0005 O   0  0  0  0  0  0  0  0  0  0  0  0
    6.8002  -13.6269   19.4379 C   0  0  0  0  0  0  0  0  0  0  0  0
    7.2125  -13.5637   20.8867 C   0  0  2  0  0  0  0  0  0  0  0  0
    7.8623  -12.2576   21.2019 C   0  0  0  0  0  0  0  0  0  0  0  0
    8.1407  -14.7049   21.2620 C   0  0  2  0  0  0  0  0  0  0  0  0
    7.5317  -15.9861   21.0745 N   0  0  0  0  0  0  0  0  0  0  0  0
    8.6309  -14.4192   22.6202 C   0  0  0  0  0  0  0  0  0  0  0  0
    9.2917  -13.3251   22.7194 O   0  0  0  0  0  0  0  0  0  0  0  0
    5.7474  -12.2964   26.5611 C   0  0  0  0  0  0  0  0  0  0  0  0
    7.1329  -12.9706   26.5485 C   0  0  2  0  0  0  0  0  0  0  0  0
    8.1059  -11.8159   26.7510 C   0  0  0  0  0  0  0  0  0  0  0  0
    7.2558  -13.6391   25.2256 C   0  0  0  0  0  0  0  0  0  0  0  0
    8.4095  -14.5898   25.0780 C   0  0  2  0  0  0  0  0  0  0  0  0
    8.4505  -15.1979   23.7655 N   0  0  0  0  0  0  0  0  0  0  0  0
    8.5338  -15.5899   26.1413 C   0  0  0  0  0  0  0  0  0  0  0  0
    8.6533  -15.3078   27.3594 O   0  0  0  0  0  0  0  0  0  0  0  0
    8.5246  -16.9644   25.8291 O   0  0  0  0  0  0  0  0  0  0  0  0
  2  1  1  6
  3  2  1  0
  4  2  1  0
  4  6  1  0
  4  5  1  6
  6  7  2  0
  9  8  1  6
 10  9  1  0
 11 13  1  0
 11  9  1  0
 12  6  1  0
 11 12  1  1
 13 14  2  0
 16 18  1  0
 16 15  1  6
 17 16  1  0
 19 18  1  1
 19 21  1  0
 20 19  1  0
 20 13  1  0
 21 22  2  0
 21 23  1  0
M  END
$$$$
