TVL.pdb
     RDKit          3D

 23 22  0  0  1  0  0  0  0  0999 V2000
    6.4844  -18.7110   25.6335 C   0  0  0  0  0  0  0  0  0  0  0  0
    7.0868  -19.6754   24.6319 C   0  0  1  0  0  0  0  0  0  0  0  0
    6.3411  -20.8719   24.8001 O   0  0  0  0  0  0  0  0  0  0  0  0
    6.8603  -19.2272   23.2011 C   0  0  2  0  0  0  0  0  0  0  0  0
    7.2129  -20.4124   22.3906 N   0  0  0  0  0  0  0  0  0  0  0  0
    7.7637  -18.1538   22.7575 C   0  0  0  0  0  0  0  0  0  0  0  0
    8.9796  -18.3995   22.4371 O   0  0  0  0  0  0  0  0  0  0  0  0
    6.6306  -13.9829   21.8409 C   0  0  0  0  0  0  0  0  0  0  0  0
    7.7481  -14.7903   21.2309 C   0  0  2  0  0  0  0  0  0  0  0  0
    7.2791  -15.5224   20.0178 C   0  0  0  0  0  0  0  0  0  0  0  0
    8.3473  -15.7695   22.2243 C   0  0  2  0  0  0  0  0  0  0  0  0
    7.4114  -16.7716   22.6332 N   0  0  0  0  0  0  0  0  0  0  0  0
    8.9388  -14.9636   23.3048 C   0  0  0  0  0  0  0  0  0  0  0  0
    8.9365  -13.7017   23.0787 O   0  0  0  0  0  0  0  0  0  0  0  0
    6.3439  -12.3700   26.6127 C   0  0  0  0  0  0  0  0  0  0  0  0
    7.7045  -13.0451   26.8721 C   0  0  2  0  0  0  0  0  0  0  0  0
    8.6650  -11.8776   27.0590 C   0  0  0  0  0  0  0  0  0  0  0  0
    7.9897  -13.8758   25.6717 C   0  0  0  0  0  0  0  0  0  0  0  0
    9.2117  -14.7455   25.7537 C   0  0  2  0  0  0  0  0  0  0  0  0
    9.4806  -15.4271   24.5057 N   0  0  0  0  0  0  0  0  0  0  0  0
    9.2461  -15.6676   26.8916 C   0  0  0  0  0  0  0  0  0  0  0  0
    8.7282  -16.8119   26.8833 O   0  0  0  0  0  0  0  0  0  0  0  0
    9.8863  -15.2939   28.0904 O   0  0  0  0  0  0  0  0  0  0  0  0
  2  1  1  1
  3  2  1  0
  4  2  1  0
  4  6  1  0
  4  5  1  6
  6  7  2  0
  9  8  1  1
 10  9  1  0
 11 13  1  0
 11  9  1  0
 12  6  1  0
 11 12  1  1
 13 14  2  0
 16 18  1  0
 16 15  1  6
 17 16  1  0
 19 18  1  6
 19 21  1  0
 20 19  1  0
 20 13  1  0
 21 22  2  0
 21 23  1  0
M  END
$$$$
