TVL.pdb
     RDKit          3D

 23 22  0  0  1  0  0  0  0  0999 V2000
   12.0675  -19.3396   22.0616 C   0  0  0  0  0  0  0  0  0  0  0  0
   12.7084  -18.3525   21.1070 C   0  0  1  0  0  0  0  0  0  0  0  0
   13.2233  -19.1586   20.0576 O   0  0  0  0  0  0  0  0  0  0  0  0
   11.6883  -17.4261   20.4744 C   0  0  2  0  0  0  0  0  0  0  0  0
   12.4834  -16.5890   19.5508 N   0  0  0  0  0  0  0  0  0  0  0  0
   11.0566  -16.4924   21.4201 C   0  0  0  0  0  0  0  0  0  0  0  0
   11.7600  -15.7034   22.1438 O   0  0  0  0  0  0  0  0  0  0  0  0
    7.0869  -14.2596   23.4633 C   0  0  0  0  0  0  0  0  0  0  0  0
    7.6818  -15.0767   22.3446 C   0  0  2  0  0  0  0  0  0  0  0  0
    6.8339  -16.2670   22.0418 C   0  0  0  0  0  0  0  0  0  0  0  0
    9.0994  -15.5199   22.6584 C   0  0  2  0  0  0  0  0  0  0  0  0
    9.6476  -16.3562   21.6350 N   0  0  0  0  0  0  0  0  0  0  0  0
    9.0698  -16.0968   24.0123 C   0  0  0  0  0  0  0  0  0  0  0  0
    8.9859  -17.3759   24.0352 O   0  0  0  0  0  0  0  0  0  0  0  0
   10.7479  -13.7087   28.8629 C   0  0  0  0  0  0  0  0  0  0  0  0
   10.2034  -14.0602   27.4649 C   0  0  2  0  0  0  0  0  0  0  0  0
    9.5292  -12.7760   26.9989 C   0  0  0  0  0  0  0  0  0  0  0  0
    9.2657  -15.1982   27.6602 C   0  0  0  0  0  0  0  0  0  0  0  0
    9.1034  -16.1206   26.4857 C   0  0  2  0  0  0  0  0  0  0  0  0
    9.1226  -15.4081   25.2262 N   0  0  0  0  0  0  0  0  0  0  0  0
    7.9675  -17.0420   26.5683 C   0  0  0  0  0  0  0  0  0  0  0  0
    6.8324  -16.8015   26.0872 O   0  0  0  0  0  0  0  0  0  0  0  0
    8.1065  -18.2854   27.2173 O   0  0  0  0  0  0  0  0  0  0  0  0
  2  1  1  1
  3  2  1  0
  4  2  1  0
  4  6  1  0
  4  5  1  6
  6  7  2  0
  9  8  1  1
 10  9  1  0
 11 13  1  0
 11  9  1  0
 12  6  1  0
 11 12  1  6
 13 14  2  0
 16 18  1  0
 16 15  1  1
 17 16  1  0
 19 18  1  1
 19 21  1  0
 20 19  1  0
 20 13  1  0
 21 22  2  0
 21 23  1  0
M  END
$$$$
