TVL.pdb
     RDKit          3D

 23 22  0  0  1  0  0  0  0  0999 V2000
    8.3713  -19.5461   21.4518 C   0  0  0  0  0  0  0  0  0  0  0  0
    9.3105  -19.3811   20.2742 C   0  0  1  0  0  0  0  0  0  0  0  0
    8.9597  -20.4364   19.3913 O   0  0  0  0  0  0  0  0  0  0  0  0
    9.0585  -18.0901   19.5199 C   0  0  2  0  0  0  0  0  0  0  0  0
   10.0572  -18.1069   18.4299 N   0  0  0  0  0  0  0  0  0  0  0  0
    9.3360  -16.8740   20.3005 C   0  0  0  0  0  0  0  0  0  0  0  0
   10.5321  -16.5564   20.6318 O   0  0  0  0  0  0  0  0  0  0  0  0
    6.3664  -13.8854   21.4716 C   0  0  0  0  0  0  0  0  0  0  0  0
    7.8496  -13.6272   21.3917 C   0  0  2  0  0  0  0  0  0  0  0  0
    8.2246  -13.0685   20.0595 C   0  0  0  0  0  0  0  0  0  0  0  0
    8.6589  -14.8808   21.6712 C   0  0  2  0  0  0  0  0  0  0  0  0
    8.3520  -15.9413   20.7608 N   0  0  0  0  0  0  0  0  0  0  0  0
    8.4790  -15.1880   23.0994 C   0  0  0  0  0  0  0  0  0  0  0  0
    7.6034  -16.0945   23.3342 O   0  0  0  0  0  0  0  0  0  0  0  0
    9.6417  -13.0250   28.7026 C   0  0  0  0  0  0  0  0  0  0  0  0
    9.1650  -14.2922   27.9668 C   0  0  2  0  0  0  0  0  0  0  0  0
    9.8996  -15.4255   28.6717 C   0  0  0  0  0  0  0  0  0  0  0  0
    9.5536  -14.1143   26.5422 C   0  0  0  0  0  0  0  0  0  0  0  0
    8.7266  -14.8681   25.5398 C   0  0  2  0  0  0  0  0  0  0  0  0
    9.1467  -14.6070   24.1798 N   0  0  0  0  0  0  0  0  0  0  0  0
    7.2768  -14.7265   25.6944 C   0  0  0  0  0  0  0  0  0  0  0  0
    6.5427  -15.5845   26.2447 O   0  0  0  0  0  0  0  0  0  0  0  0
    6.6193  -13.5767   25.2124 O   0  0  0  0  0  0  0  0  0  0  0  0
  2  1  1  1
  3  2  1  0
  4  2  1  0
  4  6  1  0
  4  5  1  6
  6  7  2  0
  9  8  1  6
 10  9  1  0
 11 13  1  0
 11  9  1  0
 12  6  1  0
 11 12  1  6
 13 14  2  0
 16 18  1  0
 16 15  1  1
 17 16  1  0
 19 18  1  1
 19 21  1  0
 20 19  1  0
 20 13  1  0
 21 22  2  0
 21 23  1  0
M  END
$$$$
