IQR.pdb
     RDKit          3D

 29 28  0  0  1  0  0  0  0  0999 V2000
   28.8950  -18.5643  -17.4038 C   0  0  0  0  0  0  0  0  0  0  0  0
   28.2239  -19.7570  -18.0284 C   0  0  0  0  0  0  0  0  0  0  0  0
   27.1372  -20.2516  -17.1270 C   0  0  2  0  0  0  0  0  0  0  0  0
   26.2112  -19.1127  -16.7336 C   0  0  0  0  0  0  0  0  0  0  0  0
   27.6820  -20.9502  -15.8971 C   0  0  2  0  0  0  0  0  0  0  0  0
   28.4876  -22.1030  -16.2793 N   0  0  0  0  0  0  0  0  0  0  0  0
   26.6407  -21.3944  -14.9552 C   0  0  0  0  0  0  0  0  0  0  0  0
   25.7988  -22.2926  -15.1512 O   0  0  0  0  0  0  0  0  0  0  0  0
   26.6234  -19.8853   -8.8409 N   0  0  0  0  0  0  0  0  0  0  0  0
   25.4612  -20.7006   -8.9615 C   0  0  0  0  0  0  0  0  0  0  0  0
   24.8701  -20.9810   -7.8846 O   0  0  0  0  0  0  0  0  0  0  0  0
   24.9775  -21.1886  -10.2834 C   0  0  0  0  0  0  0  0  0  0  0  0
   25.9891  -20.7421  -11.3234 C   0  0  0  0  0  0  0  0  0  0  0  0
   25.5863  -21.1672  -12.7040 C   0  0  2  0  0  0  0  0  0  0  0  0
   26.5658  -20.7441  -13.6785 N   0  0  0  0  0  0  0  0  0  0  0  0
   24.2693  -20.5382  -13.0206 C   0  0  0  0  0  0  0  0  0  0  0  0
   24.2360  -19.2991  -13.2303 O   0  0  0  0  0  0  0  0  0  0  0  0
   16.9206  -23.7141  -17.1177 N   0  0  0  0  0  0  0  0  0  0  0  0
   17.8748  -24.2016  -16.1607 C   0  0  0  0  0  0  0  0  0  0  0  0
   18.0563  -25.4612  -16.0428 N   0  0  0  0  0  0  0  0  0  0  0  0
   18.6200  -23.3793  -15.3166 N   0  0  0  0  0  0  0  0  0  0  0  0
   18.5939  -22.0024  -15.1955 C   0  0  0  0  0  0  0  0  0  0  0  0
   19.5651  -21.1597  -14.5255 C   0  0  0  0  0  0  0  0  0  0  0  0
   20.9111  -21.6440  -14.1696 C   0  0  0  0  0  0  0  0  0  0  0  0
   21.7878  -20.6348  -13.4511 C   0  0  2  0  0  0  0  0  0  0  0  0
   23.0652  -21.2836  -13.0932 N   0  0  0  0  0  0  0  0  0  0  0  0
   21.2366  -19.9293  -12.3189 C   0  0  0  0  0  0  0  0  0  0  0  0
   21.4628  -20.4048  -11.1431 O   0  0  0  0  0  0  0  0  0  0  0  0
   20.4776  -18.7752  -12.3137 O   0  0  0  0  0  0  0  0  0  0  0  0
  1  2  1  0
  2  3  1  0
  3  4  1  1
  3  5  1  0
  5  6  1  6
  5  7  1  0
  7 15  1  0
  8  7  2  0
  9 10  1  0
 10 12  1  0
 11 10  2  0
 12 13  1  0
 14 13  1  1
 15 14  1  0
 16 14  1  0
 16 17  2  0
 18 19  1  0
 19 20  2  0
 21 19  1  0
 22 21  1  0
 23 24  1  0
 23 22  1  0
 25 24  1  1
 25 26  1  0
 26 16  1  0
 27 25  1  0
 27 29  1  0
 28 27  2  0
M  END
$$$$
