IQR.pdb
     RDKit          3D

 29 28  0  0  1  0  0  0  0  0999 V2000
   28.2620  -19.6695   -6.7284 C   0  0  0  0  0  0  0  0  0  0  0  0
   28.2930  -20.6995   -7.8244 C   0  0  0  0  0  0  0  0  0  0  0  0
   27.3030  -20.3346   -8.8850 C   0  0  2  0  0  0  0  0  0  0  0  0
   25.8896  -20.3627   -8.3275 C   0  0  0  0  0  0  0  0  0  0  0  0
   27.4156  -21.2227  -10.1084 C   0  0  2  0  0  0  0  0  0  0  0  0
   28.8088  -21.3599  -10.5134 N   0  0  0  0  0  0  0  0  0  0  0  0
   26.6340  -20.7471  -11.2623 C   0  0  0  0  0  0  0  0  0  0  0  0
   26.8767  -19.7415  -11.9578 O   0  0  0  0  0  0  0  0  0  0  0  0
   25.5328  -24.7087  -14.5538 N   0  0  0  0  0  0  0  0  0  0  0  0
   26.3326  -23.6190  -15.0041 C   0  0  0  0  0  0  0  0  0  0  0  0
   27.3440  -23.9241  -15.6910 O   0  0  0  0  0  0  0  0  0  0  0  0
   25.9889  -22.2059  -14.6807 C   0  0  0  0  0  0  0  0  0  0  0  0
   24.7307  -22.2336  -13.8320 C   0  0  0  0  0  0  0  0  0  0  0  0
   24.7215  -21.1258  -12.8213 C   0  0  2  0  0  0  0  0  0  0  0  0
   25.4722  -21.4977  -11.6440 N   0  0  0  0  0  0  0  0  0  0  0  0
   23.3035  -20.8543  -12.4390 C   0  0  0  0  0  0  0  0  0  0  0  0
   22.8778  -21.3278  -11.3551 O   0  0  0  0  0  0  0  0  0  0  0  0
   18.3849  -14.5732  -14.0997 N   0  0  0  0  0  0  0  0  0  0  0  0
   18.8742  -15.3628  -15.1956 C   0  0  0  0  0  0  0  0  0  0  0  0
   19.4647  -14.7840  -16.1702 N   0  0  0  0  0  0  0  0  0  0  0  0
   18.7292  -16.7467  -15.2836 N   0  0  0  0  0  0  0  0  0  0  0  0
   18.2226  -17.6309  -14.3493 C   0  0  0  0  0  0  0  0  0  0  0  0
   18.9610  -18.6040  -13.5682 C   0  0  0  0  0  0  0  0  0  0  0  0
   20.3770  -18.9136  -13.8363 C   0  0  0  0  0  0  0  0  0  0  0  0
   21.0095  -19.9077  -12.8797 C   0  0  2  0  0  0  0  0  0  0  0  0
   22.4282  -20.0869  -13.2487 N   0  0  0  0  0  0  0  0  0  0  0  0
   20.3642  -21.1849  -12.6906 C   0  0  0  0  0  0  0  0  0  0  0  0
   20.5988  -22.1131  -13.5527 O   0  0  0  0  0  0  0  0  0  0  0  0
   19.5036  -21.5703  -11.6812 O   0  0  0  0  0  0  0  0  0  0  0  0
  1  2  1  0
  2  3  1  0
  3  4  1  1
  3  5  1  0
  5  6  1  6
  5  7  1  0
  7 15  1  0
  8  7  2  0
  9 10  1  0
 10 12  1  0
 11 10  2  0
 12 13  1  0
 14 13  1  6
 15 14  1  0
 16 14  1  0
 16 17  2  0
 18 19  1  0
 19 20  2  0
 21 19  1  0
 22 21  1  0
 23 24  1  0
 23 22  1  0
 25 24  1  6
 25 26  1  0
 26 16  1  0
 27 25  1  0
 27 29  1  0
 28 27  2  0
M  END
$$$$
