IQR.pdb
     RDKit          3D

 29 28  0  0  1  0  0  0  0  0999 V2000
   22.2639  -28.3755  -16.8160 C   0  0  0  0  0  0  0  0  0  0  0  0
   21.1461  -28.6082  -15.8365 C   0  0  0  0  0  0  0  0  0  0  0  0
   21.1525  -27.5287  -14.8008 C   0  0  2  0  0  0  0  0  0  0  0  0
   22.4368  -27.5755  -13.9898 C   0  0  0  0  0  0  0  0  0  0  0  0
   19.9409  -27.5946  -13.8923 C   0  0  2  0  0  0  0  0  0  0  0  0
   18.7161  -27.4089  -14.6600 N   0  0  0  0  0  0  0  0  0  0  0  0
   19.9645  -26.6103  -12.7972 C   0  0  0  0  0  0  0  0  0  0  0  0
   20.8639  -26.4711  -11.9454 O   0  0  0  0  0  0  0  0  0  0  0  0
   16.8041  -21.2453  -12.5910 N   0  0  0  0  0  0  0  0  0  0  0  0
   17.1714  -21.4059  -11.2238 C   0  0  0  0  0  0  0  0  0  0  0  0
   16.9025  -20.4380  -10.4632 O   0  0  0  0  0  0  0  0  0  0  0  0
   17.8323  -22.6457  -10.7282 C   0  0  0  0  0  0  0  0  0  0  0  0
   18.0401  -23.5529  -11.9275 C   0  0  0  0  0  0  0  0  0  0  0  0
   18.7679  -24.8087  -11.5506 C   0  0  2  0  0  0  0  0  0  0  0  0
   18.8531  -25.7109  -12.6761 N   0  0  0  0  0  0  0  0  0  0  0  0
   18.0159  -25.4695  -10.4423 C   0  0  0  0  0  0  0  0  0  0  0  0
   16.9923  -26.1387  -10.7332 O   0  0  0  0  0  0  0  0  0  0  0  0
   16.5723  -26.3934   -1.5147 N   0  0  0  0  0  0  0  0  0  0  0  0
   17.5208  -27.3369   -2.0383 C   0  0  0  0  0  0  0  0  0  0  0  0
   17.7828  -28.3965   -1.3733 N   0  0  0  0  0  0  0  0  0  0  0  0
   18.2078  -27.1649   -3.2394 N   0  0  0  0  0  0  0  0  0  0  0  0
   18.1077  -26.1397   -4.1613 C   0  0  0  0  0  0  0  0  0  0  0  0
   17.5491  -26.2096   -5.4975 C   0  0  0  0  0  0  0  0  0  0  0  0
   18.3093  -25.7895   -6.6885 C   0  0  0  0  0  0  0  0  0  0  0  0
   17.5473  -25.8709   -7.9985 C   0  0  2  0  0  0  0  0  0  0  0  0
   18.4133  -25.3699   -9.0848 N   0  0  0  0  0  0  0  0  0  0  0  0
   16.2370  -25.2696   -8.0695 C   0  0  0  0  0  0  0  0  0  0  0  0
   15.2171  -26.0526   -8.1492 O   0  0  0  0  0  0  0  0  0  0  0  0
   15.9070  -23.9283   -8.0605 O   0  0  0  0  0  0  0  0  0  0  0  0
  1  2  1  0
  2  3  1  0
  3  4  1  1
  3  5  1  0
  5  6  1  6
  5  7  1  0
  7 15  1  0
  8  7  2  0
  9 10  1  0
 10 12  1  0
 11 10  2  0
 12 13  1  0
 14 13  1  6
 15 14  1  0
 16 14  1  0
 16 17  2  0
 18 19  1  0
 19 20  2  0
 21 19  1  0
 22 21  1  0
 23 24  1  0
 23 22  1  0
 25 24  1  1
 25 26  1  0
 26 16  1  0
 27 25  1  0
 27 29  1  0
 28 27  2  0
M  END
$$$$
