IQR.pdb
     RDKit          3D

 29 28  0  0  1  0  0  0  0  0999 V2000
   27.2236  -18.4365   -7.1218 C   0  0  0  0  0  0  0  0  0  0  0  0
   25.9790  -18.8761   -7.8435 C   0  0  0  0  0  0  0  0  0  0  0  0
   26.0766  -20.3323   -8.1724 C   0  0  2  0  0  0  0  0  0  0  0  0
   27.4301  -20.6508   -8.7856 C   0  0  0  0  0  0  0  0  0  0  0  0
   24.9537  -20.7946   -9.0797 C   0  0  2  0  0  0  0  0  0  0  0  0
   24.9656  -22.2462   -9.2080 N   0  0  0  0  0  0  0  0  0  0  0  0
   24.9957  -20.2020  -10.4272 C   0  0  0  0  0  0  0  0  0  0  0  0
   24.5649  -19.0797  -10.7568 O   0  0  0  0  0  0  0  0  0  0  0  0
   29.4885  -21.1572  -14.4583 N   0  0  0  0  0  0  0  0  0  0  0  0
   28.5664  -20.4273  -15.2626 C   0  0  0  0  0  0  0  0  0  0  0  0
   28.9933  -20.0500  -16.3865 O   0  0  0  0  0  0  0  0  0  0  0  0
   27.1818  -20.1317  -14.7988 C   0  0  0  0  0  0  0  0  0  0  0  0
   27.0402  -20.7201  -13.4067 C   0  0  0  0  0  0  0  0  0  0  0  0
   25.6965  -20.4182  -12.8133 C   0  0  2  0  0  0  0  0  0  0  0  0
   25.5852  -20.9732  -11.4838 N   0  0  0  0  0  0  0  0  0  0  0  0
   24.6515  -21.0239  -13.6917 C   0  0  0  0  0  0  0  0  0  0  0  0
   24.5951  -22.2771  -13.7733 O   0  0  0  0  0  0  0  0  0  0  0  0
   16.6556  -17.9942  -16.7569 N   0  0  0  0  0  0  0  0  0  0  0  0
   17.1313  -18.5589  -15.5244 C   0  0  0  0  0  0  0  0  0  0  0  0
   16.4823  -18.3431  -14.4447 N   0  0  0  0  0  0  0  0  0  0  0  0
   18.2898  -19.3271  -15.4164 N   0  0  0  0  0  0  0  0  0  0  0  0
   19.1756  -19.7118  -16.4055 C   0  0  0  0  0  0  0  0  0  0  0  0
   20.4132  -20.4490  -16.2400 C   0  0  0  0  0  0  0  0  0  0  0  0
   21.4689  -20.0105  -15.3094 C   0  0  0  0  0  0  0  0  0  0  0  0
   22.7163  -20.8750  -15.2996 C   0  0  2  0  0  0  0  0  0  0  0  0
   23.7278  -20.2414  -14.4301 N   0  0  0  0  0  0  0  0  0  0  0  0
   23.2961  -21.2584  -16.5646 C   0  0  0  0  0  0  0  0  0  0  0  0
   22.7177  -22.1944  -17.2348 O   0  0  0  0  0  0  0  0  0  0  0  0
   24.4196  -20.7461  -17.1839 O   0  0  0  0  0  0  0  0  0  0  0  0
  1  2  1  0
  2  3  1  0
  3  4  1  6
  3  5  1  0
  5  6  1  6
  5  7  1  0
  7 15  1  0
  8  7  2  0
  9 10  1  0
 10 12  1  0
 11 10  2  0
 12 13  1  0
 14 13  1  6
 15 14  1  0
 16 14  1  0
 16 17  2  0
 18 19  1  0
 19 20  2  0
 21 19  1  0
 22 21  1  0
 23 24  1  0
 23 22  1  0
 25 24  1  6
 25 26  1  0
 26 16  1  0
 27 25  1  0
 27 29  1  0
 28 27  2  0
M  END
$$$$
