IQR.pdb
     RDKit          3D

 29 28  0  0  1  0  0  0  0  0999 V2000
   27.0749  -20.2469  -19.5644 C   0  0  0  0  0  0  0  0  0  0  0  0
   26.3758  -19.3354  -18.5930 C   0  0  0  0  0  0  0  0  0  0  0  0
   25.8116  -20.1403  -17.4653 C   0  0  2  0  0  0  0  0  0  0  0  0
   24.9694  -21.2875  -17.9982 C   0  0  0  0  0  0  0  0  0  0  0  0
   25.0124  -19.2926  -16.4956 C   0  0  2  0  0  0  0  0  0  0  0  0
   25.7696  -18.1093  -16.1077 N   0  0  0  0  0  0  0  0  0  0  0  0
   24.6022  -20.0102  -15.2768 C   0  0  0  0  0  0  0  0  0  0  0  0
   23.9347  -21.0617  -15.2253 O   0  0  0  0  0  0  0  0  0  0  0  0
   27.0287  -21.4589  -10.8126 N   0  0  0  0  0  0  0  0  0  0  0  0
   25.8967  -21.2256   -9.9794 C   0  0  0  0  0  0  0  0  0  0  0  0
   25.8088  -21.9508   -8.9527 O   0  0  0  0  0  0  0  0  0  0  0  0
   24.8817  -20.1852  -10.3062 C   0  0  0  0  0  0  0  0  0  0  0  0
   25.3127  -19.5314  -11.6065 C   0  0  0  0  0  0  0  0  0  0  0  0
   24.5780  -20.1028  -12.7823 C   0  0  2  0  0  0  0  0  0  0  0  0
   24.9965  -19.4649  -14.0095 N   0  0  0  0  0  0  0  0  0  0  0  0
   23.1169  -19.8713  -12.5774 C   0  0  0  0  0  0  0  0  0  0  0  0
   22.6285  -18.7763  -12.9554 O   0  0  0  0  0  0  0  0  0  0  0  0
   16.4260  -21.3553  -17.4404 N   0  0  0  0  0  0  0  0  0  0  0  0
   16.8056  -20.0605  -16.9469 C   0  0  0  0  0  0  0  0  0  0  0  0
   16.1654  -19.0272  -17.3417 N   0  0  0  0  0  0  0  0  0  0  0  0
   17.8613  -19.8436  -16.0624 N   0  0  0  0  0  0  0  0  0  0  0  0
   18.7230  -20.7620  -15.4921 C   0  0  0  0  0  0  0  0  0  0  0  0
   19.1407  -20.8333  -14.1055 C   0  0  0  0  0  0  0  0  0  0  0  0
   20.5573  -20.7456  -13.7074 C   0  0  0  0  0  0  0  0  0  0  0  0
   20.8104  -20.8199  -12.2128 C   0  0  2  0  0  0  0  0  0  0  0  0
   22.2681  -20.8356  -11.9771 N   0  0  0  0  0  0  0  0  0  0  0  0
   20.1580  -21.8620  -11.4568 C   0  0  0  0  0  0  0  0  0  0  0  0
   20.8692  -22.8660  -11.0746 O   0  0  0  0  0  0  0  0  0  0  0  0
   18.8350  -21.9394  -11.0671 O   0  0  0  0  0  0  0  0  0  0  0  0
  1  2  1  0
  2  3  1  0
  3  4  1  6
  3  5  1  0
  5  6  1  1
  5  7  1  0
  7 15  1  0
  8  7  2  0
  9 10  1  0
 10 12  1  0
 11 10  2  0
 12 13  1  0
 14 13  1  1
 15 14  1  0
 16 14  1  0
 16 17  2  0
 18 19  1  0
 19 20  2  0
 21 19  1  0
 22 21  1  0
 23 24  1  0
 23 22  1  0
 25 24  1  6
 25 26  1  0
 26 16  1  0
 27 25  1  0
 27 29  1  0
 28 27  2  0
M  END
$$$$
