IQR.pdb
     RDKit          3D

 29 28  0  0  1  0  0  0  0  0999 V2000
   29.2897  -15.6167  -19.0311 C   0  0  0  0  0  0  0  0  0  0  0  0
   27.8946  -15.8585  -19.5394 C   0  0  0  0  0  0  0  0  0  0  0  0
   26.9616  -16.0335  -18.3832 C   0  0  2  0  0  0  0  0  0  0  0  0
   26.9200  -14.7726  -17.5360 C   0  0  0  0  0  0  0  0  0  0  0  0
   27.3151  -17.2391  -17.5350 C   0  0  2  0  0  0  0  0  0  0  0  0
   27.2703  -18.4568  -18.3344 N   0  0  0  0  0  0  0  0  0  0  0  0
   26.4454  -17.4147  -16.3595 C   0  0  0  0  0  0  0  0  0  0  0  0
   26.2568  -16.5866  -15.4471 O   0  0  0  0  0  0  0  0  0  0  0  0
   21.5155  -17.8936  -15.3925 N   0  0  0  0  0  0  0  0  0  0  0  0
   21.6155  -18.8479  -14.3393 C   0  0  0  0  0  0  0  0  0  0  0  0
   20.7093  -18.8013  -13.4650 O   0  0  0  0  0  0  0  0  0  0  0  0
   22.7257  -19.8396  -14.2804 C   0  0  0  0  0  0  0  0  0  0  0  0
   23.6226  -19.5799  -15.4773 C   0  0  0  0  0  0  0  0  0  0  0  0
   24.8918  -18.8888  -15.0770 C   0  0  2  0  0  0  0  0  0  0  0  0
   25.7341  -18.6538  -16.2274 N   0  0  0  0  0  0  0  0  0  0  0  0
   25.6135  -19.7637  -14.1054 C   0  0  0  0  0  0  0  0  0  0  0  0
   25.7885  -20.9715  -14.4074 O   0  0  0  0  0  0  0  0  0  0  0  0
   20.2361  -22.5987   -9.0796 N   0  0  0  0  0  0  0  0  0  0  0  0
   21.0815  -21.9801   -8.0965 C   0  0  0  0  0  0  0  0  0  0  0  0
   20.8811  -22.2206   -6.8573 N   0  0  0  0  0  0  0  0  0  0  0  0
   22.1172  -21.0988   -8.4043 N   0  0  0  0  0  0  0  0  0  0  0  0
   22.5734  -20.6892   -9.6433 C   0  0  0  0  0  0  0  0  0  0  0  0
   23.9367  -20.7277  -10.1356 C   0  0  0  0  0  0  0  0  0  0  0  0
   24.4113  -19.8278  -11.2022 C   0  0  0  0  0  0  0  0  0  0  0  0
   25.8599  -20.0236  -11.6105 C   0  0  2  0  0  0  0  0  0  0  0  0
   26.1050  -19.2838  -12.8650 N   0  0  0  0  0  0  0  0  0  0  0  0
   26.3718  -21.3700  -11.7016 C   0  0  0  0  0  0  0  0  0  0  0  0
   27.5272  -21.6127  -11.1861 O   0  0  0  0  0  0  0  0  0  0  0  0
   25.7791  -22.4760  -12.2793 O   0  0  0  0  0  0  0  0  0  0  0  0
  1  2  1  0
  2  3  1  0
  3  4  1  1
  3  5  1  0
  5  6  1  6
  5  7  1  0
  7 15  1  0
  8  7  2  0
  9 10  1  0
 10 12  1  0
 11 10  2  0
 12 13  1  0
 14 13  1  6
 15 14  1  0
 16 14  1  0
 16 17  2  0
 18 19  1  0
 19 20  2  0
 21 19  1  0
 22 21  1  0
 23 24  1  0
 23 22  1  0
 25 24  1  6
 25 26  1  0
 26 16  1  0
 27 25  1  0
 27 29  1  0
 28 27  2  0
M  END
$$$$
