IQR.pdb
     RDKit          3D

 29 28  0  0  1  0  0  0  0  0999 V2000
   22.7459  -16.3393  -19.3817 C   0  0  0  0  0  0  0  0  0  0  0  0
   21.8604  -16.6264  -18.2000 C   0  0  0  0  0  0  0  0  0  0  0  0
   22.2875  -17.9046  -17.5506 C   0  0  2  0  0  0  0  0  0  0  0  0
   22.3448  -19.0284  -18.5719 C   0  0  0  0  0  0  0  0  0  0  0  0
   21.3971  -18.2838  -16.3840 C   0  0  2  0  0  0  0  0  0  0  0  0
   21.4430  -17.2564  -15.3513 N   0  0  0  0  0  0  0  0  0  0  0  0
   21.7362  -19.5806  -15.7740 C   0  0  0  0  0  0  0  0  0  0  0  0
   21.8021  -20.6797  -16.3585 O   0  0  0  0  0  0  0  0  0  0  0  0
   25.5290  -20.2235  -10.9840 N   0  0  0  0  0  0  0  0  0  0  0  0
   25.0460  -21.5568  -11.1222 C   0  0  0  0  0  0  0  0  0  0  0  0
   25.6133  -22.4257  -10.4074 O   0  0  0  0  0  0  0  0  0  0  0  0
   23.9362  -21.8976  -12.0558 C   0  0  0  0  0  0  0  0  0  0  0  0
   23.5250  -20.6124  -12.7513 C   0  0  0  0  0  0  0  0  0  0  0  0
   22.4146  -20.8457  -13.7318 C   0  0  2  0  0  0  0  0  0  0  0  0
   22.0225  -19.6092  -14.3683 N   0  0  0  0  0  0  0  0  0  0  0  0
   21.2485  -21.4124  -12.9904 C   0  0  0  0  0  0  0  0  0  0  0  0
   20.4097  -20.6146  -12.5002 O   0  0  0  0  0  0  0  0  0  0  0  0
   17.8406  -24.9175   -6.1103 N   0  0  0  0  0  0  0  0  0  0  0  0
   17.2969  -25.4123   -7.3446 C   0  0  0  0  0  0  0  0  0  0  0  0
   16.1889  -26.0490   -7.3306 N   0  0  0  0  0  0  0  0  0  0  0  0
   17.9174  -25.2614   -8.5841 N   0  0  0  0  0  0  0  0  0  0  0  0
   18.9714  -24.4392   -8.9366 C   0  0  0  0  0  0  0  0  0  0  0  0
   18.9143  -23.2271   -9.7303 C   0  0  0  0  0  0  0  0  0  0  0  0
   20.0165  -22.8195  -10.6201 C   0  0  0  0  0  0  0  0  0  0  0  0
   19.9136  -23.3302  -12.0456 C   0  0  2  0  0  0  0  0  0  0  0  0
   21.0556  -22.8071  -12.8222 N   0  0  0  0  0  0  0  0  0  0  0  0
   18.6747  -23.1307  -12.7589 C   0  0  0  0  0  0  0  0  0  0  0  0
   17.8701  -24.1314  -12.8628 O   0  0  0  0  0  0  0  0  0  0  0  0
   18.2093  -21.9799  -13.3648 O   0  0  0  0  0  0  0  0  0  0  0  0
  1  2  1  0
  2  3  1  0
  3  4  1  6
  3  5  1  0
  5  6  1  1
  5  7  1  0
  7 15  1  0
  8  7  2  0
  9 10  1  0
 10 12  1  0
 11 10  2  0
 12 13  1  0
 14 13  1  1
 15 14  1  0
 16 14  1  0
 16 17  2  0
 18 19  1  0
 19 20  2  0
 21 19  1  0
 22 21  1  0
 23 24  1  0
 23 22  1  0
 25 24  1  1
 25 26  1  0
 26 16  1  0
 27 25  1  0
 27 29  1  0
 28 27  2  0
M  END
$$$$
