IQR.pdb
     RDKit          3D

 29 28  0  0  1  0  0  0  0  0999 V2000
   28.1280  -15.4787  -16.3874 C   0  0  0  0  0  0  0  0  0  0  0  0
   26.9141  -14.7610  -16.9114 C   0  0  0  0  0  0  0  0  0  0  0  0
   26.8996  -13.3563  -16.3968 C   0  0  2  0  0  0  0  0  0  0  0  0
   26.9338  -13.3447  -14.8776 C   0  0  0  0  0  0  0  0  0  0  0  0
   25.7140  -12.5656  -16.9133 C   0  0  2  0  0  0  0  0  0  0  0  0
   25.6966  -12.5646  -18.3706 N   0  0  0  0  0  0  0  0  0  0  0  0
   25.6776  -11.1714  -16.4407 C   0  0  0  0  0  0  0  0  0  0  0  0
   25.5851  -10.7926  -15.2567 O   0  0  0  0  0  0  0  0  0  0  0  0
   27.1820   -6.0518  -19.7650 N   0  0  0  0  0  0  0  0  0  0  0  0
   26.1033   -6.8513  -20.2417 C   0  0  0  0  0  0  0  0  0  0  0  0
   25.7662   -6.6640  -21.4413 O   0  0  0  0  0  0  0  0  0  0  0  0
   25.4195   -7.8480  -19.3708 C   0  0  0  0  0  0  0  0  0  0  0  0
   26.1012   -7.8013  -18.0153 C   0  0  0  0  0  0  0  0  0  0  0  0
   25.4724   -8.7586  -17.0474 C   0  0  2  0  0  0  0  0  0  0  0  0
   25.7536  -10.1260  -17.4205 N   0  0  0  0  0  0  0  0  0  0  0  0
   23.9958   -8.5351  -17.0622 C   0  0  0  0  0  0  0  0  0  0  0  0
   23.3750   -8.7276  -18.1383 O   0  0  0  0  0  0  0  0  0  0  0  0
   17.3999  -11.2352  -14.2751 N   0  0  0  0  0  0  0  0  0  0  0  0
   16.9368  -11.2402  -15.6351 C   0  0  0  0  0  0  0  0  0  0  0  0
   15.7111  -11.5081  -15.8786 N   0  0  0  0  0  0  0  0  0  0  0  0
   17.7538  -10.9876  -16.7364 N   0  0  0  0  0  0  0  0  0  0  0  0
   19.1122  -10.7335  -16.7736 C   0  0  0  0  0  0  0  0  0  0  0  0
   19.8000   -9.5534  -16.2872 C   0  0  0  0  0  0  0  0  0  0  0  0
   21.2587   -9.3859  -16.4179 C   0  0  0  0  0  0  0  0  0  0  0  0
   21.7999   -8.0580  -15.9208 C   0  0  2  0  0  0  0  0  0  0  0  0
   23.2754   -8.1177  -15.9144 N   0  0  0  0  0  0  0  0  0  0  0  0
   21.3029   -7.5391  -14.6690 C   0  0  0  0  0  0  0  0  0  0  0  0
   20.0382   -7.3152  -14.5679 O   0  0  0  0  0  0  0  0  0  0  0  0
   22.0122   -7.2404  -13.5219 O   0  0  0  0  0  0  0  0  0  0  0  0
  1  2  1  0
  2  3  1  0
  3  4  1  1
  3  5  1  0
  5  6  1  6
  5  7  1  0
  7 15  1  0
  8  7  2  0
  9 10  1  0
 10 12  1  0
 11 10  2  0
 12 13  1  0
 14 13  1  6
 15 14  1  0
 16 14  1  0
 16 17  2  0
 18 19  1  0
 19 20  2  0
 21 19  1  0
 22 21  1  0
 23 24  1  0
 23 22  1  0
 25 24  1  1
 25 26  1  0
 26 16  1  0
 27 25  1  0
 27 29  1  0
 28 27  2  0
M  END
$$$$
