IQR.pdb
     RDKit          3D

 29 28  0  0  1  0  0  0  0  0999 V2000
   21.9507  -30.9072  -15.3520 C   0  0  0  0  0  0  0  0  0  0  0  0
   21.7742  -31.6071  -14.0322 C   0  0  0  0  0  0  0  0  0  0  0  0
   20.5824  -31.0474  -13.3219 C   0  0  2  0  0  0  0  0  0  0  0  0
   20.7581  -29.5578  -13.0781 C   0  0  0  0  0  0  0  0  0  0  0  0
   20.2919  -31.7736  -12.0234 C   0  0  2  0  0  0  0  0  0  0  0  0
   20.2366  -33.2130  -12.2446 N   0  0  0  0  0  0  0  0  0  0  0  0
   19.0418  -31.3486  -11.3712 C   0  0  0  0  0  0  0  0  0  0  0  0
   17.8830  -31.5979  -11.7570 O   0  0  0  0  0  0  0  0  0  0  0  0
   18.1312  -31.1343   -5.4449 N   0  0  0  0  0  0  0  0  0  0  0  0
   18.2150  -32.1961   -6.3912 C   0  0  0  0  0  0  0  0  0  0  0  0
   18.4255  -33.3436   -5.9153 O   0  0  0  0  0  0  0  0  0  0  0  0
   18.0612  -31.9589   -7.8539 C   0  0  0  0  0  0  0  0  0  0  0  0
   17.9596  -30.4578   -8.0563 C   0  0  0  0  0  0  0  0  0  0  0  0
   17.9440  -30.0964   -9.5116 C   0  0  2  0  0  0  0  0  0  0  0  0
   19.1399  -30.5680  -10.1714 N   0  0  0  0  0  0  0  0  0  0  0  0
   17.8712  -28.6088   -9.6225 C   0  0  0  0  0  0  0  0  0  0  0  0
   16.8495  -28.0275   -9.1769 O   0  0  0  0  0  0  0  0  0  0  0  0
   23.2975  -25.7131  -15.5921 N   0  0  0  0  0  0  0  0  0  0  0  0
   22.3291  -24.7449  -15.1576 C   0  0  0  0  0  0  0  0  0  0  0  0
   22.3482  -23.5703  -15.6609 N   0  0  0  0  0  0  0  0  0  0  0  0
   21.3593  -24.9954  -14.1876 N   0  0  0  0  0  0  0  0  0  0  0  0
   20.9962  -26.1970  -13.6084 C   0  0  0  0  0  0  0  0  0  0  0  0
   19.8916  -26.4377  -12.7004 C   0  0  0  0  0  0  0  0  0  0  0  0
   19.8741  -25.9022  -11.3272 C   0  0  0  0  0  0  0  0  0  0  0  0
   18.7277  -26.3917  -10.4615 C   0  0  2  0  0  0  0  0  0  0  0  0
   18.9061  -27.8355  -10.2071 N   0  0  0  0  0  0  0  0  0  0  0  0
   17.3773  -26.1095  -10.8860 C   0  0  0  0  0  0  0  0  0  0  0  0
   16.7459  -27.0240  -11.5377 O   0  0  0  0  0  0  0  0  0  0  0  0
   16.6370  -24.9609  -10.6844 O   0  0  0  0  0  0  0  0  0  0  0  0
  1  2  1  0
  2  3  1  0
  3  4  1  1
  3  5  1  0
  5  6  1  6
  5  7  1  0
  7 15  1  0
  8  7  2  0
  9 10  1  0
 10 12  1  0
 11 10  2  0
 12 13  1  0
 14 13  1  1
 15 14  1  0
 16 14  1  0
 16 17  2  0
 18 19  1  0
 19 20  2  0
 21 19  1  0
 22 21  1  0
 23 24  1  0
 23 22  1  0
 25 24  1  6
 25 26  1  0
 26 16  1  0
 27 25  1  0
 27 29  1  0
 28 27  2  0
M  END
$$$$
