IQR.pdb
     RDKit          3D

 29 28  0  0  1  0  0  0  0  0999 V2000
   21.2939  -20.0227  -15.3855 C   0  0  0  0  0  0  0  0  0  0  0  0
   20.0328  -19.2372  -15.1495 C   0  0  0  0  0  0  0  0  0  0  0  0
   20.2910  -17.7850  -15.3996 C   0  0  2  0  0  0  0  0  0  0  0  0
   21.4071  -17.2794  -14.5007 C   0  0  0  0  0  0  0  0  0  0  0  0
   19.0431  -16.9408  -15.2330 C   0  0  2  0  0  0  0  0  0  0  0  0
   17.9979  -17.3891  -16.1443 N   0  0  0  0  0  0  0  0  0  0  0  0
   19.2668  -15.5006  -15.4444 C   0  0  0  0  0  0  0  0  0  0  0  0
   19.9439  -14.7423  -14.7230 O   0  0  0  0  0  0  0  0  0  0  0  0
   20.2696  -13.0307  -20.8336 N   0  0  0  0  0  0  0  0  0  0  0  0
   20.2136  -11.8575  -20.0272 C   0  0  0  0  0  0  0  0  0  0  0  0
   20.6225  -10.7958  -20.5690 O   0  0  0  0  0  0  0  0  0  0  0  0
   19.7006  -11.8890  -18.6289 C   0  0  0  0  0  0  0  0  0  0  0  0
   19.3391  -13.3299  -18.3165 C   0  0  0  0  0  0  0  0  0  0  0  0
   18.9129  -13.4953  -16.8883 C   0  0  2  0  0  0  0  0  0  0  0  0
   18.6546  -14.8847  -16.5865 N   0  0  0  0  0  0  0  0  0  0  0  0
   17.6645  -12.7028  -16.6788 C   0  0  0  0  0  0  0  0  0  0  0  0
   16.5593  -13.2906  -16.7951 O   0  0  0  0  0  0  0  0  0  0  0  0
   12.1420  -12.4540  -10.9624 N   0  0  0  0  0  0  0  0  0  0  0  0
   11.7288  -11.3618  -11.7993 C   0  0  0  0  0  0  0  0  0  0  0  0
   10.6030  -10.7972  -11.5821 N   0  0  0  0  0  0  0  0  0  0  0  0
   12.4776  -10.8754  -12.8702 N   0  0  0  0  0  0  0  0  0  0  0  0
   13.6838  -11.3314  -13.3684 C   0  0  0  0  0  0  0  0  0  0  0  0
   14.4607  -10.7603  -14.4513 C   0  0  0  0  0  0  0  0  0  0  0  0
   15.6928  -11.3954  -14.9527 C   0  0  0  0  0  0  0  0  0  0  0  0
   16.4380  -10.6043  -16.0120 C   0  0  2  0  0  0  0  0  0  0  0  0
   17.6820  -11.3224  -16.3552 N   0  0  0  0  0  0  0  0  0  0  0  0
   16.7044   -9.2073  -15.7653 C   0  0  0  0  0  0  0  0  0  0  0  0
   17.8363   -8.8929  -15.2364 O   0  0  0  0  0  0  0  0  0  0  0  0
   15.8936   -8.1200  -16.0269 O   0  0  0  0  0  0  0  0  0  0  0  0
  1  2  1  0
  2  3  1  0
  3  4  1  1
  3  5  1  0
  5  6  1  6
  5  7  1  0
  7 15  1  0
  8  7  2  0
  9 10  1  0
 10 12  1  0
 11 10  2  0
 12 13  1  0
 14 13  1  6
 15 14  1  0
 16 14  1  0
 16 17  2  0
 18 19  1  0
 19 20  2  0
 21 19  1  0
 22 21  1  0
 23 24  1  0
 23 22  1  0
 25 24  1  1
 25 26  1  0
 26 16  1  0
 27 25  1  0
 27 29  1  0
 28 27  2  0
M  END
$$$$
