IQR.pdb
     RDKit          3D

 29 28  0  0  1  0  0  0  0  0999 V2000
   29.0032  -17.4730  -17.5147 C   0  0  0  0  0  0  0  0  0  0  0  0
   29.1346  -18.5785  -16.5029 C   0  0  0  0  0  0  0  0  0  0  0  0
   27.7753  -19.0147  -16.0557 C   0  0  2  0  0  0  0  0  0  0  0  0
   27.0346  -17.8617  -15.3989 C   0  0  0  0  0  0  0  0  0  0  0  0
   27.8303  -20.2143  -15.1306 C   0  0  2  0  0  0  0  0  0  0  0  0
   28.5242  -21.3232  -15.7731 N   0  0  0  0  0  0  0  0  0  0  0  0
   26.5073  -20.6817  -14.6835 C   0  0  0  0  0  0  0  0  0  0  0  0
   25.7071  -21.3776  -15.3386 O   0  0  0  0  0  0  0  0  0  0  0  0
   24.5509  -20.2541   -8.6998 N   0  0  0  0  0  0  0  0  0  0  0  0
   23.4056  -20.7933   -9.3536 C   0  0  0  0  0  0  0  0  0  0  0  0
   22.4206  -21.0562   -8.6131 O   0  0  0  0  0  0  0  0  0  0  0  0
   23.3788  -21.0289  -10.8244 C   0  0  0  0  0  0  0  0  0  0  0  0
   24.7398  -20.6318  -11.3668 C   0  0  0  0  0  0  0  0  0  0  0  0
   24.8116  -20.7991  -12.8553 C   0  0  2  0  0  0  0  0  0  0  0  0
   26.0721  -20.3120  -13.3672 N   0  0  0  0  0  0  0  0  0  0  0  0
   23.6944  -20.0196  -13.4673 C   0  0  0  0  0  0  0  0  0  0  0  0
   23.6817  -18.7725  -13.3092 O   0  0  0  0  0  0  0  0  0  0  0  0
   19.6710  -20.4543  -21.4358 N   0  0  0  0  0  0  0  0  0  0  0  0
   19.0794  -19.3823  -20.6842 C   0  0  0  0  0  0  0  0  0  0  0  0
   18.2398  -18.6059  -21.2548 N   0  0  0  0  0  0  0  0  0  0  0  0
   19.3787  -19.1097  -19.3500 N   0  0  0  0  0  0  0  0  0  0  0  0
   20.2453  -19.7698  -18.4989 C   0  0  0  0  0  0  0  0  0  0  0  0
   20.4994  -19.4772  -17.1017 C   0  0  0  0  0  0  0  0  0  0  0  0
   21.5535  -20.1657  -16.3351 C   0  0  0  0  0  0  0  0  0  0  0  0
   21.6012  -19.8227  -14.8574 C   0  0  2  0  0  0  0  0  0  0  0  0
   22.6565  -20.6316  -14.2148 N   0  0  0  0  0  0  0  0  0  0  0  0
   20.3751  -19.8840  -14.0983 C   0  0  0  0  0  0  0  0  0  0  0  0
   20.1925  -20.9002  -13.3276 O   0  0  0  0  0  0  0  0  0  0  0  0
   19.3339  -18.9767  -14.0753 O   0  0  0  0  0  0  0  0  0  0  0  0
  1  2  1  0
  2  3  1  0
  3  4  1  1
  3  5  1  0
  5  6  1  6
  5  7  1  0
  7 15  1  0
  8  7  2  0
  9 10  1  0
 10 12  1  0
 11 10  2  0
 12 13  1  0
 14 13  1  1
 15 14  1  0
 16 14  1  0
 16 17  2  0
 18 19  1  0
 19 20  2  0
 21 19  1  0
 22 21  1  0
 23 24  1  0
 23 22  1  0
 25 24  1  6
 25 26  1  0
 26 16  1  0
 27 25  1  0
 27 29  1  0
 28 27  2  0
M  END
$$$$
