IQR.pdb
     RDKit          3D

 29 28  0  0  1  0  0  0  0  0999 V2000
   25.8113  -13.3372  -18.2060 C   0  0  0  0  0  0  0  0  0  0  0  0
   25.4711  -14.7470  -17.8062 C   0  0  0  0  0  0  0  0  0  0  0  0
   26.4506  -15.2298  -16.7838 C   0  0  2  0  0  0  0  0  0  0  0  0
   27.8614  -15.2148  -17.3482 C   0  0  0  0  0  0  0  0  0  0  0  0
   26.0989  -16.6056  -16.2534 C   0  0  2  0  0  0  0  0  0  0  0  0
   26.1234  -17.5891  -17.3286 N   0  0  0  0  0  0  0  0  0  0  0  0
   24.7871  -16.6686  -15.5869 C   0  0  0  0  0  0  0  0  0  0  0  0
   24.4372  -16.0258  -14.5778 O   0  0  0  0  0  0  0  0  0  0  0  0
   19.3899  -17.7265  -18.3376 N   0  0  0  0  0  0  0  0  0  0  0  0
   19.9722  -16.4587  -18.0486 C   0  0  0  0  0  0  0  0  0  0  0  0
   19.5056  -15.4787  -18.6887 O   0  0  0  0  0  0  0  0  0  0  0  0
   21.0656  -16.3060  -17.0482 C   0  0  0  0  0  0  0  0  0  0  0  0
   21.4113  -17.6964  -16.5465 C   0  0  0  0  0  0  0  0  0  0  0  0
   22.4958  -17.6564  -15.5116 C   0  0  2  0  0  0  0  0  0  0  0  0
   23.7960  -17.5506  -16.1332 N   0  0  0  0  0  0  0  0  0  0  0  0
   22.4288  -18.9184  -14.7159 C   0  0  0  0  0  0  0  0  0  0  0  0
   23.3876  -19.7271  -14.7998 O   0  0  0  0  0  0  0  0  0  0  0  0
   25.3327  -22.8873  -12.2376 N   0  0  0  0  0  0  0  0  0  0  0  0
   26.1654  -22.0599  -11.4094 C   0  0  0  0  0  0  0  0  0  0  0  0
   27.4356  -22.1857  -11.4740 N   0  0  0  0  0  0  0  0  0  0  0  0
   25.6740  -21.1208  -10.5034 N   0  0  0  0  0  0  0  0  0  0  0  0
   24.3640  -20.7649  -10.2418 C   0  0  0  0  0  0  0  0  0  0  0  0
   23.2144  -20.9430  -11.1073 C   0  0  0  0  0  0  0  0  0  0  0  0
   22.6984  -19.8566  -11.9596 C   0  0  0  0  0  0  0  0  0  0  0  0
   21.4686  -20.2095  -12.7758 C   0  0  2  0  0  0  0  0  0  0  0  0
   21.3309  -19.2335  -13.8755 N   0  0  0  0  0  0  0  0  0  0  0  0
   20.2130  -20.3838  -12.0856 C   0  0  0  0  0  0  0  0  0  0  0  0
   20.1125  -21.3619  -11.2531 O   0  0  0  0  0  0  0  0  0  0  0  0
   19.0639  -19.6244  -12.1900 O   0  0  0  0  0  0  0  0  0  0  0  0
  1  2  1  0
  2  3  1  0
  3  4  1  6
  3  5  1  0
  5  6  1  6
  5  7  1  0
  7 15  1  0
  8  7  2  0
  9 10  1  0
 10 12  1  0
 11 10  2  0
 12 13  1  0
 14 13  1  6
 15 14  1  0
 16 14  1  0
 16 17  2  0
 18 19  1  0
 19 20  2  0
 21 19  1  0
 22 21  1  0
 23 24  1  0
 23 22  1  0
 25 24  1  1
 25 26  1  0
 26 16  1  0
 27 25  1  0
 27 29  1  0
 28 27  2  0
M  END
$$$$
