IQR.pdb
     RDKit          3D

 29 28  0  0  1  0  0  0  0  0999 V2000
   29.5099  -20.4205  -10.5586 C   0  0  0  0  0  0  0  0  0  0  0  0
   28.4666  -21.3328  -11.1436 C   0  0  0  0  0  0  0  0  0  0  0  0
   27.2440  -20.5424  -11.4881 C   0  0  2  0  0  0  0  0  0  0  0  0
   26.6552  -19.9010  -10.2426 C   0  0  0  0  0  0  0  0  0  0  0  0
   26.2020  -21.3766  -12.2065 C   0  0  2  0  0  0  0  0  0  0  0  0
   26.8219  -22.1748  -13.2565 N   0  0  0  0  0  0  0  0  0  0  0  0
   25.1109  -20.5844  -12.7987 C   0  0  0  0  0  0  0  0  0  0  0  0
   24.1586  -20.0617  -12.1873 O   0  0  0  0  0  0  0  0  0  0  0  0
   25.4007  -17.8724  -18.4323 N   0  0  0  0  0  0  0  0  0  0  0  0
   24.0448  -17.6367  -18.0638 C   0  0  0  0  0  0  0  0  0  0  0  0
   23.3744  -16.9218  -18.8559 O   0  0  0  0  0  0  0  0  0  0  0  0
   23.4593  -18.2043  -16.8170 C   0  0  0  0  0  0  0  0  0  0  0  0
   24.5456  -19.0244  -16.1448 C   0  0  0  0  0  0  0  0  0  0  0  0
   24.0712  -19.6142  -14.8503 C   0  0  2  0  0  0  0  0  0  0  0  0
   25.1213  -20.3800  -14.2188 N   0  0  0  0  0  0  0  0  0  0  0  0
   22.9123  -20.5099  -15.1422 C   0  0  0  0  0  0  0  0  0  0  0  0
   23.1456  -21.7115  -15.4289 O   0  0  0  0  0  0  0  0  0  0  0  0
   16.2452  -18.8170  -15.0047 N   0  0  0  0  0  0  0  0  0  0  0  0
   15.3420  -19.8390  -14.5534 C   0  0  0  0  0  0  0  0  0  0  0  0
   14.0820  -19.6522  -14.6575 N   0  0  0  0  0  0  0  0  0  0  0  0
   15.7518  -21.0408  -13.9773 N   0  0  0  0  0  0  0  0  0  0  0  0
   17.0176  -21.4296  -13.5800 C   0  0  0  0  0  0  0  0  0  0  0  0
   18.1867  -21.6084  -14.4188 C   0  0  0  0  0  0  0  0  0  0  0  0
   19.3669  -20.7312  -14.3167 C   0  0  0  0  0  0  0  0  0  0  0  0
   20.4456  -20.9823  -15.3544 C   0  0  2  0  0  0  0  0  0  0  0  0
   21.5692  -20.0565  -15.1067 N   0  0  0  0  0  0  0  0  0  0  0  0
   20.0726  -20.9734  -16.7488 C   0  0  0  0  0  0  0  0  0  0  0  0
   20.2817  -19.8955  -17.4227 O   0  0  0  0  0  0  0  0  0  0  0  0
   19.5068  -21.9910  -17.4920 O   0  0  0  0  0  0  0  0  0  0  0  0
  1  2  1  0
  2  3  1  0
  3  4  1  1
  3  5  1  0
  5  6  1  6
  5  7  1  0
  7 15  1  0
  8  7  2  0
  9 10  1  0
 10 12  1  0
 11 10  2  0
 12 13  1  0
 14 13  1  6
 15 14  1  0
 16 14  1  0
 16 17  2  0
 18 19  1  0
 19 20  2  0
 21 19  1  0
 22 21  1  0
 23 24  1  0
 23 22  1  0
 25 24  1  1
 25 26  1  0
 26 16  1  0
 27 25  1  0
 27 29  1  0
 28 27  2  0
M  END
$$$$
