IQR.pdb
     RDKit          3D

 29 28  0  0  1  0  0  0  0  0999 V2000
   28.1254  -22.2448  -15.2816 C   0  0  0  0  0  0  0  0  0  0  0  0
   26.9053  -21.7526  -16.0111 C   0  0  0  0  0  0  0  0  0  0  0  0
   25.8738  -21.3083  -15.0229 C   0  0  2  0  0  0  0  0  0  0  0  0
   25.5078  -22.4473  -14.0858 C   0  0  0  0  0  0  0  0  0  0  0  0
   24.6364  -20.7466  -15.6945 C   0  0  2  0  0  0  0  0  0  0  0  0
   24.9887  -19.6301  -16.5624 N   0  0  0  0  0  0  0  0  0  0  0  0
   23.5981  -20.3003  -14.7504 C   0  0  0  0  0  0  0  0  0  0  0  0
   23.4889  -19.1628  -14.2526 O   0  0  0  0  0  0  0  0  0  0  0  0
   18.4175  -18.5992  -15.5901 N   0  0  0  0  0  0  0  0  0  0  0  0
   19.4781  -17.8503  -15.0034 C   0  0  0  0  0  0  0  0  0  0  0  0
   19.3039  -16.6040  -14.9401 O   0  0  0  0  0  0  0  0  0  0  0  0
   20.7158  -18.5061  -14.4958 C   0  0  0  0  0  0  0  0  0  0  0  0
   20.5619  -19.9977  -14.7321 C   0  0  0  0  0  0  0  0  0  0  0  0
   21.3654  -20.7982  -13.7511 C   0  0  2  0  0  0  0  0  0  0  0  0
   22.6017  -21.2506  -14.3469 N   0  0  0  0  0  0  0  0  0  0  0  0
   20.5531  -21.9813  -13.3375 C   0  0  0  0  0  0  0  0  0  0  0  0
   20.3741  -22.9026  -14.1739 O   0  0  0  0  0  0  0  0  0  0  0  0
   17.4049  -27.0932   -7.0255 N   0  0  0  0  0  0  0  0  0  0  0  0
   18.2358  -25.9767   -6.6693 C   0  0  0  0  0  0  0  0  0  0  0  0
   19.0050  -26.0673   -5.6526 N   0  0  0  0  0  0  0  0  0  0  0  0
   18.2482  -24.7647   -7.3585 N   0  0  0  0  0  0  0  0  0  0  0  0
   17.4259  -24.3372   -8.3843 C   0  0  0  0  0  0  0  0  0  0  0  0
   17.7732  -24.1816   -9.7834 C   0  0  0  0  0  0  0  0  0  0  0  0
   18.7239  -23.1546  -10.2462 C   0  0  0  0  0  0  0  0  0  0  0  0
   19.0152  -23.1735  -11.7356 C   0  0  2  0  0  0  0  0  0  0  0  0
   19.9822  -22.1011  -12.0451 N   0  0  0  0  0  0  0  0  0  0  0  0
   17.9020  -23.1400  -12.6537 C   0  0  0  0  0  0  0  0  0  0  0  0
   17.6177  -24.2192  -13.2974 O   0  0  0  0  0  0  0  0  0  0  0  0
   17.0656  -22.0813  -12.9498 O   0  0  0  0  0  0  0  0  0  0  0  0
  1  2  1  0
  2  3  1  0
  3  4  1  6
  3  5  1  0
  5  6  1  1
  5  7  1  0
  7 15  1  0
  8  7  2  0
  9 10  1  0
 10 12  1  0
 11 10  2  0
 12 13  1  0
 14 13  1  6
 15 14  1  0
 16 14  1  0
 16 17  2  0
 18 19  1  0
 19 20  2  0
 21 19  1  0
 22 21  1  0
 23 24  1  0
 23 22  1  0
 25 24  1  1
 25 26  1  0
 26 16  1  0
 27 25  1  0
 27 29  1  0
 28 27  2  0
M  END
$$$$
