IQR.pdb
     RDKit          3D

 29 28  0  0  1  0  0  0  0  0999 V2000
   19.0600  -12.1832    3.8726 C   0  0  0  0  0  0  0  0  0  0  0  0
   17.8479  -13.0377    3.6203 C   0  0  0  0  0  0  0  0  0  0  0  0
   18.2123  -14.4816    3.7632 C   0  0  2  0  0  0  0  0  0  0  0  0
   19.2796  -14.8648    2.7515 C   0  0  0  0  0  0  0  0  0  0  0  0
   17.0078  -15.3943    3.6450 C   0  0  2  0  0  0  0  0  0  0  0  0
   15.9983  -15.0384    4.6340 N   0  0  0  0  0  0  0  0  0  0  0  0
   17.3284  -16.8241    3.7924 C   0  0  0  0  0  0  0  0  0  0  0  0
   18.1121  -17.4847    3.0829 O   0  0  0  0  0  0  0  0  0  0  0  0
   17.0845  -19.9826    9.0969 N   0  0  0  0  0  0  0  0  0  0  0  0
   17.2864  -21.0365    8.1597 C   0  0  0  0  0  0  0  0  0  0  0  0
   17.5336  -22.1707    8.6499 O   0  0  0  0  0  0  0  0  0  0  0  0
   17.2077  -20.8066    6.6898 C   0  0  0  0  0  0  0  0  0  0  0  0
   16.9265  -19.3295    6.4817 C   0  0  0  0  0  0  0  0  0  0  0  0
   16.9565  -18.9608    5.0284 C   0  0  2  0  0  0  0  0  0  0  0  0
   16.6876  -17.5523    4.8497 N   0  0  0  0  0  0  0  0  0  0  0  0
   15.9092  -19.7581    4.3227 C   0  0  0  0  0  0  0  0  0  0  0  0
   14.7180  -19.3608    4.3810 O   0  0  0  0  0  0  0  0  0  0  0  0
   14.0087  -22.2266   -1.5789 N   0  0  0  0  0  0  0  0  0  0  0  0
   15.0760  -23.1208   -1.9328 C   0  0  0  0  0  0  0  0  0  0  0  0
   15.6479  -22.9952   -3.0689 N   0  0  0  0  0  0  0  0  0  0  0  0
   15.5296  -24.1539   -1.1137 N   0  0  0  0  0  0  0  0  0  0  0  0
   15.1841  -24.4459    0.1926 C   0  0  0  0  0  0  0  0  0  0  0  0
   14.7731  -23.5127    1.2234 C   0  0  0  0  0  0  0  0  0  0  0  0
   15.7411  -22.6766    1.9560 C   0  0  0  0  0  0  0  0  0  0  0  0
   15.1358  -21.7636    3.0064 C   0  0  2  0  0  0  0  0  0  0  0  0
   16.2092  -20.9374    3.5946 N   0  0  0  0  0  0  0  0  0  0  0  0
   14.3183  -22.3528    4.0398 C   0  0  0  0  0  0  0  0  0  0  0  0
   14.9000  -23.0873    4.9242 O   0  0  0  0  0  0  0  0  0  0  0  0
   12.9546  -22.2359    4.2261 O   0  0  0  0  0  0  0  0  0  0  0  0
  1  2  1  0
  2  3  1  0
  3  4  1  6
  3  5  1  0
  5  6  1  1
  5  7  1  0
  7 15  1  0
  8  7  2  0
  9 10  1  0
 10 12  1  0
 11 10  2  0
 12 13  1  0
 14 13  1  1
 15 14  1  0
 16 14  1  0
 16 17  2  0
 18 19  1  0
 19 20  2  0
 21 19  1  0
 22 21  1  0
 23 24  1  0
 23 22  1  0
 25 24  1  1
 25 26  1  0
 26 16  1  0
 27 25  1  0
 27 29  1  0
 28 27  2  0
M  END
$$$$
