CDR.pdb
     RDKit          3D

 26 25  0  0  1  0  0  0  0  0999 V2000
    7.3246  -15.2821   19.3741 N   0  0  0  0  0  0  0  0  0  0  0  0
    8.5821  -14.7416   19.8574 C   0  0  1  0  0  0  0  0  0  0  0  0
    8.2619  -13.4447   20.5696 C   0  0  0  0  0  0  0  0  0  0  0  0
    8.1512  -12.0598   19.4114 S   0  0  0  0  0  0  0  0  0  0  0  0
    9.2191  -15.6477   20.8501 C   0  0  0  0  0  0  0  0  0  0  0  0
    8.5159  -16.2743   21.6811 O   0  0  0  0  0  0  0  0  0  0  0  0
   10.6238  -15.8529   20.9170 N   0  0  0  0  0  0  0  0  0  0  0  0
   11.1691  -16.7811   21.8871 C   0  0  1  0  0  0  0  0  0  0  0  0
   12.6548  -16.9323   21.5301 C   0  0  0  0  0  0  0  0  0  0  0  0
   13.1796  -17.9836   22.4475 C   0  0  0  0  0  0  0  0  0  0  0  0
   12.4726  -18.9254   22.8376 O   0  0  0  0  0  0  0  0  0  0  0  0
   11.0022  -16.3414   23.2663 C   0  0  0  0  0  0  0  0  0  0  0  0
   11.6172  -15.3442   23.6939 O   0  0  0  0  0  0  0  0  0  0  0  0
   14.4980  -17.9241   22.8899 O   0  0  0  0  0  0  0  0  0  0  0  0
    4.9795  -12.1007   26.4895 N   0  0  0  0  0  0  0  0  0  0  0  0
    6.2326  -12.2653   25.8578 C   0  0  0  0  0  0  0  0  0  0  0  0
    7.2124  -11.4950   26.1882 N   0  0  0  0  0  0  0  0  0  0  0  0
    6.3707  -13.2799   24.8748 N   0  0  0  0  0  0  0  0  0  0  0  0
    6.6428  -14.6415   25.2736 C   0  0  0  0  0  0  0  0  0  0  0  0
    8.1568  -14.8613   25.1558 C   0  0  0  0  0  0  0  0  0  0  0  0
    8.4049  -16.2803   25.5379 C   0  0  0  0  0  0  0  0  0  0  0  0
    9.8738  -16.6204   25.5024 C   0  0  2  0  0  0  0  0  0  0  0  0
   10.1370  -17.0507   24.1256 N   0  0  0  0  0  0  0  0  0  0  0  0
   10.3068  -17.6245   26.4701 C   0  0  0  0  0  0  0  0  0  0  0  0
   10.8679  -18.8231   26.0031 O   0  0  0  0  0  0  0  0  0  0  0  0
   10.1973  -17.4582   27.7034 O   0  0  0  0  0  0  0  0  0  0  0  0
  2  1  1  1
  3  2  1  0
  4  3  1  0
  5  2  1  0
  5  6  2  0
  7  5  1  0
  8  7  1  0
  9 10  1  0
  8  9  1  6
 10 14  1  0
 10 11  2  0
 12  8  1  0
 13 12  2  0
 16 15  1  0
 17 16  2  0
 18 16  1  0
 19 18  1  0
 20 19  1  0
 21 20  1  0
 22 21  1  6
 22 23  1  0
 23 12  1  0
 24 22  1  0
 25 24  1  0
 26 24  2  0
M  END
$$$$
