CDR.pdb
     RDKit          3D

 26 25  0  0  1  0  0  0  0  0999 V2000
    7.5306  -15.3061   17.8465 N   0  0  0  0  0  0  0  0  0  0  0  0
    8.7449  -14.8504   18.4982 C   0  0  1  0  0  0  0  0  0  0  0  0
    8.4228  -13.5269   19.1588 C   0  0  0  0  0  0  0  0  0  0  0  0
    8.1692  -12.2180   17.9365 S   0  0  0  0  0  0  0  0  0  0  0  0
    9.1734  -15.7887   19.5697 C   0  0  0  0  0  0  0  0  0  0  0  0
    8.3197  -16.3615   20.2913 O   0  0  0  0  0  0  0  0  0  0  0  0
   10.5378  -16.0851   19.8350 N   0  0  0  0  0  0  0  0  0  0  0  0
   10.8801  -16.9879   20.9156 C   0  0  1  0  0  0  0  0  0  0  0  0
   12.3297  -17.4211   20.6537 C   0  0  0  0  0  0  0  0  0  0  0  0
   12.6620  -18.3802   21.7454 C   0  0  0  0  0  0  0  0  0  0  0  0
   11.9187  -19.3317   22.0306 O   0  0  0  0  0  0  0  0  0  0  0  0
   10.7414  -16.3886   22.2366 C   0  0  0  0  0  0  0  0  0  0  0  0
   11.3909  -15.3689   22.5429 O   0  0  0  0  0  0  0  0  0  0  0  0
   13.8353  -18.2204   22.4770 O   0  0  0  0  0  0  0  0  0  0  0  0
    6.6051  -11.1661   25.6444 N   0  0  0  0  0  0  0  0  0  0  0  0
    6.3224  -12.0285   26.7273 C   0  0  0  0  0  0  0  0  0  0  0  0
    5.5930  -11.6012   27.7010 N   0  0  0  0  0  0  0  0  0  0  0  0
    6.8543  -13.3443   26.7059 N   0  0  0  0  0  0  0  0  0  0  0  0
    7.1506  -13.9845   25.4453 C   0  0  0  0  0  0  0  0  0  0  0  0
    7.7133  -15.3773   25.7579 C   0  0  0  0  0  0  0  0  0  0  0  0
    8.1539  -15.9530   24.4558 C   0  0  0  0  0  0  0  0  0  0  0  0
    9.6061  -16.3590   24.4864 C   0  0  2  0  0  0  0  0  0  0  0  0
    9.8642  -16.9676   23.1775 N   0  0  0  0  0  0  0  0  0  0  0  0
    9.9825  -17.2536   25.5773 C   0  0  0  0  0  0  0  0  0  0  0  0
   10.5949  -18.4790   25.2728 O   0  0  0  0  0  0  0  0  0  0  0  0
    9.7801  -16.9700   26.7770 O   0  0  0  0  0  0  0  0  0  0  0  0
  2  1  1  1
  3  2  1  0
  4  3  1  0
  5  2  1  0
  5  6  2  0
  7  5  1  0
  8  7  1  0
  9 10  1  0
  8  9  1  6
 10 14  1  0
 10 11  2  0
 12  8  1  0
 13 12  2  0
 16 15  1  0
 17 16  2  0
 18 16  1  0
 19 18  1  0
 20 19  1  0
 21 20  1  0
 22 21  1  6
 22 23  1  0
 23 12  1  0
 24 22  1  0
 25 24  1  0
 26 24  2  0
M  END
$$$$
