CDR.pdb
     RDKit          3D

 26 25  0  0  1  0  0  0  0  0999 V2000
    6.6845  -15.1085   17.9636 N   0  0  0  0  0  0  0  0  0  0  0  0
    7.9419  -14.5188   18.3855 C   0  0  1  0  0  0  0  0  0  0  0  0
    7.6131  -13.4802   19.4367 C   0  0  0  0  0  0  0  0  0  0  0  0
    9.1077  -12.8397   20.2290 S   0  0  0  0  0  0  0  0  0  0  0  0
    8.8309  -15.5277   19.0212 C   0  0  0  0  0  0  0  0  0  0  0  0
    8.3687  -16.3471   19.8534 O   0  0  0  0  0  0  0  0  0  0  0  0
   10.2194  -15.6223   18.7335 N   0  0  0  0  0  0  0  0  0  0  0  0
   11.0343  -16.5929   19.4363 C   0  0  1  0  0  0  0  0  0  0  0  0
   12.0554  -17.1021   18.4087 C   0  0  0  0  0  0  0  0  0  0  0  0
   11.4269  -18.3003   17.7831 C   0  0  0  0  0  0  0  0  0  0  0  0
   10.4036  -18.8231   18.2508 O   0  0  0  0  0  0  0  0  0  0  0  0
   11.6998  -16.0471   20.6122 C   0  0  0  0  0  0  0  0  0  0  0  0
   12.4086  -15.0247   20.5236 O   0  0  0  0  0  0  0  0  0  0  0  0
   11.9893  -18.8631   16.6410 O   0  0  0  0  0  0  0  0  0  0  0  0
   11.8300  -16.7209   30.0693 N   0  0  0  0  0  0  0  0  0  0  0  0
   11.0229  -16.3299   28.9776 C   0  0  0  0  0  0  0  0  0  0  0  0
   10.1001  -15.4476   29.1587 N   0  0  0  0  0  0  0  0  0  0  0  0
   11.2572  -16.9254   27.7107 N   0  0  0  0  0  0  0  0  0  0  0  0
   10.5920  -16.4119   26.5356 C   0  0  0  0  0  0  0  0  0  0  0  0
   11.6786  -16.0351   25.5198 C   0  0  0  0  0  0  0  0  0  0  0  0
   11.2107  -16.5418   24.1987 C   0  0  0  0  0  0  0  0  0  0  0  0
   12.1581  -16.1646   23.0875 C   0  0  2  0  0  0  0  0  0  0  0  0
   11.5407  -16.6814   21.8621 N   0  0  0  0  0  0  0  0  0  0  0  0
   13.5276  -16.6467   23.2426 C   0  0  0  0  0  0  0  0  0  0  0  0
   13.8544  -17.9302   22.7786 O   0  0  0  0  0  0  0  0  0  0  0  0
   14.4244  -15.9587   23.7745 O   0  0  0  0  0  0  0  0  0  0  0  0
  2  1  1  1
  3  2  1  0
  4  3  1  0
  5  2  1  0
  5  6  2  0
  7  5  1  0
  8  7  1  0
  9 10  1  0
  8  9  1  6
 10 14  1  0
 10 11  2  0
 12  8  1  0
 13 12  2  0
 16 15  1  0
 17 16  2  0
 18 16  1  0
 19 18  1  0
 20 19  1  0
 21 20  1  0
 22 21  1  1
 22 23  1  0
 23 12  1  0
 24 22  1  0
 25 24  1  0
 26 24  2  0
M  END
$$$$
