CDR.pdb
     RDKit          3D

 26 25  0  0  1  0  0  0  0  0999 V2000
    6.9744  -15.5007   19.4811 N   0  0  0  0  0  0  0  0  0  0  0  0
    8.3220  -15.0066   19.6976 C   0  0  1  0  0  0  0  0  0  0  0  0
    8.1952  -13.6051   20.2559 C   0  0  0  0  0  0  0  0  0  0  0  0
    7.6701  -12.4286   18.9864 S   0  0  0  0  0  0  0  0  0  0  0  0
    9.0461  -15.8231   20.7080 C   0  0  0  0  0  0  0  0  0  0  0  0
    8.4205  -16.3678   21.6513 O   0  0  0  0  0  0  0  0  0  0  0  0
   10.4516  -16.0302   20.6687 N   0  0  0  0  0  0  0  0  0  0  0  0
   11.0845  -16.8577   21.6759 C   0  0  1  0  0  0  0  0  0  0  0  0
   12.5729  -16.9051   21.3016 C   0  0  0  0  0  0  0  0  0  0  0  0
   13.1762  -17.9327   22.1972 C   0  0  0  0  0  0  0  0  0  0  0  0
   12.4853  -18.6189   22.9660 O   0  0  0  0  0  0  0  0  0  0  0  0
   10.8997  -16.3608   23.0333 C   0  0  0  0  0  0  0  0  0  0  0  0
   11.3170  -15.2313   23.3585 O   0  0  0  0  0  0  0  0  0  0  0  0
   14.5520  -18.1432   22.1850 O   0  0  0  0  0  0  0  0  0  0  0  0
    5.3065  -12.2983   26.3482 N   0  0  0  0  0  0  0  0  0  0  0  0
    6.6890  -12.0427   26.2089 C   0  0  0  0  0  0  0  0  0  0  0  0
    7.0856  -10.8462   25.9370 N   0  0  0  0  0  0  0  0  0  0  0  0
    7.5999  -13.1186   26.3743 N   0  0  0  0  0  0  0  0  0  0  0  0
    7.1150  -14.4791   26.4031 C   0  0  0  0  0  0  0  0  0  0  0  0
    8.3251  -15.3938   26.6340 C   0  0  0  0  0  0  0  0  0  0  0  0
    8.7386  -15.8885   25.2903 C   0  0  0  0  0  0  0  0  0  0  0  0
   10.0003  -16.7116   25.3612 C   0  0  2  0  0  0  0  0  0  0  0  0
   10.2428  -17.1651   23.9880 N   0  0  0  0  0  0  0  0  0  0  0  0
    9.9646  -17.8316   26.2974 C   0  0  0  0  0  0  0  0  0  0  0  0
    9.8467  -19.1363   25.7943 O   0  0  0  0  0  0  0  0  0  0  0  0
   10.0353  -17.6738   27.5346 O   0  0  0  0  0  0  0  0  0  0  0  0
  2  1  1  1
  3  2  1  0
  4  3  1  0
  5  2  1  0
  5  6  2  0
  7  5  1  0
  8  7  1  0
  9 10  1  0
  8  9  1  6
 10 14  1  0
 10 11  2  0
 12  8  1  0
 13 12  2  0
 16 15  1  0
 17 16  2  0
 18 16  1  0
 19 18  1  0
 20 19  1  0
 21 20  1  0
 22 21  1  6
 22 23  1  0
 23 12  1  0
 24 22  1  0
 25 24  1  0
 26 24  2  0
M  END
$$$$
