CDR.pdb
     RDKit          3D

 26 25  0  0  1  0  0  0  0  0999 V2000
    7.1506  -15.0369   18.7065 N   0  0  0  0  0  0  0  0  0  0  0  0
    8.5294  -14.7655   19.0699 C   0  0  1  0  0  0  0  0  0  0  0  0
    8.5543  -13.4004   19.7239 C   0  0  0  0  0  0  0  0  0  0  0  0
    8.3033  -12.0790   18.5145 S   0  0  0  0  0  0  0  0  0  0  0  0
    9.0328  -15.7456   20.0690 C   0  0  0  0  0  0  0  0  0  0  0  0
    8.2602  -16.2206   20.9380 O   0  0  0  0  0  0  0  0  0  0  0  0
   10.3820  -16.1911   20.1002 N   0  0  0  0  0  0  0  0  0  0  0  0
   10.7993  -17.1493   21.1040 C   0  0  1  0  0  0  0  0  0  0  0  0
   12.1984  -17.6169   20.6780 C   0  0  0  0  0  0  0  0  0  0  0  0
   12.5663  -18.6971   21.6371 C   0  0  0  0  0  0  0  0  0  0  0  0
   11.7074  -19.3547   22.2445 O   0  0  0  0  0  0  0  0  0  0  0  0
   10.8168  -16.6023   22.4546 C   0  0  0  0  0  0  0  0  0  0  0  0
   11.6024  -15.6819   22.7570 O   0  0  0  0  0  0  0  0  0  0  0  0
   13.9065  -18.9911   21.8712 O   0  0  0  0  0  0  0  0  0  0  0  0
    4.9221  -12.5655   26.4281 N   0  0  0  0  0  0  0  0  0  0  0  0
    6.1793  -12.0497   26.8150 C   0  0  0  0  0  0  0  0  0  0  0  0
    6.2457  -10.8712   27.3337 N   0  0  0  0  0  0  0  0  0  0  0  0
    7.3335  -12.8521   26.6181 N   0  0  0  0  0  0  0  0  0  0  0  0
    7.2605  -14.0343   25.7912 C   0  0  0  0  0  0  0  0  0  0  0  0
    8.6391  -14.7069   25.8277 C   0  0  0  0  0  0  0  0  0  0  0  0
    8.5667  -15.8618   24.8884 C   0  0  0  0  0  0  0  0  0  0  0  0
    9.8837  -16.5908   24.7957 C   0  0  2  0  0  0  0  0  0  0  0  0
    9.9369  -17.1188   23.4287 N   0  0  0  0  0  0  0  0  0  0  0  0
   10.0864  -17.6445   25.7858 C   0  0  0  0  0  0  0  0  0  0  0  0
   10.4801  -17.2912   27.0857 O   0  0  0  0  0  0  0  0  0  0  0  0
    9.9225  -18.8543   25.5206 O   0  0  0  0  0  0  0  0  0  0  0  0
  2  1  1  1
  3  2  1  0
  4  3  1  0
  5  2  1  0
  5  6  2  0
  7  5  1  0
  8  7  1  0
  9 10  1  0
  8  9  1  6
 10 14  1  0
 10 11  2  0
 12  8  1  0
 13 12  2  0
 16 15  1  0
 17 16  2  0
 18 16  1  0
 19 18  1  0
 20 19  1  0
 21 20  1  0
 22 21  1  1
 22 23  1  0
 23 12  1  0
 24 22  1  0
 25 24  1  0
 26 24  2  0
M  END
$$$$
