CDR.pdb
     RDKit          3D

 26 25  0  0  1  0  0  0  0  0999 V2000
    9.2439  -18.1035   15.9325 N   0  0  0  0  0  0  0  0  0  0  0  0
   10.2317  -17.1435   16.3903 C   0  0  1  0  0  0  0  0  0  0  0  0
    9.5086  -15.8302   16.6001 C   0  0  0  0  0  0  0  0  0  0  0  0
    8.8704  -15.1664   15.0433 S   0  0  0  0  0  0  0  0  0  0  0  0
   10.8146  -17.5433   17.6989 C   0  0  0  0  0  0  0  0  0  0  0  0
   10.0730  -17.9543   18.6257 O   0  0  0  0  0  0  0  0  0  0  0  0
   12.2080  -17.4854   17.9724 N   0  0  0  0  0  0  0  0  0  0  0  0
   12.7080  -17.9386   19.2548 C   0  0  1  0  0  0  0  0  0  0  0  0
   14.2338  -18.0193   19.1026 C   0  0  0  0  0  0  0  0  0  0  0  0
   14.4851  -19.2040   18.2334 C   0  0  0  0  0  0  0  0  0  0  0  0
   13.8121  -20.2418   18.3296 O   0  0  0  0  0  0  0  0  0  0  0  0
   12.3359  -17.0673   20.3621 C   0  0  0  0  0  0  0  0  0  0  0  0
   12.6229  -15.8538   20.3395 O   0  0  0  0  0  0  0  0  0  0  0  0
   15.4991  -19.1639   17.2808 O   0  0  0  0  0  0  0  0  0  0  0  0
    6.3850  -12.9593   20.5420 N   0  0  0  0  0  0  0  0  0  0  0  0
    7.7914  -12.8684   20.4406 C   0  0  0  0  0  0  0  0  0  0  0  0
    8.3116  -12.0359   19.6046 N   0  0  0  0  0  0  0  0  0  0  0  0
    8.5883  -13.7020   21.2681 N   0  0  0  0  0  0  0  0  0  0  0  0
    7.9603  -14.6498   22.1593 C   0  0  0  0  0  0  0  0  0  0  0  0
    9.0763  -15.3539   22.9423 C   0  0  0  0  0  0  0  0  0  0  0  0
    9.7864  -16.2273   21.9655 C   0  0  0  0  0  0  0  0  0  0  0  0
   11.0833  -16.7546   22.5265 C   0  0  2  0  0  0  0  0  0  0  0  0
   11.6446  -17.6018   21.4695 N   0  0  0  0  0  0  0  0  0  0  0  0
   10.9703  -17.4777   23.7899 C   0  0  0  0  0  0  0  0  0  0  0  0
   10.6082  -16.7728   24.9481 O   0  0  0  0  0  0  0  0  0  0  0  0
   11.1841  -18.7051   23.8814 O   0  0  0  0  0  0  0  0  0  0  0  0
  2  1  1  1
  3  2  1  0
  4  3  1  0
  5  2  1  0
  5  6  2  0
  7  5  1  0
  8  7  1  0
  9 10  1  0
  8  9  1  6
 10 14  1  0
 10 11  2  0
 12  8  1  0
 13 12  2  0
 16 15  1  0
 17 16  2  0
 18 16  1  0
 19 18  1  0
 20 19  1  0
 21 20  1  0
 22 21  1  6
 22 23  1  0
 23 12  1  0
 24 22  1  0
 25 24  1  0
 26 24  2  0
M  END
$$$$
