CDR.pdb
     RDKit          3D

 26 25  0  0  1  0  0  0  0  0999 V2000
   10.0899  -18.6575   14.1376 N   0  0  0  0  0  0  0  0  0  0  0  0
   10.6259  -18.0103   15.3212 C   0  0  1  0  0  0  0  0  0  0  0  0
    9.6555  -18.2806   16.4513 C   0  0  0  0  0  0  0  0  0  0  0  0
    7.9382  -18.1590   15.8965 S   0  0  0  0  0  0  0  0  0  0  0  0
   11.9374  -18.5918   15.7136 C   0  0  0  0  0  0  0  0  0  0  0  0
   12.1616  -19.8175   15.5555 O   0  0  0  0  0  0  0  0  0  0  0  0
   12.9872  -17.8167   16.2765 N   0  0  0  0  0  0  0  0  0  0  0  0
   14.2797  -18.4256   16.5189 C   0  0  1  0  0  0  0  0  0  0  0  0
   15.3037  -17.2864   16.4132 C   0  0  0  0  0  0  0  0  0  0  0  0
   15.5289  -17.0878   14.9531 C   0  0  0  0  0  0  0  0  0  0  0  0
   15.5897  -18.0428   14.1635 O   0  0  0  0  0  0  0  0  0  0  0  0
   14.3709  -19.0960   17.8096 C   0  0  0  0  0  0  0  0  0  0  0  0
   13.5832  -18.8072   18.7324 O   0  0  0  0  0  0  0  0  0  0  0  0
   15.6776  -15.8017   14.4419 O   0  0  0  0  0  0  0  0  0  0  0  0
   20.0532  -25.5168   20.0768 N   0  0  0  0  0  0  0  0  0  0  0  0
   18.9159  -25.6960   20.8959 C   0  0  0  0  0  0  0  0  0  0  0  0
   18.7802  -26.7953   21.5560 N   0  0  0  0  0  0  0  0  0  0  0  0
   17.9559  -24.6529   20.9647 N   0  0  0  0  0  0  0  0  0  0  0  0
   17.6010  -23.9166   19.7735 C   0  0  0  0  0  0  0  0  0  0  0  0
   16.5994  -22.8298   20.1860 C   0  0  0  0  0  0  0  0  0  0  0  0
   16.4493  -21.9296   19.0078 C   0  0  0  0  0  0  0  0  0  0  0  0
   15.5066  -20.7875   19.2930 C   0  0  2  0  0  0  0  0  0  0  0  0
   15.3596  -20.0806   18.0167 N   0  0  0  0  0  0  0  0  0  0  0  0
   15.9239  -19.8839   20.3614 C   0  0  0  0  0  0  0  0  0  0  0  0
   15.4474  -20.1024   21.6632 O   0  0  0  0  0  0  0  0  0  0  0  0
   16.6922  -18.9192   20.1618 O   0  0  0  0  0  0  0  0  0  0  0  0
  2  1  1  6
  3  2  1  0
  4  3  1  0
  5  2  1  0
  5  6  2  0
  7  5  1  0
  8  7  1  0
  9 10  1  0
  8  9  1  1
 10 14  1  0
 10 11  2  0
 12  8  1  0
 13 12  2  0
 16 15  1  0
 17 16  2  0
 18 16  1  0
 19 18  1  0
 20 19  1  0
 21 20  1  0
 22 21  1  6
 22 23  1  0
 23 12  1  0
 24 22  1  0
 25 24  1  0
 26 24  2  0
M  END
$$$$
