CDR.pdb
     RDKit          3D

 26 25  0  0  1  0  0  0  0  0999 V2000
    8.4936  -13.0599   19.3582 N   0  0  0  0  0  0  0  0  0  0  0  0
    7.5363  -13.0352   20.4491 C   0  0  1  0  0  0  0  0  0  0  0  0
    6.4442  -14.0245   20.1022 C   0  0  0  0  0  0  0  0  0  0  0  0
    7.0867  -15.7116   19.9889 S   0  0  0  0  0  0  0  0  0  0  0  0
    8.1531  -13.4846   21.7257 C   0  0  0  0  0  0  0  0  0  0  0  0
    9.2988  -13.9994   21.7310 O   0  0  0  0  0  0  0  0  0  0  0  0
    7.5007  -13.3625   22.9824 N   0  0  0  0  0  0  0  0  0  0  0  0
    8.1760  -13.7988   24.1880 C   0  0  1  0  0  0  0  0  0  0  0  0
    7.4666  -13.0822   25.3459 C   0  0  0  0  0  0  0  0  0  0  0  0
    8.3500  -13.2705   26.5317 C   0  0  0  0  0  0  0  0  0  0  0  0
    9.3687  -13.9772   26.4844 O   0  0  0  0  0  0  0  0  0  0  0  0
    8.1546  -15.2442   24.3728 C   0  0  0  0  0  0  0  0  0  0  0  0
    7.0723  -15.8556   24.4746 O   0  0  0  0  0  0  0  0  0  0  0  0
    8.0401  -12.6439   27.7353 O   0  0  0  0  0  0  0  0  0  0  0  0
   14.6444  -19.6300   21.7907 N   0  0  0  0  0  0  0  0  0  0  0  0
   14.5438  -19.5460   23.1975 C   0  0  0  0  0  0  0  0  0  0  0  0
   15.6151  -19.6120   23.9121 N   0  0  0  0  0  0  0  0  0  0  0  0
   13.2587  -19.3907   23.7796 N   0  0  0  0  0  0  0  0  0  0  0  0
   12.0729  -19.6158   22.9858 C   0  0  0  0  0  0  0  0  0  0  0  0
   10.8597  -19.3171   23.8765 C   0  0  0  0  0  0  0  0  0  0  0  0
   10.6824  -17.8374   23.8605 C   0  0  0  0  0  0  0  0  0  0  0  0
    9.4150  -17.4183   24.5623 C   0  0  2  0  0  0  0  0  0  0  0  0
    9.3696  -15.9580   24.4371 N   0  0  0  0  0  0  0  0  0  0  0  0
    9.3024  -17.8409   25.9554 C   0  0  0  0  0  0  0  0  0  0  0  0
    8.7835  -19.1130   26.2415 O   0  0  0  0  0  0  0  0  0  0  0  0
    9.6513  -17.1113   26.9076 O   0  0  0  0  0  0  0  0  0  0  0  0
  2  1  1  6
  3  2  1  0
  4  3  1  0
  5  2  1  0
  5  6  2  0
  7  5  1  0
  8  7  1  0
  9 10  1  0
  8  9  1  1
 10 14  1  0
 10 11  2  0
 12  8  1  0
 13 12  2  0
 16 15  1  0
 17 16  2  0
 18 16  1  0
 19 18  1  0
 20 19  1  0
 21 20  1  0
 22 21  1  1
 22 23  1  0
 23 12  1  0
 24 22  1  0
 25 24  1  0
 26 24  2  0
M  END
$$$$
