CDR.pdb
     RDKit          3D

 26 25  0  0  1  0  0  0  0  0999 V2000
    6.4019  -14.1451   18.5273 N   0  0  0  0  0  0  0  0  0  0  0  0
    7.8289  -14.1991   18.2669 C   0  0  1  0  0  0  0  0  0  0  0  0
    8.3985  -12.8471   18.6403 C   0  0  0  0  0  0  0  0  0  0  0  0
    8.1101  -12.4626   20.3840 S   0  0  0  0  0  0  0  0  0  0  0  0
    8.5006  -15.2149   19.1208 C   0  0  0  0  0  0  0  0  0  0  0  0
    7.9262  -15.6658   20.1428 O   0  0  0  0  0  0  0  0  0  0  0  0
    9.7981  -15.7223   18.8398 N   0  0  0  0  0  0  0  0  0  0  0  0
   10.3523  -16.7757   19.6665 C   0  0  1  0  0  0  0  0  0  0  0  0
   11.1077  -17.7055   18.7060 C   0  0  0  0  0  0  0  0  0  0  0  0
   11.4824  -18.8977   19.5186 C   0  0  0  0  0  0  0  0  0  0  0  0
   12.5038  -18.9164   20.2225 O   0  0  0  0  0  0  0  0  0  0  0  0
   11.2302  -16.2833   20.7202 C   0  0  0  0  0  0  0  0  0  0  0  0
   12.1709  -15.5091   20.4531 O   0  0  0  0  0  0  0  0  0  0  0  0
   10.6759  -20.0321   19.5002 O   0  0  0  0  0  0  0  0  0  0  0  0
    9.8187  -16.7361   29.5642 N   0  0  0  0  0  0  0  0  0  0  0  0
   10.3881  -15.5000   29.1846 C   0  0  0  0  0  0  0  0  0  0  0  0
   10.2489  -14.4770   29.9571 N   0  0  0  0  0  0  0  0  0  0  0  0
   11.0985  -15.4264   27.9581 N   0  0  0  0  0  0  0  0  0  0  0  0
   10.4841  -15.8934   26.7369 C   0  0  0  0  0  0  0  0  0  0  0  0
   11.5236  -15.7547   25.6168 C   0  0  0  0  0  0  0  0  0  0  0  0
   10.8681  -16.2500   24.3734 C   0  0  0  0  0  0  0  0  0  0  0  0
   11.7764  -16.1278   23.1756 C   0  0  2  0  0  0  0  0  0  0  0  0
   11.0137  -16.6864   22.0546 N   0  0  0  0  0  0  0  0  0  0  0  0
   13.0800  -16.7716   23.3109 C   0  0  0  0  0  0  0  0  0  0  0  0
   14.2259  -15.9706   23.4318 O   0  0  0  0  0  0  0  0  0  0  0  0
   13.2164  -18.0133   23.3233 O   0  0  0  0  0  0  0  0  0  0  0  0
  2  1  1  1
  3  2  1  0
  4  3  1  0
  5  2  1  0
  5  6  2  0
  7  5  1  0
  8  7  1  0
  9 10  1  0
  8  9  1  6
 10 14  1  0
 10 11  2  0
 12  8  1  0
 13 12  2  0
 16 15  1  0
 17 16  2  0
 18 16  1  0
 19 18  1  0
 20 19  1  0
 21 20  1  0
 22 21  1  1
 22 23  1  0
 23 12  1  0
 24 22  1  0
 25 24  1  0
 26 24  2  0
M  END
$$$$
