SYA.pdb
     RDKit          3D

 24 24  0  0  1  0  0  0  0  0999 V2000
    7.9745  -17.9252   19.3890 O   0  0  0  0  0  0  0  0  0  0  0  0
    8.9401  -17.4029   20.2324 C   0  0  0  0  0  0  0  0  0  0  0  0
    8.5299  -15.9990   20.6106 C   0  0  2  0  0  0  0  0  0  0  0  0
    9.0434  -15.0560   19.6289 N   0  0  0  0  0  0  0  0  0  0  0  0
    9.0459  -15.6090   21.9434 C   0  0  0  0  0  0  0  0  0  0  0  0
   10.0851  -14.8806   22.0054 O   0  0  0  0  0  0  0  0  0  0  0  0
    6.0924  -10.2243   26.8364 O   0  0  0  0  0  0  0  0  0  0  0  0
    6.5458  -11.5063   26.4762 C   0  0  0  0  0  0  0  0  0  0  0  0
    7.8451  -11.8874   26.5886 C   0  0  0  0  0  0  0  0  0  0  0  0
    8.2344  -13.1767   26.2138 C   0  0  0  0  0  0  0  0  0  0  0  0
    7.3192  -14.0858   25.7252 C   0  0  0  0  0  0  0  0  0  0  0  0
    7.7684  -15.4066   25.3251 C   0  0  0  0  0  0  0  0  0  0  0  0
    8.9775  -15.5110   24.4644 C   0  0  2  0  0  0  0  0  0  0  0  0
    8.4614  -15.9914   23.1625 N   0  0  0  0  0  0  0  0  0  0  0  0
   10.0047  -16.4607   24.9554 C   0  0  0  0  0  0  0  0  0  0  0  0
   10.6651  -16.1633   26.0167 O   0  0  0  0  0  0  0  0  0  0  0  0
    6.0117  -13.6641   25.6254 C   0  0  0  0  0  0  0  0  0  0  0  0
    5.6154  -12.3844   25.9955 C   0  0  0  0  0  0  0  0  0  0  0  0
   12.6923  -17.9239   24.8209 C   0  0  0  0  0  0  0  0  0  0  0  0
   11.3079  -18.5545   24.9740 C   0  0  2  0  0  0  0  0  0  0  0  0
   10.3304  -17.6958   24.3518 N   0  0  0  0  0  0  0  0  0  0  0  0
   11.0375  -18.9144   26.3647 C   0  0  0  0  0  0  0  0  0  0  0  0
   11.7938  -19.6883   26.9840 O   0  0  0  0  0  0  0  0  0  0  0  0
    9.9319  -18.3960   27.0115 O   0  0  0  0  0  0  0  0  0  0  0  0
  2  1  1  0
  2  3  1  0
  3  4  1  6
  5  3  1  0
  5  6  2  0
  7  8  1  0
  8 18  2  0
  9 10  2  0
  9  8  1  0
 10 11  1  0
 11 12  1  0
 11 17  2  0
 13 12  1  1
 13 14  1  0
 14  5  1  0
 15 13  1  0
 16 15  2  0
 18 17  1  0
 20 19  1  1
 20 22  1  0
 20 21  1  0
 21 15  1  0
 22 24  1  0
 23 22  2  0
M  END
$$$$
