SYA.pdb
     RDKit          3D

 24 24  0  0  1  0  0  0  0  0999 V2000
    7.5693  -19.2086   18.8060 O   0  0  0  0  0  0  0  0  0  0  0  0
    8.6915  -18.7556   19.4782 C   0  0  0  0  0  0  0  0  0  0  0  0
    8.8443  -17.2780   19.2032 C   0  0  2  0  0  0  0  0  0  0  0  0
    9.9499  -17.0613   18.2827 N   0  0  0  0  0  0  0  0  0  0  0  0
    9.1117  -16.5071   20.4398 C   0  0  0  0  0  0  0  0  0  0  0  0
   10.3182  -16.3110   20.7869 O   0  0  0  0  0  0  0  0  0  0  0  0
    6.8702  -11.7442   27.7719 O   0  0  0  0  0  0  0  0  0  0  0  0
    6.9734  -12.4049   26.5343 C   0  0  0  0  0  0  0  0  0  0  0  0
    7.6109  -11.8665   25.4620 C   0  0  0  0  0  0  0  0  0  0  0  0
    7.6799  -12.5730   24.2577 C   0  0  0  0  0  0  0  0  0  0  0  0
    7.1086  -13.8219   24.1281 C   0  0  0  0  0  0  0  0  0  0  0  0
    7.1821  -14.5121   22.8535 C   0  0  0  0  0  0  0  0  0  0  0  0
    8.4401  -15.2280   22.5093 C   0  0  2  0  0  0  0  0  0  0  0  0
    8.1138  -15.9688   21.2695 N   0  0  0  0  0  0  0  0  0  0  0  0
    8.9041  -16.1903   23.5374 C   0  0  0  0  0  0  0  0  0  0  0  0
    8.2137  -17.2537   23.7455 O   0  0  0  0  0  0  0  0  0  0  0  0
    6.4710  -14.3354   25.2358 C   0  0  0  0  0  0  0  0  0  0  0  0
    6.3974  -13.6404   26.4372 C   0  0  0  0  0  0  0  0  0  0  0  0
   11.9173  -17.4636   24.9702 C   0  0  0  0  0  0  0  0  0  0  0  0
   10.4527  -17.1056   25.2246 C   0  0  2  0  0  0  0  0  0  0  0  0
   10.0668  -16.0450   24.3267 N   0  0  0  0  0  0  0  0  0  0  0  0
   10.2048  -16.8533   26.6428 C   0  0  0  0  0  0  0  0  0  0  0  0
   10.4194  -17.7358   27.4969 O   0  0  0  0  0  0  0  0  0  0  0  0
    9.7261  -15.6238   27.0538 O   0  0  0  0  0  0  0  0  0  0  0  0
  2  1  1  0
  2  3  1  0
  3  4  1  6
  5  3  1  0
  5  6  2  0
  7  8  1  0
  8 18  2  0
  9 10  2  0
  9  8  1  0
 10 11  1  0
 11 12  1  0
 11 17  2  0
 13 12  1  1
 13 14  1  0
 14  5  1  0
 15 13  1  0
 16 15  2  0
 18 17  1  0
 20 19  1  1
 20 22  1  0
 20 21  1  0
 21 15  1  0
 22 24  1  0
 23 22  2  0
M  END
$$$$
