SYA.pdb
     RDKit          3D

 24 24  0  0  1  0  0  0  0  0999 V2000
    8.6356  -18.2804   20.5173 O   0  0  0  0  0  0  0  0  0  0  0  0
    8.0784  -17.0320   20.2996 C   0  0  0  0  0  0  0  0  0  0  0  0
    9.1883  -16.0074   20.3211 C   0  0  2  0  0  0  0  0  0  0  0  0
   10.1314  -16.2822   19.2480 N   0  0  0  0  0  0  0  0  0  0  0  0
    9.9290  -16.0170   21.6041 C   0  0  0  0  0  0  0  0  0  0  0  0
   11.0898  -16.5330   21.6339 O   0  0  0  0  0  0  0  0  0  0  0  0
   10.9763  -14.5591   30.4438 O   0  0  0  0  0  0  0  0  0  0  0  0
   10.5713  -14.5609   29.0966 C   0  0  0  0  0  0  0  0  0  0  0  0
    9.3038  -14.2643   28.7074 C   0  0  0  0  0  0  0  0  0  0  0  0
    8.9623  -14.2831   27.3519 C   0  0  0  0  0  0  0  0  0  0  0  0
    9.8933  -14.5998   26.3847 C   0  0  0  0  0  0  0  0  0  0  0  0
    9.4922  -14.6309   24.9902 C   0  0  0  0  0  0  0  0  0  0  0  0
   10.2078  -15.5551   24.0697 C   0  0  2  0  0  0  0  0  0  0  0  0
    9.4345  -15.4894   22.8087 N   0  0  0  0  0  0  0  0  0  0  0  0
   10.2622  -16.9639   24.5284 C   0  0  0  0  0  0  0  0  0  0  0  0
    9.1876  -17.6675   24.4938 O   0  0  0  0  0  0  0  0  0  0  0  0
   11.1676  -14.8947   26.8166 C   0  0  0  0  0  0  0  0  0  0  0  0
   11.5164  -14.8786   28.1619 C   0  0  0  0  0  0  0  0  0  0  0  0
   12.3899  -19.7867   24.5394 C   0  0  0  0  0  0  0  0  0  0  0  0
   11.3441  -19.0218   25.3513 C   0  0  2  0  0  0  0  0  0  0  0  0
   11.4160  -17.6228   25.0084 N   0  0  0  0  0  0  0  0  0  0  0  0
   11.4480  -19.3283   26.7767 C   0  0  0  0  0  0  0  0  0  0  0  0
   11.7879  -18.4526   27.5964 O   0  0  0  0  0  0  0  0  0  0  0  0
   11.1680  -20.6023   27.2330 O   0  0  0  0  0  0  0  0  0  0  0  0
  2  1  1  0
  2  3  1  0
  3  4  1  6
  5  3  1  0
  5  6  2  0
  7  8  1  0
  8 18  2  0
  9 10  2  0
  9  8  1  0
 10 11  1  0
 11 12  1  0
 11 17  2  0
 13 12  1  1
 13 14  1  0
 14  5  1  0
 15 13  1  0
 16 15  2  0
 18 17  1  0
 20 19  1  6
 20 22  1  0
 20 21  1  0
 21 15  1  0
 22 24  1  0
 23 22  2  0
M  END
$$$$
