SYA.pdb
     RDKit          3D

 24 24  0  0  1  0  0  0  0  0999 V2000
   10.0281  -20.6884   18.3502 O   0  0  0  0  0  0  0  0  0  0  0  0
    9.8530  -19.9908   19.5331 C   0  0  0  0  0  0  0  0  0  0  0  0
    9.7159  -18.5232   19.2020 C   0  0  2  0  0  0  0  0  0  0  0  0
   10.5219  -18.2059   18.0331 N   0  0  0  0  0  0  0  0  0  0  0  0
   10.1580  -17.6575   20.3199 C   0  0  0  0  0  0  0  0  0  0  0  0
   11.3144  -17.1337   20.2647 O   0  0  0  0  0  0  0  0  0  0  0  0
    6.7310  -12.0970   18.8038 O   0  0  0  0  0  0  0  0  0  0  0  0
    7.1846  -12.9927   19.7891 C   0  0  0  0  0  0  0  0  0  0  0  0
    6.5155  -14.1290   20.1167 C   0  0  0  0  0  0  0  0  0  0  0  0
    7.0177  -14.9799   21.1056 C   0  0  0  0  0  0  0  0  0  0  0  0
    8.1930  -14.6912   21.7675 C   0  0  0  0  0  0  0  0  0  0  0  0
    8.6679  -15.5888   22.8044 C   0  0  0  0  0  0  0  0  0  0  0  0
    9.8493  -16.4444   22.5115 C   0  0  2  0  0  0  0  0  0  0  0  0
    9.3806  -17.3686   21.4540 N   0  0  0  0  0  0  0  0  0  0  0  0
   10.3371  -17.2391   23.6641 C   0  0  0  0  0  0  0  0  0  0  0  0
    9.5986  -18.1874   24.1183 O   0  0  0  0  0  0  0  0  0  0  0  0
    8.8434  -13.5312   21.4089 C   0  0  0  0  0  0  0  0  0  0  0  0
    8.3518  -12.6790   20.4270 C   0  0  0  0  0  0  0  0  0  0  0  0
   13.4786  -17.9968   25.4710 C   0  0  0  0  0  0  0  0  0  0  0  0
   11.9527  -17.9420   25.3899 C   0  0  2  0  0  0  0  0  0  0  0  0
   11.5719  -17.0487   24.3237 N   0  0  0  0  0  0  0  0  0  0  0  0
   11.3602  -17.6556   26.6951 C   0  0  0  0  0  0  0  0  0  0  0  0
   10.6101  -16.6728   26.8555 O   0  0  0  0  0  0  0  0  0  0  0  0
   11.6280  -18.4785   27.7725 O   0  0  0  0  0  0  0  0  0  0  0  0
  2  1  1  0
  2  3  1  0
  3  4  1  6
  5  3  1  0
  5  6  2  0
  7  8  1  0
  8 18  2  0
  9 10  2  0
  9  8  1  0
 10 11  1  0
 11 12  1  0
 11 17  2  0
 13 12  1  1
 13 14  1  0
 14  5  1  0
 15 13  1  0
 16 15  2  0
 18 17  1  0
 20 19  1  1
 20 22  1  0
 20 21  1  0
 21 15  1  0
 22 24  1  0
 23 22  2  0
M  END
$$$$
