SYA.pdb
     RDKit          3D

 24 24  0  0  1  0  0  0  0  0999 V2000
    9.0903  -15.2063   18.2791 O   0  0  0  0  0  0  0  0  0  0  0  0
    7.7307  -15.0019   18.4411 C   0  0  0  0  0  0  0  0  0  0  0  0
    7.5347  -13.7625   19.2823 C   0  0  2  0  0  0  0  0  0  0  0  0
    8.1606  -12.6223   18.6305 N   0  0  0  0  0  0  0  0  0  0  0  0
    8.1264  -13.9079   20.6327 C   0  0  0  0  0  0  0  0  0  0  0  0
    9.2557  -13.3733   20.8641 O   0  0  0  0  0  0  0  0  0  0  0  0
    6.8448  -11.2125   28.2561 O   0  0  0  0  0  0  0  0  0  0  0  0
    6.9271  -12.1489   27.2096 C   0  0  0  0  0  0  0  0  0  0  0  0
    7.9000  -13.0950   27.1417 C   0  0  0  0  0  0  0  0  0  0  0  0
    7.9285  -13.9985   26.0754 C   0  0  0  0  0  0  0  0  0  0  0  0
    6.9799  -13.9535   25.0750 C   0  0  0  0  0  0  0  0  0  0  0  0
    7.0588  -14.8947   23.9730 C   0  0  0  0  0  0  0  0  0  0  0  0
    8.1830  -14.7598   23.0078 C   0  0  2  0  0  0  0  0  0  0  0  0
    7.5212  -14.6040   21.6925 N   0  0  0  0  0  0  0  0  0  0  0  0
    9.0937  -15.9284   22.9534 C   0  0  0  0  0  0  0  0  0  0  0  0
    8.6807  -17.0088   22.3939 O   0  0  0  0  0  0  0  0  0  0  0  0
    6.0095  -12.9813   25.1773 C   0  0  0  0  0  0  0  0  0  0  0  0
    5.9730  -12.0788   26.2337 C   0  0  0  0  0  0  0  0  0  0  0  0
   12.5241  -16.9498   22.8339 C   0  0  0  0  0  0  0  0  0  0  0  0
   11.1466  -17.2030   23.4471 C   0  0  2  0  0  0  0  0  0  0  0  0
   10.4085  -15.9641   23.4690 N   0  0  0  0  0  0  0  0  0  0  0  0
   11.2539  -17.8963   24.7295 C   0  0  0  0  0  0  0  0  0  0  0  0
   10.6785  -17.4571   25.7445 O   0  0  0  0  0  0  0  0  0  0  0  0
   12.0004  -19.0549   24.8296 O   0  0  0  0  0  0  0  0  0  0  0  0
  2  1  1  0
  2  3  1  0
  3  4  1  6
  5  3  1  0
  5  6  2  0
  7  8  1  0
  8 18  2  0
  9 10  2  0
  9  8  1  0
 10 11  1  0
 11 12  1  0
 11 17  2  0
 13 12  1  1
 13 14  1  0
 14  5  1  0
 15 13  1  0
 16 15  2  0
 18 17  1  0
 20 19  1  1
 20 22  1  0
 20 21  1  0
 21 15  1  0
 22 24  1  0
 23 22  2  0
M  END
$$$$
