SYA.pdb
     RDKit          3D

 24 24  0  0  1  0  0  0  0  0999 V2000
    7.5227  -15.5365   19.4908 O   0  0  0  0  0  0  0  0  0  0  0  0
    6.4423  -14.7555   19.8639 C   0  0  0  0  0  0  0  0  0  0  0  0
    6.9694  -13.4803   20.4789 C   0  0  2  0  0  0  0  0  0  0  0  0
    7.6468  -12.6886   19.4635 N   0  0  0  0  0  0  0  0  0  0  0  0
    7.9285  -13.7473   21.5760 C   0  0  0  0  0  0  0  0  0  0  0  0
    9.1714  -13.6235   21.3427 O   0  0  0  0  0  0  0  0  0  0  0  0
   10.4300  -14.9966   30.1202 O   0  0  0  0  0  0  0  0  0  0  0  0
    9.7527  -14.8147   28.9008 C   0  0  0  0  0  0  0  0  0  0  0  0
    9.1057  -15.8227   28.2593 C   0  0  0  0  0  0  0  0  0  0  0  0
    8.4501  -15.5789   27.0489 C   0  0  0  0  0  0  0  0  0  0  0  0
    8.4431  -14.3221   26.4804 C   0  0  0  0  0  0  0  0  0  0  0  0
    7.7707  -14.1162   25.2108 C   0  0  0  0  0  0  0  0  0  0  0  0
    8.5550  -14.2939   23.9590 C   0  0  2  0  0  0  0  0  0  0  0  0
    7.5589  -14.1332   22.8754 N   0  0  0  0  0  0  0  0  0  0  0  0
    9.2068  -15.6184   23.8215 C   0  0  0  0  0  0  0  0  0  0  0  0
    8.4741  -16.6464   23.5827 O   0  0  0  0  0  0  0  0  0  0  0  0
    9.1092  -13.3256   27.1590 C   0  0  0  0  0  0  0  0  0  0  0  0
    9.7637  -13.5584   28.3628 C   0  0  0  0  0  0  0  0  0  0  0  0
   12.2724  -17.1688   22.7759 C   0  0  0  0  0  0  0  0  0  0  0  0
   11.0967  -17.2015   23.7529 C   0  0  2  0  0  0  0  0  0  0  0  0
   10.5946  -15.8607   23.9270 N   0  0  0  0  0  0  0  0  0  0  0  0
   11.4463  -17.9092   24.9832 C   0  0  0  0  0  0  0  0  0  0  0  0
   11.2890  -17.3720   26.0971 O   0  0  0  0  0  0  0  0  0  0  0  0
   11.9588  -19.1911   24.9226 O   0  0  0  0  0  0  0  0  0  0  0  0
  2  1  1  0
  2  3  1  0
  3  4  1  6
  5  3  1  0
  5  6  2  0
  7  8  1  0
  8 18  2  0
  9 10  2  0
  9  8  1  0
 10 11  1  0
 11 12  1  0
 11 17  2  0
 13 12  1  1
 13 14  1  0
 14  5  1  0
 15 13  1  0
 16 15  2  0
 18 17  1  0
 20 19  1  6
 20 22  1  0
 20 21  1  0
 21 15  1  0
 22 24  1  0
 23 22  2  0
M  END
$$$$
