SYA.pdb
     RDKit          3D

 24 24  0  0  1  0  0  0  0  0999 V2000
    8.8490  -19.1573   20.6749 O   0  0  0  0  0  0  0  0  0  0  0  0
    9.6649  -18.6969   19.6557 C   0  0  0  0  0  0  0  0  0  0  0  0
    9.3550  -17.2367   19.4236 C   0  0  2  0  0  0  0  0  0  0  0  0
   10.2527  -16.6986   18.4130 N   0  0  0  0  0  0  0  0  0  0  0  0
    9.5101  -16.4324   20.6581 C   0  0  0  0  0  0  0  0  0  0  0  0
   10.6738  -16.0466   20.9920 O   0  0  0  0  0  0  0  0  0  0  0  0
    6.7357  -11.7420   27.8141 O   0  0  0  0  0  0  0  0  0  0  0  0
    6.8690  -12.4751   26.6210 C   0  0  0  0  0  0  0  0  0  0  0  0
    6.3339  -13.7126   26.4523 C   0  0  0  0  0  0  0  0  0  0  0  0
    6.5009  -14.3915   25.2417 C   0  0  0  0  0  0  0  0  0  0  0  0
    7.2057  -13.8287   24.1981 C   0  0  0  0  0  0  0  0  0  0  0  0
    7.3762  -14.5765   22.9660 C   0  0  0  0  0  0  0  0  0  0  0  0
    8.6673  -15.2803   22.7395 C   0  0  2  0  0  0  0  0  0  0  0  0
    8.4486  -16.0592   21.4995 N   0  0  0  0  0  0  0  0  0  0  0  0
    9.0644  -16.2070   23.8266 C   0  0  0  0  0  0  0  0  0  0  0  0
    8.3989  -17.2944   23.9862 O   0  0  0  0  0  0  0  0  0  0  0  0
    7.7335  -12.5735   24.4055 C   0  0  0  0  0  0  0  0  0  0  0  0
    7.5727  -11.8908   25.6055 C   0  0  0  0  0  0  0  0  0  0  0  0
   11.8855  -17.4439   25.5680 C   0  0  0  0  0  0  0  0  0  0  0  0
   10.4295  -17.0027   25.7202 C   0  0  2  0  0  0  0  0  0  0  0  0
   10.1364  -16.0022   24.7236 N   0  0  0  0  0  0  0  0  0  0  0  0
   10.1288  -16.6259   27.1001 C   0  0  0  0  0  0  0  0  0  0  0  0
    9.6874  -15.4922   27.3722 O   0  0  0  0  0  0  0  0  0  0  0  0
   10.3327  -17.5304   28.1248 O   0  0  0  0  0  0  0  0  0  0  0  0
  2  1  1  0
  2  3  1  0
  3  4  1  6
  5  3  1  0
  5  6  2  0
  7  8  1  0
  8 18  2  0
  9 10  2  0
  9  8  1  0
 10 11  1  0
 11 12  1  0
 11 17  2  0
 13 12  1  1
 13 14  1  0
 14  5  1  0
 15 13  1  0
 16 15  2  0
 18 17  1  0
 20 19  1  1
 20 22  1  0
 20 21  1  0
 21 15  1  0
 22 24  1  0
 23 22  2  0
M  END
$$$$
