SYA.pdb
     RDKit          3D

 24 24  0  0  1  0  0  0  0  0999 V2000
   11.6936  -20.4804   18.7997 O   0  0  0  0  0  0  0  0  0  0  0  0
   10.4485  -20.0079   18.4216 C   0  0  0  0  0  0  0  0  0  0  0  0
   10.5563  -18.5186   18.1926 C   0  0  2  0  0  0  0  0  0  0  0  0
   11.5982  -18.2461   17.2144 N   0  0  0  0  0  0  0  0  0  0  0  0
   10.8858  -17.7870   19.4380 C   0  0  0  0  0  0  0  0  0  0  0  0
   12.0623  -17.3295   19.5831 O   0  0  0  0  0  0  0  0  0  0  0  0
    7.6164  -11.9896   18.2336 O   0  0  0  0  0  0  0  0  0  0  0  0
    7.9681  -12.9951   19.1523 C   0  0  0  0  0  0  0  0  0  0  0  0
    7.1699  -14.0617   19.4193 C   0  0  0  0  0  0  0  0  0  0  0  0
    7.5753  -15.0290   20.3436 C   0  0  0  0  0  0  0  0  0  0  0  0
    8.7834  -14.9268   21.0015 C   0  0  0  0  0  0  0  0  0  0  0  0
    9.1565  -15.9402   21.9711 C   0  0  0  0  0  0  0  0  0  0  0  0
   10.3515  -16.7809   21.6902 C   0  0  2  0  0  0  0  0  0  0  0  0
    9.9789  -17.5584   20.4864 N   0  0  0  0  0  0  0  0  0  0  0  0
   10.7145  -17.7211   22.7775 C   0  0  0  0  0  0  0  0  0  0  0  0
    9.9420  -18.7200   23.0149 O   0  0  0  0  0  0  0  0  0  0  0  0
    9.5656  -13.8325   20.7053 C   0  0  0  0  0  0  0  0  0  0  0  0
    9.1710  -12.8658   19.7880 C   0  0  0  0  0  0  0  0  0  0  0  0
   13.5997  -18.7530   24.8401 C   0  0  0  0  0  0  0  0  0  0  0  0
   12.0935  -18.6095   24.6191 C   0  0  2  0  0  0  0  0  0  0  0  0
   11.8623  -17.6207   23.5950 N   0  0  0  0  0  0  0  0  0  0  0  0
   11.3890  -18.3882   25.8806 C   0  0  0  0  0  0  0  0  0  0  0  0
   11.4551  -19.2218   26.8052 O   0  0  0  0  0  0  0  0  0  0  0  0
   10.6368  -17.2433   26.0616 O   0  0  0  0  0  0  0  0  0  0  0  0
  2  1  1  0
  2  3  1  0
  3  4  1  6
  5  3  1  0
  5  6  2  0
  7  8  1  0
  8 18  2  0
  9 10  2  0
  9  8  1  0
 10 11  1  0
 11 12  1  0
 11 17  2  0
 13 12  1  1
 13 14  1  0
 14  5  1  0
 15 13  1  0
 16 15  2  0
 18 17  1  0
 20 19  1  1
 20 22  1  0
 20 21  1  0
 21 15  1  0
 22 24  1  0
 23 22  2  0
M  END
$$$$
