SYA.pdb
     RDKit          3D

 24 24  0  0  1  0  0  0  0  0999 V2000
    9.2528  -16.0128   18.4988 O   0  0  0  0  0  0  0  0  0  0  0  0
    8.0059  -15.5397   18.1274 C   0  0  0  0  0  0  0  0  0  0  0  0
    7.9108  -14.0869   18.5308 C   0  0  2  0  0  0  0  0  0  0  0  0
    8.7623  -13.2811   17.6692 N   0  0  0  0  0  0  0  0  0  0  0  0
    8.3331  -13.8709   19.9343 C   0  0  0  0  0  0  0  0  0  0  0  0
    9.4622  -13.3316   20.1549 O   0  0  0  0  0  0  0  0  0  0  0  0
    7.0757  -12.2451   28.6355 O   0  0  0  0  0  0  0  0  0  0  0  0
    6.9685  -12.6342   27.2879 C   0  0  0  0  0  0  0  0  0  0  0  0
    6.4620  -13.8356   26.9055 C   0  0  0  0  0  0  0  0  0  0  0  0
    6.3813  -14.1648   25.5493 C   0  0  0  0  0  0  0  0  0  0  0  0
    6.8093  -13.2878   24.5744 C   0  0  0  0  0  0  0  0  0  0  0  0
    6.7301  -13.6774   23.1785 C   0  0  0  0  0  0  0  0  0  0  0  0
    7.9988  -13.9057   22.4357 C   0  0  2  0  0  0  0  0  0  0  0  0
    7.5647  -14.2240   21.0563 N   0  0  0  0  0  0  0  0  0  0  0  0
    8.8235  -15.0247   22.9513 C   0  0  0  0  0  0  0  0  0  0  0  0
    9.2335  -14.9811   24.1682 O   0  0  0  0  0  0  0  0  0  0  0  0
    7.3166  -12.0799   24.9995 C   0  0  0  0  0  0  0  0  0  0  0  0
    7.4007  -11.7438   26.3456 C   0  0  0  0  0  0  0  0  0  0  0  0
    9.8256  -18.5026   22.1332 C   0  0  0  0  0  0  0  0  0  0  0  0
   10.0540  -17.1584   22.8252 C   0  0  2  0  0  0  0  0  0  0  0  0
    9.2068  -16.1655   22.2115 N   0  0  0  0  0  0  0  0  0  0  0  0
   11.4759  -16.8249   22.8847 C   0  0  0  0  0  0  0  0  0  0  0  0
   12.2958  -17.6087   23.4021 O   0  0  0  0  0  0  0  0  0  0  0  0
   11.9285  -15.6277   22.3638 O   0  0  0  0  0  0  0  0  0  0  0  0
  2  1  1  0
  2  3  1  0
  3  4  1  6
  5  3  1  0
  5  6  2  0
  7  8  1  0
  8 18  2  0
  9 10  2  0
  9  8  1  0
 10 11  1  0
 11 12  1  0
 11 17  2  0
 13 12  1  1
 13 14  1  0
 14  5  1  0
 15 13  1  0
 16 15  2  0
 18 17  1  0
 20 19  1  6
 20 22  1  0
 20 21  1  0
 21 15  1  0
 22 24  1  0
 23 22  2  0
M  END
$$$$
