SYA.pdb
     RDKit          3D

 24 24  0  0  1  0  0  0  0  0999 V2000
    9.8747  -19.0745   20.7420 O   0  0  0  0  0  0  0  0  0  0  0  0
    8.9855  -18.4050   19.9188 C   0  0  0  0  0  0  0  0  0  0  0  0
    9.4767  -16.9871   19.7444 C   0  0  2  0  0  0  0  0  0  0  0  0
   10.7844  -16.9951   19.1068 N   0  0  0  0  0  0  0  0  0  0  0  0
    9.5958  -16.2768   21.0391 C   0  0  0  0  0  0  0  0  0  0  0  0
   10.7555  -16.0596   21.5107 O   0  0  0  0  0  0  0  0  0  0  0  0
    6.5547  -11.6061   28.1318 O   0  0  0  0  0  0  0  0  0  0  0  0
    6.7939  -12.2659   26.9127 C   0  0  0  0  0  0  0  0  0  0  0  0
    7.5710  -11.7401   25.9299 C   0  0  0  0  0  0  0  0  0  0  0  0
    7.7712  -12.4449   24.7394 C   0  0  0  0  0  0  0  0  0  0  0  0
    7.1913  -13.6795   24.5336 C   0  0  0  0  0  0  0  0  0  0  0  0
    7.4051  -14.3680   23.2740 C   0  0  0  0  0  0  0  0  0  0  0  0
    8.6835  -15.1036   23.0790 C   0  0  2  0  0  0  0  0  0  0  0  0
    8.5037  -15.8189   21.7952 N   0  0  0  0  0  0  0  0  0  0  0  0
    8.9963  -16.0903   24.1405 C   0  0  0  0  0  0  0  0  0  0  0  0
    8.2641  -17.1412   24.2431 O   0  0  0  0  0  0  0  0  0  0  0  0
    6.4104  -14.1805   25.5517 C   0  0  0  0  0  0  0  0  0  0  0  0
    6.2056  -13.4871   26.7387 C   0  0  0  0  0  0  0  0  0  0  0  0
   11.6026  -17.6328   25.9234 C   0  0  0  0  0  0  0  0  0  0  0  0
   10.2198  -16.9992   26.0794 C   0  0  2  0  0  0  0  0  0  0  0  0
   10.0540  -15.9819   25.0707 N   0  0  0  0  0  0  0  0  0  0  0  0
    9.9842  -16.5674   27.4558 C   0  0  0  0  0  0  0  0  0  0  0  0
    9.6639  -15.3900   27.7112 O   0  0  0  0  0  0  0  0  0  0  0  0
   10.1154  -17.4679   28.4958 O   0  0  0  0  0  0  0  0  0  0  0  0
  2  1  1  0
  2  3  1  0
  3  4  1  1
  5  3  1  0
  5  6  2  0
  7  8  1  0
  8 18  2  0
  9 10  2  0
  9  8  1  0
 10 11  1  0
 11 12  1  0
 11 17  2  0
 13 12  1  1
 13 14  1  0
 14  5  1  0
 15 13  1  0
 16 15  2  0
 18 17  1  0
 20 19  1  1
 20 22  1  0
 20 21  1  0
 21 15  1  0
 22 24  1  0
 23 22  2  0
M  END
$$$$
