SYA.pdb
     RDKit          3D

 24 24  0  0  1  0  0  0  0  0999 V2000
    8.7347  -18.2672   20.4329 O   0  0  0  0  0  0  0  0  0  0  0  0
    7.7724  -17.2723   20.4578 C   0  0  0  0  0  0  0  0  0  0  0  0
    8.4741  -15.9350   20.4945 C   0  0  2  0  0  0  0  0  0  0  0  0
    9.3608  -15.8138   19.3474 N   0  0  0  0  0  0  0  0  0  0  0  0
    9.2810  -15.7642   21.7252 C   0  0  0  0  0  0  0  0  0  0  0  0
   10.5480  -15.7703   21.6292 O   0  0  0  0  0  0  0  0  0  0  0  0
   10.5341  -14.8340   30.5895 O   0  0  0  0  0  0  0  0  0  0  0  0
   10.0597  -14.8780   29.2659 C   0  0  0  0  0  0  0  0  0  0  0  0
    9.4145  -15.9565   28.7494 C   0  0  0  0  0  0  0  0  0  0  0  0
    8.9663  -15.9397   27.4254 C   0  0  0  0  0  0  0  0  0  0  0  0
    9.1652  -14.8395   26.6175 C   0  0  0  0  0  0  0  0  0  0  0  0
    8.7052  -14.8714   25.2413 C   0  0  0  0  0  0  0  0  0  0  0  0
    9.5959  -15.4728   24.2124 C   0  0  2  0  0  0  0  0  0  0  0  0
    8.7397  -15.5934   23.0105 N   0  0  0  0  0  0  0  0  0  0  0  0
   10.1267  -16.8123   24.5619 C   0  0  0  0  0  0  0  0  0  0  0  0
    9.3324  -17.8215   24.5237 O   0  0  0  0  0  0  0  0  0  0  0  0
    9.8227  -13.7653   27.1752 C   0  0  0  0  0  0  0  0  0  0  0  0
   10.2720  -13.7728   28.4905 C   0  0  0  0  0  0  0  0  0  0  0  0
   13.0209  -18.8341   24.3292 C   0  0  0  0  0  0  0  0  0  0  0  0
   11.8471  -18.4483   25.2299 C   0  0  2  0  0  0  0  0  0  0  0  0
   11.4596  -17.0899   24.9387 N   0  0  0  0  0  0  0  0  0  0  0  0
   12.1367  -18.7347   26.6338 C   0  0  0  0  0  0  0  0  0  0  0  0
   12.0949  -17.8322   27.4928 O   0  0  0  0  0  0  0  0  0  0  0  0
   12.4621  -20.0194   27.0252 O   0  0  0  0  0  0  0  0  0  0  0  0
  2  1  1  0
  2  3  1  0
  3  4  1  6
  5  3  1  0
  5  6  2  0
  7  8  1  0
  8 18  2  0
  9 10  2  0
  9  8  1  0
 10 11  1  0
 11 12  1  0
 11 17  2  0
 13 12  1  1
 13 14  1  0
 14  5  1  0
 15 13  1  0
 16 15  2  0
 18 17  1  0
 20 19  1  6
 20 22  1  0
 20 21  1  0
 21 15  1  0
 22 24  1  0
 23 22  2  0
M  END
$$$$
