TKW.pdb
     RDKit          3D

 31 32  0  0  1  0  0  0  0  0999 V2000
   25.3181  -22.7956  -12.7651 C   0  0  0  0  0  0  0  0  0  0  0  0
   25.5365  -22.0893  -11.4667 C   0  0  1  0  0  0  0  0  0  0  0  0
   25.9007  -22.9937  -10.4692 O   0  0  0  0  0  0  0  0  0  0  0  0
   26.4429  -20.9067  -11.5305 C   0  0  2  0  0  0  0  0  0  0  0  0
   26.6741  -20.3491  -10.2407 N   0  0  0  0  0  0  0  0  0  0  0  0
   26.0433  -19.9017  -12.5534 C   0  0  0  0  0  0  0  0  0  0  0  0
   25.0781  -19.1215  -12.3541 O   0  0  0  0  0  0  0  0  0  0  0  0
   26.7270  -19.7737  -13.7984 N   0  0  0  0  0  0  0  0  0  0  0  0
   26.3825  -18.8214  -14.8139 C   0  0  1  0  0  0  0  0  0  0  0  0
   27.4253  -18.6739  -15.8545 C   0  0  0  0  0  0  0  0  0  0  0  0
   27.0489  -17.5777  -16.8122 C   0  0  0  0  0  0  0  0  0  0  0  0
   28.0741  -17.3394  -17.8691 C   0  0  0  0  0  0  0  0  0  0  0  0
   27.7559  -16.1118  -18.7094 C   0  0  0  0  0  0  0  0  0  0  0  0
   28.7730  -16.0731  -19.7495 N   0  0  0  0  0  0  0  0  0  0  0  0
   25.0508  -19.2150  -15.3642 C   0  0  0  0  0  0  0  0  0  0  0  0
   24.7337  -20.4232  -15.4814 O   0  0  0  0  0  0  0  0  0  0  0  0
   24.0886  -18.2502  -15.7768 N   0  0  0  0  0  0  0  0  0  0  0  0
   22.7679  -18.5759  -16.2857 C   0  0  1  0  0  0  0  0  0  0  0  0
   22.0138  -19.4762  -15.3989 C   0  0  0  0  0  0  0  0  0  0  0  0
   21.3470  -18.7863  -14.2874 C   0  0  0  0  0  0  0  0  0  0  0  0
   20.5625  -17.6257  -14.3422 C   0  0  0  0  0  0  0  0  0  0  0  0
   20.1648  -17.2821  -13.1089 N   0  0  0  0  0  0  0  0  0  0  0  0
   20.6431  -18.1557  -12.2293 C   0  0  0  0  0  0  0  0  0  0  0  0
   20.5006  -18.2502  -10.8413 C   0  0  0  0  0  0  0  0  0  0  0  0
   21.1108  -19.3032  -10.2136 C   0  0  0  0  0  0  0  0  0  0  0  0
   21.8449  -20.2561  -10.8732 C   0  0  0  0  0  0  0  0  0  0  0  0
   21.9817  -20.1575  -12.2336 C   0  0  0  0  0  0  0  0  0  0  0  0
   21.3827  -19.1050  -12.9267 C   0  0  0  0  0  0  0  0  0  0  0  0
   22.0127  -17.4578  -16.8236 C   0  0  0  0  0  0  0  0  0  0  0  0
   20.8029  -17.7431  -17.4898 O   0  0  0  0  0  0  0  0  0  0  0  0
   22.2999  -16.2438  -16.7719 O   0  0  0  0  0  0  0  0  0  0  0  0
  2  1  1  6
  3  2  1  0
  4  2  1  0
  4  5  1  1
  6  7  2  0
  6  4  1  0
  8  6  1  0
  9  8  1  0
  9 10  1  6
 11 10  1  0
 12 11  1  0
 13 12  1  0
 14 13  1  0
 15  9  1  0
 15 17  1  0
 16 15  2  0
 18 17  1  0
 18 29  1  0
 19 20  1  0
 18 19  1  1
 20 28  1  0
 21 20  2  0
 21 22  1  0
 22 23  1  0
 23 24  1  0
 24 25  2  0
 26 25  1  0
 27 26  2  0
 28 23  2  0
 28 27  1  0
 29 31  2  0
 29 30  1  0
M  END
$$$$
