TKW.pdb
     RDKit          3D

 31 32  0  0  1  0  0  0  0  0999 V2000
   29.2807  -20.5635  -17.0237 C   0  0  0  0  0  0  0  0  0  0  0  0
   29.9038  -19.2112  -16.8996 C   0  0  1  0  0  0  0  0  0  0  0  0
   31.0238  -19.1074  -17.7244 O   0  0  0  0  0  0  0  0  0  0  0  0
   28.9659  -18.0620  -17.0546 C   0  0  2  0  0  0  0  0  0  0  0  0
   29.6441  -16.8127  -16.9706 N   0  0  0  0  0  0  0  0  0  0  0  0
   27.7635  -18.1495  -16.1814 C   0  0  0  0  0  0  0  0  0  0  0  0
   27.7503  -17.6219  -15.0405 O   0  0  0  0  0  0  0  0  0  0  0  0
   26.5779  -18.8291  -16.5891 N   0  0  0  0  0  0  0  0  0  0  0  0
   25.4020  -18.9574  -15.7782 C   0  0  1  0  0  0  0  0  0  0  0  0
   24.1525  -19.0338  -16.5687 C   0  0  0  0  0  0  0  0  0  0  0  0
   22.9744  -19.2321  -15.6560 C   0  0  0  0  0  0  0  0  0  0  0  0
   22.0617  -18.0533  -15.6054 C   0  0  0  0  0  0  0  0  0  0  0  0
   20.9350  -18.2438  -14.6012 C   0  0  0  0  0  0  0  0  0  0  0  0
   20.2433  -16.9650  -14.5395 N   0  0  0  0  0  0  0  0  0  0  0  0
   25.6042  -20.1325  -14.8785 C   0  0  0  0  0  0  0  0  0  0  0  0
   26.5131  -20.9676  -15.1037 O   0  0  0  0  0  0  0  0  0  0  0  0
   24.7859  -20.3588  -13.7357 N   0  0  0  0  0  0  0  0  0  0  0  0
   25.0388  -21.3819  -12.7363 C   0  0  1  0  0  0  0  0  0  0  0  0
   26.3667  -21.2639  -12.1132 C   0  0  0  0  0  0  0  0  0  0  0  0
   26.3274  -20.7718  -10.7304 C   0  0  0  0  0  0  0  0  0  0  0  0
   25.2128  -20.3210  -10.0093 C   0  0  0  0  0  0  0  0  0  0  0  0
   25.5901  -19.9130   -8.7893 N   0  0  0  0  0  0  0  0  0  0  0  0
   26.9029  -20.0688   -8.6559 C   0  0  0  0  0  0  0  0  0  0  0  0
   27.7652  -19.8144   -7.5847 C   0  0  0  0  0  0  0  0  0  0  0  0
   29.0911  -20.1104   -7.7566 C   0  0  0  0  0  0  0  0  0  0  0  0
   29.6058  -20.6372   -8.9140 C   0  0  0  0  0  0  0  0  0  0  0  0
   28.7557  -20.8834   -9.9608 C   0  0  0  0  0  0  0  0  0  0  0  0
   27.3943  -20.6008   -9.8434 C   0  0  0  0  0  0  0  0  0  0  0  0
   23.9432  -21.6434  -11.8192 C   0  0  0  0  0  0  0  0  0  0  0  0
   22.8547  -20.7468  -11.8249 O   0  0  0  0  0  0  0  0  0  0  0  0
   23.8336  -22.5835  -11.0050 O   0  0  0  0  0  0  0  0  0  0  0  0
  2  1  1  6
  3  2  1  0
  4  2  1  0
  4  5  1  1
  6  7  2  0
  6  4  1  0
  8  6  1  0
  9  8  1  0
  9 10  1  6
 11 10  1  0
 12 11  1  0
 13 12  1  0
 14 13  1  0
 15  9  1  0
 15 17  1  0
 16 15  2  0
 18 17  1  0
 18 29  1  0
 19 20  1  0
 18 19  1  1
 20 28  1  0
 21 20  2  0
 21 22  1  0
 22 23  1  0
 23 24  1  0
 24 25  2  0
 26 25  1  0
 27 26  2  0
 28 23  2  0
 28 27  1  0
 29 31  2  0
 29 30  1  0
M  END
$$$$
