TKW.pdb
     RDKit          3D

 31 32  0  0  1  0  0  0  0  0999 V2000
   26.1447  -13.9932  -15.4634 C   0  0  0  0  0  0  0  0  0  0  0  0
   25.4567  -15.3048  -15.6605 C   0  0  1  0  0  0  0  0  0  0  0  0
   24.0769  -15.1641  -15.5135 O   0  0  0  0  0  0  0  0  0  0  0  0
   25.8315  -16.0392  -16.9033 C   0  0  2  0  0  0  0  0  0  0  0  0
   25.5453  -15.2781  -18.0723 N   0  0  0  0  0  0  0  0  0  0  0  0
   25.3103  -17.4326  -16.9545 C   0  0  0  0  0  0  0  0  0  0  0  0
   24.1356  -17.6725  -17.3321 O   0  0  0  0  0  0  0  0  0  0  0  0
   26.1076  -18.5547  -16.5819 N   0  0  0  0  0  0  0  0  0  0  0  0
   25.6120  -19.8961  -16.4726 C   0  0  1  0  0  0  0  0  0  0  0  0
   26.6832  -20.9180  -16.4895 C   0  0  0  0  0  0  0  0  0  0  0  0
   26.0957  -22.2864  -16.2828 C   0  0  0  0  0  0  0  0  0  0  0  0
   27.1123  -23.3773  -16.3218 C   0  0  0  0  0  0  0  0  0  0  0  0
   28.4152  -22.9237  -16.9628 C   0  0  0  0  0  0  0  0  0  0  0  0
   29.3763  -23.9819  -16.6907 N   0  0  0  0  0  0  0  0  0  0  0  0
   24.7550  -19.9591  -15.2508 C   0  0  0  0  0  0  0  0  0  0  0  0
   25.1144  -19.4077  -14.1827 O   0  0  0  0  0  0  0  0  0  0  0  0
   23.5043  -20.6390  -15.2394 N   0  0  0  0  0  0  0  0  0  0  0  0
   22.5426  -20.5674  -14.1533 C   0  0  1  0  0  0  0  0  0  0  0  0
   22.2561  -19.1886  -13.7264 C   0  0  0  0  0  0  0  0  0  0  0  0
   21.1577  -18.5578  -14.4690 C   0  0  0  0  0  0  0  0  0  0  0  0
   19.7799  -18.7494  -14.2945 C   0  0  0  0  0  0  0  0  0  0  0  0
   19.0985  -18.0262  -15.1945 N   0  0  0  0  0  0  0  0  0  0  0  0
   19.9514  -17.3579  -15.9637 C   0  0  0  0  0  0  0  0  0  0  0  0
   19.7470  -16.4642  -17.0198 C   0  0  0  0  0  0  0  0  0  0  0  0
   20.8557  -15.9138  -17.6055 C   0  0  0  0  0  0  0  0  0  0  0  0
   22.1392  -16.1942  -17.2105 C   0  0  0  0  0  0  0  0  0  0  0  0
   22.3331  -17.0718  -16.1754 C   0  0  0  0  0  0  0  0  0  0  0  0
   21.2406  -17.6642  -15.5409 C   0  0  0  0  0  0  0  0  0  0  0  0
   21.3816  -21.4296  -14.2895 C   0  0  0  0  0  0  0  0  0  0  0  0
   20.5110  -21.5367  -13.1852 O   0  0  0  0  0  0  0  0  0  0  0  0
   21.0419  -22.1060  -15.2823 O   0  0  0  0  0  0  0  0  0  0  0  0
  2  1  1  6
  3  2  1  0
  4  2  1  0
  4  5  1  6
  6  7  2  0
  6  4  1  0
  8  6  1  0
  9  8  1  0
  9 10  1  1
 11 10  1  0
 12 11  1  0
 13 12  1  0
 14 13  1  0
 15  9  1  0
 15 17  1  0
 16 15  2  0
 18 17  1  0
 18 29  1  0
 19 20  1  0
 18 19  1  6
 20 28  1  0
 21 20  2  0
 21 22  1  0
 22 23  1  0
 23 24  1  0
 24 25  2  0
 26 25  1  0
 27 26  2  0
 28 23  2  0
 28 27  1  0
 29 31  2  0
 29 30  1  0
M  END
$$$$
