TKW.pdb
     RDKit          3D

 31 32  0  0  1  0  0  0  0  0999 V2000
   20.9676  -17.7992  -15.6544 C   0  0  0  0  0  0  0  0  0  0  0  0
   22.3233  -18.4273  -15.6609 C   0  0  1  0  0  0  0  0  0  0  0  0
   23.2217  -17.6523  -16.3941 O   0  0  0  0  0  0  0  0  0  0  0  0
   22.8534  -18.8101  -14.3204 C   0  0  2  0  0  0  0  0  0  0  0  0
   22.9698  -17.6831  -13.4579 N   0  0  0  0  0  0  0  0  0  0  0  0
   24.0832  -19.6467  -14.3804 C   0  0  0  0  0  0  0  0  0  0  0  0
   24.1361  -20.6716  -15.1064 O   0  0  0  0  0  0  0  0  0  0  0  0
   25.2517  -19.3325  -13.6258 N   0  0  0  0  0  0  0  0  0  0  0  0
   26.4957  -20.0382  -13.7332 C   0  0  1  0  0  0  0  0  0  0  0  0
   27.6770  -19.1460  -13.7154 C   0  0  0  0  0  0  0  0  0  0  0  0
   28.6871  -19.6051  -14.7300 C   0  0  0  0  0  0  0  0  0  0  0  0
   28.1707  -19.5828  -16.1292 C   0  0  0  0  0  0  0  0  0  0  0  0
   29.2022  -20.0841  -17.1287 C   0  0  0  0  0  0  0  0  0  0  0  0
   28.5556  -20.0117  -18.4303 N   0  0  0  0  0  0  0  0  0  0  0  0
   26.5195  -21.0711  -12.6544 C   0  0  0  0  0  0  0  0  0  0  0  0
   25.7597  -22.0685  -12.7004 O   0  0  0  0  0  0  0  0  0  0  0  0
   27.3950  -20.9753  -11.5359 N   0  0  0  0  0  0  0  0  0  0  0  0
   26.9581  -20.9765  -10.1508 C   0  0  1  0  0  0  0  0  0  0  0  0
   27.5859  -19.9158   -9.3469 C   0  0  0  0  0  0  0  0  0  0  0  0
   27.2770  -20.0011   -7.9140 C   0  0  0  0  0  0  0  0  0  0  0  0
   26.0372  -20.2672   -7.3158 C   0  0  0  0  0  0  0  0  0  0  0  0
   26.1520  -20.2185   -5.9810 N   0  0  0  0  0  0  0  0  0  0  0  0
   27.4081  -19.9337   -5.6541 C   0  0  0  0  0  0  0  0  0  0  0  0
   28.0362  -19.7916   -4.4127 C   0  0  0  0  0  0  0  0  0  0  0  0
   29.3771  -19.5136   -4.4110 C   0  0  0  0  0  0  0  0  0  0  0  0
   30.1223  -19.3700   -5.5538 C   0  0  0  0  0  0  0  0  0  0  0  0
   29.5007  -19.5094   -6.7676 C   0  0  0  0  0  0  0  0  0  0  0  0
   28.1358  -19.7921   -6.8309 C   0  0  0  0  0  0  0  0  0  0  0  0
   25.5303  -21.1481   -9.9466 C   0  0  0  0  0  0  0  0  0  0  0  0
   24.6567  -20.4998  -10.8440 O   0  0  0  0  0  0  0  0  0  0  0  0
   24.9579  -21.8129   -9.0582 O   0  0  0  0  0  0  0  0  0  0  0  0
  2  1  1  1
  3  2  1  0
  4  2  1  0
  4  5  1  1
  6  7  2  0
  6  4  1  0
  8  6  1  0
  9  8  1  0
  9 10  1  1
 11 10  1  0
 12 11  1  0
 13 12  1  0
 14 13  1  0
 15  9  1  0
 15 17  1  0
 16 15  2  0
 18 17  1  0
 18 29  1  0
 19 20  1  0
 18 19  1  6
 20 28  1  0
 21 20  2  0
 21 22  1  0
 22 23  1  0
 23 24  1  0
 24 25  2  0
 26 25  1  0
 27 26  2  0
 28 23  2  0
 28 27  1  0
 29 31  2  0
 29 30  1  0
M  END
$$$$
