TKW.pdb
     RDKit          3D

 31 32  0  0  1  0  0  0  0  0999 V2000
   13.9380  -21.3796   -8.3831 C   0  0  0  0  0  0  0  0  0  0  0  0
   13.9312  -21.9374   -6.9970 C   0  0  1  0  0  0  0  0  0  0  0  0
   13.4729  -20.9863   -6.0855 O   0  0  0  0  0  0  0  0  0  0  0  0
   13.2501  -23.2555   -6.8451 C   0  0  2  0  0  0  0  0  0  0  0  0
   11.8735  -23.1820   -7.2019 N   0  0  0  0  0  0  0  0  0  0  0  0
   13.4926  -23.9056   -5.5281 C   0  0  0  0  0  0  0  0  0  0  0  0
   12.6797  -23.7713   -4.5787 O   0  0  0  0  0  0  0  0  0  0  0  0
   14.6466  -24.7052   -5.2780 N   0  0  0  0  0  0  0  0  0  0  0  0
   14.9335  -25.3378   -4.0233 C   0  0  1  0  0  0  0  0  0  0  0  0
   16.0190  -26.3410   -4.1095 C   0  0  0  0  0  0  0  0  0  0  0  0
   16.2394  -26.9811   -2.7670 C   0  0  0  0  0  0  0  0  0  0  0  0
   16.0952  -28.4656   -2.7900 C   0  0  0  0  0  0  0  0  0  0  0  0
   16.2378  -29.0765   -1.4041 C   0  0  0  0  0  0  0  0  0  0  0  0
   16.1507  -30.5161   -1.5983 N   0  0  0  0  0  0  0  0  0  0  0  0
   15.2057  -24.2574   -3.0285 C   0  0  0  0  0  0  0  0  0  0  0  0
   15.7570  -23.1853   -3.3763 O   0  0  0  0  0  0  0  0  0  0  0  0
   14.8566  -24.3898   -1.6547 N   0  0  0  0  0  0  0  0  0  0  0  0
   15.0547  -23.3545   -0.6554 C   0  0  1  0  0  0  0  0  0  0  0  0
   14.4690  -22.0608   -1.0411 C   0  0  0  0  0  0  0  0  0  0  0  0
   13.0145  -21.9924   -0.8521 C   0  0  0  0  0  0  0  0  0  0  0  0
   12.2060  -22.8429   -0.0849 C   0  0  0  0  0  0  0  0  0  0  0  0
   10.9205  -22.4795   -0.1985 N   0  0  0  0  0  0  0  0  0  0  0  0
   10.8269  -21.4265   -1.0034 C   0  0  0  0  0  0  0  0  0  0  0  0
    9.7268  -20.6711   -1.4217 C   0  0  0  0  0  0  0  0  0  0  0  0
    9.9682  -19.6094   -2.2523 C   0  0  0  0  0  0  0  0  0  0  0  0
   11.2209  -19.2573   -2.6871 C   0  0  0  0  0  0  0  0  0  0  0  0
   12.2950  -20.0022   -2.2743 C   0  0  0  0  0  0  0  0  0  0  0  0
   12.1094  -21.0961   -1.4282 C   0  0  0  0  0  0  0  0  0  0  0  0
   14.8161  -23.7594    0.7190 C   0  0  0  0  0  0  0  0  0  0  0  0
   15.1889  -22.8623    1.7413 O   0  0  0  0  0  0  0  0  0  0  0  0
   14.3096  -24.8252    1.1267 O   0  0  0  0  0  0  0  0  0  0  0  0
  2  1  1  6
  3  2  1  0
  4  2  1  0
  4  5  1  1
  6  7  2  0
  6  4  1  0
  8  6  1  0
  9  8  1  0
  9 10  1  6
 11 10  1  0
 12 11  1  0
 13 12  1  0
 14 13  1  0
 15  9  1  0
 15 17  1  0
 16 15  2  0
 18 17  1  0
 18 29  1  0
 19 20  1  0
 18 19  1  6
 20 28  1  0
 21 20  2  0
 21 22  1  0
 22 23  1  0
 23 24  1  0
 24 25  2  0
 26 25  1  0
 27 26  2  0
 28 23  2  0
 28 27  1  0
 29 31  2  0
 29 30  1  0
M  END
$$$$
