TKW.pdb
     RDKit          3D

 31 32  0  0  1  0  0  0  0  0999 V2000
   28.9345  -18.8655  -19.5040 C   0  0  0  0  0  0  0  0  0  0  0  0
   27.5511  -18.7928  -18.9441 C   0  0  1  0  0  0  0  0  0  0  0  0
   27.3626  -19.7717  -17.9685 O   0  0  0  0  0  0  0  0  0  0  0  0
   27.1179  -17.4390  -18.4927 C   0  0  2  0  0  0  0  0  0  0  0  0
   28.0984  -16.8197  -17.6665 N   0  0  0  0  0  0  0  0  0  0  0  0
   25.7460  -17.4118  -17.9154 C   0  0  0  0  0  0  0  0  0  0  0  0
   25.5596  -17.1665  -16.6967 O   0  0  0  0  0  0  0  0  0  0  0  0
   24.5854  -17.6602  -18.7060 N   0  0  0  0  0  0  0  0  0  0  0  0
   23.2404  -17.5597  -18.2186 C   0  0  1  0  0  0  0  0  0  0  0  0
   22.2954  -17.0145  -19.2194 C   0  0  0  0  0  0  0  0  0  0  0  0
   21.2398  -16.1887  -18.5380 C   0  0  0  0  0  0  0  0  0  0  0  0
   21.7445  -14.8735  -18.0474 C   0  0  0  0  0  0  0  0  0  0  0  0
   20.6301  -14.0084  -17.4783 C   0  0  0  0  0  0  0  0  0  0  0  0
   21.2787  -12.7973  -16.9987 N   0  0  0  0  0  0  0  0  0  0  0  0
   22.8470  -18.9071  -17.7077 C   0  0  0  0  0  0  0  0  0  0  0  0
   23.6460  -19.8732  -17.7568 O   0  0  0  0  0  0  0  0  0  0  0  0
   21.5625  -19.1571  -17.1470 N   0  0  0  0  0  0  0  0  0  0  0  0
   21.3404  -19.7449  -15.8375 C   0  0  1  0  0  0  0  0  0  0  0  0
   22.1762  -19.1437  -14.7860 C   0  0  0  0  0  0  0  0  0  0  0  0
   21.9136  -19.6811  -13.4451 C   0  0  0  0  0  0  0  0  0  0  0  0
   22.5210  -20.7826  -12.8258 C   0  0  0  0  0  0  0  0  0  0  0  0
   21.9801  -20.9844  -11.6158 N   0  0  0  0  0  0  0  0  0  0  0  0
   21.0405  -20.0719  -11.3924 C   0  0  0  0  0  0  0  0  0  0  0  0
   20.2103  -19.8430  -10.2904 C   0  0  0  0  0  0  0  0  0  0  0  0
   19.3445  -18.7844  -10.3605 C   0  0  0  0  0  0  0  0  0  0  0  0
   19.2546  -17.9499  -11.4457 C   0  0  0  0  0  0  0  0  0  0  0  0
   20.0703  -18.1800  -12.5231 C   0  0  0  0  0  0  0  0  0  0  0  0
   20.9720  -19.2448  -12.5084 C   0  0  0  0  0  0  0  0  0  0  0  0
   19.9498  -19.9613  -15.4779 C   0  0  0  0  0  0  0  0  0  0  0  0
   19.0749  -18.8575  -15.5473 O   0  0  0  0  0  0  0  0  0  0  0  0
   19.4112  -21.0247  -15.1067 O   0  0  0  0  0  0  0  0  0  0  0  0
  2  1  1  1
  3  2  1  0
  4  2  1  0
  4  5  1  1
  6  7  2  0
  6  4  1  0
  8  6  1  0
  9  8  1  0
  9 10  1  6
 11 10  1  0
 12 11  1  0
 13 12  1  0
 14 13  1  0
 15  9  1  0
 15 17  1  0
 16 15  2  0
 18 17  1  0
 18 29  1  0
 19 20  1  0
 18 19  1  1
 20 28  1  0
 21 20  2  0
 21 22  1  0
 22 23  1  0
 23 24  1  0
 24 25  2  0
 26 25  1  0
 27 26  2  0
 28 23  2  0
 28 27  1  0
 29 31  2  0
 29 30  1  0
M  END
$$$$
