TKW.pdb
     RDKit          3D

 31 32  0  0  1  0  0  0  0  0999 V2000
   26.2296  -15.9615  -15.9045 C   0  0  0  0  0  0  0  0  0  0  0  0
   26.1746  -15.7129  -17.3768 C   0  0  1  0  0  0  0  0  0  0  0  0
   26.4834  -14.3833  -17.6636 O   0  0  0  0  0  0  0  0  0  0  0  0
   26.9458  -16.6767  -18.2138 C   0  0  2  0  0  0  0  0  0  0  0  0
   26.9698  -16.2849  -19.5827 N   0  0  0  0  0  0  0  0  0  0  0  0
   26.5530  -18.0973  -18.0054 C   0  0  0  0  0  0  0  0  0  0  0  0
   25.5105  -18.5658  -18.5288 O   0  0  0  0  0  0  0  0  0  0  0  0
   27.3300  -18.9902  -17.2100 N   0  0  0  0  0  0  0  0  0  0  0  0
   26.9622  -20.3472  -16.9272 C   0  0  1  0  0  0  0  0  0  0  0  0
   28.1271  -21.2444  -16.7541 C   0  0  0  0  0  0  0  0  0  0  0  0
   27.6745  -22.6776  -16.7134 C   0  0  0  0  0  0  0  0  0  0  0  0
   28.8031  -23.6523  -16.6792 C   0  0  0  0  0  0  0  0  0  0  0  0
   28.3153  -25.0932  -16.6614 C   0  0  0  0  0  0  0  0  0  0  0  0
   29.5135  -25.9148  -16.7457 N   0  0  0  0  0  0  0  0  0  0  0  0
   26.0512  -20.3274  -15.7437 C   0  0  0  0  0  0  0  0  0  0  0  0
   26.4475  -19.8998  -14.6327 O   0  0  0  0  0  0  0  0  0  0  0  0
   24.7056  -20.7864  -15.8181 N   0  0  0  0  0  0  0  0  0  0  0  0
   23.7559  -20.7217  -14.7211 C   0  0  1  0  0  0  0  0  0  0  0  0
   23.7546  -19.4197  -14.0352 C   0  0  0  0  0  0  0  0  0  0  0  0
   23.1454  -18.3398  -14.8217 C   0  0  0  0  0  0  0  0  0  0  0  0
   21.9631  -18.3851  -15.5739 C   0  0  0  0  0  0  0  0  0  0  0  0
   21.7624  -17.2085  -16.1843 N   0  0  0  0  0  0  0  0  0  0  0  0
   22.7513  -16.3756  -15.8778 C   0  0  0  0  0  0  0  0  0  0  0  0
   22.9924  -15.0460  -16.2385 C   0  0  0  0  0  0  0  0  0  0  0  0
   24.1119  -14.4456  -15.7273 C   0  0  0  0  0  0  0  0  0  0  0  0
   24.9955  -15.0783  -14.8901 C   0  0  0  0  0  0  0  0  0  0  0  0
   24.7543  -16.3818  -14.5410 C   0  0  0  0  0  0  0  0  0  0  0  0
   23.6293  -17.0452  -15.0322 C   0  0  0  0  0  0  0  0  0  0  0  0
   22.4436  -21.2797  -14.9975 C   0  0  0  0  0  0  0  0  0  0  0  0
   21.5323  -21.3750  -13.9255 O   0  0  0  0  0  0  0  0  0  0  0  0
   22.0027  -21.6963  -16.0887 O   0  0  0  0  0  0  0  0  0  0  0  0
  2  1  1  1
  3  2  1  0
  4  2  1  0
  4  5  1  6
  6  7  2  0
  6  4  1  0
  8  6  1  0
  9  8  1  0
  9 10  1  1
 11 10  1  0
 12 11  1  0
 13 12  1  0
 14 13  1  0
 15  9  1  0
 15 17  1  0
 16 15  2  0
 18 17  1  0
 18 29  1  0
 19 20  1  0
 18 19  1  6
 20 28  1  0
 21 20  2  0
 21 22  1  0
 22 23  1  0
 23 24  1  0
 24 25  2  0
 26 25  1  0
 27 26  2  0
 28 23  2  0
 28 27  1  0
 29 31  2  0
 29 30  1  0
M  END
$$$$
