TKW.pdb
     RDKit          3D

 31 32  0  0  1  0  0  0  0  0999 V2000
   27.0356  -15.6761  -15.0043 C   0  0  0  0  0  0  0  0  0  0  0  0
   25.9184  -15.3887  -15.9539 C   0  0  1  0  0  0  0  0  0  0  0  0
   25.7086  -14.0144  -16.0662 O   0  0  0  0  0  0  0  0  0  0  0  0
   26.0196  -16.0659  -17.2788 C   0  0  2  0  0  0  0  0  0  0  0  0
   25.0353  -15.5898  -18.1911 N   0  0  0  0  0  0  0  0  0  0  0  0
   26.0826  -17.5505  -17.1883 C   0  0  0  0  0  0  0  0  0  0  0  0
   25.0665  -18.2258  -16.8855 O   0  0  0  0  0  0  0  0  0  0  0  0
   27.2853  -18.2751  -17.4373 N   0  0  0  0  0  0  0  0  0  0  0  0
   27.4234  -19.6924  -17.2671 C   0  0  1  0  0  0  0  0  0  0  0  0
   28.6134  -20.2496  -17.9493 C   0  0  0  0  0  0  0  0  0  0  0  0
   28.6070  -21.7503  -17.8571 C   0  0  0  0  0  0  0  0  0  0  0  0
   29.6924  -22.3953  -18.6514 C   0  0  0  0  0  0  0  0  0  0  0  0
   29.5673  -23.9113  -18.6673 C   0  0  0  0  0  0  0  0  0  0  0  0
   30.7463  -24.3956  -19.3694 N   0  0  0  0  0  0  0  0  0  0  0  0
   27.3988  -19.9721  -15.8000 C   0  0  0  0  0  0  0  0  0  0  0  0
   28.2734  -19.4937  -15.0382 O   0  0  0  0  0  0  0  0  0  0  0  0
   26.3941  -20.7846  -15.2025 N   0  0  0  0  0  0  0  0  0  0  0  0
   26.4577  -21.3022  -13.8469 C   0  0  1  0  0  0  0  0  0  0  0  0
   26.5733  -20.2444  -12.8304 C   0  0  0  0  0  0  0  0  0  0  0  0
   25.6903  -20.4396  -11.6736 C   0  0  0  0  0  0  0  0  0  0  0  0
   26.0528  -20.7791  -10.3625 C   0  0  0  0  0  0  0  0  0  0  0  0
   24.9562  -20.9078   -9.6021 N   0  0  0  0  0  0  0  0  0  0  0  0
   23.8758  -20.6703  -10.3383 C   0  0  0  0  0  0  0  0  0  0  0  0
   22.5151  -20.6585  -10.0154 C   0  0  0  0  0  0  0  0  0  0  0  0
   21.6313  -20.3469  -11.0139 C   0  0  0  0  0  0  0  0  0  0  0  0
   22.0129  -20.0501  -12.2978 C   0  0  0  0  0  0  0  0  0  0  0  0
   23.3480  -20.0643  -12.6083 C   0  0  0  0  0  0  0  0  0  0  0  0
   24.2944  -20.3756  -11.6314 C   0  0  0  0  0  0  0  0  0  0  0  0
   25.5123  -22.3606  -13.5375 C   0  0  0  0  0  0  0  0  0  0  0  0
   25.8347  -23.2408  -12.4839 O   0  0  0  0  0  0  0  0  0  0  0  0
   24.4213  -22.6003  -14.0952 O   0  0  0  0  0  0  0  0  0  0  0  0
  2  1  1  6
  3  2  1  0
  4  2  1  0
  4  5  1  6
  6  7  2  0
  6  4  1  0
  8  6  1  0
  9  8  1  0
  9 10  1  1
 11 10  1  0
 12 11  1  0
 13 12  1  0
 14 13  1  0
 15  9  1  0
 15 17  1  0
 16 15  2  0
 18 17  1  0
 18 29  1  0
 19 20  1  0
 18 19  1  1
 20 28  1  0
 21 20  2  0
 21 22  1  0
 22 23  1  0
 23 24  1  0
 24 25  2  0
 26 25  1  0
 27 26  2  0
 28 23  2  0
 28 27  1  0
 29 31  2  0
 29 30  1  0
M  END
$$$$
