TKW.pdb
     RDKit          3D

 31 32  0  0  1  0  0  0  0  0999 V2000
   28.4485  -17.7459  -14.8692 C   0  0  0  0  0  0  0  0  0  0  0  0
   27.4433  -18.8375  -15.0437 C   0  0  1  0  0  0  0  0  0  0  0  0
   26.1520  -18.3134  -15.1009 O   0  0  0  0  0  0  0  0  0  0  0  0
   27.7270  -19.7921  -16.1539 C   0  0  2  0  0  0  0  0  0  0  0  0
   27.9295  -19.1168  -17.3912 N   0  0  0  0  0  0  0  0  0  0  0  0
   26.7554  -20.9167  -16.2385 C   0  0  0  0  0  0  0  0  0  0  0  0
   26.0479  -21.0872  -17.2635 O   0  0  0  0  0  0  0  0  0  0  0  0
   26.5787  -21.8481  -15.1732 N   0  0  0  0  0  0  0  0  0  0  0  0
   25.6312  -22.9245  -15.1913 C   0  0  1  0  0  0  0  0  0  0  0  0
   26.2651  -24.2617  -15.1473 C   0  0  0  0  0  0  0  0  0  0  0  0
   27.2448  -24.4071  -16.2784 C   0  0  0  0  0  0  0  0  0  0  0  0
   27.9457  -25.7238  -16.2869 C   0  0  0  0  0  0  0  0  0  0  0  0
   28.9042  -25.8551  -17.4609 C   0  0  0  0  0  0  0  0  0  0  0  0
   29.5466  -27.1509  -17.3007 N   0  0  0  0  0  0  0  0  0  0  0  0
   24.6666  -22.6913  -14.0749 C   0  0  0  0  0  0  0  0  0  0  0  0
   23.5239  -23.2091  -14.0920 O   0  0  0  0  0  0  0  0  0  0  0  0
   24.9932  -21.8807  -12.9511 N   0  0  0  0  0  0  0  0  0  0  0  0
   24.0258  -21.3926  -11.9839 C   0  0  1  0  0  0  0  0  0  0  0  0
   24.5351  -21.4024  -10.6033 C   0  0  0  0  0  0  0  0  0  0  0  0
   25.9866  -21.2023  -10.5090 C   0  0  0  0  0  0  0  0  0  0  0  0
   26.9441  -21.3598  -11.5209 C   0  0  0  0  0  0  0  0  0  0  0  0
   28.1705  -21.1262  -11.0324 N   0  0  0  0  0  0  0  0  0  0  0  0
   28.0829  -20.8188   -9.7427 C   0  0  0  0  0  0  0  0  0  0  0  0
   29.0581  -20.4781   -8.7999 C   0  0  0  0  0  0  0  0  0  0  0  0
   28.6354  -20.1866   -7.5305 C   0  0  0  0  0  0  0  0  0  0  0  0
   27.3188  -20.2129   -7.1458 C   0  0  0  0  0  0  0  0  0  0  0  0
   26.3677  -20.5485   -8.0741 C   0  0  0  0  0  0  0  0  0  0  0  0
   26.7398  -20.8561   -9.3833 C   0  0  0  0  0  0  0  0  0  0  0  0
   23.3058  -20.1923  -12.3721 C   0  0  0  0  0  0  0  0  0  0  0  0
   22.2136  -19.7953  -11.5731 O   0  0  0  0  0  0  0  0  0  0  0  0
   23.5327  -19.4439  -13.3453 O   0  0  0  0  0  0  0  0  0  0  0  0
  2  1  1  6
  3  2  1  0
  4  2  1  0
  4  5  1  6
  6  7  2  0
  6  4  1  0
  8  6  1  0
  9  8  1  0
  9 10  1  1
 11 10  1  0
 12 11  1  0
 13 12  1  0
 14 13  1  0
 15  9  1  0
 15 17  1  0
 16 15  2  0
 18 17  1  0
 18 29  1  0
 19 20  1  0
 18 19  1  1
 20 28  1  0
 21 20  2  0
 21 22  1  0
 22 23  1  0
 23 24  1  0
 24 25  2  0
 26 25  1  0
 27 26  2  0
 28 23  2  0
 28 27  1  0
 29 31  2  0
 29 30  1  0
M  END
$$$$
