TKW.pdb
     RDKit          3D

 31 32  0  0  1  0  0  0  0  0999 V2000
   24.9968  -14.8715  -13.8703 C   0  0  0  0  0  0  0  0  0  0  0  0
   25.3129  -16.3241  -13.7206 C   0  0  1  0  0  0  0  0  0  0  0  0
   24.2791  -16.9875  -13.0598 O   0  0  0  0  0  0  0  0  0  0  0  0
   25.7331  -17.0160  -14.9732 C   0  0  2  0  0  0  0  0  0  0  0  0
   24.7988  -16.8109  -16.0280 N   0  0  0  0  0  0  0  0  0  0  0  0
   26.1039  -18.4437  -14.7721 C   0  0  0  0  0  0  0  0  0  0  0  0
   25.3069  -19.3691  -15.0696 O   0  0  0  0  0  0  0  0  0  0  0  0
   27.3680  -18.8308  -14.2374 N   0  0  0  0  0  0  0  0  0  0  0  0
   27.8063  -20.1900  -14.1059 C   0  0  1  0  0  0  0  0  0  0  0  0
   29.2221  -20.3872  -14.4913 C   0  0  0  0  0  0  0  0  0  0  0  0
   29.5832  -21.8442  -14.4060 C   0  0  0  0  0  0  0  0  0  0  0  0
   29.2518  -22.6080  -15.6437 C   0  0  0  0  0  0  0  0  0  0  0  0
   29.6811  -24.0644  -15.5504 C   0  0  0  0  0  0  0  0  0  0  0  0
   29.3420  -24.6572  -16.8354 N   0  0  0  0  0  0  0  0  0  0  0  0
   27.5092  -20.6234  -12.7076 C   0  0  0  0  0  0  0  0  0  0  0  0
   28.4289  -20.9932  -11.9385 O   0  0  0  0  0  0  0  0  0  0  0  0
   26.1845  -20.6373  -12.1863 N   0  0  0  0  0  0  0  0  0  0  0  0
   25.8573  -20.8370  -10.7854 C   0  0  1  0  0  0  0  0  0  0  0  0
   26.7504  -20.1038   -9.8741 C   0  0  0  0  0  0  0  0  0  0  0  0
   26.4390  -20.3069   -8.4537 C   0  0  0  0  0  0  0  0  0  0  0  0
   25.2998  -20.9083   -7.9003 C   0  0  0  0  0  0  0  0  0  0  0  0
   25.3637  -20.8671   -6.5618 N   0  0  0  0  0  0  0  0  0  0  0  0
   26.4901  -20.2685   -6.1899 C   0  0  0  0  0  0  0  0  0  0  0  0
   27.0262  -19.9987   -4.9267 C   0  0  0  0  0  0  0  0  0  0  0  0
   28.2445  -19.3753   -4.8771 C   0  0  0  0  0  0  0  0  0  0  0  0
   28.9534  -19.0082   -5.9928 C   0  0  0  0  0  0  0  0  0  0  0  0
   28.4222  -19.2745   -7.2281 C   0  0  0  0  0  0  0  0  0  0  0  0
   27.1836  -19.9071   -7.3401 C   0  0  0  0  0  0  0  0  0  0  0  0
   24.4437  -20.7686  -10.4584 C   0  0  0  0  0  0  0  0  0  0  0  0
   24.0179  -21.3743   -9.2581 O   0  0  0  0  0  0  0  0  0  0  0  0
   23.5305  -20.2284  -11.1164 O   0  0  0  0  0  0  0  0  0  0  0  0
  2  1  1  6
  3  2  1  0
  4  2  1  0
  4  5  1  6
  6  7  2  0
  6  4  1  0
  8  6  1  0
  9  8  1  0
  9 10  1  1
 11 10  1  0
 12 11  1  0
 13 12  1  0
 14 13  1  0
 15  9  1  0
 15 17  1  0
 16 15  2  0
 18 17  1  0
 18 29  1  0
 19 20  1  0
 18 19  1  1
 20 28  1  0
 21 20  2  0
 21 22  1  0
 22 23  1  0
 23 24  1  0
 24 25  2  0
 26 25  1  0
 27 26  2  0
 28 23  2  0
 28 27  1  0
 29 31  2  0
 29 30  1  0
M  END
$$$$
