TKW.pdb
     RDKit          3D

 31 32  0  0  1  0  0  0  0  0999 V2000
   31.8129  -36.7237  -19.8040 C   0  0  0  0  0  0  0  0  0  0  0  0
   32.4860  -37.5672  -18.7706 C   0  0  1  0  0  0  0  0  0  0  0  0
   32.3796  -38.9199  -19.0934 O   0  0  0  0  0  0  0  0  0  0  0  0
   33.8812  -37.1642  -18.4309 C   0  0  2  0  0  0  0  0  0  0  0  0
   34.4366  -37.9924  -17.4143 N   0  0  0  0  0  0  0  0  0  0  0  0
   34.0351  -35.7075  -18.1657 C   0  0  0  0  0  0  0  0  0  0  0  0
   33.5727  -35.1860  -17.1196 O   0  0  0  0  0  0  0  0  0  0  0  0
   34.7072  -34.8381  -19.0745 N   0  0  0  0  0  0  0  0  0  0  0  0
   34.7101  -33.4077  -18.9701 C   0  0  1  0  0  0  0  0  0  0  0  0
   35.6021  -32.7519  -19.9531 C   0  0  0  0  0  0  0  0  0  0  0  0
   35.5273  -31.2578  -19.8031 C   0  0  0  0  0  0  0  0  0  0  0  0
   36.8066  -30.6462  -19.3399 C   0  0  0  0  0  0  0  0  0  0  0  0
   36.7073  -29.1330  -19.2190 C   0  0  0  0  0  0  0  0  0  0  0  0
   38.0641  -28.6688  -18.9713 N   0  0  0  0  0  0  0  0  0  0  0  0
   33.2916  -32.9488  -19.0618 C   0  0  0  0  0  0  0  0  0  0  0  0
   32.5897  -33.2219  -20.0652 O   0  0  0  0  0  0  0  0  0  0  0  0
   32.6749  -32.1891  -18.0277 N   0  0  0  0  0  0  0  0  0  0  0  0
   31.3019  -31.7171  -18.0652 C   0  0  1  0  0  0  0  0  0  0  0  0
   30.7795  -31.3562  -16.7376 C   0  0  0  0  0  0  0  0  0  0  0  0
   29.3548  -31.0010  -16.7414 C   0  0  0  0  0  0  0  0  0  0  0  0
   28.7073  -30.0511  -17.5440 C   0  0  0  0  0  0  0  0  0  0  0  0
   27.4079  -29.9866  -17.2207 N   0  0  0  0  0  0  0  0  0  0  0  0
   27.1514  -30.8472  -16.2413 C   0  0  0  0  0  0  0  0  0  0  0  0
   25.9653  -31.1697  -15.5740 C   0  0  0  0  0  0  0  0  0  0  0  0
   26.0272  -32.1374  -14.6071 C   0  0  0  0  0  0  0  0  0  0  0  0
   27.1818  -32.7958  -14.2672 C   0  0  0  0  0  0  0  0  0  0  0  0
   28.3412  -32.4746  -14.9241 C   0  0  0  0  0  0  0  0  0  0  0  0
   28.3387  -31.4955  -15.9184 C   0  0  0  0  0  0  0  0  0  0  0  0
   30.9927  -30.7794  -19.1305 C   0  0  0  0  0  0  0  0  0  0  0  0
   31.8193  -29.6448  -19.2660 O   0  0  0  0  0  0  0  0  0  0  0  0
   30.0676  -30.8471  -19.9661 O   0  0  0  0  0  0  0  0  0  0  0  0
  2  1  1  6
  3  2  1  0
  4  2  1  0
  4  5  1  1
  6  7  2  0
  6  4  1  0
  8  6  1  0
  9  8  1  0
  9 10  1  6
 11 10  1  0
 12 11  1  0
 13 12  1  0
 14 13  1  0
 15  9  1  0
 15 17  1  0
 16 15  2  0
 18 17  1  0
 18 29  1  0
 19 20  1  0
 18 19  1  1
 20 28  1  0
 21 20  2  0
 21 22  1  0
 22 23  1  0
 23 24  1  0
 24 25  2  0
 26 25  1  0
 27 26  2  0
 28 23  2  0
 28 27  1  0
 29 31  2  0
 29 30  1  0
M  END
$$$$
