TKW.pdb
     RDKit          3D

 31 32  0  0  1  0  0  0  0  0999 V2000
   22.3108  -22.9830  -16.5794 C   0  0  0  0  0  0  0  0  0  0  0  0
   22.2482  -21.4939  -16.6845 C   0  0  1  0  0  0  0  0  0  0  0  0
   21.1126  -21.0973  -17.3906 O   0  0  0  0  0  0  0  0  0  0  0  0
   22.4125  -20.7579  -15.3978 C   0  0  2  0  0  0  0  0  0  0  0  0
   22.2317  -19.3555  -15.5655 N   0  0  0  0  0  0  0  0  0  0  0  0
   23.6537  -21.1165  -14.6582 C   0  0  0  0  0  0  0  0  0  0  0  0
   23.8767  -22.3008  -14.3006 O   0  0  0  0  0  0  0  0  0  0  0  0
   24.6425  -20.1460  -14.3206 N   0  0  0  0  0  0  0  0  0  0  0  0
   25.8291  -20.4313  -13.5673 C   0  0  1  0  0  0  0  0  0  0  0  0
   26.9914  -19.6096  -13.9745 C   0  0  0  0  0  0  0  0  0  0  0  0
   28.2360  -20.4526  -14.0035 C   0  0  0  0  0  0  0  0  0  0  0  0
   28.2556  -21.4381  -15.1230 C   0  0  0  0  0  0  0  0  0  0  0  0
   29.5462  -22.2428  -15.1553 C   0  0  0  0  0  0  0  0  0  0  0  0
   29.3857  -23.1997  -16.2399 N   0  0  0  0  0  0  0  0  0  0  0  0
   25.4856  -20.2921  -12.1203 C   0  0  0  0  0  0  0  0  0  0  0  0
   24.6238  -19.4636  -11.7395 O   0  0  0  0  0  0  0  0  0  0  0  0
   26.1112  -21.0834  -11.1157 N   0  0  0  0  0  0  0  0  0  0  0  0
   25.9187  -20.8976   -9.6882 C   0  0  1  0  0  0  0  0  0  0  0  0
   26.7051  -21.8369   -8.8729 C   0  0  0  0  0  0  0  0  0  0  0  0
   26.7713  -21.4719   -7.4522 C   0  0  0  0  0  0  0  0  0  0  0  0
   25.7489  -21.5486   -6.4959 C   0  0  0  0  0  0  0  0  0  0  0  0
   26.1871  -21.0831   -5.3176 N   0  0  0  0  0  0  0  0  0  0  0  0
   27.4535  -20.6987   -5.4359 C   0  0  0  0  0  0  0  0  0  0  0  0
   28.3549  -20.1691   -4.5070 C   0  0  0  0  0  0  0  0  0  0  0  0
   29.6229  -19.8923   -4.9438 C   0  0  0  0  0  0  0  0  0  0  0  0
   30.0442  -20.1070   -6.2316 C   0  0  0  0  0  0  0  0  0  0  0  0
   29.1557  -20.6254   -7.1377 C   0  0  0  0  0  0  0  0  0  0  0  0
   27.8496  -20.9262   -6.7496 C   0  0  0  0  0  0  0  0  0  0  0  0
   25.9288  -19.5189   -9.2309 C   0  0  0  0  0  0  0  0  0  0  0  0
   24.8199  -19.0666   -8.4863 O   0  0  0  0  0  0  0  0  0  0  0  0
   26.8142  -18.6578   -9.4135 O   0  0  0  0  0  0  0  0  0  0  0  0
  2  1  1  1
  3  2  1  0
  4  2  1  0
  4  5  1  6
  6  7  2  0
  6  4  1  0
  8  6  1  0
  9  8  1  0
  9 10  1  6
 11 10  1  0
 12 11  1  0
 13 12  1  0
 14 13  1  0
 15  9  1  0
 15 17  1  0
 16 15  2  0
 18 17  1  0
 18 29  1  0
 19 20  1  0
 18 19  1  1
 20 28  1  0
 21 20  2  0
 21 22  1  0
 22 23  1  0
 23 24  1  0
 24 25  2  0
 26 25  1  0
 27 26  2  0
 28 23  2  0
 28 27  1  0
 29 31  2  0
 29 30  1  0
M  END
$$$$
