TKW.pdb
     RDKit          3D

 31 32  0  0  1  0  0  0  0  0999 V2000
   27.6807  -21.3598  -16.3623 C   0  0  0  0  0  0  0  0  0  0  0  0
   27.0608  -22.7160  -16.2679 C   0  0  1  0  0  0  0  0  0  0  0  0
   26.0402  -22.7259  -15.3172 O   0  0  0  0  0  0  0  0  0  0  0  0
   26.6430  -23.3163  -17.5676 C   0  0  2  0  0  0  0  0  0  0  0  0
   25.7889  -22.4442  -18.3010 N   0  0  0  0  0  0  0  0  0  0  0  0
   26.1172  -24.7035  -17.4441 C   0  0  0  0  0  0  0  0  0  0  0  0
   24.9016  -24.9566  -17.6400 O   0  0  0  0  0  0  0  0  0  0  0  0
   26.9559  -25.8046  -17.1006 N   0  0  0  0  0  0  0  0  0  0  0  0
   26.4933  -27.1529  -16.9431 C   0  0  1  0  0  0  0  0  0  0  0  0
   27.5924  -28.1375  -16.8231 C   0  0  0  0  0  0  0  0  0  0  0  0
   27.0316  -29.5287  -16.7207 C   0  0  0  0  0  0  0  0  0  0  0  0
   28.0807  -30.5788  -16.5731 C   0  0  0  0  0  0  0  0  0  0  0  0
   27.5023  -31.9830  -16.6622 C   0  0  0  0  0  0  0  0  0  0  0  0
   28.6461  -32.8820  -16.6281 N   0  0  0  0  0  0  0  0  0  0  0  0
   25.5542  -27.1718  -15.7817 C   0  0  0  0  0  0  0  0  0  0  0  0
   25.9438  -26.8512  -14.6329 O   0  0  0  0  0  0  0  0  0  0  0  0
   24.1885  -27.5492  -15.9202 N   0  0  0  0  0  0  0  0  0  0  0  0
   23.2278  -27.5634  -14.8311 C   0  0  1  0  0  0  0  0  0  0  0  0
   23.3070  -26.3682  -13.9763 C   0  0  0  0  0  0  0  0  0  0  0  0
   22.1419  -26.1917  -13.1004 C   0  0  0  0  0  0  0  0  0  0  0  0
   21.8105  -26.9241  -11.9518 C   0  0  0  0  0  0  0  0  0  0  0  0
   20.6455  -26.4893  -11.4507 N   0  0  0  0  0  0  0  0  0  0  0  0
   20.1794  -25.5005  -12.2061 C   0  0  0  0  0  0  0  0  0  0  0  0
   19.0291  -24.7122  -12.0996 C   0  0  0  0  0  0  0  0  0  0  0  0
   18.8407  -23.7384  -13.0438 C   0  0  0  0  0  0  0  0  0  0  0  0
   19.7150  -23.5035  -14.0746 C   0  0  0  0  0  0  0  0  0  0  0  0
   20.8402  -24.2802  -14.1741 C   0  0  0  0  0  0  0  0  0  0  0  0
   21.0842  -25.2884  -13.2409 C   0  0  0  0  0  0  0  0  0  0  0  0
   21.8841  -27.9832  -15.1891 C   0  0  0  0  0  0  0  0  0  0  0  0
   21.1041  -28.6061  -14.1929 O   0  0  0  0  0  0  0  0  0  0  0  0
   21.3117  -27.8612  -16.2920 O   0  0  0  0  0  0  0  0  0  0  0  0
  2  1  1  6
  3  2  1  0
  4  2  1  0
  4  5  1  1
  6  7  2  0
  6  4  1  0
  8  6  1  0
  9  8  1  0
  9 10  1  1
 11 10  1  0
 12 11  1  0
 13 12  1  0
 14 13  1  0
 15  9  1  0
 15 17  1  0
 16 15  2  0
 18 17  1  0
 18 29  1  0
 19 20  1  0
 18 19  1  6
 20 28  1  0
 21 20  2  0
 21 22  1  0
 22 23  1  0
 23 24  1  0
 24 25  2  0
 26 25  1  0
 27 26  2  0
 28 23  2  0
 28 27  1  0
 29 31  2  0
 29 30  1  0
M  END
$$$$
