TKW.pdb
     RDKit          3D

 31 32  0  0  1  0  0  0  0  0999 V2000
   23.5235  -25.7926  -18.8131 C   0  0  0  0  0  0  0  0  0  0  0  0
   24.1518  -25.0320  -17.6910 C   0  0  1  0  0  0  0  0  0  0  0  0
   23.4787  -25.2748  -16.4937 O   0  0  0  0  0  0  0  0  0  0  0  0
   25.6292  -25.1911  -17.5635 C   0  0  2  0  0  0  0  0  0  0  0  0
   25.9963  -26.5490  -17.3418 N   0  0  0  0  0  0  0  0  0  0  0  0
   26.2525  -24.2390  -16.6038 C   0  0  0  0  0  0  0  0  0  0  0  0
   26.7046  -24.6337  -15.4993 O   0  0  0  0  0  0  0  0  0  0  0  0
   26.3676  -22.8456  -16.8846 N   0  0  0  0  0  0  0  0  0  0  0  0
   27.0191  -21.9003  -16.0250 C   0  0  1  0  0  0  0  0  0  0  0  0
   27.4286  -20.6608  -16.7236 C   0  0  0  0  0  0  0  0  0  0  0  0
   28.9249  -20.6166  -16.8641 C   0  0  0  0  0  0  0  0  0  0  0  0
   29.4582  -21.6295  -17.8204 C   0  0  0  0  0  0  0  0  0  0  0  0
   30.9699  -21.5403  -17.9655 C   0  0  0  0  0  0  0  0  0  0  0  0
   31.3558  -22.6882  -18.7724 N   0  0  0  0  0  0  0  0  0  0  0  0
   26.1130  -21.6518  -14.8638 C   0  0  0  0  0  0  0  0  0  0  0  0
   24.9408  -21.2399  -15.0379 O   0  0  0  0  0  0  0  0  0  0  0  0
   26.5303  -21.8680  -13.5200 N   0  0  0  0  0  0  0  0  0  0  0  0
   25.7125  -21.5881  -12.3528 C   0  0  1  0  0  0  0  0  0  0  0  0
   26.2873  -22.1163  -11.1054 C   0  0  0  0  0  0  0  0  0  0  0  0
   26.2636  -21.1579   -9.9933 C   0  0  0  0  0  0  0  0  0  0  0  0
   25.1838  -20.3813   -9.5500 C   0  0  0  0  0  0  0  0  0  0  0  0
   25.5697  -19.5964   -8.5341 N   0  0  0  0  0  0  0  0  0  0  0  0
   26.8552  -19.8088   -8.2732 C   0  0  0  0  0  0  0  0  0  0  0  0
   27.7111  -19.2629   -7.3113 C   0  0  0  0  0  0  0  0  0  0  0  0
   29.0029  -19.7165   -7.2845 C   0  0  0  0  0  0  0  0  0  0  0  0
   29.4897  -20.6679   -8.1447 C   0  0  0  0  0  0  0  0  0  0  0  0
   28.6461  -21.1985   -9.0859 C   0  0  0  0  0  0  0  0  0  0  0  0
   27.3191  -20.7738   -9.1610 C   0  0  0  0  0  0  0  0  0  0  0  0
   25.1835  -20.2378  -12.2703 C   0  0  0  0  0  0  0  0  0  0  0  0
   23.8433  -20.0823  -11.8599 O   0  0  0  0  0  0  0  0  0  0  0  0
   25.7747  -19.1669  -12.5200 O   0  0  0  0  0  0  0  0  0  0  0  0
  2  1  1  6
  3  2  1  0
  4  2  1  0
  4  5  1  1
  6  7  2  0
  6  4  1  0
  8  6  1  0
  9  8  1  0
  9 10  1  6
 11 10  1  0
 12 11  1  0
 13 12  1  0
 14 13  1  0
 15  9  1  0
 15 17  1  0
 16 15  2  0
 18 17  1  0
 18 29  1  0
 19 20  1  0
 18 19  1  1
 20 28  1  0
 21 20  2  0
 21 22  1  0
 22 23  1  0
 23 24  1  0
 24 25  2  0
 26 25  1  0
 27 26  2  0
 28 23  2  0
 28 27  1  0
 29 31  2  0
 29 30  1  0
M  END
$$$$
