TKW.pdb
     RDKit          3D

 31 32  0  0  1  0  0  0  0  0999 V2000
   30.2423  -24.6111  -17.9626 C   0  0  0  0  0  0  0  0  0  0  0  0
   29.3566  -23.7123  -17.1626 C   0  0  1  0  0  0  0  0  0  0  0  0
   29.8322  -23.5866  -15.8574 O   0  0  0  0  0  0  0  0  0  0  0  0
   29.0500  -22.3959  -17.7930 C   0  0  2  0  0  0  0  0  0  0  0  0
   30.2280  -21.7506  -18.2662 N   0  0  0  0  0  0  0  0  0  0  0  0
   28.1831  -21.5203  -16.9577 C   0  0  0  0  0  0  0  0  0  0  0  0
   28.6226  -20.4492  -16.4680 O   0  0  0  0  0  0  0  0  0  0  0  0
   26.8247  -21.8477  -16.6727 N   0  0  0  0  0  0  0  0  0  0  0  0
   25.9364  -21.0161  -15.9137 C   0  0  1  0  0  0  0  0  0  0  0  0
   24.6302  -20.7992  -16.5759 C   0  0  0  0  0  0  0  0  0  0  0  0
   23.7480  -19.9420  -15.7114 C   0  0  0  0  0  0  0  0  0  0  0  0
   22.4326  -19.6263  -16.3400 C   0  0  0  0  0  0  0  0  0  0  0  0
   21.6043  -18.6758  -15.4887 C   0  0  0  0  0  0  0  0  0  0  0  0
   20.4075  -18.3930  -16.2667 N   0  0  0  0  0  0  0  0  0  0  0  0
   25.8152  -21.6163  -14.5512 C   0  0  0  0  0  0  0  0  0  0  0  0
   26.4577  -22.6488  -14.2425 O   0  0  0  0  0  0  0  0  0  0  0  0
   24.9755  -21.0526  -13.5492 N   0  0  0  0  0  0  0  0  0  0  0  0
   24.9985  -21.4378  -12.1490 C   0  0  1  0  0  0  0  0  0  0  0  0
   26.3499  -21.4162  -11.5669 C   0  0  0  0  0  0  0  0  0  0  0  0
   26.4091  -20.7963  -10.2372 C   0  0  0  0  0  0  0  0  0  0  0  0
   25.3466  -20.2861   -9.4779 C   0  0  0  0  0  0  0  0  0  0  0  0
   25.8099  -19.7628   -8.3340 N   0  0  0  0  0  0  0  0  0  0  0  0
   27.1310  -19.8976   -8.2879 C   0  0  0  0  0  0  0  0  0  0  0  0
   28.0687  -19.5383   -7.3144 C   0  0  0  0  0  0  0  0  0  0  0  0
   29.3815  -19.8413   -7.5592 C   0  0  0  0  0  0  0  0  0  0  0  0
   29.8137  -20.4717   -8.6984 C   0  0  0  0  0  0  0  0  0  0  0  0
   28.8900  -20.8205   -9.6493 C   0  0  0  0  0  0  0  0  0  0  0  0
   27.5378  -20.5362   -9.4545 C   0  0  0  0  0  0  0  0  0  0  0  0
   23.9568  -20.8524  -11.3231 C   0  0  0  0  0  0  0  0  0  0  0  0
   23.3569  -19.6579  -11.7728 O   0  0  0  0  0  0  0  0  0  0  0  0
   23.5087  -21.2789  -10.2387 O   0  0  0  0  0  0  0  0  0  0  0  0
  2  1  1  6
  3  2  1  0
  4  2  1  0
  4  5  1  1
  6  7  2  0
  6  4  1  0
  8  6  1  0
  9  8  1  0
  9 10  1  6
 11 10  1  0
 12 11  1  0
 13 12  1  0
 14 13  1  0
 15  9  1  0
 15 17  1  0
 16 15  2  0
 18 17  1  0
 18 29  1  0
 19 20  1  0
 18 19  1  1
 20 28  1  0
 21 20  2  0
 21 22  1  0
 22 23  1  0
 23 24  1  0
 24 25  2  0
 26 25  1  0
 27 26  2  0
 28 23  2  0
 28 27  1  0
 29 31  2  0
 29 30  1  0
M  END
$$$$
