GKG.pdb
     RDKit          3D

 18 17  0  0  1  0  0  0  0  0999 V2000
    1.1309  -24.8115   18.4468 N   0  0  0  0  0  0  0  0  0  0  0  0
    1.0735  -23.3840   18.5792 C   0  0  0  0  0  0  0  0  0  0  0  0
    2.1287  -22.6920   17.8005 C   0  0  0  0  0  0  0  0  0  0  0  0
    3.0333  -23.4183   17.3066 O   0  0  0  0  0  0  0  0  0  0  0  0
    2.1685  -21.2998   17.5913 N   0  0  0  0  0  0  0  0  0  0  0  0
    3.2593  -20.7250   16.7967 C   0  0  1  0  0  0  0  0  0  0  0  0
    2.7401  -19.5404   16.0227 C   0  0  0  0  0  0  0  0  0  0  0  0
    2.0022  -19.9496   14.8063 C   0  0  0  0  0  0  0  0  0  0  0  0
    2.0136  -18.8494   13.7393 C   0  0  0  0  0  0  0  0  0  0  0  0
    1.1632  -19.3746   12.5963 C   0  0  0  0  0  0  0  0  0  0  0  0
    1.0892  -18.4514   11.4929 N   0  0  0  0  0  0  0  0  0  0  0  0
    4.3754  -20.3283   17.6592 C   0  0  0  0  0  0  0  0  0  0  0  0
    4.2258  -19.4754   18.5511 O   0  0  0  0  0  0  0  0  0  0  0  0
    5.6952  -20.8884   17.5349 N   0  0  0  0  0  0  0  0  0  0  0  0
    6.7545  -20.4558   18.4341 C   0  0  0  0  0  0  0  0  0  0  0  0
    8.0114  -20.1926   17.7149 C   0  0  0  0  0  0  0  0  0  0  0  0
    8.0181  -20.3445   16.4711 O   0  0  0  0  0  0  0  0  0  0  0  0
    9.1527  -19.7886   18.3981 O   0  0  0  0  0  0  0  0  0  0  0  0
  2  1  1  0
  3  2  1  0
  4  3  2  0
  5  3  1  0
  6  5  1  0
  6  7  1  1
  8  7  1  0
  9  8  1  0
 10  9  1  0
 11 10  1  0
 12  6  1  0
 12 14  1  0
 13 12  2  0
 15 14  1  0
 15 16  1  0
 16 18  1  0
 17 16  2  0
M  END
$$$$
