GKG.pdb
     RDKit          3D

 18 17  0  0  1  0  0  0  0  0999 V2000
    8.1943  -16.1080   18.3803 N   0  0  0  0  0  0  0  0  0  0  0  0
    7.2379  -16.0799   19.4495 C   0  0  0  0  0  0  0  0  0  0  0  0
    7.7906  -15.5049   20.6996 C   0  0  0  0  0  0  0  0  0  0  0  0
    9.0452  -15.3975   20.7646 O   0  0  0  0  0  0  0  0  0  0  0  0
    7.0032  -15.0840   21.7887 N   0  0  0  0  0  0  0  0  0  0  0  0
    7.6629  -14.6326   23.0186 C   0  0  1  0  0  0  0  0  0  0  0  0
    6.6488  -13.9631   23.9102 C   0  0  0  0  0  0  0  0  0  0  0  0
    7.2568  -13.4511   25.1591 C   0  0  0  0  0  0  0  0  0  0  0  0
    6.3729  -12.3921   25.8272 C   0  0  0  0  0  0  0  0  0  0  0  0
    7.0581  -12.0505   27.1384 C   0  0  0  0  0  0  0  0  0  0  0  0
    6.2765  -11.1565   27.9540 N   0  0  0  0  0  0  0  0  0  0  0  0
    8.2947  -15.7588   23.7111 C   0  0  0  0  0  0  0  0  0  0  0  0
    7.6360  -16.7596   24.0427 O   0  0  0  0  0  0  0  0  0  0  0  0
    9.6936  -15.7824   24.0480 N   0  0  0  0  0  0  0  0  0  0  0  0
   10.2901  -16.9965   24.5847 C   0  0  0  0  0  0  0  0  0  0  0  0
   10.8944  -16.7724   25.9080 C   0  0  0  0  0  0  0  0  0  0  0  0
   10.9740  -15.5931   26.3241 O   0  0  0  0  0  0  0  0  0  0  0  0
   11.3608  -17.8384   26.6687 O   0  0  0  0  0  0  0  0  0  0  0  0
  2  1  1  0
  3  2  1  0
  4  3  2  0
  5  3  1  0
  6  5  1  0
  6  7  1  1
  8  7  1  0
  9  8  1  0
 10  9  1  0
 11 10  1  0
 12  6  1  0
 12 14  1  0
 13 12  2  0
 15 14  1  0
 15 16  1  0
 16 18  1  0
 17 16  2  0
M  END
$$$$
