GKG.pdb
     RDKit          3D

 18 17  0  0  1  0  0  0  0  0999 V2000
    5.2989  -19.2464   21.8321 N   0  0  0  0  0  0  0  0  0  0  0  0
    5.4217  -18.0449   22.6065 C   0  0  0  0  0  0  0  0  0  0  0  0
    6.6005  -17.2316   22.2220 C   0  0  0  0  0  0  0  0  0  0  0  0
    7.4174  -17.7649   21.4232 O   0  0  0  0  0  0  0  0  0  0  0  0
    6.8454  -15.9273   22.6932 N   0  0  0  0  0  0  0  0  0  0  0  0
    8.0883  -15.2484   22.3111 C   0  0  1  0  0  0  0  0  0  0  0  0
    7.8252  -13.7708   22.1712 C   0  0  0  0  0  0  0  0  0  0  0  0
    7.2006  -13.4368   20.8713 C   0  0  0  0  0  0  0  0  0  0  0  0
    8.1980  -13.5619   19.7142 C   0  0  0  0  0  0  0  0  0  0  0  0
    7.4243  -13.1927   18.4610 C   0  0  0  0  0  0  0  0  0  0  0  0
    8.1927  -13.3902   17.2586 N   0  0  0  0  0  0  0  0  0  0  0  0
    9.1387  -15.4934   23.3028 C   0  0  0  0  0  0  0  0  0  0  0  0
    8.9035  -15.4115   24.5207 O   0  0  0  0  0  0  0  0  0  0  0  0
   10.4881  -15.8390   22.9413 N   0  0  0  0  0  0  0  0  0  0  0  0
   11.4463  -16.2001   23.9754 C   0  0  0  0  0  0  0  0  0  0  0  0
   12.7680  -16.5191   23.4115 C   0  0  0  0  0  0  0  0  0  0  0  0
   12.8185  -17.3316   22.4590 O   0  0  0  0  0  0  0  0  0  0  0  0
   13.9212  -15.9350   23.9229 O   0  0  0  0  0  0  0  0  0  0  0  0
  2  1  1  0
  3  2  1  0
  4  3  2  0
  5  3  1  0
  6  5  1  0
  6  7  1  1
  8  7  1  0
  9  8  1  0
 10  9  1  0
 11 10  1  0
 12  6  1  0
 12 14  1  0
 13 12  2  0
 15 14  1  0
 15 16  1  0
 16 18  1  0
 17 16  2  0
M  END
$$$$
