GKG.pdb
     RDKit          3D

 18 17  0  0  1  0  0  0  0  0999 V2000
    5.7292  -18.9151   17.0227 N   0  0  0  0  0  0  0  0  0  0  0  0
    5.8737  -20.0594   17.8762 C   0  0  0  0  0  0  0  0  0  0  0  0
    5.7008  -19.7308   19.3118 C   0  0  0  0  0  0  0  0  0  0  0  0
    6.4328  -18.8133   19.7725 O   0  0  0  0  0  0  0  0  0  0  0  0
    4.7832  -20.3765   20.1629 N   0  0  0  0  0  0  0  0  0  0  0  0
    4.7234  -19.9916   21.5770 C   0  0  1  0  0  0  0  0  0  0  0  0
    3.3730  -20.3597   22.1361 C   0  0  0  0  0  0  0  0  0  0  0  0
    2.3045  -19.4567   21.6520 C   0  0  0  0  0  0  0  0  0  0  0  0
    1.5244  -20.0752   20.4866 C   0  0  0  0  0  0  0  0  0  0  0  0
    0.4923  -19.0368   20.0840 C   0  0  0  0  0  0  0  0  0  0  0  0
   -0.3642  -19.4927   19.0191 N   0  0  0  0  0  0  0  0  0  0  0  0
    5.7919  -20.6450   22.3376 C   0  0  0  0  0  0  0  0  0  0  0  0
    6.2728  -21.7297   21.9670 O   0  0  0  0  0  0  0  0  0  0  0  0
    6.3465  -20.0861   23.5422 N   0  0  0  0  0  0  0  0  0  0  0  0
    7.4275  -20.7754   24.2309 C   0  0  0  0  0  0  0  0  0  0  0  0
    7.8590  -20.0514   25.4376 C   0  0  0  0  0  0  0  0  0  0  0  0
    7.3437  -18.9322   25.6657 O   0  0  0  0  0  0  0  0  0  0  0  0
    8.8087  -20.5959   26.2944 O   0  0  0  0  0  0  0  0  0  0  0  0
  2  1  1  0
  3  2  1  0
  4  3  2  0
  5  3  1  0
  6  5  1  0
  6  7  1  1
  8  7  1  0
  9  8  1  0
 10  9  1  0
 11 10  1  0
 12  6  1  0
 12 14  1  0
 13 12  2  0
 15 14  1  0
 15 16  1  0
 16 18  1  0
 17 16  2  0
M  END
$$$$
