GKG.pdb
     RDKit          3D

 18 17  0  0  1  0  0  0  0  0999 V2000
    5.6155  -19.7433   23.5159 N   0  0  0  0  0  0  0  0  0  0  0  0
    5.8347  -18.4433   24.0821 C   0  0  0  0  0  0  0  0  0  0  0  0
    6.7061  -17.5892   23.2395 C   0  0  0  0  0  0  0  0  0  0  0  0
    7.5521  -18.1843   22.5184 O   0  0  0  0  0  0  0  0  0  0  0  0
    6.6365  -16.1830   23.2064 N   0  0  0  0  0  0  0  0  0  0  0  0
    7.6378  -15.4333   22.4403 C   0  0  1  0  0  0  0  0  0  0  0  0
    7.1288  -14.0370   22.1890 C   0  0  0  0  0  0  0  0  0  0  0  0
    7.9902  -13.2917   21.2434 C   0  0  0  0  0  0  0  0  0  0  0  0
    7.8504  -13.8206   19.8117 C   0  0  0  0  0  0  0  0  0  0  0  0
    8.7843  -12.9731   18.9660 C   0  0  0  0  0  0  0  0  0  0  0  0
    8.7477  -13.3338   17.5717 N   0  0  0  0  0  0  0  0  0  0  0  0
    8.9159  -15.3952   23.1557 C   0  0  0  0  0  0  0  0  0  0  0  0
    8.9817  -14.9973   24.3316 O   0  0  0  0  0  0  0  0  0  0  0  0
   10.1580  -15.8078   22.5573 N   0  0  0  0  0  0  0  0  0  0  0  0
   11.3930  -15.7304   23.3231 C   0  0  0  0  0  0  0  0  0  0  0  0
   12.5713  -16.0386   22.4966 C   0  0  0  0  0  0  0  0  0  0  0  0
   12.3788  -16.3955   21.3110 O   0  0  0  0  0  0  0  0  0  0  0  0
   13.8555  -15.9356   23.0191 O   0  0  0  0  0  0  0  0  0  0  0  0
  2  1  1  0
  3  2  1  0
  4  3  2  0
  5  3  1  0
  6  5  1  0
  6  7  1  1
  8  7  1  0
  9  8  1  0
 10  9  1  0
 11 10  1  0
 12  6  1  0
 12 14  1  0
 13 12  2  0
 15 14  1  0
 15 16  1  0
 16 18  1  0
 17 16  2  0
M  END
$$$$
