GKG.pdb
     RDKit          3D

 18 17  0  0  1  0  0  0  0  0999 V2000
    5.9078  -19.8810   21.7026 N   0  0  0  0  0  0  0  0  0  0  0  0
    6.3913  -19.6893   23.0398 C   0  0  0  0  0  0  0  0  0  0  0  0
    6.9716  -18.3415   23.2530 C   0  0  0  0  0  0  0  0  0  0  0  0
    7.7720  -17.9260   22.3717 O   0  0  0  0  0  0  0  0  0  0  0  0
    6.6801  -17.5246   24.3626 N   0  0  0  0  0  0  0  0  0  0  0  0
    7.4380  -16.2842   24.5588 C   0  0  1  0  0  0  0  0  0  0  0  0
    6.6916  -15.3914   25.5166 C   0  0  0  0  0  0  0  0  0  0  0  0
    7.2894  -14.0396   25.5992 C   0  0  0  0  0  0  0  0  0  0  0  0
    6.4466  -13.0991   26.4678 C   0  0  0  0  0  0  0  0  0  0  0  0
    7.1671  -11.7627   26.4475 C   0  0  0  0  0  0  0  0  0  0  0  0
    6.5814  -10.8052   27.3506 N   0  0  0  0  0  0  0  0  0  0  0  0
    8.7826  -16.5729   25.0644 C   0  0  0  0  0  0  0  0  0  0  0  0
    8.9533  -17.0427   26.2026 O   0  0  0  0  0  0  0  0  0  0  0  0
    9.9741  -16.3367   24.2926 N   0  0  0  0  0  0  0  0  0  0  0  0
   11.2813  -16.4613   24.9199 C   0  0  0  0  0  0  0  0  0  0  0  0
   12.3744  -16.2658   23.9538 C   0  0  0  0  0  0  0  0  0  0  0  0
   12.0734  -16.1535   22.7426 O   0  0  0  0  0  0  0  0  0  0  0  0
   13.6976  -16.2083   24.3762 O   0  0  0  0  0  0  0  0  0  0  0  0
  2  1  1  0
  3  2  1  0
  4  3  2  0
  5  3  1  0
  6  5  1  0
  6  7  1  1
  8  7  1  0
  9  8  1  0
 10  9  1  0
 11 10  1  0
 12  6  1  0
 12 14  1  0
 13 12  2  0
 15 14  1  0
 15 16  1  0
 16 18  1  0
 17 16  2  0
M  END
$$$$
