GKG.pdb
     RDKit          3D

 18 17  0  0  1  0  0  0  0  0999 V2000
    1.7193  -27.4556   26.0921 N   0  0  0  0  0  0  0  0  0  0  0  0
    1.4637  -26.0450   26.0335 C   0  0  0  0  0  0  0  0  0  0  0  0
    2.5209  -25.2994   25.3088 C   0  0  0  0  0  0  0  0  0  0  0  0
    3.5555  -25.9487   24.9957 O   0  0  0  0  0  0  0  0  0  0  0  0
    2.4280  -23.9375   24.9624 N   0  0  0  0  0  0  0  0  0  0  0  0
    3.5281  -23.3089   24.2232 C   0  0  1  0  0  0  0  0  0  0  0  0
    2.9612  -22.3503   23.2076 C   0  0  0  0  0  0  0  0  0  0  0  0
    2.2975  -23.0540   22.0869 C   0  0  0  0  0  0  0  0  0  0  0  0
    1.6725  -22.0709   21.0909 C   0  0  0  0  0  0  0  0  0  0  0  0
    1.0493  -22.9268   20.0025 C   0  0  0  0  0  0  0  0  0  0  0  0
    0.4743  -22.1398   18.9417 N   0  0  0  0  0  0  0  0  0  0  0  0
    4.4364  -22.6130   25.1383 C   0  0  0  0  0  0  0  0  0  0  0  0
    4.0011  -21.9687   26.1083 O   0  0  0  0  0  0  0  0  0  0  0  0
    5.8667  -22.6276   24.9796 N   0  0  0  0  0  0  0  0  0  0  0  0
    6.7099  -21.9268   25.9364 C   0  0  0  0  0  0  0  0  0  0  0  0
    7.5141  -22.8580   26.7442 C   0  0  0  0  0  0  0  0  0  0  0  0
    7.1540  -24.0573   26.7886 O   0  0  0  0  0  0  0  0  0  0  0  0
    8.6372  -22.4164   27.4345 O   0  0  0  0  0  0  0  0  0  0  0  0
  2  1  1  0
  3  2  1  0
  4  3  2  0
  5  3  1  0
  6  5  1  0
  6  7  1  6
  8  7  1  0
  9  8  1  0
 10  9  1  0
 11 10  1  0
 12  6  1  0
 12 14  1  0
 13 12  2  0
 15 14  1  0
 15 16  1  0
 16 18  1  0
 17 16  2  0
M  END
$$$$
