GKG.pdb
     RDKit          3D

 18 17  0  0  1  0  0  0  0  0999 V2000
    8.3909  -13.3027   18.0220 N   0  0  0  0  0  0  0  0  0  0  0  0
    7.5181  -13.9350   18.9691 C   0  0  0  0  0  0  0  0  0  0  0  0
    7.9826  -13.7826   20.3690 C   0  0  0  0  0  0  0  0  0  0  0  0
    9.1594  -13.3594   20.5300 O   0  0  0  0  0  0  0  0  0  0  0  0
    7.1942  -14.0797   21.4975 N   0  0  0  0  0  0  0  0  0  0  0  0
    7.7694  -13.9175   22.8371 C   0  0  1  0  0  0  0  0  0  0  0  0
    6.6881  -13.4844   23.7937 C   0  0  0  0  0  0  0  0  0  0  0  0
    7.2418  -13.0041   25.0799 C   0  0  0  0  0  0  0  0  0  0  0  0
    6.1509  -12.4177   25.9829 C   0  0  0  0  0  0  0  0  0  0  0  0
    6.8501  -12.0246   27.2721 C   0  0  0  0  0  0  0  0  0  0  0  0
    5.9300  -11.5717   28.2840 N   0  0  0  0  0  0  0  0  0  0  0  0
    8.3888  -15.1658   23.2898 C   0  0  0  0  0  0  0  0  0  0  0  0
    7.6964  -16.1184   23.6879 O   0  0  0  0  0  0  0  0  0  0  0  0
    9.8133  -15.3700   23.3043 N   0  0  0  0  0  0  0  0  0  0  0  0
   10.3678  -16.5714   23.9100 C   0  0  0  0  0  0  0  0  0  0  0  0
   11.8393  -16.5458   23.9321 C   0  0  0  0  0  0  0  0  0  0  0  0
   12.4476  -17.6217   23.7264 O   0  0  0  0  0  0  0  0  0  0  0  0
   12.5283  -15.3628   24.1741 O   0  0  0  0  0  0  0  0  0  0  0  0
  2  1  1  0
  3  2  1  0
  4  3  2  0
  5  3  1  0
  6  5  1  0
  6  7  1  1
  8  7  1  0
  9  8  1  0
 10  9  1  0
 11 10  1  0
 12  6  1  0
 12 14  1  0
 13 12  2  0
 15 14  1  0
 15 16  1  0
 16 18  1  0
 17 16  2  0
M  END
$$$$
