GKG.pdb
     RDKit          3D

 18 17  0  0  1  0  0  0  0  0999 V2000
    8.4867  -16.9459   18.9195 N   0  0  0  0  0  0  0  0  0  0  0  0
    7.6207  -16.9614   20.0634 C   0  0  0  0  0  0  0  0  0  0  0  0
    8.1037  -16.0895   21.1613 C   0  0  0  0  0  0  0  0  0  0  0  0
    9.2921  -15.6773   21.0731 O   0  0  0  0  0  0  0  0  0  0  0  0
    7.3204  -15.7096   22.2683 N   0  0  0  0  0  0  0  0  0  0  0  0
    7.9361  -14.9332   23.3498 C   0  0  1  0  0  0  0  0  0  0  0  0
    6.8593  -14.2140   24.1212 C   0  0  0  0  0  0  0  0  0  0  0  0
    7.4179  -13.3634   25.1964 C   0  0  0  0  0  0  0  0  0  0  0  0
    6.3173  -12.6151   25.9567 C   0  0  0  0  0  0  0  0  0  0  0  0
    7.0336  -11.7792   27.0024 C   0  0  0  0  0  0  0  0  0  0  0  0
    6.1249  -11.0048   27.8085 N   0  0  0  0  0  0  0  0  0  0  0  0
    8.7114  -15.8044   24.2368 C   0  0  0  0  0  0  0  0  0  0  0  0
    8.2307  -16.8626   24.6779 O   0  0  0  0  0  0  0  0  0  0  0  0
   10.0560  -15.5003   24.6497 N   0  0  0  0  0  0  0  0  0  0  0  0
   11.0793  -16.5341   24.6071 C   0  0  0  0  0  0  0  0  0  0  0  0
   11.3329  -17.1103   25.9376 C   0  0  0  0  0  0  0  0  0  0  0  0
   12.3611  -17.8107   26.0870 O   0  0  0  0  0  0  0  0  0  0  0  0
   10.4565  -16.8819   26.9924 O   0  0  0  0  0  0  0  0  0  0  0  0
  2  1  1  0
  3  2  1  0
  4  3  2  0
  5  3  1  0
  6  5  1  0
  6  7  1  1
  8  7  1  0
  9  8  1  0
 10  9  1  0
 11 10  1  0
 12  6  1  0
 12 14  1  0
 13 12  2  0
 15 14  1  0
 15 16  1  0
 16 18  1  0
 17 16  2  0
M  END
$$$$
