GKG.pdb
     RDKit          3D

 18 17  0  0  1  0  0  0  0  0999 V2000
    5.2733  -20.1181   22.8103 N   0  0  0  0  0  0  0  0  0  0  0  0
    5.0511  -18.7192   23.0387 C   0  0  0  0  0  0  0  0  0  0  0  0
    6.2459  -17.8921   22.7435 C   0  0  0  0  0  0  0  0  0  0  0  0
    7.3418  -18.5049   22.6289 O   0  0  0  0  0  0  0  0  0  0  0  0
    6.2167  -16.4925   22.5891 N   0  0  0  0  0  0  0  0  0  0  0  0
    7.4764  -15.7657   22.3984 C   0  0  1  0  0  0  0  0  0  0  0  0
    7.1786  -14.3805   21.8843 C   0  0  0  0  0  0  0  0  0  0  0  0
    8.1390  -13.9548   20.8413 C   0  0  0  0  0  0  0  0  0  0  0  0
    7.4243  -13.5039   19.5626 C   0  0  0  0  0  0  0  0  0  0  0  0
    8.5237  -13.1007   18.5960 C   0  0  0  0  0  0  0  0  0  0  0  0
    8.0076  -12.6498   17.3288 N   0  0  0  0  0  0  0  0  0  0  0  0
    8.2313  -15.6991   23.6524 C   0  0  0  0  0  0  0  0  0  0  0  0
    7.6497  -15.6545   24.7502 O   0  0  0  0  0  0  0  0  0  0  0  0
    9.6696  -15.6810   23.6977 N   0  0  0  0  0  0  0  0  0  0  0  0
   10.3547  -15.6600   24.9814 C   0  0  0  0  0  0  0  0  0  0  0  0
   11.6224  -16.4067   24.9391 C   0  0  0  0  0  0  0  0  0  0  0  0
   11.9148  -17.0060   23.8782 O   0  0  0  0  0  0  0  0  0  0  0  0
   12.4657  -16.4433   26.0437 O   0  0  0  0  0  0  0  0  0  0  0  0
  2  1  1  0
  3  2  1  0
  4  3  2  0
  5  3  1  0
  6  5  1  0
  6  7  1  1
  8  7  1  0
  9  8  1  0
 10  9  1  0
 11 10  1  0
 12  6  1  0
 12 14  1  0
 13 12  2  0
 15 14  1  0
 15 16  1  0
 16 18  1  0
 17 16  2  0
M  END
$$$$
