GKG.pdb
     RDKit          3D

 18 17  0  0  1  0  0  0  0  0999 V2000
    5.5702  -19.5296   23.3653 N   0  0  0  0  0  0  0  0  0  0  0  0
    6.0404  -18.8344   24.5290 C   0  0  0  0  0  0  0  0  0  0  0  0
    6.8936  -17.6683   24.1957 C   0  0  0  0  0  0  0  0  0  0  0  0
    7.2609  -17.5631   22.9941 O   0  0  0  0  0  0  0  0  0  0  0  0
    7.3026  -16.6983   25.1313 N   0  0  0  0  0  0  0  0  0  0  0  0
    8.2316  -15.6437   24.7113 C   0  0  1  0  0  0  0  0  0  0  0  0
    8.2396  -14.5470   25.7452 C   0  0  0  0  0  0  0  0  0  0  0  0
    7.2095  -13.5188   25.4747 C   0  0  0  0  0  0  0  0  0  0  0  0
    6.8299  -12.7489   26.7445 C   0  0  0  0  0  0  0  0  0  0  0  0
    5.7792  -11.7399   26.3164 C   0  0  0  0  0  0  0  0  0  0  0  0
    5.3447  -10.8996   27.4029 N   0  0  0  0  0  0  0  0  0  0  0  0
    9.5801  -16.1854   24.5237 C   0  0  0  0  0  0  0  0  0  0  0  0
   10.2119  -16.6781   25.4742 O   0  0  0  0  0  0  0  0  0  0  0  0
   10.2518  -16.1840   23.2510 N   0  0  0  0  0  0  0  0  0  0  0  0
   11.5723  -15.5846   23.1283 C   0  0  0  0  0  0  0  0  0  0  0  0
   12.6412  -16.5381   23.4671 C   0  0  0  0  0  0  0  0  0  0  0  0
   12.3970  -17.4090   24.3342 O   0  0  0  0  0  0  0  0  0  0  0  0
   13.8812  -16.4708   22.8420 O   0  0  0  0  0  0  0  0  0  0  0  0
  2  1  1  0
  3  2  1  0
  4  3  2  0
  5  3  1  0
  6  5  1  0
  6  7  1  1
  8  7  1  0
  9  8  1  0
 10  9  1  0
 11 10  1  0
 12  6  1  0
 12 14  1  0
 13 12  2  0
 15 14  1  0
 15 16  1  0
 16 18  1  0
 17 16  2  0
M  END
$$$$
