GKG.pdb
     RDKit          3D

 18 17  0  0  1  0  0  0  0  0999 V2000
    5.8968  -19.8709   23.5166 N   0  0  0  0  0  0  0  0  0  0  0  0
    5.7574  -18.4796   23.8387 C   0  0  0  0  0  0  0  0  0  0  0  0
    6.6543  -17.6120   23.0378 C   0  0  0  0  0  0  0  0  0  0  0  0
    7.5572  -18.1921   22.3759 O   0  0  0  0  0  0  0  0  0  0  0  0
    6.5494  -16.2087   22.9819 N   0  0  0  0  0  0  0  0  0  0  0  0
    7.5623  -15.4425   22.2480 C   0  0  1  0  0  0  0  0  0  0  0  0
    7.0062  -14.0844   21.9041 C   0  0  0  0  0  0  0  0  0  0  0  0
    7.9036  -13.3268   21.0029 C   0  0  0  0  0  0  0  0  0  0  0  0
    7.7684  -13.7896   19.5480 C   0  0  0  0  0  0  0  0  0  0  0  0
    8.6228  -12.8366   18.7311 C   0  0  0  0  0  0  0  0  0  0  0  0
    8.6796  -13.2007   17.3384 N   0  0  0  0  0  0  0  0  0  0  0  0
    8.7882  -15.3123   23.0398 C   0  0  0  0  0  0  0  0  0  0  0  0
    8.7655  -14.8228   24.1823 O   0  0  0  0  0  0  0  0  0  0  0  0
   10.0770  -15.7342   22.5581 N   0  0  0  0  0  0  0  0  0  0  0  0
   11.2638  -15.5096   23.3698 C   0  0  0  0  0  0  0  0  0  0  0  0
   12.4777  -16.0351   22.7241 C   0  0  0  0  0  0  0  0  0  0  0  0
   12.3463  -16.6476   21.6389 O   0  0  0  0  0  0  0  0  0  0  0  0
   13.7285  -15.8550   23.3035 O   0  0  0  0  0  0  0  0  0  0  0  0
  2  1  1  0
  3  2  1  0
  4  3  2  0
  5  3  1  0
  6  5  1  0
  6  7  1  1
  8  7  1  0
  9  8  1  0
 10  9  1  0
 11 10  1  0
 12  6  1  0
 12 14  1  0
 13 12  2  0
 15 14  1  0
 15 16  1  0
 16 18  1  0
 17 16  2  0
M  END
$$$$
