GKG.pdb
     RDKit          3D

 18 17  0  0  1  0  0  0  0  0999 V2000
    8.2312  -12.9656   16.9281 N   0  0  0  0  0  0  0  0  0  0  0  0
    7.6184  -13.9365   17.7887 C   0  0  0  0  0  0  0  0  0  0  0  0
    8.1872  -13.9305   19.1581 C   0  0  0  0  0  0  0  0  0  0  0  0
    9.3133  -13.3811   19.2988 O   0  0  0  0  0  0  0  0  0  0  0  0
    7.5476  -14.4937   20.2793 N   0  0  0  0  0  0  0  0  0  0  0  0
    8.2338  -14.4854   21.5757 C   0  0  1  0  0  0  0  0  0  0  0  0
    7.2280  -14.7242   22.6725 C   0  0  0  0  0  0  0  0  0  0  0  0
    7.8161  -14.5374   24.0182 C   0  0  0  0  0  0  0  0  0  0  0  0
    8.1367  -15.8783   24.6878 C   0  0  0  0  0  0  0  0  0  0  0  0
    8.5073  -15.5448   26.1220 C   0  0  0  0  0  0  0  0  0  0  0  0
    8.8243  -16.7166   26.8978 N   0  0  0  0  0  0  0  0  0  0  0  0
    9.2870  -15.5034   21.6112 C   0  0  0  0  0  0  0  0  0  0  0  0
    9.0462  -16.6867   21.3157 O   0  0  0  0  0  0  0  0  0  0  0  0
   10.6455  -15.2085   21.9834 N   0  0  0  0  0  0  0  0  0  0  0  0
   11.6490  -16.2623   21.9606 C   0  0  0  0  0  0  0  0  0  0  0  0
   12.2461  -16.4801   23.2882 C   0  0  0  0  0  0  0  0  0  0  0  0
   11.4943  -16.4090   24.2881 O   0  0  0  0  0  0  0  0  0  0  0  0
   13.6019  -16.7558   23.4237 O   0  0  0  0  0  0  0  0  0  0  0  0
  2  1  1  0
  3  2  1  0
  4  3  2  0
  5  3  1  0
  6  5  1  0
  6  7  1  1
  8  7  1  0
  9  8  1  0
 10  9  1  0
 11 10  1  0
 12  6  1  0
 12 14  1  0
 13 12  2  0
 15 14  1  0
 15 16  1  0
 16 18  1  0
 17 16  2  0
M  END
$$$$
