GKG.pdb
     RDKit          3D

 18 17  0  0  1  0  0  0  0  0999 V2000
    6.1771  -20.3981   21.2583 N   0  0  0  0  0  0  0  0  0  0  0  0
    5.8352  -19.0615   21.6523 C   0  0  0  0  0  0  0  0  0  0  0  0
    7.0155  -18.1680   21.7371 C   0  0  0  0  0  0  0  0  0  0  0  0
    8.1440  -18.7073   21.5771 O   0  0  0  0  0  0  0  0  0  0  0  0
    6.9394  -16.7831   21.9813 N   0  0  0  0  0  0  0  0  0  0  0  0
    8.1781  -16.0056   22.0940 C   0  0  1  0  0  0  0  0  0  0  0  0
    7.9574  -14.6316   21.5151 C   0  0  0  0  0  0  0  0  0  0  0  0
    7.7952  -14.6662   20.0440 C   0  0  0  0  0  0  0  0  0  0  0  0
    7.6299  -13.2594   19.4586 C   0  0  0  0  0  0  0  0  0  0  0  0
    7.3606  -13.4580   17.9775 C   0  0  0  0  0  0  0  0  0  0  0  0
    7.0331  -12.2267   17.3052 N   0  0  0  0  0  0  0  0  0  0  0  0
    8.6067  -15.9133   23.4920 C   0  0  0  0  0  0  0  0  0  0  0  0
    7.7960  -15.6463   24.3958 O   0  0  0  0  0  0  0  0  0  0  0  0
    9.9692  -16.1214   23.9061 N   0  0  0  0  0  0  0  0  0  0  0  0
   10.3095  -16.0950   25.3208 C   0  0  0  0  0  0  0  0  0  0  0  0
   11.7561  -16.2557   25.5402 C   0  0  0  0  0  0  0  0  0  0  0  0
   12.4915  -16.3810   24.5335 O   0  0  0  0  0  0  0  0  0  0  0  0
   12.2854  -16.2673   26.8256 O   0  0  0  0  0  0  0  0  0  0  0  0
  2  1  1  0
  3  2  1  0
  4  3  2  0
  5  3  1  0
  6  5  1  0
  6  7  1  1
  8  7  1  0
  9  8  1  0
 10  9  1  0
 11 10  1  0
 12  6  1  0
 12 14  1  0
 13 12  2  0
 15 14  1  0
 15 16  1  0
 16 18  1  0
 17 16  2  0
M  END
$$$$
