NKQ.pdb
     RDKit          3D

 27 26  0  0  1  0  0  0  0  0999 V2000
    7.8123  -11.7353   18.8648 N   0  0  0  0  0  0  0  0  0  0  0  0
    8.1287  -13.0543   19.2948 C   0  0  0  0  0  0  0  0  0  0  0  0
    8.6631  -13.8267   18.4690 O   0  0  0  0  0  0  0  0  0  0  0  0
    7.8425  -13.5176   20.6738 C   0  0  0  0  0  0  0  0  0  0  0  0
    8.2307  -14.9594   20.7713 C   0  0  2  0  0  0  0  0  0  0  0  0
    7.4342  -15.7073   19.8204 N   0  0  0  0  0  0  0  0  0  0  0  0
    8.0714  -15.5407   22.1033 C   0  0  0  0  0  0  0  0  0  0  0  0
    7.7942  -14.7696   23.0565 O   0  0  0  0  0  0  0  0  0  0  0  0
    8.2038  -16.9062   22.4123 N   0  0  0  0  0  0  0  0  0  0  0  0
    7.9017  -17.4793   23.7302 C   0  0  1  0  0  0  0  0  0  0  0  0
    7.4096  -18.8785   23.5643 C   0  0  0  0  0  0  0  0  0  0  0  0
    6.0701  -19.0602   22.9324 C   0  0  0  0  0  0  0  0  0  0  0  0
    5.8261  -20.5350   22.7152 C   0  0  0  0  0  0  0  0  0  0  0  0
    4.4654  -20.7863   22.0995 C   0  0  0  0  0  0  0  0  0  0  0  0
    4.3550  -22.2244   21.9225 N   0  0  0  0  0  0  0  0  0  0  0  0
    9.1499  -17.3562   24.5250 C   0  0  0  0  0  0  0  0  0  0  0  0
   10.2552  -17.5498   23.9164 O   0  0  0  0  0  0  0  0  0  0  0  0
    8.2913  -13.4621   27.8705 N   0  0  0  0  0  0  0  0  0  0  0  0
    9.2364  -14.1383   28.6730 C   0  0  0  0  0  0  0  0  0  0  0  0
    9.7671  -13.5104   29.6495 O   0  0  0  0  0  0  0  0  0  0  0  0
    9.6322  -15.5371   28.4388 C   0  0  0  0  0  0  0  0  0  0  0  0
   10.5676  -15.7131   27.3086 C   0  0  0  0  0  0  0  0  0  0  0  0
   10.5294  -17.0097   26.5639 C   0  0  2  0  0  0  0  0  0  0  0  0
    9.2058  -17.0404   25.8976 N   0  0  0  0  0  0  0  0  0  0  0  0
   10.7164  -18.2294   27.3269 C   0  0  0  0  0  0  0  0  0  0  0  0
    9.7416  -19.0141   27.5376 O   0  0  0  0  0  0  0  0  0  0  0  0
   11.9378  -18.6467   27.8734 O   0  0  0  0  0  0  0  0  0  0  0  0
  2  1  1  0
  3  2  2  0
  4  2  1  0
  4  5  1  0
  5  6  1  6
  7  5  1  0
  7  8  2  0
  9  7  1  0
 10  9  1  0
 10 11  1  6
 12 11  1  0
 12 13  1  0
 13 14  1  0
 14 15  1  0
 16 10  1  0
 17 16  2  0
 19 18  1  0
 20 19  2  0
 21 19  1  0
 22 21  1  0
 23 22  1  1
 23 24  1  0
 24 16  1  0
 25 23  1  0
 26 25  2  0
 27 25  1  0
M  END
$$$$
