NKQ.pdb
     RDKit          3D

 27 26  0  0  1  0  0  0  0  0999 V2000
   14.3021  -15.6029   13.3064 N   0  0  0  0  0  0  0  0  0  0  0  0
   13.8231  -16.6521   14.1398 C   0  0  0  0  0  0  0  0  0  0  0  0
   13.7183  -17.7941   13.6409 O   0  0  0  0  0  0  0  0  0  0  0  0
   13.4551  -16.4197   15.5570 C   0  0  0  0  0  0  0  0  0  0  0  0
   12.0705  -16.9449   15.7714 C   0  0  2  0  0  0  0  0  0  0  0  0
   11.1708  -16.2162   14.9012 N   0  0  0  0  0  0  0  0  0  0  0  0
   11.5946  -16.8526   17.1508 C   0  0  0  0  0  0  0  0  0  0  0  0
   11.4026  -15.7089   17.6355 O   0  0  0  0  0  0  0  0  0  0  0  0
   11.3303  -17.9485   17.9915 N   0  0  0  0  0  0  0  0  0  0  0  0
   10.9476  -17.8221   19.4037 C   0  0  1  0  0  0  0  0  0  0  0  0
   10.2035  -19.0436   19.8296 C   0  0  0  0  0  0  0  0  0  0  0  0
    8.7213  -18.9294   19.9585 C   0  0  0  0  0  0  0  0  0  0  0  0
    8.1376  -20.3095   20.1493 C   0  0  0  0  0  0  0  0  0  0  0  0
    6.6366  -20.2538   20.3436 C   0  0  0  0  0  0  0  0  0  0  0  0
    6.1871  -21.6309   20.4599 N   0  0  0  0  0  0  0  0  0  0  0  0
   12.2090  -17.5789   20.1484 C   0  0  0  0  0  0  0  0  0  0  0  0
   13.3036  -17.6845   19.5001 O   0  0  0  0  0  0  0  0  0  0  0  0
   15.4824  -13.8153   19.1373 N   0  0  0  0  0  0  0  0  0  0  0  0
   15.5184  -14.1253   20.5146 C   0  0  0  0  0  0  0  0  0  0  0  0
   16.6367  -14.4506   21.0370 O   0  0  0  0  0  0  0  0  0  0  0  0
   14.3256  -14.0835   21.3771 C   0  0  0  0  0  0  0  0  0  0  0  0
   13.3547  -15.1643   21.1084 C   0  0  0  0  0  0  0  0  0  0  0  0
   13.4128  -16.3871   21.9679 C   0  0  2  0  0  0  0  0  0  0  0  0
   12.2881  -17.2392   21.5141 N   0  0  0  0  0  0  0  0  0  0  0  0
   13.3331  -16.2037   23.4048 C   0  0  0  0  0  0  0  0  0  0  0  0
   14.3871  -16.1768   24.1109 O   0  0  0  0  0  0  0  0  0  0  0  0
   12.1396  -16.0364   24.1206 O   0  0  0  0  0  0  0  0  0  0  0  0
  2  1  1  0
  3  2  2  0
  4  2  1  0
  4  5  1  0
  5  6  1  6
  7  5  1  0
  7  8  2  0
  9  7  1  0
 10  9  1  0
 10 11  1  1
 12 11  1  0
 12 13  1  0
 13 14  1  0
 14 15  1  0
 16 10  1  0
 17 16  2  0
 19 18  1  0
 20 19  2  0
 21 19  1  0
 22 21  1  0
 23 22  1  6
 23 24  1  0
 24 16  1  0
 25 23  1  0
 26 25  2  0
 27 25  1  0
M  END
$$$$
