NKQ.pdb
     RDKit          3D

 27 26  0  0  1  0  0  0  0  0999 V2000
    7.1300  -12.8866   16.7499 N   0  0  0  0  0  0  0  0  0  0  0  0
    8.0441  -13.4364   17.6917 C   0  0  0  0  0  0  0  0  0  0  0  0
    9.1218  -13.9005   17.2589 O   0  0  0  0  0  0  0  0  0  0  0  0
    7.7475  -13.4671   19.1440 C   0  0  0  0  0  0  0  0  0  0  0  0
    8.5413  -14.5766   19.7586 C   0  0  2  0  0  0  0  0  0  0  0  0
    8.7276  -15.6072   18.7582 N   0  0  0  0  0  0  0  0  0  0  0  0
    7.9378  -15.1626   20.9545 C   0  0  0  0  0  0  0  0  0  0  0  0
    7.5687  -14.3869   21.8721 O   0  0  0  0  0  0  0  0  0  0  0  0
    7.7331  -16.5374   21.1678 N   0  0  0  0  0  0  0  0  0  0  0  0
    7.0967  -17.0925   22.3694 C   0  0  1  0  0  0  0  0  0  0  0  0
    6.8883  -18.5594   22.1904 C   0  0  0  0  0  0  0  0  0  0  0  0
    6.3704  -19.3230   23.3631 C   0  0  0  0  0  0  0  0  0  0  0  0
    6.2339  -20.7778   22.9798 C   0  0  0  0  0  0  0  0  0  0  0  0
    5.6025  -21.5869   24.0935 C   0  0  0  0  0  0  0  0  0  0  0  0
    5.4827  -22.9467   23.5950 N   0  0  0  0  0  0  0  0  0  0  0  0
    7.9826  -16.7308   23.5048 C   0  0  0  0  0  0  0  0  0  0  0  0
    9.2392  -16.6985   23.2823 O   0  0  0  0  0  0  0  0  0  0  0  0
    5.7814  -12.0475   26.2765 N   0  0  0  0  0  0  0  0  0  0  0  0
    7.0288  -12.1154   26.9352 C   0  0  0  0  0  0  0  0  0  0  0  0
    7.3646  -11.1541   27.7049 O   0  0  0  0  0  0  0  0  0  0  0  0
    7.9567  -13.2482   26.7799 C   0  0  0  0  0  0  0  0  0  0  0  0
    7.4539  -14.3160   25.8910 C   0  0  0  0  0  0  0  0  0  0  0  0
    8.3496  -15.4839   25.6239 C   0  0  2  0  0  0  0  0  0  0  0  0
    7.5409  -16.4193   24.8066 N   0  0  0  0  0  0  0  0  0  0  0  0
    8.8959  -16.1881   26.7686 C   0  0  0  0  0  0  0  0  0  0  0  0
    8.3122  -17.2148   27.2328 O   0  0  0  0  0  0  0  0  0  0  0  0
   10.0730  -15.8261   27.4380 O   0  0  0  0  0  0  0  0  0  0  0  0
  2  1  1  0
  3  2  2  0
  4  2  1  0
  4  5  1  0
  5  6  1  6
  7  5  1  0
  7  8  2  0
  9  7  1  0
 10  9  1  0
 10 11  1  6
 12 11  1  0
 12 13  1  0
 13 14  1  0
 14 15  1  0
 16 10  1  0
 17 16  2  0
 19 18  1  0
 20 19  2  0
 21 19  1  0
 22 21  1  0
 23 22  1  1
 23 24  1  0
 24 16  1  0
 25 23  1  0
 26 25  2  0
 27 25  1  0
M  END
$$$$
