NKQ.pdb
     RDKit          3D

 27 26  0  0  1  0  0  0  0  0999 V2000
   13.3663  -20.1314   14.9825 N   0  0  0  0  0  0  0  0  0  0  0  0
   14.1135  -18.9254   15.0925 C   0  0  0  0  0  0  0  0  0  0  0  0
   15.1514  -18.8152   14.4035 O   0  0  0  0  0  0  0  0  0  0  0  0
   13.6916  -17.8226   15.9891 C   0  0  0  0  0  0  0  0  0  0  0  0
   12.7060  -18.3719   16.9719 C   0  0  2  0  0  0  0  0  0  0  0  0
   11.5026  -18.7331   16.2514 N   0  0  0  0  0  0  0  0  0  0  0  0
   12.3652  -17.4592   18.0621 C   0  0  0  0  0  0  0  0  0  0  0  0
   13.2779  -17.1188   18.8565 O   0  0  0  0  0  0  0  0  0  0  0  0
   11.0869  -16.9235   18.3003 N   0  0  0  0  0  0  0  0  0  0  0  0
   10.7771  -16.0078   19.4058 C   0  0  1  0  0  0  0  0  0  0  0  0
    9.7086  -15.0566   18.9806 C   0  0  0  0  0  0  0  0  0  0  0  0
    9.2153  -14.0847   19.9997 C   0  0  0  0  0  0  0  0  0  0  0  0
    8.1526  -13.2134   19.3726 C   0  0  0  0  0  0  0  0  0  0  0  0
    7.6146  -12.1989   20.3601 C   0  0  0  0  0  0  0  0  0  0  0  0
    6.5551  -11.4799   19.6729 N   0  0  0  0  0  0  0  0  0  0  0  0
   10.4114  -16.8688   20.5590 C   0  0  0  0  0  0  0  0  0  0  0  0
   10.1183  -18.0867   20.3131 O   0  0  0  0  0  0  0  0  0  0  0  0
   14.5517  -19.0495   21.6944 N   0  0  0  0  0  0  0  0  0  0  0  0
   14.0298  -19.4038   22.9579 C   0  0  0  0  0  0  0  0  0  0  0  0
   14.7171  -20.1764   23.7063 O   0  0  0  0  0  0  0  0  0  0  0  0
   12.7318  -18.9168   23.4543 C   0  0  0  0  0  0  0  0  0  0  0  0
   12.0573  -17.9728   22.5393 C   0  0  0  0  0  0  0  0  0  0  0  0
   10.7386  -17.4084   22.9636 C   0  0  2  0  0  0  0  0  0  0  0  0
   10.3654  -16.4435   21.9021 N   0  0  0  0  0  0  0  0  0  0  0  0
   10.6713  -16.7557   24.2575 C   0  0  0  0  0  0  0  0  0  0  0  0
   10.7496  -15.4923   24.3473 O   0  0  0  0  0  0  0  0  0  0  0  0
   10.5112  -17.4247   25.4788 O   0  0  0  0  0  0  0  0  0  0  0  0
  2  1  1  0
  3  2  2  0
  4  2  1  0
  4  5  1  0
  5  6  1  6
  7  5  1  0
  7  8  2  0
  9  7  1  0
 10  9  1  0
 10 11  1  6
 12 11  1  0
 12 13  1  0
 13 14  1  0
 14 15  1  0
 16 10  1  0
 17 16  2  0
 19 18  1  0
 20 19  2  0
 21 19  1  0
 22 21  1  0
 23 22  1  6
 23 24  1  0
 24 16  1  0
 25 23  1  0
 26 25  2  0
 27 25  1  0
M  END
$$$$
