NKQ.pdb
     RDKit          3D

 27 26  0  0  1  0  0  0  0  0999 V2000
    8.2016  -12.4236   17.4976 N   0  0  0  0  0  0  0  0  0  0  0  0
    7.7703  -13.7498   17.7806 C   0  0  0  0  0  0  0  0  0  0  0  0
    7.9514  -14.6235   16.9042 O   0  0  0  0  0  0  0  0  0  0  0  0
    7.1252  -14.1051   19.0673 C   0  0  0  0  0  0  0  0  0  0  0  0
    8.1481  -14.7696   19.9339 C   0  0  2  0  0  0  0  0  0  0  0  0
    8.8354  -15.7663   19.1389 N   0  0  0  0  0  0  0  0  0  0  0  0
    7.6062  -15.3968   21.1383 C   0  0  0  0  0  0  0  0  0  0  0  0
    6.8534  -14.7111   21.8753 O   0  0  0  0  0  0  0  0  0  0  0  0
    7.8591  -16.7183   21.5473 N   0  0  0  0  0  0  0  0  0  0  0  0
    7.3410  -17.3026   22.7910 C   0  0  1  0  0  0  0  0  0  0  0  0
    7.4508  -18.7896   22.7266 C   0  0  0  0  0  0  0  0  0  0  0  0
    6.5977  -19.5779   23.6632 C   0  0  0  0  0  0  0  0  0  0  0  0
    6.7257  -21.0449   23.3266 C   0  0  0  0  0  0  0  0  0  0  0  0
    5.8964  -21.9017   24.2605 C   0  0  0  0  0  0  0  0  0  0  0  0
    5.9927  -23.2631   23.7616 N   0  0  0  0  0  0  0  0  0  0  0  0
    8.1165  -16.6753   23.8910 C   0  0  0  0  0  0  0  0  0  0  0  0
    9.3425  -16.4015   23.6635 O   0  0  0  0  0  0  0  0  0  0  0  0
    5.8874  -11.8049   26.0170 N   0  0  0  0  0  0  0  0  0  0  0  0
    6.9908  -11.8914   26.8942 C   0  0  0  0  0  0  0  0  0  0  0  0
    7.2339  -10.9047   27.6667 O   0  0  0  0  0  0  0  0  0  0  0  0
    7.8695  -13.0710   26.9633 C   0  0  0  0  0  0  0  0  0  0  0  0
    7.4534  -14.1796   26.0794 C   0  0  0  0  0  0  0  0  0  0  0  0
    8.3374  -15.3838   26.0036 C   0  0  2  0  0  0  0  0  0  0  0  0
    7.6012  -16.3585   25.1641 N   0  0  0  0  0  0  0  0  0  0  0  0
    8.7243  -16.0138   27.2519 C   0  0  0  0  0  0  0  0  0  0  0  0
    8.1282  -17.0574   27.6593 O   0  0  0  0  0  0  0  0  0  0  0  0
    9.7532  -15.5585   28.0877 O   0  0  0  0  0  0  0  0  0  0  0  0
  2  1  1  0
  3  2  2  0
  4  2  1  0
  4  5  1  0
  5  6  1  6
  7  5  1  0
  7  8  2  0
  9  7  1  0
 10  9  1  0
 10 11  1  6
 12 11  1  0
 12 13  1  0
 13 14  1  0
 14 15  1  0
 16 10  1  0
 17 16  2  0
 19 18  1  0
 20 19  2  0
 21 19  1  0
 22 21  1  0
 23 22  1  1
 23 24  1  0
 24 16  1  0
 25 23  1  0
 26 25  2  0
 27 25  1  0
M  END
$$$$
