NKQ.pdb
     RDKit          3D

 27 26  0  0  1  0  0  0  0  0999 V2000
   10.4803  -21.7831   17.7035 N   0  0  0  0  0  0  0  0  0  0  0  0
    9.1763  -21.6574   18.2588 C   0  0  0  0  0  0  0  0  0  0  0  0
    8.1990  -21.9111   17.5208 O   0  0  0  0  0  0  0  0  0  0  0  0
    8.9616  -21.2407   19.6654 C   0  0  0  0  0  0  0  0  0  0  0  0
    7.5922  -20.6471   19.7720 C   0  0  2  0  0  0  0  0  0  0  0  0
    7.5927  -19.3804   19.0697 N   0  0  0  0  0  0  0  0  0  0  0  0
    7.1254  -20.4436   21.1425 C   0  0  0  0  0  0  0  0  0  0  0  0
    7.4330  -19.3700   21.7194 O   0  0  0  0  0  0  0  0  0  0  0  0
    6.3521  -21.3585   21.8791 N   0  0  0  0  0  0  0  0  0  0  0  0
    5.8965  -21.1223   23.2551 C   0  0  1  0  0  0  0  0  0  0  0  0
    4.6426  -21.8923   23.5040 C   0  0  0  0  0  0  0  0  0  0  0  0
    3.4569  -21.5555   22.6631 C   0  0  0  0  0  0  0  0  0  0  0  0
    2.3363  -22.5148   22.9883 C   0  0  0  0  0  0  0  0  0  0  0  0
    1.0884  -22.1997   22.1900 C   0  0  0  0  0  0  0  0  0  0  0  0
    0.1118  -23.2184   22.5369 N   0  0  0  0  0  0  0  0  0  0  0  0
    7.0341  -21.4987   24.1322 C   0  0  0  0  0  0  0  0  0  0  0  0
    7.6159  -22.6100   23.8952 O   0  0  0  0  0  0  0  0  0  0  0  0
   12.2510  -19.4164   24.6718 N   0  0  0  0  0  0  0  0  0  0  0  0
   12.2750  -20.1884   25.8541 C   0  0  0  0  0  0  0  0  0  0  0  0
   13.3899  -20.3487   26.4547 O   0  0  0  0  0  0  0  0  0  0  0  0
   11.0710  -20.8110   26.4295 C   0  0  0  0  0  0  0  0  0  0  0  0
    9.8340  -20.5363   25.6696 C   0  0  0  0  0  0  0  0  0  0  0  0
    8.5961  -21.2827   26.0541 C   0  0  2  0  0  0  0  0  0  0  0  0
    7.5199  -20.7217   25.2032 N   0  0  0  0  0  0  0  0  0  0  0  0
    8.1878  -21.2367   27.4454 C   0  0  0  0  0  0  0  0  0  0  0  0
    8.8844  -21.8052   28.3410 O   0  0  0  0  0  0  0  0  0  0  0  0
    7.0416  -20.5823   27.9171 O   0  0  0  0  0  0  0  0  0  0  0  0
  2  1  1  0
  3  2  2  0
  4  2  1  0
  4  5  1  0
  5  6  1  6
  7  5  1  0
  7  8  2  0
  9  7  1  0
 10  9  1  0
 10 11  1  1
 12 11  1  0
 12 13  1  0
 13 14  1  0
 14 15  1  0
 16 10  1  0
 17 16  2  0
 19 18  1  0
 20 19  2  0
 21 19  1  0
 22 21  1  0
 23 22  1  1
 23 24  1  0
 24 16  1  0
 25 23  1  0
 26 25  2  0
 27 25  1  0
M  END
$$$$
