NKQ.pdb
     RDKit          3D

 27 26  0  0  1  0  0  0  0  0999 V2000
   18.2494  -15.3634   16.8697 N   0  0  0  0  0  0  0  0  0  0  0  0
   17.0466  -14.7908   16.3695 C   0  0  0  0  0  0  0  0  0  0  0  0
   16.8647  -14.7994   15.1322 O   0  0  0  0  0  0  0  0  0  0  0  0
   16.0286  -14.1981   17.2698 C   0  0  0  0  0  0  0  0  0  0  0  0
   15.1318  -15.2968   17.7469 C   0  0  2  0  0  0  0  0  0  0  0  0
   14.4828  -15.8838   16.5928 N   0  0  0  0  0  0  0  0  0  0  0  0
   14.1186  -14.8751   18.7129 C   0  0  0  0  0  0  0  0  0  0  0  0
   14.5061  -14.4644   19.8360 O   0  0  0  0  0  0  0  0  0  0  0  0
   12.7303  -14.8903   18.4894 N   0  0  0  0  0  0  0  0  0  0  0  0
   11.7366  -14.4776   19.4889 C   0  0  1  0  0  0  0  0  0  0  0  0
   10.4371  -14.1939   18.8121 C   0  0  0  0  0  0  0  0  0  0  0  0
    9.3159  -13.7039   19.6660 C   0  0  0  0  0  0  0  0  0  0  0  0
    8.1089  -13.4512   18.7935 C   0  0  0  0  0  0  0  0  0  0  0  0
    6.8963  -13.0777   19.6205 C   0  0  0  0  0  0  0  0  0  0  0  0
    5.8092  -12.8636   18.6802 N   0  0  0  0  0  0  0  0  0  0  0  0
   11.6834  -15.5741   20.4887 C   0  0  0  0  0  0  0  0  0  0  0  0
   11.9647  -16.7518   20.0844 O   0  0  0  0  0  0  0  0  0  0  0  0
   15.8741  -17.3499   22.1765 N   0  0  0  0  0  0  0  0  0  0  0  0
   15.1552  -18.0839   23.1455 C   0  0  0  0  0  0  0  0  0  0  0  0
   15.7787  -18.9613   23.8316 O   0  0  0  0  0  0  0  0  0  0  0  0
   13.7206  -17.8780   23.4053 C   0  0  0  0  0  0  0  0  0  0  0  0
   13.1130  -16.8049   22.5914 C   0  0  0  0  0  0  0  0  0  0  0  0
   11.6595  -16.5131   22.7904 C   0  0  2  0  0  0  0  0  0  0  0  0
   11.3480  -15.4122   21.8482 N   0  0  0  0  0  0  0  0  0  0  0  0
   11.2236  -16.1471   24.1248 C   0  0  0  0  0  0  0  0  0  0  0  0
   11.2427  -16.9985   25.0657 O   0  0  0  0  0  0  0  0  0  0  0  0
   10.7682  -14.8732   24.4918 O   0  0  0  0  0  0  0  0  0  0  0  0
  2  1  1  0
  3  2  2  0
  4  2  1  0
  4  5  1  0
  5  6  1  6
  7  5  1  0
  7  8  2  0
  9  7  1  0
 10  9  1  0
 10 11  1  6
 12 11  1  0
 12 13  1  0
 13 14  1  0
 14 15  1  0
 16 10  1  0
 17 16  2  0
 19 18  1  0
 20 19  2  0
 21 19  1  0
 22 21  1  0
 23 22  1  1
 23 24  1  0
 24 16  1  0
 25 23  1  0
 26 25  2  0
 27 25  1  0
M  END
$$$$
