NKQ.pdb
     RDKit          3D

 27 26  0  0  1  0  0  0  0  0999 V2000
    8.7582  -13.3308   16.5518 N   0  0  0  0  0  0  0  0  0  0  0  0
    7.9610  -13.9053   17.5809 C   0  0  0  0  0  0  0  0  0  0  0  0
    7.0664  -14.7127   17.2464 O   0  0  0  0  0  0  0  0  0  0  0  0
    8.1686  -13.5708   19.0103 C   0  0  0  0  0  0  0  0  0  0  0  0
    8.8725  -14.7200   19.6606 C   0  0  2  0  0  0  0  0  0  0  0  0
    8.0612  -15.9065   19.4824 N   0  0  0  0  0  0  0  0  0  0  0  0
    9.1534  -14.5315   21.0830 C   0  0  0  0  0  0  0  0  0  0  0  0
   10.3498  -14.3727   21.4342 O   0  0  0  0  0  0  0  0  0  0  0  0
    8.1866  -14.5129   22.1041 N   0  0  0  0  0  0  0  0  0  0  0  0
    8.4936  -14.2512   23.5162 C   0  0  1  0  0  0  0  0  0  0  0  0
    7.3517  -13.5281   24.1488 C   0  0  0  0  0  0  0  0  0  0  0  0
    7.4888  -13.1638   25.5893 C   0  0  0  0  0  0  0  0  0  0  0  0
    6.2520  -12.4144   26.0257 C   0  0  0  0  0  0  0  0  0  0  0  0
    6.3958  -11.8826   27.4365 C   0  0  0  0  0  0  0  0  0  0  0  0
    5.1428  -11.2184   27.7538 N   0  0  0  0  0  0  0  0  0  0  0  0
    8.7952  -15.5738   24.1203 C   0  0  0  0  0  0  0  0  0  0  0  0
    8.5484  -16.6105   23.4176 O   0  0  0  0  0  0  0  0  0  0  0  0
   14.4114  -17.6694   23.8656 N   0  0  0  0  0  0  0  0  0  0  0  0
   13.1178  -18.2048   23.6797 C   0  0  0  0  0  0  0  0  0  0  0  0
   12.8220  -18.7026   22.5422 O   0  0  0  0  0  0  0  0  0  0  0  0
   12.0970  -18.2213   24.7409 C   0  0  0  0  0  0  0  0  0  0  0  0
   11.0856  -17.1515   24.6148 C   0  0  0  0  0  0  0  0  0  0  0  0
   10.0524  -17.0350   25.6901 C   0  0  2  0  0  0  0  0  0  0  0  0
    9.3339  -15.7697   25.4080 N   0  0  0  0  0  0  0  0  0  0  0  0
   10.5109  -17.0358   27.0665 C   0  0  0  0  0  0  0  0  0  0  0  0
   11.1776  -18.0140   27.5235 O   0  0  0  0  0  0  0  0  0  0  0  0
   10.2815  -15.9997   27.9822 O   0  0  0  0  0  0  0  0  0  0  0  0
  2  1  1  0
  3  2  2  0
  4  2  1  0
  4  5  1  0
  5  6  1  1
  7  5  1  0
  7  8  2  0
  9  7  1  0
 10  9  1  0
 10 11  1  1
 12 11  1  0
 12 13  1  0
 13 14  1  0
 14 15  1  0
 16 10  1  0
 17 16  2  0
 19 18  1  0
 20 19  2  0
 21 19  1  0
 22 21  1  0
 23 22  1  6
 23 24  1  0
 24 16  1  0
 25 23  1  0
 26 25  2  0
 27 25  1  0
M  END
$$$$
