NKQ.pdb
     RDKit          3D

 27 26  0  0  1  0  0  0  0  0999 V2000
    7.9267  -12.9185   16.6359 N   0  0  0  0  0  0  0  0  0  0  0  0
    8.6407  -12.8088   17.8619 C   0  0  0  0  0  0  0  0  0  0  0  0
    9.7185  -12.1744   17.8566 O   0  0  0  0  0  0  0  0  0  0  0  0
    8.1396  -13.4195   19.1165 C   0  0  0  0  0  0  0  0  0  0  0  0
    9.2173  -14.2972   19.6707 C   0  0  2  0  0  0  0  0  0  0  0  0
    9.6527  -15.1957   18.6214 N   0  0  0  0  0  0  0  0  0  0  0  0
    8.8217  -15.0746   20.8441 C   0  0  0  0  0  0  0  0  0  0  0  0
    8.2588  -14.4707   21.7920 O   0  0  0  0  0  0  0  0  0  0  0  0
    9.0202  -16.4575   21.0041 N   0  0  0  0  0  0  0  0  0  0  0  0
    8.5613  -17.2196   22.1726 C   0  0  1  0  0  0  0  0  0  0  0  0
    8.4646  -18.6660   21.8177 C   0  0  0  0  0  0  0  0  0  0  0  0
    7.3912  -19.0634   20.8605 C   0  0  0  0  0  0  0  0  0  0  0  0
    7.4609  -20.5557   20.6370 C   0  0  0  0  0  0  0  0  0  0  0  0
    6.3932  -21.0211   19.6690 C   0  0  0  0  0  0  0  0  0  0  0  0
    6.5169  -22.4667   19.5863 N   0  0  0  0  0  0  0  0  0  0  0  0
    9.5239  -16.9162   23.2617 C   0  0  0  0  0  0  0  0  0  0  0  0
   10.7570  -16.8200   22.9459 O   0  0  0  0  0  0  0  0  0  0  0  0
    8.6541  -13.5464   28.3438 N   0  0  0  0  0  0  0  0  0  0  0  0
    9.8952  -14.1567   28.6298 C   0  0  0  0  0  0  0  0  0  0  0  0
   10.4798  -13.8641   29.7261 O   0  0  0  0  0  0  0  0  0  0  0  0
   10.5421  -15.1206   27.7240 C   0  0  0  0  0  0  0  0  0  0  0  0
    9.7443  -15.4407   26.5222 C   0  0  0  0  0  0  0  0  0  0  0  0
   10.2646  -16.4947   25.5971 C   0  0  2  0  0  0  0  0  0  0  0  0
    9.1787  -16.7250   24.6149 N   0  0  0  0  0  0  0  0  0  0  0  0
   10.6684  -17.7607   26.1791 C   0  0  0  0  0  0  0  0  0  0  0  0
   10.0947  -18.8398   25.8373 O   0  0  0  0  0  0  0  0  0  0  0  0
   11.6912  -17.9112   27.1257 O   0  0  0  0  0  0  0  0  0  0  0  0
  2  1  1  0
  3  2  2  0
  4  2  1  0
  4  5  1  0
  5  6  1  6
  7  5  1  0
  7  8  2  0
  9  7  1  0
 10  9  1  0
 10 11  1  6
 12 11  1  0
 12 13  1  0
 13 14  1  0
 14 15  1  0
 16 10  1  0
 17 16  2  0
 19 18  1  0
 20 19  2  0
 21 19  1  0
 22 21  1  0
 23 22  1  1
 23 24  1  0
 24 16  1  0
 25 23  1  0
 26 25  2  0
 27 25  1  0
M  END
$$$$
