NKQ.pdb
     RDKit          3D

 27 26  0  0  1  0  0  0  0  0999 V2000
    6.0970  -22.0682   17.7535 N   0  0  0  0  0  0  0  0  0  0  0  0
    7.0711  -21.4945   16.8893 C   0  0  0  0  0  0  0  0  0  0  0  0
    7.0597  -21.8359   15.6862 O   0  0  0  0  0  0  0  0  0  0  0  0
    8.0758  -20.5209   17.3798 C   0  0  0  0  0  0  0  0  0  0  0  0
    7.9111  -20.3871   18.8610 C   0  0  2  0  0  0  0  0  0  0  0  0
    6.4938  -20.3835   19.1598 N   0  0  0  0  0  0  0  0  0  0  0  0
    8.5323  -19.1941   19.4341 C   0  0  0  0  0  0  0  0  0  0  0  0
    9.7790  -19.1948   19.5945 O   0  0  0  0  0  0  0  0  0  0  0  0
    7.8447  -18.0317   19.8262 N   0  0  0  0  0  0  0  0  0  0  0  0
    8.4997  -16.8474   20.3963 C   0  0  1  0  0  0  0  0  0  0  0  0
    7.5551  -15.6923   20.3659 C   0  0  0  0  0  0  0  0  0  0  0  0
    8.0379  -14.4009   20.9366 C   0  0  0  0  0  0  0  0  0  0  0  0
    8.3378  -13.4461   19.8051 C   0  0  0  0  0  0  0  0  0  0  0  0
    8.8094  -12.1036   20.3238 C   0  0  0  0  0  0  0  0  0  0  0  0
    9.0379  -11.2702   19.1554 N   0  0  0  0  0  0  0  0  0  0  0  0
    8.9452  -17.2423   21.7567 C   0  0  0  0  0  0  0  0  0  0  0  0
    8.1226  -17.9028   22.4755 O   0  0  0  0  0  0  0  0  0  0  0  0
   14.5826  -18.9014   23.4766 N   0  0  0  0  0  0  0  0  0  0  0  0
   13.8868  -18.9549   24.7044 C   0  0  0  0  0  0  0  0  0  0  0  0
   14.4885  -19.4285   25.7257 O   0  0  0  0  0  0  0  0  0  0  0  0
   12.5010  -18.4825   24.8617 C   0  0  0  0  0  0  0  0  0  0  0  0
   11.9030  -17.9572   23.6169 C   0  0  0  0  0  0  0  0  0  0  0  0
   10.5074  -17.4229   23.6820 C   0  0  2  0  0  0  0  0  0  0  0  0
   10.2062  -16.9448   22.3118 N   0  0  0  0  0  0  0  0  0  0  0  0
   10.2365  -16.3637   24.6356 C   0  0  0  0  0  0  0  0  0  0  0  0
   10.4076  -15.1479   24.3147 O   0  0  0  0  0  0  0  0  0  0  0  0
    9.7717  -16.5688   25.9420 O   0  0  0  0  0  0  0  0  0  0  0  0
  2  1  1  0
  3  2  2  0
  4  2  1  0
  4  5  1  0
  5  6  1  6
  7  5  1  0
  7  8  2  0
  9  7  1  0
 10  9  1  0
 10 11  1  1
 12 11  1  0
 12 13  1  0
 13 14  1  0
 14 15  1  0
 16 10  1  0
 17 16  2  0
 19 18  1  0
 20 19  2  0
 21 19  1  0
 22 21  1  0
 23 22  1  6
 23 24  1  0
 24 16  1  0
 25 23  1  0
 26 25  2  0
 27 25  1  0
M  END
$$$$
