NKQ.pdb
     RDKit          3D

 27 26  0  0  1  0  0  0  0  0999 V2000
    6.7850  -21.7947   24.3563 N   0  0  0  0  0  0  0  0  0  0  0  0
    5.4751  -21.5964   23.8372 C   0  0  0  0  0  0  0  0  0  0  0  0
    4.8170  -22.6076   23.5076 O   0  0  0  0  0  0  0  0  0  0  0  0
    4.8906  -20.2425   23.6843 C   0  0  0  0  0  0  0  0  0  0  0  0
    5.0753  -19.8127   22.2630 C   0  0  2  0  0  0  0  0  0  0  0  0
    5.1947  -21.0008   21.4433 N   0  0  0  0  0  0  0  0  0  0  0  0
    6.2321  -18.9475   22.0374 C   0  0  0  0  0  0  0  0  0  0  0  0
    7.3242  -19.4877   21.7285 O   0  0  0  0  0  0  0  0  0  0  0  0
    6.2263  -17.5448   22.1380 N   0  0  0  0  0  0  0  0  0  0  0  0
    7.4010  -16.7018   21.8806 C   0  0  1  0  0  0  0  0  0  0  0  0
    6.9555  -15.3303   21.4962 C   0  0  0  0  0  0  0  0  0  0  0  0
    8.0057  -14.3763   21.0340 C   0  0  0  0  0  0  0  0  0  0  0  0
    7.5066  -13.6553   19.8041 C   0  0  0  0  0  0  0  0  0  0  0  0
    8.5547  -12.7118   19.2518 C   0  0  0  0  0  0  0  0  0  0  0  0
    7.9561  -12.0655   18.0960 N   0  0  0  0  0  0  0  0  0  0  0  0
    8.2228  -16.7582   23.1161 C   0  0  0  0  0  0  0  0  0  0  0  0
    7.6424  -17.1285   24.1912 O   0  0  0  0  0  0  0  0  0  0  0  0
   15.2266  -18.2163   23.6944 N   0  0  0  0  0  0  0  0  0  0  0  0
   14.0564  -18.0477   22.9218 C   0  0  0  0  0  0  0  0  0  0  0  0
   14.1551  -17.4818   21.7819 O   0  0  0  0  0  0  0  0  0  0  0  0
   12.7287  -18.5015   23.3685 C   0  0  0  0  0  0  0  0  0  0  0  0
   11.6189  -17.6329   22.9246 C   0  0  0  0  0  0  0  0  0  0  0  0
   10.5042  -17.3741   23.8879 C   0  0  2  0  0  0  0  0  0  0  0  0
    9.5930  -16.4361   23.1903 N   0  0  0  0  0  0  0  0  0  0  0  0
   10.8515  -16.8352   25.1892 C   0  0  0  0  0  0  0  0  0  0  0  0
   10.7019  -15.5994   25.4362 O   0  0  0  0  0  0  0  0  0  0  0  0
   11.3543  -17.5928   26.2559 O   0  0  0  0  0  0  0  0  0  0  0  0
  2  1  1  0
  3  2  2  0
  4  2  1  0
  4  5  1  0
  5  6  1  6
  7  5  1  0
  7  8  2  0
  9  7  1  0
 10  9  1  0
 10 11  1  1
 12 11  1  0
 12 13  1  0
 13 14  1  0
 14 15  1  0
 16 10  1  0
 17 16  2  0
 19 18  1  0
 20 19  2  0
 21 19  1  0
 22 21  1  0
 23 22  1  6
 23 24  1  0
 24 16  1  0
 25 23  1  0
 26 25  2  0
 27 25  1  0
M  END
$$$$
