NKQ.pdb
     RDKit          3D

 27 26  0  0  1  0  0  0  0  0999 V2000
   15.2162  -13.6629   18.9821 N   0  0  0  0  0  0  0  0  0  0  0  0
   14.0283  -14.2553   18.4696 C   0  0  0  0  0  0  0  0  0  0  0  0
   14.0826  -14.7946   17.3425 O   0  0  0  0  0  0  0  0  0  0  0  0
   12.7568  -14.2446   19.2319 C   0  0  0  0  0  0  0  0  0  0  0  0
   12.7559  -15.4233   20.1537 C   0  0  2  0  0  0  0  0  0  0  0  0
   12.8286  -16.6259   19.3498 N   0  0  0  0  0  0  0  0  0  0  0  0
   11.5946  -15.4990   21.0388 C   0  0  0  0  0  0  0  0  0  0  0  0
   11.3588  -14.5200   21.7911 O   0  0  0  0  0  0  0  0  0  0  0  0
   10.7084  -16.5878   21.1209 N   0  0  0  0  0  0  0  0  0  0  0  0
    9.6156  -16.6807   22.0976 C   0  0  1  0  0  0  0  0  0  0  0  0
    8.7174  -17.8158   21.7341 C   0  0  0  0  0  0  0  0  0  0  0  0
    7.6265  -18.1568   22.6932 C   0  0  0  0  0  0  0  0  0  0  0  0
    6.7789  -19.2580   22.1010 C   0  0  0  0  0  0  0  0  0  0  0  0
    5.6026  -19.5927   22.9944 C   0  0  0  0  0  0  0  0  0  0  0  0
    4.8014  -20.5648   22.2700 N   0  0  0  0  0  0  0  0  0  0  0  0
   10.2654  -16.8113   23.4263 C   0  0  0  0  0  0  0  0  0  0  0  0
   11.3099  -17.5415   23.5002 O   0  0  0  0  0  0  0  0  0  0  0  0
    9.6320  -13.1411   28.4884 N   0  0  0  0  0  0  0  0  0  0  0  0
   10.3024  -14.2686   29.0118 C   0  0  0  0  0  0  0  0  0  0  0  0
   10.6338  -14.2626   30.2445 O   0  0  0  0  0  0  0  0  0  0  0  0
   10.6301  -15.4538   28.2018 C   0  0  0  0  0  0  0  0  0  0  0  0
   10.1903  -15.3571   26.7946 C   0  0  0  0  0  0  0  0  0  0  0  0
   10.5199  -16.4928   25.8787 C   0  0  2  0  0  0  0  0  0  0  0  0
    9.8175  -16.1893   24.6093 N   0  0  0  0  0  0  0  0  0  0  0  0
   10.1735  -17.8319   26.3162 C   0  0  0  0  0  0  0  0  0  0  0  0
   11.0324  -18.5624   26.8985 O   0  0  0  0  0  0  0  0  0  0  0  0
    8.9117  -18.4205   26.1547 O   0  0  0  0  0  0  0  0  0  0  0  0
  2  1  1  0
  3  2  2  0
  4  2  1  0
  4  5  1  0
  5  6  1  6
  7  5  1  0
  7  8  2  0
  9  7  1  0
 10  9  1  0
 10 11  1  6
 12 11  1  0
 12 13  1  0
 13 14  1  0
 14 15  1  0
 16 10  1  0
 17 16  2  0
 19 18  1  0
 20 19  2  0
 21 19  1  0
 22 21  1  0
 23 22  1  1
 23 24  1  0
 24 16  1  0
 25 23  1  0
 26 25  2  0
 27 25  1  0
M  END
$$$$
