NKQ.pdb
     RDKit          3D

 27 26  0  0  1  0  0  0  0  0999 V2000
    8.2475  -11.7370   18.9068 N   0  0  0  0  0  0  0  0  0  0  0  0
    7.7444  -13.0679   18.9226 C   0  0  0  0  0  0  0  0  0  0  0  0
    7.9511  -13.7837   17.9181 O   0  0  0  0  0  0  0  0  0  0  0  0
    6.9967  -13.6080   20.0834 C   0  0  0  0  0  0  0  0  0  0  0  0
    7.9030  -14.5338   20.8320 C   0  0  2  0  0  0  0  0  0  0  0  0
    8.3072  -15.5954   19.9334 N   0  0  0  0  0  0  0  0  0  0  0  0
    7.3140  -15.1144   22.0376 C   0  0  0  0  0  0  0  0  0  0  0  0
    6.9233  -14.3328   22.9412 O   0  0  0  0  0  0  0  0  0  0  0  0
    7.1455  -16.4902   22.2750 N   0  0  0  0  0  0  0  0  0  0  0  0
    6.6338  -17.0461   23.5344 C   0  0  1  0  0  0  0  0  0  0  0  0
    5.8157  -18.2607   23.2471 C   0  0  0  0  0  0  0  0  0  0  0  0
    4.9659  -18.2365   22.0208 C   0  0  0  0  0  0  0  0  0  0  0  0
    4.3917  -19.6153   21.7945 C   0  0  0  0  0  0  0  0  0  0  0  0
    3.4779  -19.6432   20.5871 C   0  0  0  0  0  0  0  0  0  0  0  0
    3.0482  -21.0225   20.4301 N   0  0  0  0  0  0  0  0  0  0  0  0
    7.8253  -17.2937   24.3853 C   0  0  0  0  0  0  0  0  0  0  0  0
    8.9600  -17.3552   23.8037 O   0  0  0  0  0  0  0  0  0  0  0  0
    9.0092  -13.1459   27.8508 N   0  0  0  0  0  0  0  0  0  0  0  0
    9.9935  -14.0227   28.3576 C   0  0  0  0  0  0  0  0  0  0  0  0
   10.8190  -13.5770   29.2233 O   0  0  0  0  0  0  0  0  0  0  0  0
   10.1064  -15.4296   27.9381 C   0  0  0  0  0  0  0  0  0  0  0  0
    9.0393  -15.8659   27.0139 C   0  0  0  0  0  0  0  0  0  0  0  0
    9.0574  -17.2860   26.5444 C   0  0  2  0  0  0  0  0  0  0  0  0
    7.7975  -17.4637   25.7843 N   0  0  0  0  0  0  0  0  0  0  0  0
    9.1676  -18.3256   27.5503 C   0  0  0  0  0  0  0  0  0  0  0  0
   10.2218  -18.4390   28.2477 O   0  0  0  0  0  0  0  0  0  0  0  0
    8.1634  -19.2583   27.8440 O   0  0  0  0  0  0  0  0  0  0  0  0
  2  1  1  0
  3  2  2  0
  4  2  1  0
  4  5  1  0
  5  6  1  6
  7  5  1  0
  7  8  2  0
  9  7  1  0
 10  9  1  0
 10 11  1  6
 12 11  1  0
 12 13  1  0
 13 14  1  0
 14 15  1  0
 16 10  1  0
 17 16  2  0
 19 18  1  0
 20 19  2  0
 21 19  1  0
 22 21  1  0
 23 22  1  1
 23 24  1  0
 24 16  1  0
 25 23  1  0
 26 25  2  0
 27 25  1  0
M  END
$$$$
