NKQ.pdb
     RDKit          3D

 27 26  0  0  1  0  0  0  0  0999 V2000
   15.9703  -16.6627   17.2080 N   0  0  0  0  0  0  0  0  0  0  0  0
   15.2103  -17.8514   17.3926 C   0  0  0  0  0  0  0  0  0  0  0  0
   15.7826  -18.9472   17.2031 O   0  0  0  0  0  0  0  0  0  0  0  0
   13.7844  -17.8137   17.7969 C   0  0  0  0  0  0  0  0  0  0  0  0
   13.7013  -18.1725   19.2471 C   0  0  2  0  0  0  0  0  0  0  0  0
   13.1246  -19.4969   19.3528 N   0  0  0  0  0  0  0  0  0  0  0  0
   12.9243  -17.2371   20.0589 C   0  0  0  0  0  0  0  0  0  0  0  0
   13.4825  -16.7132   21.0558 O   0  0  0  0  0  0  0  0  0  0  0  0
   11.5888  -16.8696   19.8159 N   0  0  0  0  0  0  0  0  0  0  0  0
   10.8690  -15.8472   20.5863 C   0  0  1  0  0  0  0  0  0  0  0  0
    9.8712  -15.1708   19.7065 C   0  0  0  0  0  0  0  0  0  0  0  0
    8.9322  -14.2087   20.3538 C   0  0  0  0  0  0  0  0  0  0  0  0
    8.1064  -13.5340   19.2840 C   0  0  0  0  0  0  0  0  0  0  0  0
    7.0772  -12.5999   19.8857 C   0  0  0  0  0  0  0  0  0  0  0  0
    6.3502  -12.0178   18.7701 N   0  0  0  0  0  0  0  0  0  0  0  0
   10.2819  -16.5533   21.7532 C   0  0  0  0  0  0  0  0  0  0  0  0
    9.9766  -17.7837   21.6026 O   0  0  0  0  0  0  0  0  0  0  0  0
   13.5962  -19.2042   24.1244 N   0  0  0  0  0  0  0  0  0  0  0  0
   12.7560  -19.2603   25.2582 C   0  0  0  0  0  0  0  0  0  0  0  0
   13.1265  -19.9635   26.2570 O   0  0  0  0  0  0  0  0  0  0  0  0
   11.4753  -18.5386   25.3434 C   0  0  0  0  0  0  0  0  0  0  0  0
   11.1980  -17.6724   24.1789 C   0  0  0  0  0  0  0  0  0  0  0  0
    9.9465  -16.8534   24.1981 C   0  0  2  0  0  0  0  0  0  0  0  0
   10.0387  -15.9687   23.0125 N   0  0  0  0  0  0  0  0  0  0  0  0
    9.6837  -16.0544   25.3801 C   0  0  0  0  0  0  0  0  0  0  0  0
    9.8632  -14.7983   25.3623 O   0  0  0  0  0  0  0  0  0  0  0  0
    9.2182  -16.5661   26.5992 O   0  0  0  0  0  0  0  0  0  0  0  0
  2  1  1  0
  3  2  2  0
  4  2  1  0
  4  5  1  0
  5  6  1  6
  7  5  1  0
  7  8  2  0
  9  7  1  0
 10  9  1  0
 10 11  1  6
 12 11  1  0
 12 13  1  0
 13 14  1  0
 14 15  1  0
 16 10  1  0
 17 16  2  0
 19 18  1  0
 20 19  2  0
 21 19  1  0
 22 21  1  0
 23 22  1  1
 23 24  1  0
 24 16  1  0
 25 23  1  0
 26 25  2  0
 27 25  1  0
M  END
$$$$
