STE.pdb
     RDKit          3D

 23 22  0  0  1  0  0  0  0  0999 V2000
    7.3194  -19.0922   19.0523 O   0  0  0  0  0  0  0  0  0  0  0  0
    7.8791  -18.8332   17.8105 C   0  0  0  0  0  0  0  0  0  0  0  0
    7.9159  -17.3560   17.5187 C   0  0  2  0  0  0  0  0  0  0  0  0
    8.5645  -17.1695   16.2375 N   0  0  0  0  0  0  0  0  0  0  0  0
    8.5899  -16.5543   18.5488 C   0  0  0  0  0  0  0  0  0  0  0  0
    9.8532  -16.4402   18.5112 O   0  0  0  0  0  0  0  0  0  0  0  0
    7.4902  -12.9884   20.2483 C   0  0  0  0  0  0  0  0  0  0  0  0
    7.8451  -14.0715   21.2395 C   0  0  1  0  0  0  0  0  0  0  0  0
    6.6720  -14.6023   21.7698 O   0  0  0  0  0  0  0  0  0  0  0  0
    8.6983  -15.1247   20.5896 C   0  0  2  0  0  0  0  0  0  0  0  0
    7.9343  -15.8816   19.6059 N   0  0  0  0  0  0  0  0  0  0  0  0
    9.1265  -16.0772   21.6446 C   0  0  0  0  0  0  0  0  0  0  0  0
    8.6509  -17.2373   21.7074 O   0  0  0  0  0  0  0  0  0  0  0  0
   10.0934  -15.7254   22.6335 N   0  0  0  0  0  0  0  0  0  0  0  0
   10.5563  -16.6785   23.6278 C   0  0  1  0  0  0  0  0  0  0  0  0
   11.9550  -17.0820   23.2857 C   0  0  0  0  0  0  0  0  0  0  0  0
   12.5728  -17.9994   24.3155 C   0  0  0  0  0  0  0  0  0  0  0  0
   13.8627  -18.4649   23.7713 C   0  0  0  0  0  0  0  0  0  0  0  0
   14.3198  -17.9381   22.7388 O   0  0  0  0  0  0  0  0  0  0  0  0
   10.3949  -16.1782   24.9929 C   0  0  0  0  0  0  0  0  0  0  0  0
   10.4922  -16.9942   26.1025 O   0  0  0  0  0  0  0  0  0  0  0  0
   14.5565  -19.4702   24.3948 O   0  0  0  0  0  0  0  0  0  0  0  0
   10.1585  -14.9623   25.1791 O   0  0  0  0  0  0  0  0  0  0  0  0
  2  1  1  0
  3  4  1  6
  3  2  1  0
  5  3  1  0
  6  5  2  0
  8  7  1  6
  8 10  1  0
  9  8  1  0
 10 12  1  0
 10 11  1  6
 11  5  1  0
 12 14  1  0
 13 12  2  0
 14 15  1  0
 15 20  1  0
 15 16  1  6
 16 17  1  0
 18 17  1  0
 18 22  1  0
 19 18  2  0
 20 23  2  0
 20 21  1  0
M  END
$$$$
