STE.pdb
     RDKit          3D

 23 22  0  0  1  0  0  0  0  0999 V2000
   10.2178  -11.8905   16.5611 O   0  0  0  0  0  0  0  0  0  0  0  0
    9.8783  -12.4494   17.7836 C   0  0  0  0  0  0  0  0  0  0  0  0
    9.0404  -13.6889   17.6104 C   0  0  2  0  0  0  0  0  0  0  0  0
    7.7122  -13.2777   17.2061 N   0  0  0  0  0  0  0  0  0  0  0  0
    8.9653  -14.5383   18.8066 C   0  0  0  0  0  0  0  0  0  0  0  0
    8.1194  -14.2563   19.7096 O   0  0  0  0  0  0  0  0  0  0  0  0
    8.0608  -18.1143   19.1140 C   0  0  0  0  0  0  0  0  0  0  0  0
    9.3655  -17.9371   19.8540 C   0  0  1  0  0  0  0  0  0  0  0  0
   10.4039  -18.4248   19.0647 O   0  0  0  0  0  0  0  0  0  0  0  0
    9.5699  -16.4959   20.2289 C   0  0  2  0  0  0  0  0  0  0  0  0
    9.7758  -15.6725   19.0440 N   0  0  0  0  0  0  0  0  0  0  0  0
   10.8057  -16.4100   21.0467 C   0  0  0  0  0  0  0  0  0  0  0  0
   11.8982  -16.0533   20.5417 O   0  0  0  0  0  0  0  0  0  0  0  0
   10.8147  -16.7260   22.4385 N   0  0  0  0  0  0  0  0  0  0  0  0
   12.0196  -16.6156   23.2429 C   0  0  1  0  0  0  0  0  0  0  0  0
   11.6420  -16.7344   24.6850 C   0  0  0  0  0  0  0  0  0  0  0  0
   11.1851  -18.1246   25.0625 C   0  0  0  0  0  0  0  0  0  0  0  0
   10.9145  -18.1191   26.5128 C   0  0  0  0  0  0  0  0  0  0  0  0
   11.0839  -17.0712   27.1653 O   0  0  0  0  0  0  0  0  0  0  0  0
   13.0584  -17.5536   22.8173 C   0  0  0  0  0  0  0  0  0  0  0  0
   14.3958  -17.3660   23.1050 O   0  0  0  0  0  0  0  0  0  0  0  0
   10.4796  -19.2576   27.1417 O   0  0  0  0  0  0  0  0  0  0  0  0
   12.7373  -18.5732   22.1645 O   0  0  0  0  0  0  0  0  0  0  0  0
  2  1  1  0
  3  4  1  1
  3  2  1  0
  5  3  1  0
  6  5  2  0
  8  7  1  6
  8 10  1  0
  9  8  1  0
 10 12  1  0
 10 11  1  6
 11  5  1  0
 12 14  1  0
 13 12  2  0
 14 15  1  0
 15 20  1  0
 15 16  1  1
 16 17  1  0
 18 17  1  0
 18 22  1  0
 19 18  2  0
 20 23  2  0
 20 21  1  0
M  END
$$$$
