STE.pdb
     RDKit          3D

 23 22  0  0  1  0  0  0  0  0999 V2000
    7.6113  -19.3832   20.3459 O   0  0  0  0  0  0  0  0  0  0  0  0
    6.8303  -18.5496   19.5602 C   0  0  0  0  0  0  0  0  0  0  0  0
    7.5766  -17.3012   19.1688 C   0  0  2  0  0  0  0  0  0  0  0  0
    8.3889  -17.6107   18.0107 N   0  0  0  0  0  0  0  0  0  0  0  0
    8.4123  -16.7379   20.2376 C   0  0  0  0  0  0  0  0  0  0  0  0
    9.6716  -16.8820   20.1748 O   0  0  0  0  0  0  0  0  0  0  0  0
    8.2312  -13.1933   22.0860 C   0  0  0  0  0  0  0  0  0  0  0  0
    8.3043  -14.3355   23.0716 C   0  0  1  0  0  0  0  0  0  0  0  0
    7.0440  -14.5337   23.6297 O   0  0  0  0  0  0  0  0  0  0  0  0
    8.8286  -15.5767   22.4052 C   0  0  2  0  0  0  0  0  0  0  0  0
    7.9208  -16.0306   21.3592 N   0  0  0  0  0  0  0  0  0  0  0  0
    8.8938  -16.6492   23.4295 C   0  0  0  0  0  0  0  0  0  0  0  0
    7.9597  -17.4764   23.5677 O   0  0  0  0  0  0  0  0  0  0  0  0
   10.0134  -16.7936   24.3026 N   0  0  0  0  0  0  0  0  0  0  0  0
   10.0674  -17.8333   25.3161 C   0  0  1  0  0  0  0  0  0  0  0  0
   10.7362  -19.0355   24.7299 C   0  0  0  0  0  0  0  0  0  0  0  0
   12.1430  -18.7550   24.2547 C   0  0  0  0  0  0  0  0  0  0  0  0
   12.6932  -20.0229   23.7389 C   0  0  0  0  0  0  0  0  0  0  0  0
   11.9891  -21.0508   23.7572 O   0  0  0  0  0  0  0  0  0  0  0  0
   10.6703  -17.3618   26.5628 C   0  0  0  0  0  0  0  0  0  0  0  0
   10.7300  -18.1386   27.7028 O   0  0  0  0  0  0  0  0  0  0  0  0
   13.9704  -20.0737   23.2418 O   0  0  0  0  0  0  0  0  0  0  0  0
   11.1564  -16.2085   26.6139 O   0  0  0  0  0  0  0  0  0  0  0  0
  2  1  1  0
  3  4  1  6
  3  2  1  0
  5  3  1  0
  6  5  2  0
  8  7  1  6
  8 10  1  0
  9  8  1  0
 10 12  1  0
 10 11  1  6
 11  5  1  0
 12 14  1  0
 13 12  2  0
 14 15  1  0
 15 20  1  0
 15 16  1  6
 16 17  1  0
 18 17  1  0
 18 22  1  0
 19 18  2  0
 20 23  2  0
 20 21  1  0
M  END
$$$$
