STE.pdb
     RDKit          3D

 23 22  0  0  1  0  0  0  0  0999 V2000
   10.0828  -17.7894   15.3492 O   0  0  0  0  0  0  0  0  0  0  0  0
    8.7883  -17.2978   15.4194 C   0  0  0  0  0  0  0  0  0  0  0  0
    8.7601  -15.7971   15.2946 C   0  0  2  0  0  0  0  0  0  0  0  0
    9.4376  -15.4379   14.0663 N   0  0  0  0  0  0  0  0  0  0  0  0
    9.3611  -15.0859   16.4309 C   0  0  0  0  0  0  0  0  0  0  0  0
   10.5155  -14.5762   16.2970 O   0  0  0  0  0  0  0  0  0  0  0  0
    7.6520  -12.4194   18.9815 C   0  0  0  0  0  0  0  0  0  0  0  0
    8.4032  -13.5324   19.6732 C   0  0  1  0  0  0  0  0  0  0  0  0
    7.4887  -14.4675   20.1510 O   0  0  0  0  0  0  0  0  0  0  0  0
    9.4088  -14.1503   18.7423 C   0  0  2  0  0  0  0  0  0  0  0  0
    8.7474  -14.9165   17.6936 N   0  0  0  0  0  0  0  0  0  0  0  0
   10.2334  -15.1004   19.5303 C   0  0  0  0  0  0  0  0  0  0  0  0
   10.0050  -16.3346   19.5093 O   0  0  0  0  0  0  0  0  0  0  0  0
   11.3198  -14.6625   20.3456 N   0  0  0  0  0  0  0  0  0  0  0  0
   12.0724  -15.5828   21.1809 C   0  0  1  0  0  0  0  0  0  0  0  0
   13.4844  -15.0986   21.2707 C   0  0  0  0  0  0  0  0  0  0  0  0
   14.1932  -15.0964   19.9360 C   0  0  0  0  0  0  0  0  0  0  0  0
   15.5804  -14.6556   20.1764 C   0  0  0  0  0  0  0  0  0  0  0  0
   15.9086  -13.4845   19.9055 O   0  0  0  0  0  0  0  0  0  0  0  0
   11.4325  -15.8047   22.4775 C   0  0  0  0  0  0  0  0  0  0  0  0
   11.8512  -16.7824   23.3581 O   0  0  0  0  0  0  0  0  0  0  0  0
   16.5051  -15.5260   20.6943 O   0  0  0  0  0  0  0  0  0  0  0  0
   10.4640  -15.0866   22.8170 O   0  0  0  0  0  0  0  0  0  0  0  0
  2  1  1  0
  3  4  1  6
  3  2  1  0
  5  3  1  0
  6  5  2  0
  8  7  1  6
  8 10  1  0
  9  8  1  0
 10 12  1  0
 10 11  1  6
 11  5  1  0
 12 14  1  0
 13 12  2  0
 14 15  1  0
 15 20  1  0
 15 16  1  1
 16 17  1  0
 18 17  1  0
 18 22  1  0
 19 18  2  0
 20 23  2  0
 20 21  1  0
M  END
$$$$
