STE.pdb
     RDKit          3D

 23 22  0  0  1  0  0  0  0  0999 V2000
   12.3598  -17.0599   16.4796 O   0  0  0  0  0  0  0  0  0  0  0  0
   11.2400  -16.4240   15.9658 C   0  0  0  0  0  0  0  0  0  0  0  0
   11.2891  -14.9383   16.2080 C   0  0  2  0  0  0  0  0  0  0  0  0
   12.5366  -14.4385   15.6689 N   0  0  0  0  0  0  0  0  0  0  0  0
   11.1567  -14.5524   17.6193 C   0  0  0  0  0  0  0  0  0  0  0  0
   12.1989  -14.2387   18.2719 O   0  0  0  0  0  0  0  0  0  0  0  0
    8.0456  -12.4198   19.2099 C   0  0  0  0  0  0  0  0  0  0  0  0
    8.5037  -13.5706   20.0743 C   0  0  1  0  0  0  0  0  0  0  0  0
    7.5900  -14.6151   19.9596 O   0  0  0  0  0  0  0  0  0  0  0  0
    9.8959  -13.9940   19.6975 C   0  0  2  0  0  0  0  0  0  0  0  0
    9.9359  -14.4994   18.3310 N   0  0  0  0  0  0  0  0  0  0  0  0
   10.2892  -15.1106   20.5931 C   0  0  0  0  0  0  0  0  0  0  0  0
   10.7656  -16.1775   20.1342 O   0  0  0  0  0  0  0  0  0  0  0  0
   10.1471  -15.0285   22.0108 N   0  0  0  0  0  0  0  0  0  0  0  0
   10.8518  -15.9299   22.9064 C   0  0  1  0  0  0  0  0  0  0  0  0
   12.3157  -15.8447   22.6127 C   0  0  0  0  0  0  0  0  0  0  0  0
   13.1575  -16.6557   23.5706 C   0  0  0  0  0  0  0  0  0  0  0  0
   14.5624  -16.5244   23.1397 C   0  0  0  0  0  0  0  0  0  0  0  0
   14.9760  -17.2010   22.1786 O   0  0  0  0  0  0  0  0  0  0  0  0
   10.5087  -15.6981   24.3094 C   0  0  0  0  0  0  0  0  0  0  0  0
   10.7689  -16.6210   25.3030 O   0  0  0  0  0  0  0  0  0  0  0  0
   15.4100  -15.6646   23.7901 O   0  0  0  0  0  0  0  0  0  0  0  0
    9.9558  -14.6234   24.6385 O   0  0  0  0  0  0  0  0  0  0  0  0
  2  1  1  0
  3  4  1  1
  3  2  1  0
  5  3  1  0
  6  5  2  0
  8  7  1  6
  8 10  1  0
  9  8  1  0
 10 12  1  0
 10 11  1  6
 11  5  1  0
 12 14  1  0
 13 12  2  0
 14 15  1  0
 15 20  1  0
 15 16  1  1
 16 17  1  0
 18 17  1  0
 18 22  1  0
 19 18  2  0
 20 23  2  0
 20 21  1  0
M  END
$$$$
