STE.pdb
     RDKit          3D

 23 22  0  0  1  0  0  0  0  0999 V2000
    9.4887  -18.1401   16.7162 O   0  0  0  0  0  0  0  0  0  0  0  0
    8.1765  -17.6923   16.7138 C   0  0  0  0  0  0  0  0  0  0  0  0
    8.1061  -16.1895   16.6421 C   0  0  2  0  0  0  0  0  0  0  0  0
    8.6747  -15.7753   15.3764 N   0  0  0  0  0  0  0  0  0  0  0  0
    8.7812  -15.5005   17.7501 C   0  0  0  0  0  0  0  0  0  0  0  0
    9.8874  -14.9187   17.5303 O   0  0  0  0  0  0  0  0  0  0  0  0
    7.6226  -12.6274   19.9589 C   0  0  0  0  0  0  0  0  0  0  0  0
    8.0857  -13.7606   20.8437 C   0  0  1  0  0  0  0  0  0  0  0  0
    6.9715  -14.4354   21.3360 O   0  0  0  0  0  0  0  0  0  0  0  0
    9.0128  -14.6742   20.0919 C   0  0  2  0  0  0  0  0  0  0  0  0
    8.2911  -15.4282   19.0746 N   0  0  0  0  0  0  0  0  0  0  0  0
    9.5669  -15.6550   21.0586 C   0  0  0  0  0  0  0  0  0  0  0  0
    9.1009  -16.8172   21.1476 O   0  0  0  0  0  0  0  0  0  0  0  0
   10.6495  -15.3291   21.9295 N   0  0  0  0  0  0  0  0  0  0  0  0
   11.1455  -16.2673   22.9219 C   0  0  1  0  0  0  0  0  0  0  0  0
   12.5681  -15.9255   23.2313 C   0  0  0  0  0  0  0  0  0  0  0  0
   13.5094  -16.2277   22.0882 C   0  0  0  0  0  0  0  0  0  0  0  0
   14.8564  -15.7905   22.5015 C   0  0  0  0  0  0  0  0  0  0  0  0
   15.3225  -16.1813   23.5890 O   0  0  0  0  0  0  0  0  0  0  0  0
   10.2786  -16.3406   24.0979 C   0  0  0  0  0  0  0  0  0  0  0  0
    9.1984  -15.5004   24.2817 O   0  0  0  0  0  0  0  0  0  0  0  0
   15.5934  -14.9597   21.6968 O   0  0  0  0  0  0  0  0  0  0  0  0
   10.5129  -17.1954   24.9830 O   0  0  0  0  0  0  0  0  0  0  0  0
  2  1  1  0
  3  4  1  6
  3  2  1  0
  5  3  1  0
  6  5  2  0
  8  7  1  6
  8 10  1  0
  9  8  1  0
 10 12  1  0
 10 11  1  6
 11  5  1  0
 12 14  1  0
 13 12  2  0
 14 15  1  0
 15 20  1  0
 15 16  1  1
 16 17  1  0
 18 17  1  0
 18 22  1  0
 19 18  2  0
 20 23  2  0
 20 21  1  0
M  END
$$$$
