STE.pdb
     RDKit          3D

 23 22  0  0  1  0  0  0  0  0999 V2000
    8.6179  -19.7771   19.6440 O   0  0  0  0  0  0  0  0  0  0  0  0
    7.4225  -19.3198   19.1109 C   0  0  0  0  0  0  0  0  0  0  0  0
    7.5855  -17.9663   18.4707 C   0  0  2  0  0  0  0  0  0  0  0  0
    8.2145  -18.1551   17.1802 N   0  0  0  0  0  0  0  0  0  0  0  0
    8.3561  -17.0078   19.2742 C   0  0  0  0  0  0  0  0  0  0  0  0
    9.5334  -16.7053   18.9096 O   0  0  0  0  0  0  0  0  0  0  0  0
    7.1590  -13.4862   20.9631 C   0  0  0  0  0  0  0  0  0  0  0  0
    7.8671  -14.4242   21.9118 C   0  0  1  0  0  0  0  0  0  0  0  0
    6.9206  -15.0600   22.7111 O   0  0  0  0  0  0  0  0  0  0  0  0
    8.7149  -15.4053   21.1514 C   0  0  2  0  0  0  0  0  0  0  0  0
    7.8861  -16.3772   20.4494 N   0  0  0  0  0  0  0  0  0  0  0  0
    9.5364  -16.1541   22.1353 C   0  0  0  0  0  0  0  0  0  0  0  0
    9.1769  -17.2780   22.5637 O   0  0  0  0  0  0  0  0  0  0  0  0
   10.7676  -15.6384   22.6403 N   0  0  0  0  0  0  0  0  0  0  0  0
   11.5632  -16.3669   23.6137 C   0  0  1  0  0  0  0  0  0  0  0  0
   12.9818  -15.9050   23.5108 C   0  0  0  0  0  0  0  0  0  0  0  0
   13.9574  -17.0392   23.2975 C   0  0  0  0  0  0  0  0  0  0  0  0
   15.2606  -16.4387   22.9545 C   0  0  0  0  0  0  0  0  0  0  0  0
   15.8440  -15.7194   23.7881 O   0  0  0  0  0  0  0  0  0  0  0  0
   11.0030  -16.2826   24.9625 C   0  0  0  0  0  0  0  0  0  0  0  0
    9.9713  -15.4251   25.2892 O   0  0  0  0  0  0  0  0  0  0  0  0
   15.8289  -16.6684   21.7277 O   0  0  0  0  0  0  0  0  0  0  0  0
   11.4678  -17.0117   25.8688 O   0  0  0  0  0  0  0  0  0  0  0  0
  2  1  1  0
  3  4  1  6
  3  2  1  0
  5  3  1  0
  6  5  2  0
  8  7  1  6
  8 10  1  0
  9  8  1  0
 10 12  1  0
 10 11  1  1
 11  5  1  0
 12 14  1  0
 13 12  2  0
 14 15  1  0
 15 20  1  0
 15 16  1  1
 16 17  1  0
 18 17  1  0
 18 22  1  0
 19 18  2  0
 20 23  2  0
 20 21  1  0
M  END
$$$$
