STE.pdb
     RDKit          3D

 23 22  0  0  1  0  0  0  0  0999 V2000
    9.2301  -18.7989   18.1753 O   0  0  0  0  0  0  0  0  0  0  0  0
    9.6616  -18.0594   17.0848 C   0  0  0  0  0  0  0  0  0  0  0  0
    9.0271  -16.6937   17.0580 C   0  0  2  0  0  0  0  0  0  0  0  0
    9.5334  -15.9883   15.8992 N   0  0  0  0  0  0  0  0  0  0  0  0
    9.2533  -15.8995   18.2730 C   0  0  0  0  0  0  0  0  0  0  0  0
   10.4316  -15.5162   18.5472 O   0  0  0  0  0  0  0  0  0  0  0  0
    6.9705  -12.9358   19.9158 C   0  0  0  0  0  0  0  0  0  0  0  0
    7.3851  -14.0050   20.8988 C   0  0  1  0  0  0  0  0  0  0  0  0
    6.3001  -14.8437   21.1403 O   0  0  0  0  0  0  0  0  0  0  0  0
    8.5798  -14.7600   20.3868 C   0  0  2  0  0  0  0  0  0  0  0  0
    8.2445  -15.5158   19.1865 N   0  0  0  0  0  0  0  0  0  0  0  0
    8.9788  -15.7395   21.4285 C   0  0  0  0  0  0  0  0  0  0  0  0
    9.2338  -16.9336   21.1371 O   0  0  0  0  0  0  0  0  0  0  0  0
    9.0921  -15.3762   22.8040 N   0  0  0  0  0  0  0  0  0  0  0  0
    9.9126  -16.1342   23.7330 C   0  0  1  0  0  0  0  0  0  0  0  0
   11.2823  -16.2786   23.1505 C   0  0  0  0  0  0  0  0  0  0  0  0
   12.2145  -17.0825   24.0271 C   0  0  0  0  0  0  0  0  0  0  0  0
   13.5355  -17.0921   23.3704 C   0  0  0  0  0  0  0  0  0  0  0  0
   14.4316  -16.3303   23.7817 O   0  0  0  0  0  0  0  0  0  0  0  0
    9.8927  -15.5666   25.0811 C   0  0  0  0  0  0  0  0  0  0  0  0
    9.2917  -14.3581   25.3726 O   0  0  0  0  0  0  0  0  0  0  0  0
   13.7792  -17.9324   22.3143 O   0  0  0  0  0  0  0  0  0  0  0  0
   10.4391  -16.1904   26.0199 O   0  0  0  0  0  0  0  0  0  0  0  0
  2  1  1  0
  3  4  1  6
  3  2  1  0
  5  3  1  0
  6  5  2  0
  8  7  1  6
  8 10  1  0
  9  8  1  0
 10 12  1  0
 10 11  1  6
 11  5  1  0
 12 14  1  0
 13 12  2  0
 14 15  1  0
 15 20  1  0
 15 16  1  6
 16 17  1  0
 18 17  1  0
 18 22  1  0
 19 18  2  0
 20 23  2  0
 20 21  1  0
M  END
$$$$
