STE.pdb
     RDKit          3D

 23 22  0  0  1  0  0  0  0  0999 V2000
    8.8004  -18.0465   16.0849 O   0  0  0  0  0  0  0  0  0  0  0  0
    7.8450  -17.1392   15.6533 C   0  0  0  0  0  0  0  0  0  0  0  0
    8.4233  -15.7561   15.5072 C   0  0  2  0  0  0  0  0  0  0  0  0
    9.4666  -15.8115   14.5046 N   0  0  0  0  0  0  0  0  0  0  0  0
    8.9500  -15.1876   16.7552 C   0  0  0  0  0  0  0  0  0  0  0  0
   10.2058  -15.1550   16.9348 O   0  0  0  0  0  0  0  0  0  0  0  0
    6.7042  -14.0769   20.2819 C   0  0  0  0  0  0  0  0  0  0  0  0
    7.7613  -13.1726   19.6935 C   0  0  1  0  0  0  0  0  0  0  0  0
    8.3449  -12.4315   20.7178 O   0  0  0  0  0  0  0  0  0  0  0  0
    8.7763  -13.9738   18.9270 C   0  0  2  0  0  0  0  0  0  0  0  0
    8.1568  -14.6601   17.8004 N   0  0  0  0  0  0  0  0  0  0  0  0
    9.3141  -15.0157   19.8375 C   0  0  0  0  0  0  0  0  0  0  0  0
    8.9263  -16.2075   19.7656 O   0  0  0  0  0  0  0  0  0  0  0  0
   10.2922  -14.7178   20.8332 N   0  0  0  0  0  0  0  0  0  0  0  0
   10.7678  -15.7241   21.7672 C   0  0  1  0  0  0  0  0  0  0  0  0
   12.2631  -15.7218   21.7490 C   0  0  0  0  0  0  0  0  0  0  0  0
   12.8664  -16.7050   22.7253 C   0  0  0  0  0  0  0  0  0  0  0  0
   14.3311  -16.6463   22.5588 C   0  0  0  0  0  0  0  0  0  0  0  0
   14.9393  -17.6395   22.1157 O   0  0  0  0  0  0  0  0  0  0  0  0
   10.1855  -15.5635   23.0995 C   0  0  0  0  0  0  0  0  0  0  0  0
    9.4410  -14.4578   23.4596 O   0  0  0  0  0  0  0  0  0  0  0  0
   15.0218  -15.5083   22.8885 O   0  0  0  0  0  0  0  0  0  0  0  0
   10.3608  -16.4570   23.9597 O   0  0  0  0  0  0  0  0  0  0  0  0
  2  1  1  0
  3  4  1  6
  3  2  1  0
  5  3  1  0
  6  5  2  0
  8  7  1  1
  8 10  1  0
  9  8  1  0
 10 12  1  0
 10 11  1  6
 11  5  1  0
 12 14  1  0
 13 12  2  0
 14 15  1  0
 15 20  1  0
 15 16  1  1
 16 17  1  0
 18 17  1  0
 18 22  1  0
 19 18  2  0
 20 23  2  0
 20 21  1  0
M  END
$$$$
