STE.pdb
     RDKit          3D

 23 22  0  0  1  0  0  0  0  0999 V2000
    8.4627  -18.7201   20.3558 O   0  0  0  0  0  0  0  0  0  0  0  0
    8.4112  -19.0887   19.0202 C   0  0  0  0  0  0  0  0  0  0  0  0
    8.5365  -17.8933   18.1124 C   0  0  2  0  0  0  0  0  0  0  0  0
    8.6029  -18.3733   16.7479 N   0  0  0  0  0  0  0  0  0  0  0  0
    9.6915  -17.0334   18.4034 C   0  0  0  0  0  0  0  0  0  0  0  0
   10.8240  -17.3394   17.9196 O   0  0  0  0  0  0  0  0  0  0  0  0
   10.3399  -13.4237   17.7003 C   0  0  0  0  0  0  0  0  0  0  0  0
   10.6445  -13.6368   19.1643 C   0  0  1  0  0  0  0  0  0  0  0  0
    9.6090  -13.1004   19.9253 O   0  0  0  0  0  0  0  0  0  0  0  0
   10.8602  -15.0962   19.4530 C   0  0  2  0  0  0  0  0  0  0  0  0
    9.6479  -15.8637   19.1969 N   0  0  0  0  0  0  0  0  0  0  0  0
   11.1721  -15.2321   20.8979 C   0  0  0  0  0  0  0  0  0  0  0  0
   10.2615  -15.2612   21.7615 O   0  0  0  0  0  0  0  0  0  0  0  0
   12.5130  -15.3361   21.3753 N   0  0  0  0  0  0  0  0  0  0  0  0
   12.8119  -15.6288   22.7667 C   0  0  1  0  0  0  0  0  0  0  0  0
   12.1352  -16.9090   23.1402 C   0  0  0  0  0  0  0  0  0  0  0  0
   12.5022  -17.3879   24.5257 C   0  0  0  0  0  0  0  0  0  0  0  0
   11.8744  -18.7096   24.7140 C   0  0  0  0  0  0  0  0  0  0  0  0
   11.8169  -19.5045   23.7562 O   0  0  0  0  0  0  0  0  0  0  0  0
   14.2487  -15.6094   23.0413 C   0  0  0  0  0  0  0  0  0  0  0  0
   14.7626  -15.5672   24.3222 O   0  0  0  0  0  0  0  0  0  0  0  0
   11.3565  -19.0642   25.9334 O   0  0  0  0  0  0  0  0  0  0  0  0
   15.0583  -15.6316   22.0859 O   0  0  0  0  0  0  0  0  0  0  0  0
  2  1  1  0
  3  4  1  6
  3  2  1  0
  5  3  1  0
  6  5  2  0
  8  7  1  6
  8 10  1  0
  9  8  1  0
 10 12  1  0
 10 11  1  1
 11  5  1  0
 12 14  1  0
 13 12  2  0
 14 15  1  0
 15 20  1  0
 15 16  1  6
 16 17  1  0
 18 17  1  0
 18 22  1  0
 19 18  2  0
 20 23  2  0
 20 21  1  0
M  END
$$$$
