STE.pdb
     RDKit          3D

 23 22  0  0  1  0  0  0  0  0999 V2000
    7.9591  -15.6938   14.5197 O   0  0  0  0  0  0  0  0  0  0  0  0
    8.6163  -15.5817   15.7354 C   0  0  0  0  0  0  0  0  0  0  0  0
    8.0286  -14.4829   16.5814 C   0  0  2  0  0  0  0  0  0  0  0  0
    7.9906  -13.2756   15.7827 N   0  0  0  0  0  0  0  0  0  0  0  0
    8.7504  -14.2367   17.8370 C   0  0  0  0  0  0  0  0  0  0  0  0
    9.7727  -13.4849   17.8220 O   0  0  0  0  0  0  0  0  0  0  0  0
    7.3611  -13.2872   21.4558 C   0  0  0  0  0  0  0  0  0  0  0  0
    8.3212  -14.4520   21.5097 C   0  0  1  0  0  0  0  0  0  0  0  0
    7.5958  -15.6300   21.6687 O   0  0  0  0  0  0  0  0  0  0  0  0
    9.1857  -14.4826   20.2804 C   0  0  2  0  0  0  0  0  0  0  0  0
    8.3943  -14.7799   19.0931 N   0  0  0  0  0  0  0  0  0  0  0  0
   10.1683  -15.5832   20.4433 C   0  0  0  0  0  0  0  0  0  0  0  0
   10.2887  -16.4833   19.5766 O   0  0  0  0  0  0  0  0  0  0  0  0
   11.0200  -15.6734   21.5849 N   0  0  0  0  0  0  0  0  0  0  0  0
   12.3305  -16.2972   21.5176 C   0  0  1  0  0  0  0  0  0  0  0  0
   13.1631  -15.5501   20.5251 C   0  0  0  0  0  0  0  0  0  0  0  0
   14.5432  -16.1402   20.3499 C   0  0  0  0  0  0  0  0  0  0  0  0
   15.2595  -15.2991   19.3722 C   0  0  0  0  0  0  0  0  0  0  0  0
   15.1659  -14.0586   19.4438 O   0  0  0  0  0  0  0  0  0  0  0  0
   12.9491  -16.4319   22.8364 C   0  0  0  0  0  0  0  0  0  0  0  0
   13.8922  -17.3989   23.1224 O   0  0  0  0  0  0  0  0  0  0  0  0
   16.0240  -15.8749   18.3900 O   0  0  0  0  0  0  0  0  0  0  0  0
   12.6201  -15.6452   23.7539 O   0  0  0  0  0  0  0  0  0  0  0  0
  2  1  1  0
  3  4  1  6
  3  2  1  0
  5  3  1  0
  6  5  2  0
  8  7  1  6
  8 10  1  0
  9  8  1  0
 10 12  1  0
 10 11  1  6
 11  5  1  0
 12 14  1  0
 13 12  2  0
 14 15  1  0
 15 20  1  0
 15 16  1  6
 16 17  1  0
 18 17  1  0
 18 22  1  0
 19 18  2  0
 20 23  2  0
 20 21  1  0
M  END
$$$$
