STE.pdb
     RDKit          3D

 23 22  0  0  1  0  0  0  0  0999 V2000
    7.4035  -20.1885   23.4359 O   0  0  0  0  0  0  0  0  0  0  0  0
    6.2684  -19.4049   23.2958 C   0  0  0  0  0  0  0  0  0  0  0  0
    6.1090  -18.9118   21.8816 C   0  0  2  0  0  0  0  0  0  0  0  0
    5.6897  -20.0301   21.0629 N   0  0  0  0  0  0  0  0  0  0  0  0
    7.3179  -18.2966   21.3175 C   0  0  0  0  0  0  0  0  0  0  0  0
    8.0685  -18.9909   20.5658 O   0  0  0  0  0  0  0  0  0  0  0  0
    7.7563  -15.3872   19.0795 C   0  0  0  0  0  0  0  0  0  0  0  0
    8.7198  -15.1696   20.2221 C   0  0  1  0  0  0  0  0  0  0  0  0
    8.2171  -14.1735   21.0552 O   0  0  0  0  0  0  0  0  0  0  0  0
    8.9624  -16.4554   20.9619 C   0  0  2  0  0  0  0  0  0  0  0  0
    7.7272  -16.9625   21.5463 N   0  0  0  0  0  0  0  0  0  0  0  0
    9.8945  -16.1670   22.0806 C   0  0  0  0  0  0  0  0  0  0  0  0
    9.4693  -15.8414   23.2160 O   0  0  0  0  0  0  0  0  0  0  0  0
   11.3109  -16.2449   21.9237 N   0  0  0  0  0  0  0  0  0  0  0  0
   12.2137  -16.1828   23.0604 C   0  0  1  0  0  0  0  0  0  0  0  0
   11.8740  -17.2957   23.9997 C   0  0  0  0  0  0  0  0  0  0  0  0
   12.3619  -17.0483   25.4084 C   0  0  0  0  0  0  0  0  0  0  0  0
   12.0364  -18.2480   26.2029 C   0  0  0  0  0  0  0  0  0  0  0  0
   11.3268  -19.1420   25.7029 O   0  0  0  0  0  0  0  0  0  0  0  0
   13.6181  -16.1523   22.6522 C   0  0  0  0  0  0  0  0  0  0  0  0
   14.6178  -15.6432   23.4571 O   0  0  0  0  0  0  0  0  0  0  0  0
   12.5097  -18.3819   27.4831 O   0  0  0  0  0  0  0  0  0  0  0  0
   13.9428  -16.6028   21.5294 O   0  0  0  0  0  0  0  0  0  0  0  0
  2  1  1  0
  3  4  1  6
  3  2  1  0
  5  3  1  0
  6  5  2  0
  8  7  1  6
  8 10  1  0
  9  8  1  0
 10 12  1  0
 10 11  1  1
 11  5  1  0
 12 14  1  0
 13 12  2  0
 14 15  1  0
 15 20  1  0
 15 16  1  1
 16 17  1  0
 18 17  1  0
 18 22  1  0
 19 18  2  0
 20 23  2  0
 20 21  1  0
M  END
$$$$
