DEN.pdb
     RDKit          3D

 26 25  0  0  1  0  0  0  0  0999 V2000
    8.8812  -19.2441   19.3814 N   0  0  0  0  0  0  0  0  0  0  0  0
    9.5695  -18.1116   18.8443 C   0  0  1  0  0  0  0  0  0  0  0  0
    8.6605  -16.9012   18.7013 C   0  0  0  0  0  0  0  0  0  0  0  0
    7.5159  -17.2332   17.8185 C   0  0  0  0  0  0  0  0  0  0  0  0
    7.3857  -18.4129   17.4059 O   0  0  0  0  0  0  0  0  0  0  0  0
   10.7554  -17.7756   19.6605 C   0  0  0  0  0  0  0  0  0  0  0  0
   11.3988  -18.7248   20.2102 O   0  0  0  0  0  0  0  0  0  0  0  0
    6.5753  -16.3034   17.4214 O   0  0  0  0  0  0  0  0  0  0  0  0
   11.2323  -16.4593   19.8772 N   0  0  0  0  0  0  0  0  0  0  0  0
   12.5341  -16.2508   20.4323 C   0  0  1  0  0  0  0  0  0  0  0  0
   13.4046  -15.3213   19.6533 C   0  0  0  0  0  0  0  0  0  0  0  0
   14.7419  -15.0308   20.2304 C   0  0  0  0  0  0  0  0  0  0  0  0
   15.4768  -14.1356   19.2855 C   0  0  0  0  0  0  0  0  0  0  0  0
   15.4478  -12.8895   19.4299 O   0  0  0  0  0  0  0  0  0  0  0  0
   12.5160  -15.8060   21.8585 C   0  0  0  0  0  0  0  0  0  0  0  0
   11.9696  -14.7023   22.1277 O   0  0  0  0  0  0  0  0  0  0  0  0
   16.2055  -14.6680   18.2297 O   0  0  0  0  0  0  0  0  0  0  0  0
    9.9381  -18.4728   25.7129 N   0  0  0  0  0  0  0  0  0  0  0  0
   10.5292  -17.1841   25.4820 C   0  0  0  0  0  0  0  0  0  0  0  0
   10.4320  -16.3561   26.3973 O   0  0  0  0  0  0  0  0  0  0  0  0
   11.1805  -16.9968   24.1871 C   0  0  0  0  0  0  0  0  0  0  0  0
   12.6273  -16.6916   24.2074 C   0  0  2  0  0  0  0  0  0  0  0  0
   13.1071  -16.6297   22.8369 N   0  0  0  0  0  0  0  0  0  0  0  0
   13.4590  -17.6157   25.0115 C   0  0  0  0  0  0  0  0  0  0  0  0
   14.4582  -18.4268   24.5576 O   0  0  0  0  0  0  0  0  0  0  0  0
   13.2254  -17.6679   26.2615 O   0  0  0  0  0  0  0  0  0  0  0  0
  2  1  1  1
  2  3  1  0
  3  4  1  0
  4  8  1  0
  5  4  2  0
  6  2  1  0
  6  7  2  0
  9  6  1  0
 10  9  1  0
 10 11  1  6
 11 12  1  0
 12 13  1  0
 13 17  1  0
 13 14  2  0
 15 10  1  0
 16 15  2  0
 19 18  1  0
 19 21  1  0
 20 19  2  0
 22 21  1  6
 22 23  1  0
 23 15  1  0
 24 25  1  0
 24 22  1  0
 26 24  2  0
M  END
$$$$
