DEN.pdb
     RDKit          3D

 26 25  0  0  1  0  0  0  0  0999 V2000
   15.3872  -13.0860   17.7130 N   0  0  0  0  0  0  0  0  0  0  0  0
   15.1541  -14.4559   18.0502 C   0  0  1  0  0  0  0  0  0  0  0  0
   16.4319  -15.1733   18.4558 C   0  0  0  0  0  0  0  0  0  0  0  0
   17.3972  -15.1568   17.3301 C   0  0  0  0  0  0  0  0  0  0  0  0
   16.9689  -14.9827   16.1616 O   0  0  0  0  0  0  0  0  0  0  0  0
   14.1336  -14.5742   19.1132 C   0  0  0  0  0  0  0  0  0  0  0  0
   14.3717  -14.0377   20.2413 O   0  0  0  0  0  0  0  0  0  0  0  0
   18.7573  -15.3248   17.5002 O   0  0  0  0  0  0  0  0  0  0  0  0
   12.8967  -15.2487   18.9651 N   0  0  0  0  0  0  0  0  0  0  0  0
   12.0215  -15.3957   20.0871 C   0  0  1  0  0  0  0  0  0  0  0  0
   10.6458  -15.8671   19.7496 C   0  0  0  0  0  0  0  0  0  0  0  0
   10.2715  -15.8347   18.3126 C   0  0  0  0  0  0  0  0  0  0  0  0
    8.9399  -16.4961   18.1592 C   0  0  0  0  0  0  0  0  0  0  0  0
    8.0014  -16.2385   18.9512 O   0  0  0  0  0  0  0  0  0  0  0  0
   12.5722  -16.2652   21.1701 C   0  0  0  0  0  0  0  0  0  0  0  0
   13.6048  -16.9430   20.9178 O   0  0  0  0  0  0  0  0  0  0  0  0
    8.7177  -17.4088   17.1360 O   0  0  0  0  0  0  0  0  0  0  0  0
   16.0921  -15.7712   22.9382 N   0  0  0  0  0  0  0  0  0  0  0  0
   15.0949  -16.4146   23.7475 C   0  0  0  0  0  0  0  0  0  0  0  0
   15.4346  -17.4559   24.3247 O   0  0  0  0  0  0  0  0  0  0  0  0
   13.7872  -15.7636   23.7973 C   0  0  0  0  0  0  0  0  0  0  0  0
   12.6026  -16.6373   23.6550 C   0  0  2  0  0  0  0  0  0  0  0  0
   11.9198  -16.2943   22.4186 N   0  0  0  0  0  0  0  0  0  0  0  0
   11.6594  -16.6174   24.7962 C   0  0  0  0  0  0  0  0  0  0  0  0
   10.3746  -16.1577   24.7915 O   0  0  0  0  0  0  0  0  0  0  0  0
   12.0818  -17.0754   25.9060 O   0  0  0  0  0  0  0  0  0  0  0  0
  2  1  1  1
  2  3  1  0
  3  4  1  0
  4  8  1  0
  5  4  2  0
  6  2  1  0
  6  7  2  0
  9  6  1  0
 10  9  1  0
 10 11  1  6
 11 12  1  0
 12 13  1  0
 13 17  1  0
 13 14  2  0
 15 10  1  0
 16 15  2  0
 19 18  1  0
 19 21  1  0
 20 19  2  0
 22 21  1  1
 22 23  1  0
 23 15  1  0
 24 25  1  0
 24 22  1  0
 26 24  2  0
M  END
$$$$
