DEN.pdb
     RDKit          3D

 26 25  0  0  1  0  0  0  0  0999 V2000
    9.9423  -15.6294   16.1718 N   0  0  0  0  0  0  0  0  0  0  0  0
   10.3087  -14.6439   17.1410 C   0  0  1  0  0  0  0  0  0  0  0  0
    9.0997  -14.0721   17.8644 C   0  0  0  0  0  0  0  0  0  0  0  0
    8.2060  -13.3954   16.8934 C   0  0  0  0  0  0  0  0  0  0  0  0
    8.5105  -13.4053   15.6743 O   0  0  0  0  0  0  0  0  0  0  0  0
   11.2823  -15.1896   18.1103 C   0  0  0  0  0  0  0  0  0  0  0  0
   11.0081  -16.2889   18.6877 O   0  0  0  0  0  0  0  0  0  0  0  0
    7.0439  -12.7473   17.2627 O   0  0  0  0  0  0  0  0  0  0  0  0
   12.5116  -14.5707   18.4461 N   0  0  0  0  0  0  0  0  0  0  0  0
   13.4160  -15.2154   19.3476 C   0  0  1  0  0  0  0  0  0  0  0  0
   14.8503  -14.8425   19.1677 C   0  0  0  0  0  0  0  0  0  0  0  0
   15.1794  -14.0540   17.9527 C   0  0  0  0  0  0  0  0  0  0  0  0
   16.6601  -13.8545   17.9092 C   0  0  0  0  0  0  0  0  0  0  0  0
   17.1832  -12.8280   18.4065 O   0  0  0  0  0  0  0  0  0  0  0  0
   13.0549  -15.0444   20.7872 C   0  0  0  0  0  0  0  0  0  0  0  0
   12.4189  -14.0078   21.1192 O   0  0  0  0  0  0  0  0  0  0  0  0
   17.4840  -14.8027   17.3166 O   0  0  0  0  0  0  0  0  0  0  0  0
    9.0321  -16.7523   23.5752 N   0  0  0  0  0  0  0  0  0  0  0  0
   10.4424  -16.6950   23.8423 C   0  0  0  0  0  0  0  0  0  0  0  0
   10.7934  -16.8729   25.0161 O   0  0  0  0  0  0  0  0  0  0  0  0
   11.3057  -16.4318   22.6926 C   0  0  0  0  0  0  0  0  0  0  0  0
   12.7470  -16.2513   22.9697 C   0  0  2  0  0  0  0  0  0  0  0  0
   13.4381  -16.0389   21.7088 N   0  0  0  0  0  0  0  0  0  0  0  0
   13.3863  -17.3428   23.7392 C   0  0  0  0  0  0  0  0  0  0  0  0
   13.6416  -18.6117   23.3069 O   0  0  0  0  0  0  0  0  0  0  0  0
   13.7394  -17.0810   24.9336 O   0  0  0  0  0  0  0  0  0  0  0  0
  2  1  1  6
  2  3  1  0
  3  4  1  0
  4  8  1  0
  5  4  2  0
  6  2  1  0
  6  7  2  0
  9  6  1  0
 10  9  1  0
 10 11  1  1
 11 12  1  0
 12 13  1  0
 13 17  1  0
 13 14  2  0
 15 10  1  0
 16 15  2  0
 19 18  1  0
 19 21  1  0
 20 19  2  0
 22 21  1  6
 22 23  1  0
 23 15  1  0
 24 25  1  0
 24 22  1  0
 26 24  2  0
M  END
$$$$
