DEN.pdb
     RDKit          3D

 26 25  0  0  1  0  0  0  0  0999 V2000
   10.5749  -17.6074   18.2355 N   0  0  0  0  0  0  0  0  0  0  0  0
   10.9630  -18.7989   18.9242 C   0  0  1  0  0  0  0  0  0  0  0  0
   11.0056  -20.0075   18.0025 C   0  0  0  0  0  0  0  0  0  0  0  0
    9.8195  -20.0033   17.1122 C   0  0  0  0  0  0  0  0  0  0  0  0
    9.5767  -18.9804   16.4240 O   0  0  0  0  0  0  0  0  0  0  0  0
   12.2635  -18.6191   19.6036 C   0  0  0  0  0  0  0  0  0  0  0  0
   12.6943  -19.5606   20.3419 O   0  0  0  0  0  0  0  0  0  0  0  0
    8.9579  -21.0765   16.9987 O   0  0  0  0  0  0  0  0  0  0  0  0
   13.0735  -17.4623   19.4907 N   0  0  0  0  0  0  0  0  0  0  0  0
   14.3071  -17.3780   20.2100 C   0  0  1  0  0  0  0  0  0  0  0  0
   15.5122  -17.1465   19.3598 C   0  0  0  0  0  0  0  0  0  0  0  0
   16.4146  -18.3098   19.1640 C   0  0  0  0  0  0  0  0  0  0  0  0
   17.5696  -17.8718   18.3224 C   0  0  0  0  0  0  0  0  0  0  0  0
   17.8545  -16.6551   18.2086 O   0  0  0  0  0  0  0  0  0  0  0  0
   14.2954  -16.3650   21.3081 C   0  0  0  0  0  0  0  0  0  0  0  0
   13.7533  -15.2500   21.0796 O   0  0  0  0  0  0  0  0  0  0  0  0
   18.3486  -18.8050   17.6505 O   0  0  0  0  0  0  0  0  0  0  0  0
   11.0707  -15.7034   25.0221 N   0  0  0  0  0  0  0  0  0  0  0  0
   12.1285  -16.6745   25.0618 C   0  0  0  0  0  0  0  0  0  0  0  0
   12.2987  -17.2675   26.1351 O   0  0  0  0  0  0  0  0  0  0  0  0
   12.8867  -16.8521   23.8248 C   0  0  0  0  0  0  0  0  0  0  0  0
   14.2800  -16.3568   23.8209 C   0  0  2  0  0  0  0  0  0  0  0  0
   14.8875  -16.6927   22.5439 N   0  0  0  0  0  0  0  0  0  0  0  0
   15.1240  -16.8292   24.9420 C   0  0  0  0  0  0  0  0  0  0  0  0
   15.4868  -16.1220   26.0512 O   0  0  0  0  0  0  0  0  0  0  0  0
   15.5645  -18.0214   24.8743 O   0  0  0  0  0  0  0  0  0  0  0  0
  2  1  1  6
  2  3  1  0
  3  4  1  0
  4  8  1  0
  5  4  2  0
  6  2  1  0
  6  7  2  0
  9  6  1  0
 10  9  1  0
 10 11  1  6
 11 12  1  0
 12 13  1  0
 13 17  1  0
 13 14  2  0
 15 10  1  0
 16 15  2  0
 19 18  1  0
 19 21  1  0
 20 19  2  0
 22 21  1  6
 22 23  1  0
 23 15  1  0
 24 25  1  0
 24 22  1  0
 26 24  2  0
M  END
$$$$
