DEN.pdb
     RDKit          3D

 26 25  0  0  1  0  0  0  0  0999 V2000
    9.2168  -12.3108   18.6250 N   0  0  0  0  0  0  0  0  0  0  0  0
    8.0901  -13.0465   19.1090 C   0  0  1  0  0  0  0  0  0  0  0  0
    7.3166  -13.7181   17.9853 C   0  0  0  0  0  0  0  0  0  0  0  0
    8.2350  -14.5475   17.1681 C   0  0  0  0  0  0  0  0  0  0  0  0
    7.7592  -15.2584   16.2476 O   0  0  0  0  0  0  0  0  0  0  0  0
    8.5017  -14.0416   20.1217 C   0  0  0  0  0  0  0  0  0  0  0  0
    7.6405  -14.8871   20.5223 O   0  0  0  0  0  0  0  0  0  0  0  0
    9.6011  -14.5803   17.3678 O   0  0  0  0  0  0  0  0  0  0  0  0
    9.7994  -14.1228   20.6843 N   0  0  0  0  0  0  0  0  0  0  0  0
   10.0779  -15.0816   21.7087 C   0  0  1  0  0  0  0  0  0  0  0  0
   11.5291  -15.3323   21.9528 C   0  0  0  0  0  0  0  0  0  0  0  0
   11.8589  -16.4209   22.9079 C   0  0  0  0  0  0  0  0  0  0  0  0
   13.3452  -16.5730   22.9518 C   0  0  0  0  0  0  0  0  0  0  0  0
   14.0030  -16.7456   21.8973 O   0  0  0  0  0  0  0  0  0  0  0  0
    9.4197  -14.7754   23.0146 C   0  0  0  0  0  0  0  0  0  0  0  0
    9.0302  -13.5939   23.2188 O   0  0  0  0  0  0  0  0  0  0  0  0
   14.0251  -16.5259   24.1620 O   0  0  0  0  0  0  0  0  0  0  0  0
    5.6533  -13.6472   26.0931 N   0  0  0  0  0  0  0  0  0  0  0  0
    6.8337  -13.7732   25.2841 C   0  0  0  0  0  0  0  0  0  0  0  0
    7.4687  -12.7339   25.0619 O   0  0  0  0  0  0  0  0  0  0  0  0
    7.1514  -15.1200   24.8135 C   0  0  0  0  0  0  0  0  0  0  0  0
    8.4822  -15.6546   25.1739 C   0  0  2  0  0  0  0  0  0  0  0  0
    9.2638  -15.8099   23.9583 N   0  0  0  0  0  0  0  0  0  0  0  0
    8.4701  -16.9139   25.9524 C   0  0  0  0  0  0  0  0  0  0  0  0
    8.3016  -17.0443   27.3002 O   0  0  0  0  0  0  0  0  0  0  0  0
    8.6340  -17.9976   25.3053 O   0  0  0  0  0  0  0  0  0  0  0  0
  2  1  1  6
  2  3  1  0
  3  4  1  0
  4  8  1  0
  5  4  2  0
  6  2  1  0
  6  7  2  0
  9  6  1  0
 10  9  1  0
 10 11  1  1
 11 12  1  0
 12 13  1  0
 13 17  1  0
 13 14  2  0
 15 10  1  0
 16 15  2  0
 19 18  1  0
 19 21  1  0
 20 19  2  0
 22 21  1  6
 22 23  1  0
 23 15  1  0
 24 25  1  0
 24 22  1  0
 26 24  2  0
M  END
$$$$
