DEN.pdb
     RDKit          3D

 26 25  0  0  1  0  0  0  0  0999 V2000
    9.8790  -17.3646   15.0801 N   0  0  0  0  0  0  0  0  0  0  0  0
    8.7063  -17.1034   15.8555 C   0  0  1  0  0  0  0  0  0  0  0  0
    7.5224  -17.9465   15.4089 C   0  0  0  0  0  0  0  0  0  0  0  0
    7.2002  -17.6507   13.9918 C   0  0  0  0  0  0  0  0  0  0  0  0
    8.0494  -17.9169   13.1046 O   0  0  0  0  0  0  0  0  0  0  0  0
    8.9687  -17.3009   17.2969 C   0  0  0  0  0  0  0  0  0  0  0  0
    8.0367  -17.0398   18.1217 O   0  0  0  0  0  0  0  0  0  0  0  0
    6.0027  -17.0915   13.5915 O   0  0  0  0  0  0  0  0  0  0  0  0
   10.1958  -17.7647   17.8318 N   0  0  0  0  0  0  0  0  0  0  0  0
   10.3545  -17.9021   19.2469 C   0  0  1  0  0  0  0  0  0  0  0  0
   11.5229  -18.7308   19.6675 C   0  0  0  0  0  0  0  0  0  0  0  0
   11.4834  -20.1666   19.2895 C   0  0  0  0  0  0  0  0  0  0  0  0
   12.8473  -20.7434   19.4927 C   0  0  0  0  0  0  0  0  0  0  0  0
   13.6044  -20.9580   18.5153 O   0  0  0  0  0  0  0  0  0  0  0  0
   10.4056  -16.5991   19.9761 C   0  0  0  0  0  0  0  0  0  0  0  0
   10.8429  -15.5912   19.3578 O   0  0  0  0  0  0  0  0  0  0  0  0
   13.3011  -21.0525   20.7685 O   0  0  0  0  0  0  0  0  0  0  0  0
    7.3453  -12.5946   20.5637 N   0  0  0  0  0  0  0  0  0  0  0  0
    7.7591  -13.5483   21.5551 C   0  0  0  0  0  0  0  0  0  0  0  0
    7.4988  -13.2731   22.7337 O   0  0  0  0  0  0  0  0  0  0  0  0
    8.4434  -14.7398   21.0567 C   0  0  0  0  0  0  0  0  0  0  0  0
    9.4738  -15.3327   21.9362 C   0  0  2  0  0  0  0  0  0  0  0  0
    9.9689  -16.5497   21.3147 N   0  0  0  0  0  0  0  0  0  0  0  0
    9.0447  -15.5938   23.3290 C   0  0  0  0  0  0  0  0  0  0  0  0
    7.9930  -16.3637   23.7334 O   0  0  0  0  0  0  0  0  0  0  0  0
    9.7219  -15.0461   24.2571 O   0  0  0  0  0  0  0  0  0  0  0  0
  2  1  1  6
  2  3  1  0
  3  4  1  0
  4  8  1  0
  5  4  2  0
  6  2  1  0
  6  7  2  0
  9  6  1  0
 10  9  1  0
 10 11  1  6
 11 12  1  0
 12 13  1  0
 13 17  1  0
 13 14  2  0
 15 10  1  0
 16 15  2  0
 19 18  1  0
 19 21  1  0
 20 19  2  0
 22 21  1  6
 22 23  1  0
 23 15  1  0
 24 25  1  0
 24 22  1  0
 26 24  2  0
M  END
$$$$
