DEN.pdb
     RDKit          3D

 26 25  0  0  1  0  0  0  0  0999 V2000
   11.8657  -17.3308   21.5093 N   0  0  0  0  0  0  0  0  0  0  0  0
   10.7687  -16.5321   21.9601 C   0  0  1  0  0  0  0  0  0  0  0  0
    9.5342  -16.7075   21.0899 C   0  0  0  0  0  0  0  0  0  0  0  0
    9.9393  -17.0569   19.7067 C   0  0  0  0  0  0  0  0  0  0  0  0
   11.1619  -17.1691   19.4388 O   0  0  0  0  0  0  0  0  0  0  0  0
   10.4503  -16.8185   23.3750 C   0  0  0  0  0  0  0  0  0  0  0  0
    9.5510  -16.1227   23.9444 O   0  0  0  0  0  0  0  0  0  0  0  0
    9.0334  -17.2673   18.6859 O   0  0  0  0  0  0  0  0  0  0  0  0
   11.0806  -17.8223   24.1509 N   0  0  0  0  0  0  0  0  0  0  0  0
   10.6410  -18.0763   25.4883 C   0  0  1  0  0  0  0  0  0  0  0  0
   11.0567  -19.3985   26.0428 C   0  0  0  0  0  0  0  0  0  0  0  0
   10.4628  -20.5991   25.4009 C   0  0  0  0  0  0  0  0  0  0  0  0
   11.0266  -21.8139   26.0647 C   0  0  0  0  0  0  0  0  0  0  0  0
   10.3546  -22.4520   26.9106 O   0  0  0  0  0  0  0  0  0  0  0  0
   11.0241  -17.0086   26.4607 C   0  0  0  0  0  0  0  0  0  0  0  0
   12.1906  -16.5355   26.3915 O   0  0  0  0  0  0  0  0  0  0  0  0
   12.3060  -22.2582   25.7564 O   0  0  0  0  0  0  0  0  0  0  0  0
   10.4942  -13.9132   26.2811 N   0  0  0  0  0  0  0  0  0  0  0  0
    9.4448  -13.6470   27.2252 C   0  0  0  0  0  0  0  0  0  0  0  0
    8.6846  -12.7063   26.9607 O   0  0  0  0  0  0  0  0  0  0  0  0
    9.3942  -14.5211   28.3956 C   0  0  0  0  0  0  0  0  0  0  0  0
   10.3869  -15.6156   28.4526 C   0  0  2  0  0  0  0  0  0  0  0  0
   10.0753  -16.5785   27.4094 N   0  0  0  0  0  0  0  0  0  0  0  0
   10.5134  -16.2892   29.7651 C   0  0  0  0  0  0  0  0  0  0  0  0
   10.2513  -17.5990   30.0444 O   0  0  0  0  0  0  0  0  0  0  0  0
   10.9076  -15.5799   30.7456 O   0  0  0  0  0  0  0  0  0  0  0  0
  2  1  1  6
  2  3  1  0
  3  4  1  0
  4  8  1  0
  5  4  2  0
  6  2  1  0
  6  7  2  0
  9  6  1  0
 10  9  1  0
 10 11  1  1
 11 12  1  0
 12 13  1  0
 13 17  1  0
 13 14  2  0
 15 10  1  0
 16 15  2  0
 19 18  1  0
 19 21  1  0
 20 19  2  0
 22 21  1  1
 22 23  1  0
 23 15  1  0
 24 25  1  0
 24 22  1  0
 26 24  2  0
M  END
$$$$
