DEN.pdb
     RDKit          3D

 26 25  0  0  1  0  0  0  0  0999 V2000
    9.3514  -16.1359   18.5881 N   0  0  0  0  0  0  0  0  0  0  0  0
    8.5014  -16.4345   19.6986 C   0  0  1  0  0  0  0  0  0  0  0  0
    7.3639  -17.3685   19.3168 C   0  0  0  0  0  0  0  0  0  0  0  0
    7.7921  -18.2560   18.2085 C   0  0  0  0  0  0  0  0  0  0  0  0
    7.9508  -17.7671   17.0618 O   0  0  0  0  0  0  0  0  0  0  0  0
    9.2775  -16.9962   20.8245 C   0  0  0  0  0  0  0  0  0  0  0  0
    8.6462  -17.3915   21.8552 O   0  0  0  0  0  0  0  0  0  0  0  0
    8.0280  -19.6068   18.3720 O   0  0  0  0  0  0  0  0  0  0  0  0
   10.6880  -17.1275   20.8390 N   0  0  0  0  0  0  0  0  0  0  0  0
   11.3462  -17.6630   21.9906 C   0  0  1  0  0  0  0  0  0  0  0  0
   12.8062  -17.9193   21.8137 C   0  0  0  0  0  0  0  0  0  0  0  0
   13.4945  -18.6124   22.9326 C   0  0  0  0  0  0  0  0  0  0  0  0
   14.9380  -18.7631   22.5747 C   0  0  0  0  0  0  0  0  0  0  0  0
   15.5812  -19.7828   22.9225 O   0  0  0  0  0  0  0  0  0  0  0  0
   11.1505  -16.8495   23.2284 C   0  0  0  0  0  0  0  0  0  0  0  0
   11.8628  -15.8203   23.3794 O   0  0  0  0  0  0  0  0  0  0  0  0
   15.5934  -17.7759   21.8502 O   0  0  0  0  0  0  0  0  0  0  0  0
    9.0419  -14.4986   23.7878 N   0  0  0  0  0  0  0  0  0  0  0  0
    8.0372  -15.1413   24.5883 C   0  0  0  0  0  0  0  0  0  0  0  0
    6.8748  -14.7384   24.4502 O   0  0  0  0  0  0  0  0  0  0  0  0
    8.5043  -16.2023   25.4787 C   0  0  0  0  0  0  0  0  0  0  0  0
    9.9412  -16.5448   25.4099 C   0  0  2  0  0  0  0  0  0  0  0  0
   10.1875  -17.2626   24.1703 N   0  0  0  0  0  0  0  0  0  0  0  0
   10.4683  -17.3032   26.5671 C   0  0  0  0  0  0  0  0  0  0  0  0
   10.9618  -18.5754   26.5589 O   0  0  0  0  0  0  0  0  0  0  0  0
   10.4652  -16.7155   27.6960 O   0  0  0  0  0  0  0  0  0  0  0  0
  2  1  1  6
  2  3  1  0
  3  4  1  0
  4  8  1  0
  5  4  2  0
  6  2  1  0
  6  7  2  0
  9  6  1  0
 10  9  1  0
 10 11  1  6
 11 12  1  0
 12 13  1  0
 13 17  1  0
 13 14  2  0
 15 10  1  0
 16 15  2  0
 19 18  1  0
 19 21  1  0
 20 19  2  0
 22 21  1  1
 22 23  1  0
 23 15  1  0
 24 25  1  0
 24 22  1  0
 26 24  2  0
M  END
$$$$
