DEN.pdb
     RDKit          3D

 26 25  0  0  1  0  0  0  0  0999 V2000
    8.6594  -12.5347   18.3196 N   0  0  0  0  0  0  0  0  0  0  0  0
    7.9965  -13.7333   18.7306 C   0  0  1  0  0  0  0  0  0  0  0  0
    7.3432  -14.4575   17.5641 C   0  0  0  0  0  0  0  0  0  0  0  0
    8.3514  -14.7254   16.5100 C   0  0  0  0  0  0  0  0  0  0  0  0
    9.5656  -14.5219   16.7611 O   0  0  0  0  0  0  0  0  0  0  0  0
    8.9250  -14.6344   19.4456 C   0  0  0  0  0  0  0  0  0  0  0  0
    8.5137  -15.7941   19.7664 O   0  0  0  0  0  0  0  0  0  0  0  0
    8.0221  -15.1918   15.2526 O   0  0  0  0  0  0  0  0  0  0  0  0
   10.2535  -14.2965   19.8031 N   0  0  0  0  0  0  0  0  0  0  0  0
   11.0460  -15.2124   20.5643 C   0  0  1  0  0  0  0  0  0  0  0  0
   12.5210  -15.0359   20.4163 C   0  0  0  0  0  0  0  0  0  0  0  0
   13.0193  -14.7737   19.0419 C   0  0  0  0  0  0  0  0  0  0  0  0
   14.5061  -14.6317   19.1005 C   0  0  0  0  0  0  0  0  0  0  0  0
   15.2542  -15.5759   18.7494 O   0  0  0  0  0  0  0  0  0  0  0  0
   10.7109  -15.2324   22.0201 C   0  0  0  0  0  0  0  0  0  0  0  0
   10.1723  -14.2071   22.5180 O   0  0  0  0  0  0  0  0  0  0  0  0
   15.0865  -13.4508   19.5454 O   0  0  0  0  0  0  0  0  0  0  0  0
    7.0893  -17.2260   25.3442 N   0  0  0  0  0  0  0  0  0  0  0  0
    8.3793  -16.5983   25.4165 C   0  0  0  0  0  0  0  0  0  0  0  0
    8.7904  -16.3013   26.5459 O   0  0  0  0  0  0  0  0  0  0  0  0
    9.0623  -16.3808   24.1426 C   0  0  0  0  0  0  0  0  0  0  0  0
   10.5265  -16.5873   24.1284 C   0  0  2  0  0  0  0  0  0  0  0  0
   11.0096  -16.3857   22.7725 N   0  0  0  0  0  0  0  0  0  0  0  0
   10.9883  -17.8897   24.6599 C   0  0  0  0  0  0  0  0  0  0  0  0
   11.2795  -18.1896   25.9589 O   0  0  0  0  0  0  0  0  0  0  0  0
   11.1335  -18.8388   23.8244 O   0  0  0  0  0  0  0  0  0  0  0  0
  2  1  1  6
  2  3  1  0
  3  4  1  0
  4  8  1  0
  5  4  2  0
  6  2  1  0
  6  7  2  0
  9  6  1  0
 10  9  1  0
 10 11  1  1
 11 12  1  0
 12 13  1  0
 13 17  1  0
 13 14  2  0
 15 10  1  0
 16 15  2  0
 19 18  1  0
 19 21  1  0
 20 19  2  0
 22 21  1  6
 22 23  1  0
 23 15  1  0
 24 25  1  0
 24 22  1  0
 26 24  2  0
M  END
$$$$
