DEN.pdb
     RDKit          3D

 26 25  0  0  1  0  0  0  0  0999 V2000
   11.4883  -14.4266   18.6969 N   0  0  0  0  0  0  0  0  0  0  0  0
   12.2218  -15.2039   19.6469 C   0  0  1  0  0  0  0  0  0  0  0  0
   13.4988  -14.5101   20.0937 C   0  0  0  0  0  0  0  0  0  0  0  0
   14.4757  -14.4872   18.9781 C   0  0  0  0  0  0  0  0  0  0  0  0
   14.9892  -13.3916   18.6390 O   0  0  0  0  0  0  0  0  0  0  0  0
   11.3817  -15.5453   20.8144 C   0  0  0  0  0  0  0  0  0  0  0  0
   10.4414  -14.7512   21.1346 O   0  0  0  0  0  0  0  0  0  0  0  0
   14.8549  -15.6195   18.2844 O   0  0  0  0  0  0  0  0  0  0  0  0
   11.5496  -16.7048   21.6109 N   0  0  0  0  0  0  0  0  0  0  0  0
   10.5789  -17.0362   22.6080 C   0  0  1  0  0  0  0  0  0  0  0  0
   10.1742  -18.4729   22.6337 C   0  0  0  0  0  0  0  0  0  0  0  0
    9.2337  -18.8740   23.7110 C   0  0  0  0  0  0  0  0  0  0  0  0
    8.8900  -20.3163   23.5214 C   0  0  0  0  0  0  0  0  0  0  0  0
    8.1109  -20.8989   24.3139 O   0  0  0  0  0  0  0  0  0  0  0  0
   10.9714  -16.6256   23.9899 C   0  0  0  0  0  0  0  0  0  0  0  0
   12.1594  -16.8363   24.3554 O   0  0  0  0  0  0  0  0  0  0  0  0
    9.4278  -21.0379   22.4635 O   0  0  0  0  0  0  0  0  0  0  0  0
    8.3799  -13.1166   28.3301 N   0  0  0  0  0  0  0  0  0  0  0  0
    9.4342  -13.9947   27.9047 C   0  0  0  0  0  0  0  0  0  0  0  0
   10.3816  -14.1455   28.6872 O   0  0  0  0  0  0  0  0  0  0  0  0
    9.2672  -14.6124   26.5905 C   0  0  0  0  0  0  0  0  0  0  0  0
   10.2987  -15.5881   26.1775 C   0  0  2  0  0  0  0  0  0  0  0  0
   10.0059  -16.0265   24.8230 N   0  0  0  0  0  0  0  0  0  0  0  0
   10.4685  -16.7508   27.0783 C   0  0  0  0  0  0  0  0  0  0  0  0
   11.4034  -16.8981   28.0614 O   0  0  0  0  0  0  0  0  0  0  0  0
    9.6617  -17.7237   26.9283 O   0  0  0  0  0  0  0  0  0  0  0  0
  2  1  1  6
  2  3  1  0
  3  4  1  0
  4  8  1  0
  5  4  2  0
  6  2  1  0
  6  7  2  0
  9  6  1  0
 10  9  1  0
 10 11  1  1
 11 12  1  0
 12 13  1  0
 13 17  1  0
 13 14  2  0
 15 10  1  0
 16 15  2  0
 19 18  1  0
 19 21  1  0
 20 19  2  0
 22 21  1  1
 22 23  1  0
 23 15  1  0
 24 25  1  0
 24 22  1  0
 26 24  2  0
M  END
$$$$
