NVS.pdb
     RDKit          3D

 22 21  0  0  1  0  0  0  0  0999 V2000
    7.0426  -19.9394   15.6699 N   0  0  0  0  0  0  0  0  0  0  0  0
    6.7859  -19.1970   16.8335 C   0  0  0  0  0  0  0  0  0  0  0  0
    5.5746  -19.0462   17.1779 O   0  0  0  0  0  0  0  0  0  0  0  0
    7.8592  -18.5908   17.6639 C   0  0  0  0  0  0  0  0  0  0  0  0
    7.9908  -17.1074   17.3393 C   0  0  2  0  0  0  0  0  0  0  0  0
    8.5621  -16.9346   16.0267 N   0  0  0  0  0  0  0  0  0  0  0  0
    8.7931  -16.4014   18.3624 C   0  0  0  0  0  0  0  0  0  0  0  0
   10.0450  -16.5301   18.3388 O   0  0  0  0  0  0  0  0  0  0  0  0
    6.8400  -14.4448   21.6179 C   0  0  0  0  0  0  0  0  0  0  0  0
    8.1059  -13.8446   21.0165 C   0  0  2  0  0  0  0  0  0  0  0  0
    7.6595  -12.8333   19.9855 C   0  0  0  0  0  0  0  0  0  0  0  0
    8.9333  -14.9463   20.4266 C   0  0  2  0  0  0  0  0  0  0  0  0
    8.2139  -15.5844   19.3707 N   0  0  0  0  0  0  0  0  0  0  0  0
    9.3142  -15.8677   21.5273 C   0  0  0  0  0  0  0  0  0  0  0  0
    8.4773  -16.7564   21.8328 O   0  0  0  0  0  0  0  0  0  0  0  0
   13.2145  -15.9572   23.1673 O   0  0  0  0  0  0  0  0  0  0  0  0
   12.4413  -17.0970   23.0466 C   0  0  0  0  0  0  0  0  0  0  0  0
   10.9557  -16.8043   23.1519 C   0  0  2  0  0  0  0  0  0  0  0  0
   10.5460  -15.7800   22.2186 N   0  0  0  0  0  0  0  0  0  0  0  0
   10.6693  -16.4195   24.5555 C   0  0  0  0  0  0  0  0  0  0  0  0
   10.9272  -17.2956   25.5978 O   0  0  0  0  0  0  0  0  0  0  0  0
   10.1881  -15.2966   24.8405 O   0  0  0  0  0  0  0  0  0  0  0  0
  2  4  1  0
  2  1  1  0
  3  2  2  0
  5  7  1  0
  5  4  1  0
  5  6  1  6
  7 13  1  0
  8  7  2  0
 10  9  1  6
 10 12  1  0
 11 10  1  0
 12 14  1  0
 12 13  1  6
 14 15  2  0
 14 19  1  0
 17 16  1  0
 18 17  1  1
 18 20  1  0
 19 18  1  0
 20 21  1  0
 22 20  2  0
M  END
$$$$
