NVS.pdb
     RDKit          3D

 22 21  0  0  1  0  0  0  0  0999 V2000
    5.6030  -17.2126   20.1649 N   0  0  0  0  0  0  0  0  0  0  0  0
    6.9362  -17.3901   20.5673 C   0  0  0  0  0  0  0  0  0  0  0  0
    7.7075  -18.0190   19.7811 O   0  0  0  0  0  0  0  0  0  0  0  0
    7.4709  -16.8788   21.8563 C   0  0  0  0  0  0  0  0  0  0  0  0
    7.4836  -15.3548   21.8448 C   0  0  2  0  0  0  0  0  0  0  0  0
    8.1577  -14.8723   20.6651 N   0  0  0  0  0  0  0  0  0  0  0  0
    8.1092  -14.8121   23.0708 C   0  0  0  0  0  0  0  0  0  0  0  0
    9.3655  -14.7935   23.1468 O   0  0  0  0  0  0  0  0  0  0  0  0
    6.4092  -11.8821   25.2408 C   0  0  0  0  0  0  0  0  0  0  0  0
    6.8815  -13.0245   26.1331 C   0  0  2  0  0  0  0  0  0  0  0  0
    7.4318  -12.3933   27.3916 C   0  0  0  0  0  0  0  0  0  0  0  0
    7.9071  -13.8278   25.3920 C   0  0  2  0  0  0  0  0  0  0  0  0
    7.3556  -14.3109   24.1664 N   0  0  0  0  0  0  0  0  0  0  0  0
    8.3798  -14.9066   26.2967 C   0  0  0  0  0  0  0  0  0  0  0  0
    7.5318  -15.7749   26.6288 O   0  0  0  0  0  0  0  0  0  0  0  0
   12.0756  -15.9178   26.2144 O   0  0  0  0  0  0  0  0  0  0  0  0
   11.4146  -16.7092   27.1354 C   0  0  0  0  0  0  0  0  0  0  0  0
   10.1312  -16.0706   27.6341 C   0  0  2  0  0  0  0  0  0  0  0  0
    9.7078  -14.9851   26.7796 N   0  0  0  0  0  0  0  0  0  0  0  0
   10.3632  -15.6186   29.0277 C   0  0  0  0  0  0  0  0  0  0  0  0
   10.7708  -16.5129   30.0047 O   0  0  0  0  0  0  0  0  0  0  0  0
   10.1988  -14.4209   29.3626 O   0  0  0  0  0  0  0  0  0  0  0  0
  2  4  1  0
  2  1  1  0
  3  2  2  0
  5  7  1  0
  5  4  1  0
  5  6  1  6
  7 13  1  0
  8  7  2  0
 10  9  1  6
 10 12  1  0
 11 10  1  0
 12 14  1  0
 12 13  1  6
 14 15  2  0
 14 19  1  0
 17 16  1  0
 18 17  1  6
 18 20  1  0
 19 18  1  0
 20 21  1  0
 22 20  2  0
M  END
$$$$
