NVS.pdb
     RDKit          3D

 22 21  0  0  1  0  0  0  0  0999 V2000
    7.4158  -17.8657   20.8077 N   0  0  0  0  0  0  0  0  0  0  0  0
    6.8792  -16.6225   20.4371 C   0  0  0  0  0  0  0  0  0  0  0  0
    7.0133  -16.2625   19.2284 O   0  0  0  0  0  0  0  0  0  0  0  0
    6.1722  -15.7264   21.3889 C   0  0  0  0  0  0  0  0  0  0  0  0
    6.8725  -14.3739   21.4458 C   0  0  2  0  0  0  0  0  0  0  0  0
    7.6975  -14.1918   20.2774 N   0  0  0  0  0  0  0  0  0  0  0  0
    7.6701  -14.2321   22.6837 C   0  0  0  0  0  0  0  0  0  0  0  0
    8.8926  -14.5299   22.6486 O   0  0  0  0  0  0  0  0  0  0  0  0
    6.6343  -11.6115   25.6006 C   0  0  0  0  0  0  0  0  0  0  0  0
    6.9961  -12.9791   26.1691 C   0  0  2  0  0  0  0  0  0  0  0  0
    7.7474  -12.7291   27.4568 C   0  0  0  0  0  0  0  0  0  0  0  0
    7.8128  -13.7252   25.1577 C   0  0  2  0  0  0  0  0  0  0  0  0
    7.1182  -13.7746   23.9108 N   0  0  0  0  0  0  0  0  0  0  0  0
    8.1195  -15.0650   25.7204 C   0  0  0  0  0  0  0  0  0  0  0  0
    7.1372  -15.8160   25.9538 O   0  0  0  0  0  0  0  0  0  0  0  0
   10.7533  -17.2589   24.3635 O   0  0  0  0  0  0  0  0  0  0  0  0
   10.8092  -17.5202   25.7200 C   0  0  0  0  0  0  0  0  0  0  0  0
    9.6909  -16.8401   26.4886 C   0  0  2  0  0  0  0  0  0  0  0  0
    9.4360  -15.5071   25.9925 N   0  0  0  0  0  0  0  0  0  0  0  0
   10.0679  -16.8331   27.9232 C   0  0  0  0  0  0  0  0  0  0  0  0
   10.2834  -18.0198   28.6057 O   0  0  0  0  0  0  0  0  0  0  0  0
   10.2023  -15.7599   28.5587 O   0  0  0  0  0  0  0  0  0  0  0  0
  2  4  1  0
  2  1  1  0
  3  2  2  0
  5  7  1  0
  5  4  1  0
  5  6  1  6
  7 13  1  0
  8  7  2  0
 10  9  1  6
 10 12  1  0
 11 10  1  0
 12 14  1  0
 12 13  1  6
 14 15  2  0
 14 19  1  0
 17 16  1  0
 18 17  1  6
 18 20  1  0
 19 18  1  0
 20 21  1  0
 22 20  2  0
M  END
$$$$
