NVS.pdb
     RDKit          3D

 22 21  0  0  1  0  0  0  0  0999 V2000
    5.2385  -17.8237   20.5662 N   0  0  0  0  0  0  0  0  0  0  0  0
    6.5598  -17.3639   20.4491 C   0  0  0  0  0  0  0  0  0  0  0  0
    7.0698  -17.3338   19.2883 O   0  0  0  0  0  0  0  0  0  0  0  0
    7.3711  -16.9183   21.6120 C   0  0  0  0  0  0  0  0  0  0  0  0
    7.3082  -15.4006   21.7373 C   0  0  2  0  0  0  0  0  0  0  0  0
    7.8513  -14.7812   20.5540 N   0  0  0  0  0  0  0  0  0  0  0  0
    8.0123  -14.9308   22.9508 C   0  0  0  0  0  0  0  0  0  0  0  0
    9.2687  -15.0002   22.9816 O   0  0  0  0  0  0  0  0  0  0  0  0
    6.7103  -11.9136   25.3393 C   0  0  0  0  0  0  0  0  0  0  0  0
    7.0216  -13.1839   26.1228 C   0  0  2  0  0  0  0  0  0  0  0  0
    7.6223  -12.7459   27.4391 C   0  0  0  0  0  0  0  0  0  0  0  0
    7.9538  -14.0363   25.3160 C   0  0  2  0  0  0  0  0  0  0  0  0
    7.3338  -14.4047   24.0832 N   0  0  0  0  0  0  0  0  0  0  0  0
    8.3471  -15.1980   26.1536 C   0  0  0  0  0  0  0  0  0  0  0  0
    7.4170  -15.9478   26.5487 O   0  0  0  0  0  0  0  0  0  0  0  0
   12.2403  -16.5374   26.2828 O   0  0  0  0  0  0  0  0  0  0  0  0
   11.2119  -17.3950   26.6267 C   0  0  0  0  0  0  0  0  0  0  0  0
   10.0342  -16.6683   27.2501 C   0  0  2  0  0  0  0  0  0  0  0  0
    9.6883  -15.4775   26.5083 N   0  0  0  0  0  0  0  0  0  0  0  0
   10.3874  -16.3596   28.6573 C   0  0  0  0  0  0  0  0  0  0  0  0
   10.7410  -17.3697   29.5377 O   0  0  0  0  0  0  0  0  0  0  0  0
   10.3768  -15.1825   29.0910 O   0  0  0  0  0  0  0  0  0  0  0  0
  2  4  1  0
  2  1  1  0
  3  2  2  0
  5  7  1  0
  5  4  1  0
  5  6  1  6
  7 13  1  0
  8  7  2  0
 10  9  1  6
 10 12  1  0
 11 10  1  0
 12 14  1  0
 12 13  1  6
 14 15  2  0
 14 19  1  0
 17 16  1  0
 18 17  1  6
 18 20  1  0
 19 18  1  0
 20 21  1  0
 22 20  2  0
M  END
$$$$
