NVS.pdb
     RDKit          3D

 22 21  0  0  1  0  0  0  0  0999 V2000
    6.9737  -18.9370   15.2902 N   0  0  0  0  0  0  0  0  0  0  0  0
    7.1351  -19.4743   16.5771 C   0  0  0  0  0  0  0  0  0  0  0  0
    6.6340  -20.6173   16.8028 O   0  0  0  0  0  0  0  0  0  0  0  0
    7.8577  -18.7687   17.6675 C   0  0  0  0  0  0  0  0  0  0  0  0
    8.2410  -17.3654   17.2125 C   0  0  2  0  0  0  0  0  0  0  0  0
    9.1218  -17.4356   16.0731 N   0  0  0  0  0  0  0  0  0  0  0  0
    8.8594  -16.5928   18.3123 C   0  0  0  0  0  0  0  0  0  0  0  0
   10.1002  -16.6967   18.4963 O   0  0  0  0  0  0  0  0  0  0  0  0
    7.2976  -13.0500   19.6480 C   0  0  0  0  0  0  0  0  0  0  0  0
    7.6443  -14.0189   20.7730 C   0  0  2  0  0  0  0  0  0  0  0  0
    8.1638  -13.1835   21.9207 C   0  0  0  0  0  0  0  0  0  0  0  0
    8.6549  -15.0051   20.2707 C   0  0  2  0  0  0  0  0  0  0  0  0
    8.1154  -15.7385   19.1703 N   0  0  0  0  0  0  0  0  0  0  0  0
    9.0607  -15.8620   21.4139 C   0  0  0  0  0  0  0  0  0  0  0  0
    8.1836  -16.6372   21.8756 O   0  0  0  0  0  0  0  0  0  0  0  0
   13.0077  -15.9510   22.8678 O   0  0  0  0  0  0  0  0  0  0  0  0
   12.2216  -17.0839   22.9675 C   0  0  0  0  0  0  0  0  0  0  0  0
   10.7400  -16.7592   23.0218 C   0  0  2  0  0  0  0  0  0  0  0  0
   10.3575  -15.8342   21.9797 N   0  0  0  0  0  0  0  0  0  0  0  0
   10.4443  -16.2227   24.3727 C   0  0  0  0  0  0  0  0  0  0  0  0
   10.7141  -16.9708   25.5077 O   0  0  0  0  0  0  0  0  0  0  0  0
    9.9441  -15.0828   24.5285 O   0  0  0  0  0  0  0  0  0  0  0  0
  2  4  1  0
  2  1  1  0
  3  2  2  0
  5  7  1  0
  5  4  1  0
  5  6  1  6
  7 13  1  0
  8  7  2  0
 10  9  1  6
 10 12  1  0
 11 10  1  0
 12 14  1  0
 12 13  1  6
 14 15  2  0
 14 19  1  0
 17 16  1  0
 18 17  1  1
 18 20  1  0
 19 18  1  0
 20 21  1  0
 22 20  2  0
M  END
$$$$
