NVS.pdb
     RDKit          3D

 22 21  0  0  1  0  0  0  0  0999 V2000
    7.2447  -17.6986   13.8218 N   0  0  0  0  0  0  0  0  0  0  0  0
    7.6084  -18.4006   14.9819 C   0  0  0  0  0  0  0  0  0  0  0  0
    7.2807  -19.6237   15.0544 O   0  0  0  0  0  0  0  0  0  0  0  0
    8.3497  -17.7780   16.1096 C   0  0  0  0  0  0  0  0  0  0  0  0
    8.5334  -16.2875   15.8496 C   0  0  2  0  0  0  0  0  0  0  0  0
    9.3680  -16.0840   14.6916 N   0  0  0  0  0  0  0  0  0  0  0  0
    9.0942  -15.5994   17.0332 C   0  0  0  0  0  0  0  0  0  0  0  0
   10.3402  -15.6266   17.2100 O   0  0  0  0  0  0  0  0  0  0  0  0
    8.2573  -12.5492   20.8557 C   0  0  0  0  0  0  0  0  0  0  0  0
    7.6674  -13.4674   19.7911 C   0  0  2  0  0  0  0  0  0  0  0  0
    6.6781  -14.3683   20.4946 C   0  0  0  0  0  0  0  0  0  0  0  0
    8.7796  -14.2289   19.1357 C   0  0  2  0  0  0  0  0  0  0  0  0
    8.2895  -14.9091   17.9795 N   0  0  0  0  0  0  0  0  0  0  0  0
    9.3702  -15.1359   20.1527 C   0  0  0  0  0  0  0  0  0  0  0  0
    8.7938  -16.2413   20.3238 O   0  0  0  0  0  0  0  0  0  0  0  0
   13.0283  -16.1590   23.2305 O   0  0  0  0  0  0  0  0  0  0  0  0
   12.3980  -15.2254   22.4290 C   0  0  0  0  0  0  0  0  0  0  0  0
   11.1044  -15.7506   21.8336 C   0  0  2  0  0  0  0  0  0  0  0  0
   10.5205  -14.8066   20.9084 N   0  0  0  0  0  0  0  0  0  0  0  0
   10.1860  -16.0655   22.9549 C   0  0  0  0  0  0  0  0  0  0  0  0
    9.2309  -15.1502   23.3679 O   0  0  0  0  0  0  0  0  0  0  0  0
   10.2450  -17.1628   23.5600 O   0  0  0  0  0  0  0  0  0  0  0  0
  2  4  1  0
  2  1  1  0
  3  2  2  0
  5  7  1  0
  5  4  1  0
  5  6  1  6
  7 13  1  0
  8  7  2  0
 10  9  1  1
 10 12  1  0
 11 10  1  0
 12 14  1  0
 12 13  1  6
 14 15  2  0
 14 19  1  0
 17 16  1  0
 18 17  1  1
 18 20  1  0
 19 18  1  0
 20 21  1  0
 22 20  2  0
M  END
$$$$
