NVS.pdb
     RDKit          3D

 22 21  0  0  1  0  0  0  0  0999 V2000
    8.5740  -18.6936   14.4950 N   0  0  0  0  0  0  0  0  0  0  0  0
    8.2647  -19.1875   15.7722 C   0  0  0  0  0  0  0  0  0  0  0  0
    7.7018  -20.3219   15.8422 O   0  0  0  0  0  0  0  0  0  0  0  0
    8.5657  -18.4464   17.0249 C   0  0  0  0  0  0  0  0  0  0  0  0
    8.7650  -16.9670   16.7172 C   0  0  2  0  0  0  0  0  0  0  0  0
    9.6764  -16.8077   15.6114 N   0  0  0  0  0  0  0  0  0  0  0  0
    9.2430  -16.2290   17.9071 C   0  0  0  0  0  0  0  0  0  0  0  0
   10.4722  -16.2548   18.1767 O   0  0  0  0  0  0  0  0  0  0  0  0
    7.2346  -12.9677   19.4627 C   0  0  0  0  0  0  0  0  0  0  0  0
    7.6312  -14.0167   20.4955 C   0  0  2  0  0  0  0  0  0  0  0  0
    7.9890  -13.2682   21.7592 C   0  0  0  0  0  0  0  0  0  0  0  0
    8.7744  -14.8220   19.9561 C   0  0  2  0  0  0  0  0  0  0  0  0
    8.3766  -15.4924   18.7594 N   0  0  0  0  0  0  0  0  0  0  0  0
    9.2284  -15.7422   21.0297 C   0  0  0  0  0  0  0  0  0  0  0  0
    8.5229  -16.7645   21.2307 O   0  0  0  0  0  0  0  0  0  0  0  0
   12.8767  -17.5781   23.5571 O   0  0  0  0  0  0  0  0  0  0  0  0
   12.3936  -16.5894   22.7199 C   0  0  0  0  0  0  0  0  0  0  0  0
   10.8782  -16.5063   22.7342 C   0  0  2  0  0  0  0  0  0  0  0  0
   10.3892  -15.5126   21.8060 N   0  0  0  0  0  0  0  0  0  0  0  0
   10.4546  -16.2180   24.1262 C   0  0  0  0  0  0  0  0  0  0  0  0
   10.6168  -17.1628   25.1270 O   0  0  0  0  0  0  0  0  0  0  0  0
    9.9400  -15.1174   24.4384 O   0  0  0  0  0  0  0  0  0  0  0  0
  2  4  1  0
  2  1  1  0
  3  2  2  0
  5  7  1  0
  5  4  1  0
  5  6  1  6
  7 13  1  0
  8  7  2  0
 10  9  1  6
 10 12  1  0
 11 10  1  0
 12 14  1  0
 12 13  1  6
 14 15  2  0
 14 19  1  0
 17 16  1  0
 18 17  1  1
 18 20  1  0
 19 18  1  0
 20 21  1  0
 22 20  2  0
M  END
$$$$
