NVS.pdb
     RDKit          3D

 22 21  0  0  1  0  0  0  0  0999 V2000
    9.2197  -18.2813   23.1362 N   0  0  0  0  0  0  0  0  0  0  0  0
    8.7133  -17.6714   21.9775 C   0  0  0  0  0  0  0  0  0  0  0  0
    9.3866  -17.7911   20.9094 O   0  0  0  0  0  0  0  0  0  0  0  0
    7.4408  -16.9038   21.9531 C   0  0  0  0  0  0  0  0  0  0  0  0
    7.7363  -15.4133   21.8347 C   0  0  2  0  0  0  0  0  0  0  0  0
    8.6237  -15.1691   20.7249 N   0  0  0  0  0  0  0  0  0  0  0  0
    8.3008  -14.8747   23.0917 C   0  0  0  0  0  0  0  0  0  0  0  0
    9.5515  -14.8631   23.2326 O   0  0  0  0  0  0  0  0  0  0  0  0
    6.4338  -11.9677   25.2464 C   0  0  0  0  0  0  0  0  0  0  0  0
    6.8987  -13.1329   26.1128 C   0  0  2  0  0  0  0  0  0  0  0  0
    7.3644  -12.5406   27.4233 C   0  0  0  0  0  0  0  0  0  0  0  0
    7.9860  -13.8708   25.3919 C   0  0  2  0  0  0  0  0  0  0  0  0
    7.4944  -14.3696   24.1473 N   0  0  0  0  0  0  0  0  0  0  0  0
    8.4931  -14.9322   26.2987 C   0  0  0  0  0  0  0  0  0  0  0  0
    7.6982  -15.8697   26.5681 O   0  0  0  0  0  0  0  0  0  0  0  0
   12.4463  -15.6134   26.6604 O   0  0  0  0  0  0  0  0  0  0  0  0
   11.5715  -16.5975   27.0823 C   0  0  0  0  0  0  0  0  0  0  0  0
   10.2827  -16.0260   27.6445 C   0  0  2  0  0  0  0  0  0  0  0  0
    9.7967  -14.9217   26.8494 N   0  0  0  0  0  0  0  0  0  0  0  0
   10.5415  -15.6241   29.0487 C   0  0  0  0  0  0  0  0  0  0  0  0
   11.0139  -16.5417   29.9735 O   0  0  0  0  0  0  0  0  0  0  0  0
   10.3420  -14.4490   29.4398 O   0  0  0  0  0  0  0  0  0  0  0  0
  2  4  1  0
  2  1  1  0
  3  2  2  0
  5  7  1  0
  5  4  1  0
  5  6  1  6
  7 13  1  0
  8  7  2  0
 10  9  1  6
 10 12  1  0
 11 10  1  0
 12 14  1  0
 12 13  1  6
 14 15  2  0
 14 19  1  0
 17 16  1  0
 18 17  1  6
 18 20  1  0
 19 18  1  0
 20 21  1  0
 22 20  2  0
M  END
$$$$
