NVS.pdb
     RDKit          3D

 22 21  0  0  1  0  0  0  0  0999 V2000
   11.2999  -19.1615   15.4269 N   0  0  0  0  0  0  0  0  0  0  0  0
   10.5116  -18.0009   15.4766 C   0  0  0  0  0  0  0  0  0  0  0  0
    9.6603  -17.8298   14.5523 O   0  0  0  0  0  0  0  0  0  0  0  0
   10.6331  -16.9816   16.5515 C   0  0  0  0  0  0  0  0  0  0  0  0
    9.5944  -17.2446   17.6355 C   0  0  2  0  0  0  0  0  0  0  0  0
    8.2746  -16.9334   17.1452 N   0  0  0  0  0  0  0  0  0  0  0  0
    9.8951  -16.4805   18.8662 C   0  0  0  0  0  0  0  0  0  0  0  0
   11.0438  -16.5816   19.3709 O   0  0  0  0  0  0  0  0  0  0  0  0
    6.7608  -14.6079   21.1076 C   0  0  0  0  0  0  0  0  0  0  0  0
    8.0912  -13.8908   20.9066 C   0  0  2  0  0  0  0  0  0  0  0  0
    7.9209  -12.9886   19.7057 C   0  0  0  0  0  0  0  0  0  0  0  0
    9.1701  -14.9132   20.7145 C   0  0  2  0  0  0  0  0  0  0  0  0
    8.9454  -15.6376   19.5043 N   0  0  0  0  0  0  0  0  0  0  0  0
    9.2016  -15.7735   21.9246 C   0  0  0  0  0  0  0  0  0  0  0  0
    8.2325  -16.5608   22.0812 O   0  0  0  0  0  0  0  0  0  0  0  0
   12.6440  -17.0218   23.5413 O   0  0  0  0  0  0  0  0  0  0  0  0
   11.4472  -17.6498   23.8327 C   0  0  0  0  0  0  0  0  0  0  0  0
   10.2974  -16.6694   23.9758 C   0  0  2  0  0  0  0  0  0  0  0  0
   10.2509  -15.7363   22.8735 N   0  0  0  0  0  0  0  0  0  0  0  0
   10.4527  -15.9780   25.2788 C   0  0  0  0  0  0  0  0  0  0  0  0
   10.4679  -16.6948   26.4648 O   0  0  0  0  0  0  0  0  0  0  0  0
   10.5744  -14.7313   25.3471 O   0  0  0  0  0  0  0  0  0  0  0  0
  2  4  1  0
  2  1  1  0
  3  2  2  0
  5  7  1  0
  5  4  1  0
  5  6  1  6
  7 13  1  0
  8  7  2  0
 10  9  1  6
 10 12  1  0
 11 10  1  0
 12 14  1  0
 12 13  1  6
 14 15  2  0
 14 19  1  0
 17 16  1  0
 18 17  1  6
 18 20  1  0
 19 18  1  0
 20 21  1  0
 22 20  2  0
M  END
$$$$
