NVS.pdb
     RDKit          3D

 22 21  0  0  1  0  0  0  0  0999 V2000
    5.7060  -19.7667   21.7664 N   0  0  0  0  0  0  0  0  0  0  0  0
    5.3383  -18.5960   22.4485 C   0  0  0  0  0  0  0  0  0  0  0  0
    4.1489  -18.1809   22.3024 O   0  0  0  0  0  0  0  0  0  0  0  0
    6.2719  -17.8365   23.3206 C   0  0  0  0  0  0  0  0  0  0  0  0
    6.2391  -16.3580   22.9522 C   0  0  2  0  0  0  0  0  0  0  0  0
    6.4896  -16.1914   21.5421 N   0  0  0  0  0  0  0  0  0  0  0  0
    7.2073  -15.5808   23.7568 C   0  0  0  0  0  0  0  0  0  0  0  0
    8.4192  -15.5945   23.4170 O   0  0  0  0  0  0  0  0  0  0  0  0
    6.2051  -12.1724   25.6996 C   0  0  0  0  0  0  0  0  0  0  0  0
    6.9695  -13.1375   26.5988 C   0  0  2  0  0  0  0  0  0  0  0  0
    7.8707  -12.2953   27.4727 C   0  0  0  0  0  0  0  0  0  0  0  0
    7.7313  -14.1015   25.7405 C   0  0  2  0  0  0  0  0  0  0  0  0
    6.8306  -14.8195   24.8962 N   0  0  0  0  0  0  0  0  0  0  0  0
    8.5294  -14.9757   26.6374 C   0  0  0  0  0  0  0  0  0  0  0  0
    7.8916  -15.6173   27.5120 O   0  0  0  0  0  0  0  0  0  0  0  0
   12.7002  -15.4285   26.2153 O   0  0  0  0  0  0  0  0  0  0  0  0
   11.9292  -16.5320   26.5305 C   0  0  0  0  0  0  0  0  0  0  0  0
   10.6403  -16.1564   27.2384 C   0  0  2  0  0  0  0  0  0  0  0  0
    9.9355  -15.1047   26.5418 N   0  0  0  0  0  0  0  0  0  0  0  0
   10.9849  -15.7649   28.6269 C   0  0  0  0  0  0  0  0  0  0  0  0
   10.6104  -14.5286   29.1290 O   0  0  0  0  0  0  0  0  0  0  0  0
   11.6219  -16.5355   29.3846 O   0  0  0  0  0  0  0  0  0  0  0  0
  2  4  1  0
  2  1  1  0
  3  2  2  0
  5  7  1  0
  5  4  1  0
  5  6  1  6
  7 13  1  0
  8  7  2  0
 10  9  1  6
 10 12  1  0
 11 10  1  0
 12 14  1  0
 12 13  1  1
 14 15  2  0
 14 19  1  0
 17 16  1  0
 18 17  1  6
 18 20  1  0
 19 18  1  0
 20 21  1  0
 22 20  2  0
M  END
$$$$
