NVS.pdb
     RDKit          3D

 22 21  0  0  1  0  0  0  0  0999 V2000
    6.7549  -19.1642   16.4154 N   0  0  0  0  0  0  0  0  0  0  0  0
    7.9178  -18.7112   15.7725 C   0  0  0  0  0  0  0  0  0  0  0  0
    8.0513  -18.9835   14.5411 O   0  0  0  0  0  0  0  0  0  0  0  0
    8.9809  -17.9380   16.4660 C   0  0  0  0  0  0  0  0  0  0  0  0
    8.6802  -16.4465   16.3759 C   0  0  2  0  0  0  0  0  0  0  0  0
    9.0348  -15.9459   15.0710 N   0  0  0  0  0  0  0  0  0  0  0  0
    9.3780  -15.6912   17.4396 C   0  0  0  0  0  0  0  0  0  0  0  0
   10.6170  -15.5002   17.3273 O   0  0  0  0  0  0  0  0  0  0  0  0
    7.2404  -14.5410   20.9430 C   0  0  0  0  0  0  0  0  0  0  0  0
    8.3592  -13.6555   20.4058 C   0  0  2  0  0  0  0  0  0  0  0  0
    7.7067  -12.6270   19.5103 C   0  0  0  0  0  0  0  0  0  0  0  0
    9.3499  -14.5124   19.6773 C   0  0  2  0  0  0  0  0  0  0  0  0
    8.7122  -15.1716   18.5826 N   0  0  0  0  0  0  0  0  0  0  0  0
    9.9542  -15.4454   20.6621 C   0  0  0  0  0  0  0  0  0  0  0  0
    9.3690  -16.5472   20.8267 O   0  0  0  0  0  0  0  0  0  0  0  0
   13.6201  -16.5613   23.6960 O   0  0  0  0  0  0  0  0  0  0  0  0
   13.0465  -15.6425   22.8368 C   0  0  0  0  0  0  0  0  0  0  0  0
   11.6832  -16.0864   22.3387 C   0  0  2  0  0  0  0  0  0  0  0  0
   11.1267  -15.1440   21.3951 N   0  0  0  0  0  0  0  0  0  0  0  0
   10.8066  -16.2669   23.5216 C   0  0  0  0  0  0  0  0  0  0  0  0
   10.9020  -17.4040   24.3080 O   0  0  0  0  0  0  0  0  0  0  0  0
    9.9576  -15.4017   23.8444 O   0  0  0  0  0  0  0  0  0  0  0  0
  2  4  1  0
  2  1  1  0
  3  2  2  0
  5  7  1  0
  5  4  1  0
  5  6  1  6
  7 13  1  0
  8  7  2  0
 10  9  1  6
 10 12  1  0
 11 10  1  0
 12 14  1  0
 12 13  1  6
 14 15  2  0
 14 19  1  0
 17 16  1  0
 18 17  1  1
 18 20  1  0
 19 18  1  0
 20 21  1  0
 22 20  2  0
M  END
$$$$
