NVS.pdb
     RDKit          3D

 22 21  0  0  1  0  0  0  0  0999 V2000
    7.1694  -17.5926   19.1391 N   0  0  0  0  0  0  0  0  0  0  0  0
    6.6002  -17.1042   20.3259 C   0  0  0  0  0  0  0  0  0  0  0  0
    5.3349  -17.0427   20.3877 O   0  0  0  0  0  0  0  0  0  0  0  0
    7.4078  -16.6637   21.4932 C   0  0  0  0  0  0  0  0  0  0  0  0
    7.3092  -15.1510   21.6512 C   0  0  2  0  0  0  0  0  0  0  0  0
    7.8466  -14.4935   20.4859 N   0  0  0  0  0  0  0  0  0  0  0  0
    7.9933  -14.6921   22.8801 C   0  0  0  0  0  0  0  0  0  0  0  0
    9.2517  -14.6733   22.8962 O   0  0  0  0  0  0  0  0  0  0  0  0
    6.5433  -11.8675   25.3079 C   0  0  0  0  0  0  0  0  0  0  0  0
    6.9504  -13.1005   26.1069 C   0  0  2  0  0  0  0  0  0  0  0  0
    7.5693  -12.6001   27.3921 C   0  0  0  0  0  0  0  0  0  0  0  0
    7.9011  -13.9189   25.2867 C   0  0  2  0  0  0  0  0  0  0  0  0
    7.2934  -14.2715   24.0432 N   0  0  0  0  0  0  0  0  0  0  0  0
    8.3108  -15.0913   26.1012 C   0  0  0  0  0  0  0  0  0  0  0  0
    7.3945  -15.8757   26.4596 O   0  0  0  0  0  0  0  0  0  0  0  0
   12.2686  -16.3518   26.3280 O   0  0  0  0  0  0  0  0  0  0  0  0
   11.2208  -17.2278   26.5429 C   0  0  0  0  0  0  0  0  0  0  0  0
   10.0197  -16.5512   27.1777 C   0  0  2  0  0  0  0  0  0  0  0  0
    9.6525  -15.3442   26.4732 N   0  0  0  0  0  0  0  0  0  0  0  0
   10.3508  -16.2828   28.5984 C   0  0  0  0  0  0  0  0  0  0  0  0
   10.6738  -17.3195   29.4595 O   0  0  0  0  0  0  0  0  0  0  0  0
   10.3488  -15.1168   29.0613 O   0  0  0  0  0  0  0  0  0  0  0  0
  2  4  1  0
  2  1  1  0
  3  2  2  0
  5  7  1  0
  5  4  1  0
  5  6  1  6
  7 13  1  0
  8  7  2  0
 10  9  1  6
 10 12  1  0
 11 10  1  0
 12 14  1  0
 12 13  1  6
 14 15  2  0
 14 19  1  0
 17 16  1  0
 18 17  1  6
 18 20  1  0
 19 18  1  0
 20 21  1  0
 22 20  2  0
M  END
$$$$
