NVS.pdb
     RDKit          3D

 22 21  0  0  1  0  0  0  0  0999 V2000
    7.0410  -16.1293   19.2550 N   0  0  0  0  0  0  0  0  0  0  0  0
    6.7088  -16.9683   20.3305 C   0  0  0  0  0  0  0  0  0  0  0  0
    6.3268  -18.1468   20.0591 O   0  0  0  0  0  0  0  0  0  0  0  0
    6.7855  -16.5375   21.7509 C   0  0  0  0  0  0  0  0  0  0  0  0
    7.0521  -15.0387   21.8248 C   0  0  2  0  0  0  0  0  0  0  0  0
    7.7354  -14.5961   20.6347 N   0  0  0  0  0  0  0  0  0  0  0  0
    7.8224  -14.6878   23.0383 C   0  0  0  0  0  0  0  0  0  0  0  0
    9.0571  -14.9317   23.0580 O   0  0  0  0  0  0  0  0  0  0  0  0
    6.5945  -11.7617   25.5906 C   0  0  0  0  0  0  0  0  0  0  0  0
    7.0206  -13.0289   26.3233 C   0  0  2  0  0  0  0  0  0  0  0  0
    7.7287  -12.5848   27.5829 C   0  0  0  0  0  0  0  0  0  0  0  0
    7.8996  -13.8401   25.4201 C   0  0  2  0  0  0  0  0  0  0  0  0
    7.2309  -14.0878   24.1827 N   0  0  0  0  0  0  0  0  0  0  0  0
    8.2801  -15.0776   26.1479 C   0  0  0  0  0  0  0  0  0  0  0  0
    7.3514  -15.8858   26.4081 O   0  0  0  0  0  0  0  0  0  0  0  0
   12.0555  -16.6642   26.0340 O   0  0  0  0  0  0  0  0  0  0  0  0
   10.9492  -17.4123   26.3918 C   0  0  0  0  0  0  0  0  0  0  0  0
    9.9420  -16.6106   27.1959 C   0  0  2  0  0  0  0  0  0  0  0  0
    9.6080  -15.3652   26.5437 N   0  0  0  0  0  0  0  0  0  0  0  0
   10.5144  -16.3909   28.5466 C   0  0  0  0  0  0  0  0  0  0  0  0
   10.8709  -17.4632   29.3488 O   0  0  0  0  0  0  0  0  0  0  0  0
   10.6921  -15.2354   29.0014 O   0  0  0  0  0  0  0  0  0  0  0  0
  2  4  1  0
  2  1  1  0
  3  2  2  0
  5  7  1  0
  5  4  1  0
  5  6  1  6
  7 13  1  0
  8  7  2  0
 10  9  1  6
 10 12  1  0
 11 10  1  0
 12 14  1  0
 12 13  1  6
 14 15  2  0
 14 19  1  0
 17 16  1  0
 18 17  1  6
 18 20  1  0
 19 18  1  0
 20 21  1  0
 22 20  2  0
M  END
$$$$
