NVS.pdb
     RDKit          3D

 22 21  0  0  1  0  0  0  0  0999 V2000
    7.4212  -12.8008   18.1531 N   0  0  0  0  0  0  0  0  0  0  0  0
    7.8900  -13.8538   18.9546 C   0  0  0  0  0  0  0  0  0  0  0  0
    7.8150  -15.0286   18.4825 O   0  0  0  0  0  0  0  0  0  0  0  0
    8.4610  -13.6501   20.3116 C   0  0  0  0  0  0  0  0  0  0  0  0
    7.9075  -14.6980   21.2699 C   0  0  2  0  0  0  0  0  0  0  0  0
    6.4665  -14.7062   21.2193 N   0  0  0  0  0  0  0  0  0  0  0  0
    8.3869  -14.4714   22.6511 C   0  0  0  0  0  0  0  0  0  0  0  0
    9.6279  -14.4343   22.8582 O   0  0  0  0  0  0  0  0  0  0  0  0
    6.5414  -12.1264   25.1160 C   0  0  0  0  0  0  0  0  0  0  0  0
    6.8892  -13.3940   25.8885 C   0  0  2  0  0  0  0  0  0  0  0  0
    7.3876  -12.9523   27.2456 C   0  0  0  0  0  0  0  0  0  0  0  0
    7.9164  -14.1665   25.1176 C   0  0  2  0  0  0  0  0  0  0  0  0
    7.5092  -14.2936   23.7546 N   0  0  0  0  0  0  0  0  0  0  0  0
    8.1136  -15.4694   25.8027 C   0  0  0  0  0  0  0  0  0  0  0  0
    7.0877  -16.1785   25.9701 O   0  0  0  0  0  0  0  0  0  0  0  0
   11.5238  -17.5443   25.4944 O   0  0  0  0  0  0  0  0  0  0  0  0
   10.3561  -18.1447   25.9274 C   0  0  0  0  0  0  0  0  0  0  0  0
    9.5375  -17.2386   26.8289 C   0  0  2  0  0  0  0  0  0  0  0  0
    9.3754  -15.9216   26.2569 N   0  0  0  0  0  0  0  0  0  0  0  0
   10.2102  -17.1883   28.1499 C   0  0  0  0  0  0  0  0  0  0  0  0
   10.6590  -15.9856   28.6719 O   0  0  0  0  0  0  0  0  0  0  0  0
   10.3923  -18.2260   28.8309 O   0  0  0  0  0  0  0  0  0  0  0  0
  2  4  1  0
  2  1  1  0
  3  2  2  0
  5  7  1  0
  5  4  1  0
  5  6  1  1
  7 13  1  0
  8  7  2  0
 10  9  1  6
 10 12  1  0
 11 10  1  0
 12 14  1  0
 12 13  1  6
 14 15  2  0
 14 19  1  0
 17 16  1  0
 18 17  1  6
 18 20  1  0
 19 18  1  0
 20 21  1  0
 22 20  2  0
M  END
$$$$
