NVS.pdb
     RDKit          3D

 22 21  0  0  1  0  0  0  0  0999 V2000
   10.3821  -16.9535   13.5135 N   0  0  0  0  0  0  0  0  0  0  0  0
   10.4050  -17.5396   14.7889 C   0  0  0  0  0  0  0  0  0  0  0  0
   10.1638  -18.7823   14.8680 O   0  0  0  0  0  0  0  0  0  0  0  0
   10.6958  -16.7747   16.0296 C   0  0  0  0  0  0  0  0  0  0  0  0
    9.7318  -17.1916   17.1341 C   0  0  2  0  0  0  0  0  0  0  0  0
    8.3720  -17.1213   16.6597 N   0  0  0  0  0  0  0  0  0  0  0  0
    9.9123  -16.3641   18.3471 C   0  0  0  0  0  0  0  0  0  0  0  0
   11.0648  -16.2695   18.8443 O   0  0  0  0  0  0  0  0  0  0  0  0
    7.8565  -13.0401   19.0970 C   0  0  0  0  0  0  0  0  0  0  0  0
    7.8169  -13.9632   20.3097 C   0  0  2  0  0  0  0  0  0  0  0  0
    7.9272  -13.0799   21.5314 C   0  0  0  0  0  0  0  0  0  0  0  0
    8.9396  -14.9507   20.2057 C   0  0  2  0  0  0  0  0  0  0  0  0
    8.8429  -15.6712   18.9763 N   0  0  0  0  0  0  0  0  0  0  0  0
    8.8931  -15.8199   21.4089 C   0  0  0  0  0  0  0  0  0  0  0  0
    8.0856  -16.7844   21.3759 O   0  0  0  0  0  0  0  0  0  0  0  0
   10.7342  -18.8181   22.1603 O   0  0  0  0  0  0  0  0  0  0  0  0
   11.2037  -17.5294   22.3344 C   0  0  0  0  0  0  0  0  0  0  0  0
   10.3167  -16.7076   23.2518 C   0  0  2  0  0  0  0  0  0  0  0  0
    9.7005  -15.6043   22.5510 N   0  0  0  0  0  0  0  0  0  0  0  0
   11.1488  -16.2443   24.3889 C   0  0  0  0  0  0  0  0  0  0  0  0
   12.0063  -15.1649   24.2467 O   0  0  0  0  0  0  0  0  0  0  0  0
   11.1024  -16.8114   25.5069 O   0  0  0  0  0  0  0  0  0  0  0  0
  2  4  1  0
  2  1  1  0
  3  2  2  0
  5  7  1  0
  5  4  1  0
  5  6  1  6
  7 13  1  0
  8  7  2  0
 10  9  1  6
 10 12  1  0
 11 10  1  0
 12 14  1  0
 12 13  1  6
 14 15  2  0
 14 19  1  0
 17 16  1  0
 18 17  1  6
 18 20  1  0
 19 18  1  0
 20 21  1  0
 22 20  2  0
M  END
$$$$
