QCT.pdb
     RDKit          3D

 23 22  0  0  1  0  0  0  0  0999 V2000
    7.5825  -17.6969   18.9973 N   0  0  0  0  0  0  0  0  0  0  0  0
    7.1428  -17.1298   17.7764 C   0  0  0  0  0  0  0  0  0  0  0  0
    6.2110  -17.7072   17.1617 O   0  0  0  0  0  0  0  0  0  0  0  0
    7.7213  -15.9017   17.1938 C   0  0  0  0  0  0  0  0  0  0  0  0
    8.7377  -15.2626   18.1119 C   0  0  0  0  0  0  0  0  0  0  0  0
    8.0512  -14.1305   18.8437 C   0  0  2  0  0  0  0  0  0  0  0  0
    8.3917  -12.9082   18.1333 N   0  0  0  0  0  0  0  0  0  0  0  0
    8.5315  -14.0116   20.2451 C   0  0  0  0  0  0  0  0  0  0  0  0
    9.7485  -13.7369   20.4729 O   0  0  0  0  0  0  0  0  0  0  0  0
    7.6625  -14.1976   21.3447 N   0  0  0  0  0  0  0  0  0  0  0  0
    8.1583  -14.1892   22.7291 C   0  0  1  0  0  0  0  0  0  0  0  0
    7.0818  -13.5860   23.6348 C   0  0  0  0  0  0  0  0  0  0  0  0
    7.5796  -13.7583   25.3725 S   0  0  0  0  0  0  0  0  0  0  0  0
    8.3550  -15.5964   23.1533 C   0  0  0  0  0  0  0  0  0  0  0  0
    7.4195  -16.4157   23.1323 O   0  0  0  0  0  0  0  0  0  0  0  0
   10.6116  -17.8127   21.5526 C   0  0  0  0  0  0  0  0  0  0  0  0
   11.0373  -17.8620   22.9975 C   0  0  1  0  0  0  0  0  0  0  0  0
   12.1247  -17.0138   23.2045 O   0  0  0  0  0  0  0  0  0  0  0  0
    9.9259  -17.4115   23.9113 C   0  0  2  0  0  0  0  0  0  0  0  0
    9.6259  -16.0357   23.5944 N   0  0  0  0  0  0  0  0  0  0  0  0
   10.3389  -17.5119   25.3342 C   0  0  0  0  0  0  0  0  0  0  0  0
   10.4976  -16.3722   26.1078 O   0  0  0  0  0  0  0  0  0  0  0  0
   10.5487  -18.6185   25.8541 O   0  0  0  0  0  0  0  0  0  0  0  0
  1  2  1  0
  2  3  2  0
  4  2  1  0
  4  5  1  0
  5  6  1  0
  6  8  1  0
  6  7  1  6
  8 10  1  0
  8  9  2  0
 10 11  1  0
 11 14  1  0
 11 12  1  1
 13 12  1  0
 14 20  1  0
 14 15  2  0
 17 16  1  6
 17 19  1  0
 17 18  1  0
 19 21  1  0
 19 20  1  6
 21 22  1  0
 23 21  2  0
M  END
$$$$
