QCT.pdb
     RDKit          3D

 23 22  0  0  1  0  0  0  0  0999 V2000
   10.3455  -13.0812   19.6711 N   0  0  0  0  0  0  0  0  0  0  0  0
    9.4130  -13.0393   18.6061 C   0  0  0  0  0  0  0  0  0  0  0  0
    9.8618  -12.9770   17.4338 O   0  0  0  0  0  0  0  0  0  0  0  0
    7.9493  -13.0651   18.8038 C   0  0  0  0  0  0  0  0  0  0  0  0
    7.5740  -13.4664   20.2118 C   0  0  0  0  0  0  0  0  0  0  0  0
    7.8766  -14.9404   20.3678 C   0  0  2  0  0  0  0  0  0  0  0  0
    6.8885  -15.6547   19.5753 N   0  0  0  0  0  0  0  0  0  0  0  0
    7.7540  -15.3792   21.7824 C   0  0  0  0  0  0  0  0  0  0  0  0
    6.6074  -15.4702   22.3169 O   0  0  0  0  0  0  0  0  0  0  0  0
    8.8903  -15.7020   22.5594 N   0  0  0  0  0  0  0  0  0  0  0  0
    8.7654  -16.2077   23.9347 C   0  0  1  0  0  0  0  0  0  0  0  0
    9.8340  -17.2792   24.1650 C   0  0  0  0  0  0  0  0  0  0  0  0
    9.8715  -17.7357   25.9220 S   0  0  0  0  0  0  0  0  0  0  0  0
    9.0554  -15.0877   24.8622 C   0  0  0  0  0  0  0  0  0  0  0  0
   10.1204  -14.4490   24.7927 O   0  0  0  0  0  0  0  0  0  0  0  0
    6.8411  -12.0337   25.7097 C   0  0  0  0  0  0  0  0  0  0  0  0
    7.0736  -12.8730   26.9397 C   0  0  1  0  0  0  0  0  0  0  0  0
    6.0198  -13.7699   27.1125 O   0  0  0  0  0  0  0  0  0  0  0  0
    8.3434  -13.6771   26.8218 C   0  0  2  0  0  0  0  0  0  0  0  0
    8.1140  -14.7228   25.8537 N   0  0  0  0  0  0  0  0  0  0  0  0
    8.7073  -14.2840   28.1274 C   0  0  0  0  0  0  0  0  0  0  0  0
    8.6878  -15.6597   28.2991 O   0  0  0  0  0  0  0  0  0  0  0  0
    9.0350  -13.5688   29.0866 O   0  0  0  0  0  0  0  0  0  0  0  0
  1  2  1  0
  2  3  2  0
  4  2  1  0
  4  5  1  0
  5  6  1  0
  6  8  1  0
  6  7  1  6
  8 10  1  0
  8  9  2  0
 10 11  1  0
 11 14  1  0
 11 12  1  6
 13 12  1  0
 14 20  1  0
 14 15  2  0
 17 16  1  6
 17 19  1  0
 17 18  1  0
 19 21  1  0
 19 20  1  6
 21 22  1  0
 23 21  2  0
M  END
$$$$
