QCT.pdb
     RDKit          3D

 23 22  0  0  1  0  0  0  0  0999 V2000
    7.8624  -13.4955   17.7996 N   0  0  0  0  0  0  0  0  0  0  0  0
    9.0836  -13.4258   18.5133 C   0  0  0  0  0  0  0  0  0  0  0  0
    9.9131  -12.5445   18.1746 O   0  0  0  0  0  0  0  0  0  0  0  0
    9.4280  -14.3315   19.6284 C   0  0  0  0  0  0  0  0  0  0  0  0
    8.3192  -15.3154   19.9232 C   0  0  0  0  0  0  0  0  0  0  0  0
    8.7508  -16.1570   21.1038 C   0  0  2  0  0  0  0  0  0  0  0  0
    7.7517  -17.2025   21.2575 N   0  0  0  0  0  0  0  0  0  0  0  0
    8.7975  -15.3607   22.3577 C   0  0  0  0  0  0  0  0  0  0  0  0
    9.6313  -14.4117   22.4708 O   0  0  0  0  0  0  0  0  0  0  0  0
    7.9305  -15.6323   23.4410 N   0  0  0  0  0  0  0  0  0  0  0  0
    7.9986  -14.8655   24.6939 C   0  0  1  0  0  0  0  0  0  0  0  0
    6.6211  -14.8874   25.3610 C   0  0  0  0  0  0  0  0  0  0  0  0
    6.4638  -13.4683   26.4828 S   0  0  0  0  0  0  0  0  0  0  0  0
    8.9415  -15.5591   25.6042 C   0  0  0  0  0  0  0  0  0  0  0  0
    9.3645  -16.7009   25.3505 O   0  0  0  0  0  0  0  0  0  0  0  0
   11.1542  -13.2044   28.2016 C   0  0  0  0  0  0  0  0  0  0  0  0
   10.6317  -14.4967   28.7746 C   0  0  1  0  0  0  0  0  0  0  0  0
    9.4369  -14.2686   29.4567 O   0  0  0  0  0  0  0  0  0  0  0  0
   10.3525  -15.5040   27.6882 C   0  0  2  0  0  0  0  0  0  0  0  0
    9.3809  -14.9258   26.7909 N   0  0  0  0  0  0  0  0  0  0  0  0
    9.8087  -16.7616   28.2611 C   0  0  0  0  0  0  0  0  0  0  0  0
   10.5795  -17.5472   29.1043 O   0  0  0  0  0  0  0  0  0  0  0  0
    8.6545  -17.1297   27.9940 O   0  0  0  0  0  0  0  0  0  0  0  0
  1  2  1  0
  2  3  2  0
  4  2  1  0
  4  5  1  0
  5  6  1  0
  6  8  1  0
  6  7  1  1
  8 10  1  0
  8  9  2  0
 10 11  1  0
 11 14  1  0
 11 12  1  1
 13 12  1  0
 14 20  1  0
 14 15  2  0
 17 16  1  6
 17 19  1  0
 17 18  1  0
 19 21  1  0
 19 20  1  6
 21 22  1  0
 23 21  2  0
M  END
$$$$
