QCT.pdb
     RDKit          3D

 23 22  0  0  1  0  0  0  0  0999 V2000
   12.8010  -14.3743   20.3931 N   0  0  0  0  0  0  0  0  0  0  0  0
   11.8020  -14.5392   19.4029 C   0  0  0  0  0  0  0  0  0  0  0  0
   11.6731  -15.6753   18.8813 O   0  0  0  0  0  0  0  0  0  0  0  0
   10.9105  -13.4493   18.9561 C   0  0  0  0  0  0  0  0  0  0  0  0
    9.8213  -13.1588   19.9629 C   0  0  0  0  0  0  0  0  0  0  0  0
    8.7291  -14.1878   19.7711 C   0  0  2  0  0  0  0  0  0  0  0  0
    7.8431  -13.6681   18.7418 N   0  0  0  0  0  0  0  0  0  0  0  0
    7.9407  -14.3897   21.0147 C   0  0  0  0  0  0  0  0  0  0  0  0
    7.0521  -13.5457   21.3415 O   0  0  0  0  0  0  0  0  0  0  0  0
    8.1539  -15.5071   21.8542 N   0  0  0  0  0  0  0  0  0  0  0  0
    7.3642  -15.7141   23.0774 C   0  0  1  0  0  0  0  0  0  0  0  0
    7.2303  -17.2181   23.3293 C   0  0  0  0  0  0  0  0  0  0  0  0
    6.4211  -17.4988   24.9303 S   0  0  0  0  0  0  0  0  0  0  0  0
    8.1238  -15.1415   24.2148 C   0  0  0  0  0  0  0  0  0  0  0  0
    9.3640  -15.2186   24.2693 O   0  0  0  0  0  0  0  0  0  0  0  0
    6.9422  -11.7210   26.2249 C   0  0  0  0  0  0  0  0  0  0  0  0
    7.1499  -12.9526   27.0684 C   0  0  1  0  0  0  0  0  0  0  0  0
    5.9388  -13.6214   27.2439 O   0  0  0  0  0  0  0  0  0  0  0  0
    8.1101  -13.9110   26.4108 C   0  0  2  0  0  0  0  0  0  0  0  0
    7.4420  -14.4900   25.2699 N   0  0  0  0  0  0  0  0  0  0  0  0
    8.5063  -14.9899   27.3512 C   0  0  0  0  0  0  0  0  0  0  0  0
    8.1557  -16.3085   27.1047 O   0  0  0  0  0  0  0  0  0  0  0  0
    9.1582  -14.7282   28.3737 O   0  0  0  0  0  0  0  0  0  0  0  0
  1  2  1  0
  2  3  2  0
  4  2  1  0
  4  5  1  0
  5  6  1  0
  6  8  1  0
  6  7  1  6
  8 10  1  0
  8  9  2  0
 10 11  1  0
 11 14  1  0
 11 12  1  1
 13 12  1  0
 14 20  1  0
 14 15  2  0
 17 16  1  6
 17 19  1  0
 17 18  1  0
 19 21  1  0
 19 20  1  6
 21 22  1  0
 23 21  2  0
M  END
$$$$
