QCT.pdb
     RDKit          3D

 23 22  0  0  1  0  0  0  0  0999 V2000
    8.8479  -13.3835   16.7306 N   0  0  0  0  0  0  0  0  0  0  0  0
    7.9036  -13.9089   17.6460 C   0  0  0  0  0  0  0  0  0  0  0  0
    7.4095  -15.0375   17.3979 O   0  0  0  0  0  0  0  0  0  0  0  0
    7.4739  -13.2009   18.8692 C   0  0  0  0  0  0  0  0  0  0  0  0
    8.5527  -13.1912   19.9276 C   0  0  0  0  0  0  0  0  0  0  0  0
    8.3401  -14.3982   20.8145 C   0  0  2  0  0  0  0  0  0  0  0  0
    6.9358  -14.7579   20.6987 N   0  0  0  0  0  0  0  0  0  0  0  0
    8.6329  -14.0912   22.2388 C   0  0  0  0  0  0  0  0  0  0  0  0
    9.7703  -13.6340   22.5640 O   0  0  0  0  0  0  0  0  0  0  0  0
    7.6705  -14.2958   23.2541 N   0  0  0  0  0  0  0  0  0  0  0  0
    7.9657  -14.0076   24.6656 C   0  0  1  0  0  0  0  0  0  0  0  0
    6.7916  -13.2307   25.2663 C   0  0  0  0  0  0  0  0  0  0  0  0
    7.0737  -12.9751   27.0417 S   0  0  0  0  0  0  0  0  0  0  0  0
    8.0561  -15.2998   25.3873 C   0  0  0  0  0  0  0  0  0  0  0  0
    7.0419  -15.9773   25.6312 O   0  0  0  0  0  0  0  0  0  0  0  0
    9.8378  -18.2152   24.3513 C   0  0  0  0  0  0  0  0  0  0  0  0
   10.4197  -17.8979   25.7049 C   0  0  1  0  0  0  0  0  0  0  0  0
   11.6157  -17.1957   25.5583 O   0  0  0  0  0  0  0  0  0  0  0  0
    9.4825  -17.0398   26.5162 C   0  0  2  0  0  0  0  0  0  0  0  0
    9.3128  -15.7894   25.8156 N   0  0  0  0  0  0  0  0  0  0  0  0
   10.0421  -16.7775   27.8665 C   0  0  0  0  0  0  0  0  0  0  0  0
   10.3859  -15.4912   28.2532 O   0  0  0  0  0  0  0  0  0  0  0  0
   10.2112  -17.7065   28.6711 O   0  0  0  0  0  0  0  0  0  0  0  0
  1  2  1  0
  2  3  2  0
  4  2  1  0
  4  5  1  0
  5  6  1  0
  6  8  1  0
  6  7  1  1
  8 10  1  0
  8  9  2  0
 10 11  1  0
 11 14  1  0
 11 12  1  1
 13 12  1  0
 14 20  1  0
 14 15  2  0
 17 16  1  6
 17 19  1  0
 17 18  1  0
 19 21  1  0
 19 20  1  6
 21 22  1  0
 23 21  2  0
M  END
$$$$
