QCT.pdb
     RDKit          3D

 23 22  0  0  1  0  0  0  0  0999 V2000
    5.7830  -17.2561   21.2067 N   0  0  0  0  0  0  0  0  0  0  0  0
    6.8880  -16.9758   20.3665 C   0  0  0  0  0  0  0  0  0  0  0  0
    7.9335  -17.6552   20.5239 O   0  0  0  0  0  0  0  0  0  0  0  0
    6.8725  -15.9316   19.3217 C   0  0  0  0  0  0  0  0  0  0  0  0
    8.0424  -14.9833   19.4501 C   0  0  0  0  0  0  0  0  0  0  0  0
    7.5595  -13.7510   20.1825 C   0  0  2  0  0  0  0  0  0  0  0  0
    8.0003  -12.6043   19.4044 N   0  0  0  0  0  0  0  0  0  0  0  0
    8.1507  -13.6539   21.5426 C   0  0  0  0  0  0  0  0  0  0  0  0
    9.3930  -13.4361   21.6756 O   0  0  0  0  0  0  0  0  0  0  0  0
    7.3608  -13.7988   22.7062 N   0  0  0  0  0  0  0  0  0  0  0  0
    7.9541  -13.7556   24.0511 C   0  0  1  0  0  0  0  0  0  0  0  0
    6.9863  -13.0365   24.9941 C   0  0  0  0  0  0  0  0  0  0  0  0
    7.5936  -13.1588   26.7009 S   0  0  0  0  0  0  0  0  0  0  0  0
    8.0898  -15.1501   24.5364 C   0  0  0  0  0  0  0  0  0  0  0  0
    7.0922  -15.8640   24.7420 O   0  0  0  0  0  0  0  0  0  0  0  0
    9.9538  -17.8434   22.9309 C   0  0  0  0  0  0  0  0  0  0  0  0
   10.5421  -17.7232   24.3133 C   0  0  1  0  0  0  0  0  0  0  0  0
   11.7090  -16.9607   24.2714 O   0  0  0  0  0  0  0  0  0  0  0  0
    9.5849  -17.0424   25.2583 C   0  0  2  0  0  0  0  0  0  0  0  0
    9.3721  -15.6985   24.7767 N   0  0  0  0  0  0  0  0  0  0  0  0
   10.1459  -16.9916   26.6324 C   0  0  0  0  0  0  0  0  0  0  0  0
   10.3186  -18.1527   27.3703 O   0  0  0  0  0  0  0  0  0  0  0  0
   10.4693  -15.9081   27.1425 O   0  0  0  0  0  0  0  0  0  0  0  0
  1  2  1  0
  2  3  2  0
  4  2  1  0
  4  5  1  0
  5  6  1  0
  6  8  1  0
  6  7  1  6
  8 10  1  0
  8  9  2  0
 10 11  1  0
 11 14  1  0
 11 12  1  1
 13 12  1  0
 14 20  1  0
 14 15  2  0
 17 16  1  6
 17 19  1  0
 17 18  1  0
 19 21  1  0
 19 20  1  6
 21 22  1  0
 23 21  2  0
M  END
$$$$
