QCT.pdb
     RDKit          3D

 23 22  0  0  1  0  0  0  0  0999 V2000
    8.8336  -16.9351   19.6709 N   0  0  0  0  0  0  0  0  0  0  0  0
    8.2106  -16.2693   18.5873 C   0  0  0  0  0  0  0  0  0  0  0  0
    8.4724  -16.6670   17.4242 O   0  0  0  0  0  0  0  0  0  0  0  0
    7.2750  -15.1386   18.7555 C   0  0  0  0  0  0  0  0  0  0  0  0
    6.7708  -15.0261   20.1759 C   0  0  0  0  0  0  0  0  0  0  0  0
    7.1112  -13.6403   20.6781 C   0  0  2  0  0  0  0  0  0  0  0  0
    7.8586  -12.9846   19.6169 N   0  0  0  0  0  0  0  0  0  0  0  0
    7.9640  -13.6913   21.8941 C   0  0  0  0  0  0  0  0  0  0  0  0
    9.2261  -13.6357   21.7815 O   0  0  0  0  0  0  0  0  0  0  0  0
    7.4044  -13.8012   23.1878 N   0  0  0  0  0  0  0  0  0  0  0  0
    8.2492  -13.9192   24.3857 C   0  0  1  0  0  0  0  0  0  0  0  0
    7.5558  -13.2076   25.5502 C   0  0  0  0  0  0  0  0  0  0  0  0
    5.8388  -13.7835   25.6818 S   0  0  0  0  0  0  0  0  0  0  0  0
    8.3437  -15.3562   24.7393 C   0  0  0  0  0  0  0  0  0  0  0  0
    7.3490  -16.1013   24.6918 O   0  0  0  0  0  0  0  0  0  0  0  0
   10.4187  -17.7604   23.0432 C   0  0  0  0  0  0  0  0  0  0  0  0
   10.8602  -17.8120   24.4832 C   0  0  1  0  0  0  0  0  0  0  0  0
   11.9787  -17.0002   24.6696 O   0  0  0  0  0  0  0  0  0  0  0  0
    9.7764  -17.3157   25.4062 C   0  0  2  0  0  0  0  0  0  0  0  0
    9.5823  -15.9101   25.1414 N   0  0  0  0  0  0  0  0  0  0  0  0
   10.1667  -17.5013   26.8270 C   0  0  0  0  0  0  0  0  0  0  0  0
   10.3189  -18.7723   27.3595 O   0  0  0  0  0  0  0  0  0  0  0  0
   10.3631  -16.5207   27.5610 O   0  0  0  0  0  0  0  0  0  0  0  0
  1  2  1  0
  2  3  2  0
  4  2  1  0
  4  5  1  0
  5  6  1  0
  6  8  1  0
  6  7  1  6
  8 10  1  0
  8  9  2  0
 10 11  1  0
 11 14  1  0
 11 12  1  1
 13 12  1  0
 14 20  1  0
 14 15  2  0
 17 16  1  6
 17 19  1  0
 17 18  1  0
 19 21  1  0
 19 20  1  1
 21 22  1  0
 23 21  2  0
M  END
$$$$
