QCT.pdb
     RDKit          3D

 23 22  0  0  1  0  0  0  0  0999 V2000
    5.0673  -19.1179   17.9332 N   0  0  0  0  0  0  0  0  0  0  0  0
    6.1497  -19.7866   18.5550 C   0  0  0  0  0  0  0  0  0  0  0  0
    5.9064  -20.4729   19.5795 O   0  0  0  0  0  0  0  0  0  0  0  0
    7.5408  -19.7178   18.0626 C   0  0  0  0  0  0  0  0  0  0  0  0
    8.4848  -19.1644   19.1052 C   0  0  0  0  0  0  0  0  0  0  0  0
    8.5569  -17.6656   18.9135 C   0  0  2  0  0  0  0  0  0  0  0  0
    9.4526  -17.4316   17.7920 N   0  0  0  0  0  0  0  0  0  0  0  0
    9.1131  -16.9851   20.1119 C   0  0  0  0  0  0  0  0  0  0  0  0
   10.3641  -16.9992   20.3207 O   0  0  0  0  0  0  0  0  0  0  0  0
    8.2803  -16.3146   21.0369 N   0  0  0  0  0  0  0  0  0  0  0  0
    8.8279  -15.6639   22.2366 C   0  0  1  0  0  0  0  0  0  0  0  0
    7.7347  -14.8015   22.8724 C   0  0  0  0  0  0  0  0  0  0  0  0
    8.3142  -14.1615   24.4697 S   0  0  0  0  0  0  0  0  0  0  0  0
    9.1782  -16.7238   23.2126 C   0  0  0  0  0  0  0  0  0  0  0  0
    8.3295  -17.5388   23.6156 O   0  0  0  0  0  0  0  0  0  0  0  0
   11.8573  -19.1550   22.6794 C   0  0  0  0  0  0  0  0  0  0  0  0
   12.1650  -18.5069   24.0047 C   0  0  1  0  0  0  0  0  0  0  0  0
   13.1187  -17.5034   23.8361 O   0  0  0  0  0  0  0  0  0  0  0  0
   10.9349  -17.8724   24.6024 C   0  0  2  0  0  0  0  0  0  0  0  0
   10.4999  -16.8267   23.7076 N   0  0  0  0  0  0  0  0  0  0  0  0
   11.2359  -17.2890   25.9346 C   0  0  0  0  0  0  0  0  0  0  0  0
   11.5100  -18.1066   27.0203 O   0  0  0  0  0  0  0  0  0  0  0  0
   11.2468  -16.0593   26.0973 O   0  0  0  0  0  0  0  0  0  0  0  0
  1  2  1  0
  2  3  2  0
  4  2  1  0
  4  5  1  0
  5  6  1  0
  6  8  1  0
  6  7  1  6
  8 10  1  0
  8  9  2  0
 10 11  1  0
 11 14  1  0
 11 12  1  1
 13 12  1  0
 14 20  1  0
 14 15  2  0
 17 16  1  6
 17 19  1  0
 17 18  1  0
 19 21  1  0
 19 20  1  6
 21 22  1  0
 23 21  2  0
M  END
$$$$
