QCT.pdb
     RDKit          3D

 23 22  0  0  1  0  0  0  0  0999 V2000
    6.8921  -21.1207   18.4763 N   0  0  0  0  0  0  0  0  0  0  0  0
    6.6534  -20.5753   17.1914 C   0  0  0  0  0  0  0  0  0  0  0  0
    5.8803  -21.1998   16.4219 O   0  0  0  0  0  0  0  0  0  0  0  0
    7.2637  -19.3175   16.7142 C   0  0  0  0  0  0  0  0  0  0  0  0
    8.1869  -18.7085   17.7444 C   0  0  0  0  0  0  0  0  0  0  0  0
    7.8163  -17.2491   17.8908 C   0  0  2  0  0  0  0  0  0  0  0  0
    8.0494  -16.6283   16.5966 N   0  0  0  0  0  0  0  0  0  0  0  0
    8.6650  -16.5661   18.9017 C   0  0  0  0  0  0  0  0  0  0  0  0
    9.9276  -16.5890   18.7836 O   0  0  0  0  0  0  0  0  0  0  0  0
    8.1008  -15.8836   20.0039 N   0  0  0  0  0  0  0  0  0  0  0  0
    8.9414  -15.2554   21.0341 C   0  0  1  0  0  0  0  0  0  0  0  0
    8.1146  -14.1955   21.7664 C   0  0  0  0  0  0  0  0  0  0  0  0
    6.6432  -14.9679   22.4981 S   0  0  0  0  0  0  0  0  0  0  0  0
    9.3040  -16.2961   22.0260 C   0  0  0  0  0  0  0  0  0  0  0  0
    8.5184  -17.2157   22.3161 O   0  0  0  0  0  0  0  0  0  0  0  0
   12.3595  -18.3169   21.6852 C   0  0  0  0  0  0  0  0  0  0  0  0
   12.4160  -17.7094   23.0633 C   0  0  1  0  0  0  0  0  0  0  0  0
   13.2130  -16.5651   23.0488 O   0  0  0  0  0  0  0  0  0  0  0  0
   11.0441  -17.3048   23.5399 C   0  0  2  0  0  0  0  0  0  0  0  0
   10.5653  -16.2599   22.6668 N   0  0  0  0  0  0  0  0  0  0  0  0
   11.0980  -16.7971   24.9344 C   0  0  0  0  0  0  0  0  0  0  0  0
   11.4195  -17.6435   25.9844 O   0  0  0  0  0  0  0  0  0  0  0  0
   10.8559  -15.6060   25.1824 O   0  0  0  0  0  0  0  0  0  0  0  0
  1  2  1  0
  2  3  2  0
  4  2  1  0
  4  5  1  0
  5  6  1  0
  6  8  1  0
  6  7  1  6
  8 10  1  0
  8  9  2  0
 10 11  1  0
 11 14  1  0
 11 12  1  1
 13 12  1  0
 14 20  1  0
 14 15  2  0
 17 16  1  6
 17 19  1  0
 17 18  1  0
 19 21  1  0
 19 20  1  6
 21 22  1  0
 23 21  2  0
M  END
$$$$
