QCT.pdb
     RDKit          3D

 23 22  0  0  1  0  0  0  0  0999 V2000
    6.2103  -18.4147   20.8673 N   0  0  0  0  0  0  0  0  0  0  0  0
    7.0133  -17.7326   19.9211 C   0  0  0  0  0  0  0  0  0  0  0  0
    7.5521  -18.4102   19.0100 O   0  0  0  0  0  0  0  0  0  0  0  0
    7.2473  -16.2743   19.9519 C   0  0  0  0  0  0  0  0  0  0  0  0
    6.4247  -15.5904   21.0196 C   0  0  0  0  0  0  0  0  0  0  0  0
    7.0271  -14.2240   21.2617 C   0  0  2  0  0  0  0  0  0  0  0  0
    7.8651  -13.9283   20.1106 N   0  0  0  0  0  0  0  0  0  0  0  0
    7.8767  -14.2068   22.4810 C   0  0  0  0  0  0  0  0  0  0  0  0
    9.1238  -14.4162   22.3831 O   0  0  0  0  0  0  0  0  0  0  0  0
    7.3303  -13.9613   23.7617 N   0  0  0  0  0  0  0  0  0  0  0  0
    8.1631  -13.9895   24.9734 C   0  0  1  0  0  0  0  0  0  0  0  0
    7.4385  -13.2300   26.0875 C   0  0  0  0  0  0  0  0  0  0  0  0
    5.6432  -13.3792   25.8599 S   0  0  0  0  0  0  0  0  0  0  0  0
    8.2882  -15.4010   25.4099 C   0  0  0  0  0  0  0  0  0  0  0  0
    7.2857  -16.1170   25.5811 O   0  0  0  0  0  0  0  0  0  0  0  0
   10.2731  -17.9311   23.6498 C   0  0  0  0  0  0  0  0  0  0  0  0
   10.7860  -17.9295   25.0670 C   0  0  1  0  0  0  0  0  0  0  0  0
   11.9439  -17.1573   25.1553 O   0  0  0  0  0  0  0  0  0  0  0  0
    9.7718  -17.3425   26.0155 C   0  0  2  0  0  0  0  0  0  0  0  0
    9.5659  -15.9637   25.6417 N   0  0  0  0  0  0  0  0  0  0  0  0
   10.2600  -17.4068   27.4166 C   0  0  0  0  0  0  0  0  0  0  0  0
   10.3996  -18.6255   28.0628 O   0  0  0  0  0  0  0  0  0  0  0  0
   10.5511  -16.3696   28.0318 O   0  0  0  0  0  0  0  0  0  0  0  0
  1  2  1  0
  2  3  2  0
  4  2  1  0
  4  5  1  0
  5  6  1  0
  6  8  1  0
  6  7  1  6
  8 10  1  0
  8  9  2  0
 10 11  1  0
 11 14  1  0
 11 12  1  1
 13 12  1  0
 14 20  1  0
 14 15  2  0
 17 16  1  6
 17 19  1  0
 17 18  1  0
 19 21  1  0
 19 20  1  6
 21 22  1  0
 23 21  2  0
M  END
$$$$
