QCT.pdb
     RDKit          3D

 23 22  0  0  1  0  0  0  0  0999 V2000
    5.6327  -17.8107   19.7393 N   0  0  0  0  0  0  0  0  0  0  0  0
    7.0025  -17.4543   19.6903 C   0  0  0  0  0  0  0  0  0  0  0  0
    7.8071  -18.2794   19.1889 O   0  0  0  0  0  0  0  0  0  0  0  0
    7.5284  -16.1697   20.1959 C   0  0  0  0  0  0  0  0  0  0  0  0
    6.4302  -15.2758   20.7243 C   0  0  0  0  0  0  0  0  0  0  0  0
    7.0519  -13.9445   21.0844 C   0  0  2  0  0  0  0  0  0  0  0  0
    8.0351  -13.6515   20.0538 N   0  0  0  0  0  0  0  0  0  0  0  0
    7.7465  -14.0003   22.3971 C   0  0  0  0  0  0  0  0  0  0  0  0
    8.9477  -14.4029   22.4579 O   0  0  0  0  0  0  0  0  0  0  0  0
    7.1010  -13.6137   23.5942 N   0  0  0  0  0  0  0  0  0  0  0  0
    7.8093  -13.6021   24.8829 C   0  0  1  0  0  0  0  0  0  0  0  0
    6.9333  -12.8960   25.9207 C   0  0  0  0  0  0  0  0  0  0  0  0
    7.7604  -12.9228   27.5369 S   0  0  0  0  0  0  0  0  0  0  0  0
    7.9750  -15.0071   25.3267 C   0  0  0  0  0  0  0  0  0  0  0  0
    6.9927  -15.7208   25.5966 O   0  0  0  0  0  0  0  0  0  0  0  0
    9.7282  -17.8210   23.7023 C   0  0  0  0  0  0  0  0  0  0  0  0
   10.4112  -17.6156   25.0299 C   0  0  1  0  0  0  0  0  0  0  0  0
   11.5681  -16.8556   24.8597 O   0  0  0  0  0  0  0  0  0  0  0  0
    9.5188  -16.8792   25.9965 C   0  0  2  0  0  0  0  0  0  0  0  0
    9.2690  -15.5661   25.4521 N   0  0  0  0  0  0  0  0  0  0  0  0
   10.1726  -16.7476   27.3235 C   0  0  0  0  0  0  0  0  0  0  0  0
   10.4224  -17.8659   28.1041 O   0  0  0  0  0  0  0  0  0  0  0  0
   10.5060  -15.6334   27.7552 O   0  0  0  0  0  0  0  0  0  0  0  0
  1  2  1  0
  2  3  2  0
  4  2  1  0
  4  5  1  0
  5  6  1  0
  6  8  1  0
  6  7  1  6
  8 10  1  0
  8  9  2  0
 10 11  1  0
 11 14  1  0
 11 12  1  1
 13 12  1  0
 14 20  1  0
 14 15  2  0
 17 16  1  6
 17 19  1  0
 17 18  1  0
 19 21  1  0
 19 20  1  6
 21 22  1  0
 23 21  2  0
M  END
$$$$
