QCT.pdb
     RDKit          3D

 23 22  0  0  1  0  0  0  0  0999 V2000
    8.3892  -12.1452   19.4107 N   0  0  0  0  0  0  0  0  0  0  0  0
    7.9635  -13.1341   18.4907 C   0  0  0  0  0  0  0  0  0  0  0  0
    8.3260  -13.0176   17.2929 O   0  0  0  0  0  0  0  0  0  0  0  0
    7.1206  -14.2875   18.8666 C   0  0  0  0  0  0  0  0  0  0  0  0
    6.7258  -14.2500   20.3251 C   0  0  0  0  0  0  0  0  0  0  0  0
    7.9188  -14.7018   21.1380 C   0  0  2  0  0  0  0  0  0  0  0  0
    8.4623  -15.8712   20.4657 N   0  0  0  0  0  0  0  0  0  0  0  0
    7.5274  -15.0902   22.5181 C   0  0  0  0  0  0  0  0  0  0  0  0
    6.7233  -14.3608   23.1739 O   0  0  0  0  0  0  0  0  0  0  0  0
    8.0302  -16.2618   23.1292 N   0  0  0  0  0  0  0  0  0  0  0  0
    7.7545  -16.5749   24.5394 C   0  0  1  0  0  0  0  0  0  0  0  0
    7.5402  -18.0843   24.6766 C   0  0  0  0  0  0  0  0  0  0  0  0
    7.2428  -18.5024   26.4184 S   0  0  0  0  0  0  0  0  0  0  0  0
    8.9597  -16.2260   25.3296 C   0  0  0  0  0  0  0  0  0  0  0  0
   10.1036  -16.4760   24.9101 O   0  0  0  0  0  0  0  0  0  0  0  0
    9.4139  -12.7530   27.0631 C   0  0  0  0  0  0  0  0  0  0  0  0
    9.5646  -13.8716   28.0619 C   0  0  1  0  0  0  0  0  0  0  0  0
    8.3564  -14.0869   28.7242 O   0  0  0  0  0  0  0  0  0  0  0  0
    9.9507  -15.1620   27.3845 C   0  0  2  0  0  0  0  0  0  0  0  0
    8.8268  -15.5952   26.5893 N   0  0  0  0  0  0  0  0  0  0  0  0
   10.2785  -16.2072   28.3872 C   0  0  0  0  0  0  0  0  0  0  0  0
   11.3414  -16.0413   29.2618 O   0  0  0  0  0  0  0  0  0  0  0  0
    9.6056  -17.2470   28.4582 O   0  0  0  0  0  0  0  0  0  0  0  0
  1  2  1  0
  2  3  2  0
  4  2  1  0
  4  5  1  0
  5  6  1  0
  6  8  1  0
  6  7  1  6
  8 10  1  0
  8  9  2  0
 10 11  1  0
 11 14  1  0
 11 12  1  6
 13 12  1  0
 14 20  1  0
 14 15  2  0
 17 16  1  6
 17 19  1  0
 17 18  1  0
 19 21  1  0
 19 20  1  1
 21 22  1  0
 23 21  2  0
M  END
$$$$
