QCT.pdb
     RDKit          3D

 23 22  0  0  1  0  0  0  0  0999 V2000
    9.4886  -13.3326   17.5158 N   0  0  0  0  0  0  0  0  0  0  0  0
    8.0896  -13.5386   17.4394 C   0  0  0  0  0  0  0  0  0  0  0  0
    7.5951  -13.8051   16.3152 O   0  0  0  0  0  0  0  0  0  0  0  0
    7.1892  -13.4561   18.6077 C   0  0  0  0  0  0  0  0  0  0  0  0
    7.9466  -13.2014   19.8906 C   0  0  0  0  0  0  0  0  0  0  0  0
    7.8458  -14.4482   20.7413 C   0  0  2  0  0  0  0  0  0  0  0  0
    6.4295  -14.6768   20.9794 N   0  0  0  0  0  0  0  0  0  0  0  0
    8.5228  -14.2741   22.0528 C   0  0  0  0  0  0  0  0  0  0  0  0
    9.7513  -13.9611   22.0912 O   0  0  0  0  0  0  0  0  0  0  0  0
    7.8307  -14.4488   23.2732 N   0  0  0  0  0  0  0  0  0  0  0  0
    8.5260  -14.3973   24.5680 C   0  0  1  0  0  0  0  0  0  0  0  0
    7.7373  -13.4899   25.5155 C   0  0  0  0  0  0  0  0  0  0  0  0
    6.0004  -14.0174   25.5606 S   0  0  0  0  0  0  0  0  0  0  0  0
    8.5126  -15.7613   25.1493 C   0  0  0  0  0  0  0  0  0  0  0  0
    7.4493  -16.3865   25.3091 O   0  0  0  0  0  0  0  0  0  0  0  0
    9.9535  -18.8025   23.8837 C   0  0  0  0  0  0  0  0  0  0  0  0
   10.6404  -18.5572   25.2026 C   0  0  1  0  0  0  0  0  0  0  0  0
   11.8455  -17.8864   24.9963 O   0  0  0  0  0  0  0  0  0  0  0  0
    9.7922  -17.7041   26.1112 C   0  0  2  0  0  0  0  0  0  0  0  0
    9.7241  -16.3818   25.5365 N   0  0  0  0  0  0  0  0  0  0  0  0
   10.3894  -17.6226   27.4684 C   0  0  0  0  0  0  0  0  0  0  0  0
   10.4232  -18.7349   28.2954 O   0  0  0  0  0  0  0  0  0  0  0  0
   10.8684  -16.5565   27.8844 O   0  0  0  0  0  0  0  0  0  0  0  0
  1  2  1  0
  2  3  2  0
  4  2  1  0
  4  5  1  0
  5  6  1  0
  6  8  1  0
  6  7  1  1
  8 10  1  0
  8  9  2  0
 10 11  1  0
 11 14  1  0
 11 12  1  1
 13 12  1  0
 14 20  1  0
 14 15  2  0
 17 16  1  6
 17 19  1  0
 17 18  1  0
 19 21  1  0
 19 20  1  6
 21 22  1  0
 23 21  2  0
M  END
$$$$
