QCT.pdb
     RDKit          3D

 23 22  0  0  1  0  0  0  0  0999 V2000
    6.2467  -17.3318   19.3349 N   0  0  0  0  0  0  0  0  0  0  0  0
    7.5830  -16.8723   19.4290 C   0  0  0  0  0  0  0  0  0  0  0  0
    8.5036  -17.6791   19.1441 O   0  0  0  0  0  0  0  0  0  0  0  0
    7.9456  -15.5013   19.8426 C   0  0  0  0  0  0  0  0  0  0  0  0
    6.7269  -14.6537   20.1271 C   0  0  0  0  0  0  0  0  0  0  0  0
    7.2062  -13.3139   20.6404 C   0  0  2  0  0  0  0  0  0  0  0  0
    8.1744  -12.8197   19.6744 N   0  0  0  0  0  0  0  0  0  0  0  0
    7.8783  -13.4401   21.9599 C   0  0  0  0  0  0  0  0  0  0  0  0
    9.1345  -13.6063   22.0140 O   0  0  0  0  0  0  0  0  0  0  0  0
    7.1510  -13.3798   23.1709 N   0  0  0  0  0  0  0  0  0  0  0  0
    7.8178  -13.4907   24.4769 C   0  0  1  0  0  0  0  0  0  0  0  0
    6.9219  -12.8559   25.5435 C   0  0  0  0  0  0  0  0  0  0  0  0
    7.7080  -13.0126   27.1727 S   0  0  0  0  0  0  0  0  0  0  0  0
    7.9435  -14.9311   24.8057 C   0  0  0  0  0  0  0  0  0  0  0  0
    6.9426  -15.6635   24.8996 O   0  0  0  0  0  0  0  0  0  0  0  0
    9.5131  -17.6570   23.1240 C   0  0  0  0  0  0  0  0  0  0  0  0
   10.2403  -17.5786   24.4418 C   0  0  1  0  0  0  0  0  0  0  0  0
   11.4353  -16.8764   24.2872 O   0  0  0  0  0  0  0  0  0  0  0  0
    9.4174  -16.8575   25.4790 C   0  0  2  0  0  0  0  0  0  0  0  0
    9.2199  -15.5032   25.0207 N   0  0  0  0  0  0  0  0  0  0  0  0
   10.1174  -16.8386   26.7886 C   0  0  0  0  0  0  0  0  0  0  0  0
   10.5387  -15.6426   27.3494 O   0  0  0  0  0  0  0  0  0  0  0  0
   10.3366  -17.8940   27.4026 O   0  0  0  0  0  0  0  0  0  0  0  0
  1  2  1  0
  2  3  2  0
  4  2  1  0
  4  5  1  0
  5  6  1  0
  6  8  1  0
  6  7  1  6
  8 10  1  0
  8  9  2  0
 10 11  1  0
 11 14  1  0
 11 12  1  1
 13 12  1  0
 14 20  1  0
 14 15  2  0
 17 16  1  6
 17 19  1  0
 17 18  1  0
 19 21  1  0
 19 20  1  6
 21 22  1  0
 23 21  2  0
M  END
$$$$
