KYY.pdb
     RDKit          3D

 34 35  0  0  1  0  0  0  0  0999 V2000
    9.3238  -18.9036   19.4541 N   0  0  0  0  0  0  0  0  0  0  0  0
   10.4322  -18.0005   19.3476 C   0  0  1  0  0  0  0  0  0  0  0  0
   10.4413  -17.2556   18.0061 C   0  0  0  0  0  0  0  0  0  0  0  0
   10.9613  -18.2166   16.9824 C   0  0  0  0  0  0  0  0  0  0  0  0
   11.0437  -17.5806   15.6069 C   0  0  0  0  0  0  0  0  0  0  0  0
   11.5267  -18.6382   14.6310 C   0  0  0  0  0  0  0  0  0  0  0  0
   11.4572  -18.0539   13.3002 N   0  0  0  0  0  0  0  0  0  0  0  0
   10.3560  -16.9453   20.3799 C   0  0  0  0  0  0  0  0  0  0  0  0
   11.3304  -16.1786   20.5379 O   0  0  0  0  0  0  0  0  0  0  0  0
    6.9276  -12.7085   16.8404 O   0  0  0  0  0  0  0  0  0  0  0  0
    7.1598  -13.2280   18.1073 C   0  0  0  0  0  0  0  0  0  0  0  0
    7.9207  -12.5822   19.0549 C   0  0  0  0  0  0  0  0  0  0  0  0
    8.1586  -13.0936   20.3226 C   0  0  0  0  0  0  0  0  0  0  0  0
    7.5935  -14.3097   20.6218 C   0  0  0  0  0  0  0  0  0  0  0  0
    7.8095  -14.9102   21.9577 C   0  0  0  0  0  0  0  0  0  0  0  0
    9.1339  -15.6141   22.0413 C   0  0  2  0  0  0  0  0  0  0  0  0
    9.2177  -16.7686   21.2024 N   0  0  0  0  0  0  0  0  0  0  0  0
    9.3719  -15.9873   23.4610 C   0  0  0  0  0  0  0  0  0  0  0  0
    9.3703  -17.2133   23.7466 O   0  0  0  0  0  0  0  0  0  0  0  0
    6.8260  -14.9934   19.7108 C   0  0  0  0  0  0  0  0  0  0  0  0
    6.6162  -14.4436   18.4584 C   0  0  0  0  0  0  0  0  0  0  0  0
   10.7162  -16.1484   32.1357 O   0  0  0  0  0  0  0  0  0  0  0  0
   10.5678  -15.6842   30.8185 C   0  0  0  0  0  0  0  0  0  0  0  0
   10.6755  -16.5562   29.7515 C   0  0  0  0  0  0  0  0  0  0  0  0
   10.5335  -16.1217   28.4529 C   0  0  0  0  0  0  0  0  0  0  0  0
   10.2736  -14.7748   28.1559 C   0  0  0  0  0  0  0  0  0  0  0  0
   10.1487  -14.3491   26.7534 C   0  0  0  0  0  0  0  0  0  0  0  0
    9.7935  -15.5044   25.8428 C   0  0  2  0  0  0  0  0  0  0  0  0
    9.5967  -15.0307   24.4800 N   0  0  0  0  0  0  0  0  0  0  0  0
    8.5441  -16.1746   26.2577 C   0  0  0  0  0  0  0  0  0  0  0  0
    7.3384  -15.6864   25.7947 O   0  0  0  0  0  0  0  0  0  0  0  0
   10.1725  -13.9334   29.2432 C   0  0  0  0  0  0  0  0  0  0  0  0
   10.3143  -14.3694   30.5408 C   0  0  0  0  0  0  0  0  0  0  0  0
    8.5673  -17.1542   27.0069 O   0  0  0  0  0  0  0  0  0  0  0  0
  2  1  1  6
  2  3  1  0
  4  3  1  0
  5  4  1  0
  6  5  1  0
  7  6  1  0
  8  2  1  0
  8  9  2  0
 10 11  1  0
 11 21  2  0
 11 12  1  0
 12 13  2  0
 13 14  1  0
 14 15  1  0
 16 15  1  1
 16 17  1  0
 17  8  1  0
 18 16  1  0
 19 18  2  0
 20 14  2  0
 21 20  1  0
 23 22  1  0
 23 24  2  0
 25 24  1  0
 26 25  2  0
 27 26  1  0
 28 27  1  1
 28 29  1  0
 28 30  1  0
 29 18  1  0
 30 34  2  0
 30 31  1  0
 32 33  2  0
 32 26  1  0
 33 23  1  0
M  END
$$$$
