KYY.pdb
     RDKit          3D

 34 35  0  0  1  0  0  0  0  0999 V2000
    3.4254  -19.3785   22.2133 N   0  0  0  0  0  0  0  0  0  0  0  0
    4.8171  -19.1831   21.9291 C   0  0  1  0  0  0  0  0  0  0  0  0
    5.0788  -19.0060   20.4276 C   0  0  0  0  0  0  0  0  0  0  0  0
    6.3866  -19.6741   20.1358 C   0  0  0  0  0  0  0  0  0  0  0  0
    6.8063  -19.4783   18.6905 C   0  0  0  0  0  0  0  0  0  0  0  0
    8.1064  -20.2315   18.4750 C   0  0  0  0  0  0  0  0  0  0  0  0
    8.5068  -20.0047   17.0947 N   0  0  0  0  0  0  0  0  0  0  0  0
    5.3174  -17.9445   22.5618 C   0  0  0  0  0  0  0  0  0  0  0  0
    4.6851  -16.8792   22.3953 O   0  0  0  0  0  0  0  0  0  0  0  0
    7.9236  -11.6700   27.7219 O   0  0  0  0  0  0  0  0  0  0  0  0
    7.5360  -12.8745   27.1493 C   0  0  0  0  0  0  0  0  0  0  0  0
    6.2900  -13.0781   26.6015 C   0  0  0  0  0  0  0  0  0  0  0  0
    5.8937  -14.2778   26.0281 C   0  0  0  0  0  0  0  0  0  0  0  0
    6.8123  -15.2996   26.0196 C   0  0  0  0  0  0  0  0  0  0  0  0
    6.4514  -16.6054   25.4224 C   0  0  0  0  0  0  0  0  0  0  0  0
    6.8786  -16.6943   23.9850 C   0  0  2  0  0  0  0  0  0  0  0  0
    6.4915  -17.9161   23.3517 N   0  0  0  0  0  0  0  0  0  0  0  0
    8.3553  -16.5273   23.9289 C   0  0  0  0  0  0  0  0  0  0  0  0
    9.0621  -17.5556   24.0954 O   0  0  0  0  0  0  0  0  0  0  0  0
    8.0685  -15.1462   26.5532 C   0  0  0  0  0  0  0  0  0  0  0  0
    8.4187  -13.9309   27.1146 C   0  0  0  0  0  0  0  0  0  0  0  0
    6.8004  -13.1828   17.9651 O   0  0  0  0  0  0  0  0  0  0  0  0
    7.7060  -13.3888   19.0185 C   0  0  0  0  0  0  0  0  0  0  0  0
    7.5996  -12.6590   20.1875 C   0  0  0  0  0  0  0  0  0  0  0  0
    8.4770  -12.8454   21.2319 C   0  0  0  0  0  0  0  0  0  0  0  0
    9.5175  -13.7842   21.1551 C   0  0  0  0  0  0  0  0  0  0  0  0
   10.4450  -13.9375   22.2865 C   0  0  0  0  0  0  0  0  0  0  0  0
   10.2551  -15.2604   22.9963 C   0  0  2  0  0  0  0  0  0  0  0  0
    8.9794  -15.2778   23.6982 N   0  0  0  0  0  0  0  0  0  0  0  0
   11.3101  -15.5084   24.0002 C   0  0  0  0  0  0  0  0  0  0  0  0
   10.9465  -15.7005   25.3183 O   0  0  0  0  0  0  0  0  0  0  0  0
    9.5942  -14.4939   19.9759 C   0  0  0  0  0  0  0  0  0  0  0  0
    8.7162  -14.3066   18.9329 C   0  0  0  0  0  0  0  0  0  0  0  0
   12.4997  -15.5436   23.6761 O   0  0  0  0  0  0  0  0  0  0  0  0
  2  1  1  6
  2  3  1  0
  4  3  1  0
  5  4  1  0
  6  5  1  0
  7  6  1  0
  8  2  1  0
  8  9  2  0
 10 11  1  0
 11 21  2  0
 11 12  1  0
 12 13  2  0
 13 14  1  0
 14 15  1  0
 16 15  1  1
 16 17  1  0
 17  8  1  0
 18 16  1  0
 19 18  2  0
 20 14  2  0
 21 20  1  0
 23 22  1  0
 23 24  2  0
 25 24  1  0
 26 25  2  0
 27 26  1  0
 28 27  1  1
 28 29  1  0
 28 30  1  0
 29 18  1  0
 30 34  2  0
 30 31  1  0
 32 33  2  0
 32 26  1  0
 33 23  1  0
M  END
$$$$
