KYY.pdb
     RDKit          3D

 34 35  0  0  1  0  0  0  0  0999 V2000
    8.9732  -18.3885   19.6198 N   0  0  0  0  0  0  0  0  0  0  0  0
   10.0050  -17.3933   19.5940 C   0  0  1  0  0  0  0  0  0  0  0  0
   10.1023  -16.6999   18.2287 C   0  0  0  0  0  0  0  0  0  0  0  0
   10.0528  -17.7790   17.1921 C   0  0  0  0  0  0  0  0  0  0  0  0
   10.0312  -17.2064   15.7868 C   0  0  0  0  0  0  0  0  0  0  0  0
    9.9561  -18.3661   14.8103 C   0  0  0  0  0  0  0  0  0  0  0  0
    9.1487  -17.9234   13.6837 N   0  0  0  0  0  0  0  0  0  0  0  0
    9.7219  -16.3126   20.5619 C   0  0  0  0  0  0  0  0  0  0  0  0
   10.5111  -15.3465   20.6418 O   0  0  0  0  0  0  0  0  0  0  0  0
    6.1540  -11.1712   26.6642 O   0  0  0  0  0  0  0  0  0  0  0  0
    6.3471  -12.1315   25.6797 C   0  0  0  0  0  0  0  0  0  0  0  0
    6.8336  -11.8344   24.4271 C   0  0  0  0  0  0  0  0  0  0  0  0
    7.0292  -12.7867   23.4372 C   0  0  0  0  0  0  0  0  0  0  0  0
    6.7128  -14.0868   23.7498 C   0  0  0  0  0  0  0  0  0  0  0  0
    6.8985  -15.1507   22.7373 C   0  0  0  0  0  0  0  0  0  0  0  0
    8.3119  -15.1925   22.2302 C   0  0  2  0  0  0  0  0  0  0  0  0
    8.5872  -16.3290   21.4079 N   0  0  0  0  0  0  0  0  0  0  0  0
    9.2262  -15.1680   23.4028 C   0  0  0  0  0  0  0  0  0  0  0  0
    9.4211  -14.0578   23.9633 O   0  0  0  0  0  0  0  0  0  0  0  0
    6.2245  -14.4342   24.9856 C   0  0  0  0  0  0  0  0  0  0  0  0
    6.0460  -13.4496   25.9413 C   0  0  0  0  0  0  0  0  0  0  0  0
   11.7619  -16.1361   31.4924 O   0  0  0  0  0  0  0  0  0  0  0  0
   11.1962  -16.0673   30.2088 C   0  0  0  0  0  0  0  0  0  0  0  0
   10.7082  -17.2060   29.5957 C   0  0  0  0  0  0  0  0  0  0  0  0
   10.1501  -17.1603   28.3380 C   0  0  0  0  0  0  0  0  0  0  0  0
   10.0524  -15.9561   27.6238 C   0  0  0  0  0  0  0  0  0  0  0  0
    9.4669  -15.9551   26.2743 C   0  0  0  0  0  0  0  0  0  0  0  0
   10.4998  -16.2596   25.2111 C   0  0  2  0  0  0  0  0  0  0  0  0
    9.8698  -16.3266   23.9000 N   0  0  0  0  0  0  0  0  0  0  0  0
   11.1686  -17.5564   25.4419 C   0  0  0  0  0  0  0  0  0  0  0  0
   10.5552  -18.7124   25.0013 O   0  0  0  0  0  0  0  0  0  0  0  0
   10.5485  -14.8410   28.2647 C   0  0  0  0  0  0  0  0  0  0  0  0
   11.1059  -14.8882   29.5220 C   0  0  0  0  0  0  0  0  0  0  0  0
   12.2568  -17.6161   26.0196 O   0  0  0  0  0  0  0  0  0  0  0  0
  2  1  1  6
  2  3  1  0
  4  3  1  0
  5  4  1  0
  6  5  1  0
  7  6  1  0
  8  2  1  0
  8  9  2  0
 10 11  1  0
 11 21  2  0
 11 12  1  0
 12 13  2  0
 13 14  1  0
 14 15  1  0
 16 15  1  1
 16 17  1  0
 17  8  1  0
 18 16  1  0
 19 18  2  0
 20 14  2  0
 21 20  1  0
 23 22  1  0
 23 24  2  0
 25 24  1  0
 26 25  2  0
 27 26  1  0
 28 27  1  1
 28 29  1  0
 28 30  1  0
 29 18  1  0
 30 34  2  0
 30 31  1  0
 32 33  2  0
 32 26  1  0
 33 23  1  0
M  END
$$$$
