KYY.pdb
     RDKit          3D

 34 35  0  0  1  0  0  0  0  0999 V2000
    4.9735  -16.2696   21.1930 N   0  0  0  0  0  0  0  0  0  0  0  0
    6.3191  -15.9826   21.5963 C   0  0  1  0  0  0  0  0  0  0  0  0
    6.6027  -14.4749   21.6245 C   0  0  0  0  0  0  0  0  0  0  0  0
    6.7768  -14.0418   20.2019 C   0  0  0  0  0  0  0  0  0  0  0  0
    8.2062  -13.6204   19.9147 C   0  0  0  0  0  0  0  0  0  0  0  0
    8.2833  -13.1882   18.4616 C   0  0  0  0  0  0  0  0  0  0  0  0
    9.6219  -12.6609   18.2441 N   0  0  0  0  0  0  0  0  0  0  0  0
    6.5699  -16.4532   22.9748 C   0  0  0  0  0  0  0  0  0  0  0  0
    5.7448  -16.1745   23.8714 O   0  0  0  0  0  0  0  0  0  0  0  0
    9.0523  -20.6886   30.1308 O   0  0  0  0  0  0  0  0  0  0  0  0
    8.8325  -20.2999   28.8157 C   0  0  0  0  0  0  0  0  0  0  0  0
    7.5749  -20.1751   28.2707 C   0  0  0  0  0  0  0  0  0  0  0  0
    7.3456  -19.7882   26.9582 C   0  0  0  0  0  0  0  0  0  0  0  0
    8.4488  -19.5217   26.1836 C   0  0  0  0  0  0  0  0  0  0  0  0
    8.2720  -19.1043   24.7742 C   0  0  0  0  0  0  0  0  0  0  0  0
    7.8721  -17.6601   24.6701 C   0  0  2  0  0  0  0  0  0  0  0  0
    7.7145  -17.2098   23.3224 N   0  0  0  0  0  0  0  0  0  0  0  0
    8.8974  -16.8432   25.3724 C   0  0  0  0  0  0  0  0  0  0  0  0
    9.9846  -16.6361   24.7726 O   0  0  0  0  0  0  0  0  0  0  0  0
    9.7243  -19.6314   26.6810 C   0  0  0  0  0  0  0  0  0  0  0  0
    9.9037  -20.0208   27.9966 C   0  0  0  0  0  0  0  0  0  0  0  0
    5.4483  -11.0604   24.8722 O   0  0  0  0  0  0  0  0  0  0  0  0
    6.3367  -11.8499   25.6204 C   0  0  0  0  0  0  0  0  0  0  0  0
    5.8972  -12.5307   26.7401 C   0  0  0  0  0  0  0  0  0  0  0  0
    6.7517  -13.3097   27.4874 C   0  0  0  0  0  0  0  0  0  0  0  0
    8.1059  -13.4463   27.1450 C   0  0  0  0  0  0  0  0  0  0  0  0
    8.9891  -14.2727   27.9823 C   0  0  0  0  0  0  0  0  0  0  0  0
    9.6761  -15.3559   27.1794 C   0  0  2  0  0  0  0  0  0  0  0  0
    8.6955  -16.3012   26.6644 N   0  0  0  0  0  0  0  0  0  0  0  0
   10.6390  -16.1248   27.9942 C   0  0  0  0  0  0  0  0  0  0  0  0
   10.4952  -17.4953   28.0824 O   0  0  0  0  0  0  0  0  0  0  0  0
    8.5100  -12.7542   26.0234 C   0  0  0  0  0  0  0  0  0  0  0  0
    7.6545  -11.9761   25.2773 C   0  0  0  0  0  0  0  0  0  0  0  0
   11.5590  -15.5605   28.5914 O   0  0  0  0  0  0  0  0  0  0  0  0
  2  1  1  1
  2  3  1  0
  4  3  1  0
  5  4  1  0
  6  5  1  0
  7  6  1  0
  8  2  1  0
  8  9  2  0
 10 11  1  0
 11 21  2  0
 11 12  1  0
 12 13  2  0
 13 14  1  0
 14 15  1  0
 16 15  1  6
 16 17  1  0
 17  8  1  0
 18 16  1  0
 19 18  2  0
 20 14  2  0
 21 20  1  0
 23 22  1  0
 23 24  2  0
 25 24  1  0
 26 25  2  0
 27 26  1  0
 28 27  1  1
 28 29  1  0
 28 30  1  0
 29 18  1  0
 30 34  2  0
 30 31  1  0
 32 33  2  0
 32 26  1  0
 33 23  1  0
M  END
$$$$
