KYY.pdb
     RDKit          3D

 34 35  0  0  1  0  0  0  0  0999 V2000
    9.8698  -17.5285   17.5974 N   0  0  0  0  0  0  0  0  0  0  0  0
    9.9032  -18.1775   18.8755 C   0  0  1  0  0  0  0  0  0  0  0  0
   11.0213  -19.2248   18.9605 C   0  0  0  0  0  0  0  0  0  0  0  0
   10.8813  -20.1043   17.7569 C   0  0  0  0  0  0  0  0  0  0  0  0
   11.9175  -21.2132   17.7489 C   0  0  0  0  0  0  0  0  0  0  0  0
   11.6486  -22.0957   16.5434 C   0  0  0  0  0  0  0  0  0  0  0  0
   12.6886  -23.1130   16.5193 N   0  0  0  0  0  0  0  0  0  0  0  0
   10.1926  -17.2085   19.9534 C   0  0  0  0  0  0  0  0  0  0  0  0
   11.2491  -16.5424   19.9039 O   0  0  0  0  0  0  0  0  0  0  0  0
    6.6509  -12.6512   17.5046 O   0  0  0  0  0  0  0  0  0  0  0  0
    7.1268  -13.2231   18.6774 C   0  0  0  0  0  0  0  0  0  0  0  0
    8.2922  -12.8207   19.2890 C   0  0  0  0  0  0  0  0  0  0  0  0
    8.7757  -13.3864   20.4600 C   0  0  0  0  0  0  0  0  0  0  0  0
    8.0331  -14.3993   21.0175 C   0  0  0  0  0  0  0  0  0  0  0  0
    8.4947  -15.0449   22.2673 C   0  0  0  0  0  0  0  0  0  0  0  0
    9.6274  -15.9981   22.0130 C   0  0  2  0  0  0  0  0  0  0  0  0
    9.3169  -17.0048   21.0466 N   0  0  0  0  0  0  0  0  0  0  0  0
   10.0072  -16.6231   23.3079 C   0  0  0  0  0  0  0  0  0  0  0  0
    9.1634  -17.3790   23.8567 O   0  0  0  0  0  0  0  0  0  0  0  0
    6.8634  -14.8364   20.4457 C   0  0  0  0  0  0  0  0  0  0  0  0
    6.4206  -14.2418   19.2774 C   0  0  0  0  0  0  0  0  0  0  0  0
   10.0991  -14.4859   31.4257 O   0  0  0  0  0  0  0  0  0  0  0  0
   10.1158  -14.6519   30.0313 C   0  0  0  0  0  0  0  0  0  0  0  0
    9.7195  -15.8479   29.4628 C   0  0  0  0  0  0  0  0  0  0  0  0
    9.7285  -16.0313   28.0983 C   0  0  0  0  0  0  0  0  0  0  0  0
   10.1406  -15.0124   27.2255 C   0  0  0  0  0  0  0  0  0  0  0  0
   10.1538  -15.2571   25.7750 C   0  0  0  0  0  0  0  0  0  0  0  0
   11.2871  -16.1735   25.3679 C   0  0  2  0  0  0  0  0  0  0  0  0
   11.2594  -16.4022   23.9301 N   0  0  0  0  0  0  0  0  0  0  0  0
   11.1956  -17.4945   26.0228 C   0  0  0  0  0  0  0  0  0  0  0  0
   12.1651  -18.4409   25.7567 O   0  0  0  0  0  0  0  0  0  0  0  0
   10.5289  -13.8339   27.8260 C   0  0  0  0  0  0  0  0  0  0  0  0
   10.5191  -13.6520   29.1900 C   0  0  0  0  0  0  0  0  0  0  0  0
   10.2708  -17.7578   26.7953 O   0  0  0  0  0  0  0  0  0  0  0  0
  2  1  1  6
  2  3  1  0
  4  3  1  0
  5  4  1  0
  6  5  1  0
  7  6  1  0
  8  2  1  0
  8  9  2  0
 10 11  1  0
 11 21  2  0
 11 12  1  0
 12 13  2  0
 13 14  1  0
 14 15  1  0
 16 15  1  1
 16 17  1  0
 17  8  1  0
 18 16  1  0
 19 18  2  0
 20 14  2  0
 21 20  1  0
 23 22  1  0
 23 24  2  0
 25 24  1  0
 26 25  2  0
 27 26  1  0
 28 27  1  1
 28 29  1  0
 28 30  1  0
 29 18  1  0
 30 34  2  0
 30 31  1  0
 32 33  2  0
 32 26  1  0
 33 23  1  0
M  END
$$$$
