KYY.pdb
     RDKit          3D

 34 35  0  0  1  0  0  0  0  0999 V2000
    9.9523  -17.2397   18.0105 N   0  0  0  0  0  0  0  0  0  0  0  0
    9.1322  -17.6349   19.1182 C   0  0  1  0  0  0  0  0  0  0  0  0
    9.6307  -18.9315   19.7700 C   0  0  0  0  0  0  0  0  0  0  0  0
    9.6954  -19.9622   18.6861 C   0  0  0  0  0  0  0  0  0  0  0  0
   10.0362  -21.3347   19.2369 C   0  0  0  0  0  0  0  0  0  0  0  0
   10.1894  -22.2849   18.0630 C   0  0  0  0  0  0  0  0  0  0  0  0
   10.5344  -23.5878   18.6112 N   0  0  0  0  0  0  0  0  0  0  0  0
    9.1676  -16.6192   20.1914 C   0  0  0  0  0  0  0  0  0  0  0  0
   10.2000  -15.9308   20.3424 O   0  0  0  0  0  0  0  0  0  0  0  0
    7.4538  -11.3614   26.9414 O   0  0  0  0  0  0  0  0  0  0  0  0
    7.3201  -12.2410   25.8750 C   0  0  0  0  0  0  0  0  0  0  0  0
    7.7134  -11.9310   24.5931 C   0  0  0  0  0  0  0  0  0  0  0  0
    7.5832  -12.8027   23.5216 C   0  0  0  0  0  0  0  0  0  0  0  0
    7.0298  -14.0334   23.7811 C   0  0  0  0  0  0  0  0  0  0  0  0
    6.8632  -15.0096   22.6806 C   0  0  0  0  0  0  0  0  0  0  0  0
    8.1842  -15.3998   22.0814 C   0  0  2  0  0  0  0  0  0  0  0  0
    8.0736  -16.3949   21.0610 N   0  0  0  0  0  0  0  0  0  0  0  0
    9.0675  -15.8785   23.1779 C   0  0  0  0  0  0  0  0  0  0  0  0
    8.9308  -17.0722   23.5536 O   0  0  0  0  0  0  0  0  0  0  0  0
    6.6219  -14.3903   25.0431 C   0  0  0  0  0  0  0  0  0  0  0  0
    6.7718  -13.4874   26.0808 C   0  0  0  0  0  0  0  0  0  0  0  0
   10.7287  -14.9896   31.2004 O   0  0  0  0  0  0  0  0  0  0  0  0
   10.5615  -15.3892   29.8645 C   0  0  0  0  0  0  0  0  0  0  0  0
   10.6940  -14.4740   28.8371 C   0  0  0  0  0  0  0  0  0  0  0  0
   10.5340  -14.8450   27.5209 C   0  0  0  0  0  0  0  0  0  0  0  0
   10.2293  -16.1680   27.1652 C   0  0  0  0  0  0  0  0  0  0  0  0
   10.0470  -16.5176   25.7480 C   0  0  0  0  0  0  0  0  0  0  0  0
   10.8751  -15.6359   24.8386 C   0  0  2  0  0  0  0  0  0  0  0  0
   10.0370  -15.0550   23.7991 N   0  0  0  0  0  0  0  0  0  0  0  0
   11.9506  -16.3901   24.1627 C   0  0  0  0  0  0  0  0  0  0  0  0
   11.6287  -17.5462   23.4798 O   0  0  0  0  0  0  0  0  0  0  0  0
   10.1044  -17.0537   28.2141 C   0  0  0  0  0  0  0  0  0  0  0  0
   10.2649  -16.6814   29.5292 C   0  0  0  0  0  0  0  0  0  0  0  0
   13.1208  -16.0023   24.2037 O   0  0  0  0  0  0  0  0  0  0  0  0
  2  1  1  6
  2  3  1  0
  4  3  1  0
  5  4  1  0
  6  5  1  0
  7  6  1  0
  8  2  1  0
  8  9  2  0
 10 11  1  0
 11 21  2  0
 11 12  1  0
 12 13  2  0
 13 14  1  0
 14 15  1  0
 16 15  1  1
 16 17  1  0
 17  8  1  0
 18 16  1  0
 19 18  2  0
 20 14  2  0
 21 20  1  0
 23 22  1  0
 23 24  2  0
 25 24  1  0
 26 25  2  0
 27 26  1  0
 28 27  1  1
 28 29  1  0
 28 30  1  0
 29 18  1  0
 30 34  2  0
 30 31  1  0
 32 33  2  0
 32 26  1  0
 33 23  1  0
M  END
$$$$
