KYY.pdb
     RDKit          3D

 34 35  0  0  1  0  0  0  0  0999 V2000
    8.2058  -16.2716   17.9234 N   0  0  0  0  0  0  0  0  0  0  0  0
    8.9858  -15.0968   18.1826 C   0  0  1  0  0  0  0  0  0  0  0  0
    8.3689  -13.8441   17.5467 C   0  0  0  0  0  0  0  0  0  0  0  0
    7.8512  -14.2527   16.2026 C   0  0  0  0  0  0  0  0  0  0  0  0
    8.4846  -13.4416   15.0872 C   0  0  0  0  0  0  0  0  0  0  0  0
    9.2307  -14.4005   14.1773 C   0  0  0  0  0  0  0  0  0  0  0  0
    8.2595  -14.9390   13.2372 N   0  0  0  0  0  0  0  0  0  0  0  0
    9.0456  -14.8106   19.6315 C   0  0  0  0  0  0  0  0  0  0  0  0
    9.7626  -13.8699   20.0358 O   0  0  0  0  0  0  0  0  0  0  0  0
    7.3464  -12.6328   27.6763 O   0  0  0  0  0  0  0  0  0  0  0  0
    7.2533  -13.2492   26.4352 C   0  0  0  0  0  0  0  0  0  0  0  0
    6.8269  -14.5476   26.2727 C   0  0  0  0  0  0  0  0  0  0  0  0
    6.7313  -15.1718   25.0372 C   0  0  0  0  0  0  0  0  0  0  0  0
    7.0870  -14.4329   23.9347 C   0  0  0  0  0  0  0  0  0  0  0  0
    7.0075  -15.0410   22.5873 C   0  0  0  0  0  0  0  0  0  0  0  0
    8.3659  -15.1802   21.9612 C   0  0  2  0  0  0  0  0  0  0  0  0
    8.3206  -15.5646   20.5850 N   0  0  0  0  0  0  0  0  0  0  0  0
    9.1411  -16.1735   22.7511 C   0  0  0  0  0  0  0  0  0  0  0  0
    8.5407  -17.2164   23.1209 O   0  0  0  0  0  0  0  0  0  0  0  0
    7.5184  -13.1336   24.0445 C   0  0  0  0  0  0  0  0  0  0  0  0
    7.5975  -12.5530   25.2980 C   0  0  0  0  0  0  0  0  0  0  0  0
   10.5480  -15.0772   30.8813 O   0  0  0  0  0  0  0  0  0  0  0  0
   10.5203  -15.0142   29.4786 C   0  0  0  0  0  0  0  0  0  0  0  0
    9.7765  -14.0432   28.8349 C   0  0  0  0  0  0  0  0  0  0  0  0
    9.7357  -13.9641   27.4610 C   0  0  0  0  0  0  0  0  0  0  0  0
   10.4473  -14.8657   26.6545 C   0  0  0  0  0  0  0  0  0  0  0  0
   10.3603  -14.7581   25.1900 C   0  0  0  0  0  0  0  0  0  0  0  0
   10.8708  -16.0052   24.5014 C   0  0  2  0  0  0  0  0  0  0  0  0
   10.5026  -15.9903   23.0927 N   0  0  0  0  0  0  0  0  0  0  0  0
   10.3029  -17.2358   25.0890 C   0  0  0  0  0  0  0  0  0  0  0  0
   11.0726  -17.9745   25.9657 O   0  0  0  0  0  0  0  0  0  0  0  0
   11.1780  -15.8204   27.3290 C   0  0  0  0  0  0  0  0  0  0  0  0
   11.2179  -15.8980   28.7024 C   0  0  0  0  0  0  0  0  0  0  0  0
    9.1611  -17.6067   24.8059 O   0  0  0  0  0  0  0  0  0  0  0  0
  2  1  1  1
  2  3  1  0
  4  3  1  0
  5  4  1  0
  6  5  1  0
  7  6  1  0
  8  2  1  0
  8  9  2  0
 10 11  1  0
 11 21  2  0
 11 12  1  0
 12 13  2  0
 13 14  1  0
 14 15  1  0
 16 15  1  1
 16 17  1  0
 17  8  1  0
 18 16  1  0
 19 18  2  0
 20 14  2  0
 21 20  1  0
 23 22  1  0
 23 24  2  0
 25 24  1  0
 26 25  2  0
 27 26  1  0
 28 27  1  1
 28 29  1  0
 28 30  1  0
 29 18  1  0
 30 34  2  0
 30 31  1  0
 32 33  2  0
 32 26  1  0
 33 23  1  0
M  END
$$$$
