KYY.pdb
     RDKit          3D

 34 35  0  0  1  0  0  0  0  0999 V2000
    8.8244  -18.6092   19.0673 N   0  0  0  0  0  0  0  0  0  0  0  0
    9.9961  -17.8065   19.2636 C   0  0  1  0  0  0  0  0  0  0  0  0
   10.3787  -17.0271   17.9985 C   0  0  0  0  0  0  0  0  0  0  0  0
    9.6740  -17.6880   16.8547 C   0  0  0  0  0  0  0  0  0  0  0  0
   10.6506  -18.1739   15.7995 C   0  0  0  0  0  0  0  0  0  0  0  0
    9.8499  -18.8184   14.6825 C   0  0  0  0  0  0  0  0  0  0  0  0
   10.8067  -19.3682   13.7343 N   0  0  0  0  0  0  0  0  0  0  0  0
    9.7658  -16.7791   20.3009 C   0  0  0  0  0  0  0  0  0  0  0  0
   10.6802  -15.9697   20.5678 O   0  0  0  0  0  0  0  0  0  0  0  0
    6.5345  -11.2859   26.1919 O   0  0  0  0  0  0  0  0  0  0  0  0
    6.6469  -12.3727   25.3346 C   0  0  0  0  0  0  0  0  0  0  0  0
    6.3171  -13.6568   25.7040 C   0  0  0  0  0  0  0  0  0  0  0  0
    6.4267  -14.7485   24.8548 C   0  0  0  0  0  0  0  0  0  0  0  0
    6.8913  -14.5077   23.5843 C   0  0  0  0  0  0  0  0  0  0  0  0
    7.0315  -15.6303   22.6294 C   0  0  0  0  0  0  0  0  0  0  0  0
    8.3926  -15.6507   21.9942 C   0  0  2  0  0  0  0  0  0  0  0  0
    8.5449  -16.6758   21.0095 N   0  0  0  0  0  0  0  0  0  0  0  0
    9.4048  -15.8133   23.0716 C   0  0  0  0  0  0  0  0  0  0  0  0
   10.3732  -15.0091   23.0838 O   0  0  0  0  0  0  0  0  0  0  0  0
    7.2333  -13.2444   23.1677 C   0  0  0  0  0  0  0  0  0  0  0  0
    7.1072  -12.1861   24.0501 C   0  0  0  0  0  0  0  0  0  0  0  0
   11.6265  -15.5231   31.3869 O   0  0  0  0  0  0  0  0  0  0  0  0
   11.2575  -15.5118   30.0319 C   0  0  0  0  0  0  0  0  0  0  0  0
   10.4662  -14.4962   29.5291 C   0  0  0  0  0  0  0  0  0  0  0  0
   10.0932  -14.4665   28.2042 C   0  0  0  0  0  0  0  0  0  0  0  0
   10.4998  -15.4659   27.3067 C   0  0  0  0  0  0  0  0  0  0  0  0
   10.0621  -15.4067   25.9035 C   0  0  0  0  0  0  0  0  0  0  0  0
   10.2129  -16.7425   25.2087 C   0  0  2  0  0  0  0  0  0  0  0  0
    9.3170  -16.8195   24.0634 N   0  0  0  0  0  0  0  0  0  0  0  0
    9.8813  -17.8727   26.1003 C   0  0  0  0  0  0  0  0  0  0  0  0
    8.8314  -18.7039   25.7634 O   0  0  0  0  0  0  0  0  0  0  0  0
   11.2875  -16.4628   27.8415 C   0  0  0  0  0  0  0  0  0  0  0  0
   11.6598  -16.4910   29.1660 C   0  0  0  0  0  0  0  0  0  0  0  0
   10.5249  -18.0777   27.1324 O   0  0  0  0  0  0  0  0  0  0  0  0
  2  1  1  6
  2  3  1  0
  4  3  1  0
  5  4  1  0
  6  5  1  0
  7  6  1  0
  8  2  1  0
  8  9  2  0
 10 11  1  0
 11 21  2  0
 11 12  1  0
 12 13  2  0
 13 14  1  0
 14 15  1  0
 16 15  1  1
 16 17  1  0
 17  8  1  0
 18 16  1  0
 19 18  2  0
 20 14  2  0
 21 20  1  0
 23 22  1  0
 23 24  2  0
 25 24  1  0
 26 25  2  0
 27 26  1  0
 28 27  1  1
 28 29  1  0
 28 30  1  0
 29 18  1  0
 30 34  2  0
 30 31  1  0
 32 33  2  0
 32 26  1  0
 33 23  1  0
M  END
$$$$
