KYY.pdb
     RDKit          3D

 34 35  0  0  1  0  0  0  0  0999 V2000
    8.4079  -18.4470   19.7913 N   0  0  0  0  0  0  0  0  0  0  0  0
    9.6859  -17.8352   20.0105 C   0  0  1  0  0  0  0  0  0  0  0  0
   10.1746  -17.0646   18.7769 C   0  0  0  0  0  0  0  0  0  0  0  0
   11.1269  -17.9660   18.0542 C   0  0  0  0  0  0  0  0  0  0  0  0
   12.4377  -17.2659   17.7463 C   0  0  0  0  0  0  0  0  0  0  0  0
   13.2834  -18.2053   16.9058 C   0  0  0  0  0  0  0  0  0  0  0  0
   14.5808  -17.5701   16.7311 N   0  0  0  0  0  0  0  0  0  0  0  0
    9.6135  -16.8326   21.0942 C   0  0  0  0  0  0  0  0  0  0  0  0
   10.6598  -16.2518   21.4553 O   0  0  0  0  0  0  0  0  0  0  0  0
    7.3321  -11.3643   27.4496 O   0  0  0  0  0  0  0  0  0  0  0  0
    7.2549  -12.2715   26.4009 C   0  0  0  0  0  0  0  0  0  0  0  0
    6.6986  -13.5235   26.5315 C   0  0  0  0  0  0  0  0  0  0  0  0
    6.6177  -14.4365   25.4900 C   0  0  0  0  0  0  0  0  0  0  0  0
    7.1270  -14.0453   24.2752 C   0  0  0  0  0  0  0  0  0  0  0  0
    7.0714  -14.9736   23.1233 C   0  0  0  0  0  0  0  0  0  0  0  0
    8.4178  -15.5702   22.8270 C   0  0  2  0  0  0  0  0  0  0  0  0
    8.4000  -16.5034   21.7442 N   0  0  0  0  0  0  0  0  0  0  0  0
    8.9182  -16.2236   24.0656 C   0  0  0  0  0  0  0  0  0  0  0  0
    8.3300  -17.2687   24.4483 O   0  0  0  0  0  0  0  0  0  0  0  0
    7.6919  -12.8067   24.0940 C   0  0  0  0  0  0  0  0  0  0  0  0
    7.7504  -11.9293   25.1624 C   0  0  0  0  0  0  0  0  0  0  0  0
   13.2887  -20.3885   21.7130 O   0  0  0  0  0  0  0  0  0  0  0  0
   12.9481  -19.5082   22.7529 C   0  0  0  0  0  0  0  0  0  0  0  0
   13.0466  -18.1410   22.5747 C   0  0  0  0  0  0  0  0  0  0  0  0
   12.7179  -17.2610   23.5811 C   0  0  0  0  0  0  0  0  0  0  0  0
   12.2688  -17.7134   24.8315 C   0  0  0  0  0  0  0  0  0  0  0  0
   11.9472  -16.7395   25.8859 C   0  0  0  0  0  0  0  0  0  0  0  0
   10.4599  -16.4748   25.9746 C   0  0  2  0  0  0  0  0  0  0  0  0
   10.0112  -15.7215   24.8120 N   0  0  0  0  0  0  0  0  0  0  0  0
   10.1071  -15.6837   27.1712 C   0  0  0  0  0  0  0  0  0  0  0  0
    9.5257  -14.4425   27.0042 O   0  0  0  0  0  0  0  0  0  0  0  0
   12.1826  -19.0818   24.9745 C   0  0  0  0  0  0  0  0  0  0  0  0
   12.5113  -19.9602   23.9674 C   0  0  0  0  0  0  0  0  0  0  0  0
   10.3260  -16.1158   28.3056 O   0  0  0  0  0  0  0  0  0  0  0  0
  2  1  1  6
  2  3  1  0
  4  3  1  0
  5  4  1  0
  6  5  1  0
  7  6  1  0
  8  2  1  0
  8  9  2  0
 10 11  1  0
 11 21  2  0
 11 12  1  0
 12 13  2  0
 13 14  1  0
 14 15  1  0
 16 15  1  1
 16 17  1  0
 17  8  1  0
 18 16  1  0
 19 18  2  0
 20 14  2  0
 21 20  1  0
 23 22  1  0
 23 24  2  0
 25 24  1  0
 26 25  2  0
 27 26  1  0
 28 27  1  6
 28 29  1  0
 28 30  1  0
 29 18  1  0
 30 34  2  0
 30 31  1  0
 32 33  2  0
 32 26  1  0
 33 23  1  0
M  END
$$$$
