KYY.pdb
     RDKit          3D

 34 35  0  0  1  0  0  0  0  0999 V2000
    7.8056  -17.7360   19.2060 N   0  0  0  0  0  0  0  0  0  0  0  0
    8.7752  -16.8198   18.6805 C   0  0  1  0  0  0  0  0  0  0  0  0
    8.2999  -16.1627   17.3780 C   0  0  0  0  0  0  0  0  0  0  0  0
    7.9234  -17.2730   16.4468 C   0  0  0  0  0  0  0  0  0  0  0  0
    7.4138  -16.7432   15.1191 C   0  0  0  0  0  0  0  0  0  0  0  0
    7.2940  -17.9158   14.1626 C   0  0  0  0  0  0  0  0  0  0  0  0
    6.5938  -17.4331   12.9819 N   0  0  0  0  0  0  0  0  0  0  0  0
    9.0100  -15.7022   19.6190 C   0  0  0  0  0  0  0  0  0  0  0  0
    8.4408  -14.6082   19.4153 O   0  0  0  0  0  0  0  0  0  0  0  0
    6.3000  -12.7638   26.9018 O   0  0  0  0  0  0  0  0  0  0  0  0
    6.6838  -13.3968   25.7266 C   0  0  0  0  0  0  0  0  0  0  0  0
    6.5227  -14.7471   25.5149 C   0  0  0  0  0  0  0  0  0  0  0  0
    6.9036  -15.3881   24.3448 C   0  0  0  0  0  0  0  0  0  0  0  0
    7.4684  -14.6112   23.3622 C   0  0  0  0  0  0  0  0  0  0  0  0
    7.8966  -15.2347   22.0895 C   0  0  0  0  0  0  0  0  0  0  0  0
    9.3889  -15.3932   22.0246 C   0  0  2  0  0  0  0  0  0  0  0  0
    9.8597  -15.8217   20.7446 N   0  0  0  0  0  0  0  0  0  0  0  0
    9.7988  -16.3602   23.0774 C   0  0  0  0  0  0  0  0  0  0  0  0
    8.9485  -17.2128   23.4447 O   0  0  0  0  0  0  0  0  0  0  0  0
    7.6502  -13.2597   23.5252 C   0  0  0  0  0  0  0  0  0  0  0  0
    7.2547  -12.6641   24.7099 C   0  0  0  0  0  0  0  0  0  0  0  0
   10.3360  -15.4075   31.4407 O   0  0  0  0  0  0  0  0  0  0  0  0
   10.4114  -15.3741   30.0387 C   0  0  0  0  0  0  0  0  0  0  0  0
   10.0792  -14.2251   29.3459 C   0  0  0  0  0  0  0  0  0  0  0  0
   10.1460  -14.1715   27.9718 C   0  0  0  0  0  0  0  0  0  0  0  0
   10.5541  -15.2807   27.2149 C   0  0  0  0  0  0  0  0  0  0  0  0
   10.5924  -15.1868   25.7474 C   0  0  0  0  0  0  0  0  0  0  0  0
   11.1829  -16.4297   25.1178 C   0  0  2  0  0  0  0  0  0  0  0  0
   11.0859  -16.3552   23.6669 N   0  0  0  0  0  0  0  0  0  0  0  0
   10.4762  -17.6559   25.5411 C   0  0  0  0  0  0  0  0  0  0  0  0
   11.0800  -18.4920   26.4592 O   0  0  0  0  0  0  0  0  0  0  0  0
   10.8778  -16.4090   27.9376 C   0  0  0  0  0  0  0  0  0  0  0  0
   10.8107  -16.4610   29.3112 C   0  0  0  0  0  0  0  0  0  0  0  0
    9.3649  -17.9378   25.0861 O   0  0  0  0  0  0  0  0  0  0  0  0
  2  1  1  1
  2  3  1  0
  4  3  1  0
  5  4  1  0
  6  5  1  0
  7  6  1  0
  8  2  1  0
  8  9  2  0
 10 11  1  0
 11 21  2  0
 11 12  1  0
 12 13  2  0
 13 14  1  0
 14 15  1  0
 16 15  1  6
 16 17  1  0
 17  8  1  0
 18 16  1  0
 19 18  2  0
 20 14  2  0
 21 20  1  0
 23 22  1  0
 23 24  2  0
 25 24  1  0
 26 25  2  0
 27 26  1  0
 28 27  1  1
 28 29  1  0
 28 30  1  0
 29 18  1  0
 30 34  2  0
 30 31  1  0
 32 33  2  0
 32 26  1  0
 33 23  1  0
M  END
$$$$
