KYY.pdb
     RDKit          3D

 34 35  0  0  1  0  0  0  0  0999 V2000
    8.4876  -18.8102   20.3806 N   0  0  0  0  0  0  0  0  0  0  0  0
    9.7375  -18.3975   19.8122 C   0  0  1  0  0  0  0  0  0  0  0  0
    9.6312  -18.1572   18.3004 C   0  0  0  0  0  0  0  0  0  0  0  0
    8.8614  -19.3093   17.7334 C   0  0  0  0  0  0  0  0  0  0  0  0
    8.6830  -19.1799   16.2318 C   0  0  0  0  0  0  0  0  0  0  0  0
    7.8246  -20.3401   15.7612 C   0  0  0  0  0  0  0  0  0  0  0  0
    8.5912  -21.5563   15.9860 N   0  0  0  0  0  0  0  0  0  0  0  0
   10.1779  -17.1072   20.3830 C   0  0  0  0  0  0  0  0  0  0  0  0
   11.2335  -16.5858   19.9631 O   0  0  0  0  0  0  0  0  0  0  0  0
    6.4995  -13.1135   16.9222 O   0  0  0  0  0  0  0  0  0  0  0  0
    7.0517  -13.3823   18.1679 C   0  0  0  0  0  0  0  0  0  0  0  0
    6.4739  -14.2409   19.0751 C   0  0  0  0  0  0  0  0  0  0  0  0
    7.0177  -14.5150   20.3218 C   0  0  0  0  0  0  0  0  0  0  0  0
    8.1949  -13.8831   20.6424 C   0  0  0  0  0  0  0  0  0  0  0  0
    8.8269  -14.1328   21.9578 C   0  0  0  0  0  0  0  0  0  0  0  0
    9.9118  -15.1674   21.8638 C   0  0  2  0  0  0  0  0  0  0  0  0
    9.4487  -16.4354   21.3932 N   0  0  0  0  0  0  0  0  0  0  0  0
   10.5346  -15.3096   23.2068 C   0  0  0  0  0  0  0  0  0  0  0  0
   11.1071  -14.2982   23.6906 O   0  0  0  0  0  0  0  0  0  0  0  0
    8.8108  -13.0178   19.7716 C   0  0  0  0  0  0  0  0  0  0  0  0
    8.2309  -12.7754   18.5389 C   0  0  0  0  0  0  0  0  0  0  0  0
   10.5760  -15.7865   31.7235 O   0  0  0  0  0  0  0  0  0  0  0  0
   10.3784  -15.7154   30.3349 C   0  0  0  0  0  0  0  0  0  0  0  0
   10.0888  -16.8552   29.6086 C   0  0  0  0  0  0  0  0  0  0  0  0
    9.8917  -16.8073   28.2469 C   0  0  0  0  0  0  0  0  0  0  0  0
    9.9764  -15.5995   27.5370 C   0  0  0  0  0  0  0  0  0  0  0  0
    9.7785  -15.5960   26.0794 C   0  0  0  0  0  0  0  0  0  0  0  0
   10.7938  -16.4655   25.3702 C   0  0  2  0  0  0  0  0  0  0  0  0
   10.5049  -16.5177   23.9440 N   0  0  0  0  0  0  0  0  0  0  0  0
   10.7804  -17.8554   25.8704 C   0  0  0  0  0  0  0  0  0  0  0  0
   11.5352  -18.1728   26.9822 O   0  0  0  0  0  0  0  0  0  0  0  0
   10.2666  -14.4834   28.2922 C   0  0  0  0  0  0  0  0  0  0  0  0
   10.4631  -14.5328   29.6534 C   0  0  0  0  0  0  0  0  0  0  0  0
   10.1102  -18.7260   25.3097 O   0  0  0  0  0  0  0  0  0  0  0  0
  2  1  1  1
  2  3  1  0
  4  3  1  0
  5  4  1  0
  6  5  1  0
  7  6  1  0
  8  2  1  0
  8  9  2  0
 10 11  1  0
 11 21  2  0
 11 12  1  0
 12 13  2  0
 13 14  1  0
 14 15  1  0
 16 15  1  1
 16 17  1  0
 17  8  1  0
 18 16  1  0
 19 18  2  0
 20 14  2  0
 21 20  1  0
 23 22  1  0
 23 24  2  0
 25 24  1  0
 26 25  2  0
 27 26  1  0
 28 27  1  1
 28 29  1  0
 28 30  1  0
 29 18  1  0
 30 34  2  0
 30 31  1  0
 32 33  2  0
 32 26  1  0
 33 23  1  0
M  END
$$$$
