KYY.pdb
     RDKit          3D

 34 35  0  0  1  0  0  0  0  0999 V2000
    7.7470  -12.8618   17.7366 N   0  0  0  0  0  0  0  0  0  0  0  0
    7.8348  -14.1646   18.3288 C   0  0  1  0  0  0  0  0  0  0  0  0
    8.9426  -15.0135   17.6911 C   0  0  0  0  0  0  0  0  0  0  0  0
    8.6168  -15.1241   16.2339 C   0  0  0  0  0  0  0  0  0  0  0  0
    9.8662  -15.3076   15.3922 C   0  0  0  0  0  0  0  0  0  0  0  0
    9.4505  -15.3091   13.9323 C   0  0  0  0  0  0  0  0  0  0  0  0
   10.6711  -15.2726   13.1413 N   0  0  0  0  0  0  0  0  0  0  0  0
    8.1888  -14.0719   19.7608 C   0  0  0  0  0  0  0  0  0  0  0  0
    9.1754  -13.3832   20.0993 O   0  0  0  0  0  0  0  0  0  0  0  0
    7.9305  -13.8535   28.4641 O   0  0  0  0  0  0  0  0  0  0  0  0
    7.5919  -13.9986   27.1250 C   0  0  0  0  0  0  0  0  0  0  0  0
    7.4580  -12.9323   26.2654 C   0  0  0  0  0  0  0  0  0  0  0  0
    7.1195  -13.0674   24.9267 C   0  0  0  0  0  0  0  0  0  0  0  0
    6.9127  -14.3433   24.4603 C   0  0  0  0  0  0  0  0  0  0  0  0
    6.5488  -14.5555   23.0410 C   0  0  0  0  0  0  0  0  0  0  0  0
    7.7499  -14.4725   22.1427 C   0  0  2  0  0  0  0  0  0  0  0  0
    7.4521  -14.7373   20.7697 N   0  0  0  0  0  0  0  0  0  0  0  0
    8.7716  -15.4294   22.6447 C   0  0  0  0  0  0  0  0  0  0  0  0
    8.5774  -16.6535   22.4248 O   0  0  0  0  0  0  0  0  0  0  0  0
    7.0345  -15.4399   25.2781 C   0  0  0  0  0  0  0  0  0  0  0  0
    7.3740  -15.2558   26.6069 C   0  0  0  0  0  0  0  0  0  0  0  0
   12.5033  -15.7762   17.4798 O   0  0  0  0  0  0  0  0  0  0  0  0
   12.4459  -15.7714   18.8830 C   0  0  0  0  0  0  0  0  0  0  0  0
   12.2365  -14.5917   19.5722 C   0  0  0  0  0  0  0  0  0  0  0  0
   12.1770  -14.5652   20.9474 C   0  0  0  0  0  0  0  0  0  0  0  0
   12.3266  -15.7344   21.7092 C   0  0  0  0  0  0  0  0  0  0  0  0
   12.2761  -15.6584   23.1774 C   0  0  0  0  0  0  0  0  0  0  0  0
   10.9112  -16.0300   23.7149 C   0  0  2  0  0  0  0  0  0  0  0  0
    9.9310  -15.0186   23.3455 N   0  0  0  0  0  0  0  0  0  0  0  0
   10.9030  -16.1295   25.1887 C   0  0  0  0  0  0  0  0  0  0  0  0
   10.0210  -15.3462   25.9065 O   0  0  0  0  0  0  0  0  0  0  0  0
   12.5338  -16.8920   20.9901 C   0  0  0  0  0  0  0  0  0  0  0  0
   12.5927  -16.9170   19.6154 C   0  0  0  0  0  0  0  0  0  0  0  0
   11.6692  -16.8957   25.7780 O   0  0  0  0  0  0  0  0  0  0  0  0
  2  1  1  6
  2  3  1  0
  4  3  1  0
  5  4  1  0
  6  5  1  0
  7  6  1  0
  8  2  1  0
  8  9  2  0
 10 11  1  0
 11 21  2  0
 11 12  1  0
 12 13  2  0
 13 14  1  0
 14 15  1  0
 16 15  1  1
 16 17  1  0
 17  8  1  0
 18 16  1  0
 19 18  2  0
 20 14  2  0
 21 20  1  0
 23 22  1  0
 23 24  2  0
 25 24  1  0
 26 25  2  0
 27 26  1  0
 28 27  1  1
 28 29  1  0
 28 30  1  0
 29 18  1  0
 30 34  2  0
 30 31  1  0
 32 33  2  0
 32 26  1  0
 33 23  1  0
M  END
$$$$
