QDD.pdb
     RDKit          3D

 26 25  0  0  1  0  0  0  0  0999 V2000
    5.9284  -13.0708   18.0715 N   0  0  0  0  0  0  0  0  0  0  0  0
    7.0617  -13.3893   17.2376 C   0  0  0  0  0  0  0  0  0  0  0  0
    6.8093  -13.7373   16.0680 O   0  0  0  0  0  0  0  0  0  0  0  0
    8.3849  -13.2596   17.8612 C   0  0  0  0  0  0  0  0  0  0  0  0
    8.4076  -12.9144   19.2848 C   0  0  0  0  0  0  0  0  0  0  0  0
    9.5792  -13.2526   20.1258 C   0  0  2  0  0  0  0  0  0  0  0  0
   10.7469  -12.4944   19.5474 N   0  0  0  0  0  0  0  0  0  0  0  0
    9.9642  -14.6651   20.1197 C   0  0  0  0  0  0  0  0  0  0  0  0
    9.2817  -15.5845   19.5602 O   0  0  0  0  0  0  0  0  0  0  0  0
   11.1805  -15.0982   20.7752 N   0  0  0  0  0  0  0  0  0  0  0  0
   12.3673  -15.4449   20.0490 C   0  0  1  0  0  0  0  0  0  0  0  0
   12.7981  -14.3503   19.0934 C   0  0  0  0  0  0  0  0  0  0  0  0
   14.0080  -14.6621   18.3336 C   0  0  0  0  0  0  0  0  0  0  0  0
   14.3517  -15.7940   17.9190 O   0  0  0  0  0  0  0  0  0  0  0  0
   13.4845  -15.8104   20.9705 C   0  0  0  0  0  0  0  0  0  0  0  0
   14.3077  -16.6997   20.6566 O   0  0  0  0  0  0  0  0  0  0  0  0
   14.8723  -13.6148   18.0328 O   0  0  0  0  0  0  0  0  0  0  0  0
   13.7008  -15.2076   22.2342 N   0  0  0  0  0  0  0  0  0  0  0  0
   14.1760  -15.9173   23.3443 C   0  0  1  0  0  0  0  0  0  0  0  0
   13.5005  -17.1391   23.8089 C   0  0  0  0  0  0  0  0  0  0  0  0
   13.5770  -17.2922   25.2878 C   0  0  0  0  0  0  0  0  0  0  0  0
   13.5123  -16.3197   26.0883 O   0  0  0  0  0  0  0  0  0  0  0  0
   15.5911  -16.2945   23.0582 C   0  0  0  0  0  0  0  0  0  0  0  0
   15.7898  -17.0692   22.0928 O   0  0  0  0  0  0  0  0  0  0  0  0
   13.7268  -18.5465   25.8946 O   0  0  0  0  0  0  0  0  0  0  0  0
   16.6461  -15.8331   23.7968 O   0  0  0  0  0  0  0  0  0  0  0  0
  2  1  1  0
  2  3  2  0
  4  2  1  0
  4  5  1  0
  5  6  1  0
  6  7  1  6
  6  8  1  0
  8 10  1  0
  9  8  2  0
 10 11  1  0
 11 15  1  0
 11 12  1  1
 12 13  1  0
 13 17  1  0
 14 13  2  0
 15 18  1  0
 16 15  2  0
 18 19  1  0
 19 20  1  6
 20 21  1  0
 21 25  1  0
 22 21  2  0
 23 19  1  0
 23 26  1  0
 24 23  2  0
M  END
$$$$
