QDD.pdb
     RDKit          3D

 26 25  0  0  1  0  0  0  0  0999 V2000
    8.0749  -17.3355   14.3770 N   0  0  0  0  0  0  0  0  0  0  0  0
    7.4913  -16.1429   14.9410 C   0  0  0  0  0  0  0  0  0  0  0  0
    6.2558  -16.0244   14.8307 O   0  0  0  0  0  0  0  0  0  0  0  0
    8.4204  -15.2074   15.5878 C   0  0  0  0  0  0  0  0  0  0  0  0
    9.8481  -15.5143   15.4691 C   0  0  0  0  0  0  0  0  0  0  0  0
   10.8565  -14.7132   16.2008 C   0  0  2  0  0  0  0  0  0  0  0  0
   12.1835  -15.3897   15.9670 N   0  0  0  0  0  0  0  0  0  0  0  0
   10.6751  -14.6576   17.6525 C   0  0  0  0  0  0  0  0  0  0  0  0
    9.6855  -14.0925   18.2230 O   0  0  0  0  0  0  0  0  0  0  0  0
   11.6481  -15.2616   18.5386 N   0  0  0  0  0  0  0  0  0  0  0  0
   11.5863  -15.1205   19.9640 C   0  0  1  0  0  0  0  0  0  0  0  0
   10.3487  -15.7668   20.5536 C   0  0  0  0  0  0  0  0  0  0  0  0
   10.2147  -15.5934   21.9994 C   0  0  0  0  0  0  0  0  0  0  0  0
   11.0226  -15.0008   22.7528 O   0  0  0  0  0  0  0  0  0  0  0  0
   12.8202  -15.6485   20.6194 C   0  0  0  0  0  0  0  0  0  0  0  0
   12.9943  -16.8804   20.7572 O   0  0  0  0  0  0  0  0  0  0  0  0
    9.0893  -16.1307   22.6151 O   0  0  0  0  0  0  0  0  0  0  0  0
   13.8613  -14.8321   21.1261 N   0  0  0  0  0  0  0  0  0  0  0  0
   15.1484  -15.3173   21.3902 C   0  0  1  0  0  0  0  0  0  0  0  0
   16.3410  -14.5195   21.0645 C   0  0  0  0  0  0  0  0  0  0  0  0
   16.5821  -14.4479   19.5972 C   0  0  0  0  0  0  0  0  0  0  0  0
   16.2962  -15.3847   18.8025 O   0  0  0  0  0  0  0  0  0  0  0  0
   15.2201  -15.6154   22.8505 C   0  0  0  0  0  0  0  0  0  0  0  0
   14.2118  -15.3321   23.5397 O   0  0  0  0  0  0  0  0  0  0  0  0
   17.1500  -13.3169   18.9954 O   0  0  0  0  0  0  0  0  0  0  0  0
   16.3211  -16.1723   23.4413 O   0  0  0  0  0  0  0  0  0  0  0  0
  2  1  1  0
  2  3  2  0
  4  2  1  0
  4  5  1  0
  5  6  1  0
  6  7  1  1
  6  8  1  0
  8 10  1  0
  9  8  2  0
 10 11  1  0
 11 15  1  0
 11 12  1  1
 12 13  1  0
 13 17  1  0
 14 13  2  0
 15 18  1  0
 16 15  2  0
 18 19  1  0
 19 20  1  1
 20 21  1  0
 21 25  1  0
 22 21  2  0
 23 19  1  0
 23 26  1  0
 24 23  2  0
M  END
$$$$
