QDD.pdb
     RDKit          3D

 26 25  0  0  1  0  0  0  0  0999 V2000
    6.9298  -12.8033   15.9671 N   0  0  0  0  0  0  0  0  0  0  0  0
    7.5588  -14.0944   16.1043 C   0  0  0  0  0  0  0  0  0  0  0  0
    7.4217  -14.8824   15.1487 O   0  0  0  0  0  0  0  0  0  0  0  0
    8.2955  -14.3296   17.3527 C   0  0  0  0  0  0  0  0  0  0  0  0
    8.2116  -13.2796   18.3710 C   0  0  0  0  0  0  0  0  0  0  0  0
    8.9553  -13.4026   19.6462 C   0  0  2  0  0  0  0  0  0  0  0  0
   10.3793  -13.7299   19.2744 N   0  0  0  0  0  0  0  0  0  0  0  0
    8.5045  -14.4795   20.5296 C   0  0  0  0  0  0  0  0  0  0  0  0
    7.2869  -14.8358   20.6504 O   0  0  0  0  0  0  0  0  0  0  0  0
    9.4555  -15.2138   21.3378 N   0  0  0  0  0  0  0  0  0  0  0  0
    9.8102  -16.5761   21.0656 C   0  0  1  0  0  0  0  0  0  0  0  0
    9.2420  -17.0672   19.7492 C   0  0  0  0  0  0  0  0  0  0  0  0
    7.9655  -17.7695   19.8738 C   0  0  0  0  0  0  0  0  0  0  0  0
    7.5423  -18.3623   20.8940 O   0  0  0  0  0  0  0  0  0  0  0  0
   11.2900  -16.7744   21.1081 C   0  0  0  0  0  0  0  0  0  0  0  0
   11.7903  -17.9036   20.9039 O   0  0  0  0  0  0  0  0  0  0  0  0
    7.1274  -17.7925   18.7641 O   0  0  0  0  0  0  0  0  0  0  0  0
   12.2220  -15.7415   21.3759 N   0  0  0  0  0  0  0  0  0  0  0  0
   13.6034  -15.9624   21.4449 C   0  0  1  0  0  0  0  0  0  0  0  0
   14.5422  -15.1433   20.6622 C   0  0  0  0  0  0  0  0  0  0  0  0
   14.1667  -15.0841   19.2228 C   0  0  0  0  0  0  0  0  0  0  0  0
   14.0979  -16.1034   18.4832 O   0  0  0  0  0  0  0  0  0  0  0  0
   14.0050  -15.8227   22.8752 C   0  0  0  0  0  0  0  0  0  0  0  0
   13.1199  -15.4504   23.6813 O   0  0  0  0  0  0  0  0  0  0  0  0
   13.8595  -13.8731   18.5879 O   0  0  0  0  0  0  0  0  0  0  0  0
   15.2729  -16.0814   23.3189 O   0  0  0  0  0  0  0  0  0  0  0  0
  2  1  1  0
  2  3  2  0
  4  2  1  0
  4  5  1  0
  5  6  1  0
  6  7  1  6
  6  8  1  0
  8 10  1  0
  9  8  2  0
 10 11  1  0
 11 15  1  0
 11 12  1  6
 12 13  1  0
 13 17  1  0
 14 13  2  0
 15 18  1  0
 16 15  2  0
 18 19  1  0
 19 20  1  6
 20 21  1  0
 21 25  1  0
 22 21  2  0
 23 19  1  0
 23 26  1  0
 24 23  2  0
M  END
$$$$
