QDD.pdb
     RDKit          3D

 26 25  0  0  1  0  0  0  0  0999 V2000
    8.5243  -14.0123   15.5814 N   0  0  0  0  0  0  0  0  0  0  0  0
    7.3497  -13.4713   16.2209 C   0  0  0  0  0  0  0  0  0  0  0  0
    6.6188  -12.7477   15.5174 O   0  0  0  0  0  0  0  0  0  0  0  0
    7.1460  -13.8418   17.6272 C   0  0  0  0  0  0  0  0  0  0  0  0
    8.1301  -14.7550   18.2137 C   0  0  0  0  0  0  0  0  0  0  0  0
    8.9742  -14.3261   19.3528 C   0  0  2  0  0  0  0  0  0  0  0  0
    9.5003  -12.9587   18.9969 N   0  0  0  0  0  0  0  0  0  0  0  0
   10.1479  -15.1628   19.6090 C   0  0  0  0  0  0  0  0  0  0  0  0
   10.0875  -16.4067   19.8797 O   0  0  0  0  0  0  0  0  0  0  0  0
   11.4790  -14.5943   19.5678 N   0  0  0  0  0  0  0  0  0  0  0  0
   12.6539  -15.3568   19.8747 C   0  0  1  0  0  0  0  0  0  0  0  0
   13.9151  -14.7144   19.3329 C   0  0  0  0  0  0  0  0  0  0  0  0
   13.9980  -14.6975   17.8731 C   0  0  0  0  0  0  0  0  0  0  0  0
   14.1359  -13.6826   17.1503 O   0  0  0  0  0  0  0  0  0  0  0  0
   12.7766  -15.6043   21.3425 C   0  0  0  0  0  0  0  0  0  0  0  0
   13.1390  -14.6904   22.1174 O   0  0  0  0  0  0  0  0  0  0  0  0
   13.9178  -15.9148   17.2053 O   0  0  0  0  0  0  0  0  0  0  0  0
   12.5067  -16.8490   21.9630 N   0  0  0  0  0  0  0  0  0  0  0  0
   12.6446  -17.0579   23.3410 C   0  0  1  0  0  0  0  0  0  0  0  0
   11.4649  -17.1544   24.2151 C   0  0  0  0  0  0  0  0  0  0  0  0
   11.8398  -17.3934   25.6358 C   0  0  0  0  0  0  0  0  0  0  0  0
   13.0327  -17.5242   26.0240 O   0  0  0  0  0  0  0  0  0  0  0  0
   13.4160  -18.3220   23.5241 C   0  0  0  0  0  0  0  0  0  0  0  0
   14.4009  -18.2809   24.2988 O   0  0  0  0  0  0  0  0  0  0  0  0
   10.8763  -17.4886   26.6489 O   0  0  0  0  0  0  0  0  0  0  0  0
   13.0894  -19.4894   22.8901 O   0  0  0  0  0  0  0  0  0  0  0  0
  2  1  1  0
  2  3  2  0
  4  2  1  0
  4  5  1  0
  5  6  1  0
  6  7  1  6
  6  8  1  0
  8 10  1  0
  9  8  2  0
 10 11  1  0
 11 15  1  0
 11 12  1  1
 12 13  1  0
 13 17  1  0
 14 13  2  0
 15 18  1  0
 16 15  2  0
 18 19  1  0
 19 20  1  1
 20 21  1  0
 21 25  1  0
 22 21  2  0
 23 19  1  0
 23 26  1  0
 24 23  2  0
M  END
$$$$
