QDD.pdb
     RDKit          3D

 26 25  0  0  1  0  0  0  0  0999 V2000
    3.9900  -22.4926   18.0258 N   0  0  0  0  0  0  0  0  0  0  0  0
    3.5004  -21.5648   19.0161 C   0  0  0  0  0  0  0  0  0  0  0  0
    2.3080  -21.2188   18.9103 O   0  0  0  0  0  0  0  0  0  0  0  0
    4.4625  -21.1397   20.0409 C   0  0  0  0  0  0  0  0  0  0  0  0
    5.8575  -21.5376   19.8356 C   0  0  0  0  0  0  0  0  0  0  0  0
    6.9123  -21.1107   20.7839 C   0  0  2  0  0  0  0  0  0  0  0  0
    6.5337  -19.7246   21.2405 N   0  0  0  0  0  0  0  0  0  0  0  0
    8.2564  -21.0015   20.2138 C   0  0  0  0  0  0  0  0  0  0  0  0
    8.9961  -22.0034   19.9430 O   0  0  0  0  0  0  0  0  0  0  0  0
    8.8284  -19.7034   19.9235 N   0  0  0  0  0  0  0  0  0  0  0  0
   10.1670  -19.5414   19.4359 C   0  0  1  0  0  0  0  0  0  0  0  0
   10.2752  -18.4331   18.4077 C   0  0  0  0  0  0  0  0  0  0  0  0
    9.7487  -18.7865   17.0901 C   0  0  0  0  0  0  0  0  0  0  0  0
    9.3286  -19.9138   16.7378 O   0  0  0  0  0  0  0  0  0  0  0  0
   11.1326  -19.3199   20.5537 C   0  0  0  0  0  0  0  0  0  0  0  0
   12.3615  -19.2359   20.3304 O   0  0  0  0  0  0  0  0  0  0  0  0
    9.7018  -17.7891   16.1220 O   0  0  0  0  0  0  0  0  0  0  0  0
   10.7570  -19.1930   21.9138 N   0  0  0  0  0  0  0  0  0  0  0  0
   11.6839  -18.9816   22.9424 C   0  0  1  0  0  0  0  0  0  0  0  0
   11.5652  -17.8249   23.8440 C   0  0  0  0  0  0  0  0  0  0  0  0
   11.9770  -16.5562   23.1829 C   0  0  0  0  0  0  0  0  0  0  0  0
   12.3599  -16.4940   21.9827 O   0  0  0  0  0  0  0  0  0  0  0  0
   11.6748  -20.1985   23.8060 C   0  0  0  0  0  0  0  0  0  0  0  0
   10.7445  -21.0190   23.6238 O   0  0  0  0  0  0  0  0  0  0  0  0
   11.9640  -15.3304   23.8619 O   0  0  0  0  0  0  0  0  0  0  0  0
   12.6238  -20.4376   24.7619 O   0  0  0  0  0  0  0  0  0  0  0  0
  2  1  1  0
  2  3  2  0
  4  2  1  0
  4  5  1  0
  5  6  1  0
  6  7  1  6
  6  8  1  0
  8 10  1  0
  9  8  2  0
 10 11  1  0
 11 15  1  0
 11 12  1  6
 12 13  1  0
 13 17  1  0
 14 13  2  0
 15 18  1  0
 16 15  2  0
 18 19  1  0
 19 20  1  1
 20 21  1  0
 21 25  1  0
 22 21  2  0
 23 19  1  0
 23 26  1  0
 24 23  2  0
M  END
$$$$
