QDD.pdb
     RDKit          3D

 26 25  0  0  1  0  0  0  0  0999 V2000
    9.3330  -12.4054   18.3317 N   0  0  0  0  0  0  0  0  0  0  0  0
    8.3104  -12.1457   19.3156 C   0  0  0  0  0  0  0  0  0  0  0  0
    8.4546  -11.1197   20.0079 O   0  0  0  0  0  0  0  0  0  0  0  0
    7.2114  -13.1175   19.3835 C   0  0  0  0  0  0  0  0  0  0  0  0
    7.3452  -14.3173   18.5532 C   0  0  0  0  0  0  0  0  0  0  0  0
    8.4597  -15.2679   18.7731 C   0  0  2  0  0  0  0  0  0  0  0  0
    8.3135  -16.3399   17.7231 N   0  0  0  0  0  0  0  0  0  0  0  0
    8.4470  -15.9556   20.0655 C   0  0  0  0  0  0  0  0  0  0  0  0
    7.3957  -16.4324   20.6056 O   0  0  0  0  0  0  0  0  0  0  0  0
    9.6721  -16.1295   20.8176 N   0  0  0  0  0  0  0  0  0  0  0  0
   10.0204  -17.3684   21.4499 C   0  0  1  0  0  0  0  0  0  0  0  0
   10.0139  -18.5322   20.4791 C   0  0  0  0  0  0  0  0  0  0  0  0
    8.7445  -19.2558   20.4216 C   0  0  0  0  0  0  0  0  0  0  0  0
    7.9592  -19.4519   21.3788 O   0  0  0  0  0  0  0  0  0  0  0  0
   11.3360  -17.2733   22.1505 C   0  0  0  0  0  0  0  0  0  0  0  0
   11.8346  -18.2738   22.7140 O   0  0  0  0  0  0  0  0  0  0  0  0
    8.3546  -19.7843   19.1956 O   0  0  0  0  0  0  0  0  0  0  0  0
   12.1049  -16.0866   22.2380 N   0  0  0  0  0  0  0  0  0  0  0  0
   13.5002  -16.0914   22.3596 C   0  0  1  0  0  0  0  0  0  0  0  0
   14.3178  -15.0293   21.7525 C   0  0  0  0  0  0  0  0  0  0  0  0
   14.3718  -15.1442   20.2693 C   0  0  0  0  0  0  0  0  0  0  0  0
   14.1651  -16.2239   19.6509 O   0  0  0  0  0  0  0  0  0  0  0  0
   13.8194  -16.0952   23.8172 C   0  0  0  0  0  0  0  0  0  0  0  0
   15.0323  -16.0996   24.1345 O   0  0  0  0  0  0  0  0  0  0  0  0
   14.6588  -14.0425   19.4522 O   0  0  0  0  0  0  0  0  0  0  0  0
   12.8557  -16.0938   24.7883 O   0  0  0  0  0  0  0  0  0  0  0  0
  2  1  1  0
  2  3  2  0
  4  2  1  0
  4  5  1  0
  5  6  1  0
  6  7  1  6
  6  8  1  0
  8 10  1  0
  9  8  2  0
 10 11  1  0
 11 15  1  0
 11 12  1  6
 12 13  1  0
 13 17  1  0
 14 13  2  0
 15 18  1  0
 16 15  2  0
 18 19  1  0
 19 20  1  1
 20 21  1  0
 21 25  1  0
 22 21  2  0
 23 19  1  0
 23 26  1  0
 24 23  2  0
M  END
$$$$
