QDD.pdb
     RDKit          3D

 26 25  0  0  1  0  0  0  0  0999 V2000
    5.8320  -14.5354   17.1833 N   0  0  0  0  0  0  0  0  0  0  0  0
    7.0214  -13.9778   16.5869 C   0  0  0  0  0  0  0  0  0  0  0  0
    7.3925  -14.4852   15.5110 O   0  0  0  0  0  0  0  0  0  0  0  0
    7.6551  -12.8699   17.3133 C   0  0  0  0  0  0  0  0  0  0  0  0
    7.9164  -13.0852   18.7388 C   0  0  0  0  0  0  0  0  0  0  0  0
    9.2854  -13.3838   19.2193 C   0  0  2  0  0  0  0  0  0  0  0  0
   10.0250  -13.9752   18.0461 N   0  0  0  0  0  0  0  0  0  0  0  0
    9.3666  -14.3727   20.2957 C   0  0  0  0  0  0  0  0  0  0  0  0
    8.8542  -14.2083   21.4509 O   0  0  0  0  0  0  0  0  0  0  0  0
   10.0602  -15.6272   20.0905 N   0  0  0  0  0  0  0  0  0  0  0  0
   10.1098  -16.6542   21.0898 C   0  0  1  0  0  0  0  0  0  0  0  0
    9.5011  -17.9560   20.6083 C   0  0  0  0  0  0  0  0  0  0  0  0
    9.5968  -19.0528   21.5707 C   0  0  0  0  0  0  0  0  0  0  0  0
    9.2850  -19.0036   22.7839 O   0  0  0  0  0  0  0  0  0  0  0  0
   11.5037  -16.8731   21.5796 C   0  0  0  0  0  0  0  0  0  0  0  0
   12.4631  -16.9251   20.7772 O   0  0  0  0  0  0  0  0  0  0  0  0
   10.0780  -20.2753   21.1144 O   0  0  0  0  0  0  0  0  0  0  0  0
   11.8491  -17.0377   22.9437 N   0  0  0  0  0  0  0  0  0  0  0  0
   13.1337  -16.7814   23.4395 C   0  0  1  0  0  0  0  0  0  0  0  0
   13.7914  -15.4858   23.2073 C   0  0  0  0  0  0  0  0  0  0  0  0
   15.0212  -15.6236   22.3797 C   0  0  0  0  0  0  0  0  0  0  0  0
   16.0634  -16.2096   22.7812 O   0  0  0  0  0  0  0  0  0  0  0  0
   13.0869  -16.9774   24.9180 C   0  0  0  0  0  0  0  0  0  0  0  0
   14.1815  -16.9636   25.5291 O   0  0  0  0  0  0  0  0  0  0  0  0
   15.1003  -15.1038   21.0807 O   0  0  0  0  0  0  0  0  0  0  0  0
   11.9192  -17.1660   25.6053 O   0  0  0  0  0  0  0  0  0  0  0  0
  2  1  1  0
  2  3  2  0
  4  2  1  0
  4  5  1  0
  5  6  1  0
  6  7  1  6
  6  8  1  0
  8 10  1  0
  9  8  2  0
 10 11  1  0
 11 15  1  0
 11 12  1  6
 12 13  1  0
 13 17  1  0
 14 13  2  0
 15 18  1  0
 16 15  2  0
 18 19  1  0
 19 20  1  1
 20 21  1  0
 21 25  1  0
 22 21  2  0
 23 19  1  0
 23 26  1  0
 24 23  2  0
M  END
$$$$
