QDD.pdb
     RDKit          3D

 26 25  0  0  1  0  0  0  0  0999 V2000
    8.9930  -12.1419   19.6138 N   0  0  0  0  0  0  0  0  0  0  0  0
    8.4430  -13.3822   20.1041 C   0  0  0  0  0  0  0  0  0  0  0  0
    7.8731  -13.3369   21.2114 O   0  0  0  0  0  0  0  0  0  0  0  0
    8.6115  -14.5559   19.2378 C   0  0  0  0  0  0  0  0  0  0  0  0
    9.3942  -14.3609   18.0147 C   0  0  0  0  0  0  0  0  0  0  0  0
    9.5879  -15.4734   17.0562 C   0  0  2  0  0  0  0  0  0  0  0  0
    8.2159  -15.8350   16.5462 N   0  0  0  0  0  0  0  0  0  0  0  0
   10.1487  -16.6989   17.6281 C   0  0  0  0  0  0  0  0  0  0  0  0
    9.4436  -17.6774   18.0399 O   0  0  0  0  0  0  0  0  0  0  0  0
   11.5817  -16.8600   17.7593 N   0  0  0  0  0  0  0  0  0  0  0  0
   12.1731  -17.9477   18.4825 C   0  0  1  0  0  0  0  0  0  0  0  0
   13.4988  -18.3806   17.8891 C   0  0  0  0  0  0  0  0  0  0  0  0
   13.4045  -18.8861   16.5203 C   0  0  0  0  0  0  0  0  0  0  0  0
   12.4857  -19.6013   16.0560 O   0  0  0  0  0  0  0  0  0  0  0  0
   12.3255  -17.6213   19.9320 C   0  0  0  0  0  0  0  0  0  0  0  0
   12.7795  -18.4683   20.7343 O   0  0  0  0  0  0  0  0  0  0  0  0
   14.4230  -18.5516   15.6342 O   0  0  0  0  0  0  0  0  0  0  0  0
   11.9801  -16.3726   20.5052 N   0  0  0  0  0  0  0  0  0  0  0  0
   12.1666  -16.0809   21.8624 C   0  0  1  0  0  0  0  0  0  0  0  0
   12.9473  -14.9076   22.2854 C   0  0  0  0  0  0  0  0  0  0  0  0
   14.3747  -15.0082   21.8747 C   0  0  0  0  0  0  0  0  0  0  0  0
   14.7905  -14.6782   20.7306 O   0  0  0  0  0  0  0  0  0  0  0  0
   10.8141  -15.9375   22.4762 C   0  0  0  0  0  0  0  0  0  0  0  0
   10.7666  -15.7828   23.7194 O   0  0  0  0  0  0  0  0  0  0  0  0
   15.3636  -15.4823   22.7473 O   0  0  0  0  0  0  0  0  0  0  0  0
    9.6593  -15.9689   21.7436 O   0  0  0  0  0  0  0  0  0  0  0  0
  2  1  1  0
  2  3  2  0
  4  2  1  0
  4  5  1  0
  5  6  1  0
  6  7  1  1
  6  8  1  0
  8 10  1  0
  9  8  2  0
 10 11  1  0
 11 15  1  0
 11 12  1  6
 12 13  1  0
 13 17  1  0
 14 13  2  0
 15 18  1  0
 16 15  2  0
 18 19  1  0
 19 20  1  6
 20 21  1  0
 21 25  1  0
 22 21  2  0
 23 19  1  0
 23 26  1  0
 24 23  2  0
M  END
$$$$
