QDD.pdb
     RDKit          3D

 26 25  0  0  1  0  0  0  0  0999 V2000
    8.5224  -11.2643   19.6558 N   0  0  0  0  0  0  0  0  0  0  0  0
    7.7733  -12.3198   20.2931 C   0  0  0  0  0  0  0  0  0  0  0  0
    6.9222  -11.9671   21.1322 O   0  0  0  0  0  0  0  0  0  0  0  0
    8.0948  -13.6900   19.8740 C   0  0  0  0  0  0  0  0  0  0  0  0
    9.1501  -13.8373   18.8685 C   0  0  0  0  0  0  0  0  0  0  0  0
    9.4901  -15.1705   18.3197 C   0  0  2  0  0  0  0  0  0  0  0  0
    9.1128  -16.1726   19.3811 N   0  0  0  0  0  0  0  0  0  0  0  0
   10.9108  -15.3857   18.0394 C   0  0  0  0  0  0  0  0  0  0  0  0
   11.4268  -15.2953   16.8776 O   0  0  0  0  0  0  0  0  0  0  0  0
   11.8274  -15.7260   19.1074 N   0  0  0  0  0  0  0  0  0  0  0  0
   13.2507  -15.7222   18.9337 C   0  0  1  0  0  0  0  0  0  0  0  0
   13.7511  -14.4358   18.3078 C   0  0  0  0  0  0  0  0  0  0  0  0
   15.1885  -14.4210   18.0398 C   0  0  0  0  0  0  0  0  0  0  0  0
   15.9080  -15.4190   17.7999 O   0  0  0  0  0  0  0  0  0  0  0  0
   13.9590  -15.9930   20.2205 C   0  0  0  0  0  0  0  0  0  0  0  0
   15.2088  -15.9587   20.2824 O   0  0  0  0  0  0  0  0  0  0  0  0
   15.8366  -13.1904   18.0476 O   0  0  0  0  0  0  0  0  0  0  0  0
   13.3034  -16.3036   21.4375 N   0  0  0  0  0  0  0  0  0  0  0  0
   13.9826  -16.4362   22.6552 C   0  0  1  0  0  0  0  0  0  0  0  0
   14.7821  -15.3285   23.2019 C   0  0  0  0  0  0  0  0  0  0  0  0
   16.2430  -15.5528   23.0244 C   0  0  0  0  0  0  0  0  0  0  0  0
   16.9010  -16.3923   23.6976 O   0  0  0  0  0  0  0  0  0  0  0  0
   12.9693  -16.7845   23.6937 C   0  0  0  0  0  0  0  0  0  0  0  0
   11.7636  -16.7245   23.3554 O   0  0  0  0  0  0  0  0  0  0  0  0
   16.9923  -14.8352   22.0823 O   0  0  0  0  0  0  0  0  0  0  0  0
   13.3079  -17.1562   24.9660 O   0  0  0  0  0  0  0  0  0  0  0  0
  2  1  1  0
  2  3  2  0
  4  2  1  0
  4  5  1  0
  5  6  1  0
  6  7  1  1
  6  8  1  0
  8 10  1  0
  9  8  2  0
 10 11  1  0
 11 15  1  0
 11 12  1  1
 12 13  1  0
 13 17  1  0
 14 13  2  0
 15 18  1  0
 16 15  2  0
 18 19  1  0
 19 20  1  1
 20 21  1  0
 21 25  1  0
 22 21  2  0
 23 19  1  0
 23 26  1  0
 24 23  2  0
M  END
$$$$
