QDD.pdb
     RDKit          3D

 26 25  0  0  1  0  0  0  0  0999 V2000
    5.6035  -14.0850   19.6720 N   0  0  0  0  0  0  0  0  0  0  0  0
    5.9134  -12.9731   18.8066 C   0  0  0  0  0  0  0  0  0  0  0  0
    5.0153  -12.1230   18.6527 O   0  0  0  0  0  0  0  0  0  0  0  0
    7.2559  -12.9666   18.2113 C   0  0  0  0  0  0  0  0  0  0  0  0
    8.1318  -14.0887   18.5576 C   0  0  0  0  0  0  0  0  0  0  0  0
    9.5488  -13.8568   18.9217 C   0  0  2  0  0  0  0  0  0  0  0  0
   10.0359  -12.7411   18.0322 N   0  0  0  0  0  0  0  0  0  0  0  0
   10.4463  -14.9894   18.6872 C   0  0  0  0  0  0  0  0  0  0  0  0
   10.2381  -16.1645   19.1342 O   0  0  0  0  0  0  0  0  0  0  0  0
   11.6568  -14.8195   17.9109 N   0  0  0  0  0  0  0  0  0  0  0  0
   12.5359  -15.9096   17.6033 C   0  0  1  0  0  0  0  0  0  0  0  0
   13.1264  -15.7984   16.2119 C   0  0  0  0  0  0  0  0  0  0  0  0
   12.1483  -15.9406   15.1343 C   0  0  0  0  0  0  0  0  0  0  0  0
   11.0939  -16.6174   15.1749 O   0  0  0  0  0  0  0  0  0  0  0  0
   13.6165  -16.0453   18.6255 C   0  0  0  0  0  0  0  0  0  0  0  0
   14.4568  -16.9700   18.5493 O   0  0  0  0  0  0  0  0  0  0  0  0
   12.3946  -15.2675   13.9424 O   0  0  0  0  0  0  0  0  0  0  0  0
   13.7776  -15.1739   19.7309 N   0  0  0  0  0  0  0  0  0  0  0  0
   14.8430  -15.2796   20.6340 C   0  0  1  0  0  0  0  0  0  0  0  0
   15.8471  -14.2104   20.7504 C   0  0  0  0  0  0  0  0  0  0  0  0
   16.6778  -14.0874   19.5211 C   0  0  0  0  0  0  0  0  0  0  0  0
   16.9085  -12.9873   18.9491 O   0  0  0  0  0  0  0  0  0  0  0  0
   14.2566  -15.4642   21.9936 C   0  0  0  0  0  0  0  0  0  0  0  0
   13.0100  -15.3740   22.0931 O   0  0  0  0  0  0  0  0  0  0  0  0
   17.2670  -15.2036   18.9120 O   0  0  0  0  0  0  0  0  0  0  0  0
   15.0169  -15.7215   23.1014 O   0  0  0  0  0  0  0  0  0  0  0  0
  2  1  1  0
  2  3  2  0
  4  2  1  0
  4  5  1  0
  5  6  1  0
  6  7  1  6
  6  8  1  0
  8 10  1  0
  9  8  2  0
 10 11  1  0
 11 15  1  0
 11 12  1  6
 12 13  1  0
 13 17  1  0
 14 13  2  0
 15 18  1  0
 16 15  2  0
 18 19  1  0
 19 20  1  1
 20 21  1  0
 21 25  1  0
 22 21  2  0
 23 19  1  0
 23 26  1  0
 24 23  2  0
M  END
$$$$
