QDD.pdb
     RDKit          3D

 26 25  0  0  1  0  0  0  0  0999 V2000
    7.7705  -12.0451   18.4373 N   0  0  0  0  0  0  0  0  0  0  0  0
    7.8705  -13.4414   18.0888 C   0  0  0  0  0  0  0  0  0  0  0  0
    7.4701  -13.7595   16.9524 O   0  0  0  0  0  0  0  0  0  0  0  0
    8.4400  -14.3280   19.1117 C   0  0  0  0  0  0  0  0  0  0  0  0
    8.7675  -13.7151   20.4015 C   0  0  0  0  0  0  0  0  0  0  0  0
    9.3810  -14.5172   21.4852 C   0  0  2  0  0  0  0  0  0  0  0  0
   10.3216  -15.4850   20.8131 N   0  0  0  0  0  0  0  0  0  0  0  0
    8.4461  -15.3294   22.2658 C   0  0  0  0  0  0  0  0  0  0  0  0
    7.1951  -15.3946   22.0311 O   0  0  0  0  0  0  0  0  0  0  0  0
    8.9163  -16.1224   23.3824 N   0  0  0  0  0  0  0  0  0  0  0  0
    8.2577  -17.3226   23.8084 C   0  0  1  0  0  0  0  0  0  0  0  0
    7.9911  -18.2726   22.6580 C   0  0  0  0  0  0  0  0  0  0  0  0
    7.2961  -19.4996   23.0446 C   0  0  0  0  0  0  0  0  0  0  0  0
    6.1733  -19.5727   23.5974 O   0  0  0  0  0  0  0  0  0  0  0  0
    9.0210  -18.0091   24.8933 C   0  0  0  0  0  0  0  0  0  0  0  0
    8.5937  -19.0692   25.4039 O   0  0  0  0  0  0  0  0  0  0  0  0
    7.9258  -20.7116   22.7819 O   0  0  0  0  0  0  0  0  0  0  0  0
   10.2478  -17.5372   25.4218 N   0  0  0  0  0  0  0  0  0  0  0  0
   11.4335  -18.2812   25.3730 C   0  0  1  0  0  0  0  0  0  0  0  0
   12.6430  -17.7390   24.7343 C   0  0  0  0  0  0  0  0  0  0  0  0
   13.7760  -18.7041   24.7728 C   0  0  0  0  0  0  0  0  0  0  0  0
   14.3168  -19.0938   25.8435 O   0  0  0  0  0  0  0  0  0  0  0  0
   11.8064  -18.6158   26.7786 C   0  0  0  0  0  0  0  0  0  0  0  0
   12.7641  -19.4087   26.9401 O   0  0  0  0  0  0  0  0  0  0  0  0
   14.3217  -19.2509   23.6036 O   0  0  0  0  0  0  0  0  0  0  0  0
   11.1533  -18.0979   27.8633 O   0  0  0  0  0  0  0  0  0  0  0  0
  2  1  1  0
  2  3  2  0
  4  2  1  0
  4  5  1  0
  5  6  1  0
  6  7  1  6
  6  8  1  0
  8 10  1  0
  9  8  2  0
 10 11  1  0
 11 15  1  0
 11 12  1  6
 12 13  1  0
 13 17  1  0
 14 13  2  0
 15 18  1  0
 16 15  2  0
 18 19  1  0
 19 20  1  1
 20 21  1  0
 21 25  1  0
 22 21  2  0
 23 19  1  0
 23 26  1  0
 24 23  2  0
M  END
$$$$
