QDD.pdb
     RDKit          3D

 26 25  0  0  1  0  0  0  0  0999 V2000
    9.9948  -14.6588   12.5666 N   0  0  0  0  0  0  0  0  0  0  0  0
    9.0002  -14.6140   13.6106 C   0  0  0  0  0  0  0  0  0  0  0  0
    7.8221  -14.8251   13.2638 O   0  0  0  0  0  0  0  0  0  0  0  0
    9.4917  -14.3316   14.9654 C   0  0  0  0  0  0  0  0  0  0  0  0
   10.9422  -14.1974   15.1217 C   0  0  0  0  0  0  0  0  0  0  0  0
   11.6806  -15.0490   16.0828 C   0  0  2  0  0  0  0  0  0  0  0  0
   11.0261  -16.4064   16.0335 N   0  0  0  0  0  0  0  0  0  0  0  0
   11.6164  -14.6136   17.4791 C   0  0  0  0  0  0  0  0  0  0  0  0
   12.2185  -13.5849   17.9303 O   0  0  0  0  0  0  0  0  0  0  0  0
   10.8400  -15.3601   18.4469 N   0  0  0  0  0  0  0  0  0  0  0  0
   10.7340  -14.9654   19.8212 C   0  0  1  0  0  0  0  0  0  0  0  0
    9.3335  -15.1550   20.3685 C   0  0  0  0  0  0  0  0  0  0  0  0
    8.4143  -14.0632   20.0503 C   0  0  0  0  0  0  0  0  0  0  0  0
    8.6948  -13.0197   19.4147 O   0  0  0  0  0  0  0  0  0  0  0  0
   11.7338  -15.6768   20.6727 C   0  0  0  0  0  0  0  0  0  0  0  0
   11.7290  -16.9258   20.7572 O   0  0  0  0  0  0  0  0  0  0  0  0
    7.0985  -14.1757   20.4866 O   0  0  0  0  0  0  0  0  0  0  0  0
   12.7359  -15.0251   21.4332 N   0  0  0  0  0  0  0  0  0  0  0  0
   13.6832  -15.7188   22.1967 C   0  0  1  0  0  0  0  0  0  0  0  0
   15.0604  -15.2189   22.3330 C   0  0  0  0  0  0  0  0  0  0  0  0
   15.7649  -15.1570   21.0230 C   0  0  0  0  0  0  0  0  0  0  0  0
   15.9650  -16.1685   20.2966 O   0  0  0  0  0  0  0  0  0  0  0  0
   13.1354  -15.8429   23.5791 C   0  0  0  0  0  0  0  0  0  0  0  0
   12.0747  -15.2230   23.8290 O   0  0  0  0  0  0  0  0  0  0  0  0
   16.2574  -13.9519   20.5044 O   0  0  0  0  0  0  0  0  0  0  0  0
   13.7390  -16.5911   24.5524 O   0  0  0  0  0  0  0  0  0  0  0  0
  2  1  1  0
  2  3  2  0
  4  2  1  0
  4  5  1  0
  5  6  1  0
  6  7  1  1
  6  8  1  0
  8 10  1  0
  9  8  2  0
 10 11  1  0
 11 15  1  0
 11 12  1  1
 12 13  1  0
 13 17  1  0
 14 13  2  0
 15 18  1  0
 16 15  2  0
 18 19  1  0
 19 20  1  1
 20 21  1  0
 21 25  1  0
 22 21  2  0
 23 19  1  0
 23 26  1  0
 24 23  2  0
M  END
$$$$
