QDD.pdb
     RDKit          3D

 26 25  0  0  1  0  0  0  0  0999 V2000
    6.9261  -12.3962   14.5040 N   0  0  0  0  0  0  0  0  0  0  0  0
    7.2422  -13.4756   15.4073 C   0  0  0  0  0  0  0  0  0  0  0  0
    7.3309  -14.6121   14.9040 O   0  0  0  0  0  0  0  0  0  0  0  0
    7.4305  -13.1099   16.8171 C   0  0  0  0  0  0  0  0  0  0  0  0
    7.6835  -14.2097   17.7514 C   0  0  0  0  0  0  0  0  0  0  0  0
    8.9495  -14.2741   18.5177 C   0  0  2  0  0  0  0  0  0  0  0  0
    9.9242  -15.0396   17.6590 N   0  0  0  0  0  0  0  0  0  0  0  0
    8.8722  -14.9932   19.7906 C   0  0  0  0  0  0  0  0  0  0  0  0
    8.2590  -14.5540   20.8178 O   0  0  0  0  0  0  0  0  0  0  0  0
    9.5143  -16.2815   19.9471 N   0  0  0  0  0  0  0  0  0  0  0  0
    9.5486  -16.9799   21.1989 C   0  0  1  0  0  0  0  0  0  0  0  0
    9.3897  -18.4773   21.0275 C   0  0  0  0  0  0  0  0  0  0  0  0
    8.6114  -18.8653   19.8519 C   0  0  0  0  0  0  0  0  0  0  0  0
    7.3617  -18.8552   19.7540 O   0  0  0  0  0  0  0  0  0  0  0  0
   10.7910  -16.6657   21.9661 C   0  0  0  0  0  0  0  0  0  0  0  0
   11.9199  -16.8277   21.4498 O   0  0  0  0  0  0  0  0  0  0  0  0
    9.3074  -19.2889   18.7247 O   0  0  0  0  0  0  0  0  0  0  0  0
   10.8007  -16.1779   23.2962 N   0  0  0  0  0  0  0  0  0  0  0  0
   11.6152  -16.7190   24.2989 C   0  0  1  0  0  0  0  0  0  0  0  0
   11.1482  -17.8366   25.1343 C   0  0  0  0  0  0  0  0  0  0  0  0
   12.1306  -18.1899   26.1955 C   0  0  0  0  0  0  0  0  0  0  0  0
   12.5902  -19.3538   26.3532 O   0  0  0  0  0  0  0  0  0  0  0  0
   12.8797  -17.1716   23.6486 C   0  0  0  0  0  0  0  0  0  0  0  0
   12.7890  -18.1028   22.8140 O   0  0  0  0  0  0  0  0  0  0  0  0
   12.6161  -17.2366   27.1008 O   0  0  0  0  0  0  0  0  0  0  0  0
   14.0983  -16.6164   23.9282 O   0  0  0  0  0  0  0  0  0  0  0  0
  2  1  1  0
  2  3  2  0
  4  2  1  0
  4  5  1  0
  5  6  1  0
  6  7  1  6
  6  8  1  0
  8 10  1  0
  9  8  2  0
 10 11  1  0
 11 15  1  0
 11 12  1  6
 12 13  1  0
 13 17  1  0
 14 13  2  0
 15 18  1  0
 16 15  2  0
 18 19  1  0
 19 20  1  6
 20 21  1  0
 21 25  1  0
 22 21  2  0
 23 19  1  0
 23 26  1  0
 24 23  2  0
M  END
$$$$
