QDD.pdb
     RDKit          3D

 26 25  0  0  1  0  0  0  0  0999 V2000
    5.9885  -17.6077   12.4151 N   0  0  0  0  0  0  0  0  0  0  0  0
    6.0961  -17.6972   13.8510 C   0  0  0  0  0  0  0  0  0  0  0  0
    5.0540  -17.9903   14.4680 O   0  0  0  0  0  0  0  0  0  0  0  0
    7.4248  -17.4395   14.4209 C   0  0  0  0  0  0  0  0  0  0  0  0
    7.5068  -16.3975   15.4475 C   0  0  0  0  0  0  0  0  0  0  0  0
    8.7772  -16.1420   16.1650 C   0  0  2  0  0  0  0  0  0  0  0  0
    9.8822  -16.4032   15.1731 N   0  0  0  0  0  0  0  0  0  0  0  0
    9.0358  -17.0203   17.3074 C   0  0  0  0  0  0  0  0  0  0  0  0
    8.2809  -17.0939   18.3315 O   0  0  0  0  0  0  0  0  0  0  0  0
   10.2048  -17.8746   17.3278 N   0  0  0  0  0  0  0  0  0  0  0  0
   10.5299  -18.7114   18.4458 C   0  0  1  0  0  0  0  0  0  0  0  0
   10.9103  -20.1161   18.0224 C   0  0  0  0  0  0  0  0  0  0  0  0
   11.1952  -21.0197   19.1362 C   0  0  0  0  0  0  0  0  0  0  0  0
   10.3591  -21.4837   19.9467 O   0  0  0  0  0  0  0  0  0  0  0  0
   11.6041  -18.1052   19.2880 C   0  0  0  0  0  0  0  0  0  0  0  0
   12.5181  -17.4260   18.7680 O   0  0  0  0  0  0  0  0  0  0  0  0
   12.5151  -21.4129   19.3304 O   0  0  0  0  0  0  0  0  0  0  0  0
   11.6817  -18.2428   20.6959 N   0  0  0  0  0  0  0  0  0  0  0  0
   12.6731  -17.6233   21.4674 C   0  0  1  0  0  0  0  0  0  0  0  0
   12.3394  -16.9507   22.7327 C   0  0  0  0  0  0  0  0  0  0  0  0
   13.5190  -16.2670   23.3305 C   0  0  0  0  0  0  0  0  0  0  0  0
   14.6689  -16.2920   22.8130 O   0  0  0  0  0  0  0  0  0  0  0  0
   13.6963  -18.6598   21.7919 C   0  0  0  0  0  0  0  0  0  0  0  0
   13.2736  -19.7875   22.1406 O   0  0  0  0  0  0  0  0  0  0  0  0
   13.4255  -15.5395   24.5246 O   0  0  0  0  0  0  0  0  0  0  0  0
   15.0417  -18.4224   21.7220 O   0  0  0  0  0  0  0  0  0  0  0  0
  2  1  1  0
  2  3  2  0
  4  2  1  0
  4  5  1  0
  5  6  1  0
  6  7  1  6
  6  8  1  0
  8 10  1  0
  9  8  2  0
 10 11  1  0
 11 15  1  0
 11 12  1  6
 12 13  1  0
 13 17  1  0
 14 13  2  0
 15 18  1  0
 16 15  2  0
 18 19  1  0
 19 20  1  1
 20 21  1  0
 21 25  1  0
 22 21  2  0
 23 19  1  0
 23 26  1  0
 24 23  2  0
M  END
$$$$
