QDD.pdb
     RDKit          3D

 26 25  0  0  1  0  0  0  0  0999 V2000
    7.0654  -15.0631   16.4588 N   0  0  0  0  0  0  0  0  0  0  0  0
    7.1055  -13.6980   15.9939 C   0  0  0  0  0  0  0  0  0  0  0  0
    6.5329  -13.4634   14.9123 O   0  0  0  0  0  0  0  0  0  0  0  0
    7.8113  -12.7388   16.8532 C   0  0  0  0  0  0  0  0  0  0  0  0
    8.3394  -13.2568   18.1178 C   0  0  0  0  0  0  0  0  0  0  0  0
    9.6916  -13.8583   18.1821 C   0  0  2  0  0  0  0  0  0  0  0  0
    9.6643  -15.0568   17.2677 N   0  0  0  0  0  0  0  0  0  0  0  0
   10.0903  -14.3569   19.4995 C   0  0  0  0  0  0  0  0  0  0  0  0
   10.2948  -13.6077   20.5100 O   0  0  0  0  0  0  0  0  0  0  0  0
   10.2801  -15.7750   19.7222 N   0  0  0  0  0  0  0  0  0  0  0  0
   10.8294  -16.2987   20.9387 C   0  0  1  0  0  0  0  0  0  0  0  0
   10.2263  -17.6377   21.3133 C   0  0  0  0  0  0  0  0  0  0  0  0
   10.6820  -18.1593   22.6012 C   0  0  0  0  0  0  0  0  0  0  0  0
   10.7178  -19.3652   22.9416 O   0  0  0  0  0  0  0  0  0  0  0  0
   12.3186  -16.3915   20.8703 C   0  0  0  0  0  0  0  0  0  0  0  0
   12.8740  -17.3640   20.3110 O   0  0  0  0  0  0  0  0  0  0  0  0
   11.1214  -17.2445   23.5522 O   0  0  0  0  0  0  0  0  0  0  0  0
   13.2000  -15.4250   21.4144 N   0  0  0  0  0  0  0  0  0  0  0  0
   14.5934  -15.5646   21.3859 C   0  0  1  0  0  0  0  0  0  0  0  0
   15.4445  -14.5459   20.7512 C   0  0  0  0  0  0  0  0  0  0  0  0
   15.2633  -14.5072   19.2741 C   0  0  0  0  0  0  0  0  0  0  0  0
   15.5839  -15.4600   18.5125 O   0  0  0  0  0  0  0  0  0  0  0  0
   15.0568  -15.6880   22.7989 C   0  0  0  0  0  0  0  0  0  0  0  0
   16.2876  -15.8397   22.9832 O   0  0  0  0  0  0  0  0  0  0  0  0
   14.7150  -13.3926   18.6253 O   0  0  0  0  0  0  0  0  0  0  0  0
   14.2032  -15.6418   23.8669 O   0  0  0  0  0  0  0  0  0  0  0  0
  2  1  1  0
  2  3  2  0
  4  2  1  0
  4  5  1  0
  5  6  1  0
  6  7  1  6
  6  8  1  0
  8 10  1  0
  9  8  2  0
 10 11  1  0
 11 15  1  0
 11 12  1  6
 12 13  1  0
 13 17  1  0
 14 13  2  0
 15 18  1  0
 16 15  2  0
 18 19  1  0
 19 20  1  1
 20 21  1  0
 21 25  1  0
 22 21  2  0
 23 19  1  0
 23 26  1  0
 24 23  2  0
M  END
$$$$
