KGM.pdb
     RDKit          3D

 22 21  0  0  1  0  0  0  0  0999 V2000
    7.5282  -19.4312   19.7354 N   0  0  0  0  0  0  0  0  0  0  0  0
    6.7327  -18.3707   19.1959 C   0  0  1  0  0  0  0  0  0  0  0  0
    5.3018  -18.7413   18.9484 C   0  0  0  0  0  0  0  0  0  0  0  0
    4.6284  -19.2676   20.2070 C   0  0  0  0  0  0  0  0  0  0  0  0
    3.2545  -19.8073   19.9093 C   0  0  0  0  0  0  0  0  0  0  0  0
    2.6333  -20.4822   21.1142 C   0  0  0  0  0  0  0  0  0  0  0  0
    1.3157  -20.9812   20.8403 N   0  0  0  0  0  0  0  0  0  0  0  0
    6.8303  -17.1545   20.0258 C   0  0  0  0  0  0  0  0  0  0  0  0
    6.0627  -16.1973   19.7686 O   0  0  0  0  0  0  0  0  0  0  0  0
    7.7761  -17.0890   21.0842 N   0  0  0  0  0  0  0  0  0  0  0  0
    7.7867  -15.9348   21.9056 C   0  0  0  0  0  0  0  0  0  0  0  0
    8.7444  -15.9291   23.0241 C   0  0  0  0  0  0  0  0  0  0  0  0
    9.4392  -16.9767   23.2932 O   0  0  0  0  0  0  0  0  0  0  0  0
    7.1520   -9.9981   26.9477 C   0  0  0  0  0  0  0  0  0  0  0  0
    6.6829  -11.7347   26.7199 S   0  0  0  0  0  0  0  0  0  0  0  0
    8.0660  -12.6995   26.0661 C   0  0  0  0  0  0  0  0  0  0  0  0
    7.6988  -14.1511   25.8469 C   0  0  0  0  0  0  0  0  0  0  0  0
    8.8825  -14.9403   25.3287 C   0  0  2  0  0  0  0  0  0  0  0  0
    9.0054  -14.8385   23.8908 N   0  0  0  0  0  0  0  0  0  0  0  0
    8.8396  -16.3366   25.7957 C   0  0  0  0  0  0  0  0  0  0  0  0
    9.8293  -16.8582   26.5982 O   0  0  0  0  0  0  0  0  0  0  0  0
    7.8878  -17.0658   25.4593 O   0  0  0  0  0  0  0  0  0  0  0  0
  2  1  1  1
  3  2  1  0
  4  3  1  0
  5  4  1  0
  6  5  1  0
  7  6  1  0
  8  2  1  0
  8 10  1  0
  9  8  2  0
 11 10  1  0
 11 12  1  0
 12 13  2  0
 15 14  1  0
 16 15  1  0
 17 16  1  0
 18 17  1  6
 19 12  1  0
 19 18  1  0
 20 21  1  0
 20 18  1  0
 22 20  2  0
M  END
$$$$
