KGM.pdb
     RDKit          3D

 22 21  0  0  1  0  0  0  0  0999 V2000
    9.0027  -18.7652   19.7019 N   0  0  0  0  0  0  0  0  0  0  0  0
    8.3535  -17.5124   19.4615 C   0  0  1  0  0  0  0  0  0  0  0  0
    7.2999  -17.5613   18.3967 C   0  0  0  0  0  0  0  0  0  0  0  0
    6.6589  -18.9374   18.2986 C   0  0  0  0  0  0  0  0  0  0  0  0
    5.5620  -18.9593   17.2672 C   0  0  0  0  0  0  0  0  0  0  0  0
    4.8591  -20.2994   17.2104 C   0  0  0  0  0  0  0  0  0  0  0  0
    3.7724  -20.3055   16.2727 N   0  0  0  0  0  0  0  0  0  0  0  0
    7.8188  -16.9395   20.7118 C   0  0  0  0  0  0  0  0  0  0  0  0
    7.3816  -15.7648   20.6869 O   0  0  0  0  0  0  0  0  0  0  0  0
    7.8084  -17.7146   21.9027 N   0  0  0  0  0  0  0  0  0  0  0  0
    7.2804  -17.1303   23.0803 C   0  0  0  0  0  0  0  0  0  0  0  0
    8.2261  -16.3880   23.9303 C   0  0  0  0  0  0  0  0  0  0  0  0
    9.4802  -16.3689   23.6483 O   0  0  0  0  0  0  0  0  0  0  0  0
    5.4411  -10.7187   26.2124 C   0  0  0  0  0  0  0  0  0  0  0  0
    6.3784  -11.9531   27.1533 S   0  0  0  0  0  0  0  0  0  0  0  0
    7.4360  -12.9340   26.0621 C   0  0  0  0  0  0  0  0  0  0  0  0
    8.2583  -13.9507   26.8237 C   0  0  0  0  0  0  0  0  0  0  0  0
    8.8904  -14.9550   25.8832 C   0  0  2  0  0  0  0  0  0  0  0  0
    7.8959  -15.6475   25.0929 N   0  0  0  0  0  0  0  0  0  0  0  0
    9.7813  -15.8779   26.6071 C   0  0  0  0  0  0  0  0  0  0  0  0
   11.0192  -15.4783   27.0581 O   0  0  0  0  0  0  0  0  0  0  0  0
    9.4102  -17.0477   26.8183 O   0  0  0  0  0  0  0  0  0  0  0  0
  2  1  1  1
  3  2  1  0
  4  3  1  0
  5  4  1  0
  6  5  1  0
  7  6  1  0
  8  2  1  0
  8 10  1  0
  9  8  2  0
 11 10  1  0
 11 12  1  0
 12 13  2  0
 15 14  1  0
 16 15  1  0
 17 16  1  0
 18 17  1  1
 19 12  1  0
 19 18  1  0
 20 21  1  0
 20 18  1  0
 22 20  2  0
M  END
$$$$
