KGM.pdb
     RDKit          3D

 22 21  0  0  1  0  0  0  0  0999 V2000
    7.2251  -16.7879   22.7656 N   0  0  0  0  0  0  0  0  0  0  0  0
    8.1634  -17.0613   21.7200 C   0  0  1  0  0  0  0  0  0  0  0  0
    7.7973  -16.4646   20.3949 C   0  0  0  0  0  0  0  0  0  0  0  0
    7.6620  -14.9514   20.4744 C   0  0  0  0  0  0  0  0  0  0  0  0
    8.4769  -14.2709   19.4066 C   0  0  0  0  0  0  0  0  0  0  0  0
    8.3974  -12.7618   19.5031 C   0  0  0  0  0  0  0  0  0  0  0  0
    9.1750  -12.1091   18.4885 N   0  0  0  0  0  0  0  0  0  0  0  0
    9.5316  -16.6759   22.1161 C   0  0  0  0  0  0  0  0  0  0  0  0
   10.4498  -16.7947   21.2708 O   0  0  0  0  0  0  0  0  0  0  0  0
    9.7819  -16.1851   23.4259 N   0  0  0  0  0  0  0  0  0  0  0  0
   11.0180  -16.5064   24.0392 C   0  0  0  0  0  0  0  0  0  0  0  0
   11.2990  -15.8645   25.3342 C   0  0  0  0  0  0  0  0  0  0  0  0
   12.3854  -16.1261   25.9698 O   0  0  0  0  0  0  0  0  0  0  0  0
    5.9048  -12.9409   26.8770 C   0  0  0  0  0  0  0  0  0  0  0  0
    7.3662  -12.0364   27.4549 S   0  0  0  0  0  0  0  0  0  0  0  0
    8.8867  -12.9084   27.0088 C   0  0  0  0  0  0  0  0  0  0  0  0
    9.1371  -14.1115   27.8919 C   0  0  0  0  0  0  0  0  0  0  0  0
   10.3694  -14.8689   27.4444 C   0  0  2  0  0  0  0  0  0  0  0  0
   10.4617  -14.9363   26.0021 N   0  0  0  0  0  0  0  0  0  0  0  0
   10.4405  -16.1964   28.0788 C   0  0  0  0  0  0  0  0  0  0  0  0
   11.1224  -16.3952   29.2582 O   0  0  0  0  0  0  0  0  0  0  0  0
    9.8721  -17.1641   27.5391 O   0  0  0  0  0  0  0  0  0  0  0  0
  2  1  1  1
  3  2  1  0
  4  3  1  0
  5  4  1  0
  6  5  1  0
  7  6  1  0
  8  2  1  0
  8 10  1  0
  9  8  2  0
 11 10  1  0
 11 12  1  0
 12 13  2  0
 15 14  1  0
 16 15  1  0
 17 16  1  0
 18 17  1  6
 19 12  1  0
 19 18  1  0
 20 21  1  0
 20 18  1  0
 22 20  2  0
M  END
$$$$
