KGM.pdb
     RDKit          3D

 22 21  0  0  1  0  0  0  0  0999 V2000
   11.0388  -13.8312   19.0725 N   0  0  0  0  0  0  0  0  0  0  0  0
    9.8313  -13.3642   19.6830 C   0  0  1  0  0  0  0  0  0  0  0  0
    8.7294  -13.0631   18.7128 C   0  0  0  0  0  0  0  0  0  0  0  0
    8.7430  -14.0175   17.5282 C   0  0  0  0  0  0  0  0  0  0  0  0
    7.7126  -13.6309   16.5004 C   0  0  0  0  0  0  0  0  0  0  0  0
    7.6195  -14.6424   15.3773 C   0  0  0  0  0  0  0  0  0  0  0  0
    6.6640  -14.2597   14.3771 N   0  0  0  0  0  0  0  0  0  0  0  0
    9.3730  -14.2899   20.7367 C   0  0  0  0  0  0  0  0  0  0  0  0
    8.3495  -13.9829   21.3923 O   0  0  0  0  0  0  0  0  0  0  0  0
   10.0864  -15.4931   20.9868 N   0  0  0  0  0  0  0  0  0  0  0  0
    9.5255  -16.4322   21.8871 C   0  0  0  0  0  0  0  0  0  0  0  0
    9.6418  -16.1222   23.3218 C   0  0  0  0  0  0  0  0  0  0  0  0
   10.7416  -16.3432   23.9499 O   0  0  0  0  0  0  0  0  0  0  0  0
    5.5639  -11.8837   26.8494 C   0  0  0  0  0  0  0  0  0  0  0  0
    7.3547  -11.9099   26.5662 S   0  0  0  0  0  0  0  0  0  0  0  0
    8.0660  -13.4979   27.0597 C   0  0  0  0  0  0  0  0  0  0  0  0
    7.6136  -14.6310   26.1645 C   0  0  0  0  0  0  0  0  0  0  0  0
    8.7985  -15.3536   25.5593 C   0  0  2  0  0  0  0  0  0  0  0  0
    8.6220  -15.5760   24.1406 N   0  0  0  0  0  0  0  0  0  0  0  0
    9.0997  -16.5945   26.2936 C   0  0  0  0  0  0  0  0  0  0  0  0
    9.9069  -16.5933   27.4089 O   0  0  0  0  0  0  0  0  0  0  0  0
    8.6151  -17.6719   25.8999 O   0  0  0  0  0  0  0  0  0  0  0  0
  2  1  1  6
  3  2  1  0
  4  3  1  0
  5  4  1  0
  6  5  1  0
  7  6  1  0
  8  2  1  0
  8 10  1  0
  9  8  2  0
 11 10  1  0
 11 12  1  0
 12 13  2  0
 15 14  1  0
 16 15  1  0
 17 16  1  0
 18 17  1  1
 19 12  1  0
 19 18  1  0
 20 21  1  0
 20 18  1  0
 22 20  2  0
M  END
$$$$
