KGM.pdb
     RDKit          3D

 22 21  0  0  1  0  0  0  0  0999 V2000
    7.4578  -20.9190   21.2124 N   0  0  0  0  0  0  0  0  0  0  0  0
    7.1105  -19.5646   21.5185 C   0  0  1  0  0  0  0  0  0  0  0  0
    6.2460  -19.4119   22.7332 C   0  0  0  0  0  0  0  0  0  0  0  0
    5.1122  -20.4261   22.7510 C   0  0  0  0  0  0  0  0  0  0  0  0
    5.3796  -21.5305   23.7390 C   0  0  0  0  0  0  0  0  0  0  0  0
    4.2659  -22.5563   23.7634 C   0  0  0  0  0  0  0  0  0  0  0  0
    4.5033  -23.5958   24.7242 N   0  0  0  0  0  0  0  0  0  0  0  0
    8.3121  -18.7132   21.6114 C   0  0  0  0  0  0  0  0  0  0  0  0
    9.2728  -19.1165   22.3086 O   0  0  0  0  0  0  0  0  0  0  0  0
    8.3601  -17.4720   20.9214 N   0  0  0  0  0  0  0  0  0  0  0  0
    9.4901  -16.6394   21.1137 C   0  0  0  0  0  0  0  0  0  0  0  0
    9.5332  -15.8630   22.3640 C   0  0  0  0  0  0  0  0  0  0  0  0
   10.5599  -15.1444   22.6506 O   0  0  0  0  0  0  0  0  0  0  0  0
    7.0125  -10.7150   27.4695 C   0  0  0  0  0  0  0  0  0  0  0  0
    6.6027  -11.8097   26.0834 S   0  0  0  0  0  0  0  0  0  0  0  0
    7.7921  -13.1663   25.9552 C   0  0  0  0  0  0  0  0  0  0  0  0
    7.6006  -13.9784   24.6927 C   0  0  0  0  0  0  0  0  0  0  0  0
    8.6540  -15.0596   24.5753 C   0  0  2  0  0  0  0  0  0  0  0  0
    8.5140  -15.8122   23.3476 N   0  0  0  0  0  0  0  0  0  0  0  0
    8.6700  -15.9221   25.7693 C   0  0  0  0  0  0  0  0  0  0  0  0
    8.0496  -17.1512   25.7780 O   0  0  0  0  0  0  0  0  0  0  0  0
    9.2571  -15.5345   26.7968 O   0  0  0  0  0  0  0  0  0  0  0  0
  2  1  1  1
  3  2  1  0
  4  3  1  0
  5  4  1  0
  6  5  1  0
  7  6  1  0
  8  2  1  0
  8 10  1  0
  9  8  2  0
 11 10  1  0
 11 12  1  0
 12 13  2  0
 15 14  1  0
 16 15  1  0
 17 16  1  0
 18 17  1  1
 19 12  1  0
 19 18  1  0
 20 21  1  0
 20 18  1  0
 22 20  2  0
M  END
$$$$
