KGM.pdb
     RDKit          3D

 22 21  0  0  1  0  0  0  0  0999 V2000
    7.6571  -19.3396   21.0749 N   0  0  0  0  0  0  0  0  0  0  0  0
    7.7737  -18.4235   19.9814 C   0  0  1  0  0  0  0  0  0  0  0  0
    6.5046  -17.6987   19.6496 C   0  0  0  0  0  0  0  0  0  0  0  0
    5.3102  -18.6402   19.6090 C   0  0  0  0  0  0  0  0  0  0  0  0
    4.3148  -18.3104   20.6897 C   0  0  0  0  0  0  0  0  0  0  0  0
    3.1143  -19.2329   20.6603 C   0  0  0  0  0  0  0  0  0  0  0  0
    2.1725  -18.9349   21.7016 N   0  0  0  0  0  0  0  0  0  0  0  0
    8.8857  -17.4771   20.1939 C   0  0  0  0  0  0  0  0  0  0  0  0
    9.3000  -16.8180   19.2112 O   0  0  0  0  0  0  0  0  0  0  0  0
    9.4589  -17.3308   21.4858 N   0  0  0  0  0  0  0  0  0  0  0  0
   10.5275  -16.4146   21.6472 C   0  0  0  0  0  0  0  0  0  0  0  0
   11.0333  -16.2248   23.0169 C   0  0  0  0  0  0  0  0  0  0  0  0
   12.0782  -15.5078   23.2329 O   0  0  0  0  0  0  0  0  0  0  0  0
   10.5455  -13.2393   29.9046 C   0  0  0  0  0  0  0  0  0  0  0  0
    9.6519  -13.9191   28.4808 S   0  0  0  0  0  0  0  0  0  0  0  0
   10.6614  -15.1361   27.6028 C   0  0  0  0  0  0  0  0  0  0  0  0
   10.1045  -15.4616   26.2338 C   0  0  0  0  0  0  0  0  0  0  0  0
   10.9773  -16.4692   25.5160 C   0  0  2  0  0  0  0  0  0  0  0  0
   10.4691  -16.7730   24.1959 N   0  0  0  0  0  0  0  0  0  0  0  0
   11.1842  -17.6762   26.3345 C   0  0  0  0  0  0  0  0  0  0  0  0
   12.2160  -17.7627   27.2419 O   0  0  0  0  0  0  0  0  0  0  0  0
   10.4101  -18.6432   26.2061 O   0  0  0  0  0  0  0  0  0  0  0  0
  2  1  1  1
  3  2  1  0
  4  3  1  0
  5  4  1  0
  6  5  1  0
  7  6  1  0
  8  2  1  0
  8 10  1  0
  9  8  2  0
 11 10  1  0
 11 12  1  0
 12 13  2  0
 15 14  1  0
 16 15  1  0
 17 16  1  0
 18 17  1  1
 19 12  1  0
 19 18  1  0
 20 21  1  0
 20 18  1  0
 22 20  2  0
M  END
$$$$
