KGM.pdb
     RDKit          3D

 22 21  0  0  1  0  0  0  0  0999 V2000
    4.3994  -17.4926   23.3110 N   0  0  0  0  0  0  0  0  0  0  0  0
    5.1877  -18.4344   22.5760 C   0  0  1  0  0  0  0  0  0  0  0  0
    4.4776  -19.0512   21.4092 C   0  0  0  0  0  0  0  0  0  0  0  0
    3.0921  -19.5505   21.7905 C   0  0  0  0  0  0  0  0  0  0  0  0
    2.4015  -20.1991   20.6200 C   0  0  0  0  0  0  0  0  0  0  0  0
    1.0043  -20.6670   20.9697 C   0  0  0  0  0  0  0  0  0  0  0  0
    0.3631  -21.3353   19.8733 N   0  0  0  0  0  0  0  0  0  0  0  0
    6.4759  -17.8451   22.1627 C   0  0  0  0  0  0  0  0  0  0  0  0
    7.4599  -18.6090   22.0219 O   0  0  0  0  0  0  0  0  0  0  0  0
    6.5784  -16.4463   21.9351 N   0  0  0  0  0  0  0  0  0  0  0  0
    7.8451  -15.9122   21.5925 C   0  0  0  0  0  0  0  0  0  0  0  0
    8.7129  -15.5024   22.7093 C   0  0  0  0  0  0  0  0  0  0  0  0
    9.9217  -15.1232   22.4909 O   0  0  0  0  0  0  0  0  0  0  0  0
    5.2580  -12.0343   27.4278 C   0  0  0  0  0  0  0  0  0  0  0  0
    6.9751  -12.0173   26.8455 S   0  0  0  0  0  0  0  0  0  0  0  0
    7.4474  -13.6284   26.1727 C   0  0  0  0  0  0  0  0  0  0  0  0
    8.8494  -13.6226   25.6032 C   0  0  0  0  0  0  0  0  0  0  0  0
    9.2437  -14.9995   25.1121 C   0  0  2  0  0  0  0  0  0  0  0  0
    8.3496  -15.4754   24.0790 N   0  0  0  0  0  0  0  0  0  0  0  0
    9.3729  -15.9491   26.2306 C   0  0  0  0  0  0  0  0  0  0  0  0
    8.5926  -17.0808   26.3081 O   0  0  0  0  0  0  0  0  0  0  0  0
   10.2060  -15.7272   27.1291 O   0  0  0  0  0  0  0  0  0  0  0  0
  2  1  1  6
  3  2  1  0
  4  3  1  0
  5  4  1  0
  6  5  1  0
  7  6  1  0
  8  2  1  0
  8 10  1  0
  9  8  2  0
 11 10  1  0
 11 12  1  0
 12 13  2  0
 15 14  1  0
 16 15  1  0
 17 16  1  0
 18 17  1  1
 19 12  1  0
 19 18  1  0
 20 21  1  0
 20 18  1  0
 22 20  2  0
M  END
$$$$
