KGM.pdb
     RDKit          3D

 22 21  0  0  1  0  0  0  0  0999 V2000
    5.4599  -18.9879   20.5679 N   0  0  0  0  0  0  0  0  0  0  0  0
    4.6737  -17.8621   20.9718 C   0  0  1  0  0  0  0  0  0  0  0  0
    3.2572  -17.8955   20.4832 C   0  0  0  0  0  0  0  0  0  0  0  0
    2.5162  -19.1270   20.9819 C   0  0  0  0  0  0  0  0  0  0  0  0
    2.2331  -20.0891   19.8587 C   0  0  0  0  0  0  0  0  0  0  0  0
    1.3240  -21.2201   20.2917 C   0  0  0  0  0  0  0  0  0  0  0  0
    1.0297  -22.1247   19.2170 N   0  0  0  0  0  0  0  0  0  0  0  0
    4.7268  -17.6707   22.4339 C   0  0  0  0  0  0  0  0  0  0  0  0
    4.0549  -16.7385   22.9352 O   0  0  0  0  0  0  0  0  0  0  0  0
    5.5243  -18.5308   23.2360 N   0  0  0  0  0  0  0  0  0  0  0  0
    5.5625  -18.3024   24.6337 C   0  0  0  0  0  0  0  0  0  0  0  0
    6.4502  -17.2254   25.1028 C   0  0  0  0  0  0  0  0  0  0  0  0
    6.5968  -17.0022   26.3603 O   0  0  0  0  0  0  0  0  0  0  0  0
    6.1188  -11.2578   26.2291 C   0  0  0  0  0  0  0  0  0  0  0  0
    7.4224  -12.0485   27.2104 S   0  0  0  0  0  0  0  0  0  0  0  0
    8.2913  -13.3047   26.2417 C   0  0  0  0  0  0  0  0  0  0  0  0
    7.3415  -14.2985   25.6091 C   0  0  0  0  0  0  0  0  0  0  0  0
    8.0965  -15.3494   24.8230 C   0  0  2  0  0  0  0  0  0  0  0  0
    7.2073  -16.3537   24.2808 N   0  0  0  0  0  0  0  0  0  0  0  0
    9.1887  -15.9319   25.6215 C   0  0  0  0  0  0  0  0  0  0  0  0
   10.5053  -15.6043   25.3879 O   0  0  0  0  0  0  0  0  0  0  0  0
    8.9192  -16.7400   26.5299 O   0  0  0  0  0  0  0  0  0  0  0  0
  2  1  1  1
  3  2  1  0
  4  3  1  0
  5  4  1  0
  6  5  1  0
  7  6  1  0
  8  2  1  0
  8 10  1  0
  9  8  2  0
 11 10  1  0
 11 12  1  0
 12 13  2  0
 15 14  1  0
 16 15  1  0
 17 16  1  0
 18 17  1  1
 19 12  1  0
 19 18  1  0
 20 21  1  0
 20 18  1  0
 22 20  2  0
M  END
$$$$
