KGM.pdb
     RDKit          3D

 22 21  0  0  1  0  0  0  0  0999 V2000
    6.5769  -16.2369   22.1214 N   0  0  0  0  0  0  0  0  0  0  0  0
    7.4811  -16.9084   21.2382 C   0  0  1  0  0  0  0  0  0  0  0  0
    7.2930  -16.5670   19.7910 C   0  0  0  0  0  0  0  0  0  0  0  0
    7.2692  -15.0630   19.5636 C   0  0  0  0  0  0  0  0  0  0  0  0
    8.1240  -14.6726   18.3871 C   0  0  0  0  0  0  0  0  0  0  0  0
    8.1295  -13.1757   18.1576 C   0  0  0  0  0  0  0  0  0  0  0  0
    8.9570  -12.7976   17.0476 N   0  0  0  0  0  0  0  0  0  0  0  0
    8.8825  -16.7062   21.6537 C   0  0  0  0  0  0  0  0  0  0  0  0
    9.7646  -17.4344   21.1406 O   0  0  0  0  0  0  0  0  0  0  0  0
    9.2038  -15.7070   22.6116 N   0  0  0  0  0  0  0  0  0  0  0  0
   10.5601  -15.5500   22.9898 C   0  0  0  0  0  0  0  0  0  0  0  0
   10.8836  -15.7960   24.4050 C   0  0  0  0  0  0  0  0  0  0  0  0
   12.1056  -15.7956   24.8044 O   0  0  0  0  0  0  0  0  0  0  0  0
    6.9750  -11.6507   26.2139 C   0  0  0  0  0  0  0  0  0  0  0  0
    7.1882  -12.3577   27.8699 S   0  0  0  0  0  0  0  0  0  0  0  0
    8.5668  -13.5280   27.9025 C   0  0  0  0  0  0  0  0  0  0  0  0
    8.6290  -14.3748   26.6498 C   0  0  0  0  0  0  0  0  0  0  0  0
    9.8741  -15.2361   26.6357 C   0  0  2  0  0  0  0  0  0  0  0  0
    9.9495  -16.0482   25.4407 N   0  0  0  0  0  0  0  0  0  0  0  0
    9.9869  -16.0328   27.8695 C   0  0  0  0  0  0  0  0  0  0  0  0
   10.3060  -15.4508   29.0757 O   0  0  0  0  0  0  0  0  0  0  0  0
    9.7899  -17.2616   27.8250 O   0  0  0  0  0  0  0  0  0  0  0  0
  2  1  1  1
  3  2  1  0
  4  3  1  0
  5  4  1  0
  6  5  1  0
  7  6  1  0
  8  2  1  0
  8 10  1  0
  9  8  2  0
 11 10  1  0
 11 12  1  0
 12 13  2  0
 15 14  1  0
 16 15  1  0
 17 16  1  0
 18 17  1  1
 19 12  1  0
 19 18  1  0
 20 21  1  0
 20 18  1  0
 22 20  2  0
M  END
$$$$
