TVA.pdb
     RDKit          3D

 20 19  0  0  1  0  0  0  0  0999 V2000
   18.5836  -10.4923  -13.8898 C   0  0  0  0  0  0  0  0  0  0  0  0
   17.3904   -9.6609  -13.4443 C   0  0  1  0  0  0  0  0  0  0  0  0
   17.0379   -8.7452  -14.4348 O   0  0  0  0  0  0  0  0  0  0  0  0
   16.2209  -10.5781  -13.1071 C   0  0  2  0  0  0  0  0  0  0  0  0
   15.8168  -11.2352  -14.3358 N   0  0  0  0  0  0  0  0  0  0  0  0
   15.1387   -9.7400  -12.5469 C   0  0  0  0  0  0  0  0  0  0  0  0
   14.2253   -9.3036  -13.2898 O   0  0  0  0  0  0  0  0  0  0  0  0
   12.1053   -8.6118   -9.0517 C   0  0  0  0  0  0  0  0  0  0  0  0
   13.2323   -9.3836   -9.6573 C   0  0  2  0  0  0  0  0  0  0  0  0
   14.1440  -10.0151   -8.6407 C   0  0  0  0  0  0  0  0  0  0  0  0
   14.0091   -8.5101  -10.6460 C   0  0  2  0  0  0  0  0  0  0  0  0
   15.0647   -9.3847  -11.1716 N   0  0  0  0  0  0  0  0  0  0  0  0
   14.5747   -7.3451   -9.9447 C   0  0  0  0  0  0  0  0  0  0  0  0
   15.7822   -7.3618   -9.6002 O   0  0  0  0  0  0  0  0  0  0  0  0
   15.1529   -5.4841   -7.6880 C   0  0  0  0  0  0  0  0  0  0  0  0
   14.3751   -5.0532   -8.9125 C   0  0  2  0  0  0  0  0  0  0  0  0
   13.8183   -6.1832   -9.6305 N   0  0  0  0  0  0  0  0  0  0  0  0
   15.2469   -4.2749   -9.8285 C   0  0  0  0  0  0  0  0  0  0  0  0
   15.4972   -4.6297  -11.0136 O   0  0  0  0  0  0  0  0  0  0  0  0
   15.8309   -3.0921   -9.3870 O   0  0  0  0  0  0  0  0  0  0  0  0
  2  1  1  6
  2  4  1  0
  3  2  1  0
  4  5  1  6
  6 12  1  0
  6  4  1  0
  7  6  2  0
  9  8  1  1
  9 11  1  0
 10  9  1  0
 11 12  1  1
 11 13  1  0
 13 17  1  0
 14 13  2  0
 16 18  1  0
 16 15  1  1
 17 16  1  0
 18 20  1  0
 19 18  2  0
M  END
$$$$
