TVA.pdb
     RDKit          3D

 20 19  0  0  1  0  0  0  0  0999 V2000
   20.7753   -9.1946  -19.5918 C   0  0  0  0  0  0  0  0  0  0  0  0
   20.0213  -10.5141  -19.5300 C   0  0  1  0  0  0  0  0  0  0  0  0
   19.9458  -11.0917  -20.7967 O   0  0  0  0  0  0  0  0  0  0  0  0
   20.7049  -11.4519  -18.5420 C   0  0  2  0  0  0  0  0  0  0  0  0
   19.9890  -12.7133  -18.5749 N   0  0  0  0  0  0  0  0  0  0  0  0
   20.6472  -10.8184  -17.2067 C   0  0  0  0  0  0  0  0  0  0  0  0
   19.5487  -10.6912  -16.6120 O   0  0  0  0  0  0  0  0  0  0  0  0
   22.4949  -11.8850  -14.2787 C   0  0  0  0  0  0  0  0  0  0  0  0
   22.7924  -10.4238  -14.3732 C   0  0  2  0  0  0  0  0  0  0  0  0
   22.9927   -9.7627  -13.0367 C   0  0  0  0  0  0  0  0  0  0  0  0
   21.7187   -9.7111  -15.1998 C   0  0  2  0  0  0  0  0  0  0  0  0
   21.7979  -10.3270  -16.5301 N   0  0  0  0  0  0  0  0  0  0  0  0
   22.0087   -8.2683  -15.2564 C   0  0  0  0  0  0  0  0  0  0  0  0
   23.1294   -7.8824  -15.6712 O   0  0  0  0  0  0  0  0  0  0  0  0
   20.1438   -5.0024  -15.0274 C   0  0  0  0  0  0  0  0  0  0  0  0
   21.3854   -5.8545  -14.8782 C   0  0  2  0  0  0  0  0  0  0  0  0
   21.0759   -7.2710  -14.8613 N   0  0  0  0  0  0  0  0  0  0  0  0
   22.1075   -5.4980  -13.6307 C   0  0  0  0  0  0  0  0  0  0  0  0
   21.9339   -6.0993  -12.5347 O   0  0  0  0  0  0  0  0  0  0  0  0
   23.0271   -4.4542  -13.6394 O   0  0  0  0  0  0  0  0  0  0  0  0
  2  1  1  6
  2  4  1  0
  3  2  1  0
  4  5  1  1
  6 12  1  0
  6  4  1  0
  7  6  2  0
  9  8  1  1
  9 11  1  0
 10  9  1  0
 11 12  1  6
 11 13  1  0
 13 17  1  0
 14 13  2  0
 16 18  1  0
 16 15  1  1
 17 16  1  0
 18 20  1  0
 19 18  2  0
M  END
$$$$
