TVA.pdb
     RDKit          3D

 20 19  0  0  1  0  0  0  0  0999 V2000
   17.7842   -8.2055  -17.8253 C   0  0  0  0  0  0  0  0  0  0  0  0
   16.8173   -9.1566  -17.1369 C   0  0  1  0  0  0  0  0  0  0  0  0
   15.8472   -9.5994  -18.0350 O   0  0  0  0  0  0  0  0  0  0  0  0
   17.5861  -10.3299  -16.5409 C   0  0  2  0  0  0  0  0  0  0  0  0
   16.6149  -11.2239  -15.9391 N   0  0  0  0  0  0  0  0  0  0  0  0
   18.5314   -9.7872  -15.5413 C   0  0  0  0  0  0  0  0  0  0  0  0
   18.1139   -9.3789  -14.4297 O   0  0  0  0  0  0  0  0  0  0  0  0
   21.6957  -11.4987  -14.5517 C   0  0  0  0  0  0  0  0  0  0  0  0
   22.0818  -10.0819  -14.8278 C   0  0  2  0  0  0  0  0  0  0  0  0
   23.1989   -9.5812  -13.9533 C   0  0  0  0  0  0  0  0  0  0  0  0
   20.8552   -9.1686  -14.7541 C   0  0  2  0  0  0  0  0  0  0  0  0
   19.9328   -9.6954  -15.7675 N   0  0  0  0  0  0  0  0  0  0  0  0
   21.2478   -7.7810  -15.0529 C   0  0  0  0  0  0  0  0  0  0  0  0
   21.9663   -7.5480  -16.0562 O   0  0  0  0  0  0  0  0  0  0  0  0
   20.1522   -4.3155  -14.2452 C   0  0  0  0  0  0  0  0  0  0  0  0
   21.2509   -5.3094  -14.5533 C   0  0  2  0  0  0  0  0  0  0  0  0
   20.8528   -6.6717  -14.2564 N   0  0  0  0  0  0  0  0  0  0  0  0
   22.4751   -4.9795  -13.7805 C   0  0  0  0  0  0  0  0  0  0  0  0
   22.7421   -5.4881  -12.6567 O   0  0  0  0  0  0  0  0  0  0  0  0
   23.3917   -4.0682  -14.2949 O   0  0  0  0  0  0  0  0  0  0  0  0
  2  1  1  6
  2  4  1  0
  3  2  1  0
  4  5  1  1
  6 12  1  0
  6  4  1  0
  7  6  2  0
  9  8  1  1
  9 11  1  0
 10  9  1  0
 11 12  1  6
 11 13  1  0
 13 17  1  0
 14 13  2  0
 16 18  1  0
 16 15  1  1
 17 16  1  0
 18 20  1  0
 19 18  2  0
M  END
$$$$
