TVA.pdb
     RDKit          3D

 20 19  0  0  1  0  0  0  0  0999 V2000
   11.0731  -13.1386   -9.6172 C   0  0  0  0  0  0  0  0  0  0  0  0
   11.5999  -14.2364  -10.5286 C   0  0  1  0  0  0  0  0  0  0  0  0
   10.6603  -15.2589  -10.6529 O   0  0  0  0  0  0  0  0  0  0  0  0
   11.9523  -13.6499  -11.8905 C   0  0  2  0  0  0  0  0  0  0  0  0
   12.2863  -14.7573  -12.7663 N   0  0  0  0  0  0  0  0  0  0  0  0
   13.0951  -12.7301  -11.7022 C   0  0  0  0  0  0  0  0  0  0  0  0
   13.0235  -11.7913  -10.8715 O   0  0  0  0  0  0  0  0  0  0  0  0
   16.7971  -13.5543  -13.4552 C   0  0  0  0  0  0  0  0  0  0  0  0
   16.6774  -12.6803  -12.2491 C   0  0  2  0  0  0  0  0  0  0  0  0
   16.7931  -13.4291  -10.9494 C   0  0  0  0  0  0  0  0  0  0  0  0
   15.3895  -11.8548  -12.3118 C   0  0  2  0  0  0  0  0  0  0  0  0
   14.3129  -12.8460  -12.4282 N   0  0  0  0  0  0  0  0  0  0  0  0
   15.4267  -10.9605  -13.4813 C   0  0  0  0  0  0  0  0  0  0  0  0
   15.2855  -11.4458  -14.6309 O   0  0  0  0  0  0  0  0  0  0  0  0
   15.1162   -7.2928  -14.2015 C   0  0  0  0  0  0  0  0  0  0  0  0
   15.6244   -8.6785  -14.5356 C   0  0  2  0  0  0  0  0  0  0  0  0
   15.6167   -9.5552  -13.3807 N   0  0  0  0  0  0  0  0  0  0  0  0
   17.0031   -8.6033  -15.0818 C   0  0  0  0  0  0  0  0  0  0  0  0
   17.2594   -8.2584  -16.2685 O   0  0  0  0  0  0  0  0  0  0  0  0
   18.0861   -8.9227  -14.2693 O   0  0  0  0  0  0  0  0  0  0  0  0
  2  1  1  1
  2  4  1  0
  3  2  1  0
  4  5  1  6
  6 12  1  0
  6  4  1  0
  7  6  2  0
  9  8  1  6
  9 11  1  0
 10  9  1  0
 11 12  1  6
 11 13  1  0
 13 17  1  0
 14 13  2  0
 16 18  1  0
 16 15  1  1
 17 16  1  0
 18 20  1  0
 19 18  2  0
M  END
$$$$
