TVA.pdb
     RDKit          3D

 20 19  0  0  1  0  0  0  0  0999 V2000
   15.7534  -10.6902   -9.6459 C   0  0  0  0  0  0  0  0  0  0  0  0
   14.2596  -10.6488   -9.9289 C   0  0  1  0  0  0  0  0  0  0  0  0
   13.6632  -11.8585   -9.5757 O   0  0  0  0  0  0  0  0  0  0  0  0
   13.6248   -9.4863   -9.1748 C   0  0  2  0  0  0  0  0  0  0  0  0
   12.1950   -9.5430   -9.4144 N   0  0  0  0  0  0  0  0  0  0  0  0
   14.2223   -8.2355   -9.6906 C   0  0  0  0  0  0  0  0  0  0  0  0
   13.9525   -7.8345  -10.8494 O   0  0  0  0  0  0  0  0  0  0  0  0
   14.0322   -4.8536   -8.2664 C   0  0  0  0  0  0  0  0  0  0  0  0
   15.4917   -5.1425   -8.4056 C   0  0  2  0  0  0  0  0  0  0  0  0
   16.3267   -3.9161   -8.6553 C   0  0  0  0  0  0  0  0  0  0  0  0
   15.7261   -6.2120   -9.4756 C   0  0  2  0  0  0  0  0  0  0  0  0
   15.1147   -7.4301   -8.9300 N   0  0  0  0  0  0  0  0  0  0  0  0
   17.1714   -6.3877   -9.6969 C   0  0  0  0  0  0  0  0  0  0  0  0
   17.8821   -6.8565   -8.7737 O   0  0  0  0  0  0  0  0  0  0  0  0
   19.3680   -7.8993  -11.3926 C   0  0  0  0  0  0  0  0  0  0  0  0
   19.1948   -6.4082  -11.2015 C   0  0  2  0  0  0  0  0  0  0  0  0
   17.8186   -6.0511  -10.9171 N   0  0  0  0  0  0  0  0  0  0  0  0
   19.6480   -5.6780  -12.4124 C   0  0  0  0  0  0  0  0  0  0  0  0
   18.8561   -5.1142  -13.2174 O   0  0  0  0  0  0  0  0  0  0  0  0
   21.0064   -5.5942  -12.7002 O   0  0  0  0  0  0  0  0  0  0  0  0
  2  1  1  1
  2  4  1  0
  3  2  1  0
  4  5  1  6
  6 12  1  0
  6  4  1  0
  7  6  2  0
  9  8  1  6
  9 11  1  0
 10  9  1  0
 11 12  1  1
 11 13  1  0
 13 17  1  0
 14 13  2  0
 16 18  1  0
 16 15  1  6
 17 16  1  0
 18 20  1  0
 19 18  2  0
M  END
$$$$
