TVA.pdb
     RDKit          3D

 20 19  0  0  1  0  0  0  0  0999 V2000
   16.2310  -11.0411  -16.8648 C   0  0  0  0  0  0  0  0  0  0  0  0
   16.4459  -12.3606  -16.1395 C   0  0  1  0  0  0  0  0  0  0  0  0
   15.6439  -13.3573  -16.6937 O   0  0  0  0  0  0  0  0  0  0  0  0
   17.9187  -12.7477  -16.2007 C   0  0  2  0  0  0  0  0  0  0  0  0
   18.0519  -14.0481  -15.5714 N   0  0  0  0  0  0  0  0  0  0  0  0
   18.6878  -11.7063  -15.4857 C   0  0  0  0  0  0  0  0  0  0  0  0
   18.6182  -11.6126  -14.2355 O   0  0  0  0  0  0  0  0  0  0  0  0
   22.3088  -11.0467  -15.6031 C   0  0  0  0  0  0  0  0  0  0  0  0
   21.6653   -9.7438  -15.9512 C   0  0  2  0  0  0  0  0  0  0  0  0
   22.4556   -8.5440  -15.5048 C   0  0  0  0  0  0  0  0  0  0  0  0
   20.2278   -9.6996  -15.4264 C   0  0  2  0  0  0  0  0  0  0  0  0
   19.5309  -10.7715  -16.1480 N   0  0  0  0  0  0  0  0  0  0  0  0
   19.6328   -8.3830  -15.7121 C   0  0  0  0  0  0  0  0  0  0  0  0
   19.5702   -7.9817  -16.9004 O   0  0  0  0  0  0  0  0  0  0  0  0
   17.4679   -5.8471  -13.9917 C   0  0  0  0  0  0  0  0  0  0  0  0
   18.5376   -6.2290  -14.9917 C   0  0  2  0  0  0  0  0  0  0  0  0
   19.1167   -7.5264  -14.7018 N   0  0  0  0  0  0  0  0  0  0  0  0
   19.6146   -5.2070  -15.0090 C   0  0  0  0  0  0  0  0  0  0  0  0
   20.7481   -5.3872  -14.4840 O   0  0  0  0  0  0  0  0  0  0  0  0
   19.3929   -3.9806  -15.6270 O   0  0  0  0  0  0  0  0  0  0  0  0
  2  1  1  6
  2  4  1  0
  3  2  1  0
  4  5  1  1
  6 12  1  0
  6  4  1  0
  7  6  2  0
  9  8  1  1
  9 11  1  0
 10  9  1  0
 11 12  1  6
 11 13  1  0
 13 17  1  0
 14 13  2  0
 16 18  1  0
 16 15  1  1
 17 16  1  0
 18 20  1  0
 19 18  2  0
M  END
$$$$
