TVA.pdb
     RDKit          3D

 20 19  0  0  1  0  0  0  0  0999 V2000
   24.6337  -11.3458  -15.2467 C   0  0  0  0  0  0  0  0  0  0  0  0
   24.0607  -12.3486  -16.2364 C   0  0  1  0  0  0  0  0  0  0  0  0
   24.6069  -13.6130  -16.0202 O   0  0  0  0  0  0  0  0  0  0  0  0
   22.5418  -12.3817  -16.1147 C   0  0  2  0  0  0  0  0  0  0  0  0
   22.0528  -13.3717  -17.0558 N   0  0  0  0  0  0  0  0  0  0  0  0
   22.0359  -11.0270  -16.4250 C   0  0  0  0  0  0  0  0  0  0  0  0
   22.1086  -10.5752  -17.5943 O   0  0  0  0  0  0  0  0  0  0  0  0
   18.7124   -9.7820  -16.2138 C   0  0  0  0  0  0  0  0  0  0  0  0
   19.4912   -8.8322  -15.3628 C   0  0  2  0  0  0  0  0  0  0  0  0
   18.9193   -7.4410  -15.3353 C   0  0  0  0  0  0  0  0  0  0  0  0
   20.9652   -8.8280  -15.7765 C   0  0  2  0  0  0  0  0  0  0  0  0
   21.4518  -10.1737  -15.4482 N   0  0  0  0  0  0  0  0  0  0  0  0
   21.6923   -7.7936  -15.0214 C   0  0  0  0  0  0  0  0  0  0  0  0
   21.8271   -7.9200  -13.7793 O   0  0  0  0  0  0  0  0  0  0  0  0
   23.6198   -4.5984  -15.7787 C   0  0  0  0  0  0  0  0  0  0  0  0
   22.9643   -5.6212  -14.8764 C   0  0  2  0  0  0  0  0  0  0  0  0
   22.2597   -6.6406  -15.6293 N   0  0  0  0  0  0  0  0  0  0  0  0
   22.0147   -4.9560  -13.9488 C   0  0  0  0  0  0  0  0  0  0  0  0
   20.7959   -4.7723  -14.2205 O   0  0  0  0  0  0  0  0  0  0  0  0
   22.4611   -4.5021  -12.7120 O   0  0  0  0  0  0  0  0  0  0  0  0
  2  1  1  1
  2  4  1  0
  3  2  1  0
  4  5  1  6
  6 12  1  0
  6  4  1  0
  7  6  2  0
  9  8  1  6
  9 11  1  0
 10  9  1  0
 11 12  1  1
 11 13  1  0
 13 17  1  0
 14 13  2  0
 16 18  1  0
 16 15  1  6
 17 16  1  0
 18 20  1  0
 19 18  2  0
M  END
$$$$
