TVA.pdb
     RDKit          3D

 20 19  0  0  1  0  0  0  0  0999 V2000
   18.7621   -8.4935  -18.3152 C   0  0  0  0  0  0  0  0  0  0  0  0
   18.1350   -9.8129  -17.8919 C   0  0  1  0  0  0  0  0  0  0  0  0
   17.4286  -10.3788  -18.9524 O   0  0  0  0  0  0  0  0  0  0  0  0
   19.2183  -10.7602  -17.3899 C   0  0  2  0  0  0  0  0  0  0  0  0
   18.5832  -12.0331  -17.1049 N   0  0  0  0  0  0  0  0  0  0  0  0
   19.8169  -10.1578  -16.1790 C   0  0  0  0  0  0  0  0  0  0  0  0
   19.1428  -10.0487  -15.1254 O   0  0  0  0  0  0  0  0  0  0  0  0
   23.9409   -9.5559  -15.9384 C   0  0  0  0  0  0  0  0  0  0  0  0
   23.0780   -9.7657  -14.7366 C   0  0  2  0  0  0  0  0  0  0  0  0
   22.9126  -11.2128  -14.3596 C   0  0  0  0  0  0  0  0  0  0  0  0
   21.7254   -9.0727  -14.9211 C   0  0  2  0  0  0  0  0  0  0  0  0
   21.1550   -9.6776  -16.1311 N   0  0  0  0  0  0  0  0  0  0  0  0
   21.9261   -7.6232  -15.0872 C   0  0  0  0  0  0  0  0  0  0  0  0
   22.0417   -7.1471  -16.2435 O   0  0  0  0  0  0  0  0  0  0  0  0
   23.2722   -4.9843  -15.1839 C   0  0  0  0  0  0  0  0  0  0  0  0
   22.1945   -5.2910  -14.1668 C   0  0  2  0  0  0  0  0  0  0  0  0
   21.9977   -6.7172  -13.9940 N   0  0  0  0  0  0  0  0  0  0  0  0
   20.9100   -4.6670  -14.5737 C   0  0  0  0  0  0  0  0  0  0  0  0
   20.7660   -3.4239  -14.7380 O   0  0  0  0  0  0  0  0  0  0  0  0
   19.7926   -5.4663  -14.7918 O   0  0  0  0  0  0  0  0  0  0  0  0
  2  1  1  6
  2  4  1  0
  3  2  1  0
  4  5  1  1
  6 12  1  0
  6  4  1  0
  7  6  2  0
  9  8  1  6
  9 11  1  0
 10  9  1  0
 11 12  1  6
 11 13  1  0
 13 17  1  0
 14 13  2  0
 16 18  1  0
 16 15  1  6
 17 16  1  0
 18 20  1  0
 19 18  2  0
M  END
$$$$
