TVA.pdb
     RDKit          3D

 20 19  0  0  1  0  0  0  0  0999 V2000
   18.7936   -8.7356  -19.1990 C   0  0  0  0  0  0  0  0  0  0  0  0
   17.9632   -9.9330  -18.7630 C   0  0  1  0  0  0  0  0  0  0  0  0
   17.4058  -10.5687  -19.8716 O   0  0  0  0  0  0  0  0  0  0  0  0
   18.8298  -10.8955  -17.9598 C   0  0  2  0  0  0  0  0  0  0  0  0
   17.9939  -12.0194  -17.5818 N   0  0  0  0  0  0  0  0  0  0  0  0
   19.3395  -10.1643  -16.7796 C   0  0  0  0  0  0  0  0  0  0  0  0
   18.5528   -9.7972  -15.8724 O   0  0  0  0  0  0  0  0  0  0  0  0
   22.0652  -11.3791  -14.6917 C   0  0  0  0  0  0  0  0  0  0  0  0
   22.4363   -9.9583  -14.9684 C   0  0  2  0  0  0  0  0  0  0  0  0
   23.1613   -9.2931  -13.8303 C   0  0  0  0  0  0  0  0  0  0  0  0
   21.2044   -9.1571  -15.3976 C   0  0  2  0  0  0  0  0  0  0  0  0
   20.7128   -9.8391  -16.6011 N   0  0  0  0  0  0  0  0  0  0  0  0
   21.5904   -7.7656  -15.6871 C   0  0  0  0  0  0  0  0  0  0  0  0
   22.3012   -7.5216  -16.6932 O   0  0  0  0  0  0  0  0  0  0  0  0
   20.8861   -4.8892  -16.5500 C   0  0  0  0  0  0  0  0  0  0  0  0
   21.4969   -5.2887  -15.2243 C   0  0  2  0  0  0  0  0  0  0  0  0
   21.1972   -6.6646  -14.8784 N   0  0  0  0  0  0  0  0  0  0  0  0
   21.0086   -4.3963  -14.1427 C   0  0  0  0  0  0  0  0  0  0  0  0
   20.0974   -4.7244  -13.3333 O   0  0  0  0  0  0  0  0  0  0  0  0
   21.5635   -3.1300  -13.9891 O   0  0  0  0  0  0  0  0  0  0  0  0
  2  1  1  6
  2  4  1  0
  3  2  1  0
  4  5  1  1
  6 12  1  0
  6  4  1  0
  7  6  2  0
  9  8  1  1
  9 11  1  0
 10  9  1  0
 11 12  1  6
 11 13  1  0
 13 17  1  0
 14 13  2  0
 16 18  1  0
 16 15  1  6
 17 16  1  0
 18 20  1  0
 19 18  2  0
M  END
$$$$
