TVA.pdb
     RDKit          3D

 20 19  0  0  1  0  0  0  0  0999 V2000
   22.3884  -10.5628  -14.9328 C   0  0  0  0  0  0  0  0  0  0  0  0
   21.8116  -11.3871  -16.0735 C   0  0  1  0  0  0  0  0  0  0  0  0
   22.1335  -12.7341  -15.9124 O   0  0  0  0  0  0  0  0  0  0  0  0
   20.3017  -11.1904  -16.1386 C   0  0  2  0  0  0  0  0  0  0  0  0
   19.8134  -11.9530  -17.2721 N   0  0  0  0  0  0  0  0  0  0  0  0
   20.0428   -9.7426  -16.2938 C   0  0  0  0  0  0  0  0  0  0  0  0
   20.3712   -9.1493  -17.3506 O   0  0  0  0  0  0  0  0  0  0  0  0
   16.9615   -7.9366  -16.4101 C   0  0  0  0  0  0  0  0  0  0  0  0
   17.7033   -7.3117  -15.2734 C   0  0  2  0  0  0  0  0  0  0  0  0
   17.3547   -5.8653  -15.0500 C   0  0  0  0  0  0  0  0  0  0  0  0
   19.2118   -7.5081  -15.4460 C   0  0  2  0  0  0  0  0  0  0  0  0
   19.4236   -8.9521  -15.2863 N   0  0  0  0  0  0  0  0  0  0  0  0
   19.9355   -6.7409  -14.4182 C   0  0  0  0  0  0  0  0  0  0  0  0
   19.9958   -7.1879  -13.2462 O   0  0  0  0  0  0  0  0  0  0  0  0
   22.8223   -5.2531  -13.7046 C   0  0  0  0  0  0  0  0  0  0  0  0
   21.3774   -4.8039  -13.6920 C   0  0  2  0  0  0  0  0  0  0  0  0
   20.5807   -5.5019  -14.6822 N   0  0  0  0  0  0  0  0  0  0  0  0
   21.2906   -3.3422  -13.9383 C   0  0  0  0  0  0  0  0  0  0  0  0
   20.8659   -2.8464  -15.0185 O   0  0  0  0  0  0  0  0  0  0  0  0
   21.6898   -2.4502  -12.9482 O   0  0  0  0  0  0  0  0  0  0  0  0
  2  1  1  1
  2  4  1  0
  3  2  1  0
  4  5  1  6
  6 12  1  0
  6  4  1  0
  7  6  2  0
  9  8  1  6
  9 11  1  0
 10  9  1  0
 11 12  1  1
 11 13  1  0
 13 17  1  0
 14 13  2  0
 16 18  1  0
 16 15  1  6
 17 16  1  0
 18 20  1  0
 19 18  2  0
M  END
$$$$
