WSA.pdb
     RDKit          3D

 26 27  0  0  1  0  0  0  0  0999 V2000
   25.9647  -22.2753   -9.5800 N   0  0  0  0  0  0  0  0  0  0  0  0
   25.8798  -20.8568   -9.9364 C   0  0  1  0  0  0  0  0  0  0  0  0
   26.9050  -20.1475   -9.0925 C   0  0  0  0  0  0  0  0  0  0  0  0
   26.6893  -20.2959   -7.6467 C   0  0  0  0  0  0  0  0  0  0  0  0
   25.5867  -20.8712   -7.0632 C   0  0  0  0  0  0  0  0  0  0  0  0
   25.7228  -20.8434   -5.7038 N   0  0  0  0  0  0  0  0  0  0  0  0
   26.9026  -20.2558   -5.3979 C   0  0  0  0  0  0  0  0  0  0  0  0
   27.4977  -19.9909   -4.1814 C   0  0  0  0  0  0  0  0  0  0  0  0
   28.7270  -19.3698   -4.1369 C   0  0  0  0  0  0  0  0  0  0  0  0
   29.3324  -19.0279   -5.3228 C   0  0  0  0  0  0  0  0  0  0  0  0
   28.7382  -19.2921   -6.5456 C   0  0  0  0  0  0  0  0  0  0  0  0
   27.5011  -19.9169   -6.5985 C   0  0  0  0  0  0  0  0  0  0  0  0
   26.1749  -20.7799  -11.3805 C   0  0  0  0  0  0  0  0  0  0  0  0
   27.3242  -21.1166  -11.7577 O   0  0  0  0  0  0  0  0  0  0  0  0
   23.1714  -20.4608  -14.1595 O   0  0  0  0  0  0  0  0  0  0  0  0
   24.3823  -21.0512  -14.4964 C   0  0  0  0  0  0  0  0  0  0  0  0
   25.5289  -20.3260  -13.7843 C   0  0  2  0  0  0  0  0  0  0  0  0
   25.2515  -20.3542  -12.3574 N   0  0  0  0  0  0  0  0  0  0  0  0
   25.7473  -18.9672  -14.2799 C   0  0  0  0  0  0  0  0  0  0  0  0
   25.0171  -18.0119  -13.8614 O   0  0  0  0  0  0  0  0  0  0  0  0
   28.2640  -16.9935  -16.2737 C   0  0  0  0  0  0  0  0  0  0  0  0
   26.8766  -17.2502  -15.7338 C   0  0  2  0  0  0  0  0  0  0  0  0
   26.7400  -18.6014  -15.2227 N   0  0  0  0  0  0  0  0  0  0  0  0
   25.9296  -17.0758  -16.8511 C   0  0  0  0  0  0  0  0  0  0  0  0
   25.7097  -15.8339  -17.4099 O   0  0  0  0  0  0  0  0  0  0  0  0
   25.3177  -18.0707  -17.2968 O   0  0  0  0  0  0  0  0  0  0  0  0
  2  1  1  1
  2 13  1  0
  3  2  1  0
  3  4  1  0
  4 12  1  0
  5  4  2  0
  5  6  1  0
  6  7  1  0
  7  8  2  0
  8  9  1  0
 10  9  2  0
 11 10  1  0
 12 11  2  0
 12  7  1  0
 13 14  2  0
 16 15  1  0
 17 16  1  6
 17 19  1  0
 18 17  1  0
 18 13  1  0
 19 20  2  0
 19 23  1  0
 22 21  1  6
 23 22  1  0
 24 25  1  0
 24 22  1  0
 26 24  2  0
M  END
$$$$
