WSA.pdb
     RDKit          3D

 26 27  0  0  1  0  0  0  0  0999 V2000
   16.4356  -18.6505    3.4987 N   0  0  0  0  0  0  0  0  0  0  0  0
   17.8021  -18.8377    3.9929 C   0  0  1  0  0  0  0  0  0  0  0  0
   18.6457  -17.7977    3.3053 C   0  0  0  0  0  0  0  0  0  0  0  0
   19.1478  -18.2157    1.9892 C   0  0  0  0  0  0  0  0  0  0  0  0
   18.4106  -18.8613    1.0265 C   0  0  0  0  0  0  0  0  0  0  0  0
   19.1935  -19.0924   -0.0694 N   0  0  0  0  0  0  0  0  0  0  0  0
   20.4319  -18.6036    0.1713 C   0  0  0  0  0  0  0  0  0  0  0  0
   21.5704  -18.5880   -0.6084 C   0  0  0  0  0  0  0  0  0  0  0  0
   22.7286  -18.0194   -0.1246 C   0  0  0  0  0  0  0  0  0  0  0  0
   22.7150  -17.4770    1.1385 C   0  0  0  0  0  0  0  0  0  0  0  0
   21.5744  -17.4907    1.9239 C   0  0  0  0  0  0  0  0  0  0  0  0
   20.4048  -18.0611    1.4439 C   0  0  0  0  0  0  0  0  0  0  0  0
   17.7375  -18.6472    5.4550 C   0  0  0  0  0  0  0  0  0  0  0  0
   17.2204  -17.5852    5.8807 O   0  0  0  0  0  0  0  0  0  0  0  0
   18.0174  -21.7257    7.9931 O   0  0  0  0  0  0  0  0  0  0  0  0
   17.5247  -20.5315    8.5026 C   0  0  0  0  0  0  0  0  0  0  0  0
   18.2352  -19.3500    7.8341 C   0  0  2  0  0  0  0  0  0  0  0  0
   18.2180  -19.5785    6.3985 N   0  0  0  0  0  0  0  0  0  0  0  0
   19.5880  -19.1277    8.3441 C   0  0  0  0  0  0  0  0  0  0  0  0
   20.5793  -19.7057    7.7925 O   0  0  0  0  0  0  0  0  0  0  0  0
   21.3317  -17.1853   11.1055 C   0  0  0  0  0  0  0  0  0  0  0  0
   21.2411  -18.2278   10.0158 C   0  0  2  0  0  0  0  0  0  0  0  0
   19.9098  -18.2917    9.4420 N   0  0  0  0  0  0  0  0  0  0  0  0
   21.5486  -19.5337   10.6285 C   0  0  0  0  0  0  0  0  0  0  0  0
   22.8527  -19.9473   10.8051 O   0  0  0  0  0  0  0  0  0  0  0  0
   20.6107  -20.2758   10.9926 O   0  0  0  0  0  0  0  0  0  0  0  0
  2  1  1  6
  2 13  1  0
  3  2  1  0
  3  4  1  0
  4 12  1  0
  5  4  2  0
  5  6  1  0
  6  7  1  0
  7  8  2  0
  8  9  1  0
 10  9  2  0
 11 10  1  0
 12 11  2  0
 12  7  1  0
 13 14  2  0
 16 15  1  0
 17 16  1  1
 17 19  1  0
 18 17  1  0
 18 13  1  0
 19 20  2  0
 19 23  1  0
 22 21  1  1
 23 22  1  0
 24 25  1  0
 24 22  1  0
 26 24  2  0
M  END
$$$$
