WSA.pdb
     RDKit          3D

 26 27  0  0  1  0  0  0  0  0999 V2000
   16.7934   -8.5656  -11.1047 N   0  0  0  0  0  0  0  0  0  0  0  0
   16.0577   -7.3106  -10.9310 C   0  0  1  0  0  0  0  0  0  0  0  0
   16.0522   -7.0257   -9.4529 C   0  0  0  0  0  0  0  0  0  0  0  0
   14.9709   -7.7010   -8.7221 C   0  0  0  0  0  0  0  0  0  0  0  0
   14.9487   -9.0337   -8.3900 C   0  0  0  0  0  0  0  0  0  0  0  0
   13.7965   -9.3159   -7.7116 N   0  0  0  0  0  0  0  0  0  0  0  0
   13.0698   -8.1802   -7.5997 C   0  0  0  0  0  0  0  0  0  0  0  0
   11.8458   -7.9387   -7.0098 C   0  0  0  0  0  0  0  0  0  0  0  0
   11.3095   -6.6695   -7.0314 C   0  0  0  0  0  0  0  0  0  0  0  0
   12.0201   -5.6676   -7.6487 C   0  0  0  0  0  0  0  0  0  0  0  0
   13.2487   -5.9062   -8.2417 C   0  0  0  0  0  0  0  0  0  0  0  0
   13.7951   -7.1809   -8.2240 C   0  0  0  0  0  0  0  0  0  0  0  0
   16.7946   -6.2942  -11.7071 C   0  0  0  0  0  0  0  0  0  0  0  0
   18.0490   -6.3460  -11.6893 O   0  0  0  0  0  0  0  0  0  0  0  0
   17.8090   -3.9128  -15.4153 O   0  0  0  0  0  0  0  0  0  0  0  0
   17.1164   -4.8352  -14.6421 C   0  0  0  0  0  0  0  0  0  0  0  0
   16.9095   -4.2772  -13.2302 C   0  0  2  0  0  0  0  0  0  0  0  0
   16.1810   -5.2743  -12.4630 N   0  0  0  0  0  0  0  0  0  0  0  0
   16.2457   -2.9738  -13.2173 C   0  0  0  0  0  0  0  0  0  0  0  0
   14.9778   -2.9042  -13.3090 O   0  0  0  0  0  0  0  0  0  0  0  0
   17.0844    0.6800  -12.6806 C   0  0  0  0  0  0  0  0  0  0  0  0
   16.2170   -0.4571  -13.1676 C   0  0  2  0  0  0  0  0  0  0  0  0
   16.9132   -1.7287  -13.1065 N   0  0  0  0  0  0  0  0  0  0  0  0
   15.8751   -0.1791  -14.5752 C   0  0  0  0  0  0  0  0  0  0  0  0
   15.0945    0.9057  -14.9168 O   0  0  0  0  0  0  0  0  0  0  0  0
   16.3007   -0.9404  -15.4710 O   0  0  0  0  0  0  0  0  0  0  0  0
  2  1  1  1
  2 13  1  0
  3  2  1  0
  3  4  1  0
  4 12  1  0
  5  4  2  0
  5  6  1  0
  6  7  1  0
  7  8  2  0
  8  9  1  0
 10  9  2  0
 11 10  1  0
 12 11  2  0
 12  7  1  0
 13 14  2  0
 16 15  1  0
 17 16  1  6
 17 19  1  0
 18 17  1  0
 18 13  1  0
 19 20  2  0
 19 23  1  0
 22 21  1  6
 23 22  1  0
 24 25  1  0
 24 22  1  0
 26 24  2  0
M  END
$$$$
