WSA.pdb
     RDKit          3D

 26 27  0  0  1  0  0  0  0  0999 V2000
   23.0119  -33.8230  -12.3336 N   0  0  0  0  0  0  0  0  0  0  0  0
   23.3084  -32.9229  -11.2163 C   0  0  1  0  0  0  0  0  0  0  0  0
   21.9812  -32.5464  -10.6139 C   0  0  0  0  0  0  0  0  0  0  0  0
   21.2432  -31.5377  -11.3866 C   0  0  0  0  0  0  0  0  0  0  0  0
   20.3903  -31.8042  -12.4299 C   0  0  0  0  0  0  0  0  0  0  0  0
   19.8774  -30.6325  -12.9110 N   0  0  0  0  0  0  0  0  0  0  0  0
   20.3885  -29.6074  -12.1910 C   0  0  0  0  0  0  0  0  0  0  0  0
   20.1881  -28.2450  -12.2806 C   0  0  0  0  0  0  0  0  0  0  0  0
   20.8395  -27.3947  -11.4136 C   0  0  0  0  0  0  0  0  0  0  0  0
   21.6816  -27.9369  -10.4720 C   0  0  0  0  0  0  0  0  0  0  0  0
   21.8852  -29.3037  -10.3791 C   0  0  0  0  0  0  0  0  0  0  0  0
   21.2331  -30.1659  -11.2480 C   0  0  0  0  0  0  0  0  0  0  0  0
   24.1611  -33.6908  -10.2881 C   0  0  0  0  0  0  0  0  0  0  0  0
   23.8135  -34.8665  -10.0171 O   0  0  0  0  0  0  0  0  0  0  0  0
   27.6105  -32.0439   -8.6145 O   0  0  0  0  0  0  0  0  0  0  0  0
   27.6113  -33.3985   -8.9203 C   0  0  0  0  0  0  0  0  0  0  0  0
   26.1901  -33.9582   -8.8003 C   0  0  2  0  0  0  0  0  0  0  0  0
   25.3353  -33.1891   -9.6899 N   0  0  0  0  0  0  0  0  0  0  0  0
   25.6902  -33.9717   -7.4257 C   0  0  0  0  0  0  0  0  0  0  0  0
   25.1061  -32.9451   -6.9505 O   0  0  0  0  0  0  0  0  0  0  0  0
   25.4885  -36.3467   -4.4670 C   0  0  0  0  0  0  0  0  0  0  0  0
   25.3680  -35.0064   -5.1535 C   0  0  2  0  0  0  0  0  0  0  0  0
   25.8007  -35.0700   -6.5371 N   0  0  0  0  0  0  0  0  0  0  0  0
   26.2431  -34.0622   -4.4336 C   0  0  0  0  0  0  0  0  0  0  0  0
   25.9343  -33.6373   -3.1580 O   0  0  0  0  0  0  0  0  0  0  0  0
   27.2804  -33.6417   -4.9905 O   0  0  0  0  0  0  0  0  0  0  0  0
  2  1  1  6
  2 13  1  0
  3  2  1  0
  3  4  1  0
  4 12  1  0
  5  4  2  0
  5  6  1  0
  6  7  1  0
  7  8  2  0
  8  9  1  0
 10  9  2  0
 11 10  1  0
 12 11  2  0
 12  7  1  0
 13 14  2  0
 16 15  1  0
 17 16  1  1
 17 19  1  0
 18 17  1  0
 18 13  1  0
 19 20  2  0
 19 23  1  0
 22 21  1  1
 23 22  1  0
 24 25  1  0
 24 22  1  0
 26 24  2  0
M  END
$$$$
