WSA.pdb
     RDKit          3D

 26 27  0  0  1  0  0  0  0  0999 V2000
   25.5849  -18.5404  -17.4108 N   0  0  0  0  0  0  0  0  0  0  0  0
   25.4431  -18.1945  -15.9942 C   0  0  1  0  0  0  0  0  0  0  0  0
   24.4230  -17.0894  -15.9296 C   0  0  0  0  0  0  0  0  0  0  0  0
   24.9042  -15.8056  -16.4581 C   0  0  0  0  0  0  0  0  0  0  0  0
   24.3970  -15.1600  -17.5594 C   0  0  0  0  0  0  0  0  0  0  0  0
   25.0796  -13.9932  -17.7592 N   0  0  0  0  0  0  0  0  0  0  0  0
   26.0253  -13.8740  -16.7990 C   0  0  0  0  0  0  0  0  0  0  0  0
   26.9629  -12.8892  -16.5640 C   0  0  0  0  0  0  0  0  0  0  0  0
   27.8300  -13.0040  -15.4992 C   0  0  0  0  0  0  0  0  0  0  0  0
   27.7337  -14.1122  -14.6915 C   0  0  0  0  0  0  0  0  0  0  0  0
   26.7940  -15.1026  -14.9242 C   0  0  0  0  0  0  0  0  0  0  0  0
   25.9177  -14.9941  -15.9939 C   0  0  0  0  0  0  0  0  0  0  0  0
   24.9960  -19.4266  -15.3155 C   0  0  0  0  0  0  0  0  0  0  0  0
   24.1773  -20.1601  -15.9223 O   0  0  0  0  0  0  0  0  0  0  0  0
   26.3214  -19.9440  -11.6717 O   0  0  0  0  0  0  0  0  0  0  0  0
   25.6651  -21.1197  -12.0117 C   0  0  0  0  0  0  0  0  0  0  0  0
   24.8089  -20.8928  -13.2620 C   0  0  2  0  0  0  0  0  0  0  0  0
   25.4285  -19.8288  -14.0351 N   0  0  0  0  0  0  0  0  0  0  0  0
   23.4063  -20.6117  -12.9567 C   0  0  0  0  0  0  0  0  0  0  0  0
   23.0636  -19.4571  -12.5439 O   0  0  0  0  0  0  0  0  0  0  0  0
   20.3715  -20.2269  -13.6851 C   0  0  0  0  0  0  0  0  0  0  0  0
   20.9768  -21.2320  -12.7333 C   0  0  2  0  0  0  0  0  0  0  0  0
   22.3491  -21.5466  -13.0847 N   0  0  0  0  0  0  0  0  0  0  0  0
   20.1757  -22.4668  -12.8283 C   0  0  0  0  0  0  0  0  0  0  0  0
   18.8585  -22.4935  -12.4195 O   0  0  0  0  0  0  0  0  0  0  0  0
   20.7013  -23.5044  -13.2866 O   0  0  0  0  0  0  0  0  0  0  0  0
  2  1  1  6
  2 13  1  0
  3  2  1  0
  3  4  1  0
  4 12  1  0
  5  4  2  0
  5  6  1  0
  6  7  1  0
  7  8  2  0
  8  9  1  0
 10  9  2  0
 11 10  1  0
 12 11  2  0
 12  7  1  0
 13 14  2  0
 16 15  1  0
 17 16  1  1
 17 19  1  0
 18 17  1  0
 18 13  1  0
 19 20  2  0
 19 23  1  0
 22 21  1  6
 23 22  1  0
 24 25  1  0
 24 22  1  0
 26 24  2  0
M  END
$$$$
