WSA.pdb
     RDKit          3D

 26 27  0  0  1  0  0  0  0  0999 V2000
   24.2956  -20.2647  -11.3766 N   0  0  0  0  0  0  0  0  0  0  0  0
   25.7348  -20.4293  -11.5962 C   0  0  1  0  0  0  0  0  0  0  0  0
   26.1949  -21.4730  -10.6138 C   0  0  0  0  0  0  0  0  0  0  0  0
   26.2846  -20.9872   -9.2299 C   0  0  0  0  0  0  0  0  0  0  0  0
   25.2142  -20.7031   -8.4172 C   0  0  0  0  0  0  0  0  0  0  0  0
   25.6657  -20.2795   -7.1990 N   0  0  0  0  0  0  0  0  0  0  0  0
   27.0186  -20.2854   -7.2119 C   0  0  0  0  0  0  0  0  0  0  0  0
   27.9383  -19.9475   -6.2401 C   0  0  0  0  0  0  0  0  0  0  0  0
   29.2871  -20.0410   -6.5063 C   0  0  0  0  0  0  0  0  0  0  0  0
   29.6817  -20.4744   -7.7498 C   0  0  0  0  0  0  0  0  0  0  0  0
   28.7616  -20.8144   -8.7276 C   0  0  0  0  0  0  0  0  0  0  0  0
   27.4024  -20.7229   -8.4671 C   0  0  0  0  0  0  0  0  0  0  0  0
   25.8875  -20.8579  -13.0002 C   0  0  0  0  0  0  0  0  0  0  0  0
   25.0710  -21.7033  -13.4420 O   0  0  0  0  0  0  0  0  0  0  0  0
   28.8234  -19.2146  -15.4762 O   0  0  0  0  0  0  0  0  0  0  0  0
   27.5625  -19.4682  -15.9998 C   0  0  0  0  0  0  0  0  0  0  0  0
   26.9411  -20.6776  -15.2934 C   0  0  2  0  0  0  0  0  0  0  0  0
   26.8879  -20.3799  -13.8714 N   0  0  0  0  0  0  0  0  0  0  0  0
   27.6427  -21.9306  -15.5717 C   0  0  0  0  0  0  0  0  0  0  0  0
   28.6675  -22.2518  -14.8880 O   0  0  0  0  0  0  0  0  0  0  0  0
   27.3486  -24.9518  -17.8507 C   0  0  0  0  0  0  0  0  0  0  0  0
   28.0726  -24.0217  -16.9056 C   0  0  2  0  0  0  0  0  0  0  0  0
   27.2695  -22.8594  -16.5748 N   0  0  0  0  0  0  0  0  0  0  0  0
   29.2969  -23.5642  -17.5891 C   0  0  0  0  0  0  0  0  0  0  0  0
   30.4517  -24.3182  -17.5607 O   0  0  0  0  0  0  0  0  0  0  0  0
   29.2853  -22.4753  -18.2033 O   0  0  0  0  0  0  0  0  0  0  0  0
  2  1  1  1
  2 13  1  0
  3  2  1  0
  3  4  1  0
  4 12  1  0
  5  4  2  0
  5  6  1  0
  6  7  1  0
  7  8  2  0
  8  9  1  0
 10  9  2  0
 11 10  1  0
 12 11  2  0
 12  7  1  0
 13 14  2  0
 16 15  1  0
 17 16  1  6
 17 19  1  0
 18 17  1  0
 18 13  1  0
 19 20  2  0
 19 23  1  0
 22 21  1  6
 23 22  1  0
 24 25  1  0
 24 22  1  0
 26 24  2  0
M  END
$$$$
