WSA.pdb
     RDKit          3D

 26 27  0  0  1  0  0  0  0  0999 V2000
   27.5049  -25.1126  -17.3821 N   0  0  0  0  0  0  0  0  0  0  0  0
   27.5461  -26.5460  -17.6824 C   0  0  1  0  0  0  0  0  0  0  0  0
   28.4564  -27.1662  -16.6564 C   0  0  0  0  0  0  0  0  0  0  0  0
   29.8759  -27.1518  -17.0360 C   0  0  0  0  0  0  0  0  0  0  0  0
   30.6981  -26.0522  -16.9932 C   0  0  0  0  0  0  0  0  0  0  0  0
   31.9511  -26.4026  -17.4112 N   0  0  0  0  0  0  0  0  0  0  0  0
   31.9513  -27.7187  -17.7252 C   0  0  0  0  0  0  0  0  0  0  0  0
   32.9563  -28.5419  -18.1904 C   0  0  0  0  0  0  0  0  0  0  0  0
   32.6970  -29.8723  -18.4391 C   0  0  0  0  0  0  0  0  0  0  0  0
   31.4265  -30.3462  -18.2130 C   0  0  0  0  0  0  0  0  0  0  0  0
   30.4154  -29.5230  -17.7462 C   0  0  0  0  0  0  0  0  0  0  0  0
   30.6687  -28.1830  -17.4935 C   0  0  0  0  0  0  0  0  0  0  0  0
   26.1543  -27.0256  -17.5774 C   0  0  0  0  0  0  0  0  0  0  0  0
   25.4322  -26.5228  -16.6816 O   0  0  0  0  0  0  0  0  0  0  0  0
   24.6993  -30.1503  -19.9437 O   0  0  0  0  0  0  0  0  0  0  0  0
   23.8405  -29.0927  -19.6747 C   0  0  0  0  0  0  0  0  0  0  0  0
   24.2075  -28.4555  -18.3305 C   0  0  2  0  0  0  0  0  0  0  0  0
   25.5882  -28.0081  -18.4155 N   0  0  0  0  0  0  0  0  0  0  0  0
   23.9818  -29.3441  -17.1908 C   0  0  0  0  0  0  0  0  0  0  0  0
   24.9643  -29.9436  -16.6465 O   0  0  0  0  0  0  0  0  0  0  0  0
   21.1853  -30.2266  -14.7983 C   0  0  0  0  0  0  0  0  0  0  0  0
   22.5538  -30.4088  -15.4119 C   0  0  2  0  0  0  0  0  0  0  0  0
   22.7158  -29.6093  -16.6119 N   0  0  0  0  0  0  0  0  0  0  0  0
   22.6871  -31.8316  -15.7772 C   0  0  0  0  0  0  0  0  0  0  0  0
   23.1850  -32.7529  -14.8794 O   0  0  0  0  0  0  0  0  0  0  0  0
   22.3429  -32.2058  -16.9194 O   0  0  0  0  0  0  0  0  0  0  0  0
  2  1  1  1
  2 13  1  0
  3  2  1  0
  3  4  1  0
  4 12  1  0
  5  4  2  0
  5  6  1  0
  6  7  1  0
  7  8  2  0
  8  9  1  0
 10  9  2  0
 11 10  1  0
 12 11  2  0
 12  7  1  0
 13 14  2  0
 16 15  1  0
 17 16  1  6
 17 19  1  0
 18 17  1  0
 18 13  1  0
 19 20  2  0
 19 23  1  0
 22 21  1  6
 23 22  1  0
 24 25  1  0
 24 22  1  0
 26 24  2  0
M  END
$$$$
