WSA.pdb
     RDKit          3D

 26 27  0  0  1  0  0  0  0  0999 V2000
   24.1237  -19.6819  -11.9464 N   0  0  0  0  0  0  0  0  0  0  0  0
   25.5563  -19.9110  -12.1511 C   0  0  1  0  0  0  0  0  0  0  0  0
   25.8719  -21.2264  -11.4907 C   0  0  0  0  0  0  0  0  0  0  0  0
   26.1456  -21.1175  -10.0511 C   0  0  0  0  0  0  0  0  0  0  0  0
   25.1947  -21.1176   -9.0599 C   0  0  0  0  0  0  0  0  0  0  0  0
   25.8045  -21.0047   -7.8422 N   0  0  0  0  0  0  0  0  0  0  0  0
   27.1421  -20.9311   -8.0322 C   0  0  0  0  0  0  0  0  0  0  0  0
   28.1824  -20.8097   -7.1337 C   0  0  0  0  0  0  0  0  0  0  0  0
   29.4820  -20.7542   -7.5885 C   0  0  0  0  0  0  0  0  0  0  0  0
   29.7064  -20.8224   -8.9431 C   0  0  0  0  0  0  0  0  0  0  0  0
   28.6649  -20.9443   -9.8477 C   0  0  0  0  0  0  0  0  0  0  0  0
   27.3542  -21.0009   -9.3977 C   0  0  0  0  0  0  0  0  0  0  0  0
   25.7607  -19.9405  -13.6125 C   0  0  0  0  0  0  0  0  0  0  0  0
   24.8390  -20.4181  -14.3189 O   0  0  0  0  0  0  0  0  0  0  0  0
   29.2889  -18.5079  -15.4761 O   0  0  0  0  0  0  0  0  0  0  0  0
   28.0834  -17.8286  -15.5932 C   0  0  0  0  0  0  0  0  0  0  0  0
   26.9210  -18.8265  -15.5655 C   0  0  2  0  0  0  0  0  0  0  0  0
   26.9203  -19.4686  -14.2612 N   0  0  0  0  0  0  0  0  0  0  0  0
   26.9671  -19.7953  -16.6604 C   0  0  0  0  0  0  0  0  0  0  0  0
   27.4960  -20.9388  -16.4769 O   0  0  0  0  0  0  0  0  0  0  0  0
   25.7300  -20.1489  -20.2313 C   0  0  0  0  0  0  0  0  0  0  0  0
   26.5386  -20.5556  -19.0217 C   0  0  2  0  0  0  0  0  0  0  0  0
   26.4543  -19.5682  -17.9618 N   0  0  0  0  0  0  0  0  0  0  0  0
   27.9463  -20.6635  -19.4485 C   0  0  0  0  0  0  0  0  0  0  0  0
   28.4382  -21.8334  -19.9890 O   0  0  0  0  0  0  0  0  0  0  0  0
   28.7037  -19.6775  -19.3171 O   0  0  0  0  0  0  0  0  0  0  0  0
  2  1  1  6
  2 13  1  0
  3  2  1  0
  3  4  1  0
  4 12  1  0
  5  4  2  0
  5  6  1  0
  6  7  1  0
  7  8  2  0
  8  9  1  0
 10  9  2  0
 11 10  1  0
 12 11  2  0
 12  7  1  0
 13 14  2  0
 16 15  1  0
 17 16  1  1
 17 19  1  0
 18 17  1  0
 18 13  1  0
 19 20  2  0
 19 23  1  0
 22 21  1  6
 23 22  1  0
 24 25  1  0
 24 22  1  0
 26 24  2  0
M  END
$$$$
