SEY.pdb
     RDKit          3D

 28 28  0  0  1  0  0  0  0  0999 V2000
   24.1938  -13.8329  -18.4691 O   0  0  0  0  0  0  0  0  0  0  0  0
   23.6773  -12.5598  -18.7056 C   0  0  0  0  0  0  0  0  0  0  0  0
   22.1948  -12.6103  -18.4111 C   0  0  2  0  0  0  0  0  0  0  0  0
   21.5604  -13.3355  -19.4960 N   0  0  0  0  0  0  0  0  0  0  0  0
   21.6107  -11.2509  -18.2840 C   0  0  0  0  0  0  0  0  0  0  0  0
   21.4694  -10.5527  -19.3161 O   0  0  0  0  0  0  0  0  0  0  0  0
   21.2105  -10.7312  -17.0113 N   0  0  0  0  0  0  0  0  0  0  0  0
   20.6917   -9.4335  -16.7775 C   0  0  1  0  0  0  0  0  0  0  0  0
   19.5010   -9.3253  -15.9013 C   0  0  0  0  0  0  0  0  0  0  0  0
   18.9370   -7.9657  -15.6971 C   0  0  0  0  0  0  0  0  0  0  0  0
   17.7768   -8.0534  -14.7628 C   0  0  0  0  0  0  0  0  0  0  0  0
   17.8752   -7.5773  -13.6202 O   0  0  0  0  0  0  0  0  0  0  0  0
   21.7144   -8.3824  -16.4888 C   0  0  0  0  0  0  0  0  0  0  0  0
   22.4785   -8.6000  -15.5178 O   0  0  0  0  0  0  0  0  0  0  0  0
   16.5791   -8.6507  -15.1197 O   0  0  0  0  0  0  0  0  0  0  0  0
   26.9809   -1.3533  -16.3951 O   0  0  0  0  0  0  0  0  0  0  0  0
   26.0857   -2.3445  -16.8021 C   0  0  0  0  0  0  0  0  0  0  0  0
   24.7517   -2.0484  -16.9846 C   0  0  0  0  0  0  0  0  0  0  0  0
   23.8710   -3.0288  -17.3864 C   0  0  0  0  0  0  0  0  0  0  0  0
   24.2689   -4.3497  -17.6269 C   0  0  0  0  0  0  0  0  0  0  0  0
   23.2788   -5.3689  -18.0396 C   0  0  0  0  0  0  0  0  0  0  0  0
   22.8680   -6.1661  -16.8458 C   0  0  2  0  0  0  0  0  0  0  0  0
   21.8691   -7.1873  -17.2194 N   0  0  0  0  0  0  0  0  0  0  0  0
   22.3608   -5.3788  -15.7053 C   0  0  0  0  0  0  0  0  0  0  0  0
   23.0740   -5.0657  -14.7275 O   0  0  0  0  0  0  0  0  0  0  0  0
   25.6054   -4.6329  -17.4405 C   0  0  0  0  0  0  0  0  0  0  0  0
   26.4882   -3.6416  -17.0358 C   0  0  0  0  0  0  0  0  0  0  0  0
   21.0395   -4.9614  -15.7035 O   0  0  0  0  0  0  0  0  0  0  0  0
  2  1  1  0
  2  3  1  0
  3  5  1  0
  3  4  1  6
  5  6  2  0
  7  8  1  0
  7  5  1  0
  8  9  1  1
 10  9  1  0
 11 10  1  0
 11 15  1  0
 12 11  2  0
 13 14  2  0
 13  8  1  0
 16 17  1  0
 17 18  2  0
 17 27  1  0
 18 19  1  0
 19 20  2  0
 20 21  1  0
 22 21  1  6
 22 24  1  0
 22 23  1  0
 23 13  1  0
 24 28  1  0
 25 24  2  0
 26 20  1  0
 27 26  2  0
M  END
$$$$
