SEY.pdb
     RDKit          3D

 28 28  0  0  1  0  0  0  0  0999 V2000
   33.5685  -36.6757   -0.4595 O   0  0  0  0  0  0  0  0  0  0  0  0
   32.3501  -36.2934   -1.0188 C   0  0  0  0  0  0  0  0  0  0  0  0
   31.7359  -37.5225   -1.6507 C   0  0  2  0  0  0  0  0  0  0  0  0
   32.5230  -37.8467   -2.8259 N   0  0  0  0  0  0  0  0  0  0  0  0
   30.3154  -37.3007   -2.0223 C   0  0  0  0  0  0  0  0  0  0  0  0
   30.0455  -36.9182   -3.1858 O   0  0  0  0  0  0  0  0  0  0  0  0
   29.2595  -37.5155   -1.0795 N   0  0  0  0  0  0  0  0  0  0  0  0
   27.8763  -37.3528   -1.3405 C   0  0  1  0  0  0  0  0  0  0  0  0
   26.9657  -38.4251   -0.8730 C   0  0  0  0  0  0  0  0  0  0  0  0
   25.5298  -38.2926   -1.2322 C   0  0  0  0  0  0  0  0  0  0  0  0
   24.7807  -39.4635   -0.6896 C   0  0  0  0  0  0  0  0  0  0  0  0
   24.9151  -40.5760   -1.2246 O   0  0  0  0  0  0  0  0  0  0  0  0
   27.3359  -35.9846   -1.0754 C   0  0  0  0  0  0  0  0  0  0  0  0
   27.4576  -35.5549    0.0970 O   0  0  0  0  0  0  0  0  0  0  0  0
   23.9306  -39.3619    0.3993 O   0  0  0  0  0  0  0  0  0  0  0  0
   22.9512  -28.3587   -1.6952 O   0  0  0  0  0  0  0  0  0  0  0  0
   23.7221  -29.4844   -1.9918 C   0  0  0  0  0  0  0  0  0  0  0  0
   23.2015  -30.5050   -2.7586 C   0  0  0  0  0  0  0  0  0  0  0  0
   23.9649  -31.6143   -3.0496 C   0  0  0  0  0  0  0  0  0  0  0  0
   25.2807  -31.7665   -2.5953 C   0  0  0  0  0  0  0  0  0  0  0  0
   26.0514  -32.9868   -2.9215 C   0  0  0  0  0  0  0  0  0  0  0  0
   26.1712  -33.8337   -1.6976 C   0  0  2  0  0  0  0  0  0  0  0  0
   26.7089  -35.1665   -2.0364 N   0  0  0  0  0  0  0  0  0  0  0  0
   24.9299  -33.9907   -0.9149 C   0  0  0  0  0  0  0  0  0  0  0  0
   24.0841  -34.8788   -1.1568 O   0  0  0  0  0  0  0  0  0  0  0  0
   25.7895  -30.7391   -1.8293 C   0  0  0  0  0  0  0  0  0  0  0  0
   25.0163  -29.6238   -1.5392 C   0  0  0  0  0  0  0  0  0  0  0  0
   24.6770  -33.1243    0.1365 O   0  0  0  0  0  0  0  0  0  0  0  0
  2  1  1  0
  2  3  1  0
  3  5  1  0
  3  4  1  6
  5  6  2  0
  7  8  1  0
  7  5  1  0
  8  9  1  1
 10  9  1  0
 11 10  1  0
 11 15  1  0
 12 11  2  0
 13 14  2  0
 13  8  1  0
 16 17  1  0
 17 18  2  0
 17 27  1  0
 18 19  1  0
 19 20  2  0
 20 21  1  0
 22 21  1  6
 22 24  1  0
 22 23  1  0
 23 13  1  0
 24 28  1  0
 25 24  2  0
 26 20  1  0
 27 26  2  0
M  END
$$$$
