SEY.pdb
     RDKit          3D

 28 28  0  0  1  0  0  0  0  0999 V2000
   40.4154   -3.8458   -1.2688 O   0  0  0  0  0  0  0  0  0  0  0  0
   41.3484   -3.3125   -2.1569 C   0  0  0  0  0  0  0  0  0  0  0  0
   41.7013   -1.9265   -1.6653 C   0  0  2  0  0  0  0  0  0  0  0  0
   42.1685   -2.0560   -0.2977 N   0  0  0  0  0  0  0  0  0  0  0  0
   40.5387   -1.0049   -1.7317 C   0  0  0  0  0  0  0  0  0  0  0  0
   39.8458   -0.8276   -0.7015 O   0  0  0  0  0  0  0  0  0  0  0  0
   40.2011   -0.3224   -2.9442 N   0  0  0  0  0  0  0  0  0  0  0  0
   39.1089    0.5643   -3.1137 C   0  0  1  0  0  0  0  0  0  0  0  0
   39.2735    1.6660   -4.0918 C   0  0  0  0  0  0  0  0  0  0  0  0
   40.4361    2.5708   -3.8970 C   0  0  0  0  0  0  0  0  0  0  0  0
   40.4960    3.5400   -5.0299 C   0  0  0  0  0  0  0  0  0  0  0  0
   41.5707    3.7172   -5.6262 O   0  0  0  0  0  0  0  0  0  0  0  0
   37.7677   -0.0891   -3.2052 C   0  0  0  0  0  0  0  0  0  0  0  0
   37.6744   -1.0622   -3.9916 O   0  0  0  0  0  0  0  0  0  0  0  0
   39.3901    4.2601   -5.4508 O   0  0  0  0  0  0  0  0  0  0  0  0
   29.0822    0.2783   -1.8142 O   0  0  0  0  0  0  0  0  0  0  0  0
   30.4546    0.0626   -1.6748 C   0  0  0  0  0  0  0  0  0  0  0  0
   31.3000    1.1111   -1.3809 C   0  0  0  0  0  0  0  0  0  0  0  0
   32.6537    0.8948   -1.2438 C   0  0  0  0  0  0  0  0  0  0  0  0
   33.2356   -0.3703   -1.3913 C   0  0  0  0  0  0  0  0  0  0  0  0
   34.6982   -0.5451   -1.2516 C   0  0  0  0  0  0  0  0  0  0  0  0
   35.3398   -0.4052   -2.5926 C   0  0  2  0  0  0  0  0  0  0  0  0
   36.6259    0.3118   -2.4831 N   0  0  0  0  0  0  0  0  0  0  0  0
   34.5065    0.2384   -3.6268 C   0  0  0  0  0  0  0  0  0  0  0  0
   34.5355    1.4676   -3.8520 O   0  0  0  0  0  0  0  0  0  0  0  0
   32.3794   -1.4104   -1.6855 C   0  0  0  0  0  0  0  0  0  0  0  0
   31.0167   -1.1870   -1.8223 C   0  0  0  0  0  0  0  0  0  0  0  0
   33.6503   -0.5400   -4.3890 O   0  0  0  0  0  0  0  0  0  0  0  0
  2  1  1  0
  2  3  1  0
  3  5  1  0
  3  4  1  1
  5  6  2  0
  7  8  1  0
  7  5  1  0
  8  9  1  6
 10  9  1  0
 11 10  1  0
 11 15  1  0
 12 11  2  0
 13 14  2  0
 13  8  1  0
 16 17  1  0
 17 18  2  0
 17 27  1  0
 18 19  1  0
 19 20  2  0
 20 21  1  0
 22 21  1  1
 22 24  1  0
 22 23  1  0
 23 13  1  0
 24 28  1  0
 25 24  2  0
 26 20  1  0
 27 26  2  0
M  END
$$$$
