SEY.pdb
     RDKit          3D

 28 28  0  0  1  0  0  0  0  0999 V2000
   40.8929   -8.1112   -8.2124 O   0  0  0  0  0  0  0  0  0  0  0  0
   40.3374   -6.9173   -7.7545 C   0  0  0  0  0  0  0  0  0  0  0  0
   41.0082   -5.7883   -8.5046 C   0  0  2  0  0  0  0  0  0  0  0  0
   42.3236   -5.6001   -7.9218 N   0  0  0  0  0  0  0  0  0  0  0  0
   40.2217   -4.5310   -8.4280 C   0  0  0  0  0  0  0  0  0  0  0  0
   40.5148   -3.6848   -7.5500 O   0  0  0  0  0  0  0  0  0  0  0  0
   39.1435   -4.2739   -9.3343 N   0  0  0  0  0  0  0  0  0  0  0  0
   38.2381   -3.1871   -9.2503 C   0  0  1  0  0  0  0  0  0  0  0  0
   37.3191   -2.9781  -10.3945 C   0  0  0  0  0  0  0  0  0  0  0  0
   36.4487   -1.7746  -10.3474 C   0  0  0  0  0  0  0  0  0  0  0  0
   35.5711   -1.7590  -11.5541 C   0  0  0  0  0  0  0  0  0  0  0  0
   34.7430   -0.8446  -11.6956 O   0  0  0  0  0  0  0  0  0  0  0  0
   37.5562   -3.0283   -7.9298 C   0  0  0  0  0  0  0  0  0  0  0  0
   36.8943   -4.0131   -7.5223 O   0  0  0  0  0  0  0  0  0  0  0  0
   35.6411   -2.7333  -12.5363 O   0  0  0  0  0  0  0  0  0  0  0  0
   35.4106   -2.0868    0.3479 O   0  0  0  0  0  0  0  0  0  0  0  0
   35.9845   -2.2285   -0.9171 C   0  0  0  0  0  0  0  0  0  0  0  0
   37.0553   -1.4443   -1.2898 C   0  0  0  0  0  0  0  0  0  0  0  0
   37.6194   -1.5867   -2.5386 C   0  0  0  0  0  0  0  0  0  0  0  0
   37.1504   -2.5127   -3.4786 C   0  0  0  0  0  0  0  0  0  0  0  0
   37.7810   -2.6129   -4.8133 C   0  0  0  0  0  0  0  0  0  0  0  0
   36.9879   -1.8118   -5.7926 C   0  0  2  0  0  0  0  0  0  0  0  0
   37.6052   -1.8671   -7.1328 N   0  0  0  0  0  0  0  0  0  0  0  0
   36.7584   -0.4033   -5.4166 C   0  0  0  0  0  0  0  0  0  0  0  0
   37.4507    0.5380   -5.8609 O   0  0  0  0  0  0  0  0  0  0  0  0
   36.0789   -3.2906   -3.0937 C   0  0  0  0  0  0  0  0  0  0  0  0
   35.5146   -3.1431   -1.8345 C   0  0  0  0  0  0  0  0  0  0  0  0
   35.7355   -0.0949   -4.5343 O   0  0  0  0  0  0  0  0  0  0  0  0
  2  1  1  0
  2  3  1  0
  3  5  1  0
  3  4  1  1
  5  6  2  0
  7  8  1  0
  7  5  1  0
  8  9  1  6
 10  9  1  0
 11 10  1  0
 11 15  1  0
 12 11  2  0
 13 14  2  0
 13  8  1  0
 16 17  1  0
 17 18  2  0
 17 27  1  0
 18 19  1  0
 19 20  2  0
 20 21  1  0
 22 21  1  1
 22 24  1  0
 22 23  1  0
 23 13  1  0
 24 28  1  0
 25 24  2  0
 26 20  1  0
 27 26  2  0
M  END
$$$$
