SEY.pdb
     RDKit          3D

 28 28  0  0  1  0  0  0  0  0999 V2000
   19.2373  -18.0722  -12.1104 O   0  0  0  0  0  0  0  0  0  0  0  0
   20.3837  -18.3144  -12.8659 C   0  0  0  0  0  0  0  0  0  0  0  0
   19.9373  -18.8514  -14.2074 C   0  0  2  0  0  0  0  0  0  0  0  0
   19.0234  -17.8817  -14.7817 N   0  0  0  0  0  0  0  0  0  0  0  0
   19.2766  -20.1752  -14.0798 C   0  0  0  0  0  0  0  0  0  0  0  0
   18.1118  -20.2296  -13.6182 O   0  0  0  0  0  0  0  0  0  0  0  0
   19.9448  -21.3790  -14.4727 N   0  0  0  0  0  0  0  0  0  0  0  0
   19.4054  -22.6865  -14.3865 C   0  0  1  0  0  0  0  0  0  0  0  0
   19.8902  -23.6876  -15.3662 C   0  0  0  0  0  0  0  0  0  0  0  0
   19.6239  -23.4085  -16.8014 C   0  0  0  0  0  0  0  0  0  0  0  0
   20.2705  -24.4656  -17.6327 C   0  0  0  0  0  0  0  0  0  0  0  0
   21.3982  -24.2619  -18.1112 O   0  0  0  0  0  0  0  0  0  0  0  0
   19.3011  -23.2412  -13.0025 C   0  0  0  0  0  0  0  0  0  0  0  0
   20.3285  -23.1532  -12.2879 O   0  0  0  0  0  0  0  0  0  0  0  0
   19.6594  -25.6801  -17.8973 O   0  0  0  0  0  0  0  0  0  0  0  0
   17.2161  -24.9275   -4.8049 O   0  0  0  0  0  0  0  0  0  0  0  0
   17.4883  -24.4948   -6.1042 C   0  0  0  0  0  0  0  0  0  0  0  0
   16.5206  -23.8462   -6.8413 C   0  0  0  0  0  0  0  0  0  0  0  0
   16.7925  -23.4203   -8.1231 C   0  0  0  0  0  0  0  0  0  0  0  0
   18.0360  -23.6163   -8.7367 C   0  0  0  0  0  0  0  0  0  0  0  0
   18.2703  -23.1551  -10.1229 C   0  0  0  0  0  0  0  0  0  0  0  0
   18.0900  -24.3038  -11.0597 C   0  0  2  0  0  0  0  0  0  0  0  0
   18.1489  -23.8468  -12.4625 N   0  0  0  0  0  0  0  0  0  0  0  0
   16.8638  -25.0990  -10.8545 C   0  0  0  0  0  0  0  0  0  0  0  0
   15.7602  -24.7823  -11.3489 O   0  0  0  0  0  0  0  0  0  0  0  0
   18.9949  -24.2664   -7.9890 C   0  0  0  0  0  0  0  0  0  0  0  0
   18.7158  -24.6931   -6.6984 C   0  0  0  0  0  0  0  0  0  0  0  0
   16.9223  -26.2487  -10.0832 O   0  0  0  0  0  0  0  0  0  0  0  0
  2  1  1  0
  2  3  1  0
  3  5  1  0
  3  4  1  1
  5  6  2  0
  7  8  1  0
  7  5  1  0
  8  9  1  6
 10  9  1  0
 11 10  1  0
 11 15  1  0
 12 11  2  0
 13 14  2  0
 13  8  1  0
 16 17  1  0
 17 18  2  0
 17 27  1  0
 18 19  1  0
 19 20  2  0
 20 21  1  0
 22 21  1  1
 22 24  1  0
 22 23  1  0
 23 13  1  0
 24 28  1  0
 25 24  2  0
 26 20  1  0
 27 26  2  0
M  END
$$$$
