SEY.pdb
     RDKit          3D

 28 28  0  0  1  0  0  0  0  0999 V2000
   14.9024   -9.6594  -14.1978 O   0  0  0  0  0  0  0  0  0  0  0  0
   15.9104  -10.4982  -13.7245 C   0  0  0  0  0  0  0  0  0  0  0  0
   16.7315  -10.9370  -14.9162 C   0  0  2  0  0  0  0  0  0  0  0  0
   17.0788  -12.3315  -14.7153 N   0  0  0  0  0  0  0  0  0  0  0  0
   17.9577  -10.1143  -15.0746 C   0  0  0  0  0  0  0  0  0  0  0  0
   18.8994  -10.2664  -14.2604 O   0  0  0  0  0  0  0  0  0  0  0  0
   18.0784   -9.1588  -16.1341 N   0  0  0  0  0  0  0  0  0  0  0  0
   19.2208   -8.3638  -16.4002 C   0  0  1  0  0  0  0  0  0  0  0  0
   19.4432   -7.9419  -17.8037 C   0  0  0  0  0  0  0  0  0  0  0  0
   20.7329   -7.2692  -18.1079 C   0  0  0  0  0  0  0  0  0  0  0  0
   20.7826   -6.9435  -19.5632 C   0  0  0  0  0  0  0  0  0  0  0  0
   21.4978   -7.6230  -20.3173 O   0  0  0  0  0  0  0  0  0  0  0  0
   19.4693   -7.2606  -15.4228 C   0  0  0  0  0  0  0  0  0  0  0  0
   18.4812   -6.5477  -15.1239 O   0  0  0  0  0  0  0  0  0  0  0  0
   20.0559   -5.9022  -20.1167 O   0  0  0  0  0  0  0  0  0  0  0  0
   17.0786   -8.4407   -9.5282 O   0  0  0  0  0  0  0  0  0  0  0  0
   18.1499   -7.9445  -10.2736 C   0  0  0  0  0  0  0  0  0  0  0  0
   18.3317   -6.5853  -10.4154 C   0  0  0  0  0  0  0  0  0  0  0  0
   19.3899   -6.0989  -11.1514 C   0  0  0  0  0  0  0  0  0  0  0  0
   20.3191   -6.9350  -11.7826 C   0  0  0  0  0  0  0  0  0  0  0  0
   21.4277   -6.3611  -12.5768 C   0  0  0  0  0  0  0  0  0  0  0  0
   20.8923   -5.8611  -13.8778 C   0  0  2  0  0  0  0  0  0  0  0  0
   20.7162   -6.9743  -14.8317 N   0  0  0  0  0  0  0  0  0  0  0  0
   21.6822   -4.7899  -14.5154 C   0  0  0  0  0  0  0  0  0  0  0  0
   22.1861   -4.9054  -15.6536 O   0  0  0  0  0  0  0  0  0  0  0  0
   20.1259   -8.2921  -11.6334 C   0  0  0  0  0  0  0  0  0  0  0  0
   19.0585   -8.7767  -10.8907 C   0  0  0  0  0  0  0  0  0  0  0  0
   21.8828   -3.5990  -13.8360 O   0  0  0  0  0  0  0  0  0  0  0  0
  2  1  1  0
  2  3  1  0
  3  5  1  0
  3  4  1  1
  5  6  2  0
  7  8  1  0
  7  5  1  0
  8  9  1  6
 10  9  1  0
 11 10  1  0
 11 15  1  0
 12 11  2  0
 13 14  2  0
 13  8  1  0
 16 17  1  0
 17 18  2  0
 17 27  1  0
 18 19  1  0
 19 20  2  0
 20 21  1  0
 22 21  1  1
 22 24  1  0
 22 23  1  0
 23 13  1  0
 24 28  1  0
 25 24  2  0
 26 20  1  0
 27 26  2  0
M  END
$$$$
