SEY.pdb
     RDKit          3D

 28 28  0  0  1  0  0  0  0  0999 V2000
   14.6501  -14.0313  -14.0658 O   0  0  0  0  0  0  0  0  0  0  0  0
   15.8993  -13.8064  -14.6425 C   0  0  0  0  0  0  0  0  0  0  0  0
   16.0187  -12.3209  -14.9000 C   0  0  2  0  0  0  0  0  0  0  0  0
   15.3389  -12.0403  -16.1508 N   0  0  0  0  0  0  0  0  0  0  0  0
   17.4367  -11.8854  -14.9708 C   0  0  0  0  0  0  0  0  0  0  0  0
   18.1829  -12.0865  -13.9831 O   0  0  0  0  0  0  0  0  0  0  0  0
   17.9587  -11.2450  -16.1402 N   0  0  0  0  0  0  0  0  0  0  0  0
   19.2879  -10.7810  -16.3014 C   0  0  1  0  0  0  0  0  0  0  0  0
   20.0281  -11.2426  -17.4999 C   0  0  0  0  0  0  0  0  0  0  0  0
   19.2168  -11.6501  -18.6764 C   0  0  0  0  0  0  0  0  0  0  0  0
   20.1306  -11.9821  -19.8084 C   0  0  0  0  0  0  0  0  0  0  0  0
   20.4003  -11.1113  -20.6515 O   0  0  0  0  0  0  0  0  0  0  0  0
   19.4912   -9.3261  -16.0260 C   0  0  0  0  0  0  0  0  0  0  0  0
   18.5737   -8.5551  -16.3971 O   0  0  0  0  0  0  0  0  0  0  0  0
   20.6985  -13.2362  -19.9615 O   0  0  0  0  0  0  0  0  0  0  0  0
   22.7213   -1.3640  -14.0926 O   0  0  0  0  0  0  0  0  0  0  0  0
   22.5383   -2.7463  -14.1665 C   0  0  0  0  0  0  0  0  0  0  0  0
   21.5572   -3.3617  -13.4187 C   0  0  0  0  0  0  0  0  0  0  0  0
   21.3792   -4.7258  -13.4941 C   0  0  0  0  0  0  0  0  0  0  0  0
   22.1642   -5.5463  -14.3136 C   0  0  0  0  0  0  0  0  0  0  0  0
   21.9434   -7.0090  -14.3439 C   0  0  0  0  0  0  0  0  0  0  0  0
   20.8372   -7.3190  -15.2976 C   0  0  2  0  0  0  0  0  0  0  0  0
   20.6245   -8.7771  -15.3934 N   0  0  0  0  0  0  0  0  0  0  0  0
   20.9964   -6.7571  -16.6529 C   0  0  0  0  0  0  0  0  0  0  0  0
   21.7171   -7.2874  -17.5259 O   0  0  0  0  0  0  0  0  0  0  0  0
   23.1420   -4.9186  -15.0560 C   0  0  0  0  0  0  0  0  0  0  0  0
   23.3170   -3.5443  -14.9765 C   0  0  0  0  0  0  0  0  0  0  0  0
   20.3246   -5.5922  -16.9873 O   0  0  0  0  0  0  0  0  0  0  0  0
  2  1  1  0
  2  3  1  0
  3  5  1  0
  3  4  1  6
  5  6  2  0
  7  8  1  0
  7  5  1  0
  8  9  1  6
 10  9  1  0
 11 10  1  0
 11 15  1  0
 12 11  2  0
 13 14  2  0
 13  8  1  0
 16 17  1  0
 17 18  2  0
 17 27  1  0
 18 19  1  0
 19 20  2  0
 20 21  1  0
 22 21  1  1
 22 24  1  0
 22 23  1  0
 23 13  1  0
 24 28  1  0
 25 24  2  0
 26 20  1  0
 27 26  2  0
M  END
$$$$
