SEY.pdb
     RDKit          3D

 28 28  0  0  1  0  0  0  0  0999 V2000
   24.8712  -22.5912  -16.2960 O   0  0  0  0  0  0  0  0  0  0  0  0
   25.0504  -21.3971  -16.9929 C   0  0  0  0  0  0  0  0  0  0  0  0
   25.1649  -20.2886  -15.9705 C   0  0  2  0  0  0  0  0  0  0  0  0
   26.4262  -20.4665  -15.2756 N   0  0  0  0  0  0  0  0  0  0  0  0
   24.0346  -20.3072  -15.0075 C   0  0  0  0  0  0  0  0  0  0  0  0
   24.2672  -20.5742  -13.8044 O   0  0  0  0  0  0  0  0  0  0  0  0
   22.6955  -20.0270  -15.4296 N   0  0  0  0  0  0  0  0  0  0  0  0
   21.5475  -20.0533  -14.5994 C   0  0  1  0  0  0  0  0  0  0  0  0
   20.4710  -19.0787  -14.8972 C   0  0  0  0  0  0  0  0  0  0  0  0
   20.8875  -17.7651  -15.4536 C   0  0  0  0  0  0  0  0  0  0  0  0
   19.9413  -16.7124  -14.9813 C   0  0  0  0  0  0  0  0  0  0  0  0
   20.3485  -15.5495  -14.8272 O   0  0  0  0  0  0  0  0  0  0  0  0
   21.0182  -21.4162  -14.2891 C   0  0  0  0  0  0  0  0  0  0  0  0
   20.9952  -22.2348  -15.2395 O   0  0  0  0  0  0  0  0  0  0  0  0
   18.6108  -16.9798  -14.7038 O   0  0  0  0  0  0  0  0  0  0  0  0
   18.5233  -28.9653  -10.6096 O   0  0  0  0  0  0  0  0  0  0  0  0
   18.9702  -27.6554  -10.7940 C   0  0  0  0  0  0  0  0  0  0  0  0
   18.1806  -26.5890  -10.4197 C   0  0  0  0  0  0  0  0  0  0  0  0
   18.6247  -25.2977  -10.6028 C   0  0  0  0  0  0  0  0  0  0  0  0
   19.8721  -25.0001  -11.1653 C   0  0  0  0  0  0  0  0  0  0  0  0
   20.2935  -23.5948  -11.3566 C   0  0  0  0  0  0  0  0  0  0  0  0
   20.0720  -23.2052  -12.7809 C   0  0  2  0  0  0  0  0  0  0  0  0
   20.5503  -21.8299  -13.0258 N   0  0  0  0  0  0  0  0  0  0  0  0
   18.6826  -23.3336  -13.2615 C   0  0  0  0  0  0  0  0  0  0  0  0
   17.8487  -22.4059  -13.1791 O   0  0  0  0  0  0  0  0  0  0  0  0
   20.6519  -26.0753  -11.5356 C   0  0  0  0  0  0  0  0  0  0  0  0
   20.1998  -27.3740  -11.3488 C   0  0  0  0  0  0  0  0  0  0  0  0
   18.2695  -24.5274  -13.8309 O   0  0  0  0  0  0  0  0  0  0  0  0
  2  1  1  0
  2  3  1  0
  3  5  1  0
  3  4  1  1
  5  6  2  0
  7  8  1  0
  7  5  1  0
  8  9  1  6
 10  9  1  0
 11 10  1  0
 11 15  1  0
 12 11  2  0
 13 14  2  0
 13  8  1  0
 16 17  1  0
 17 18  2  0
 17 27  1  0
 18 19  1  0
 19 20  2  0
 20 21  1  0
 22 21  1  1
 22 24  1  0
 22 23  1  0
 23 13  1  0
 24 28  1  0
 25 24  2  0
 26 20  1  0
 27 26  2  0
M  END
$$$$
