SEY.pdb
     RDKit          3D

 28 28  0  0  1  0  0  0  0  0999 V2000
   13.0881   -8.6669  -11.6714 O   0  0  0  0  0  0  0  0  0  0  0  0
   12.5062   -9.5259  -12.6026 C   0  0  0  0  0  0  0  0  0  0  0  0
   13.0151  -10.9203  -12.3129 C   0  0  2  0  0  0  0  0  0  0  0  0
   12.7962  -11.1787  -10.9019 N   0  0  0  0  0  0  0  0  0  0  0  0
   14.4543  -11.0635  -12.6496 C   0  0  0  0  0  0  0  0  0  0  0  0
   15.3010  -11.0153  -11.7257 O   0  0  0  0  0  0  0  0  0  0  0  0
   14.8845  -11.2541  -14.0019 N   0  0  0  0  0  0  0  0  0  0  0  0
   16.2308  -11.3637  -14.4304 C   0  0  1  0  0  0  0  0  0  0  0  0
   16.5036  -12.2357  -15.5976 C   0  0  0  0  0  0  0  0  0  0  0  0
   17.9298  -12.4825  -15.9345 C   0  0  0  0  0  0  0  0  0  0  0  0
   18.1511  -13.9514  -16.0760 C   0  0  0  0  0  0  0  0  0  0  0  0
   17.8815  -14.7042  -15.1260 O   0  0  0  0  0  0  0  0  0  0  0  0
   16.9869  -10.0756  -14.4869 C   0  0  0  0  0  0  0  0  0  0  0  0
   16.3786   -9.0932  -14.9755 O   0  0  0  0  0  0  0  0  0  0  0  0
   18.6509  -14.5189  -17.2365 O   0  0  0  0  0  0  0  0  0  0  0  0
   23.1088   -3.7607  -14.4324 O   0  0  0  0  0  0  0  0  0  0  0  0
   22.4145   -4.9437  -14.1720 C   0  0  0  0  0  0  0  0  0  0  0  0
   22.7897   -6.1221  -14.7812 C   0  0  0  0  0  0  0  0  0  0  0  0
   22.1026   -7.2878  -14.5219 C   0  0  0  0  0  0  0  0  0  0  0  0
   21.0107   -7.3427  -13.6469 C   0  0  0  0  0  0  0  0  0  0  0  0
   20.2958   -8.6176  -13.4173 C   0  0  0  0  0  0  0  0  0  0  0  0
   19.0319   -8.6220  -14.2123 C   0  0  2  0  0  0  0  0  0  0  0  0
   18.3116   -9.8994  -14.0394 N   0  0  0  0  0  0  0  0  0  0  0  0
   19.1912   -8.3404  -15.6522 C   0  0  0  0  0  0  0  0  0  0  0  0
   18.9886   -7.2110  -16.1482 O   0  0  0  0  0  0  0  0  0  0  0  0
   20.6453   -6.1575  -13.0444 C   0  0  0  0  0  0  0  0  0  0  0  0
   21.3409   -4.9862  -13.3089 C   0  0  0  0  0  0  0  0  0  0  0  0
   19.5816   -9.3614  -16.5038 O   0  0  0  0  0  0  0  0  0  0  0  0
  2  1  1  0
  2  3  1  0
  3  5  1  0
  3  4  1  1
  5  6  2  0
  7  8  1  0
  7  5  1  0
  8  9  1  6
 10  9  1  0
 11 10  1  0
 11 15  1  0
 12 11  2  0
 13 14  2  0
 13  8  1  0
 16 17  1  0
 17 18  2  0
 17 27  1  0
 18 19  1  0
 19 20  2  0
 20 21  1  0
 22 21  1  1
 22 24  1  0
 22 23  1  0
 23 13  1  0
 24 28  1  0
 25 24  2  0
 26 20  1  0
 27 26  2  0
M  END
$$$$
