SEY.pdb
     RDKit          3D

 28 28  0  0  1  0  0  0  0  0999 V2000
   16.0696  -11.2895  -13.9211 O   0  0  0  0  0  0  0  0  0  0  0  0
   14.9327  -10.7487  -14.5200 C   0  0  0  0  0  0  0  0  0  0  0  0
   15.1770  -10.7193  -16.0121 C   0  0  2  0  0  0  0  0  0  0  0  0
   15.5227  -12.0674  -16.4228 N   0  0  0  0  0  0  0  0  0  0  0  0
   16.2613   -9.7718  -16.3753 C   0  0  0  0  0  0  0  0  0  0  0  0
   16.7343   -9.8076  -17.5362 O   0  0  0  0  0  0  0  0  0  0  0  0
   16.7695   -8.8270  -15.4271 N   0  0  0  0  0  0  0  0  0  0  0  0
   17.7152   -7.8088  -15.7045 C   0  0  1  0  0  0  0  0  0  0  0  0
   17.3487   -6.4214  -15.3328 C   0  0  0  0  0  0  0  0  0  0  0  0
   18.3114   -5.3501  -15.6988 C   0  0  0  0  0  0  0  0  0  0  0  0
   17.7613   -4.0314  -15.2688 C   0  0  0  0  0  0  0  0  0  0  0  0
   18.4138   -2.9973  -15.4852 O   0  0  0  0  0  0  0  0  0  0  0  0
   19.1296   -8.1424  -15.3549 C   0  0  0  0  0  0  0  0  0  0  0  0
   19.3549   -8.4248  -14.1535 O   0  0  0  0  0  0  0  0  0  0  0  0
   16.5382   -3.9092  -14.6301 O   0  0  0  0  0  0  0  0  0  0  0  0
   27.3442  -11.1766  -15.2943 O   0  0  0  0  0  0  0  0  0  0  0  0
   26.1042  -10.6906  -15.7134 C   0  0  0  0  0  0  0  0  0  0  0  0
   24.9851  -11.4940  -15.6599 C   0  0  0  0  0  0  0  0  0  0  0  0
   23.7629  -11.0113  -16.0741 C   0  0  0  0  0  0  0  0  0  0  0  0
   23.5900   -9.7099  -16.5611 C   0  0  0  0  0  0  0  0  0  0  0  0
   22.2585   -9.2469  -17.0103 C   0  0  0  0  0  0  0  0  0  0  0  0
   21.5613   -8.5781  -15.8719 C   0  0  2  0  0  0  0  0  0  0  0  0
   20.2029   -8.1558  -16.2680 N   0  0  0  0  0  0  0  0  0  0  0  0
   22.2773   -7.4319  -15.2791 C   0  0  0  0  0  0  0  0  0  0  0  0
   22.1930   -6.2710  -15.7351 O   0  0  0  0  0  0  0  0  0  0  0  0
   24.7170   -8.9168  -16.6098 C   0  0  0  0  0  0  0  0  0  0  0  0
   25.9455   -9.4079  -16.1913 C   0  0  0  0  0  0  0  0  0  0  0  0
   23.0815   -7.6351  -14.1691 O   0  0  0  0  0  0  0  0  0  0  0  0
  2  1  1  0
  2  3  1  0
  3  5  1  0
  3  4  1  1
  5  6  2  0
  7  8  1  0
  7  5  1  0
  8  9  1  1
 10  9  1  0
 11 10  1  0
 11 15  1  0
 12 11  2  0
 13 14  2  0
 13  8  1  0
 16 17  1  0
 17 18  2  0
 17 27  1  0
 18 19  1  0
 19 20  2  0
 20 21  1  0
 22 21  1  6
 22 24  1  0
 22 23  1  0
 23 13  1  0
 24 28  1  0
 25 24  2  0
 26 20  1  0
 27 26  2  0
M  END
$$$$
