YGH.pdb
     RDKit          3D

 27 28  0  0  1  0  0  0  0  0999 V2000
    6.6665  -10.4198   27.3487 O   0  0  0  0  0  0  0  0  0  0  0  0
    6.8137  -11.3938   26.3741 C   0  0  0  0  0  0  0  0  0  0  0  0
    7.6309  -11.2282   25.2694 C   0  0  0  0  0  0  0  0  0  0  0  0
    7.7540  -12.2193   24.3181 C   0  0  0  0  0  0  0  0  0  0  0  0
    7.0634  -13.3896   24.4553 C   0  0  0  0  0  0  0  0  0  0  0  0
    7.1509  -14.5016   23.4640 C   0  0  0  0  0  0  0  0  0  0  0  0
    7.6750  -15.7097   24.1885 C   0  0  2  0  0  0  0  0  0  0  0  0
    9.1172  -15.6297   24.2428 N   0  0  0  0  0  0  0  0  0  0  0  0
    7.2564  -16.9807   23.6161 C   0  0  0  0  0  0  0  0  0  0  0  0
    6.0493  -17.1442   23.3093 O   0  0  0  0  0  0  0  0  0  0  0  0
    6.2477  -13.5367   25.5720 C   0  0  0  0  0  0  0  0  0  0  0  0
    6.1103  -12.5721   26.5245 C   0  0  0  0  0  0  0  0  0  0  0  0
    8.1301  -18.0604   23.3785 N   0  0  0  0  0  0  0  0  0  0  0  0
    7.8040  -19.4317   23.7329 C   0  0  0  0  0  0  0  0  0  0  0  0
    7.8011  -19.6154   25.2065 C   0  0  0  0  0  0  0  0  0  0  0  0
    7.0899  -20.5166   25.6982 O   0  0  0  0  0  0  0  0  0  0  0  0
    8.5813  -18.7971   26.0608 N   0  0  0  0  0  0  0  0  0  0  0  0
    9.0042  -19.2814   27.4017 C   0  0  1  0  0  0  0  0  0  0  0  0
   10.0254  -20.3441   27.2559 C   0  0  0  0  0  0  0  0  0  0  0  0
    9.5101  -21.7036   27.0184 C   0  0  0  0  0  0  0  0  0  0  0  0
    8.2539  -22.2206   26.8798 C   0  0  0  0  0  0  0  0  0  0  0  0
    8.4123  -23.5381   26.6055 N   0  0  0  0  0  0  0  0  0  0  0  0
    9.7115  -23.8523   26.5682 C   0  0  0  0  0  0  0  0  0  0  0  0
   10.3931  -22.7369   26.8192 N   0  0  0  0  0  0  0  0  0  0  0  0
    9.5588  -18.0671   28.1120 C   0  0  0  0  0  0  0  0  0  0  0  0
    9.7671  -18.0988   29.4979 O   0  0  0  0  0  0  0  0  0  0  0  0
    9.8355  -17.0481   27.5178 O   0  0  0  0  0  0  0  0  0  0  0  0
  2  3  2  0
  2  1  1  0
  4  3  1  0
  5  4  2  0
  6  7  1  0
  6  5  1  0
  7  8  1  6
  9  7  1  0
  9 13  1  0
 10  9  2  0
 11  5  1  0
 11 12  2  0
 12  2  1  0
 14 13  1  0
 15 14  1  0
 15 16  2  0
 17 18  1  0
 17 15  1  0
 18 19  1  6
 20 19  1  0
 20 21  2  0
 22 21  1  0
 23 22  1  0
 24 23  2  0
 24 20  1  0
 25 18  1  0
 26 25  1  0
 27 25  2  0
M  END
$$$$
