YGH.pdb
     RDKit          3D

 27 28  0  0  1  0  0  0  0  0999 V2000
    6.7442  -13.7846   27.4901 O   0  0  0  0  0  0  0  0  0  0  0  0
    6.9006  -13.9271   26.1207 C   0  0  0  0  0  0  0  0  0  0  0  0
    7.4981  -12.9594   25.3319 C   0  0  0  0  0  0  0  0  0  0  0  0
    7.6374  -13.1344   23.9710 C   0  0  0  0  0  0  0  0  0  0  0  0
    7.1824  -14.2772   23.3775 C   0  0  0  0  0  0  0  0  0  0  0  0
    7.3011  -14.5302   21.9116 C   0  0  0  0  0  0  0  0  0  0  0  0
    7.9734  -15.8632   21.7382 C   0  0  2  0  0  0  0  0  0  0  0  0
    7.2455  -16.8534   22.4993 N   0  0  0  0  0  0  0  0  0  0  0  0
    9.3826  -15.8760   22.1016 C   0  0  0  0  0  0  0  0  0  0  0  0
   10.1569  -15.0396   21.5736 O   0  0  0  0  0  0  0  0  0  0  0  0
    6.5850  -15.2374   24.1870 C   0  0  0  0  0  0  0  0  0  0  0  0
    6.4365  -15.0868   25.5330 C   0  0  0  0  0  0  0  0  0  0  0  0
    9.9476  -16.7802   23.0230 N   0  0  0  0  0  0  0  0  0  0  0  0
   11.3684  -16.8113   23.3274 C   0  0  0  0  0  0  0  0  0  0  0  0
   11.5983  -16.8871   24.7926 C   0  0  0  0  0  0  0  0  0  0  0  0
   12.7725  -16.8734   25.2179 O   0  0  0  0  0  0  0  0  0  0  0  0
   10.5234  -16.9740   25.7118 N   0  0  0  0  0  0  0  0  0  0  0  0
   10.7693  -17.2935   27.1432 C   0  0  1  0  0  0  0  0  0  0  0  0
    9.8485  -16.5122   28.0005 C   0  0  0  0  0  0  0  0  0  0  0  0
   10.0846  -15.0587   28.0413 C   0  0  0  0  0  0  0  0  0  0  0  0
   10.9693  -14.2699   28.7192 C   0  0  0  0  0  0  0  0  0  0  0  0
   10.7539  -13.0020   28.2925 N   0  0  0  0  0  0  0  0  0  0  0  0
    9.7760  -12.9781   27.3808 C   0  0  0  0  0  0  0  0  0  0  0  0
    9.3589  -14.2317   27.2187 N   0  0  0  0  0  0  0  0  0  0  0  0
   10.5260  -18.7805   27.2716 C   0  0  0  0  0  0  0  0  0  0  0  0
   10.8795  -19.4504   28.4512 O   0  0  0  0  0  0  0  0  0  0  0  0
   10.0276  -19.4276   26.3767 O   0  0  0  0  0  0  0  0  0  0  0  0
  2  3  2  0
  2  1  1  0
  4  3  1  0
  5  4  2  0
  6  7  1  0
  6  5  1  0
  7  8  1  1
  9  7  1  0
  9 13  1  0
 10  9  2  0
 11  5  1  0
 11 12  2  0
 12  2  1  0
 14 13  1  0
 15 14  1  0
 15 16  2  0
 17 18  1  0
 17 15  1  0
 18 19  1  1
 20 19  1  0
 20 21  2  0
 22 21  1  0
 23 22  1  0
 24 23  2  0
 24 20  1  0
 25 18  1  0
 26 25  1  0
 27 25  2  0
M  END
$$$$
