YGH.pdb
     RDKit          3D

 27 28  0  0  1  0  0  0  0  0999 V2000
    8.3550  -13.2994   16.0877 O   0  0  0  0  0  0  0  0  0  0  0  0
    8.1290  -13.7903   17.3637 C   0  0  0  0  0  0  0  0  0  0  0  0
    8.4240  -15.0930   17.7264 C   0  0  0  0  0  0  0  0  0  0  0  0
    8.1859  -15.5484   19.0063 C   0  0  0  0  0  0  0  0  0  0  0  0
    7.6502  -14.7107   19.9425 C   0  0  0  0  0  0  0  0  0  0  0  0
    7.3676  -15.1386   21.3440 C   0  0  0  0  0  0  0  0  0  0  0  0
    6.7183  -16.4925   21.2786 C   0  0  2  0  0  0  0  0  0  0  0  0
    5.4029  -16.3496   20.6967 N   0  0  0  0  0  0  0  0  0  0  0  0
    6.6374  -17.1813   22.5581 C   0  0  0  0  0  0  0  0  0  0  0  0
    5.7363  -16.8561   23.3707 O   0  0  0  0  0  0  0  0  0  0  0  0
    7.3609  -13.4057   19.5586 C   0  0  0  0  0  0  0  0  0  0  0  0
    7.5872  -12.9335   18.3007 C   0  0  0  0  0  0  0  0  0  0  0  0
    7.5181  -18.2074   22.9543 N   0  0  0  0  0  0  0  0  0  0  0  0
    7.6629  -18.6325   24.3366 C   0  0  0  0  0  0  0  0  0  0  0  0
    8.6104  -17.7537   25.0683 C   0  0  0  0  0  0  0  0  0  0  0  0
    9.0727  -16.7510   24.4846 O   0  0  0  0  0  0  0  0  0  0  0  0
    8.9987  -18.0254   26.4038 N   0  0  0  0  0  0  0  0  0  0  0  0
    9.2428  -16.9183   27.3661 C   0  0  1  0  0  0  0  0  0  0  0  0
    7.9678  -16.2356   27.6845 C   0  0  0  0  0  0  0  0  0  0  0  0
    7.9048  -14.8019   27.3519 C   0  0  0  0  0  0  0  0  0  0  0  0
    8.8475  -13.8751   27.0102 C   0  0  0  0  0  0  0  0  0  0  0  0
    8.1764  -12.7275   26.7482 N   0  0  0  0  0  0  0  0  0  0  0  0
    6.8619  -12.9098   26.9128 C   0  0  0  0  0  0  0  0  0  0  0  0
    6.6838  -14.1762   27.2821 N   0  0  0  0  0  0  0  0  0  0  0  0
    9.8467  -17.5728   28.5883 C   0  0  0  0  0  0  0  0  0  0  0  0
    9.4544  -18.8669   28.9576 O   0  0  0  0  0  0  0  0  0  0  0  0
   10.6727  -17.0107   29.2738 O   0  0  0  0  0  0  0  0  0  0  0  0
  2  3  2  0
  2  1  1  0
  4  3  1  0
  5  4  2  0
  6  7  1  0
  6  5  1  0
  7  8  1  1
  9  7  1  0
  9 13  1  0
 10  9  2  0
 11  5  1  0
 11 12  2  0
 12  2  1  0
 14 13  1  0
 15 14  1  0
 15 16  2  0
 17 18  1  0
 17 15  1  0
 18 19  1  1
 20 19  1  0
 20 21  2  0
 22 21  1  0
 23 22  1  0
 24 23  2  0
 24 20  1  0
 25 18  1  0
 26 25  1  0
 27 25  2  0
M  END
$$$$
