YGH.pdb
     RDKit          3D

 27 28  0  0  1  0  0  0  0  0999 V2000
    9.1033  -11.8716   18.8061 O   0  0  0  0  0  0  0  0  0  0  0  0
    8.5198  -12.7605   19.6947 C   0  0  0  0  0  0  0  0  0  0  0  0
    9.1946  -13.2760   20.7876 C   0  0  0  0  0  0  0  0  0  0  0  0
    8.5826  -14.1592   21.6523 C   0  0  0  0  0  0  0  0  0  0  0  0
    7.2886  -14.5407   21.4389 C   0  0  0  0  0  0  0  0  0  0  0  0
    6.5673  -15.4918   22.3344 C   0  0  0  0  0  0  0  0  0  0  0  0
    7.0639  -16.8742   22.0157 C   0  0  2  0  0  0  0  0  0  0  0  0
    6.7300  -17.1831   20.6437 N   0  0  0  0  0  0  0  0  0  0  0  0
    6.5654  -17.9109   22.9073 C   0  0  0  0  0  0  0  0  0  0  0  0
    5.3619  -18.2610   22.8242 O   0  0  0  0  0  0  0  0  0  0  0  0
    6.6278  -14.0117   20.3355 C   0  0  0  0  0  0  0  0  0  0  0  0
    7.2115  -13.1381   19.4679 C   0  0  0  0  0  0  0  0  0  0  0  0
    7.3566  -18.5606   23.8756 N   0  0  0  0  0  0  0  0  0  0  0  0
    7.1743  -18.3642   25.3041 C   0  0  0  0  0  0  0  0  0  0  0  0
    8.1360  -19.1857   26.0823 C   0  0  0  0  0  0  0  0  0  0  0  0
    7.7080  -19.8690   27.0362 O   0  0  0  0  0  0  0  0  0  0  0  0
    9.5177  -19.2115   25.7692 N   0  0  0  0  0  0  0  0  0  0  0  0
   10.4883  -18.3879   26.5379 C   0  0  1  0  0  0  0  0  0  0  0  0
   10.3600  -16.9641   26.1511 C   0  0  0  0  0  0  0  0  0  0  0  0
   10.5616  -16.6644   24.7230 C   0  0  0  0  0  0  0  0  0  0  0  0
   11.0456  -17.3880   23.6710 C   0  0  0  0  0  0  0  0  0  0  0  0
   10.9220  -16.5987   22.5766 N   0  0  0  0  0  0  0  0  0  0  0  0
   10.3817  -15.4220   22.9107 C   0  0  0  0  0  0  0  0  0  0  0  0
   10.1565  -15.4510   24.2222 N   0  0  0  0  0  0  0  0  0  0  0  0
   10.1380  -18.6056   27.9928 C   0  0  0  0  0  0  0  0  0  0  0  0
    9.1496  -17.8200   28.6019 O   0  0  0  0  0  0  0  0  0  0  0  0
   10.6894  -19.4493   28.6651 O   0  0  0  0  0  0  0  0  0  0  0  0
  2  3  2  0
  2  1  1  0
  4  3  1  0
  5  4  2  0
  6  7  1  0
  6  5  1  0
  7  8  1  6
  9  7  1  0
  9 13  1  0
 10  9  2  0
 11  5  1  0
 11 12  2  0
 12  2  1  0
 14 13  1  0
 15 14  1  0
 15 16  2  0
 17 18  1  0
 17 15  1  0
 18 19  1  6
 20 19  1  0
 20 21  2  0
 22 21  1  0
 23 22  1  0
 24 23  2  0
 24 20  1  0
 25 18  1  0
 26 25  1  0
 27 25  2  0
M  END
$$$$
