YGH.pdb
     RDKit          3D

 27 28  0  0  1  0  0  0  0  0999 V2000
    8.5173  -12.4810   16.8629 O   0  0  0  0  0  0  0  0  0  0  0  0
    8.2189  -13.0515   18.0900 C   0  0  0  0  0  0  0  0  0  0  0  0
    9.1823  -13.6240   18.9021 C   0  0  0  0  0  0  0  0  0  0  0  0
    8.8497  -14.1833   20.1182 C   0  0  0  0  0  0  0  0  0  0  0  0
    7.5511  -14.1792   20.5413 C   0  0  0  0  0  0  0  0  0  0  0  0
    7.1230  -14.7667   21.8447 C   0  0  0  0  0  0  0  0  0  0  0  0
    8.2268  -15.6723   22.3140 C   0  0  2  0  0  0  0  0  0  0  0  0
    8.4795  -16.6645   21.2936 N   0  0  0  0  0  0  0  0  0  0  0  0
    7.9728  -16.3130   23.5959 C   0  0  0  0  0  0  0  0  0  0  0  0
    7.1781  -15.7699   24.4030 O   0  0  0  0  0  0  0  0  0  0  0  0
    6.5980  -13.5993   19.7112 C   0  0  0  0  0  0  0  0  0  0  0  0
    6.9027  -13.0410   18.5062 C   0  0  0  0  0  0  0  0  0  0  0  0
    8.5694  -17.5239   24.0002 N   0  0  0  0  0  0  0  0  0  0  0  0
    9.9971  -17.6596   24.2361 C   0  0  0  0  0  0  0  0  0  0  0  0
   10.4138  -16.8959   25.4396 C   0  0  0  0  0  0  0  0  0  0  0  0
   11.5245  -16.3250   25.4339 O   0  0  0  0  0  0  0  0  0  0  0  0
    9.5856  -16.8012   26.5855 N   0  0  0  0  0  0  0  0  0  0  0  0
   10.0164  -16.0180   27.7739 C   0  0  1  0  0  0  0  0  0  0  0  0
    8.8619  -15.2835   28.3403 C   0  0  0  0  0  0  0  0  0  0  0  0
    8.3532  -14.1619   27.5320 C   0  0  0  0  0  0  0  0  0  0  0  0
    8.8012  -13.5402   26.4019 C   0  0  0  0  0  0  0  0  0  0  0  0
    7.8672  -12.6120   26.0820 N   0  0  0  0  0  0  0  0  0  0  0  0
    6.8643  -12.6378   26.9660 C   0  0  0  0  0  0  0  0  0  0  0  0
    7.1508  -13.5832   27.8582 N   0  0  0  0  0  0  0  0  0  0  0  0
   10.5648  -17.0351   28.7493 C   0  0  0  0  0  0  0  0  0  0  0  0
   11.2380  -16.6095   29.9030 O   0  0  0  0  0  0  0  0  0  0  0  0
   10.4424  -18.2269   28.5686 O   0  0  0  0  0  0  0  0  0  0  0  0
  2  3  2  0
  2  1  1  0
  4  3  1  0
  5  4  2  0
  6  7  1  0
  6  5  1  0
  7  8  1  6
  9  7  1  0
  9 13  1  0
 10  9  2  0
 11  5  1  0
 11 12  2  0
 12  2  1  0
 14 13  1  0
 15 14  1  0
 15 16  2  0
 17 18  1  0
 17 15  1  0
 18 19  1  1
 20 19  1  0
 20 21  2  0
 22 21  1  0
 23 22  1  0
 24 23  2  0
 24 20  1  0
 25 18  1  0
 26 25  1  0
 27 25  2  0
M  END
$$$$
