YGH.pdb
     RDKit          3D

 27 28  0  0  1  0  0  0  0  0999 V2000
    5.5387  -10.2607   27.0901 O   0  0  0  0  0  0  0  0  0  0  0  0
    5.9288  -11.3082   26.2710 C   0  0  0  0  0  0  0  0  0  0  0  0
    6.6673  -11.1186   25.1160 C   0  0  0  0  0  0  0  0  0  0  0  0
    7.0387  -12.1848   24.3237 C   0  0  0  0  0  0  0  0  0  0  0  0
    6.6785  -13.4552   24.6725 C   0  0  0  0  0  0  0  0  0  0  0  0
    7.0469  -14.6522   23.8612 C   0  0  0  0  0  0  0  0  0  0  0  0
    8.0105  -15.4686   24.6759 C   0  0  2  0  0  0  0  0  0  0  0  0
    9.2260  -14.7078   24.8581 N   0  0  0  0  0  0  0  0  0  0  0  0
    8.3085  -16.7789   24.1170 C   0  0  0  0  0  0  0  0  0  0  0  0
    7.3650  -17.5798   23.9017 O   0  0  0  0  0  0  0  0  0  0  0  0
    5.9367  -13.6248   25.8365 C   0  0  0  0  0  0  0  0  0  0  0  0
    5.5584  -12.5873   26.6347 C   0  0  0  0  0  0  0  0  0  0  0  0
    9.6082  -17.2181   23.7951 N   0  0  0  0  0  0  0  0  0  0  0  0
    9.9257  -18.6101   23.5235 C   0  0  0  0  0  0  0  0  0  0  0  0
   10.0286  -19.3892   24.7836 C   0  0  0  0  0  0  0  0  0  0  0  0
    8.9779  -19.7330   25.3647 O   0  0  0  0  0  0  0  0  0  0  0  0
   11.2826  -19.7486   25.3370 N   0  0  0  0  0  0  0  0  0  0  0  0
   11.3634  -20.4776   26.6305 C   0  0  1  0  0  0  0  0  0  0  0  0
   11.9317  -21.8280   26.4145 C   0  0  0  0  0  0  0  0  0  0  0  0
   11.0344  -22.8103   25.7819 C   0  0  0  0  0  0  0  0  0  0  0  0
    9.7412  -22.7567   25.3468 C   0  0  0  0  0  0  0  0  0  0  0  0
    9.4787  -23.9607   24.7833 N   0  0  0  0  0  0  0  0  0  0  0  0
   10.5551  -24.7510   24.8523 C   0  0  0  0  0  0  0  0  0  0  0  0
   11.5139  -24.0571   25.4613 N   0  0  0  0  0  0  0  0  0  0  0  0
   12.2524  -19.6321   27.5146 C   0  0  0  0  0  0  0  0  0  0  0  0
   12.9948  -18.5793   26.9619 O   0  0  0  0  0  0  0  0  0  0  0  0
   12.3494  -19.8335   28.7054 O   0  0  0  0  0  0  0  0  0  0  0  0
  2  3  2  0
  2  1  1  0
  4  3  1  0
  5  4  2  0
  6  7  1  0
  6  5  1  0
  7  8  1  6
  9  7  1  0
  9 13  1  0
 10  9  2  0
 11  5  1  0
 11 12  2  0
 12  2  1  0
 14 13  1  0
 15 14  1  0
 15 16  2  0
 17 18  1  0
 17 15  1  0
 18 19  1  6
 20 19  1  0
 20 21  2  0
 22 21  1  0
 23 22  1  0
 24 23  2  0
 24 20  1  0
 25 18  1  0
 26 25  1  0
 27 25  2  0
M  END
$$$$
