YGH.pdb
     RDKit          3D

 27 28  0  0  1  0  0  0  0  0999 V2000
    7.6420  -13.9929   22.8411 O   0  0  0  0  0  0  0  0  0  0  0  0
    7.8606  -13.7787   21.4896 C   0  0  0  0  0  0  0  0  0  0  0  0
    7.2602  -14.5439   20.5049 C   0  0  0  0  0  0  0  0  0  0  0  0
    7.5005  -14.3028   19.1684 C   0  0  0  0  0  0  0  0  0  0  0  0
    8.3431  -13.2948   18.7952 C   0  0  0  0  0  0  0  0  0  0  0  0
    8.6466  -12.9805   17.3682 C   0  0  0  0  0  0  0  0  0  0  0  0
    9.1679  -14.2383   16.7317 C   0  0  2  0  0  0  0  0  0  0  0  0
    8.0921  -15.2007   16.6549 N   0  0  0  0  0  0  0  0  0  0  0  0
   10.3220  -14.8167   17.4037 C   0  0  0  0  0  0  0  0  0  0  0  0
   10.2080  -15.9393   17.9558 O   0  0  0  0  0  0  0  0  0  0  0  0
    8.9364  -12.5373   19.7993 C   0  0  0  0  0  0  0  0  0  0  0  0
    8.7144  -12.7568   21.1256 C   0  0  0  0  0  0  0  0  0  0  0  0
   11.5822  -14.1907   17.4782 N   0  0  0  0  0  0  0  0  0  0  0  0
   12.7720  -14.8684   17.9658 C   0  0  0  0  0  0  0  0  0  0  0  0
   12.7255  -15.0323   19.4410 C   0  0  0  0  0  0  0  0  0  0  0  0
   13.3716  -14.2364   20.1544 O   0  0  0  0  0  0  0  0  0  0  0  0
   11.9703  -16.0636   20.0526 N   0  0  0  0  0  0  0  0  0  0  0  0
   11.9427  -16.2125   21.5319 C   0  0  1  0  0  0  0  0  0  0  0  0
   10.6804  -16.8641   21.9504 C   0  0  0  0  0  0  0  0  0  0  0  0
   10.1846  -16.5057   23.2905 C   0  0  0  0  0  0  0  0  0  0  0  0
   10.6984  -15.7616   24.3136 C   0  0  0  0  0  0  0  0  0  0  0  0
    9.7460  -15.7291   25.2768 N   0  0  0  0  0  0  0  0  0  0  0  0
    8.6688  -16.4200   24.8890 C   0  0  0  0  0  0  0  0  0  0  0  0
    8.9258  -16.8997   23.6743 N   0  0  0  0  0  0  0  0  0  0  0  0
   13.1485  -17.0585   21.8742 C   0  0  0  0  0  0  0  0  0  0  0  0
   13.8782  -16.8004   23.0429 O   0  0  0  0  0  0  0  0  0  0  0  0
   13.5152  -17.9685   21.1632 O   0  0  0  0  0  0  0  0  0  0  0  0
  2  3  2  0
  2  1  1  0
  4  3  1  0
  5  4  2  0
  6  7  1  0
  6  5  1  0
  7  8  1  1
  9  7  1  0
  9 13  1  0
 10  9  2  0
 11  5  1  0
 11 12  2  0
 12  2  1  0
 14 13  1  0
 15 14  1  0
 15 16  2  0
 17 18  1  0
 17 15  1  0
 18 19  1  6
 20 19  1  0
 20 21  2  0
 22 21  1  0
 23 22  1  0
 24 23  2  0
 24 20  1  0
 25 18  1  0
 26 25  1  0
 27 25  2  0
M  END
$$$$
