YGH.pdb
     RDKit          3D

 27 28  0  0  1  0  0  0  0  0999 V2000
    7.2727  -12.6607   27.2760 O   0  0  0  0  0  0  0  0  0  0  0  0
    7.2356  -13.2107   26.0046 C   0  0  0  0  0  0  0  0  0  0  0  0
    6.5737  -14.3926   25.7207 C   0  0  0  0  0  0  0  0  0  0  0  0
    6.5571  -14.9117   24.4430 C   0  0  0  0  0  0  0  0  0  0  0  0
    7.2006  -14.2591   23.4304 C   0  0  0  0  0  0  0  0  0  0  0  0
    7.2222  -14.7651   22.0267 C   0  0  0  0  0  0  0  0  0  0  0  0
    7.6852  -16.1943   22.0709 C   0  0  2  0  0  0  0  0  0  0  0  0
    6.5972  -17.0210   22.5422 N   0  0  0  0  0  0  0  0  0  0  0  0
    8.8777  -16.4138   22.8758 C   0  0  0  0  0  0  0  0  0  0  0  0
    8.8678  -17.3178   23.7480 O   0  0  0  0  0  0  0  0  0  0  0  0
    7.8598  -13.0732   23.7359 C   0  0  0  0  0  0  0  0  0  0  0  0
    7.8899  -12.5413   24.9900 C   0  0  0  0  0  0  0  0  0  0  0  0
   10.0648  -15.6667   22.7403 N   0  0  0  0  0  0  0  0  0  0  0  0
   11.3776  -16.2826   22.6432 C   0  0  0  0  0  0  0  0  0  0  0  0
   11.8765  -16.6885   23.9817 C   0  0  0  0  0  0  0  0  0  0  0  0
   13.0368  -17.1406   24.0786 O   0  0  0  0  0  0  0  0  0  0  0  0
   11.0718  -16.5753   25.1426 N   0  0  0  0  0  0  0  0  0  0  0  0
   11.5350  -17.1201   26.4464 C   0  0  1  0  0  0  0  0  0  0  0  0
   10.5152  -16.8674   27.4902 C   0  0  0  0  0  0  0  0  0  0  0  0
   10.2526  -15.4523   27.8042 C   0  0  0  0  0  0  0  0  0  0  0  0
   10.7579  -14.2759   27.3295 C   0  0  0  0  0  0  0  0  0  0  0  0
   10.0733  -13.2875   27.9543 N   0  0  0  0  0  0  0  0  0  0  0  0
    9.1684  -13.8059   28.7912 C   0  0  0  0  0  0  0  0  0  0  0  0
    9.2689  -15.1306   28.7075 N   0  0  0  0  0  0  0  0  0  0  0  0
   11.7418  -18.6000   26.2139 C   0  0  0  0  0  0  0  0  0  0  0  0
   12.5737  -19.3354   27.0696 O   0  0  0  0  0  0  0  0  0  0  0  0
   11.2057  -19.1857   25.2988 O   0  0  0  0  0  0  0  0  0  0  0  0
  2  3  2  0
  2  1  1  0
  4  3  1  0
  5  4  2  0
  6  7  1  0
  6  5  1  0
  7  8  1  1
  9  7  1  0
  9 13  1  0
 10  9  2  0
 11  5  1  0
 11 12  2  0
 12  2  1  0
 14 13  1  0
 15 14  1  0
 15 16  2  0
 17 18  1  0
 17 15  1  0
 18 19  1  1
 20 19  1  0
 20 21  2  0
 22 21  1  0
 23 22  1  0
 24 23  2  0
 24 20  1  0
 25 18  1  0
 26 25  1  0
 27 25  2  0
M  END
$$$$
