YGH.pdb
     RDKit          3D

 27 28  0  0  1  0  0  0  0  0999 V2000
   10.4048  -12.0991   18.9050 O   0  0  0  0  0  0  0  0  0  0  0  0
    9.5123  -13.1563   18.8290 C   0  0  0  0  0  0  0  0  0  0  0  0
    9.8884  -14.4240   18.4202 C   0  0  0  0  0  0  0  0  0  0  0  0
    8.9731  -15.4538   18.3562 C   0  0  0  0  0  0  0  0  0  0  0  0
    7.6696  -15.2335   18.6993 C   0  0  0  0  0  0  0  0  0  0  0  0
    6.6290  -16.3021   18.6528 C   0  0  0  0  0  0  0  0  0  0  0  0
    6.8231  -17.1718   19.8632 C   0  0  2  0  0  0  0  0  0  0  0  0
    6.0675  -16.6142   20.9621 N   0  0  0  0  0  0  0  0  0  0  0  0
    8.2138  -17.3641   20.2468 C   0  0  0  0  0  0  0  0  0  0  0  0
    8.9695  -18.0253   19.4920 O   0  0  0  0  0  0  0  0  0  0  0  0
    7.3116  -13.9532   19.1074 C   0  0  0  0  0  0  0  0  0  0  0  0
    8.1978  -12.9206   19.1785 C   0  0  0  0  0  0  0  0  0  0  0  0
    8.7803  -16.8492   21.4298 N   0  0  0  0  0  0  0  0  0  0  0  0
   10.1846  -17.0112   21.7673 C   0  0  0  0  0  0  0  0  0  0  0  0
   10.4277  -16.7040   23.1998 C   0  0  0  0  0  0  0  0  0  0  0  0
   11.5520  -16.2803   23.5409 O   0  0  0  0  0  0  0  0  0  0  0  0
    9.4202  -16.8794   24.1807 N   0  0  0  0  0  0  0  0  0  0  0  0
    9.6569  -16.4842   25.5946 C   0  0  1  0  0  0  0  0  0  0  0  0
    8.3735  -16.1241   26.2399 C   0  0  0  0  0  0  0  0  0  0  0  0
    7.7276  -14.8954   25.7467 C   0  0  0  0  0  0  0  0  0  0  0  0
    8.0841  -13.9518   24.8264 C   0  0  0  0  0  0  0  0  0  0  0  0
    7.0453  -13.0854   24.7470 N   0  0  0  0  0  0  0  0  0  0  0  0
    6.0656  -13.4568   25.5778 C   0  0  0  0  0  0  0  0  0  0  0  0
    6.4720  -14.5640   26.1949 N   0  0  0  0  0  0  0  0  0  0  0  0
   10.2924  -17.6903   26.2490 C   0  0  0  0  0  0  0  0  0  0  0  0
   10.7174  -17.6227   27.5831 O   0  0  0  0  0  0  0  0  0  0  0  0
   10.4513  -18.7332   25.6529 O   0  0  0  0  0  0  0  0  0  0  0  0
  2  3  2  0
  2  1  1  0
  4  3  1  0
  5  4  2  0
  6  7  1  0
  6  5  1  0
  7  8  1  1
  9  7  1  0
  9 13  1  0
 10  9  2  0
 11  5  1  0
 11 12  2  0
 12  2  1  0
 14 13  1  0
 15 14  1  0
 15 16  2  0
 17 18  1  0
 17 15  1  0
 18 19  1  1
 20 19  1  0
 20 21  2  0
 22 21  1  0
 23 22  1  0
 24 23  2  0
 24 20  1  0
 25 18  1  0
 26 25  1  0
 27 25  2  0
M  END
$$$$
