YGH.pdb
     RDKit          3D

 27 28  0  0  1  0  0  0  0  0999 V2000
    6.5472  -10.5085   27.7673 O   0  0  0  0  0  0  0  0  0  0  0  0
    6.7445  -11.7186   27.1215 C   0  0  0  0  0  0  0  0  0  0  0  0
    7.9885  -12.3164   27.0180 C   0  0  0  0  0  0  0  0  0  0  0  0
    8.1487  -13.5221   26.3677 C   0  0  0  0  0  0  0  0  0  0  0  0
    7.0700  -14.1485   25.8115 C   0  0  0  0  0  0  0  0  0  0  0  0
    7.1730  -15.4533   25.0945 C   0  0  0  0  0  0  0  0  0  0  0  0
    8.3882  -15.3870   24.2125 C   0  0  2  0  0  0  0  0  0  0  0  0
    8.2481  -14.2653   23.3117 N   0  0  0  0  0  0  0  0  0  0  0  0
    8.6559  -16.6083   23.4676 C   0  0  0  0  0  0  0  0  0  0  0  0
    8.7891  -17.6889   24.0941 O   0  0  0  0  0  0  0  0  0  0  0  0
    5.8288  -13.5319   25.9262 C   0  0  0  0  0  0  0  0  0  0  0  0
    5.6462  -12.3415   26.5636 C   0  0  0  0  0  0  0  0  0  0  0  0
    8.7779  -16.6615   22.0647 N   0  0  0  0  0  0  0  0  0  0  0  0
    9.1271  -17.8772   21.3489 C   0  0  0  0  0  0  0  0  0  0  0  0
   10.5942  -18.1062   21.3706 C   0  0  0  0  0  0  0  0  0  0  0  0
   11.0660  -19.0433   20.6929 O   0  0  0  0  0  0  0  0  0  0  0  0
   11.4641  -17.2916   22.1371 N   0  0  0  0  0  0  0  0  0  0  0  0
   12.9316  -17.5320   22.1350 C   0  0  1  0  0  0  0  0  0  0  0  0
   13.6463  -16.2893   21.7631 C   0  0  0  0  0  0  0  0  0  0  0  0
   13.4508  -15.8240   20.3791 C   0  0  0  0  0  0  0  0  0  0  0  0
   12.7336  -16.3025   19.3203 C   0  0  0  0  0  0  0  0  0  0  0  0
   12.8840  -15.4012   18.3198 N   0  0  0  0  0  0  0  0  0  0  0  0
   13.6615  -14.3891   18.7188 C   0  0  0  0  0  0  0  0  0  0  0  0
   14.0141  -14.6370   19.9781 N   0  0  0  0  0  0  0  0  0  0  0  0
   13.2698  -17.9714   23.5419 C   0  0  0  0  0  0  0  0  0  0  0  0
   12.2681  -18.0221   24.5214 O   0  0  0  0  0  0  0  0  0  0  0  0
   14.3950  -18.2876   23.8612 O   0  0  0  0  0  0  0  0  0  0  0  0
  2  3  2  0
  2  1  1  0
  4  3  1  0
  5  4  2  0
  6  7  1  0
  6  5  1  0
  7  8  1  6
  9  7  1  0
  9 13  1  0
 10  9  2  0
 11  5  1  0
 11 12  2  0
 12  2  1  0
 14 13  1  0
 15 14  1  0
 15 16  2  0
 17 18  1  0
 17 15  1  0
 18 19  1  1
 20 19  1  0
 20 21  2  0
 22 21  1  0
 23 22  1  0
 24 23  2  0
 24 20  1  0
 25 18  1  0
 26 25  1  0
 27 25  2  0
M  END
$$$$
