YGH.pdb
     RDKit          3D

 27 28  0  0  1  0  0  0  0  0999 V2000
    5.8926  -11.0894   27.9781 O   0  0  0  0  0  0  0  0  0  0  0  0
    6.2582  -11.8282   26.8642 C   0  0  0  0  0  0  0  0  0  0  0  0
    5.7428  -13.0850   26.5989 C   0  0  0  0  0  0  0  0  0  0  0  0
    6.1292  -13.7929   25.4800 C   0  0  0  0  0  0  0  0  0  0  0  0
    7.0353  -13.2569   24.6099 C   0  0  0  0  0  0  0  0  0  0  0  0
    7.4962  -13.9682   23.3817 C   0  0  0  0  0  0  0  0  0  0  0  0
    8.2093  -15.2149   23.8248 C   0  0  2  0  0  0  0  0  0  0  0  0
    9.2210  -14.8529   24.7916 N   0  0  0  0  0  0  0  0  0  0  0  0
    8.7947  -15.9887   22.7401 C   0  0  0  0  0  0  0  0  0  0  0  0
    8.0438  -16.4509   21.8453 O   0  0  0  0  0  0  0  0  0  0  0  0
    7.5415  -11.9931   24.8941 C   0  0  0  0  0  0  0  0  0  0  0  0
    7.1748  -11.2753   25.9926 C   0  0  0  0  0  0  0  0  0  0  0  0
   10.1726  -16.2594   22.6235 N   0  0  0  0  0  0  0  0  0  0  0  0
   10.7285  -17.0768   21.5581 C   0  0  0  0  0  0  0  0  0  0  0  0
   11.2480  -18.3630   22.0884 C   0  0  0  0  0  0  0  0  0  0  0  0
   10.5311  -19.3820   22.0012 O   0  0  0  0  0  0  0  0  0  0  0  0
   12.5290  -18.4592   22.6864 N   0  0  0  0  0  0  0  0  0  0  0  0
   13.0207  -19.7533   23.2296 C   0  0  1  0  0  0  0  0  0  0  0  0
   14.1972  -20.2115   22.4555 C   0  0  0  0  0  0  0  0  0  0  0  0
   13.9443  -20.5616   21.0471 C   0  0  0  0  0  0  0  0  0  0  0  0
   12.8455  -20.4757   20.2410 C   0  0  0  0  0  0  0  0  0  0  0  0
   13.2414  -20.8868   19.0121 N   0  0  0  0  0  0  0  0  0  0  0  0
   14.5363  -21.2201   19.0281 C   0  0  0  0  0  0  0  0  0  0  0  0
   14.9772  -21.0247   20.2688 N   0  0  0  0  0  0  0  0  0  0  0  0
   13.3752  -19.4755   24.6732 C   0  0  0  0  0  0  0  0  0  0  0  0
   13.2429  -18.1798   25.1917 O   0  0  0  0  0  0  0  0  0  0  0  0
   13.7770  -20.3467   25.4132 O   0  0  0  0  0  0  0  0  0  0  0  0
  2  3  2  0
  2  1  1  0
  4  3  1  0
  5  4  2  0
  6  7  1  0
  6  5  1  0
  7  8  1  1
  9  7  1  0
  9 13  1  0
 10  9  2  0
 11  5  1  0
 11 12  2  0
 12  2  1  0
 14 13  1  0
 15 14  1  0
 15 16  2  0
 17 18  1  0
 17 15  1  0
 18 19  1  6
 20 19  1  0
 20 21  2  0
 22 21  1  0
 23 22  1  0
 24 23  2  0
 24 20  1  0
 25 18  1  0
 26 25  1  0
 27 25  2  0
M  END
$$$$
