YGH.pdb
     RDKit          3D

 27 28  0  0  1  0  0  0  0  0999 V2000
    7.8893  -11.2748   19.8102 O   0  0  0  0  0  0  0  0  0  0  0  0
    7.6354  -12.4253   20.5397 C   0  0  0  0  0  0  0  0  0  0  0  0
    7.4648  -13.6640   19.9464 C   0  0  0  0  0  0  0  0  0  0  0  0
    7.2133  -14.7891   20.7035 C   0  0  0  0  0  0  0  0  0  0  0  0
    7.1283  -14.6943   22.0633 C   0  0  0  0  0  0  0  0  0  0  0  0
    6.8588  -15.8707   22.9411 C   0  0  0  0  0  0  0  0  0  0  0  0
    8.1811  -16.5173   23.2451 C   0  0  2  0  0  0  0  0  0  0  0  0
    8.6101  -17.2658   22.0853 N   0  0  0  0  0  0  0  0  0  0  0  0
    8.1757  -17.3671   24.4266 C   0  0  0  0  0  0  0  0  0  0  0  0
    7.7518  -16.8998   25.5129 O   0  0  0  0  0  0  0  0  0  0  0  0
    7.3026  -13.4411   22.6405 C   0  0  0  0  0  0  0  0  0  0  0  0
    7.5519  -12.3160   21.9133 C   0  0  0  0  0  0  0  0  0  0  0  0
    8.6221  -18.7036   24.4344 N   0  0  0  0  0  0  0  0  0  0  0  0
    8.7196  -19.4955   25.6492 C   0  0  0  0  0  0  0  0  0  0  0  0
    9.9509  -19.1588   26.4079 C   0  0  0  0  0  0  0  0  0  0  0  0
   11.0350  -19.6642   26.0486 O   0  0  0  0  0  0  0  0  0  0  0  0
    9.9236  -18.2834   27.5219 N   0  0  0  0  0  0  0  0  0  0  0  0
   11.1580  -18.0067   28.3035 C   0  0  1  0  0  0  0  0  0  0  0  0
   11.0200  -16.7222   29.0276 C   0  0  0  0  0  0  0  0  0  0  0  0
   10.6661  -15.5536   28.2034 C   0  0  0  0  0  0  0  0  0  0  0  0
   10.7317  -15.2946   26.8644 C   0  0  0  0  0  0  0  0  0  0  0  0
   10.1938  -14.0636   26.6875 N   0  0  0  0  0  0  0  0  0  0  0  0
    9.7992  -13.5558   27.8600 C   0  0  0  0  0  0  0  0  0  0  0  0
   10.0831  -14.4595   28.7952 N   0  0  0  0  0  0  0  0  0  0  0  0
   11.3015  -19.1725   29.2560 C   0  0  0  0  0  0  0  0  0  0  0  0
   10.1619  -19.8436   29.7208 O   0  0  0  0  0  0  0  0  0  0  0  0
   12.3847  -19.5562   29.6402 O   0  0  0  0  0  0  0  0  0  0  0  0
  2  3  2  0
  2  1  1  0
  4  3  1  0
  5  4  2  0
  6  7  1  0
  6  5  1  0
  7  8  1  6
  9  7  1  0
  9 13  1  0
 10  9  2  0
 11  5  1  0
 11 12  2  0
 12  2  1  0
 14 13  1  0
 15 14  1  0
 15 16  2  0
 17 18  1  0
 17 15  1  0
 18 19  1  1
 20 19  1  0
 20 21  2  0
 22 21  1  0
 23 22  1  0
 24 23  2  0
 24 20  1  0
 25 18  1  0
 26 25  1  0
 27 25  2  0
M  END
$$$$
