YGH.pdb
     RDKit          3D

 27 28  0  0  1  0  0  0  0  0999 V2000
    5.5688  -11.2083   27.0233 O   0  0  0  0  0  0  0  0  0  0  0  0
    6.0762  -12.1282   26.1197 C   0  0  0  0  0  0  0  0  0  0  0  0
    5.7409  -13.4706   26.1520 C   0  0  0  0  0  0  0  0  0  0  0  0
    6.2650  -14.3590   25.2364 C   0  0  0  0  0  0  0  0  0  0  0  0
    7.1312  -13.9207   24.2756 C   0  0  0  0  0  0  0  0  0  0  0  0
    7.7344  -14.8277   23.2555 C   0  0  0  0  0  0  0  0  0  0  0  0
    8.6970  -15.7329   23.9716 C   0  0  2  0  0  0  0  0  0  0  0  0
    9.4479  -14.9502   24.9271 N   0  0  0  0  0  0  0  0  0  0  0  0
    9.5972  -16.4659   23.0938 C   0  0  0  0  0  0  0  0  0  0  0  0
    9.1311  -17.3747   22.3624 O   0  0  0  0  0  0  0  0  0  0  0  0
    7.4556  -12.5685   24.2598 C   0  0  0  0  0  0  0  0  0  0  0  0
    6.9506  -11.6724   25.1535 C   0  0  0  0  0  0  0  0  0  0  0  0
   10.9820  -16.2204   23.0073 N   0  0  0  0  0  0  0  0  0  0  0  0
   11.9711  -17.2848   22.9719 C   0  0  0  0  0  0  0  0  0  0  0  0
   12.3862  -17.6729   24.3439 C   0  0  0  0  0  0  0  0  0  0  0  0
   13.6030  -17.8192   24.5845 O   0  0  0  0  0  0  0  0  0  0  0  0
   11.4399  -17.8792   25.3782 N   0  0  0  0  0  0  0  0  0  0  0  0
   11.8798  -18.2433   26.7513 C   0  0  1  0  0  0  0  0  0  0  0  0
   10.9804  -17.6225   27.7509 C   0  0  0  0  0  0  0  0  0  0  0  0
   10.9055  -16.1515   27.7235 C   0  0  0  0  0  0  0  0  0  0  0  0
   11.5984  -15.1886   27.0474 C   0  0  0  0  0  0  0  0  0  0  0  0
   11.0286  -14.0050   27.3796 N   0  0  0  0  0  0  0  0  0  0  0  0
   10.0148  -14.1994   28.2296 C   0  0  0  0  0  0  0  0  0  0  0  0
    9.9299  -15.5098   28.4471 N   0  0  0  0  0  0  0  0  0  0  0  0
   11.8192  -19.7533   26.8066 C   0  0  0  0  0  0  0  0  0  0  0  0
   10.9169  -20.4499   25.9907 O   0  0  0  0  0  0  0  0  0  0  0  0
   12.5345  -20.3965   27.5432 O   0  0  0  0  0  0  0  0  0  0  0  0
  2  3  2  0
  2  1  1  0
  4  3  1  0
  5  4  2  0
  6  7  1  0
  6  5  1  0
  7  8  1  1
  9  7  1  0
  9 13  1  0
 10  9  2  0
 11  5  1  0
 11 12  2  0
 12  2  1  0
 14 13  1  0
 15 14  1  0
 15 16  2  0
 17 18  1  0
 17 15  1  0
 18 19  1  1
 20 19  1  0
 20 21  2  0
 22 21  1  0
 23 22  1  0
 24 23  2  0
 24 20  1  0
 25 18  1  0
 26 25  1  0
 27 25  2  0
M  END
$$$$
