YGH.pdb
     RDKit          3D

 27 28  0  0  1  0  0  0  0  0999 V2000
    5.2114  -10.4651   25.4647 O   0  0  0  0  0  0  0  0  0  0  0  0
    5.9591  -11.6280   25.5582 C   0  0  0  0  0  0  0  0  0  0  0  0
    5.9534  -12.4315   26.6852 C   0  0  0  0  0  0  0  0  0  0  0  0
    6.7103  -13.5830   26.7441 C   0  0  0  0  0  0  0  0  0  0  0  0
    7.4836  -13.9492   25.6796 C   0  0  0  0  0  0  0  0  0  0  0  0
    8.3257  -15.1812   25.6771 C   0  0  0  0  0  0  0  0  0  0  0  0
    7.8138  -16.0737   24.5815 C   0  0  2  0  0  0  0  0  0  0  0  0
    6.4830  -16.5188   24.9283 N   0  0  0  0  0  0  0  0  0  0  0  0
    8.6709  -17.2122   24.2857 C   0  0  0  0  0  0  0  0  0  0  0  0
    8.3398  -18.3502   24.7017 O   0  0  0  0  0  0  0  0  0  0  0  0
    7.4757  -13.1288   24.5567 C   0  0  0  0  0  0  0  0  0  0  0  0
    6.7365  -11.9871   24.4754 C   0  0  0  0  0  0  0  0  0  0  0  0
    9.8695  -17.1222   23.5502 N   0  0  0  0  0  0  0  0  0  0  0  0
   10.8184  -18.2187   23.4513 C   0  0  0  0  0  0  0  0  0  0  0  0
   11.5968  -18.3653   24.7075 C   0  0  0  0  0  0  0  0  0  0  0  0
   12.7956  -18.7082   24.6347 O   0  0  0  0  0  0  0  0  0  0  0  0
   11.0143  -18.1266   25.9770 N   0  0  0  0  0  0  0  0  0  0  0  0
   11.8361  -18.1847   27.2150 C   0  0  1  0  0  0  0  0  0  0  0  0
   11.0983  -17.5663   28.3404 C   0  0  0  0  0  0  0  0  0  0  0  0
   10.5542  -16.2203   28.0910 C   0  0  0  0  0  0  0  0  0  0  0  0
   10.6350  -15.3553   27.0375 C   0  0  0  0  0  0  0  0  0  0  0  0
    9.8642  -14.2887   27.3603 N   0  0  0  0  0  0  0  0  0  0  0  0
    9.3123  -14.4617   28.5659 C   0  0  0  0  0  0  0  0  0  0  0  0
    9.7274  -15.6411   29.0227 N   0  0  0  0  0  0  0  0  0  0  0  0
   12.0957  -19.6546   27.4575 C   0  0  0  0  0  0  0  0  0  0  0  0
   11.4736  -20.6194   26.6528 O   0  0  0  0  0  0  0  0  0  0  0  0
   12.8351  -20.0379   28.3375 O   0  0  0  0  0  0  0  0  0  0  0  0
  2  3  2  0
  2  1  1  0
  4  3  1  0
  5  4  2  0
  6  7  1  0
  6  5  1  0
  7  8  1  1
  9  7  1  0
  9 13  1  0
 10  9  2  0
 11  5  1  0
 11 12  2  0
 12  2  1  0
 14 13  1  0
 15 14  1  0
 15 16  2  0
 17 18  1  0
 17 15  1  0
 18 19  1  1
 20 19  1  0
 20 21  2  0
 22 21  1  0
 23 22  1  0
 24 23  2  0
 24 20  1  0
 25 18  1  0
 26 25  1  0
 27 25  2  0
M  END
$$$$
