MRC.pdb
     RDKit          3D

 26 25  0  0  1  0  0  0  0  0999 V2000
    8.1930  -11.3899   20.4152 C   0  0  0  0  0  0  0  0  0  0  0  0
    7.5271  -12.3049   19.0000 S   0  0  0  0  0  0  0  0  0  0  0  0
    8.1056  -14.0229   19.0294 C   0  0  0  0  0  0  0  0  0  0  0  0
    8.1906  -14.5536   20.4427 C   0  0  0  0  0  0  0  0  0  0  0  0
    8.6211  -16.0036   20.4731 C   0  0  2  0  0  0  0  0  0  0  0  0
    7.6712  -16.8573   19.8071 N   0  0  0  0  0  0  0  0  0  0  0  0
    8.8255  -16.4924   21.8528 C   0  0  0  0  0  0  0  0  0  0  0  0
    7.8426  -16.6195   22.6035 O   0  0  0  0  0  0  0  0  0  0  0  0
   10.7150  -21.9511   23.8554 N   0  0  0  0  0  0  0  0  0  0  0  0
   11.8569  -22.1756   23.0364 C   0  0  0  0  0  0  0  0  0  0  0  0
   11.8922  -23.2450   22.2775 N   0  0  0  0  0  0  0  0  0  0  0  0
   12.9522  -21.2762   23.0205 N   0  0  0  0  0  0  0  0  0  0  0  0
   12.8240  -20.0083   23.6567 C   0  0  0  0  0  0  0  0  0  0  0  0
   11.5297  -19.2967   23.3171 C   0  0  0  0  0  0  0  0  0  0  0  0
   11.5250  -17.9685   24.0236 C   0  0  0  0  0  0  0  0  0  0  0  0
   10.3300  -17.1163   23.7405 C   0  0  2  0  0  0  0  0  0  0  0  0
   10.1379  -16.8262   22.3517 N   0  0  0  0  0  0  0  0  0  0  0  0
   10.3153  -15.8656   24.5754 C   0  0  0  0  0  0  0  0  0  0  0  0
   10.9840  -14.8558   24.2321 O   0  0  0  0  0  0  0  0  0  0  0  0
   12.7054  -23.4169   21.6627 N   0  0  0  0  0  0  0  0  0  0  0  0
    9.5379  -15.8247   25.7644 C   0  0  2  0  0  0  0  0  0  0  0  0
    9.5690  -14.6570   26.6223 C   0  0  0  0  0  0  0  0  0  0  0  0
    8.2043  -14.0242   26.7515 S   0  0  0  0  0  0  0  0  0  0  0  0
    8.3806  -12.6089   27.8811 C   0  0  0  0  0  0  0  0  0  0  0  0
   10.0235  -15.0104   27.9914 O   0  0  0  0  0  0  0  0  0  0  0  0
   10.3031  -13.9797   28.8755 O   0  0  0  0  0  0  0  0  0  0  0  0
  2  1  1  0
  3  4  1  0
  3  2  1  0
  4  5  1  0
  5  7  1  0
  5  6  1  1
  7  8  2  0
 10 12  1  0
 10  9  1  0
 11 10  2  0
 13 14  1  0
 13 12  1  0
 14 15  1  0
 16 15  1  6
 17  7  1  0
 17 16  1  0
 18 19  2  0
 18 16  1  0
 20 18  1  0
 21 20  1  0
 21 22  1  1
 23 22  1  0
 24 25  1  0
 24 21  1  0
 26 24  2  0
M  END
$$$$
