MRC.pdb
     RDKit          3D

 26 25  0  0  1  0  0  0  0  0999 V2000
    7.1765  -11.6545   26.7584 C   0  0  0  0  0  0  0  0  0  0  0  0
    6.2932  -12.8688   27.7728 S   0  0  0  0  0  0  0  0  0  0  0  0
    5.7749  -14.2807   26.7603 C   0  0  0  0  0  0  0  0  0  0  0  0
    6.8466  -14.6726   25.7682 C   0  0  0  0  0  0  0  0  0  0  0  0
    6.3866  -15.7890   24.8566 C   0  0  2  0  0  0  0  0  0  0  0  0
    6.0637  -16.9830   25.5948 N   0  0  0  0  0  0  0  0  0  0  0  0
    7.3956  -16.1155   23.8274 C   0  0  0  0  0  0  0  0  0  0  0  0
    7.8879  -17.2570   23.8005 O   0  0  0  0  0  0  0  0  0  0  0  0
    7.1662  -14.5373   17.3111 N   0  0  0  0  0  0  0  0  0  0  0  0
    8.4840  -14.0074   17.3972 C   0  0  0  0  0  0  0  0  0  0  0  0
    9.3752  -14.3770   16.5084 N   0  0  0  0  0  0  0  0  0  0  0  0
    8.8560  -13.0941   18.4153 N   0  0  0  0  0  0  0  0  0  0  0  0
    7.9113  -12.7505   19.4244 C   0  0  0  0  0  0  0  0  0  0  0  0
    7.6213  -13.8868   20.3843 C   0  0  0  0  0  0  0  0  0  0  0  0
    8.9267  -14.5439   20.7418 C   0  0  0  0  0  0  0  0  0  0  0  0
    8.8590  -15.4664   21.9160 C   0  0  2  0  0  0  0  0  0  0  0  0
    7.8248  -15.1427   22.8516 N   0  0  0  0  0  0  0  0  0  0  0  0
   10.1925  -15.6191   22.5943 C   0  0  0  0  0  0  0  0  0  0  0  0
   11.2593  -15.5996   21.9263 O   0  0  0  0  0  0  0  0  0  0  0  0
   10.3364  -13.9987   16.5508 N   0  0  0  0  0  0  0  0  0  0  0  0
   10.2474  -15.7872   24.0044 C   0  0  1  0  0  0  0  0  0  0  0  0
   11.5207  -15.9619   24.6742 C   0  0  0  0  0  0  0  0  0  0  0  0
   11.4166  -15.6743   26.1526 S   0  0  0  0  0  0  0  0  0  0  0  0
   10.5771  -14.0691   26.3229 C   0  0  0  0  0  0  0  0  0  0  0  0
   12.0156  -17.3548   24.5288 O   0  0  0  0  0  0  0  0  0  0  0  0
   11.2064  -18.2731   23.8777 O   0  0  0  0  0  0  0  0  0  0  0  0
  2  1  1  0
  3  4  1  0
  3  2  1  0
  4  5  1  0
  5  7  1  0
  5  6  1  1
  7  8  2  0
 10 12  1  0
 10  9  1  0
 11 10  2  0
 13 14  1  0
 13 12  1  0
 14 15  1  0
 16 15  1  6
 17  7  1  0
 17 16  1  0
 18 19  2  0
 18 16  1  0
 20 18  1  0
 21 20  1  0
 21 22  1  6
 23 22  1  0
 24 25  1  0
 24 21  1  0
 26 24  2  0
M  END
$$$$
