MRC.pdb
     RDKit          3D

 26 25  0  0  1  0  0  0  0  0999 V2000
    7.0145  -11.0064   26.8014 C   0  0  0  0  0  0  0  0  0  0  0  0
    6.7272  -12.4819   27.8132 S   0  0  0  0  0  0  0  0  0  0  0  0
    6.1239  -13.8467   26.7834 C   0  0  0  0  0  0  0  0  0  0  0  0
    7.1923  -14.3351   25.8313 C   0  0  0  0  0  0  0  0  0  0  0  0
    6.6775  -15.4311   24.9242 C   0  0  2  0  0  0  0  0  0  0  0  0
    6.3095  -16.6098   25.6657 N   0  0  0  0  0  0  0  0  0  0  0  0
    7.6634  -15.8010   23.8872 C   0  0  0  0  0  0  0  0  0  0  0  0
    8.3133  -16.8532   24.0154 O   0  0  0  0  0  0  0  0  0  0  0  0
    7.2461  -15.2622   16.9765 N   0  0  0  0  0  0  0  0  0  0  0  0
    8.1432  -14.1848   16.7325 C   0  0  0  0  0  0  0  0  0  0  0  0
    8.7363  -14.1057   15.5651 N   0  0  0  0  0  0  0  0  0  0  0  0
    8.4106  -13.1994   17.7155 N   0  0  0  0  0  0  0  0  0  0  0  0
    7.6687  -13.2065   18.9314 C   0  0  0  0  0  0  0  0  0  0  0  0
    7.7954  -14.5054   19.7018 C   0  0  0  0  0  0  0  0  0  0  0  0
    8.9901  -14.3979   20.6099 C   0  0  0  0  0  0  0  0  0  0  0  0
    8.9429  -15.2882   21.8097 C   0  0  2  0  0  0  0  0  0  0  0  0
    7.8916  -14.9715   22.7285 N   0  0  0  0  0  0  0  0  0  0  0  0
   10.2754  -15.3781   22.5013 C   0  0  0  0  0  0  0  0  0  0  0  0
   10.9039  -14.3361   22.8235 O   0  0  0  0  0  0  0  0  0  0  0  0
    9.3838  -13.3250   15.3653 N   0  0  0  0  0  0  0  0  0  0  0  0
   10.8297  -16.6537   22.7934 C   0  0  1  0  0  0  0  0  0  0  0  0
   12.1689  -16.7656   23.3362 C   0  0  0  0  0  0  0  0  0  0  0  0
   12.2131  -17.6993   24.5218 S   0  0  0  0  0  0  0  0  0  0  0  0
   10.9616  -17.1137   25.7053 C   0  0  0  0  0  0  0  0  0  0  0  0
   13.1155  -17.2948   22.3214 O   0  0  0  0  0  0  0  0  0  0  0  0
   14.4522  -17.4117   22.6702 O   0  0  0  0  0  0  0  0  0  0  0  0
  2  1  1  0
  3  4  1  0
  3  2  1  0
  4  5  1  0
  5  7  1  0
  5  6  1  1
  7  8  2  0
 10 12  1  0
 10  9  1  0
 11 10  2  0
 13 14  1  0
 13 12  1  0
 14 15  1  0
 16 15  1  6
 17  7  1  0
 17 16  1  0
 18 19  2  0
 18 16  1  0
 20 18  1  0
 21 20  1  0
 21 22  1  1
 23 22  1  0
 24 25  1  0
 24 21  1  0
 26 24  2  0
M  END
$$$$
