MRC.pdb
     RDKit          3D

 26 25  0  0  1  0  0  0  0  0999 V2000
    8.0342  -11.4716   26.9195 C   0  0  0  0  0  0  0  0  0  0  0  0
    6.6091  -12.1498   27.8099 S   0  0  0  0  0  0  0  0  0  0  0  0
    6.1326  -13.7537   27.1117 C   0  0  0  0  0  0  0  0  0  0  0  0
    6.9348  -14.0771   25.8714 C   0  0  0  0  0  0  0  0  0  0  0  0
    6.4688  -15.3607   25.2202 C   0  0  2  0  0  0  0  0  0  0  0  0
    6.6142  -16.4906   26.1016 N   0  0  0  0  0  0  0  0  0  0  0  0
    7.1891  -15.6358   23.9594 C   0  0  0  0  0  0  0  0  0  0  0  0
    7.8671  -16.6735   23.8616 O   0  0  0  0  0  0  0  0  0  0  0  0
    7.9031  -13.1402   16.0053 N   0  0  0  0  0  0  0  0  0  0  0  0
    8.5999  -14.3669   16.1916 C   0  0  0  0  0  0  0  0  0  0  0  0
    9.6904  -14.5883   15.4968 N   0  0  0  0  0  0  0  0  0  0  0  0
    8.1468  -15.3511   17.1052 N   0  0  0  0  0  0  0  0  0  0  0  0
    7.5001  -14.9435   18.3070 C   0  0  0  0  0  0  0  0  0  0  0  0
    8.4379  -14.2802   19.2956 C   0  0  0  0  0  0  0  0  0  0  0  0
    7.6682  -14.0006   20.5577 C   0  0  0  0  0  0  0  0  0  0  0  0
    7.8882  -14.9922   21.6544 C   0  0  2  0  0  0  0  0  0  0  0  0
    7.1258  -14.7303   22.8375 N   0  0  0  0  0  0  0  0  0  0  0  0
    9.3478  -15.1789   21.9652 C   0  0  0  0  0  0  0  0  0  0  0  0
    9.9914  -14.2919   22.5846 O   0  0  0  0  0  0  0  0  0  0  0  0
   10.2728  -15.4183   15.6981 N   0  0  0  0  0  0  0  0  0  0  0  0
   10.0060  -16.3695   21.5545 C   0  0  2  0  0  0  0  0  0  0  0  0
   11.4146  -16.5639   21.8347 C   0  0  0  0  0  0  0  0  0  0  0  0
   11.6381  -17.6988   22.8049 S   0  0  0  0  0  0  0  0  0  0  0  0
   11.0967  -17.1131   24.4402 C   0  0  0  0  0  0  0  0  0  0  0  0
   12.1674  -16.8871   20.5958 O   0  0  0  0  0  0  0  0  0  0  0  0
   13.3101  -16.1546   20.3135 O   0  0  0  0  0  0  0  0  0  0  0  0
  2  1  1  0
  3  4  1  0
  3  2  1  0
  4  5  1  0
  5  7  1  0
  5  6  1  1
  7  8  2  0
 10 12  1  0
 10  9  1  0
 11 10  2  0
 13 14  1  0
 13 12  1  0
 14 15  1  0
 16 15  1  6
 17  7  1  0
 17 16  1  0
 18 19  2  0
 18 16  1  0
 20 18  1  0
 21 20  1  0
 21 22  1  6
 23 22  1  0
 24 25  1  0
 24 21  1  0
 26 24  2  0
M  END
$$$$
