MRC.pdb
     RDKit          3D

 26 25  0  0  1  0  0  0  0  0999 V2000
    4.9805  -12.3700   27.4136 C   0  0  0  0  0  0  0  0  0  0  0  0
    6.7841  -12.5368   27.3609 S   0  0  0  0  0  0  0  0  0  0  0  0
    7.2507  -14.1217   26.6142 C   0  0  0  0  0  0  0  0  0  0  0  0
    6.0569  -14.8151   25.9975 C   0  0  0  0  0  0  0  0  0  0  0  0
    6.4243  -16.1696   25.4326 C   0  0  2  0  0  0  0  0  0  0  0  0
    6.9723  -17.0389   26.4419 N   0  0  0  0  0  0  0  0  0  0  0  0
    7.3850  -16.0618   24.3147 C   0  0  0  0  0  0  0  0  0  0  0  0
    8.4047  -16.7732   24.3199 O   0  0  0  0  0  0  0  0  0  0  0  0
    9.5239  -15.4414   17.1722 N   0  0  0  0  0  0  0  0  0  0  0  0
    8.7880  -14.2775   16.8135 C   0  0  0  0  0  0  0  0  0  0  0  0
    8.0873  -14.2873   15.7045 N   0  0  0  0  0  0  0  0  0  0  0  0
    8.7934  -13.1128   17.6212 N   0  0  0  0  0  0  0  0  0  0  0  0
    8.0905  -13.1189   18.8600 C   0  0  0  0  0  0  0  0  0  0  0  0
    8.5780  -14.1861   19.8192 C   0  0  0  0  0  0  0  0  0  0  0  0
    7.7466  -14.1077   21.0706 C   0  0  0  0  0  0  0  0  0  0  0  0
    8.0526  -15.1583   22.0889 C   0  0  2  0  0  0  0  0  0  0  0  0
    7.1697  -15.1512   23.2160 N   0  0  0  0  0  0  0  0  0  0  0  0
    9.4949  -15.1321   22.5142 C   0  0  0  0  0  0  0  0  0  0  0  0
    9.9497  -14.1689   23.1850 O   0  0  0  0  0  0  0  0  0  0  0  0
    7.5770  -13.4389   15.4070 N   0  0  0  0  0  0  0  0  0  0  0  0
   10.3523  -16.2067   22.1541 C   0  0  1  0  0  0  0  0  0  0  0  0
   11.7619  -16.1654   22.4886 C   0  0  0  0  0  0  0  0  0  0  0  0
   12.1550  -17.3132   23.3871 S   0  0  0  0  0  0  0  0  0  0  0  0
   11.2188  -17.1200   24.9351 C   0  0  0  0  0  0  0  0  0  0  0  0
   12.6046  -16.2506   21.2686 O   0  0  0  0  0  0  0  0  0  0  0  0
   13.9810  -16.1749   21.4162 O   0  0  0  0  0  0  0  0  0  0  0  0
  2  1  1  0
  3  4  1  0
  3  2  1  0
  4  5  1  0
  5  7  1  0
  5  6  1  1
  7  8  2  0
 10 12  1  0
 10  9  1  0
 11 10  2  0
 13 14  1  0
 13 12  1  0
 14 15  1  0
 16 15  1  6
 17  7  1  0
 17 16  1  0
 18 19  2  0
 18 16  1  0
 20 18  1  0
 21 20  1  0
 21 22  1  1
 23 22  1  0
 24 25  1  0
 24 21  1  0
 26 24  2  0
M  END
$$$$
