MRC.pdb
     RDKit          3D

 26 25  0  0  1  0  0  0  0  0999 V2000
    7.9818  -11.4584   26.6520 C   0  0  0  0  0  0  0  0  0  0  0  0
    6.3619  -12.0083   26.0540 S   0  0  0  0  0  0  0  0  0  0  0  0
    6.5509  -13.3970   24.9039 C   0  0  0  0  0  0  0  0  0  0  0  0
    7.4631  -13.0406   23.7518 C   0  0  0  0  0  0  0  0  0  0  0  0
    7.6058  -14.1858   22.7736 C   0  0  2  0  0  0  0  0  0  0  0  0
    6.3337  -14.5849   22.2285 N   0  0  0  0  0  0  0  0  0  0  0  0
    8.2583  -15.3612   23.3877 C   0  0  0  0  0  0  0  0  0  0  0  0
    7.5822  -16.1325   24.0906 O   0  0  0  0  0  0  0  0  0  0  0  0
   14.1229  -18.9250   19.2777 N   0  0  0  0  0  0  0  0  0  0  0  0
   13.8132  -19.6842   20.4407 C   0  0  0  0  0  0  0  0  0  0  0  0
   14.5517  -20.7287   20.7311 N   0  0  0  0  0  0  0  0  0  0  0  0
   12.7310  -19.3412   21.2893 N   0  0  0  0  0  0  0  0  0  0  0  0
   11.7037  -18.4847   20.7995 C   0  0  0  0  0  0  0  0  0  0  0  0
   10.6165  -18.2109   21.8192 C   0  0  0  0  0  0  0  0  0  0  0  0
   11.2402  -17.5055   22.9925 C   0  0  0  0  0  0  0  0  0  0  0  0
   10.2764  -16.7502   23.8498 C   0  0  2  0  0  0  0  0  0  0  0  0
    9.6612  -15.6371   23.1924 N   0  0  0  0  0  0  0  0  0  0  0  0
   10.8824  -16.3506   25.1670 C   0  0  0  0  0  0  0  0  0  0  0  0
   11.4140  -15.2189   25.3128 O   0  0  0  0  0  0  0  0  0  0  0  0
   14.3144  -21.3203   21.5451 N   0  0  0  0  0  0  0  0  0  0  0  0
   10.8540  -17.2613   26.2576 C   0  0  1  0  0  0  0  0  0  0  0  0
   11.0388  -16.7877   27.6148 C   0  0  0  0  0  0  0  0  0  0  0  0
    9.9362  -15.8439   28.0304 S   0  0  0  0  0  0  0  0  0  0  0  0
   10.7344  -14.4028   28.8027 C   0  0  0  0  0  0  0  0  0  0  0  0
   11.0414  -17.9165   28.5801 O   0  0  0  0  0  0  0  0  0  0  0  0
   11.6561  -17.7270   29.8083 O   0  0  0  0  0  0  0  0  0  0  0  0
  2  1  1  0
  3  4  1  0
  3  2  1  0
  4  5  1  0
  5  7  1  0
  5  6  1  1
  7  8  2  0
 10 12  1  0
 10  9  1  0
 11 10  2  0
 13 14  1  0
 13 12  1  0
 14 15  1  0
 16 15  1  6
 17  7  1  0
 17 16  1  0
 18 19  2  0
 18 16  1  0
 20 18  1  0
 21 20  1  0
 21 22  1  1
 23 22  1  0
 24 25  1  0
 24 21  1  0
 26 24  2  0
M  END
$$$$
