MRC.pdb
     RDKit          3D

 26 25  0  0  1  0  0  0  0  0999 V2000
    6.0362  -11.8687   26.7185 C   0  0  0  0  0  0  0  0  0  0  0  0
    6.8616  -10.9028   25.4264 S   0  0  0  0  0  0  0  0  0  0  0  0
    7.1291  -11.9207   23.9501 C   0  0  0  0  0  0  0  0  0  0  0  0
    7.6142  -13.3058   24.3139 C   0  0  0  0  0  0  0  0  0  0  0  0
    7.7908  -14.1782   23.0906 C   0  0  2  0  0  0  0  0  0  0  0  0
    6.5384  -14.4206   22.4217 N   0  0  0  0  0  0  0  0  0  0  0  0
    8.4211  -15.4738   23.4200 C   0  0  0  0  0  0  0  0  0  0  0  0
    7.7812  -16.3092   24.0822 O   0  0  0  0  0  0  0  0  0  0  0  0
   10.2213  -20.5008   21.3614 N   0  0  0  0  0  0  0  0  0  0  0  0
   10.6588  -20.3967   20.0113 C   0  0  0  0  0  0  0  0  0  0  0  0
   10.0613  -21.1192   19.0938 N   0  0  0  0  0  0  0  0  0  0  0  0
   11.7196  -19.5353   19.6350 N   0  0  0  0  0  0  0  0  0  0  0  0
   12.0967  -18.4713   20.5035 C   0  0  0  0  0  0  0  0  0  0  0  0
   10.9422  -17.9297   21.3223 C   0  0  0  0  0  0  0  0  0  0  0  0
   11.4723  -17.5250   22.6709 C   0  0  0  0  0  0  0  0  0  0  0  0
   10.4605  -16.8994   23.5761 C   0  0  2  0  0  0  0  0  0  0  0  0
    9.7616  -15.7946   22.9925 N   0  0  0  0  0  0  0  0  0  0  0  0
   11.0430  -16.5418   24.9157 C   0  0  0  0  0  0  0  0  0  0  0  0
   12.0657  -15.8125   24.9978 O   0  0  0  0  0  0  0  0  0  0  0  0
   10.4312  -21.1395   18.1287 N   0  0  0  0  0  0  0  0  0  0  0  0
   10.4314  -17.0333   26.1006 C   0  0  1  0  0  0  0  0  0  0  0  0
   11.0674  -16.8425   27.3889 C   0  0  0  0  0  0  0  0  0  0  0  0
   10.2595  -15.9293   28.2791 S   0  0  0  0  0  0  0  0  0  0  0  0
   10.1323  -14.3294   27.4221 C   0  0  0  0  0  0  0  0  0  0  0  0
   11.2231  -18.1340   28.1057 O   0  0  0  0  0  0  0  0  0  0  0  0
   11.9183  -18.1380   29.3052 O   0  0  0  0  0  0  0  0  0  0  0  0
  2  1  1  0
  3  4  1  0
  3  2  1  0
  4  5  1  0
  5  7  1  0
  5  6  1  1
  7  8  2  0
 10 12  1  0
 10  9  1  0
 11 10  2  0
 13 14  1  0
 13 12  1  0
 14 15  1  0
 16 15  1  6
 17  7  1  0
 17 16  1  0
 18 19  2  0
 18 16  1  0
 20 18  1  0
 21 20  1  0
 21 22  1  6
 23 22  1  0
 24 25  1  0
 24 21  1  0
 26 24  2  0
M  END
$$$$
