MRC.pdb
     RDKit          3D

 26 25  0  0  1  0  0  0  0  0999 V2000
   10.3533  -13.2602   28.4451 C   0  0  0  0  0  0  0  0  0  0  0  0
   10.8798  -14.9583   28.7960 S   0  0  0  0  0  0  0  0  0  0  0  0
    9.8224  -16.1417   27.9193 C   0  0  0  0  0  0  0  0  0  0  0  0
    9.0947  -15.4854   26.7678 C   0  0  0  0  0  0  0  0  0  0  0  0
    8.1714  -16.4541   26.0619 C   0  0  2  0  0  0  0  0  0  0  0  0
    8.3209  -17.7963   26.5629 N   0  0  0  0  0  0  0  0  0  0  0  0
    8.3850  -16.4578   24.5995 C   0  0  0  0  0  0  0  0  0  0  0  0
    8.5187  -17.5435   24.0084 O   0  0  0  0  0  0  0  0  0  0  0  0
    8.0329  -12.5506   17.3566 N   0  0  0  0  0  0  0  0  0  0  0  0
    7.7745  -13.9395   17.1857 C   0  0  0  0  0  0  0  0  0  0  0  0
    8.0736  -14.5037   16.0398 N   0  0  0  0  0  0  0  0  0  0  0  0
    7.2043  -14.7249   18.2186 N   0  0  0  0  0  0  0  0  0  0  0  0
    7.0676  -14.1702   19.5233 C   0  0  0  0  0  0  0  0  0  0  0  0
    8.3907  -14.0010   20.2429 C   0  0  0  0  0  0  0  0  0  0  0  0
    8.1264  -14.0288   21.7237 C   0  0  0  0  0  0  0  0  0  0  0  0
    8.5838  -15.2727   22.4150 C   0  0  2  0  0  0  0  0  0  0  0  0
    8.4425  -15.2326   23.8392 N   0  0  0  0  0  0  0  0  0  0  0  0
    9.9760  -15.6686   22.0068 C   0  0  0  0  0  0  0  0  0  0  0  0
   10.2413  -15.9388   20.8063 O   0  0  0  0  0  0  0  0  0  0  0  0
    7.9954  -15.5288   15.9315 N   0  0  0  0  0  0  0  0  0  0  0  0
   11.0019  -15.7381   22.9878 C   0  0  1  0  0  0  0  0  0  0  0  0
   12.3733  -15.9999   22.5990 C   0  0  0  0  0  0  0  0  0  0  0  0
   13.1831  -14.7281   22.5227 S   0  0  0  0  0  0  0  0  0  0  0  0
   12.8895  -14.0101   20.8769 C   0  0  0  0  0  0  0  0  0  0  0  0
   13.0456  -16.8938   23.5762 O   0  0  0  0  0  0  0  0  0  0  0  0
   14.3849  -17.1923   23.3778 O   0  0  0  0  0  0  0  0  0  0  0  0
  2  1  1  0
  3  4  1  0
  3  2  1  0
  4  5  1  0
  5  7  1  0
  5  6  1  1
  7  8  2  0
 10 12  1  0
 10  9  1  0
 11 10  2  0
 13 14  1  0
 13 12  1  0
 14 15  1  0
 16 15  1  1
 17  7  1  0
 17 16  1  0
 18 19  2  0
 18 16  1  0
 20 18  1  0
 21 20  1  0
 21 22  1  6
 23 22  1  0
 24 25  1  0
 24 21  1  0
 26 24  2  0
M  END
$$$$
