MRC.pdb
     RDKit          3D

 26 25  0  0  1  0  0  0  0  0999 V2000
    5.9211  -11.7720   25.5718 C   0  0  0  0  0  0  0  0  0  0  0  0
    6.6527  -12.7737   26.8928 S   0  0  0  0  0  0  0  0  0  0  0  0
    7.0212  -14.4433   26.2896 C   0  0  0  0  0  0  0  0  0  0  0  0
    5.9594  -14.9314   25.3301 C   0  0  0  0  0  0  0  0  0  0  0  0
    6.2702  -16.3161   24.8058 C   0  0  2  0  0  0  0  0  0  0  0  0
    6.3577  -17.2832   25.8696 N   0  0  0  0  0  0  0  0  0  0  0  0
    7.5237  -16.3440   24.0233 C   0  0  0  0  0  0  0  0  0  0  0  0
    8.3524  -17.2462   24.2365 O   0  0  0  0  0  0  0  0  0  0  0  0
    8.8478  -13.2358   16.4104 N   0  0  0  0  0  0  0  0  0  0  0  0
    7.7072  -13.8828   16.9628 C   0  0  0  0  0  0  0  0  0  0  0  0
    7.1935  -14.9110   16.3305 N   0  0  0  0  0  0  0  0  0  0  0  0
    7.1149  -13.4457   18.1740 N   0  0  0  0  0  0  0  0  0  0  0  0
    7.9223  -13.3199   19.3406 C   0  0  0  0  0  0  0  0  0  0  0  0
    8.2725  -14.6523   19.9723 C   0  0  0  0  0  0  0  0  0  0  0  0
    9.1268  -14.3881   21.1821 C   0  0  0  0  0  0  0  0  0  0  0  0
    9.0220  -15.4218   22.2568 C   0  0  2  0  0  0  0  0  0  0  0  0
    7.8110  -15.3502   23.0171 N   0  0  0  0  0  0  0  0  0  0  0  0
   10.2348  -15.4398   23.1459 C   0  0  0  0  0  0  0  0  0  0  0  0
   10.7030  -14.3699   23.6158 O   0  0  0  0  0  0  0  0  0  0  0  0
    6.3867  -15.4164   16.7337 N   0  0  0  0  0  0  0  0  0  0  0  0
   10.8578  -16.6784   23.4580 C   0  0  1  0  0  0  0  0  0  0  0  0
   12.1165  -16.7070   24.1759 C   0  0  0  0  0  0  0  0  0  0  0  0
   12.0954  -17.7178   25.2972 S   0  0  0  0  0  0  0  0  0  0  0  0
   10.6940  -17.2862   26.3742 C   0  0  0  0  0  0  0  0  0  0  0  0
   13.2391  -17.0708   23.2741 O   0  0  0  0  0  0  0  0  0  0  0  0
   14.5170  -17.1276   23.8087 O   0  0  0  0  0  0  0  0  0  0  0  0
  2  1  1  0
  3  4  1  0
  3  2  1  0
  4  5  1  0
  5  7  1  0
  5  6  1  1
  7  8  2  0
 10 12  1  0
 10  9  1  0
 11 10  2  0
 13 14  1  0
 13 12  1  0
 14 15  1  0
 16 15  1  6
 17  7  1  0
 17 16  1  0
 18 19  2  0
 18 16  1  0
 20 18  1  0
 21 20  1  0
 21 22  1  1
 23 22  1  0
 24 25  1  0
 24 21  1  0
 26 24  2  0
M  END
$$$$
