YIG.pdb
     RDKit          3D

 25 25  0  0  1  0  0  0  0  0999 V2000
   17.4446  -24.0071  -17.1033 O   0  0  0  0  0  0  0  0  0  0  0  0
   18.5016  -23.2656  -16.5733 C   0  0  0  0  0  0  0  0  0  0  0  0
   18.4016  -21.9087  -16.3456 C   0  0  0  0  0  0  0  0  0  0  0  0
   19.4781  -21.1979  -15.8145 C   0  0  0  0  0  0  0  0  0  0  0  0
   20.6705  -21.8159  -15.4998 C   0  0  0  0  0  0  0  0  0  0  0  0
   21.7758  -21.0088  -14.9393 C   0  0  0  0  0  0  0  0  0  0  0  0
   21.7716  -20.9367  -13.4522 C   0  0  2  0  0  0  0  0  0  0  0  0
   20.7106  -20.1035  -12.9266 N   0  0  0  0  0  0  0  0  0  0  0  0
   23.0744  -20.3159  -13.0361 C   0  0  0  0  0  0  0  0  0  0  0  0
   23.2390  -19.0478  -13.0686 O   0  0  0  0  0  0  0  0  0  0  0  0
   20.7666  -23.1710  -15.7286 C   0  0  0  0  0  0  0  0  0  0  0  0
   19.6989  -23.8721  -16.2546 C   0  0  0  0  0  0  0  0  0  0  0  0
   24.8660  -20.8171   -8.4170 C   0  0  0  0  0  0  0  0  0  0  0  0
   24.6827  -20.3660   -9.8296 C   0  0  0  0  0  0  0  0  0  0  0  0
   25.7284  -20.9763  -10.7587 C   0  0  2  0  0  0  0  0  0  0  0  0
   27.1100  -20.5624  -10.3512 C   0  0  0  0  0  0  0  0  0  0  0  0
   25.4627  -20.5160  -12.1974 C   0  0  2  0  0  0  0  0  0  0  0  0
   24.1601  -21.0987  -12.5965 N   0  0  0  0  0  0  0  0  0  0  0  0
   26.5248  -21.0840  -13.0537 C   0  0  0  0  0  0  0  0  0  0  0  0
   26.6430  -22.3615  -13.0831 O   0  0  0  0  0  0  0  0  0  0  0  0
   27.4345  -20.3769  -13.8580 N   0  0  0  0  0  0  0  0  0  0  0  0
   28.4467  -21.0738  -14.6726 C   0  0  0  0  0  0  0  0  0  0  0  0
   27.9360  -21.2958  -16.0255 C   0  0  0  0  0  0  0  0  0  0  0  0
   26.7238  -21.5637  -16.1937 O   0  0  0  0  0  0  0  0  0  0  0  0
   28.7768  -21.2129  -17.1183 O   0  0  0  0  0  0  0  0  0  0  0  0
  2  1  1  0
  3  2  2  0
  4  3  1  0
  5  4  2  0
  5 11  1  0
  6  5  1  0
  7  6  1  0
  7  9  1  0
  7  8  1  6
  9 10  2  0
 11 12  2  0
 12  2  1  0
 14 13  1  0
 14 15  1  0
 15 16  1  1
 17 15  1  0
 17 18  1  6
 18  9  1  0
 19 21  1  0
 19 17  1  0
 20 19  2  0
 22 21  1  0
 23 22  1  0
 23 25  1  0
 24 23  2  0
M  END
$$$$
