YIG.pdb
     RDKit          3D

 25 25  0  0  1  0  0  0  0  0999 V2000
   21.6191  -13.5740  -25.3165 O   0  0  0  0  0  0  0  0  0  0  0  0
   21.5002  -13.0724  -24.0195 C   0  0  0  0  0  0  0  0  0  0  0  0
   22.5660  -12.5016  -23.3552 C   0  0  0  0  0  0  0  0  0  0  0  0
   22.4121  -12.0099  -22.0588 C   0  0  0  0  0  0  0  0  0  0  0  0
   21.2031  -12.0742  -21.3978 C   0  0  0  0  0  0  0  0  0  0  0  0
   21.1021  -11.5358  -20.0240 C   0  0  0  0  0  0  0  0  0  0  0  0
   21.9781  -12.2311  -19.0413 C   0  0  2  0  0  0  0  0  0  0  0  0
   21.6463  -13.6305  -18.8745 N   0  0  0  0  0  0  0  0  0  0  0  0
   21.7705  -11.5617  -17.7129 C   0  0  0  0  0  0  0  0  0  0  0  0
   20.8158  -11.9170  -16.9393 O   0  0  0  0  0  0  0  0  0  0  0  0
   20.1411  -12.6450  -22.0643 C   0  0  0  0  0  0  0  0  0  0  0  0
   20.2966  -13.1309  -23.3480 C   0  0  0  0  0  0  0  0  0  0  0  0
   26.2970  -10.2079  -15.2568 C   0  0  0  0  0  0  0  0  0  0  0  0
   25.0203   -9.9193  -15.9774 C   0  0  0  0  0  0  0  0  0  0  0  0
   23.8025  -10.3575  -15.1687 C   0  0  2  0  0  0  0  0  0  0  0  0
   23.8019  -11.8429  -14.9686 C   0  0  0  0  0  0  0  0  0  0  0  0
   22.5240   -9.9430  -15.9074 C   0  0  2  0  0  0  0  0  0  0  0  0
   22.6120  -10.5231  -17.2681 N   0  0  0  0  0  0  0  0  0  0  0  0
   22.5246   -8.4690  -16.0134 C   0  0  0  0  0  0  0  0  0  0  0  0
   23.3322   -7.9354  -16.8562 O   0  0  0  0  0  0  0  0  0  0  0  0
   21.7271   -7.5663  -15.2898 N   0  0  0  0  0  0  0  0  0  0  0  0
   21.7973   -6.1131  -15.5284 C   0  0  0  0  0  0  0  0  0  0  0  0
   22.3648   -5.4396  -14.3602 C   0  0  0  0  0  0  0  0  0  0  0  0
   22.7179   -6.1157  -13.3663 O   0  0  0  0  0  0  0  0  0  0  0  0
   22.5148   -4.0666  -14.3424 O   0  0  0  0  0  0  0  0  0  0  0  0
  2  1  1  0
  3  2  2  0
  4  3  1  0
  5  4  2  0
  5 11  1  0
  6  5  1  0
  7  6  1  0
  7  9  1  0
  7  8  1  1
  9 10  2  0
 11 12  2  0
 12  2  1  0
 14 13  1  0
 14 15  1  0
 15 16  1  6
 17 15  1  0
 17 18  1  6
 18  9  1  0
 19 21  1  0
 19 17  1  0
 20 19  2  0
 22 21  1  0
 23 22  1  0
 23 25  1  0
 24 23  2  0
M  END
$$$$
