YIG.pdb
     RDKit          3D

 25 25  0  0  1  0  0  0  0  0999 V2000
   13.4873  -12.2798  -16.1222 O   0  0  0  0  0  0  0  0  0  0  0  0
   14.7085  -11.6613  -15.8502 C   0  0  0  0  0  0  0  0  0  0  0  0
   15.1836  -10.6136  -16.6115 C   0  0  0  0  0  0  0  0  0  0  0  0
   16.4090  -10.0181  -16.3116 C   0  0  0  0  0  0  0  0  0  0  0  0
   17.1847  -10.4479  -15.2551 C   0  0  0  0  0  0  0  0  0  0  0  0
   18.4749   -9.7765  -14.9869 C   0  0  0  0  0  0  0  0  0  0  0  0
   19.5613  -10.1674  -15.9268 C   0  0  2  0  0  0  0  0  0  0  0  0
   19.9518  -11.5557  -15.7982 N   0  0  0  0  0  0  0  0  0  0  0  0
   20.7624   -9.3325  -15.5859 C   0  0  0  0  0  0  0  0  0  0  0  0
   21.6033   -9.7191  -14.7030 O   0  0  0  0  0  0  0  0  0  0  0  0
   16.7070  -11.4944  -14.4971 C   0  0  0  0  0  0  0  0  0  0  0  0
   15.4932  -12.0820  -14.7965 C   0  0  0  0  0  0  0  0  0  0  0  0
   25.3180   -6.8591  -16.3878 C   0  0  0  0  0  0  0  0  0  0  0  0
   24.1585   -6.1971  -17.0584 C   0  0  0  0  0  0  0  0  0  0  0  0
   22.9887   -7.1591  -17.2463 C   0  0  2  0  0  0  0  0  0  0  0  0
   22.0728   -6.6791  -18.3311 C   0  0  0  0  0  0  0  0  0  0  0  0
   22.2059   -7.2724  -15.9323 C   0  0  2  0  0  0  0  0  0  0  0  0
   21.0101   -8.0990  -16.2197 N   0  0  0  0  0  0  0  0  0  0  0  0
   21.7690   -5.9130  -15.5514 C   0  0  0  0  0  0  0  0  0  0  0  0
   21.3598   -5.1373  -16.4884 O   0  0  0  0  0  0  0  0  0  0  0  0
   21.7442   -5.3609  -14.2595 N   0  0  0  0  0  0  0  0  0  0  0  0
   21.3807   -3.9505  -14.0307 C   0  0  0  0  0  0  0  0  0  0  0  0
   19.9312   -3.8243  -13.8781 C   0  0  0  0  0  0  0  0  0  0  0  0
   19.2038   -4.8353  -14.0135 O   0  0  0  0  0  0  0  0  0  0  0  0
   19.3573   -2.6022  -13.5864 O   0  0  0  0  0  0  0  0  0  0  0  0
  2  1  1  0
  3  2  2  0
  4  3  1  0
  5  4  2  0
  5 11  1  0
  6  5  1  0
  7  6  1  0
  7  9  1  0
  7  8  1  1
  9 10  2  0
 11 12  2  0
 12  2  1  0
 14 13  1  0
 14 15  1  0
 15 16  1  6
 17 15  1  0
 17 18  1  6
 18  9  1  0
 19 21  1  0
 19 17  1  0
 20 19  2  0
 22 21  1  0
 23 22  1  0
 23 25  1  0
 24 23  2  0
M  END
$$$$
