YIG.pdb
     RDKit          3D

 25 25  0  0  1  0  0  0  0  0999 V2000
   28.2400   -4.8678  -19.4435 O   0  0  0  0  0  0  0  0  0  0  0  0
   29.2325   -5.4777  -18.6748 C   0  0  0  0  0  0  0  0  0  0  0  0
   29.1845   -6.8168  -18.3469 C   0  0  0  0  0  0  0  0  0  0  0  0
   30.1939   -7.3945  -17.5765 C   0  0  0  0  0  0  0  0  0  0  0  0
   31.2668   -6.6589  -17.1178 C   0  0  0  0  0  0  0  0  0  0  0  0
   32.3059   -7.3278  -16.3052 C   0  0  0  0  0  0  0  0  0  0  0  0
   33.5619   -7.6110  -17.0527 C   0  0  2  0  0  0  0  0  0  0  0  0
   33.3796   -8.5589  -18.1318 N   0  0  0  0  0  0  0  0  0  0  0  0
   34.5273   -8.2235  -16.0787 C   0  0  0  0  0  0  0  0  0  0  0  0
   34.4304   -9.4537  -15.7418 O   0  0  0  0  0  0  0  0  0  0  0  0
   31.3113   -5.3220  -17.4472 C   0  0  0  0  0  0  0  0  0  0  0  0
   30.3103   -4.7528  -18.2102 C   0  0  0  0  0  0  0  0  0  0  0  0
   39.4967   -6.9209  -16.8837 C   0  0  0  0  0  0  0  0  0  0  0  0
   38.2002   -6.8772  -16.1420 C   0  0  0  0  0  0  0  0  0  0  0  0
   37.8720   -8.2206  -15.4966 C   0  0  2  0  0  0  0  0  0  0  0  0
   37.6449   -9.2720  -16.5402 C   0  0  0  0  0  0  0  0  0  0  0  0
   36.6112   -8.0777  -14.6352 C   0  0  2  0  0  0  0  0  0  0  0  0
   35.5710   -7.4741  -15.5009 N   0  0  0  0  0  0  0  0  0  0  0  0
   36.9226   -7.1410  -13.5354 C   0  0  0  0  0  0  0  0  0  0  0  0
   37.7643   -7.5280  -12.6472 O   0  0  0  0  0  0  0  0  0  0  0  0
   36.3993   -5.8506  -13.3466 N   0  0  0  0  0  0  0  0  0  0  0  0
   36.8404   -4.9958  -12.2292 C   0  0  0  0  0  0  0  0  0  0  0  0
   37.9757   -4.1723  -12.6453 C   0  0  0  0  0  0  0  0  0  0  0  0
   38.4420   -4.2988  -13.8012 O   0  0  0  0  0  0  0  0  0  0  0  0
   38.5381   -3.2573  -11.7767 O   0  0  0  0  0  0  0  0  0  0  0  0
  2  1  1  0
  3  2  2  0
  4  3  1  0
  5  4  2  0
  5 11  1  0
  6  5  1  0
  7  6  1  0
  7  9  1  0
  7  8  1  6
  9 10  2  0
 11 12  2  0
 12  2  1  0
 14 13  1  0
 14 15  1  0
 15 16  1  6
 17 15  1  0
 17 18  1  6
 18  9  1  0
 19 21  1  0
 19 17  1  0
 20 19  2  0
 22 21  1  0
 23 22  1  0
 23 25  1  0
 24 23  2  0
M  END
$$$$
