YIG.pdb
     RDKit          3D

 25 25  0  0  1  0  0  0  0  0999 V2000
   19.3241  -23.4825   -6.2482 O   0  0  0  0  0  0  0  0  0  0  0  0
   20.1142  -22.7262   -7.1152 C   0  0  0  0  0  0  0  0  0  0  0  0
   19.8908  -22.7030   -8.4763 C   0  0  0  0  0  0  0  0  0  0  0  0
   20.7001  -21.9357   -9.3145 C   0  0  0  0  0  0  0  0  0  0  0  0
   21.7430  -21.1792   -8.8218 C   0  0  0  0  0  0  0  0  0  0  0  0
   22.5658  -20.3861   -9.7605 C   0  0  0  0  0  0  0  0  0  0  0  0
   23.7152  -21.1389  -10.3338 C   0  0  2  0  0  0  0  0  0  0  0  0
   24.9080  -21.0641   -9.5166 N   0  0  0  0  0  0  0  0  0  0  0  0
   24.0407  -20.5079  -11.6574 C   0  0  0  0  0  0  0  0  0  0  0  0
   24.8267  -19.5013  -11.7308 O   0  0  0  0  0  0  0  0  0  0  0  0
   21.9630  -21.2050   -7.4621 C   0  0  0  0  0  0  0  0  0  0  0  0
   21.1600  -21.9657   -6.6346 C   0  0  0  0  0  0  0  0  0  0  0  0
   26.1140  -23.2707  -15.1795 C   0  0  0  0  0  0  0  0  0  0  0  0
   25.5511  -22.1424  -14.3779 C   0  0  0  0  0  0  0  0  0  0  0  0
   24.3515  -21.5004  -15.0691 C   0  0  2  0  0  0  0  0  0  0  0  0
   24.7449  -20.9286  -16.3975 C   0  0  0  0  0  0  0  0  0  0  0  0
   23.7888  -20.3838  -14.1810 C   0  0  2  0  0  0  0  0  0  0  0  0
   23.4980  -20.9949  -12.8627 N   0  0  0  0  0  0  0  0  0  0  0  0
   22.5214  -19.9243  -14.7866 C   0  0  0  0  0  0  0  0  0  0  0  0
   21.5267  -20.7348  -14.7670 O   0  0  0  0  0  0  0  0  0  0  0  0
   22.2715  -18.6794  -15.3886 N   0  0  0  0  0  0  0  0  0  0  0  0
   20.9170  -18.2912  -15.8227 C   0  0  0  0  0  0  0  0  0  0  0  0
   20.6693  -18.7706  -17.1825 C   0  0  0  0  0  0  0  0  0  0  0  0
   21.5393  -19.4586  -17.7648 O   0  0  0  0  0  0  0  0  0  0  0  0
   19.4862  -18.4722  -17.8300 O   0  0  0  0  0  0  0  0  0  0  0  0
  2  1  1  0
  3  2  2  0
  4  3  1  0
  5  4  2  0
  5 11  1  0
  6  5  1  0
  7  6  1  0
  7  9  1  0
  7  8  1  1
  9 10  2  0
 11 12  2  0
 12  2  1  0
 14 13  1  0
 14 15  1  0
 15 16  1  6
 17 15  1  0
 17 18  1  1
 18  9  1  0
 19 21  1  0
 19 17  1  0
 20 19  2  0
 22 21  1  0
 23 22  1  0
 23 25  1  0
 24 23  2  0
M  END
$$$$
