YIG.pdb
     RDKit          3D

 25 25  0  0  1  0  0  0  0  0999 V2000
   19.0823  -24.2573  -11.7396 O   0  0  0  0  0  0  0  0  0  0  0  0
   19.7797  -23.2409  -12.3941 C   0  0  0  0  0  0  0  0  0  0  0  0
   20.2472  -23.3873  -13.6837 C   0  0  0  0  0  0  0  0  0  0  0  0
   20.9409  -22.3505  -14.3082 C   0  0  0  0  0  0  0  0  0  0  0  0
   21.1838  -21.1525  -13.6691 C   0  0  0  0  0  0  0  0  0  0  0  0
   21.9248  -20.0906  -14.3837 C   0  0  0  0  0  0  0  0  0  0  0  0
   23.3368  -20.4479  -14.6919 C   0  0  2  0  0  0  0  0  0  0  0  0
   24.1246  -20.7234  -13.5088 N   0  0  0  0  0  0  0  0  0  0  0  0
   23.9546  -19.2604  -15.3731 C   0  0  0  0  0  0  0  0  0  0  0  0
   24.5230  -18.3357  -14.6962 O   0  0  0  0  0  0  0  0  0  0  0  0
   20.7154  -21.0099  -12.3815 C   0  0  0  0  0  0  0  0  0  0  0  0
   20.0288  -22.0384  -11.7656 C   0  0  0  0  0  0  0  0  0  0  0  0
   27.4773  -18.3563  -17.3323 C   0  0  0  0  0  0  0  0  0  0  0  0
   26.5262  -19.2430  -18.0683 C   0  0  0  0  0  0  0  0  0  0  0  0
   25.3416  -18.4608  -18.6287 C   0  0  2  0  0  0  0  0  0  0  0  0
   25.8111  -17.3100  -19.4663 C   0  0  0  0  0  0  0  0  0  0  0  0
   24.4864  -17.9319  -17.4707 C   0  0  2  0  0  0  0  0  0  0  0  0
   23.9335  -19.1174  -16.7744 N   0  0  0  0  0  0  0  0  0  0  0  0
   23.3724  -17.1552  -18.0537 C   0  0  0  0  0  0  0  0  0  0  0  0
   23.6497  -16.0090  -18.5598 O   0  0  0  0  0  0  0  0  0  0  0  0
   22.0208  -17.5331  -18.1243 N   0  0  0  0  0  0  0  0  0  0  0  0
   21.0147  -16.6782  -18.7805 C   0  0  0  0  0  0  0  0  0  0  0  0
   20.2190  -15.9762  -17.7733 C   0  0  0  0  0  0  0  0  0  0  0  0
   19.2791  -15.2312  -18.1354 O   0  0  0  0  0  0  0  0  0  0  0  0
   20.4939  -16.1267  -16.4280 O   0  0  0  0  0  0  0  0  0  0  0  0
  2  1  1  0
  3  2  2  0
  4  3  1  0
  5  4  2  0
  5 11  1  0
  6  5  1  0
  7  6  1  0
  7  9  1  0
  7  8  1  1
  9 10  2  0
 11 12  2  0
 12  2  1  0
 14 13  1  0
 14 15  1  0
 15 16  1  1
 17 15  1  0
 17 18  1  6
 18  9  1  0
 19 21  1  0
 19 17  1  0
 20 19  2  0
 22 21  1  0
 23 22  1  0
 23 25  1  0
 24 23  2  0
M  END
$$$$
