YIG.pdb
     RDKit          3D

 25 25  0  0  1  0  0  0  0  0999 V2000
   23.0924  -17.7923  -18.6107 O   0  0  0  0  0  0  0  0  0  0  0  0
   23.2618  -18.5188  -17.4312 C   0  0  0  0  0  0  0  0  0  0  0  0
   22.2445  -18.6687  -16.5117 C   0  0  0  0  0  0  0  0  0  0  0  0
   22.4481  -19.4019  -15.3424 C   0  0  0  0  0  0  0  0  0  0  0  0
   23.6598  -19.9988  -15.0628 C   0  0  0  0  0  0  0  0  0  0  0  0
   23.8147  -20.7636  -13.8064 C   0  0  0  0  0  0  0  0  0  0  0  0
   23.5060  -19.9748  -12.5821 C   0  0  2  0  0  0  0  0  0  0  0  0
   24.3613  -18.8178  -12.4207 N   0  0  0  0  0  0  0  0  0  0  0  0
   23.7459  -20.8751  -11.4041 C   0  0  0  0  0  0  0  0  0  0  0  0
   23.7716  -22.1465  -11.5422 O   0  0  0  0  0  0  0  0  0  0  0  0
   24.6734  -19.8470  -15.9834 C   0  0  0  0  0  0  0  0  0  0  0  0
   24.4687  -19.1204  -17.1403 C   0  0  0  0  0  0  0  0  0  0  0  0
   26.7954  -18.9171   -7.6374 C   0  0  0  0  0  0  0  0  0  0  0  0
   26.2094  -20.1010   -8.3357 C   0  0  0  0  0  0  0  0  0  0  0  0
   24.7976  -20.4067   -7.8432 C   0  0  2  0  0  0  0  0  0  0  0  0
   24.8365  -21.1811   -6.5606 C   0  0  0  0  0  0  0  0  0  0  0  0
   24.0519  -21.2215   -8.9073 C   0  0  2  0  0  0  0  0  0  0  0  0
   23.9509  -20.3602  -10.1089 N   0  0  0  0  0  0  0  0  0  0  0  0
   22.6922  -21.4911   -8.3949 C   0  0  0  0  0  0  0  0  0  0  0  0
   21.8427  -20.5299   -8.4328 O   0  0  0  0  0  0  0  0  0  0  0  0
   22.2097  -22.6999   -7.8654 N   0  0  0  0  0  0  0  0  0  0  0  0
   21.1614  -22.7235   -6.8289 C   0  0  0  0  0  0  0  0  0  0  0  0
   19.8499  -22.9220   -7.4460 C   0  0  0  0  0  0  0  0  0  0  0  0
   19.7191  -22.7757   -8.6834 O   0  0  0  0  0  0  0  0  0  0  0  0
   18.7552  -23.2687   -6.6782 O   0  0  0  0  0  0  0  0  0  0  0  0
  2  1  1  0
  3  2  2  0
  4  3  1  0
  5  4  2  0
  5 11  1  0
  6  5  1  0
  7  6  1  0
  7  9  1  0
  7  8  1  1
  9 10  2  0
 11 12  2  0
 12  2  1  0
 14 13  1  0
 14 15  1  0
 15 16  1  1
 17 15  1  0
 17 18  1  6
 18  9  1  0
 19 21  1  0
 19 17  1  0
 20 19  2  0
 22 21  1  0
 23 22  1  0
 23 25  1  0
 24 23  2  0
M  END
$$$$
