YIG.pdb
     RDKit          3D

 25 25  0  0  1  0  0  0  0  0999 V2000
   18.7932  -23.6814   -8.7484 O   0  0  0  0  0  0  0  0  0  0  0  0
   19.8747  -22.8879   -9.1338 C   0  0  0  0  0  0  0  0  0  0  0  0
   20.4969  -22.0232   -8.2574 C   0  0  0  0  0  0  0  0  0  0  0  0
   21.5759  -21.2444   -8.6761 C   0  0  0  0  0  0  0  0  0  0  0  0
   22.0576  -21.3071   -9.9671 C   0  0  0  0  0  0  0  0  0  0  0  0
   23.2048  -20.4565  -10.3515 C   0  0  0  0  0  0  0  0  0  0  0  0
   24.5108  -21.1711  -10.3425 C   0  0  2  0  0  0  0  0  0  0  0  0
   25.0007  -21.4431   -9.0075 N   0  0  0  0  0  0  0  0  0  0  0  0
   25.5113  -20.2718  -11.0105 C   0  0  0  0  0  0  0  0  0  0  0  0
   25.8825  -19.1779  -10.4612 O   0  0  0  0  0  0  0  0  0  0  0  0
   21.4337  -22.1717  -10.8395 C   0  0  0  0  0  0  0  0  0  0  0  0
   20.3655  -22.9417  -10.4220 C   0  0  0  0  0  0  0  0  0  0  0  0
   30.0594  -21.7076  -11.3163 C   0  0  0  0  0  0  0  0  0  0  0  0
   28.8291  -20.8650  -11.4114 C   0  0  0  0  0  0  0  0  0  0  0  0
   28.4204  -20.6221  -12.8616 C   0  0  2  0  0  0  0  0  0  0  0  0
   29.5057  -19.9078  -13.6088 C   0  0  0  0  0  0  0  0  0  0  0  0
   27.1394  -19.7793  -12.8958 C   0  0  2  0  0  0  0  0  0  0  0  0
   26.0775  -20.5938  -12.2597 N   0  0  0  0  0  0  0  0  0  0  0  0
   26.7875  -19.5550  -14.3135 C   0  0  0  0  0  0  0  0  0  0  0  0
   26.2886  -20.5423  -14.9640 O   0  0  0  0  0  0  0  0  0  0  0  0
   26.9333  -18.3644  -15.0454 N   0  0  0  0  0  0  0  0  0  0  0  0
   26.4962  -18.2644  -16.4499 C   0  0  0  0  0  0  0  0  0  0  0  0
   27.5119  -18.8371  -17.3335 C   0  0  0  0  0  0  0  0  0  0  0  0
   28.6148  -19.1950  -16.8592 O   0  0  0  0  0  0  0  0  0  0  0  0
   27.2667  -18.9869  -18.6846 O   0  0  0  0  0  0  0  0  0  0  0  0
  2  1  1  0
  3  2  2  0
  4  3  1  0
  5  4  2  0
  5 11  1  0
  6  5  1  0
  7  6  1  0
  7  9  1  0
  7  8  1  1
  9 10  2  0
 11 12  2  0
 12  2  1  0
 14 13  1  0
 14 15  1  0
 15 16  1  6
 17 15  1  0
 17 18  1  1
 18  9  1  0
 19 21  1  0
 19 17  1  0
 20 19  2  0
 22 21  1  0
 23 22  1  0
 23 25  1  0
 24 23  2  0
M  END
$$$$
