YIG.pdb
     RDKit          3D

 25 25  0  0  1  0  0  0  0  0999 V2000
   27.7955  -19.5495   -4.7970 O   0  0  0  0  0  0  0  0  0  0  0  0
   27.3357  -19.6160   -6.1131 C   0  0  0  0  0  0  0  0  0  0  0  0
   27.8495  -18.8118   -7.1092 C   0  0  0  0  0  0  0  0  0  0  0  0
   27.3665  -18.9045   -8.4147 C   0  0  0  0  0  0  0  0  0  0  0  0
   26.3684  -19.7928   -8.7572 C   0  0  0  0  0  0  0  0  0  0  0  0
   25.8980  -19.8448  -10.1584 C   0  0  0  0  0  0  0  0  0  0  0  0
   26.1573  -21.1479  -10.8301 C   0  0  2  0  0  0  0  0  0  0  0  0
   27.5635  -21.4876  -10.8882 N   0  0  0  0  0  0  0  0  0  0  0  0
   25.6700  -21.0204  -12.2451 C   0  0  0  0  0  0  0  0  0  0  0  0
   26.3264  -20.3423  -13.1084 O   0  0  0  0  0  0  0  0  0  0  0  0
   25.8578  -20.5942   -7.7598 C   0  0  0  0  0  0  0  0  0  0  0  0
   26.3380  -20.5002   -6.4680 C   0  0  0  0  0  0  0  0  0  0  0  0
   24.8318  -25.2074  -14.8964 C   0  0  0  0  0  0  0  0  0  0  0  0
   25.0435  -23.7621  -14.5818 C   0  0  0  0  0  0  0  0  0  0  0  0
   23.7251  -22.9950  -14.5311 C   0  0  2  0  0  0  0  0  0  0  0  0
   23.0681  -22.9747  -15.8780 C   0  0  0  0  0  0  0  0  0  0  0  0
   23.9901  -21.5557  -14.0724 C   0  0  2  0  0  0  0  0  0  0  0  0
   24.4792  -21.6378  -12.6760 N   0  0  0  0  0  0  0  0  0  0  0  0
   22.6999  -20.8352  -14.0871 C   0  0  0  0  0  0  0  0  0  0  0  0
   22.2803  -20.3934  -15.2166 O   0  0  0  0  0  0  0  0  0  0  0  0
   21.8608  -20.5759  -12.9902 N   0  0  0  0  0  0  0  0  0  0  0  0
   20.6243  -19.7861  -13.1354 C   0  0  0  0  0  0  0  0  0  0  0  0
   19.5111  -20.6602  -13.5055 C   0  0  0  0  0  0  0  0  0  0  0  0
   18.9581  -21.3638  -12.6287 O   0  0  0  0  0  0  0  0  0  0  0  0
   19.0642  -20.7173  -14.8113 O   0  0  0  0  0  0  0  0  0  0  0  0
  2  1  1  0
  3  2  2  0
  4  3  1  0
  5  4  2  0
  5 11  1  0
  6  5  1  0
  7  6  1  0
  7  9  1  0
  7  8  1  6
  9 10  2  0
 11 12  2  0
 12  2  1  0
 14 13  1  0
 14 15  1  0
 15 16  1  6
 17 15  1  0
 17 18  1  1
 18  9  1  0
 19 21  1  0
 19 17  1  0
 20 19  2  0
 22 21  1  0
 23 22  1  0
 23 25  1  0
 24 23  2  0
M  END
$$$$
