YIG.pdb
     RDKit          3D

 25 25  0  0  1  0  0  0  0  0999 V2000
   22.1529  -13.7730  -20.1738 O   0  0  0  0  0  0  0  0  0  0  0  0
   22.3786  -14.8521  -19.3179 C   0  0  0  0  0  0  0  0  0  0  0  0
   21.8523  -16.1033  -19.5635 C   0  0  0  0  0  0  0  0  0  0  0  0
   22.0978  -17.1602  -18.6866 C   0  0  0  0  0  0  0  0  0  0  0  0
   22.8670  -16.9981  -17.5532 C   0  0  0  0  0  0  0  0  0  0  0  0
   23.0919  -18.1567  -16.6618 C   0  0  0  0  0  0  0  0  0  0  0  0
   24.5097  -18.6079  -16.6109 C   0  0  2  0  0  0  0  0  0  0  0  0
   25.0321  -18.9877  -17.9067 N   0  0  0  0  0  0  0  0  0  0  0  0
   24.5539  -19.8284  -15.7366 C   0  0  0  0  0  0  0  0  0  0  0  0
   24.5028  -21.0022  -16.2424 O   0  0  0  0  0  0  0  0  0  0  0  0
   23.3909  -15.7472  -17.3112 C   0  0  0  0  0  0  0  0  0  0  0  0
   23.1460  -14.7026  -18.1813 C   0  0  0  0  0  0  0  0  0  0  0  0
   28.3105  -19.8513  -12.6737 C   0  0  0  0  0  0  0  0  0  0  0  0
   27.2460  -20.6797  -13.3166 C   0  0  0  0  0  0  0  0  0  0  0  0
   25.9486  -20.6565  -12.5134 C   0  0  2  0  0  0  0  0  0  0  0  0
   25.9690  -21.6999  -11.4377 C   0  0  0  0  0  0  0  0  0  0  0  0
   24.7635  -20.9160  -13.4517 C   0  0  2  0  0  0  0  0  0  0  0  0
   24.6529  -19.7312  -14.3347 N   0  0  0  0  0  0  0  0  0  0  0  0
   23.5452  -21.0102  -12.6206 C   0  0  0  0  0  0  0  0  0  0  0  0
   23.4292  -22.0313  -11.8519 O   0  0  0  0  0  0  0  0  0  0  0  0
   22.4810  -20.0941  -12.5687 N   0  0  0  0  0  0  0  0  0  0  0  0
   21.2933  -20.3389  -11.7301 C   0  0  0  0  0  0  0  0  0  0  0  0
   20.2513  -20.9993  -12.5166 C   0  0  0  0  0  0  0  0  0  0  0  0
   19.1010  -21.1273  -12.0372 O   0  0  0  0  0  0  0  0  0  0  0  0
   20.5234  -21.4826  -13.7817 O   0  0  0  0  0  0  0  0  0  0  0  0
  2  1  1  0
  3  2  2  0
  4  3  1  0
  5  4  2  0
  5 11  1  0
  6  5  1  0
  7  6  1  0
  7  9  1  0
  7  8  1  6
  9 10  2  0
 11 12  2  0
 12  2  1  0
 14 13  1  0
 14 15  1  0
 15 16  1  1
 17 15  1  0
 17 18  1  6
 18  9  1  0
 19 21  1  0
 19 17  1  0
 20 19  2  0
 22 21  1  0
 23 22  1  0
 23 25  1  0
 24 23  2  0
M  END
$$$$
