YIG.pdb
     RDKit          3D

 25 25  0  0  1  0  0  0  0  0999 V2000
   19.9669  -22.5801   -6.2030 O   0  0  0  0  0  0  0  0  0  0  0  0
   20.7801  -22.0232   -7.1911 C   0  0  0  0  0  0  0  0  0  0  0  0
   20.4730  -22.1209   -8.5324 C   0  0  0  0  0  0  0  0  0  0  0  0
   21.3085  -21.5523   -9.4941 C   0  0  0  0  0  0  0  0  0  0  0  0
   22.4606  -20.8782   -9.1463 C   0  0  0  0  0  0  0  0  0  0  0  0
   23.3060  -20.2966  -10.2115 C   0  0  0  0  0  0  0  0  0  0  0  0
   24.1707  -21.2927  -10.9019 C   0  0  2  0  0  0  0  0  0  0  0  0
   25.4195  -21.5369  -10.2111 N   0  0  0  0  0  0  0  0  0  0  0  0
   24.5100  -20.7242  -12.2500 C   0  0  0  0  0  0  0  0  0  0  0  0
   25.4503  -19.8676  -12.3851 O   0  0  0  0  0  0  0  0  0  0  0  0
   22.7640  -20.7827   -7.8059 C   0  0  0  0  0  0  0  0  0  0  0  0
   21.9348  -21.3468   -6.8560 C   0  0  0  0  0  0  0  0  0  0  0  0
   25.3146  -23.9961  -14.7730 C   0  0  0  0  0  0  0  0  0  0  0  0
   25.6418  -22.5738  -15.0934 C   0  0  0  0  0  0  0  0  0  0  0  0
   24.4299  -21.8235  -15.6388 C   0  0  2  0  0  0  0  0  0  0  0  0
   24.6684  -21.3804  -17.0506 C   0  0  0  0  0  0  0  0  0  0  0  0
   24.1521  -20.5971  -14.7607 C   0  0  2  0  0  0  0  0  0  0  0  0
   23.8121  -21.1082  -13.4120 N   0  0  0  0  0  0  0  0  0  0  0  0
   22.9747  -19.9014  -15.3208 C   0  0  0  0  0  0  0  0  0  0  0  0
   21.8384  -20.4908  -15.2291 O   0  0  0  0  0  0  0  0  0  0  0  0
   22.9518  -18.6451  -15.9497 N   0  0  0  0  0  0  0  0  0  0  0  0
   21.6863  -18.0173  -16.3719 C   0  0  0  0  0  0  0  0  0  0  0  0
   21.4045  -18.3463  -17.7692 C   0  0  0  0  0  0  0  0  0  0  0  0
   22.2122  -19.0547  -18.4137 O   0  0  0  0  0  0  0  0  0  0  0  0
   20.2574  -17.8839  -18.3843 O   0  0  0  0  0  0  0  0  0  0  0  0
  2  1  1  0
  3  2  2  0
  4  3  1  0
  5  4  2  0
  5 11  1  0
  6  5  1  0
  7  6  1  0
  7  9  1  0
  7  8  1  1
  9 10  2  0
 11 12  2  0
 12  2  1  0
 14 13  1  0
 14 15  1  0
 15 16  1  6
 17 15  1  0
 17 18  1  1
 18  9  1  0
 19 21  1  0
 19 17  1  0
 20 19  2  0
 22 21  1  0
 23 22  1  0
 23 25  1  0
 24 23  2  0
M  END
$$$$
