YIG.pdb
     RDKit          3D

 25 25  0  0  1  0  0  0  0  0999 V2000
   23.0570  -17.7098  -17.8513 O   0  0  0  0  0  0  0  0  0  0  0  0
   23.3305  -18.3039  -16.6183 C   0  0  0  0  0  0  0  0  0  0  0  0
   22.9485  -19.5973  -16.3286 C   0  0  0  0  0  0  0  0  0  0  0  0
   23.2381  -20.1604  -15.0856 C   0  0  0  0  0  0  0  0  0  0  0  0
   23.9096  -19.4550  -14.1088 C   0  0  0  0  0  0  0  0  0  0  0  0
   24.1879  -20.1063  -12.8104 C   0  0  0  0  0  0  0  0  0  0  0  0
   25.6360  -20.3374  -12.5535 C   0  0  2  0  0  0  0  0  0  0  0  0
   26.2418  -21.2526  -13.4978 N   0  0  0  0  0  0  0  0  0  0  0  0
   25.7492  -20.9612  -11.1919 C   0  0  0  0  0  0  0  0  0  0  0  0
   25.6235  -22.2243  -11.0344 O   0  0  0  0  0  0  0  0  0  0  0  0
   24.2895  -18.1636  -14.4017 C   0  0  0  0  0  0  0  0  0  0  0  0
   24.0013  -17.6087  -15.6335 C   0  0  0  0  0  0  0  0  0  0  0  0
   28.1232  -19.6294   -5.6427 C   0  0  0  0  0  0  0  0  0  0  0  0
   27.1712  -20.4381   -6.4627 C   0  0  0  0  0  0  0  0  0  0  0  0
   26.9963  -19.8577   -7.8632 C   0  0  2  0  0  0  0  0  0  0  0  0
   26.4086  -18.4804   -7.7999 C   0  0  0  0  0  0  0  0  0  0  0  0
   26.0719  -20.7684   -8.6807 C   0  0  2  0  0  0  0  0  0  0  0  0
   25.9966  -20.1867  -10.0415 N   0  0  0  0  0  0  0  0  0  0  0  0
   24.7305  -20.7176   -8.0625 C   0  0  0  0  0  0  0  0  0  0  0  0
   24.0430  -19.6461   -8.2248 O   0  0  0  0  0  0  0  0  0  0  0  0
   24.1058  -21.7248   -7.3077 N   0  0  0  0  0  0  0  0  0  0  0  0
   22.7729  -21.5254   -6.7097 C   0  0  0  0  0  0  0  0  0  0  0  0
   22.3335  -22.7514   -6.0434 C   0  0  0  0  0  0  0  0  0  0  0  0
   23.0188  -23.7946   -6.1509 O   0  0  0  0  0  0  0  0  0  0  0  0
   21.1711  -22.7699   -5.2973 O   0  0  0  0  0  0  0  0  0  0  0  0
  2  1  1  0
  3  2  2  0
  4  3  1  0
  5  4  2  0
  5 11  1  0
  6  5  1  0
  7  6  1  0
  7  9  1  0
  7  8  1  6
  9 10  2  0
 11 12  2  0
 12  2  1  0
 14 13  1  0
 14 15  1  0
 15 16  1  1
 17 15  1  0
 17 18  1  6
 18  9  1  0
 19 21  1  0
 19 17  1  0
 20 19  2  0
 22 21  1  0
 23 22  1  0
 23 25  1  0
 24 23  2  0
M  END
$$$$
