CMH.pdb
     RDKit          3D

 25 25  0  0  1  0  0  0  0  0999 V2000
    9.5159  -16.1237   19.3974 N   0  0  0  0  0  0  0  0  0  0  0  0
    8.5582  -16.4580   20.4057 C   0  0  1  0  0  0  0  0  0  0  0  0
    8.3350  -17.9291   20.5251 C   0  0  0  0  0  0  0  0  0  0  0  0
    6.8881  -18.3734   19.5270 S   0  0  0  0  0  0  0  0  0  0  0  0
    8.9950  -15.8759   21.7215 C   0  0  0  0  0  0  0  0  0  0  0  0
   10.1830  -15.9704   22.1119 O   0  0  0  0  0  0  0  0  0  0  0  0
    7.0877  -10.7064   26.5124 C   0  0  0  0  0  0  0  0  0  0  0  0
    6.5763  -12.4178   26.6805 S   0  0  0  0  0  0  0  0  0  0  0  0
    7.7296  -13.5748   25.8964 C   0  0  0  0  0  0  0  0  0  0  0  0
    7.2925  -13.9205   24.4870 C   0  0  0  0  0  0  0  0  0  0  0  0
    8.3000  -14.8553   23.9231 C   0  0  2  0  0  0  0  0  0  0  0  0
    8.0599  -15.2043   22.5496 N   0  0  0  0  0  0  0  0  0  0  0  0
    8.6216  -16.0222   24.7928 C   0  0  0  0  0  0  0  0  0  0  0  0
    7.7212  -16.8800   24.9475 O   0  0  0  0  0  0  0  0  0  0  0  0
    9.8602  -16.1947   25.4289 N   0  0  0  0  0  0  0  0  0  0  0  0
   10.2255  -17.3764   26.1654 C   0  0  1  0  0  0  0  0  0  0  0  0
   11.7118  -17.6702   26.0739 C   0  0  0  0  0  0  0  0  0  0  0  0
   12.0753  -18.1869   24.7292 C   0  0  0  0  0  0  0  0  0  0  0  0
   11.1888  -18.5228   23.7163 C   0  0  0  0  0  0  0  0  0  0  0  0
   11.8731  -18.9546   22.6369 N   0  0  0  0  0  0  0  0  0  0  0  0
   13.1739  -18.9000   22.9426 C   0  0  0  0  0  0  0  0  0  0  0  0
   13.2977  -18.4329   24.2157 N   0  0  0  0  0  0  0  0  0  0  0  0
    9.9167  -17.2247   27.6037 C   0  0  0  0  0  0  0  0  0  0  0  0
   10.1321  -18.1297   28.4382 O   0  0  0  0  0  0  0  0  0  0  0  0
    9.3690  -16.0355   28.0393 O   0  0  0  0  0  0  0  0  0  0  0  0
  2  1  1  6
  2  5  1  0
  3  2  1  0
  3  4  1  0
  5  6  2  0
  7  8  1  0
  9  8  1  0
 10  9  1  0
 11 10  1  1
 11 13  1  0
 12  5  1  0
 12 11  1  0
 13 15  1  0
 13 14  2  0
 15 16  1  0
 16 23  1  0
 17 18  1  0
 16 17  1  1
 18 19  2  0
 19 20  1  0
 21 20  1  0
 22 18  1  0
 22 21  2  0
 23 24  2  0
 23 25  1  0
M  END
$$$$
