CMH.pdb
     RDKit          3D

 25 25  0  0  1  0  0  0  0  0999 V2000
    9.2580  -16.2353   19.1482 N   0  0  0  0  0  0  0  0  0  0  0  0
    8.2452  -16.4370   20.1378 C   0  0  1  0  0  0  0  0  0  0  0  0
    7.8487  -17.8694   20.2747 C   0  0  0  0  0  0  0  0  0  0  0  0
    6.6274  -18.2525   18.9906 S   0  0  0  0  0  0  0  0  0  0  0  0
    8.7176  -15.8857   21.4547 C   0  0  0  0  0  0  0  0  0  0  0  0
    9.9107  -16.0089   21.8207 O   0  0  0  0  0  0  0  0  0  0  0  0
    7.2936  -11.4247   27.8204 C   0  0  0  0  0  0  0  0  0  0  0  0
    6.6220  -12.0953   26.2979 S   0  0  0  0  0  0  0  0  0  0  0  0
    7.7027  -13.3378   25.5419 C   0  0  0  0  0  0  0  0  0  0  0  0
    7.1663  -13.7932   24.1996 C   0  0  0  0  0  0  0  0  0  0  0  0
    8.1262  -14.7833   23.6471 C   0  0  2  0  0  0  0  0  0  0  0  0
    7.8109  -15.2113   22.3116 N   0  0  0  0  0  0  0  0  0  0  0  0
    8.4686  -15.9010   24.5718 C   0  0  0  0  0  0  0  0  0  0  0  0
    7.5686  -16.7415   24.8037 O   0  0  0  0  0  0  0  0  0  0  0  0
    9.7258  -16.0462   25.1775 N   0  0  0  0  0  0  0  0  0  0  0  0
   10.1045  -17.1826   25.9760 C   0  0  1  0  0  0  0  0  0  0  0  0
   11.5449  -17.5959   25.7349 C   0  0  0  0  0  0  0  0  0  0  0  0
   11.7481  -18.0422   24.3325 C   0  0  0  0  0  0  0  0  0  0  0  0
   10.9877  -18.9861   23.6575 C   0  0  0  0  0  0  0  0  0  0  0  0
   11.4592  -19.1379   22.4028 N   0  0  0  0  0  0  0  0  0  0  0  0
   12.5017  -18.3113   22.2669 C   0  0  0  0  0  0  0  0  0  0  0  0
   12.6782  -17.6443   23.4408 N   0  0  0  0  0  0  0  0  0  0  0  0
    9.9915  -16.8812   27.4194 C   0  0  0  0  0  0  0  0  0  0  0  0
    9.6182  -15.7682   27.8481 O   0  0  0  0  0  0  0  0  0  0  0  0
   10.3114  -17.8700   28.3270 O   0  0  0  0  0  0  0  0  0  0  0  0
  2  1  1  6
  2  5  1  0
  3  2  1  0
  3  4  1  0
  5  6  2  0
  7  8  1  0
  9  8  1  0
 10  9  1  0
 11 10  1  1
 11 13  1  0
 12  5  1  0
 12 11  1  0
 13 15  1  0
 13 14  2  0
 15 16  1  0
 16 23  1  0
 17 18  1  0
 16 17  1  1
 18 19  2  0
 19 20  1  0
 21 20  1  0
 22 18  1  0
 22 21  2  0
 23 24  2  0
 23 25  1  0
M  END
$$$$
