CMH.pdb
     RDKit          3D

 25 25  0  0  1  0  0  0  0  0999 V2000
    9.1308  -15.7983   19.2165 N   0  0  0  0  0  0  0  0  0  0  0  0
    8.2796  -16.2665   20.2661 C   0  0  1  0  0  0  0  0  0  0  0  0
    8.2397  -17.7559   20.3562 C   0  0  0  0  0  0  0  0  0  0  0  0
    7.3096  -18.3926   18.9361 S   0  0  0  0  0  0  0  0  0  0  0  0
    8.7199  -15.6644   21.5717 C   0  0  0  0  0  0  0  0  0  0  0  0
    9.9353  -15.5606   21.8628 O   0  0  0  0  0  0  0  0  0  0  0  0
    6.8085  -11.6883   28.1388 C   0  0  0  0  0  0  0  0  0  0  0  0
    6.1904  -12.5061   26.6664 S   0  0  0  0  0  0  0  0  0  0  0  0
    7.4798  -13.4153   25.7754 C   0  0  0  0  0  0  0  0  0  0  0  0
    6.9705  -13.9362   24.4464 C   0  0  0  0  0  0  0  0  0  0  0  0
    8.0733  -14.7063   23.8158 C   0  0  2  0  0  0  0  0  0  0  0  0
    7.7568  -15.2001   22.5035 N   0  0  0  0  0  0  0  0  0  0  0  0
    8.7103  -15.7208   24.7026 C   0  0  0  0  0  0  0  0  0  0  0  0
    8.0480  -16.7557   24.9483 O   0  0  0  0  0  0  0  0  0  0  0  0
    9.9891  -15.5675   25.2592 N   0  0  0  0  0  0  0  0  0  0  0  0
   10.6441  -16.5745   26.0525 C   0  0  1  0  0  0  0  0  0  0  0  0
   12.1425  -16.3484   26.1394 C   0  0  0  0  0  0  0  0  0  0  0  0
   12.7819  -16.4663   24.8036 C   0  0  0  0  0  0  0  0  0  0  0  0
   12.2306  -17.0744   23.6851 C   0  0  0  0  0  0  0  0  0  0  0  0
   13.0927  -16.9925   22.6508 N   0  0  0  0  0  0  0  0  0  0  0  0
   14.1786  -16.3460   23.0884 C   0  0  0  0  0  0  0  0  0  0  0  0
   13.9901  -16.0256   24.3983 N   0  0  0  0  0  0  0  0  0  0  0  0
   10.1388  -16.5703   27.4423 C   0  0  0  0  0  0  0  0  0  0  0  0
    9.2757  -15.7601   27.8430 O   0  0  0  0  0  0  0  0  0  0  0  0
   10.6418  -17.4989   28.3302 O   0  0  0  0  0  0  0  0  0  0  0  0
  2  1  1  6
  2  5  1  0
  3  2  1  0
  3  4  1  0
  5  6  2  0
  7  8  1  0
  9  8  1  0
 10  9  1  0
 11 10  1  1
 11 13  1  0
 12  5  1  0
 12 11  1  0
 13 15  1  0
 13 14  2  0
 15 16  1  0
 16 23  1  0
 17 18  1  0
 16 17  1  1
 18 19  2  0
 19 20  1  0
 21 20  1  0
 22 18  1  0
 22 21  2  0
 23 24  2  0
 23 25  1  0
M  END
$$$$
