CMH.pdb
     RDKit          3D

 25 25  0  0  1  0  0  0  0  0999 V2000
    7.4094  -18.6105   21.5956 N   0  0  0  0  0  0  0  0  0  0  0  0
    8.2368  -17.7783   20.7781 C   0  0  1  0  0  0  0  0  0  0  0  0
    7.5532  -17.3344   19.5277 C   0  0  0  0  0  0  0  0  0  0  0  0
    6.0196  -16.4813   19.9834 S   0  0  0  0  0  0  0  0  0  0  0  0
    8.7023  -16.5950   21.5808 C   0  0  0  0  0  0  0  0  0  0  0  0
    9.7378  -15.9619   21.2650 O   0  0  0  0  0  0  0  0  0  0  0  0
    6.9551  -10.9868   26.8394 C   0  0  0  0  0  0  0  0  0  0  0  0
    6.4408  -12.5427   26.1092 S   0  0  0  0  0  0  0  0  0  0  0  0
    7.7457  -13.3186   25.1200 C   0  0  0  0  0  0  0  0  0  0  0  0
    7.2298  -14.5399   24.3855 C   0  0  0  0  0  0  0  0  0  0  0  0
    8.3456  -15.0695   23.5600 C   0  0  2  0  0  0  0  0  0  0  0  0
    7.9695  -16.1730   22.7193 N   0  0  0  0  0  0  0  0  0  0  0  0
    9.6203  -15.2855   24.3016 C   0  0  0  0  0  0  0  0  0  0  0  0
   10.4473  -14.3440   24.2949 O   0  0  0  0  0  0  0  0  0  0  0  0
    9.9238  -16.4701   24.9893 N   0  0  0  0  0  0  0  0  0  0  0  0
   11.1584  -16.6934   25.6954 C   0  0  1  0  0  0  0  0  0  0  0  0
   10.9253  -17.1622   27.1200 C   0  0  0  0  0  0  0  0  0  0  0  0
   10.6429  -16.0167   28.0230 C   0  0  0  0  0  0  0  0  0  0  0  0
   10.4914  -14.6922   27.6391 C   0  0  0  0  0  0  0  0  0  0  0  0
   10.2433  -13.9293   28.7236 N   0  0  0  0  0  0  0  0  0  0  0  0
   10.2341  -14.7404   29.7868 C   0  0  0  0  0  0  0  0  0  0  0  0
   10.4772  -16.0108   29.3612 N   0  0  0  0  0  0  0  0  0  0  0  0
   11.9670  -17.7418   25.0367 C   0  0  0  0  0  0  0  0  0  0  0  0
   13.1349  -18.0129   25.3892 O   0  0  0  0  0  0  0  0  0  0  0  0
   11.4073  -18.4477   23.9915 O   0  0  0  0  0  0  0  0  0  0  0  0
  2  1  1  1
  2  5  1  0
  3  2  1  0
  3  4  1  0
  5  6  2  0
  7  8  1  0
  9  8  1  0
 10  9  1  0
 11 10  1  1
 11 13  1  0
 12  5  1  0
 12 11  1  0
 13 15  1  0
 13 14  2  0
 15 16  1  0
 16 23  1  0
 17 18  1  0
 16 17  1  1
 18 19  2  0
 19 20  1  0
 21 20  1  0
 22 18  1  0
 22 21  2  0
 23 24  2  0
 23 25  1  0
M  END
$$$$
