CMH.pdb
     RDKit          3D

 25 25  0  0  1  0  0  0  0  0999 V2000
    8.3533  -15.5382   18.9887 N   0  0  0  0  0  0  0  0  0  0  0  0
    7.4473  -15.7924   20.0657 C   0  0  1  0  0  0  0  0  0  0  0  0
    7.0291  -17.2232   20.1430 C   0  0  0  0  0  0  0  0  0  0  0  0
    8.5043  -18.2383   20.4266 S   0  0  0  0  0  0  0  0  0  0  0  0
    8.0726  -15.3485   21.3592 C   0  0  0  0  0  0  0  0  0  0  0  0
    9.3183  -15.3018   21.4967 O   0  0  0  0  0  0  0  0  0  0  0  0
    7.1857  -11.8141   28.3755 C   0  0  0  0  0  0  0  0  0  0  0  0
    6.3583  -12.4808   26.9300 S   0  0  0  0  0  0  0  0  0  0  0  0
    7.4946  -13.3233   25.7976 C   0  0  0  0  0  0  0  0  0  0  0  0
    6.7781  -13.8018   24.5507 C   0  0  0  0  0  0  0  0  0  0  0  0
    7.7572  -14.5703   23.7396 C   0  0  2  0  0  0  0  0  0  0  0  0
    7.2542  -14.9725   22.4546 N   0  0  0  0  0  0  0  0  0  0  0  0
    8.4595  -15.6579   24.4779 C   0  0  0  0  0  0  0  0  0  0  0  0
    7.8083  -16.7053   24.7000 O   0  0  0  0  0  0  0  0  0  0  0  0
    9.7864  -15.5590   24.9230 N   0  0  0  0  0  0  0  0  0  0  0  0
   10.4631  -16.5922   25.6626 C   0  0  1  0  0  0  0  0  0  0  0  0
   11.9660  -16.5537   25.4536 C   0  0  0  0  0  0  0  0  0  0  0  0
   12.3247  -16.9335   24.0628 C   0  0  0  0  0  0  0  0  0  0  0  0
   11.4723  -17.4970   23.1243 C   0  0  0  0  0  0  0  0  0  0  0  0
   12.1398  -17.7071   21.9711 N   0  0  0  0  0  0  0  0  0  0  0  0
   13.3965  -17.2894   22.1571 C   0  0  0  0  0  0  0  0  0  0  0  0
   13.5098  -16.8186   23.4298 N   0  0  0  0  0  0  0  0  0  0  0  0
   10.2386  -16.4410   27.1165 C   0  0  0  0  0  0  0  0  0  0  0  0
   10.7199  -17.2297   27.9580 O   0  0  0  0  0  0  0  0  0  0  0  0
    9.4668  -15.3864   27.5590 O   0  0  0  0  0  0  0  0  0  0  0  0
  2  1  1  6
  2  5  1  0
  3  2  1  0
  3  4  1  0
  5  6  2  0
  7  8  1  0
  9  8  1  0
 10  9  1  0
 11 10  1  1
 11 13  1  0
 12  5  1  0
 12 11  1  0
 13 15  1  0
 13 14  2  0
 15 16  1  0
 16 23  1  0
 17 18  1  0
 16 17  1  1
 18 19  2  0
 19 20  1  0
 21 20  1  0
 22 18  1  0
 22 21  2  0
 23 24  2  0
 23 25  1  0
M  END
$$$$
