CMH.pdb
     RDKit          3D

 25 25  0  0  1  0  0  0  0  0999 V2000
    8.0443  -16.4692   19.9072 N   0  0  0  0  0  0  0  0  0  0  0  0
    7.3838  -16.7421   21.1461 C   0  0  1  0  0  0  0  0  0  0  0  0
    7.2213  -18.2032   21.4042 C   0  0  0  0  0  0  0  0  0  0  0  0
    5.9811  -18.8553   20.2536 S   0  0  0  0  0  0  0  0  0  0  0  0
    8.1358  -16.0821   22.2685 C   0  0  0  0  0  0  0  0  0  0  0  0
    9.2977  -15.6407   22.1015 O   0  0  0  0  0  0  0  0  0  0  0  0
    6.7636  -10.4874   26.6049 C   0  0  0  0  0  0  0  0  0  0  0  0
    6.7409  -12.2641   26.8526 S   0  0  0  0  0  0  0  0  0  0  0  0
    7.1991  -13.1862   25.3616 C   0  0  0  0  0  0  0  0  0  0  0  0
    7.1909  -14.6809   25.6121 C   0  0  0  0  0  0  0  0  0  0  0  0
    8.1576  -15.2978   24.6677 C   0  0  2  0  0  0  0  0  0  0  0  0
    7.5360  -15.9478   23.5465 N   0  0  0  0  0  0  0  0  0  0  0  0
    9.2289  -16.1075   25.3142 C   0  0  0  0  0  0  0  0  0  0  0  0
    9.8816  -15.5565   26.2311 O   0  0  0  0  0  0  0  0  0  0  0  0
    9.5283  -17.4282   24.9471 N   0  0  0  0  0  0  0  0  0  0  0  0
   10.5496  -18.2235   25.5771 C   0  0  1  0  0  0  0  0  0  0  0  0
   11.9205  -17.5805   25.4722 C   0  0  0  0  0  0  0  0  0  0  0  0
   12.2826  -17.3158   24.0559 C   0  0  0  0  0  0  0  0  0  0  0  0
   13.0168  -16.2352   23.5889 C   0  0  0  0  0  0  0  0  0  0  0  0
   13.1520  -16.3214   22.2495 N   0  0  0  0  0  0  0  0  0  0  0  0
   12.5201  -17.4325   21.8565 C   0  0  0  0  0  0  0  0  0  0  0  0
   11.9907  -18.0381   22.9553 N   0  0  0  0  0  0  0  0  0  0  0  0
   10.2770  -18.3950   27.0205 C   0  0  0  0  0  0  0  0  0  0  0  0
   11.0440  -19.0237   27.7809 O   0  0  0  0  0  0  0  0  0  0  0  0
    9.1295  -17.8376   27.5462 O   0  0  0  0  0  0  0  0  0  0  0  0
  2  1  1  6
  2  5  1  0
  3  2  1  0
  3  4  1  0
  5  6  2  0
  7  8  1  0
  9  8  1  0
 10  9  1  0
 11 10  1  1
 11 13  1  0
 12  5  1  0
 12 11  1  0
 13 15  1  0
 13 14  2  0
 15 16  1  0
 16 23  1  0
 17 18  1  0
 16 17  1  1
 18 19  2  0
 19 20  1  0
 21 20  1  0
 22 18  1  0
 22 21  2  0
 23 24  2  0
 23 25  1  0
M  END
$$$$
