CMH.pdb
     RDKit          3D

 25 25  0  0  1  0  0  0  0  0999 V2000
    8.5833  -15.5255   19.5620 N   0  0  0  0  0  0  0  0  0  0  0  0
    7.6444  -15.7461   20.6181 C   0  0  1  0  0  0  0  0  0  0  0  0
    7.0436  -17.1120   20.5808 C   0  0  0  0  0  0  0  0  0  0  0  0
    8.3534  -18.3244   20.9001 S   0  0  0  0  0  0  0  0  0  0  0  0
    8.3129  -15.4930   21.9411 C   0  0  0  0  0  0  0  0  0  0  0  0
    9.5581  -15.5735   22.0662 O   0  0  0  0  0  0  0  0  0  0  0  0
    7.5809  -10.3746   26.7243 C   0  0  0  0  0  0  0  0  0  0  0  0
    6.6018  -11.8477   26.4244 S   0  0  0  0  0  0  0  0  0  0  0  0
    7.2307  -12.8390   25.0441 C   0  0  0  0  0  0  0  0  0  0  0  0
    7.1519  -14.3217   25.3477 C   0  0  0  0  0  0  0  0  0  0  0  0
    8.0668  -15.0197   24.4083 C   0  0  2  0  0  0  0  0  0  0  0  0
    7.5367  -15.1563   23.0792 N   0  0  0  0  0  0  0  0  0  0  0  0
    8.6741  -16.2706   24.9450 C   0  0  0  0  0  0  0  0  0  0  0  0
    7.9809  -17.3123   24.8774 O   0  0  0  0  0  0  0  0  0  0  0  0
    9.9579  -16.3272   25.5083 N   0  0  0  0  0  0  0  0  0  0  0  0
   10.5707  -17.5388   25.9866 C   0  0  1  0  0  0  0  0  0  0  0  0
   12.0845  -17.4915   25.8870 C   0  0  0  0  0  0  0  0  0  0  0  0
   12.5255  -17.3372   24.4767 C   0  0  0  0  0  0  0  0  0  0  0  0
   11.8675  -17.8257   23.3572 C   0  0  0  0  0  0  0  0  0  0  0  0
   12.5558  -17.4966   22.2448 N   0  0  0  0  0  0  0  0  0  0  0  0
   13.6358  -16.8103   22.6337 C   0  0  0  0  0  0  0  0  0  0  0  0
   13.6180  -16.7130   23.9918 N   0  0  0  0  0  0  0  0  0  0  0  0
   10.2520  -17.7707   27.4119 C   0  0  0  0  0  0  0  0  0  0  0  0
    9.5270  -16.9979   28.0746 O   0  0  0  0  0  0  0  0  0  0  0  0
   10.7771  -18.8855   28.0327 O   0  0  0  0  0  0  0  0  0  0  0  0
  2  1  1  6
  2  5  1  0
  3  2  1  0
  3  4  1  0
  5  6  2  0
  7  8  1  0
  9  8  1  0
 10  9  1  0
 11 10  1  1
 11 13  1  0
 12  5  1  0
 12 11  1  0
 13 15  1  0
 13 14  2  0
 15 16  1  0
 16 23  1  0
 17 18  1  0
 16 17  1  1
 18 19  2  0
 19 20  1  0
 21 20  1  0
 22 18  1  0
 22 21  2  0
 23 24  2  0
 23 25  1  0
M  END
$$$$
