CMH.pdb
     RDKit          3D

 25 25  0  0  1  0  0  0  0  0999 V2000
    9.2788  -16.2241   19.6700 N   0  0  0  0  0  0  0  0  0  0  0  0
    8.1606  -15.8975   20.4997 C   0  0  1  0  0  0  0  0  0  0  0  0
    7.1079  -16.9558   20.4930 C   0  0  0  0  0  0  0  0  0  0  0  0
    7.8247  -18.4830   21.1572 S   0  0  0  0  0  0  0  0  0  0  0  0
    8.6394  -15.6298   21.8998 C   0  0  0  0  0  0  0  0  0  0  0  0
    9.8421  -15.3642   22.1359 O   0  0  0  0  0  0  0  0  0  0  0  0
    6.9887  -10.8720   27.3479 C   0  0  0  0  0  0  0  0  0  0  0  0
    6.2058  -12.3382   26.6726 S   0  0  0  0  0  0  0  0  0  0  0  0
    7.4015  -13.5431   26.0389 C   0  0  0  0  0  0  0  0  0  0  0  0
    6.9717  -14.0927   24.6934 C   0  0  0  0  0  0  0  0  0  0  0  0
    7.9819  -15.0999   24.2785 C   0  0  2  0  0  0  0  0  0  0  0  0
    7.7283  -15.6745   22.9856 N   0  0  0  0  0  0  0  0  0  0  0  0
    8.3267  -16.1032   25.3254 C   0  0  0  0  0  0  0  0  0  0  0  0
    8.1176  -15.7752   26.5166 O   0  0  0  0  0  0  0  0  0  0  0  0
    8.8622  -17.3679   25.0382 N   0  0  0  0  0  0  0  0  0  0  0  0
   10.2600  -17.6098   24.7934 C   0  0  1  0  0  0  0  0  0  0  0  0
   10.8809  -16.5368   23.9177 C   0  0  0  0  0  0  0  0  0  0  0  0
   12.3370  -16.7688   23.7348 C   0  0  0  0  0  0  0  0  0  0  0  0
   13.2657  -15.8320   23.3052 C   0  0  0  0  0  0  0  0  0  0  0  0
   14.4910  -16.3941   23.2580 N   0  0  0  0  0  0  0  0  0  0  0  0
   14.3603  -17.6665   23.6482 C   0  0  0  0  0  0  0  0  0  0  0  0
   13.0497  -17.8953   23.9384 N   0  0  0  0  0  0  0  0  0  0  0  0
   11.0291  -17.6160   26.0565 C   0  0  0  0  0  0  0  0  0  0  0  0
   11.9425  -18.4377   26.2852 O   0  0  0  0  0  0  0  0  0  0  0  0
   10.7240  -16.6761   27.0195 O   0  0  0  0  0  0  0  0  0  0  0  0
  2  1  1  6
  2  5  1  0
  3  2  1  0
  3  4  1  0
  5  6  2  0
  7  8  1  0
  9  8  1  0
 10  9  1  0
 11 10  1  1
 11 13  1  0
 12  5  1  0
 12 11  1  0
 13 15  1  0
 13 14  2  0
 15 16  1  0
 16 23  1  0
 17 18  1  0
 16 17  1  6
 18 19  2  0
 19 20  1  0
 21 20  1  0
 22 18  1  0
 22 21  2  0
 23 24  2  0
 23 25  1  0
M  END
$$$$
