CMH.pdb
     RDKit          3D

 25 25  0  0  1  0  0  0  0  0999 V2000
    9.6778  -16.2730   19.4136 N   0  0  0  0  0  0  0  0  0  0  0  0
    8.4927  -16.0692   20.1880 C   0  0  1  0  0  0  0  0  0  0  0  0
    7.6020  -17.2669   20.2066 C   0  0  0  0  0  0  0  0  0  0  0  0
    8.5606  -18.6863   20.8013 S   0  0  0  0  0  0  0  0  0  0  0  0
    8.8731  -15.6651   21.5855 C   0  0  0  0  0  0  0  0  0  0  0  0
   10.0218  -15.8880   22.0368 O   0  0  0  0  0  0  0  0  0  0  0  0
    7.1491  -11.4721   28.0604 C   0  0  0  0  0  0  0  0  0  0  0  0
    6.5548  -12.0712   26.4772 S   0  0  0  0  0  0  0  0  0  0  0  0
    7.6841  -13.2621   25.7091 C   0  0  0  0  0  0  0  0  0  0  0  0
    7.1968  -13.6791   24.3360 C   0  0  0  0  0  0  0  0  0  0  0  0
    8.1765  -14.6537   23.7908 C   0  0  2  0  0  0  0  0  0  0  0  0
    7.9283  -15.0194   22.4230 N   0  0  0  0  0  0  0  0  0  0  0  0
    8.4614  -15.8142   24.6815 C   0  0  0  0  0  0  0  0  0  0  0  0
    7.5463  -16.6584   24.8238 O   0  0  0  0  0  0  0  0  0  0  0  0
    9.6817  -15.9951   25.3499 N   0  0  0  0  0  0  0  0  0  0  0  0
    9.9724  -17.1221   26.1970 C   0  0  1  0  0  0  0  0  0  0  0  0
   11.4052  -17.5985   26.0427 C   0  0  0  0  0  0  0  0  0  0  0  0
   11.6271  -18.2096   24.7068 C   0  0  0  0  0  0  0  0  0  0  0  0
   10.6544  -18.4513   23.7475 C   0  0  0  0  0  0  0  0  0  0  0  0
   11.2182  -19.0147   22.6593 N   0  0  0  0  0  0  0  0  0  0  0  0
   12.5268  -19.1358   22.9069 C   0  0  0  0  0  0  0  0  0  0  0  0
   12.7764  -18.6461   24.1527 N   0  0  0  0  0  0  0  0  0  0  0  0
    9.7980  -16.7753   27.6240 C   0  0  0  0  0  0  0  0  0  0  0  0
    9.5195  -15.6188   28.0072 O   0  0  0  0  0  0  0  0  0  0  0  0
    9.9492  -17.7701   28.5682 O   0  0  0  0  0  0  0  0  0  0  0  0
  2  1  1  6
  2  5  1  0
  3  2  1  0
  3  4  1  0
  5  6  2  0
  7  8  1  0
  9  8  1  0
 10  9  1  0
 11 10  1  1
 11 13  1  0
 12  5  1  0
 12 11  1  0
 13 15  1  0
 13 14  2  0
 15 16  1  0
 16 23  1  0
 17 18  1  0
 16 17  1  1
 18 19  2  0
 19 20  1  0
 21 20  1  0
 22 18  1  0
 22 21  2  0
 23 24  2  0
 23 25  1  0
M  END
$$$$
