CMH.pdb
     RDKit          3D

 25 25  0  0  1  0  0  0  0  0999 V2000
    9.4004  -15.7879   19.3152 N   0  0  0  0  0  0  0  0  0  0  0  0
    8.2386  -15.7215   20.1467 C   0  0  1  0  0  0  0  0  0  0  0  0
    7.4548  -16.9918   20.1462 C   0  0  0  0  0  0  0  0  0  0  0  0
    8.5156  -18.3214   20.7739 S   0  0  0  0  0  0  0  0  0  0  0  0
    8.6462  -15.3463   21.5446 C   0  0  0  0  0  0  0  0  0  0  0  0
    9.8376  -15.4460   21.9233 O   0  0  0  0  0  0  0  0  0  0  0  0
    6.8942  -11.6577   28.2876 C   0  0  0  0  0  0  0  0  0  0  0  0
    6.2488  -12.2910   26.7380 S   0  0  0  0  0  0  0  0  0  0  0  0
    7.4443  -13.3228   25.8496 C   0  0  0  0  0  0  0  0  0  0  0  0
    6.8980  -13.7716   24.5090 C   0  0  0  0  0  0  0  0  0  0  0  0
    7.9484  -14.5891   23.8492 C   0  0  2  0  0  0  0  0  0  0  0  0
    7.6789  -14.8692   22.4654 N   0  0  0  0  0  0  0  0  0  0  0  0
    8.3915  -15.7797   24.6287 C   0  0  0  0  0  0  0  0  0  0  0  0
    7.5816  -16.7315   24.7204 O   0  0  0  0  0  0  0  0  0  0  0  0
    9.6469  -15.8754   25.2479 N   0  0  0  0  0  0  0  0  0  0  0  0
   10.0462  -16.9767   26.0847 C   0  0  1  0  0  0  0  0  0  0  0  0
   11.4347  -17.4830   25.7389 C   0  0  0  0  0  0  0  0  0  0  0  0
   11.4348  -18.2069   24.4415 C   0  0  0  0  0  0  0  0  0  0  0  0
   10.3137  -18.6270   23.7406 C   0  0  0  0  0  0  0  0  0  0  0  0
   10.6931  -19.2494   22.6055 N   0  0  0  0  0  0  0  0  0  0  0  0
   12.0299  -19.2333   22.5709 C   0  0  0  0  0  0  0  0  0  0  0  0
   12.4819  -18.5991   23.6878 N   0  0  0  0  0  0  0  0  0  0  0  0
   10.0888  -16.5767   27.5078 C   0  0  0  0  0  0  0  0  0  0  0  0
   10.4111  -17.3672   28.4205 O   0  0  0  0  0  0  0  0  0  0  0  0
    9.7592  -15.2783   27.8385 O   0  0  0  0  0  0  0  0  0  0  0  0
  2  1  1  6
  2  5  1  0
  3  2  1  0
  3  4  1  0
  5  6  2  0
  7  8  1  0
  9  8  1  0
 10  9  1  0
 11 10  1  1
 11 13  1  0
 12  5  1  0
 12 11  1  0
 13 15  1  0
 13 14  2  0
 15 16  1  0
 16 23  1  0
 17 18  1  0
 16 17  1  6
 18 19  2  0
 19 20  1  0
 21 20  1  0
 22 18  1  0
 22 21  2  0
 23 24  2  0
 23 25  1  0
M  END
$$$$
