CMH.pdb
     RDKit          3D

 25 25  0  0  1  0  0  0  0  0999 V2000
    9.8671  -18.2546   15.4222 N   0  0  0  0  0  0  0  0  0  0  0  0
    8.9742  -18.3628   16.5342 C   0  0  1  0  0  0  0  0  0  0  0  0
    8.7936  -19.7710   16.9949 C   0  0  0  0  0  0  0  0  0  0  0  0
    8.1728  -20.7550   15.6044 S   0  0  0  0  0  0  0  0  0  0  0  0
    9.4679  -17.4929   17.6570 C   0  0  0  0  0  0  0  0  0  0  0  0
   10.6930  -17.3743   17.8971 O   0  0  0  0  0  0  0  0  0  0  0  0
    8.1180  -11.7265   22.8347 C   0  0  0  0  0  0  0  0  0  0  0  0
    7.3542  -12.9392   21.7557 S   0  0  0  0  0  0  0  0  0  0  0  0
    8.5464  -14.1215   21.0742 C   0  0  0  0  0  0  0  0  0  0  0  0
    7.9021  -15.0207   20.0382 C   0  0  0  0  0  0  0  0  0  0  0  0
    8.9077  -16.0407   19.6443 C   0  0  2  0  0  0  0  0  0  0  0  0
    8.5454  -16.7865   18.4701 N   0  0  0  0  0  0  0  0  0  0  0  0
    9.4068  -16.8877   20.7645 C   0  0  0  0  0  0  0  0  0  0  0  0
    8.8128  -17.9730   20.9637 O   0  0  0  0  0  0  0  0  0  0  0  0
   10.4874  -16.5281   21.5840 N   0  0  0  0  0  0  0  0  0  0  0  0
   11.0095  -17.3627   22.6344 C   0  0  1  0  0  0  0  0  0  0  0  0
   12.4478  -17.7733   22.3766 C   0  0  0  0  0  0  0  0  0  0  0  0
   12.5155  -19.0808   21.6745 C   0  0  0  0  0  0  0  0  0  0  0  0
   11.4392  -19.9027   21.3732 C   0  0  0  0  0  0  0  0  0  0  0  0
   11.8748  -21.0067   20.7320 N   0  0  0  0  0  0  0  0  0  0  0  0
   13.2034  -20.9034   20.6198 C   0  0  0  0  0  0  0  0  0  0  0  0
   13.5940  -19.7317   21.1932 N   0  0  0  0  0  0  0  0  0  0  0  0
   11.0028  -16.6532   23.9319 C   0  0  0  0  0  0  0  0  0  0  0  0
   11.3816  -17.1898   24.9952 O   0  0  0  0  0  0  0  0  0  0  0  0
   10.5604  -15.3467   23.9675 O   0  0  0  0  0  0  0  0  0  0  0  0
  2  1  1  6
  2  5  1  0
  3  2  1  0
  3  4  1  0
  5  6  2  0
  7  8  1  0
  9  8  1  0
 10  9  1  0
 11 10  1  1
 11 13  1  0
 12  5  1  0
 12 11  1  0
 13 15  1  0
 13 14  2  0
 15 16  1  0
 16 23  1  0
 17 18  1  0
 16 17  1  6
 18 19  2  0
 19 20  1  0
 21 20  1  0
 22 18  1  0
 22 21  2  0
 23 24  2  0
 23 25  1  0
M  END
$$$$
