CMH.pdb
     RDKit          3D

 25 25  0  0  1  0  0  0  0  0999 V2000
    9.3134  -15.8298   19.4771 N   0  0  0  0  0  0  0  0  0  0  0  0
    8.1831  -15.8192   20.3534 C   0  0  1  0  0  0  0  0  0  0  0  0
    7.4397  -17.1136   20.3527 C   0  0  0  0  0  0  0  0  0  0  0  0
    8.6081  -18.4471   20.7318 S   0  0  0  0  0  0  0  0  0  0  0  0
    8.6326  -15.4626   21.7434 C   0  0  0  0  0  0  0  0  0  0  0  0
    9.8240  -15.6202   22.1019 O   0  0  0  0  0  0  0  0  0  0  0  0
    7.2030  -10.5415   27.0925 C   0  0  0  0  0  0  0  0  0  0  0  0
    6.4999  -12.1828   26.9188 S   0  0  0  0  0  0  0  0  0  0  0  0
    7.6014  -13.3294   26.0497 C   0  0  0  0  0  0  0  0  0  0  0  0
    7.0543  -13.6927   24.6838 C   0  0  0  0  0  0  0  0  0  0  0  0
    8.0286  -14.6124   24.0420 C   0  0  2  0  0  0  0  0  0  0  0  0
    7.7059  -14.9375   22.6796 N   0  0  0  0  0  0  0  0  0  0  0  0
    8.4072  -15.7933   24.8687 C   0  0  0  0  0  0  0  0  0  0  0  0
    7.5420  -16.6888   25.0089 O   0  0  0  0  0  0  0  0  0  0  0  0
    9.6614  -15.9390   25.4806 N   0  0  0  0  0  0  0  0  0  0  0  0
   10.0497  -17.0935   26.2479 C   0  0  1  0  0  0  0  0  0  0  0  0
   11.5164  -17.4367   26.0614 C   0  0  0  0  0  0  0  0  0  0  0  0
   11.7851  -17.9132   24.6800 C   0  0  0  0  0  0  0  0  0  0  0  0
   10.8328  -18.1624   23.7024 C   0  0  0  0  0  0  0  0  0  0  0  0
   11.4390  -18.5811   22.5724 N   0  0  0  0  0  0  0  0  0  0  0  0
   12.7546  -18.6029   22.8115 C   0  0  0  0  0  0  0  0  0  0  0  0
   12.9659  -18.1967   24.0939 N   0  0  0  0  0  0  0  0  0  0  0  0
    9.8549  -16.8616   27.6954 C   0  0  0  0  0  0  0  0  0  0  0  0
   10.1110  -17.7297   28.5573 O   0  0  0  0  0  0  0  0  0  0  0  0
    9.3711  -15.6372   28.1084 O   0  0  0  0  0  0  0  0  0  0  0  0
  2  1  1  6
  2  5  1  0
  3  2  1  0
  3  4  1  0
  5  6  2  0
  7  8  1  0
  9  8  1  0
 10  9  1  0
 11 10  1  1
 11 13  1  0
 12  5  1  0
 12 11  1  0
 13 15  1  0
 13 14  2  0
 15 16  1  0
 16 23  1  0
 17 18  1  0
 16 17  1  1
 18 19  2  0
 19 20  1  0
 21 20  1  0
 22 18  1  0
 22 21  2  0
 23 24  2  0
 23 25  1  0
M  END
$$$$
