SQL.pdb
     RDKit          3D

 24 23  0  0  1  0  0  0  0  0999 V2000
   11.2810  -13.4410   19.3943 O   0  0  0  0  0  0  0  0  0  0  0  0
   10.4113  -14.4382   18.9544 C   0  0  0  0  0  0  0  0  0  0  0  0
    9.0023  -13.8819   18.9746 C   0  0  2  0  0  0  0  0  0  0  0  0
    8.9594  -12.4794   18.6906 N   0  0  0  0  0  0  0  0  0  0  0  0
    8.4410  -14.1202   20.3183 C   0  0  0  0  0  0  0  0  0  0  0  0
    7.6983  -13.2547   20.8337 O   0  0  0  0  0  0  0  0  0  0  0  0
    6.6645  -19.5214   20.2237 N   0  0  0  0  0  0  0  0  0  0  0  0
    6.0647  -19.1772   21.4528 C   0  0  0  0  0  0  0  0  0  0  0  0
    4.9832  -19.6976   21.7858 O   0  0  0  0  0  0  0  0  0  0  0  0
    6.7308  -18.1997   22.3325 C   0  0  0  0  0  0  0  0  0  0  0  0
    7.8497  -17.5040   21.6217 C   0  0  0  0  0  0  0  0  0  0  0  0
    7.6304  -16.0064   21.6790 C   0  0  2  0  0  0  0  0  0  0  0  0
    8.7122  -15.2968   21.0504 N   0  0  0  0  0  0  0  0  0  0  0  0
    7.5496  -15.5625   23.1096 C   0  0  0  0  0  0  0  0  0  0  0  0
    6.6880  -16.0394   23.8855 O   0  0  0  0  0  0  0  0  0  0  0  0
    5.5387  -12.4616   26.8349 C   0  0  0  0  0  0  0  0  0  0  0  0
    6.9442  -12.9174   26.5781 C   0  0  2  0  0  0  0  0  0  0  0  0
    7.9344  -11.7836   26.7843 C   0  0  0  0  0  0  0  0  0  0  0  0
    7.0620  -13.3677   25.1403 C   0  0  0  0  0  0  0  0  0  0  0  0
    8.3865  -14.1087   24.9387 C   0  0  2  0  0  0  0  0  0  0  0  0
    8.4507  -14.6012   23.5832 N   0  0  0  0  0  0  0  0  0  0  0  0
    8.4044  -15.2493   25.8975 C   0  0  0  0  0  0  0  0  0  0  0  0
    7.4934  -16.1183   25.9152 O   0  0  0  0  0  0  0  0  0  0  0  0
    9.4608  -15.3366   26.7843 O   0  0  0  0  0  0  0  0  0  0  0  0
  2  1  1  0
  3  2  1  0
  3  4  1  1
  5  3  1  0
  5  6  2  0
  7  8  1  0
  8 10  1  0
  9  8  2  0
 10 11  1  0
 12 11  1  1
 12 13  1  0
 13  5  1  0
 14 12  1  0
 15 14  2  0
 17 19  1  0
 17 16  1  6
 17 18  1  0
 20 19  1  6
 20 22  1  0
 20 21  1  0
 21 14  1  0
 22 24  1  0
 23 22  2  0
M  END
$$$$
