SQL.pdb
     RDKit          3D

 24 23  0  0  1  0  0  0  0  0999 V2000
    8.4911  -15.2078   17.7119 O   0  0  0  0  0  0  0  0  0  0  0  0
    8.0862  -15.2985   19.0431 C   0  0  0  0  0  0  0  0  0  0  0  0
    8.1254  -16.7564   19.4528 C   0  0  2  0  0  0  0  0  0  0  0  0
    7.0102  -17.5003   18.9504 N   0  0  0  0  0  0  0  0  0  0  0  0
    8.1188  -16.8125   20.9273 C   0  0  0  0  0  0  0  0  0  0  0  0
    7.0254  -16.8822   21.5323 O   0  0  0  0  0  0  0  0  0  0  0  0
   12.5897  -18.7314   25.5527 N   0  0  0  0  0  0  0  0  0  0  0  0
   11.2192  -19.0639   25.5563 C   0  0  0  0  0  0  0  0  0  0  0  0
   10.8501  -20.1816   25.9637 O   0  0  0  0  0  0  0  0  0  0  0  0
   10.2356  -18.0772   25.0745 C   0  0  0  0  0  0  0  0  0  0  0  0
   10.4014  -17.8163   23.6097 C   0  0  0  0  0  0  0  0  0  0  0  0
    9.2436  -16.9760   23.1123 C   0  0  2  0  0  0  0  0  0  0  0  0
    9.3086  -16.7902   21.6875 N   0  0  0  0  0  0  0  0  0  0  0  0
    9.2854  -15.6244   23.7618 C   0  0  0  0  0  0  0  0  0  0  0  0
    9.7097  -14.6222   23.1393 O   0  0  0  0  0  0  0  0  0  0  0  0
    8.0451  -11.5080   25.5010 C   0  0  0  0  0  0  0  0  0  0  0  0
    6.8271  -12.3702   25.6510 C   0  0  2  0  0  0  0  0  0  0  0  0
    6.4216  -12.4968   27.1098 C   0  0  0  0  0  0  0  0  0  0  0  0
    7.1402  -13.7592   25.1443 C   0  0  0  0  0  0  0  0  0  0  0  0
    8.5246  -14.1882   25.6375 C   0  0  2  0  0  0  0  0  0  0  0  0
    8.8435  -15.4823   25.0828 N   0  0  0  0  0  0  0  0  0  0  0  0
    8.4571  -14.2725   27.1237 C   0  0  0  0  0  0  0  0  0  0  0  0
    7.9234  -15.2499   27.7114 O   0  0  0  0  0  0  0  0  0  0  0  0
    9.0021  -13.2370   27.8590 O   0  0  0  0  0  0  0  0  0  0  0  0
  2  1  1  0
  3  2  1  0
  3  4  1  6
  5  3  1  0
  5  6  2  0
  7  8  1  0
  8 10  1  0
  9  8  2  0
 10 11  1  0
 12 11  1  1
 12 13  1  0
 13  5  1  0
 14 12  1  0
 15 14  2  0
 17 19  1  0
 17 16  1  1
 17 18  1  0
 20 19  1  6
 20 22  1  0
 20 21  1  0
 21 14  1  0
 22 24  1  0
 23 22  2  0
M  END
$$$$
