SQL.pdb
     RDKit          3D

 24 23  0  0  1  0  0  0  0  0999 V2000
    8.6088  -14.7888   19.1184 O   0  0  0  0  0  0  0  0  0  0  0  0
    7.8269  -15.6015   18.2985 C   0  0  0  0  0  0  0  0  0  0  0  0
    7.9729  -17.0333   18.7714 C   0  0  2  0  0  0  0  0  0  0  0  0
    7.2344  -17.9579   17.9658 N   0  0  0  0  0  0  0  0  0  0  0  0
    7.4814  -17.1033   20.1609 C   0  0  0  0  0  0  0  0  0  0  0  0
    6.2497  -17.1730   20.3717 O   0  0  0  0  0  0  0  0  0  0  0  0
   10.3713  -20.3488   24.9407 N   0  0  0  0  0  0  0  0  0  0  0  0
   10.3274  -19.6740   23.7031 C   0  0  0  0  0  0  0  0  0  0  0  0
   10.8060  -20.2082   22.6848 O   0  0  0  0  0  0  0  0  0  0  0  0
    9.7115  -18.3366   23.6313 C   0  0  0  0  0  0  0  0  0  0  0  0
    8.2525  -18.4276   23.3087 C   0  0  0  0  0  0  0  0  0  0  0  0
    7.8121  -17.1630   22.6009 C   0  0  2  0  0  0  0  0  0  0  0  0
    8.3547  -17.0944   21.2705 N   0  0  0  0  0  0  0  0  0  0  0  0
    8.2931  -15.9641   23.3637 C   0  0  0  0  0  0  0  0  0  0  0  0
    9.4419  -15.4984   23.1764 O   0  0  0  0  0  0  0  0  0  0  0  0
    5.8054  -11.6087   26.9385 C   0  0  0  0  0  0  0  0  0  0  0  0
    7.0240  -12.2223   26.3156 C   0  0  2  0  0  0  0  0  0  0  0  0
    7.7031  -11.2495   25.3663 C   0  0  0  0  0  0  0  0  0  0  0  0
    6.6102  -13.4309   25.5082 C   0  0  0  0  0  0  0  0  0  0  0  0
    7.8548  -14.1940   25.0470 C   0  0  2  0  0  0  0  0  0  0  0  0
    7.4447  -15.3580   24.2982 N   0  0  0  0  0  0  0  0  0  0  0  0
    8.5963  -14.6096   26.2709 C   0  0  0  0  0  0  0  0  0  0  0  0
    8.3142  -15.6673   26.8931 O   0  0  0  0  0  0  0  0  0  0  0  0
    9.6197  -13.7958   26.7188 O   0  0  0  0  0  0  0  0  0  0  0  0
  2  1  1  0
  3  2  1  0
  3  4  1  6
  5  3  1  0
  5  6  2  0
  7  8  1  0
  8 10  1  0
  9  8  2  0
 10 11  1  0
 12 11  1  1
 12 13  1  0
 13  5  1  0
 14 12  1  0
 15 14  2  0
 17 19  1  0
 17 16  1  6
 17 18  1  0
 20 19  1  1
 20 22  1  0
 20 21  1  0
 21 14  1  0
 22 24  1  0
 23 22  2  0
M  END
$$$$
