SQL.pdb
     RDKit          3D

 24 23  0  0  1  0  0  0  0  0999 V2000
    9.7730  -13.3944   20.1093 O   0  0  0  0  0  0  0  0  0  0  0  0
    9.2935  -14.6326   19.6835 C   0  0  0  0  0  0  0  0  0  0  0  0
    7.7794  -14.5902   19.7115 C   0  0  2  0  0  0  0  0  0  0  0  0
    7.2573  -13.3061   19.3539 N   0  0  0  0  0  0  0  0  0  0  0  0
    7.3425  -14.9253   21.0805 C   0  0  0  0  0  0  0  0  0  0  0  0
    6.7731  -14.0516   21.7724 O   0  0  0  0  0  0  0  0  0  0  0  0
    7.2597  -20.5168   24.1512 N   0  0  0  0  0  0  0  0  0  0  0  0
    6.7433  -19.5885   25.0788 C   0  0  0  0  0  0  0  0  0  0  0  0
    6.3559  -19.9753   26.1976 O   0  0  0  0  0  0  0  0  0  0  0  0
    6.6688  -18.1635   24.7090 C   0  0  0  0  0  0  0  0  0  0  0  0
    7.1413  -17.9415   23.3059 C   0  0  0  0  0  0  0  0  0  0  0  0
    7.1202  -16.4593   22.9946 C   0  0  2  0  0  0  0  0  0  0  0  0
    7.5440  -16.2044   21.6439 N   0  0  0  0  0  0  0  0  0  0  0  0
    8.0521  -15.7357   23.9209 C   0  0  0  0  0  0  0  0  0  0  0  0
    9.2811  -15.6736   23.6809 O   0  0  0  0  0  0  0  0  0  0  0  0
    7.5006  -11.7102   25.3586 C   0  0  0  0  0  0  0  0  0  0  0  0
    6.6470  -12.6756   26.1259 C   0  0  2  0  0  0  0  0  0  0  0  0
    5.7289  -11.9469   27.0926 C   0  0  0  0  0  0  0  0  0  0  0  0
    7.5390  -13.5822   26.9422 C   0  0  0  0  0  0  0  0  0  0  0  0
    8.3984  -14.4377   26.0077 C   0  0  2  0  0  0  0  0  0  0  0  0
    7.5397  -15.1214   25.0700 N   0  0  0  0  0  0  0  0  0  0  0  0
    9.1198  -15.4285   26.8553 C   0  0  0  0  0  0  0  0  0  0  0  0
    8.8448  -16.6569   26.8237 O   0  0  0  0  0  0  0  0  0  0  0  0
   10.1161  -14.9642   27.6931 O   0  0  0  0  0  0  0  0  0  0  0  0
  2  1  1  0
  3  2  1  0
  3  4  1  1
  5  3  1  0
  5  6  2  0
  7  8  1  0
  8 10  1  0
  9  8  2  0
 10 11  1  0
 12 11  1  1
 12 13  1  0
 13  5  1  0
 14 12  1  0
 15 14  2  0
 17 19  1  0
 17 16  1  1
 17 18  1  0
 20 19  1  1
 20 22  1  0
 20 21  1  0
 21 14  1  0
 22 24  1  0
 23 22  2  0
M  END
$$$$
