SQL.pdb
     RDKit          3D

 24 23  0  0  1  0  0  0  0  0999 V2000
    9.8293  -13.4694   20.0067 O   0  0  0  0  0  0  0  0  0  0  0  0
    9.2402  -14.6114   19.4655 C   0  0  0  0  0  0  0  0  0  0  0  0
    7.7382  -14.4899   19.6211 C   0  0  2  0  0  0  0  0  0  0  0  0
    7.2614  -13.1672   19.3513 N   0  0  0  0  0  0  0  0  0  0  0  0
    7.3962  -14.8529   21.0098 C   0  0  0  0  0  0  0  0  0  0  0  0
    6.9091  -13.9839   21.7674 O   0  0  0  0  0  0  0  0  0  0  0  0
    7.1747  -20.5838   23.7948 N   0  0  0  0  0  0  0  0  0  0  0  0
    6.7301  -19.6852   24.7866 C   0  0  0  0  0  0  0  0  0  0  0  0
    6.3339  -20.1165   25.8859 O   0  0  0  0  0  0  0  0  0  0  0  0
    6.7404  -18.2379   24.5066 C   0  0  0  0  0  0  0  0  0  0  0  0
    7.1843  -17.9595   23.1043 C   0  0  0  0  0  0  0  0  0  0  0  0
    7.1734  -16.4650   22.8585 C   0  0  2  0  0  0  0  0  0  0  0  0
    7.5993  -16.1537   21.5204 N   0  0  0  0  0  0  0  0  0  0  0  0
    8.1101  -15.7893   23.8158 C   0  0  0  0  0  0  0  0  0  0  0  0
    9.3350  -15.6986   23.5643 O   0  0  0  0  0  0  0  0  0  0  0  0
    7.4608  -11.8803   25.3149 C   0  0  0  0  0  0  0  0  0  0  0  0
    6.6487  -12.8466   26.1249 C   0  0  2  0  0  0  0  0  0  0  0  0
    5.7715  -12.1182   27.1293 C   0  0  0  0  0  0  0  0  0  0  0  0
    7.5823  -13.7442   26.9039 C   0  0  0  0  0  0  0  0  0  0  0  0
    8.4564  -14.5444   25.9347 C   0  0  2  0  0  0  0  0  0  0  0  0
    7.6068  -15.2529   25.0072 N   0  0  0  0  0  0  0  0  0  0  0  0
    9.2439  -15.5135   26.7480 C   0  0  0  0  0  0  0  0  0  0  0  0
    8.9648  -16.7410   26.7752 O   0  0  0  0  0  0  0  0  0  0  0  0
   10.3073  -15.0295   27.4862 O   0  0  0  0  0  0  0  0  0  0  0  0
  2  1  1  0
  3  2  1  0
  3  4  1  1
  5  3  1  0
  5  6  2  0
  7  8  1  0
  8 10  1  0
  9  8  2  0
 10 11  1  0
 12 11  1  6
 12 13  1  0
 13  5  1  0
 14 12  1  0
 15 14  2  0
 17 19  1  0
 17 16  1  1
 17 18  1  0
 20 19  1  1
 20 22  1  0
 20 21  1  0
 21 14  1  0
 22 24  1  0
 23 22  2  0
M  END
$$$$
