SQL.pdb
     RDKit          3D

 24 23  0  0  1  0  0  0  0  0999 V2000
    9.6458  -15.3736   19.6151 O   0  0  0  0  0  0  0  0  0  0  0  0
    9.6270  -16.7678   19.6036 C   0  0  0  0  0  0  0  0  0  0  0  0
    8.1849  -17.2237   19.6900 C   0  0  2  0  0  0  0  0  0  0  0  0
    7.3510  -16.6039   18.7052 N   0  0  0  0  0  0  0  0  0  0  0  0
    7.6817  -16.8810   21.0341 C   0  0  0  0  0  0  0  0  0  0  0  0
    6.7534  -16.0490   21.1465 O   0  0  0  0  0  0  0  0  0  0  0  0
    6.9115  -21.0879   25.2430 N   0  0  0  0  0  0  0  0  0  0  0  0
    5.9368  -20.6317   24.3316 C   0  0  0  0  0  0  0  0  0  0  0  0
    4.9596  -21.3517   24.0518 O   0  0  0  0  0  0  0  0  0  0  0  0
    6.0889  -19.2998   23.7184 C   0  0  0  0  0  0  0  0  0  0  0  0
    7.3569  -18.6395   24.1624 C   0  0  0  0  0  0  0  0  0  0  0  0
    7.5088  -17.3097   23.4533 C   0  0  2  0  0  0  0  0  0  0  0  0
    8.2119  -17.4606   22.2076 N   0  0  0  0  0  0  0  0  0  0  0  0
    8.2881  -16.3631   24.3176 C   0  0  0  0  0  0  0  0  0  0  0  0
    9.5407  -16.3315   24.2736 O   0  0  0  0  0  0  0  0  0  0  0  0
    7.8676  -12.0196   25.1306 C   0  0  0  0  0  0  0  0  0  0  0  0
    6.7374  -12.7445   25.7990 C   0  0  2  0  0  0  0  0  0  0  0  0
    5.8401  -11.7806   26.5568 C   0  0  0  0  0  0  0  0  0  0  0  0
    7.3033  -13.7228   26.8024 C   0  0  0  0  0  0  0  0  0  0  0  0
    8.3086  -14.6474   26.1108 C   0  0  2  0  0  0  0  0  0  0  0  0
    7.6044  -15.5030   25.1855 N   0  0  0  0  0  0  0  0  0  0  0  0
    8.9567  -15.4677   27.1726 C   0  0  0  0  0  0  0  0  0  0  0  0
    8.4968  -16.5862   27.5233 O   0  0  0  0  0  0  0  0  0  0  0  0
   10.0945  -14.9676   27.7770 O   0  0  0  0  0  0  0  0  0  0  0  0
  2  1  1  0
  3  2  1  0
  3  4  1  6
  5  3  1  0
  5  6  2  0
  7  8  1  0
  8 10  1  0
  9  8  2  0
 10 11  1  0
 12 11  1  1
 12 13  1  0
 13  5  1  0
 14 12  1  0
 15 14  2  0
 17 19  1  0
 17 16  1  1
 17 18  1  0
 20 19  1  1
 20 22  1  0
 20 21  1  0
 21 14  1  0
 22 24  1  0
 23 22  2  0
M  END
$$$$
