SQL.pdb
     RDKit          3D

 24 23  0  0  1  0  0  0  0  0999 V2000
    6.5889  -15.0494   19.4260 O   0  0  0  0  0  0  0  0  0  0  0  0
    7.9104  -14.8640   19.0215 C   0  0  0  0  0  0  0  0  0  0  0  0
    8.6108  -16.2068   19.0588 C   0  0  2  0  0  0  0  0  0  0  0  0
    7.9695  -17.1860   18.2348 N   0  0  0  0  0  0  0  0  0  0  0  0
    8.6120  -16.6779   20.4572 C   0  0  0  0  0  0  0  0  0  0  0  0
    7.8036  -17.5682   20.8038 O   0  0  0  0  0  0  0  0  0  0  0  0
   13.7258  -17.9201   24.1015 N   0  0  0  0  0  0  0  0  0  0  0  0
   13.2733  -17.4942   22.8356 C   0  0  0  0  0  0  0  0  0  0  0  0
   13.9272  -17.7747   21.8132 O   0  0  0  0  0  0  0  0  0  0  0  0
   12.0241  -16.7175   22.7391 C   0  0  0  0  0  0  0  0  0  0  0  0
   10.8236  -17.6013   22.8762 C   0  0  0  0  0  0  0  0  0  0  0  0
    9.5657  -16.7711   22.7261 C   0  0  2  0  0  0  0  0  0  0  0  0
    9.4976  -16.1583   21.4266 N   0  0  0  0  0  0  0  0  0  0  0  0
    9.5541  -15.6817   23.7573 C   0  0  0  0  0  0  0  0  0  0  0  0
   10.3838  -14.7428   23.7134 O   0  0  0  0  0  0  0  0  0  0  0  0
    5.6584  -12.3689   26.7408 C   0  0  0  0  0  0  0  0  0  0  0  0
    7.0731  -12.8636   26.6826 C   0  0  2  0  0  0  0  0  0  0  0  0
    8.0236  -11.7570   26.2579 C   0  0  0  0  0  0  0  0  0  0  0  0
    7.1688  -13.9650   25.6522 C   0  0  0  0  0  0  0  0  0  0  0  0
    8.5221  -14.6702   25.7751 C   0  0  2  0  0  0  0  0  0  0  0  0
    8.6017  -15.7159   24.7831 N   0  0  0  0  0  0  0  0  0  0  0  0
    8.5910  -15.2577   27.1428 C   0  0  0  0  0  0  0  0  0  0  0  0
    8.2131  -16.4348   27.3813 O   0  0  0  0  0  0  0  0  0  0  0  0
    9.0876  -14.4703   28.1643 O   0  0  0  0  0  0  0  0  0  0  0  0
  2  1  1  0
  3  2  1  0
  3  4  1  6
  5  3  1  0
  5  6  2  0
  7  8  1  0
  8 10  1  0
  9  8  2  0
 10 11  1  0
 12 11  1  6
 12 13  1  0
 13  5  1  0
 14 12  1  0
 15 14  2  0
 17 19  1  0
 17 16  1  6
 17 18  1  0
 20 19  1  1
 20 22  1  0
 20 21  1  0
 21 14  1  0
 22 24  1  0
 23 22  2  0
M  END
$$$$
