SQL.pdb
     RDKit          3D

 24 23  0  0  1  0  0  0  0  0999 V2000
    9.3077  -11.8419   18.2701 O   0  0  0  0  0  0  0  0  0  0  0  0
    8.7557  -12.5609   19.3296 C   0  0  0  0  0  0  0  0  0  0  0  0
    8.6110  -14.0059   18.8981 C   0  0  2  0  0  0  0  0  0  0  0  0
    7.4896  -14.2129   18.0326 N   0  0  0  0  0  0  0  0  0  0  0  0
    8.4417  -14.8261   20.1129 C   0  0  0  0  0  0  0  0  0  0  0  0
    7.2903  -15.0263   20.5608 O   0  0  0  0  0  0  0  0  0  0  0  0
   12.3344  -19.0591   23.2139 N   0  0  0  0  0  0  0  0  0  0  0  0
   10.9545  -19.3122   23.3573 C   0  0  0  0  0  0  0  0  0  0  0  0
   10.5534  -20.4693   23.5847 O   0  0  0  0  0  0  0  0  0  0  0  0
    9.9991  -18.1962   23.2351 C   0  0  0  0  0  0  0  0  0  0  0  0
   10.3089  -17.3445   22.0436 C   0  0  0  0  0  0  0  0  0  0  0  0
    9.3038  -16.2149   21.9553 C   0  0  2  0  0  0  0  0  0  0  0  0
    9.5381  -15.3983   20.7946 N   0  0  0  0  0  0  0  0  0  0  0  0
    9.4171  -15.3426   23.1705 C   0  0  0  0  0  0  0  0  0  0  0  0
   10.5170  -14.8434   23.5062 O   0  0  0  0  0  0  0  0  0  0  0  0
    5.6739  -12.4912   27.1408 C   0  0  0  0  0  0  0  0  0  0  0  0
    7.0574  -12.9242   26.7560 C   0  0  2  0  0  0  0  0  0  0  0  0
    7.9560  -11.7256   26.5020 C   0  0  0  0  0  0  0  0  0  0  0  0
    6.9866  -13.7192   25.4727 C   0  0  0  0  0  0  0  0  0  0  0  0
    8.3519  -14.3464   25.1786 C   0  0  2  0  0  0  0  0  0  0  0  0
    8.2762  -15.0834   23.9396 N   0  0  0  0  0  0  0  0  0  0  0  0
    8.6644  -15.2713   26.3044 C   0  0  0  0  0  0  0  0  0  0  0  0
    8.1871  -16.4351   26.3618 O   0  0  0  0  0  0  0  0  0  0  0  0
    9.5045  -14.8184   27.3039 O   0  0  0  0  0  0  0  0  0  0  0  0
  2  1  1  0
  3  2  1  0
  3  4  1  6
  5  3  1  0
  5  6  2  0
  7  8  1  0
  8 10  1  0
  9  8  2  0
 10 11  1  0
 12 11  1  1
 12 13  1  0
 13  5  1  0
 14 12  1  0
 15 14  2  0
 17 19  1  0
 17 16  1  6
 17 18  1  0
 20 19  1  1
 20 22  1  0
 20 21  1  0
 21 14  1  0
 22 24  1  0
 23 22  2  0
M  END
$$$$
