SQL.pdb
     RDKit          3D

 24 23  0  0  1  0  0  0  0  0999 V2000
   14.1953  -15.7337   19.8814 O   0  0  0  0  0  0  0  0  0  0  0  0
   13.0458  -15.5835   20.6561 C   0  0  0  0  0  0  0  0  0  0  0  0
   12.1089  -16.7320   20.3428 C   0  0  2  0  0  0  0  0  0  0  0  0
   11.2786  -16.4715   19.2061 N   0  0  0  0  0  0  0  0  0  0  0  0
   11.2541  -16.9542   21.5248 C   0  0  0  0  0  0  0  0  0  0  0  0
   10.1898  -16.3060   21.6411 O   0  0  0  0  0  0  0  0  0  0  0  0
    9.2100  -22.7007   22.5196 N   0  0  0  0  0  0  0  0  0  0  0  0
    9.9435  -21.8017   23.3213 C   0  0  0  0  0  0  0  0  0  0  0  0
   10.6324  -22.2294   24.2668 O   0  0  0  0  0  0  0  0  0  0  0  0
    9.8843  -20.3584   23.0273 C   0  0  0  0  0  0  0  0  0  0  0  0
   10.6666  -19.5678   24.0293 C   0  0  0  0  0  0  0  0  0  0  0  0
   10.6787  -18.1087   23.6230 C   0  0  2  0  0  0  0  0  0  0  0  0
   11.5940  -17.8775   22.5377 N   0  0  0  0  0  0  0  0  0  0  0  0
   11.1103  -17.2647   24.7856 C   0  0  0  0  0  0  0  0  0  0  0  0
   12.3030  -16.8990   24.9099 O   0  0  0  0  0  0  0  0  0  0  0  0
    8.4763  -13.4387   28.7402 C   0  0  0  0  0  0  0  0  0  0  0  0
    9.6695  -14.2815   28.4004 C   0  0  2  0  0  0  0  0  0  0  0  0
   10.8929  -13.4192   28.1391 C   0  0  0  0  0  0  0  0  0  0  0  0
    9.3818  -15.0572   27.1358 C   0  0  0  0  0  0  0  0  0  0  0  0
   10.5228  -16.0409   26.8632 C   0  0  2  0  0  0  0  0  0  0  0  0
   10.1654  -16.8808   25.7448 N   0  0  0  0  0  0  0  0  0  0  0  0
   10.6934  -16.8697   28.0898 C   0  0  0  0  0  0  0  0  0  0  0  0
   11.4478  -16.5147   29.0334 O   0  0  0  0  0  0  0  0  0  0  0  0
    9.9940  -18.0587   28.1735 O   0  0  0  0  0  0  0  0  0  0  0  0
  2  1  1  0
  3  2  1  0
  3  4  1  6
  5  3  1  0
  5  6  2  0
  7  8  1  0
  8 10  1  0
  9  8  2  0
 10 11  1  0
 12 11  1  1
 12 13  1  0
 13  5  1  0
 14 12  1  0
 15 14  2  0
 17 19  1  0
 17 16  1  6
 17 18  1  0
 20 19  1  1
 20 22  1  0
 20 21  1  0
 21 14  1  0
 22 24  1  0
 23 22  2  0
M  END
$$$$
