SQL.pdb
     RDKit          3D

 24 23  0  0  1  0  0  0  0  0999 V2000
    5.5894  -16.3582   21.0177 O   0  0  0  0  0  0  0  0  0  0  0  0
    6.3971  -15.2226   20.9697 C   0  0  0  0  0  0  0  0  0  0  0  0
    7.8185  -15.6628   20.6852 C   0  0  2  0  0  0  0  0  0  0  0  0
    7.9343  -16.3933   19.4595 N   0  0  0  0  0  0  0  0  0  0  0  0
    8.2587  -16.5206   21.8023 C   0  0  0  0  0  0  0  0  0  0  0  0
    8.2617  -17.7634   21.6553 O   0  0  0  0  0  0  0  0  0  0  0  0
   14.5626  -15.1749   22.6876 N   0  0  0  0  0  0  0  0  0  0  0  0
   13.4875  -15.9335   22.1800 C   0  0  0  0  0  0  0  0  0  0  0  0
   13.4623  -16.2507   20.9758 O   0  0  0  0  0  0  0  0  0  0  0  0
   12.4009  -16.3433   23.0881 C   0  0  0  0  0  0  0  0  0  0  0  0
   11.0744  -15.8422   22.6080 C   0  0  0  0  0  0  0  0  0  0  0  0
    9.9852  -16.3176   23.5471 C   0  0  2  0  0  0  0  0  0  0  0  0
    8.6799  -15.9881   23.0405 N   0  0  0  0  0  0  0  0  0  0  0  0
   10.1477  -15.6567   24.8839 C   0  0  0  0  0  0  0  0  0  0  0  0
   11.2368  -15.7115   25.5027 O   0  0  0  0  0  0  0  0  0  0  0  0
    7.7870  -12.0650   25.6651 C   0  0  0  0  0  0  0  0  0  0  0  0
    7.0471  -13.3218   26.0149 C   0  0  2  0  0  0  0  0  0  0  0  0
    5.6118  -13.0203   26.4120 C   0  0  0  0  0  0  0  0  0  0  0  0
    7.7186  -13.9762   27.2002 C   0  0  0  0  0  0  0  0  0  0  0  0
    9.1132  -14.4637   26.7985 C   0  0  2  0  0  0  0  0  0  0  0  0
    9.0659  -14.9692   25.4471 N   0  0  0  0  0  0  0  0  0  0  0  0
    9.4865  -15.5570   27.7397 C   0  0  0  0  0  0  0  0  0  0  0  0
    9.4702  -16.7675   27.3938 O   0  0  0  0  0  0  0  0  0  0  0  0
    9.8583  -15.2099   29.0247 O   0  0  0  0  0  0  0  0  0  0  0  0
  2  1  1  0
  3  2  1  0
  3  4  1  6
  5  3  1  0
  5  6  2  0
  7  8  1  0
  8 10  1  0
  9  8  2  0
 10 11  1  0
 12 11  1  6
 12 13  1  0
 13  5  1  0
 14 12  1  0
 15 14  2  0
 17 19  1  0
 17 16  1  1
 17 18  1  0
 20 19  1  1
 20 22  1  0
 20 21  1  0
 21 14  1  0
 22 24  1  0
 23 22  2  0
M  END
$$$$
