SQL.pdb
     RDKit          3D

 24 23  0  0  1  0  0  0  0  0999 V2000
    7.8151  -12.3333   19.5460 O   0  0  0  0  0  0  0  0  0  0  0  0
    8.9194  -13.1025   19.1815 C   0  0  0  0  0  0  0  0  0  0  0  0
    8.4650  -14.5387   19.0201 C   0  0  2  0  0  0  0  0  0  0  0  0
    7.3018  -14.6591   18.1943 N   0  0  0  0  0  0  0  0  0  0  0  0
    8.1617  -15.0710   20.3625 C   0  0  0  0  0  0  0  0  0  0  0  0
    6.9713  -15.2942   20.6779 O   0  0  0  0  0  0  0  0  0  0  0  0
   10.9473  -19.8896   22.3762 N   0  0  0  0  0  0  0  0  0  0  0  0
   10.0026  -19.6797   23.4020 C   0  0  0  0  0  0  0  0  0  0  0  0
    9.7828  -20.5750   24.2396 O   0  0  0  0  0  0  0  0  0  0  0  0
    9.2833  -18.3947   23.4692 C   0  0  0  0  0  0  0  0  0  0  0  0
    9.6562  -17.5035   22.3256 C   0  0  0  0  0  0  0  0  0  0  0  0
    8.8854  -16.2035   22.4264 C   0  0  2  0  0  0  0  0  0  0  0  0
    9.1716  -15.3402   21.3121 N   0  0  0  0  0  0  0  0  0  0  0  0
    9.2710  -15.4845   23.6853 C   0  0  0  0  0  0  0  0  0  0  0  0
   10.4528  -15.1143   23.8808 O   0  0  0  0  0  0  0  0  0  0  0  0
    7.9514  -11.7428   25.6378 C   0  0  0  0  0  0  0  0  0  0  0  0
    6.8890  -12.8015   25.6398 C   0  0  2  0  0  0  0  0  0  0  0  0
    5.5946  -12.2778   26.2389 C   0  0  0  0  0  0  0  0  0  0  0  0
    7.3487  -13.9604   26.4938 C   0  0  0  0  0  0  0  0  0  0  0  0
    8.6219  -14.5670   25.8980 C   0  0  2  0  0  0  0  0  0  0  0  0
    8.2951  -15.2240   24.6548 N   0  0  0  0  0  0  0  0  0  0  0  0
    9.1386  -15.5613   26.8803 C   0  0  0  0  0  0  0  0  0  0  0  0
    9.0181  -16.8013   26.6983 O   0  0  0  0  0  0  0  0  0  0  0  0
    9.7648  -15.0868   28.0173 O   0  0  0  0  0  0  0  0  0  0  0  0
  2  1  1  0
  3  2  1  0
  3  4  1  6
  5  3  1  0
  5  6  2  0
  7  8  1  0
  8 10  1  0
  9  8  2  0
 10 11  1  0
 12 11  1  6
 12 13  1  0
 13  5  1  0
 14 12  1  0
 15 14  2  0
 17 19  1  0
 17 16  1  1
 17 18  1  0
 20 19  1  1
 20 22  1  0
 20 21  1  0
 21 14  1  0
 22 24  1  0
 23 22  2  0
M  END
$$$$
