SQL.pdb
     RDKit          3D

 24 23  0  0  1  0  0  0  0  0999 V2000
    7.8066  -14.4784   17.4824 O   0  0  0  0  0  0  0  0  0  0  0  0
    7.3320  -13.3259   18.1076 C   0  0  0  0  0  0  0  0  0  0  0  0
    8.3213  -12.9281   19.1838 C   0  0  2  0  0  0  0  0  0  0  0  0
    9.6692  -12.8825   18.7037 N   0  0  0  0  0  0  0  0  0  0  0  0
    8.2293  -13.9203   20.2721 C   0  0  0  0  0  0  0  0  0  0  0  0
    7.1413  -14.0717   20.8720 O   0  0  0  0  0  0  0  0  0  0  0  0
   11.8197  -18.9548   21.5437 N   0  0  0  0  0  0  0  0  0  0  0  0
   10.8972  -18.9139   22.6096 C   0  0  0  0  0  0  0  0  0  0  0  0
   10.8941  -19.8182   23.4662 O   0  0  0  0  0  0  0  0  0  0  0  0
    9.9428  -17.7937   22.6960 C   0  0  0  0  0  0  0  0  0  0  0  0
   10.1717  -16.7999   21.6000 C   0  0  0  0  0  0  0  0  0  0  0  0
    9.1734  -15.6680   21.7282 C   0  0  2  0  0  0  0  0  0  0  0  0
    9.3307  -14.7116   20.6655 N   0  0  0  0  0  0  0  0  0  0  0  0
    9.3824  -14.9561   23.0319 C   0  0  0  0  0  0  0  0  0  0  0  0
   10.2602  -14.0686   23.1490 O   0  0  0  0  0  0  0  0  0  0  0  0
    8.2004  -12.8061   27.1967 C   0  0  0  0  0  0  0  0  0  0  0  0
    7.1454  -12.4925   26.1778 C   0  0  2  0  0  0  0  0  0  0  0  0
    5.7533  -12.6209   26.7729 C   0  0  0  0  0  0  0  0  0  0  0  0
    7.2469  -13.4835   25.0413 C   0  0  0  0  0  0  0  0  0  0  0  0
    8.4505  -14.4030   25.2646 C   0  0  2  0  0  0  0  0  0  0  0  0
    8.5843  -15.2893   24.1330 N   0  0  0  0  0  0  0  0  0  0  0  0
    8.1810  -15.1904   26.5006 C   0  0  0  0  0  0  0  0  0  0  0  0
    7.2516  -16.0379   26.5605 O   0  0  0  0  0  0  0  0  0  0  0  0
    8.9864  -14.9684   27.6015 O   0  0  0  0  0  0  0  0  0  0  0  0
  2  1  1  0
  3  2  1  0
  3  4  1  6
  5  3  1  0
  5  6  2  0
  7  8  1  0
  8 10  1  0
  9  8  2  0
 10 11  1  0
 12 11  1  6
 12 13  1  0
 13  5  1  0
 14 12  1  0
 15 14  2  0
 17 19  1  0
 17 16  1  1
 17 18  1  0
 20 19  1  6
 20 22  1  0
 20 21  1  0
 21 14  1  0
 22 24  1  0
 23 22  2  0
M  END
$$$$
