SQL.pdb
     RDKit          3D

 24 23  0  0  1  0  0  0  0  0999 V2000
    9.2564  -13.7280   19.2311 O   0  0  0  0  0  0  0  0  0  0  0  0
    9.0709  -14.9720   19.8331 C   0  0  0  0  0  0  0  0  0  0  0  0
    7.5834  -15.2521   19.8951 C   0  0  2  0  0  0  0  0  0  0  0  0
    6.7987  -14.1864   19.3494 N   0  0  0  0  0  0  0  0  0  0  0  0
    7.2179  -15.4450   21.3116 C   0  0  0  0  0  0  0  0  0  0  0  0
    6.3377  -14.7158   21.8214 O   0  0  0  0  0  0  0  0  0  0  0  0
    6.8012  -20.0019   27.0155 N   0  0  0  0  0  0  0  0  0  0  0  0
    6.8976  -19.6856   25.6445 C   0  0  0  0  0  0  0  0  0  0  0  0
    7.0223  -20.5948   24.8024 O   0  0  0  0  0  0  0  0  0  0  0  0
    6.8491  -18.2735   25.2242 C   0  0  0  0  0  0  0  0  0  0  0  0
    7.3882  -18.1009   23.8383 C   0  0  0  0  0  0  0  0  0  0  0  0
    7.3591  -16.6334   23.4643 C   0  0  2  0  0  0  0  0  0  0  0  0
    7.8284  -16.4287   22.1201 N   0  0  0  0  0  0  0  0  0  0  0  0
    8.2474  -15.8585   24.3921 C   0  0  0  0  0  0  0  0  0  0  0  0
    9.4956  -15.9240   24.2950 O   0  0  0  0  0  0  0  0  0  0  0  0
    7.5756  -11.6255   25.2922 C   0  0  0  0  0  0  0  0  0  0  0  0
    6.6941  -12.4798   26.1539 C   0  0  2  0  0  0  0  0  0  0  0  0
    5.7923  -11.6273   27.0306 C   0  0  0  0  0  0  0  0  0  0  0  0
    7.5590  -13.3158   27.0689 C   0  0  0  0  0  0  0  0  0  0  0  0
    8.4782  -14.2111   26.2339 C   0  0  2  0  0  0  0  0  0  0  0  0
    7.6717  -15.0508   25.3803 N   0  0  0  0  0  0  0  0  0  0  0  0
    9.2593  -15.0510   27.1852 C   0  0  0  0  0  0  0  0  0  0  0  0
   10.2811  -14.6124   27.7760 O   0  0  0  0  0  0  0  0  0  0  0  0
    8.8323  -16.3458   27.4110 O   0  0  0  0  0  0  0  0  0  0  0  0
  2  1  1  0
  3  2  1  0
  3  4  1  1
  5  3  1  0
  5  6  2  0
  7  8  1  0
  8 10  1  0
  9  8  2  0
 10 11  1  0
 12 11  1  1
 12 13  1  0
 13  5  1  0
 14 12  1  0
 15 14  2  0
 17 19  1  0
 17 16  1  1
 17 18  1  0
 20 19  1  1
 20 22  1  0
 20 21  1  0
 21 14  1  0
 22 24  1  0
 23 22  2  0
M  END
$$$$
