SQL.pdb
     RDKit          3D

 24 23  0  0  1  0  0  0  0  0999 V2000
    7.1536  -15.6969   20.0092 O   0  0  0  0  0  0  0  0  0  0  0  0
    7.4613  -17.0530   20.1117 C   0  0  0  0  0  0  0  0  0  0  0  0
    6.2921  -17.7565   20.7700 C   0  0  2  0  0  0  0  0  0  0  0  0
    5.0320  -17.3750   20.2078 N   0  0  0  0  0  0  0  0  0  0  0  0
    6.3056  -17.4111   22.2045 C   0  0  0  0  0  0  0  0  0  0  0  0
    5.6249  -16.4410   22.6070 O   0  0  0  0  0  0  0  0  0  0  0  0
    8.0869  -20.8995   27.1865 N   0  0  0  0  0  0  0  0  0  0  0  0
    7.5920  -19.7044   27.7484 C   0  0  0  0  0  0  0  0  0  0  0  0
    7.4911  -19.5921   28.9847 O   0  0  0  0  0  0  0  0  0  0  0  0
    7.1982  -18.5970   26.8585 C   0  0  0  0  0  0  0  0  0  0  0  0
    7.3440  -18.9797   25.4186 C   0  0  0  0  0  0  0  0  0  0  0  0
    6.9740  -17.8006   24.5428 C   0  0  2  0  0  0  0  0  0  0  0  0
    7.0633  -18.1393   23.1478 N   0  0  0  0  0  0  0  0  0  0  0  0
    7.9128  -16.6610   24.8078 C   0  0  0  0  0  0  0  0  0  0  0  0
    9.0359  -16.6079   24.2531 O   0  0  0  0  0  0  0  0  0  0  0  0
    7.4825  -12.1391   24.6935 C   0  0  0  0  0  0  0  0  0  0  0  0
    6.6891  -12.8261   25.7649 C   0  0  2  0  0  0  0  0  0  0  0  0
    5.8341  -11.8340   26.5352 C   0  0  0  0  0  0  0  0  0  0  0  0
    7.6402  -13.4667   26.7493 C   0  0  0  0  0  0  0  0  0  0  0  0
    8.4308  -14.5782   26.0539 C   0  0  2  0  0  0  0  0  0  0  0  0
    7.5270  -15.6427   25.6878 N   0  0  0  0  0  0  0  0  0  0  0  0
    9.4401  -15.0784   27.0294 C   0  0  0  0  0  0  0  0  0  0  0  0
   10.5486  -14.5043   27.1937 O   0  0  0  0  0  0  0  0  0  0  0  0
    9.1299  -16.2067   27.7648 O   0  0  0  0  0  0  0  0  0  0  0  0
  2  1  1  0
  3  2  1  0
  3  4  1  6
  5  3  1  0
  5  6  2  0
  7  8  1  0
  8 10  1  0
  9  8  2  0
 10 11  1  0
 12 11  1  1
 12 13  1  0
 13  5  1  0
 14 12  1  0
 15 14  2  0
 17 19  1  0
 17 16  1  6
 17 18  1  0
 20 19  1  1
 20 22  1  0
 20 21  1  0
 21 14  1  0
 22 24  1  0
 23 22  2  0
M  END
$$$$
