LHK.pdb
     RDKit          3D

 28 28  0  0  1  0  0  0  0  0999 V2000
   13.7729  -21.1203    4.4130 C   0  0  0  0  0  0  0  0  0  0  0  0
   14.2796  -19.9685    3.5993 C   0  0  1  0  0  0  0  0  0  0  0  0
   13.2281  -18.9120    3.3697 C   0  0  0  0  0  0  0  0  0  0  0  0
   15.5620  -19.4109    4.1233 C   0  0  0  0  0  0  0  0  0  0  0  0
   16.0448  -18.2959    3.2289 C   0  0  2  0  0  0  0  0  0  0  0  0
   16.5854  -18.8170    1.9918 N   0  0  0  0  0  0  0  0  0  0  0  0
   17.1039  -17.4827    3.8729 C   0  0  0  0  0  0  0  0  0  0  0  0
   18.2658  -17.8905    3.9017 O   0  0  0  0  0  0  0  0  0  0  0  0
   16.8139  -16.2073    4.4778 N   0  0  0  0  0  0  0  0  0  0  0  0
   17.7992  -15.4315    5.1917 C   0  0  1  0  0  0  0  0  0  0  0  0
   17.4439  -13.9672    4.9098 C   0  0  0  0  0  0  0  0  0  0  0  0
   18.4252  -13.0392    5.5362 C   0  0  0  0  0  0  0  0  0  0  0  0
   19.5418  -12.4347    4.9972 C   0  0  0  0  0  0  0  0  0  0  0  0
   20.1540  -11.6637    5.9181 N   0  0  0  0  0  0  0  0  0  0  0  0
   19.4425  -11.7685    7.0374 C   0  0  0  0  0  0  0  0  0  0  0  0
   18.4107  -12.5833    6.8263 N   0  0  0  0  0  0  0  0  0  0  0  0
   17.8864  -15.7544    6.6137 C   0  0  0  0  0  0  0  0  0  0  0  0
   16.8871  -16.2510    7.1944 O   0  0  0  0  0  0  0  0  0  0  0  0
   19.0339  -15.5493    7.4107 N   0  0  0  0  0  0  0  0  0  0  0  0
   18.9837  -15.8702    8.8393 C   0  0  1  0  0  0  0  0  0  0  0  0
   18.8662  -17.3679    9.0215 C   0  0  0  0  0  0  0  0  0  0  0  0
   18.0454  -17.7439   10.2203 C   0  0  0  0  0  0  0  0  0  0  0  0
   18.1734  -19.2255   10.5464 C   0  0  0  0  0  0  0  0  0  0  0  0
   17.3746  -19.5630   11.7737 C   0  0  0  0  0  0  0  0  0  0  0  0
   17.4745  -21.0067   12.0247 N   0  0  0  0  0  0  0  0  0  0  0  0
   20.1576  -15.2598    9.4485 C   0  0  0  0  0  0  0  0  0  0  0  0
   20.3104  -15.1598   10.8289 O   0  0  0  0  0  0  0  0  0  0  0  0
   21.0768  -14.8001    8.7285 O   0  0  0  0  0  0  0  0  0  0  0  0
  2  1  1  1
  2  3  1  0
  4  5  1  0
  4  2  1  0
  5  6  1  6
  7  5  1  0
  7  8  2  0
  9  7  1  0
 10  9  1  0
 11 12  1  0
 10 11  1  1
 12 16  1  0
 12 13  2  0
 13 14  1  0
 15 14  1  0
 16 15  2  0
 17 10  1  0
 18 17  2  0
 19 17  1  0
 20 21  1  6
 20 19  1  0
 21 22  1  0
 22 23  1  0
 23 24  1  0
 24 25  1  0
 26 20  1  0
 27 26  1  0
 28 26  2  0
M  END
$$$$
