LHK.pdb
     RDKit          3D

 28 28  0  0  1  0  0  0  0  0999 V2000
   29.7409  -23.9063  -17.3178 C   0  0  0  0  0  0  0  0  0  0  0  0
   28.2651  -24.1654  -17.2939 C   0  0  1  0  0  0  0  0  0  0  0  0
   27.9343  -25.6293  -17.1458 C   0  0  0  0  0  0  0  0  0  0  0  0
   27.5429  -23.3019  -16.3127 C   0  0  0  0  0  0  0  0  0  0  0  0
   26.0580  -23.5560  -16.3951 C   0  0  2  0  0  0  0  0  0  0  0  0
   25.5719  -23.3726  -17.7458 N   0  0  0  0  0  0  0  0  0  0  0  0
   25.2864  -22.6468  -15.5142 C   0  0  0  0  0  0  0  0  0  0  0  0
   25.4699  -22.6622  -14.2963 O   0  0  0  0  0  0  0  0  0  0  0  0
   24.3108  -21.7288  -16.0451 N   0  0  0  0  0  0  0  0  0  0  0  0
   23.6554  -20.7244  -15.2426 C   0  0  1  0  0  0  0  0  0  0  0  0
   23.7798  -19.4223  -16.0421 C   0  0  0  0  0  0  0  0  0  0  0  0
   25.1388  -18.8294  -15.9076 C   0  0  0  0  0  0  0  0  0  0  0  0
   26.2052  -19.2257  -15.1274 C   0  0  0  0  0  0  0  0  0  0  0  0
   27.2570  -18.4025  -15.3096 N   0  0  0  0  0  0  0  0  0  0  0  0
   26.8756  -17.4864  -16.1958 C   0  0  0  0  0  0  0  0  0  0  0  0
   25.6179  -17.7268  -16.5611 N   0  0  0  0  0  0  0  0  0  0  0  0
   22.2821  -21.0644  -14.8786 C   0  0  0  0  0  0  0  0  0  0  0  0
   21.5139  -21.5418  -15.7531 O   0  0  0  0  0  0  0  0  0  0  0  0
   21.7325  -20.8969  -13.5888 N   0  0  0  0  0  0  0  0  0  0  0  0
   20.3435  -21.2924  -13.3421 C   0  0  1  0  0  0  0  0  0  0  0  0
   20.2533  -22.0478  -12.0339 C   0  0  0  0  0  0  0  0  0  0  0  0
   18.8666  -22.5429  -11.7444 C   0  0  0  0  0  0  0  0  0  0  0  0
   18.8384  -23.4528  -10.5240 C   0  0  0  0  0  0  0  0  0  0  0  0
   17.4530  -23.9915  -10.3036 C   0  0  0  0  0  0  0  0  0  0  0  0
   17.4606  -24.8524   -9.1137 N   0  0  0  0  0  0  0  0  0  0  0  0
   19.5417  -20.0786  -13.4160 C   0  0  0  0  0  0  0  0  0  0  0  0
   18.2863  -20.0538  -14.0180 O   0  0  0  0  0  0  0  0  0  0  0  0
   19.9728  -19.0053  -12.9295 O   0  0  0  0  0  0  0  0  0  0  0  0
  2  1  1  1
  2  3  1  0
  4  5  1  0
  4  2  1  0
  5  6  1  6
  7  5  1  0
  7  8  2  0
  9  7  1  0
 10  9  1  0
 11 12  1  0
 10 11  1  6
 12 16  1  0
 12 13  2  0
 13 14  1  0
 15 14  1  0
 16 15  2  0
 17 10  1  0
 18 17  2  0
 19 17  1  0
 20 21  1  1
 20 19  1  0
 21 22  1  0
 22 23  1  0
 23 24  1  0
 24 25  1  0
 26 20  1  0
 27 26  1  0
 28 26  2  0
M  END
$$$$
