LHK.pdb
     RDKit          3D

 28 28  0  0  1  0  0  0  0  0999 V2000
   29.3727  -14.9730  -19.5980 C   0  0  0  0  0  0  0  0  0  0  0  0
   28.4526  -15.0356  -18.4167 C   0  0  1  0  0  0  0  0  0  0  0  0
   27.3491  -14.0099  -18.4847 C   0  0  0  0  0  0  0  0  0  0  0  0
   27.9503  -16.4160  -18.1482 C   0  0  0  0  0  0  0  0  0  0  0  0
   26.9600  -16.3937  -17.0102 C   0  0  2  0  0  0  0  0  0  0  0  0
   27.5952  -15.9897  -15.7743 N   0  0  0  0  0  0  0  0  0  0  0  0
   26.3414  -17.7216  -16.7826 C   0  0  0  0  0  0  0  0  0  0  0  0
   25.7437  -18.2907  -17.6970 O   0  0  0  0  0  0  0  0  0  0  0  0
   26.4173  -18.3809  -15.5036 N   0  0  0  0  0  0  0  0  0  0  0  0
   25.7907  -19.6526  -15.2341 C   0  0  1  0  0  0  0  0  0  0  0  0
   26.7810  -20.4116  -14.3435 C   0  0  0  0  0  0  0  0  0  0  0  0
   26.2418  -21.7392  -13.9393 C   0  0  0  0  0  0  0  0  0  0  0  0
   26.3908  -22.9746  -14.5346 C   0  0  0  0  0  0  0  0  0  0  0  0
   25.7319  -23.9200  -13.8351 N   0  0  0  0  0  0  0  0  0  0  0  0
   25.1645  -23.3037  -12.8014 C   0  0  0  0  0  0  0  0  0  0  0  0
   25.4587  -22.0060  -12.8494 N   0  0  0  0  0  0  0  0  0  0  0  0
   24.4505  -19.5403  -14.6638 C   0  0  0  0  0  0  0  0  0  0  0  0
   24.2014  -18.6086  -13.8561 O   0  0  0  0  0  0  0  0  0  0  0  0
   23.3822  -20.4167  -14.9549 N   0  0  0  0  0  0  0  0  0  0  0  0
   22.0649  -20.1654  -14.3651 C   0  0  1  0  0  0  0  0  0  0  0  0
   21.2005  -19.4105  -15.3515 C   0  0  0  0  0  0  0  0  0  0  0  0
   19.8044  -19.1881  -14.8478 C   0  0  0  0  0  0  0  0  0  0  0  0
   18.9449  -18.4651  -15.8756 C   0  0  0  0  0  0  0  0  0  0  0  0
   17.5594  -18.2434  -15.3377 C   0  0  0  0  0  0  0  0  0  0  0  0
   16.7455  -17.5921  -16.3722 N   0  0  0  0  0  0  0  0  0  0  0  0
   21.5416  -21.4567  -13.9404 C   0  0  0  0  0  0  0  0  0  0  0  0
   20.7005  -21.5908  -12.8387 O   0  0  0  0  0  0  0  0  0  0  0  0
   21.8432  -22.4993  -14.5700 O   0  0  0  0  0  0  0  0  0  0  0  0
  2  1  1  6
  2  3  1  0
  4  5  1  0
  4  2  1  0
  5  6  1  1
  7  5  1  0
  7  8  2  0
  9  7  1  0
 10  9  1  0
 11 12  1  0
 10 11  1  1
 12 16  1  0
 12 13  2  0
 13 14  1  0
 15 14  1  0
 16 15  2  0
 17 10  1  0
 18 17  2  0
 19 17  1  0
 20 21  1  6
 20 19  1  0
 21 22  1  0
 22 23  1  0
 23 24  1  0
 24 25  1  0
 26 20  1  0
 27 26  1  0
 28 26  2  0
M  END
$$$$
