LHK.pdb
     RDKit          3D

 28 28  0  0  1  0  0  0  0  0999 V2000
   14.8541  -24.8827   -8.3262 C   0  0  0  0  0  0  0  0  0  0  0  0
   15.2886  -25.1993   -6.9274 C   0  0  1  0  0  0  0  0  0  0  0  0
   16.5630  -26.0045   -6.8829 C   0  0  0  0  0  0  0  0  0  0  0  0
   15.3298  -23.9928   -6.0483 C   0  0  0  0  0  0  0  0  0  0  0  0
   15.6861  -24.3927   -4.6378 C   0  0  2  0  0  0  0  0  0  0  0  0
   15.0353  -25.6308   -4.2668 N   0  0  0  0  0  0  0  0  0  0  0  0
   15.2875  -23.3632   -3.6483 C   0  0  0  0  0  0  0  0  0  0  0  0
   15.6840  -22.2032   -3.7683 O   0  0  0  0  0  0  0  0  0  0  0  0
   14.4359  -23.6803   -2.5300 N   0  0  0  0  0  0  0  0  0  0  0  0
   14.0037  -22.6980   -1.5652 C   0  0  1  0  0  0  0  0  0  0  0  0
   12.5540  -23.0682   -1.2317 C   0  0  0  0  0  0  0  0  0  0  0  0
   11.9445  -22.0869   -0.2925 C   0  0  0  0  0  0  0  0  0  0  0  0
   12.4871  -20.9572    0.2838 C   0  0  0  0  0  0  0  0  0  0  0  0
   11.5830  -20.3498    1.0781 N   0  0  0  0  0  0  0  0  0  0  0  0
   10.4708  -21.0774    1.0160 C   0  0  0  0  0  0  0  0  0  0  0  0
   10.6700  -22.1142    0.2047 N   0  0  0  0  0  0  0  0  0  0  0  0
   14.8720  -22.5999   -0.3945 C   0  0  0  0  0  0  0  0  0  0  0  0
   15.4734  -23.6267    0.0135 O   0  0  0  0  0  0  0  0  0  0  0  0
   15.0977  -21.4125    0.3356 N   0  0  0  0  0  0  0  0  0  0  0  0
   15.9958  -21.4397    1.4928 C   0  0  1  0  0  0  0  0  0  0  0  0
   16.5837  -20.0630    1.7141 C   0  0  0  0  0  0  0  0  0  0  0  0
   15.8653  -19.2899    2.7811 C   0  0  0  0  0  0  0  0  0  0  0  0
   16.4128  -17.8756    2.9151 C   0  0  0  0  0  0  0  0  0  0  0  0
   15.6733  -17.1267    3.9877 C   0  0  0  0  0  0  0  0  0  0  0  0
   16.1974  -15.7566    4.0595 N   0  0  0  0  0  0  0  0  0  0  0  0
   15.2272  -21.9745    2.6086 C   0  0  0  0  0  0  0  0  0  0  0  0
   15.8363  -22.5020    3.7444 O   0  0  0  0  0  0  0  0  0  0  0  0
   13.9730  -21.9727    2.5711 O   0  0  0  0  0  0  0  0  0  0  0  0
  2  1  1  6
  2  3  1  0
  4  5  1  0
  4  2  1  0
  5  6  1  1
  7  5  1  0
  7  8  2  0
  9  7  1  0
 10  9  1  0
 11 12  1  0
 10 11  1  1
 12 16  1  0
 12 13  2  0
 13 14  1  0
 15 14  1  0
 16 15  2  0
 17 10  1  0
 18 17  2  0
 19 17  1  0
 20 21  1  1
 20 19  1  0
 21 22  1  0
 22 23  1  0
 23 24  1  0
 24 25  1  0
 26 20  1  0
 27 26  1  0
 28 26  2  0
M  END
$$$$
