LHK.pdb
     RDKit          3D

 28 28  0  0  1  0  0  0  0  0999 V2000
   28.7502  -24.5771  -19.0843 C   0  0  0  0  0  0  0  0  0  0  0  0
   28.9931  -25.6611  -18.0784 C   0  0  1  0  0  0  0  0  0  0  0  0
   29.1572  -25.1277  -16.6774 C   0  0  0  0  0  0  0  0  0  0  0  0
   27.9938  -26.7671  -18.1683 C   0  0  0  0  0  0  0  0  0  0  0  0
   28.2975  -27.8237  -17.1350 C   0  0  2  0  0  0  0  0  0  0  0  0
   29.6398  -28.3399  -17.2962 N   0  0  0  0  0  0  0  0  0  0  0  0
   27.3631  -28.9716  -17.2192 C   0  0  0  0  0  0  0  0  0  0  0  0
   26.1605  -28.8071  -17.0098 O   0  0  0  0  0  0  0  0  0  0  0  0
   27.8234  -30.2979  -17.5438 N   0  0  0  0  0  0  0  0  0  0  0  0
   26.9389  -31.4318  -17.6632 C   0  0  1  0  0  0  0  0  0  0  0  0
   27.2240  -32.0240  -19.0481 C   0  0  0  0  0  0  0  0  0  0  0  0
   26.5522  -31.2424  -20.1225 C   0  0  0  0  0  0  0  0  0  0  0  0
   27.0834  -30.3619  -21.0419 C   0  0  0  0  0  0  0  0  0  0  0  0
   26.1154  -29.8707  -21.8414 N   0  0  0  0  0  0  0  0  0  0  0  0
   24.9738  -30.4264  -21.4439 C   0  0  0  0  0  0  0  0  0  0  0  0
   25.2171  -31.2449  -20.4222 N   0  0  0  0  0  0  0  0  0  0  0  0
   27.0648  -32.3951  -16.5722 C   0  0  0  0  0  0  0  0  0  0  0  0
   28.1958  -32.6025  -16.0618 O   0  0  0  0  0  0  0  0  0  0  0  0
   25.9898  -33.1318  -16.0286 N   0  0  0  0  0  0  0  0  0  0  0  0
   26.1960  -33.9059  -14.8020 C   0  0  1  0  0  0  0  0  0  0  0  0
   26.7891  -33.0160  -13.7313 C   0  0  0  0  0  0  0  0  0  0  0  0
   27.0011  -33.7350  -12.4312 C   0  0  0  0  0  0  0  0  0  0  0  0
   26.0605  -33.2258  -11.3478 C   0  0  0  0  0  0  0  0  0  0  0  0
   26.2700  -33.9891  -10.0704 C   0  0  0  0  0  0  0  0  0  0  0  0
   25.3566  -33.4645   -9.0469 N   0  0  0  0  0  0  0  0  0  0  0  0
   24.9146  -34.5122  -14.4674 C   0  0  0  0  0  0  0  0  0  0  0  0
   23.7049  -33.8553  -14.6780 O   0  0  0  0  0  0  0  0  0  0  0  0
   24.8703  -35.6639  -13.9712 O   0  0  0  0  0  0  0  0  0  0  0  0
  2  1  1  6
  2  3  1  0
  4  5  1  0
  4  2  1  0
  5  6  1  6
  7  5  1  0
  7  8  2  0
  9  7  1  0
 10  9  1  0
 11 12  1  0
 10 11  1  6
 12 16  1  0
 12 13  2  0
 13 14  1  0
 15 14  1  0
 16 15  2  0
 17 10  1  0
 18 17  2  0
 19 17  1  0
 20 21  1  1
 20 19  1  0
 21 22  1  0
 22 23  1  0
 23 24  1  0
 24 25  1  0
 26 20  1  0
 27 26  1  0
 28 26  2  0
M  END
$$$$
