LHK.pdb
     RDKit          3D

 28 28  0  0  1  0  0  0  0  0999 V2000
   28.5271  -19.3023   -8.1039 C   0  0  0  0  0  0  0  0  0  0  0  0
   28.0023  -20.2351   -9.1529 C   0  0  1  0  0  0  0  0  0  0  0  0
   28.7883  -21.5196   -9.2341 C   0  0  0  0  0  0  0  0  0  0  0  0
   26.5298  -20.4580   -9.0432 C   0  0  0  0  0  0  0  0  0  0  0  0
   26.0336  -21.2324  -10.2392 C   0  0  2  0  0  0  0  0  0  0  0  0
   26.9098  -21.0525  -11.3768 N   0  0  0  0  0  0  0  0  0  0  0  0
   24.6730  -20.8118  -10.6511 C   0  0  0  0  0  0  0  0  0  0  0  0
   23.8020  -20.6171   -9.8021 O   0  0  0  0  0  0  0  0  0  0  0  0
   24.3290  -20.6196  -12.0371 N   0  0  0  0  0  0  0  0  0  0  0  0
   23.0090  -20.2352  -12.4755 C   0  0  1  0  0  0  0  0  0  0  0  0
   23.1807  -19.7836  -13.9303 C   0  0  0  0  0  0  0  0  0  0  0  0
   21.9011  -19.2749  -14.4964 C   0  0  0  0  0  0  0  0  0  0  0  0
   20.6559  -19.1650  -13.9132 C   0  0  0  0  0  0  0  0  0  0  0  0
   19.7680  -18.6482  -14.7860 N   0  0  0  0  0  0  0  0  0  0  0  0
   20.4306  -18.4271  -15.9184 C   0  0  0  0  0  0  0  0  0  0  0  0
   21.7008  -18.7948  -15.7620 N   0  0  0  0  0  0  0  0  0  0  0  0
   22.0015  -21.2778  -12.2963 C   0  0  0  0  0  0  0  0  0  0  0  0
   22.2537  -22.4496  -12.6783 O   0  0  0  0  0  0  0  0  0  0  0  0
   20.7328  -21.0710  -11.7118 N   0  0  0  0  0  0  0  0  0  0  0  0
   19.8390  -22.2141  -11.5103 C   0  0  1  0  0  0  0  0  0  0  0  0
   19.5907  -22.4124  -10.0308 C   0  0  0  0  0  0  0  0  0  0  0  0
   18.8209  -23.6662   -9.7346 C   0  0  0  0  0  0  0  0  0  0  0  0
   18.5586  -23.8252   -8.2433 C   0  0  0  0  0  0  0  0  0  0  0  0
   17.8029  -25.0964   -7.9766 C   0  0  0  0  0  0  0  0  0  0  0  0
   17.6691  -25.2752   -6.5250 N   0  0  0  0  0  0  0  0  0  0  0  0
   18.6493  -21.9638  -12.3126 C   0  0  0  0  0  0  0  0  0  0  0  0
   17.8740  -20.8181  -12.1531 O   0  0  0  0  0  0  0  0  0  0  0  0
   18.2881  -22.7919  -13.1834 O   0  0  0  0  0  0  0  0  0  0  0  0
  2  1  1  1
  2  3  1  0
  4  5  1  0
  4  2  1  0
  5  6  1  6
  7  5  1  0
  7  8  2  0
  9  7  1  0
 10  9  1  0
 11 12  1  0
 10 11  1  6
 12 16  1  0
 12 13  2  0
 13 14  1  0
 15 14  1  0
 16 15  2  0
 17 10  1  0
 18 17  2  0
 19 17  1  0
 20 21  1  1
 20 19  1  0
 21 22  1  0
 22 23  1  0
 23 24  1  0
 24 25  1  0
 26 20  1  0
 27 26  1  0
 28 26  2  0
M  END
$$$$
