LHK.pdb
     RDKit          3D

 28 28  0  0  1  0  0  0  0  0999 V2000
   25.3501  -15.2627  -20.1860 C   0  0  0  0  0  0  0  0  0  0  0  0
   25.4928  -14.1864  -19.1531 C   0  0  1  0  0  0  0  0  0  0  0  0
   26.7030  -13.3164  -19.3837 C   0  0  0  0  0  0  0  0  0  0  0  0
   24.2376  -13.4007  -18.9604 C   0  0  0  0  0  0  0  0  0  0  0  0
   24.4459  -12.3445  -17.9033 C   0  0  2  0  0  0  0  0  0  0  0  0
   24.7816  -12.9418  -16.6287 N   0  0  0  0  0  0  0  0  0  0  0  0
   23.2371  -11.5100  -17.7024 C   0  0  0  0  0  0  0  0  0  0  0  0
   22.7461  -10.8940  -18.6492 O   0  0  0  0  0  0  0  0  0  0  0  0
   22.6058  -11.3934  -16.4123 N   0  0  0  0  0  0  0  0  0  0  0  0
   21.3714  -10.6765  -16.2010 C   0  0  1  0  0  0  0  0  0  0  0  0
   20.7164  -11.3464  -14.9876 C   0  0  0  0  0  0  0  0  0  0  0  0
   19.8585  -12.4924  -15.3964 C   0  0  0  0  0  0  0  0  0  0  0  0
   19.5565  -12.9683  -16.6555 C   0  0  0  0  0  0  0  0  0  0  0  0
   18.7360  -14.0348  -16.5745 N   0  0  0  0  0  0  0  0  0  0  0  0
   18.5106  -14.2454  -15.2803 C   0  0  0  0  0  0  0  0  0  0  0  0
   19.1715  -13.3361  -14.5666 N   0  0  0  0  0  0  0  0  0  0  0  0
   21.5452   -9.2333  -16.0559 C   0  0  0  0  0  0  0  0  0  0  0  0
   22.4829   -8.7953  -15.3408 O   0  0  0  0  0  0  0  0  0  0  0  0
   20.7238   -8.2637  -16.6713 N   0  0  0  0  0  0  0  0  0  0  0  0
   21.0030   -6.8420  -16.4538 C   0  0  1  0  0  0  0  0  0  0  0  0
   20.6924   -6.0631  -17.7135 C   0  0  0  0  0  0  0  0  0  0  0  0
   21.0258   -4.6050  -17.5910 C   0  0  0  0  0  0  0  0  0  0  0  0
   20.7551   -3.8559  -18.8885 C   0  0  0  0  0  0  0  0  0  0  0  0
   21.1696   -2.4173  -18.7596 C   0  0  0  0  0  0  0  0  0  0  0  0
   20.8835   -1.7243  -20.0225 N   0  0  0  0  0  0  0  0  0  0  0  0
   20.2495   -6.4417  -15.2733 C   0  0  0  0  0  0  0  0  0  0  0  0
   19.3436   -7.2936  -14.6467 O   0  0  0  0  0  0  0  0  0  0  0  0
   20.4022   -5.2964  -14.7840 O   0  0  0  0  0  0  0  0  0  0  0  0
  2  1  1  6
  2  3  1  0
  4  5  1  0
  4  2  1  0
  5  6  1  1
  7  5  1  0
  7  8  2  0
  9  7  1  0
 10  9  1  0
 11 12  1  0
 10 11  1  1
 12 16  1  0
 12 13  2  0
 13 14  1  0
 15 14  1  0
 16 15  2  0
 17 10  1  0
 18 17  2  0
 19 17  1  0
 20 21  1  6
 20 19  1  0
 21 22  1  0
 22 23  1  0
 23 24  1  0
 24 25  1  0
 26 20  1  0
 27 26  1  0
 28 26  2  0
M  END
$$$$
