LHK.pdb
     RDKit          3D

 28 28  0  0  1  0  0  0  0  0999 V2000
   19.8405  -28.7109  -13.1279 C   0  0  0  0  0  0  0  0  0  0  0  0
   20.6180  -28.5707  -11.8546 C   0  0  1  0  0  0  0  0  0  0  0  0
   19.8621  -27.8125  -10.7925 C   0  0  0  0  0  0  0  0  0  0  0  0
   21.1646  -29.8715  -11.3653 C   0  0  0  0  0  0  0  0  0  0  0  0
   21.9237  -29.6622  -10.0784 C   0  0  2  0  0  0  0  0  0  0  0  0
   23.0883  -28.8295  -10.2897 N   0  0  0  0  0  0  0  0  0  0  0  0
   22.3884  -30.9412   -9.4901 C   0  0  0  0  0  0  0  0  0  0  0  0
   21.5821  -31.8406   -9.2493 O   0  0  0  0  0  0  0  0  0  0  0  0
   23.7777  -31.1714   -9.1850 N   0  0  0  0  0  0  0  0  0  0  0  0
   24.2776  -32.4316   -8.6905 C   0  0  1  0  0  0  0  0  0  0  0  0
   25.7074  -32.5412   -9.2325 C   0  0  0  0  0  0  0  0  0  0  0  0
   25.7389  -33.2411  -10.5461 C   0  0  0  0  0  0  0  0  0  0  0  0
   24.7139  -33.8154  -11.2689 C   0  0  0  0  0  0  0  0  0  0  0  0
   25.1826  -34.3457  -12.4161 N   0  0  0  0  0  0  0  0  0  0  0  0
   26.4932  -34.1172  -12.4346 C   0  0  0  0  0  0  0  0  0  0  0  0
   26.8394  -33.4609  -11.3290 N   0  0  0  0  0  0  0  0  0  0  0  0
   24.1838  -32.5746   -7.2397 C   0  0  0  0  0  0  0  0  0  0  0  0
   24.6454  -31.6671   -6.5008 O   0  0  0  0  0  0  0  0  0  0  0  0
   23.5999  -33.6791   -6.5817 N   0  0  0  0  0  0  0  0  0  0  0  0
   23.5051  -33.6772   -5.1197 C   0  0  1  0  0  0  0  0  0  0  0  0
   22.0512  -33.6230   -4.7034 C   0  0  0  0  0  0  0  0  0  0  0  0
   21.8719  -33.6733   -3.2143 C   0  0  0  0  0  0  0  0  0  0  0  0
   20.4005  -33.6462   -2.8244 C   0  0  0  0  0  0  0  0  0  0  0  0
   20.2536  -33.6789   -1.3292 C   0  0  0  0  0  0  0  0  0  0  0  0
   18.8271  -33.5991   -0.9890 N   0  0  0  0  0  0  0  0  0  0  0  0
   24.2438  -34.8411   -4.6493 C   0  0  0  0  0  0  0  0  0  0  0  0
   24.7161  -35.8216   -5.5181 O   0  0  0  0  0  0  0  0  0  0  0  0
   24.4760  -34.9904   -3.4252 O   0  0  0  0  0  0  0  0  0  0  0  0
  2  1  1  6
  2  3  1  0
  4  5  1  0
  4  2  1  0
  5  6  1  6
  7  5  1  0
  7  8  2  0
  9  7  1  0
 10  9  1  0
 11 12  1  0
 10 11  1  1
 12 16  1  0
 12 13  2  0
 13 14  1  0
 15 14  1  0
 16 15  2  0
 17 10  1  0
 18 17  2  0
 19 17  1  0
 20 21  1  6
 20 19  1  0
 21 22  1  0
 22 23  1  0
 23 24  1  0
 24 25  1  0
 26 20  1  0
 27 26  1  0
 28 26  2  0
M  END
$$$$
