LHK.pdb
     RDKit          3D

 28 28  0  0  1  0  0  0  0  0999 V2000
   21.9335  -18.5205  -17.6188 C   0  0  0  0  0  0  0  0  0  0  0  0
   21.0818  -17.9159  -16.5442 C   0  0  1  0  0  0  0  0  0  0  0  0
   21.8911  -17.4142  -15.3747 C   0  0  0  0  0  0  0  0  0  0  0  0
   20.1240  -16.8983  -17.0703 C   0  0  0  0  0  0  0  0  0  0  0  0
   19.2785  -16.3538  -15.9456 C   0  0  2  0  0  0  0  0  0  0  0  0
   18.2741  -17.3123  -15.5374 N   0  0  0  0  0  0  0  0  0  0  0  0
   18.5766  -15.1055  -16.3289 C   0  0  0  0  0  0  0  0  0  0  0  0
   18.1825  -14.9472  -17.4851 O   0  0  0  0  0  0  0  0  0  0  0  0
   18.3356  -14.0515  -15.3762 N   0  0  0  0  0  0  0  0  0  0  0  0
   17.6035  -12.8504  -15.6982 C   0  0  1  0  0  0  0  0  0  0  0  0
   16.5292  -12.7271  -14.6117 C   0  0  0  0  0  0  0  0  0  0  0  0
   15.6830  -11.5197  -14.8182 C   0  0  0  0  0  0  0  0  0  0  0  0
   15.7360  -10.5591  -15.8068 C   0  0  0  0  0  0  0  0  0  0  0  0
   14.7772   -9.6307  -15.6170 N   0  0  0  0  0  0  0  0  0  0  0  0
   14.1133   -9.9865  -14.5203 C   0  0  0  0  0  0  0  0  0  0  0  0
   14.6402  -11.1083  -14.0335 N   0  0  0  0  0  0  0  0  0  0  0  0
   18.4461  -11.6646  -15.8322 C   0  0  0  0  0  0  0  0  0  0  0  0
   19.3653  -11.4652  -14.9968 O   0  0  0  0  0  0  0  0  0  0  0  0
   18.3090  -10.6980  -16.8524 N   0  0  0  0  0  0  0  0  0  0  0  0
   19.2018   -9.5365  -16.8673 C   0  0  1  0  0  0  0  0  0  0  0  0
   19.2159   -8.9222  -18.2502 C   0  0  0  0  0  0  0  0  0  0  0  0
   20.1666   -7.7664  -18.3619 C   0  0  0  0  0  0  0  0  0  0  0  0
   20.1776   -7.1819  -19.7676 C   0  0  0  0  0  0  0  0  0  0  0  0
   21.1648   -6.0526  -19.8581 C   0  0  0  0  0  0  0  0  0  0  0  0
   21.0905   -5.4616  -21.2006 N   0  0  0  0  0  0  0  0  0  0  0  0
   18.7583   -8.6521  -15.7982 C   0  0  0  0  0  0  0  0  0  0  0  0
   19.6529   -7.9243  -15.0178 O   0  0  0  0  0  0  0  0  0  0  0  0
   17.5349   -8.5234  -15.5506 O   0  0  0  0  0  0  0  0  0  0  0  0
  2  1  1  6
  2  3  1  0
  4  5  1  0
  4  2  1  0
  5  6  1  6
  7  5  1  0
  7  8  2  0
  9  7  1  0
 10  9  1  0
 11 12  1  0
 10 11  1  1
 12 16  1  0
 12 13  2  0
 13 14  1  0
 15 14  1  0
 16 15  2  0
 17 10  1  0
 18 17  2  0
 19 17  1  0
 20 21  1  6
 20 19  1  0
 21 22  1  0
 22 23  1  0
 23 24  1  0
 24 25  1  0
 26 20  1  0
 27 26  1  0
 28 26  2  0
M  END
$$$$
