LHK.pdb
     RDKit          3D

 28 28  0  0  1  0  0  0  0  0999 V2000
   28.7663  -18.5156   -4.5376 C   0  0  0  0  0  0  0  0  0  0  0  0
   28.4221  -19.6925   -5.3991 C   0  0  1  0  0  0  0  0  0  0  0  0
   27.9484  -20.8798   -4.5989 C   0  0  0  0  0  0  0  0  0  0  0  0
   27.5000  -19.3385   -6.5191 C   0  0  0  0  0  0  0  0  0  0  0  0
   27.3658  -20.5048   -7.4668 C   0  0  2  0  0  0  0  0  0  0  0  0
   28.6049  -21.2466   -7.5591 N   0  0  0  0  0  0  0  0  0  0  0  0
   27.0000  -20.0717   -8.8366 C   0  0  0  0  0  0  0  0  0  0  0  0
   27.5424  -19.0868   -9.3397 O   0  0  0  0  0  0  0  0  0  0  0  0
   26.0128  -20.7776   -9.6135 N   0  0  0  0  0  0  0  0  0  0  0  0
   25.7165  -20.4578  -10.9892 C   0  0  1  0  0  0  0  0  0  0  0  0
   27.0236  -20.7009  -11.7522 C   0  0  0  0  0  0  0  0  0  0  0  0
   26.8606  -20.4365  -13.2082 C   0  0  0  0  0  0  0  0  0  0  0  0
   26.6174  -21.3121  -14.2460 C   0  0  0  0  0  0  0  0  0  0  0  0
   26.5393  -20.6488  -15.4170 N   0  0  0  0  0  0  0  0  0  0  0  0
   26.7294  -19.3615  -15.1397 C   0  0  0  0  0  0  0  0  0  0  0  0
   26.9218  -19.2190  -13.8298 N   0  0  0  0  0  0  0  0  0  0  0  0
   24.5726  -21.1873  -11.5307 C   0  0  0  0  0  0  0  0  0  0  0  0
   24.3727  -22.3752  -11.1683 O   0  0  0  0  0  0  0  0  0  0  0  0
   23.6470  -20.6514  -12.4527 N   0  0  0  0  0  0  0  0  0  0  0  0
   22.2330  -21.0204  -12.3489 C   0  0  1  0  0  0  0  0  0  0  0  0
   21.6501  -20.4513  -11.0735 C   0  0  0  0  0  0  0  0  0  0  0  0
   21.6336  -21.4451   -9.9492 C   0  0  0  0  0  0  0  0  0  0  0  0
   20.2314  -21.9799   -9.6927 C   0  0  0  0  0  0  0  0  0  0  0  0
   20.2436  -22.9569   -8.5510 C   0  0  0  0  0  0  0  0  0  0  0  0
   18.8970  -23.5214   -8.3928 N   0  0  0  0  0  0  0  0  0  0  0  0
   21.5913  -20.5758  -13.5786 C   0  0  0  0  0  0  0  0  0  0  0  0
   20.6789  -21.3695  -14.2688 O   0  0  0  0  0  0  0  0  0  0  0  0
   21.8518  -19.4442  -14.0543 O   0  0  0  0  0  0  0  0  0  0  0  0
  2  1  1  1
  2  3  1  0
  4  5  1  0
  4  2  1  0
  5  6  1  6
  7  5  1  0
  7  8  2  0
  9  7  1  0
 10  9  1  0
 11 12  1  0
 10 11  1  6
 12 16  1  0
 12 13  2  0
 13 14  1  0
 15 14  1  0
 16 15  2  0
 17 10  1  0
 18 17  2  0
 19 17  1  0
 20 21  1  1
 20 19  1  0
 21 22  1  0
 22 23  1  0
 23 24  1  0
 24 25  1  0
 26 20  1  0
 27 26  1  0
 28 26  2  0
M  END
$$$$
