LHK.pdb
     RDKit          3D

 28 28  0  0  1  0  0  0  0  0999 V2000
   27.7005  -19.4618   -7.7776 C   0  0  0  0  0  0  0  0  0  0  0  0
   27.0025  -20.5504   -8.5348 C   0  0  1  0  0  0  0  0  0  0  0  0
   26.2427  -21.4905   -7.6330 C   0  0  0  0  0  0  0  0  0  0  0  0
   26.1759  -20.0299   -9.6643 C   0  0  0  0  0  0  0  0  0  0  0  0
   25.5339  -21.1760  -10.4063 C   0  0  2  0  0  0  0  0  0  0  0  0
   26.5332  -22.0310  -11.0101 N   0  0  0  0  0  0  0  0  0  0  0  0
   24.6338  -20.7070  -11.4868 C   0  0  0  0  0  0  0  0  0  0  0  0
   23.8192  -19.8094  -11.2676 O   0  0  0  0  0  0  0  0  0  0  0  0
   24.6808  -21.2767  -12.8096 N   0  0  0  0  0  0  0  0  0  0  0  0
   23.8570  -20.8097  -13.8985 C   0  0  1  0  0  0  0  0  0  0  0  0
   24.7771  -20.7935  -15.1245 C   0  0  0  0  0  0  0  0  0  0  0  0
   25.6808  -19.6105  -15.1106 C   0  0  0  0  0  0  0  0  0  0  0  0
   27.0149  -19.5185  -14.7720 C   0  0  0  0  0  0  0  0  0  0  0  0
   27.4497  -18.2490  -14.9006 N   0  0  0  0  0  0  0  0  0  0  0  0
   26.4105  -17.5300  -15.3168 C   0  0  0  0  0  0  0  0  0  0  0  0
   25.3508  -18.3257  -15.4465 N   0  0  0  0  0  0  0  0  0  0  0  0
   22.6347  -21.5869  -14.0883 C   0  0  0  0  0  0  0  0  0  0  0  0
   22.6703  -22.8357  -13.9408 O   0  0  0  0  0  0  0  0  0  0  0  0
   21.3817  -21.0341  -14.4322 N   0  0  0  0  0  0  0  0  0  0  0  0
   20.2247  -21.9186  -14.5909 C   0  0  1  0  0  0  0  0  0  0  0  0
   18.9483  -21.1236  -14.4213 C   0  0  0  0  0  0  0  0  0  0  0  0
   18.3222  -21.3126  -13.0706 C   0  0  0  0  0  0  0  0  0  0  0  0
   17.0210  -20.5329  -12.9406 C   0  0  0  0  0  0  0  0  0  0  0  0
   16.3980  -20.7735  -11.5944 C   0  0  0  0  0  0  0  0  0  0  0  0
   15.1481  -20.0075  -11.5043 N   0  0  0  0  0  0  0  0  0  0  0  0
   20.3773  -22.5831  -15.8781 C   0  0  0  0  0  0  0  0  0  0  0  0
   19.9061  -23.8732  -16.1080 O   0  0  0  0  0  0  0  0  0  0  0  0
   20.9489  -21.9965  -16.8287 O   0  0  0  0  0  0  0  0  0  0  0  0
  2  1  1  1
  2  3  1  0
  4  5  1  0
  4  2  1  0
  5  6  1  6
  7  5  1  0
  7  8  2  0
  9  7  1  0
 10  9  1  0
 11 12  1  0
 10 11  1  6
 12 16  1  0
 12 13  2  0
 13 14  1  0
 15 14  1  0
 16 15  2  0
 17 10  1  0
 18 17  2  0
 19 17  1  0
 20 21  1  6
 20 19  1  0
 21 22  1  0
 22 23  1  0
 23 24  1  0
 24 25  1  0
 26 20  1  0
 27 26  1  0
 28 26  2  0
M  END
$$$$
