LHK.pdb
     RDKit          3D

 28 28  0  0  1  0  0  0  0  0999 V2000
   20.7168  -18.6009  -17.0559 C   0  0  0  0  0  0  0  0  0  0  0  0
   20.8473  -17.3270  -17.8343 C   0  0  1  0  0  0  0  0  0  0  0  0
   19.6488  -17.0546  -18.7083 C   0  0  0  0  0  0  0  0  0  0  0  0
   21.2215  -16.1625  -16.9777 C   0  0  0  0  0  0  0  0  0  0  0  0
   21.3058  -14.9104  -17.8152 C   0  0  2  0  0  0  0  0  0  0  0  0
   22.3041  -15.0446  -18.8543 N   0  0  0  0  0  0  0  0  0  0  0  0
   21.6595  -13.7200  -17.0055 C   0  0  0  0  0  0  0  0  0  0  0  0
   21.0795  -13.5010  -15.9412 O   0  0  0  0  0  0  0  0  0  0  0  0
   22.6781  -12.7933  -17.4300 N   0  0  0  0  0  0  0  0  0  0  0  0
   23.0870  -11.6561  -16.6413 C   0  0  1  0  0  0  0  0  0  0  0  0
   24.5512  -11.4058  -17.0199 C   0  0  0  0  0  0  0  0  0  0  0  0
   25.4447  -12.4578  -16.4617 C   0  0  0  0  0  0  0  0  0  0  0  0
   25.1527  -13.5178  -15.6288 C   0  0  0  0  0  0  0  0  0  0  0  0
   26.2645  -14.2329  -15.3647 N   0  0  0  0  0  0  0  0  0  0  0  0
   27.2619  -13.6429  -16.0183 C   0  0  0  0  0  0  0  0  0  0  0  0
   26.7902  -12.5854  -16.6757 N   0  0  0  0  0  0  0  0  0  0  0  0
   22.2272  -10.4863  -16.8037 C   0  0  0  0  0  0  0  0  0  0  0  0
   21.9277  -10.0988  -17.9625 O   0  0  0  0  0  0  0  0  0  0  0  0
   21.6895   -9.7354  -15.7356 N   0  0  0  0  0  0  0  0  0  0  0  0
   20.8089   -8.6010  -16.0258 C   0  0  1  0  0  0  0  0  0  0  0  0
   19.3660   -9.0124  -15.8286 C   0  0  0  0  0  0  0  0  0  0  0  0
   18.4056   -7.8786  -16.0386 C   0  0  0  0  0  0  0  0  0  0  0  0
   16.9609   -8.3271  -15.8669 C   0  0  0  0  0  0  0  0  0  0  0  0
   16.0201   -7.2024  -16.1959 C   0  0  0  0  0  0  0  0  0  0  0  0
   14.6392   -7.6935  -16.1013 N   0  0  0  0  0  0  0  0  0  0  0  0
   21.2599   -7.4951  -15.1921 C   0  0  0  0  0  0  0  0  0  0  0  0
   22.2629   -7.6456  -14.2380 O   0  0  0  0  0  0  0  0  0  0  0  0
   20.7440   -6.3580  -15.3167 O   0  0  0  0  0  0  0  0  0  0  0  0
  2  1  1  1
  2  3  1  0
  4  5  1  0
  4  2  1  0
  5  6  1  6
  7  5  1  0
  7  8  2  0
  9  7  1  0
 10  9  1  0
 11 12  1  0
 10 11  1  6
 12 16  1  0
 12 13  2  0
 13 14  1  0
 15 14  1  0
 16 15  2  0
 17 10  1  0
 18 17  2  0
 19 17  1  0
 20 21  1  1
 20 19  1  0
 21 22  1  0
 22 23  1  0
 23 24  1  0
 24 25  1  0
 26 20  1  0
 27 26  1  0
 28 26  2  0
M  END
$$$$
