LHK.pdb
     RDKit          3D

 28 28  0  0  1  0  0  0  0  0999 V2000
   20.4200  -14.5057  -16.7457 C   0  0  0  0  0  0  0  0  0  0  0  0
   20.0167  -13.1999  -17.3605 C   0  0  1  0  0  0  0  0  0  0  0  0
   18.5710  -13.1816  -17.7895 C   0  0  0  0  0  0  0  0  0  0  0  0
   20.3902  -12.0249  -16.5180 C   0  0  0  0  0  0  0  0  0  0  0  0
   19.8951  -10.7515  -17.1580 C   0  0  2  0  0  0  0  0  0  0  0  0
   20.4404  -10.5908  -18.4888 N   0  0  0  0  0  0  0  0  0  0  0  0
   20.2685   -9.5506  -16.3730 C   0  0  0  0  0  0  0  0  0  0  0  0
   19.8733   -9.4218  -15.2135 O   0  0  0  0  0  0  0  0  0  0  0  0
   21.0935   -8.5096  -16.9317 N   0  0  0  0  0  0  0  0  0  0  0  0
   21.5114   -7.3485  -16.1835 C   0  0  1  0  0  0  0  0  0  0  0  0
   23.0419   -7.3403  -16.2696 C   0  0  0  0  0  0  0  0  0  0  0  0
   23.6269   -8.5718  -15.6716 C   0  0  0  0  0  0  0  0  0  0  0  0
   23.6120   -9.0159  -14.3657 C   0  0  0  0  0  0  0  0  0  0  0  0
   24.2646  -10.1904  -14.2573 N   0  0  0  0  0  0  0  0  0  0  0  0
   24.6956  -10.5014  -15.4771 C   0  0  0  0  0  0  0  0  0  0  0  0
   24.3241   -9.5483  -16.3295 N   0  0  0  0  0  0  0  0  0  0  0  0
   20.8886   -6.1045  -16.6292 C   0  0  0  0  0  0  0  0  0  0  0  0
   20.6747   -5.9286  -17.8563 O   0  0  0  0  0  0  0  0  0  0  0  0
   20.4955   -5.0552  -15.7700 N   0  0  0  0  0  0  0  0  0  0  0  0
   19.7381   -3.9255  -16.3146 C   0  0  1  0  0  0  0  0  0  0  0  0
   18.4853   -4.4325  -16.9953 C   0  0  0  0  0  0  0  0  0  0  0  0
   17.6004   -3.3229  -17.4829 C   0  0  0  0  0  0  0  0  0  0  0  0
   16.3171   -3.8588  -18.1023 C   0  0  0  0  0  0  0  0  0  0  0  0
   15.5058   -2.7349  -18.6827 C   0  0  0  0  0  0  0  0  0  0  0  0
   14.3493   -3.2986  -19.3910 N   0  0  0  0  0  0  0  0  0  0  0  0
   19.5159   -2.9987  -15.2131 C   0  0  0  0  0  0  0  0  0  0  0  0
   19.1683   -1.6666  -15.4223 O   0  0  0  0  0  0  0  0  0  0  0  0
   19.6354   -3.3872  -14.0259 O   0  0  0  0  0  0  0  0  0  0  0  0
  2  1  1  1
  2  3  1  0
  4  5  1  0
  4  2  1  0
  5  6  1  6
  7  5  1  0
  7  8  2  0
  9  7  1  0
 10  9  1  0
 11 12  1  0
 10 11  1  6
 12 16  1  0
 12 13  2  0
 13 14  1  0
 15 14  1  0
 16 15  2  0
 17 10  1  0
 18 17  2  0
 19 17  1  0
 20 21  1  1
 20 19  1  0
 21 22  1  0
 22 23  1  0
 23 24  1  0
 24 25  1  0
 26 20  1  0
 27 26  1  0
 28 26  2  0
M  END
$$$$
