LHK.pdb
     RDKit          3D

 28 28  0  0  1  0  0  0  0  0999 V2000
   19.4330  -11.9004    4.2540 C   0  0  0  0  0  0  0  0  0  0  0  0
   18.4249  -12.9313    3.8460 C   0  0  1  0  0  0  0  0  0  0  0  0
   18.6843  -13.4841    2.4670 C   0  0  0  0  0  0  0  0  0  0  0  0
   18.2387  -13.9965    4.8760 C   0  0  0  0  0  0  0  0  0  0  0  0
   17.2923  -15.0531    4.3619 C   0  0  2  0  0  0  0  0  0  0  0  0
   15.9233  -14.5848    4.3898 N   0  0  0  0  0  0  0  0  0  0  0  0
   17.3563  -16.2979    5.1646 C   0  0  0  0  0  0  0  0  0  0  0  0
   16.6573  -16.4216    6.1712 O   0  0  0  0  0  0  0  0  0  0  0  0
   18.2251  -17.3880    4.7997 N   0  0  0  0  0  0  0  0  0  0  0  0
   18.4245  -18.5495    5.6325 C   0  0  1  0  0  0  0  0  0  0  0  0
   18.3606  -19.7478    4.6786 C   0  0  0  0  0  0  0  0  0  0  0  0
   16.9967  -19.9146    4.1055 C   0  0  0  0  0  0  0  0  0  0  0  0
   16.5215  -19.6119    2.8464 C   0  0  0  0  0  0  0  0  0  0  0  0
   15.2143  -19.9252    2.7455 N   0  0  0  0  0  0  0  0  0  0  0  0
   14.8493  -20.4237    3.9238 C   0  0  0  0  0  0  0  0  0  0  0  0
   15.8986  -20.4240    4.7436 N   0  0  0  0  0  0  0  0  0  0  0  0
   19.6447  -18.4977    6.4341 C   0  0  0  0  0  0  0  0  0  0  0  0
   20.6706  -17.9467    5.9583 O   0  0  0  0  0  0  0  0  0  0  0  0
   19.7686  -19.0300    7.7361 N   0  0  0  0  0  0  0  0  0  0  0  0
   20.9612  -18.7208    8.5288 C   0  0  1  0  0  0  0  0  0  0  0  0
   21.0105  -17.2361    8.8175 C   0  0  0  0  0  0  0  0  0  0  0  0
   22.1295  -16.8622    9.7449 C   0  0  0  0  0  0  0  0  0  0  0  0
   22.1534  -15.3653   10.0216 C   0  0  0  0  0  0  0  0  0  0  0  0
   23.3142  -15.0147   10.9093 C   0  0  0  0  0  0  0  0  0  0  0  0
   23.3505  -13.5580   11.0926 N   0  0  0  0  0  0  0  0  0  0  0  0
   20.9200  -19.5817    9.7030 C   0  0  0  0  0  0  0  0  0  0  0  0
   19.7218  -19.9767   10.2922 O   0  0  0  0  0  0  0  0  0  0  0  0
   21.9853  -19.9953   10.2214 O   0  0  0  0  0  0  0  0  0  0  0  0
  2  1  1  1
  2  3  1  0
  4  5  1  0
  4  2  1  0
  5  6  1  1
  7  5  1  0
  7  8  2  0
  9  7  1  0
 10  9  1  0
 11 12  1  0
 10 11  1  6
 12 16  1  0
 12 13  2  0
 13 14  1  0
 15 14  1  0
 16 15  2  0
 17 10  1  0
 18 17  2  0
 19 17  1  0
 20 21  1  1
 20 19  1  0
 21 22  1  0
 22 23  1  0
 23 24  1  0
 24 25  1  0
 26 20  1  0
 27 26  1  0
 28 26  2  0
M  END
$$$$
