LHK.pdb
     RDKit          3D

 28 28  0  0  1  0  0  0  0  0999 V2000
   17.5913  -18.9224  -20.2339 C   0  0  0  0  0  0  0  0  0  0  0  0
   19.0395  -19.2983  -20.3185 C   0  0  1  0  0  0  0  0  0  0  0  0
   19.8988  -18.5225  -19.3520 C   0  0  0  0  0  0  0  0  0  0  0  0
   19.2590  -20.7733  -20.2400 C   0  0  0  0  0  0  0  0  0  0  0  0
   20.7366  -21.0779  -20.2582 C   0  0  2  0  0  0  0  0  0  0  0  0
   21.2606  -21.0372  -21.6065 N   0  0  0  0  0  0  0  0  0  0  0  0
   21.0369  -22.4186  -19.7013 C   0  0  0  0  0  0  0  0  0  0  0  0
   20.7552  -23.4321  -20.3421 O   0  0  0  0  0  0  0  0  0  0  0  0
   21.6591  -22.5786  -18.4114 N   0  0  0  0  0  0  0  0  0  0  0  0
   21.9858  -23.8665  -17.8484 C   0  0  1  0  0  0  0  0  0  0  0  0
   23.4973  -23.8266  -17.5960 C   0  0  0  0  0  0  0  0  0  0  0  0
   23.9878  -25.1124  -17.0280 C   0  0  0  0  0  0  0  0  0  0  0  0
   23.2985  -26.2692  -16.7288 C   0  0  0  0  0  0  0  0  0  0  0  0
   24.1330  -27.2018  -16.2279 N   0  0  0  0  0  0  0  0  0  0  0  0
   25.3458  -26.6551  -16.2038 C   0  0  0  0  0  0  0  0  0  0  0  0
   25.2758  -25.4123  -16.6767 N   0  0  0  0  0  0  0  0  0  0  0  0
   21.1990  -24.2098  -16.6664 C   0  0  0  0  0  0  0  0  0  0  0  0
   21.1038  -23.3780  -15.7275 O   0  0  0  0  0  0  0  0  0  0  0  0
   20.5170  -25.4334  -16.4882 N   0  0  0  0  0  0  0  0  0  0  0  0
   19.7020  -25.6341  -15.2875 C   0  0  1  0  0  0  0  0  0  0  0  0
   18.3668  -26.2336  -15.6721 C   0  0  0  0  0  0  0  0  0  0  0  0
   17.2064  -25.3691  -15.2742 C   0  0  0  0  0  0  0  0  0  0  0  0
   15.8832  -25.9494  -15.7540 C   0  0  0  0  0  0  0  0  0  0  0  0
   14.7508  -25.0206  -15.4177 C   0  0  0  0  0  0  0  0  0  0  0  0
   13.5188  -25.5284  -16.0353 N   0  0  0  0  0  0  0  0  0  0  0  0
   20.5000  -26.4320  -14.3666 C   0  0  0  0  0  0  0  0  0  0  0  0
   21.7858  -26.8643  -14.6812 O   0  0  0  0  0  0  0  0  0  0  0  0
   20.0376  -26.7552  -13.2458 O   0  0  0  0  0  0  0  0  0  0  0  0
  2  1  1  1
  2  3  1  0
  4  5  1  0
  4  2  1  0
  5  6  1  6
  7  5  1  0
  7  8  2  0
  9  7  1  0
 10  9  1  0
 11 12  1  0
 10 11  1  1
 12 16  1  0
 12 13  2  0
 13 14  1  0
 15 14  1  0
 16 15  2  0
 17 10  1  0
 18 17  2  0
 19 17  1  0
 20 21  1  6
 20 19  1  0
 21 22  1  0
 22 23  1  0
 23 24  1  0
 24 25  1  0
 26 20  1  0
 27 26  1  0
 28 26  2  0
M  END
$$$$
