GKC.pdb
     RDKit          3D

 20 19  0  0  1  0  0  0  0  0999 V2000
   10.2166   -8.9367   -8.5371 N   0  0  0  0  0  0  0  0  0  0  0  0
   10.4806   -8.2519   -9.7714 C   0  0  0  0  0  0  0  0  0  0  0  0
   11.8581   -7.6816   -9.8045 C   0  0  0  0  0  0  0  0  0  0  0  0
   12.4343   -7.4582   -8.7151 O   0  0  0  0  0  0  0  0  0  0  0  0
   12.5433   -7.3815  -11.0056 N   0  0  0  0  0  0  0  0  0  0  0  0
   13.8227   -6.7066  -11.0564 C   0  0  1  0  0  0  0  0  0  0  0  0
   14.5260   -6.9276  -12.3755 C   0  0  0  0  0  0  0  0  0  0  0  0
   15.0161   -8.3243  -12.5514 C   0  0  0  0  0  0  0  0  0  0  0  0
   15.6104   -8.4715  -13.9292 C   0  0  0  0  0  0  0  0  0  0  0  0
   16.0532   -9.8660  -14.2607 C   0  0  0  0  0  0  0  0  0  0  0  0
   16.6155   -9.8979  -15.6219 N   0  0  0  0  0  0  0  0  0  0  0  0
   13.6347   -5.2659  -10.7683 C   0  0  0  0  0  0  0  0  0  0  0  0
   12.6958   -4.6432  -11.3238 O   0  0  0  0  0  0  0  0  0  0  0  0
   14.4675   -4.5391   -9.8873 N   0  0  0  0  0  0  0  0  0  0  0  0
   14.2058   -3.1255   -9.5891 C   0  0  1  0  0  0  0  0  0  0  0  0
   13.9481   -3.0081   -8.1033 C   0  0  0  0  0  0  0  0  0  0  0  0
   13.7987   -1.2791   -7.6147 S   0  0  0  0  0  0  0  0  0  0  0  0
   15.3305   -2.2715   -9.9741 C   0  0  0  0  0  0  0  0  0  0  0  0
   16.5414   -2.5865   -9.8520 O   0  0  0  0  0  0  0  0  0  0  0  0
   15.0558   -1.0272  -10.5116 O   0  0  0  0  0  0  0  0  0  0  0  0
  2  1  1  0
  3  2  1  0
  4  3  2  0
  5  3  1  0
  6 12  1  0
  6  5  1  0
  6  7  1  6
  8  7  1  0
  9  8  1  0
 10  9  1  0
 11 10  1  0
 12 14  1  0
 13 12  2  0
 14 15  1  0
 15 16  1  1
 15 18  1  0
 17 16  1  0
 18 19  2  0
 18 20  1  0
M  END
$$$$
