GKC.pdb
     RDKit          3D

 20 19  0  0  1  0  0  0  0  0999 V2000
   19.5490  -15.4178  -16.7816 N   0  0  0  0  0  0  0  0  0  0  0  0
   18.7568  -14.3677  -16.2057 C   0  0  0  0  0  0  0  0  0  0  0  0
   19.2873  -13.0186  -16.5554 C   0  0  0  0  0  0  0  0  0  0  0  0
   20.5271  -12.8786  -16.6655 O   0  0  0  0  0  0  0  0  0  0  0  0
   18.4583  -11.8918  -16.7681 N   0  0  0  0  0  0  0  0  0  0  0  0
   18.9502  -10.5977  -17.1904 C   0  0  1  0  0  0  0  0  0  0  0  0
   17.8432   -9.7200  -17.7267 C   0  0  0  0  0  0  0  0  0  0  0  0
   18.3264   -8.3925  -18.2024 C   0  0  0  0  0  0  0  0  0  0  0  0
   17.4716   -7.9388  -19.3586 C   0  0  0  0  0  0  0  0  0  0  0  0
   17.8595   -6.6035  -19.9216 C   0  0  0  0  0  0  0  0  0  0  0  0
   16.9942   -6.2780  -21.0684 N   0  0  0  0  0  0  0  0  0  0  0  0
   19.6699   -9.9511  -16.0688 C   0  0  0  0  0  0  0  0  0  0  0  0
   19.1048   -9.8469  -14.9517 O   0  0  0  0  0  0  0  0  0  0  0  0
   20.9805   -9.4353  -16.1868 N   0  0  0  0  0  0  0  0  0  0  0  0
   21.6154   -8.7156  -15.0756 C   0  0  1  0  0  0  0  0  0  0  0  0
   23.1107   -8.9104  -15.1951 C   0  0  0  0  0  0  0  0  0  0  0  0
   23.5884  -10.5551  -14.6319 S   0  0  0  0  0  0  0  0  0  0  0  0
   21.2904   -7.2886  -15.0958 C   0  0  0  0  0  0  0  0  0  0  0  0
   21.5269   -6.4886  -14.1552 O   0  0  0  0  0  0  0  0  0  0  0  0
   20.6797   -6.7704  -16.2232 O   0  0  0  0  0  0  0  0  0  0  0  0
  2  1  1  0
  3  2  1  0
  4  3  2  0
  5  3  1  0
  6 12  1  0
  6  5  1  0
  6  7  1  1
  8  7  1  0
  9  8  1  0
 10  9  1  0
 11 10  1  0
 12 14  1  0
 13 12  2  0
 14 15  1  0
 15 16  1  6
 15 18  1  0
 17 16  1  0
 18 19  2  0
 18 20  1  0
M  END
$$$$
