GKC.pdb
     RDKit          3D

 20 19  0  0  1  0  0  0  0  0999 V2000
   28.9980  -39.0518  -11.6900 N   0  0  0  0  0  0  0  0  0  0  0  0
   27.6357  -38.6979  -11.4053 C   0  0  0  0  0  0  0  0  0  0  0  0
   27.5083  -37.2685  -10.9997 C   0  0  0  0  0  0  0  0  0  0  0  0
   28.5439  -36.6554  -10.6528 O   0  0  0  0  0  0  0  0  0  0  0  0
   26.2756  -36.5737  -10.9883 N   0  0  0  0  0  0  0  0  0  0  0  0
   26.1357  -35.1874  -10.5966 C   0  0  1  0  0  0  0  0  0  0  0  0
   24.9134  -34.5469  -11.2128 C   0  0  0  0  0  0  0  0  0  0  0  0
   25.0593  -34.2920  -12.6742 C   0  0  0  0  0  0  0  0  0  0  0  0
   23.8046  -33.6345  -13.1905 C   0  0  0  0  0  0  0  0  0  0  0  0
   23.8540  -33.2765  -14.6465 C   0  0  0  0  0  0  0  0  0  0  0  0
   22.6695  -32.4759  -15.0013 N   0  0  0  0  0  0  0  0  0  0  0  0
   26.1219  -35.0890   -9.1188 C   0  0  0  0  0  0  0  0  0  0  0  0
   25.5280  -35.9691   -8.4475 O   0  0  0  0  0  0  0  0  0  0  0  0
   26.7509  -34.0414   -8.4084 N   0  0  0  0  0  0  0  0  0  0  0  0
   26.7840  -34.0332   -6.9405 C   0  0  1  0  0  0  0  0  0  0  0  0
   27.6571  -32.8770   -6.5058 C   0  0  0  0  0  0  0  0  0  0  0  0
   27.8577  -32.8654   -4.7142 S   0  0  0  0  0  0  0  0  0  0  0  0
   25.4444  -33.8958   -6.3672 C   0  0  0  0  0  0  0  0  0  0  0  0
   24.4963  -33.2718   -6.9080 O   0  0  0  0  0  0  0  0  0  0  0  0
   25.1896  -34.4894   -5.1445 O   0  0  0  0  0  0  0  0  0  0  0  0
  2  1  1  0
  3  2  1  0
  4  3  2  0
  5  3  1  0
  6 12  1  0
  6  5  1  0
  6  7  1  6
  8  7  1  0
  9  8  1  0
 10  9  1  0
 11 10  1  0
 12 14  1  0
 13 12  2  0
 14 15  1  0
 15 16  1  6
 15 18  1  0
 17 16  1  0
 18 19  2  0
 18 20  1  0
M  END
$$$$
