GKC.pdb
     RDKit          3D

 20 19  0  0  1  0  0  0  0  0999 V2000
   15.0650   -8.1700   -8.3386 N   0  0  0  0  0  0  0  0  0  0  0  0
   15.0580   -7.3550   -9.5210 C   0  0  0  0  0  0  0  0  0  0  0  0
   16.1256   -7.7611  -10.4796 C   0  0  0  0  0  0  0  0  0  0  0  0
   17.1674   -8.2840  -10.0212 O   0  0  0  0  0  0  0  0  0  0  0  0
   16.0177   -7.5841  -11.8794 N   0  0  0  0  0  0  0  0  0  0  0  0
   17.0794   -7.8897  -12.8144 C   0  0  1  0  0  0  0  0  0  0  0  0
   16.5455   -8.1993  -14.1938 C   0  0  0  0  0  0  0  0  0  0  0  0
   17.6192   -8.4936  -15.1851 C   0  0  0  0  0  0  0  0  0  0  0  0
   17.9860   -9.9535  -15.1001 C   0  0  0  0  0  0  0  0  0  0  0  0
   19.1249  -10.3529  -15.9912 C   0  0  0  0  0  0  0  0  0  0  0  0
   19.5059  -11.7487  -15.7144 N   0  0  0  0  0  0  0  0  0  0  0  0
   18.0536   -6.7742  -12.8397 C   0  0  0  0  0  0  0  0  0  0  0  0
   17.6393   -5.5914  -12.7546 O   0  0  0  0  0  0  0  0  0  0  0  0
   19.4486   -6.9694  -12.9562 N   0  0  0  0  0  0  0  0  0  0  0  0
   20.3617   -5.8329  -13.1308 C   0  0  1  0  0  0  0  0  0  0  0  0
   21.7698   -6.3328  -12.8957 C   0  0  0  0  0  0  0  0  0  0  0  0
   22.9645   -4.9979  -13.0984 S   0  0  0  0  0  0  0  0  0  0  0  0
   20.2519   -5.2477  -14.4679 C   0  0  0  0  0  0  0  0  0  0  0  0
   20.1128   -5.9090  -15.5281 O   0  0  0  0  0  0  0  0  0  0  0  0
   20.3032   -3.8710  -14.5880 O   0  0  0  0  0  0  0  0  0  0  0  0
  2  1  1  0
  3  2  1  0
  4  3  2  0
  5  3  1  0
  6 12  1  0
  6  5  1  0
  6  7  1  6
  8  7  1  0
  9  8  1  0
 10  9  1  0
 11 10  1  0
 12 14  1  0
 13 12  2  0
 14 15  1  0
 15 16  1  6
 15 18  1  0
 17 16  1  0
 18 19  2  0
 18 20  1  0
M  END
$$$$
