GKC.pdb
     RDKit          3D

 20 19  0  0  1  0  0  0  0  0999 V2000
   16.0970  -10.1829  -10.4624 N   0  0  0  0  0  0  0  0  0  0  0  0
   15.9322   -9.7283  -11.8146 C   0  0  0  0  0  0  0  0  0  0  0  0
   17.2409   -9.5922  -12.5163 C   0  0  0  0  0  0  0  0  0  0  0  0
   18.2874   -9.6027  -11.8281 O   0  0  0  0  0  0  0  0  0  0  0  0
   17.3563   -9.4521  -13.9196 N   0  0  0  0  0  0  0  0  0  0  0  0
   18.6191   -9.3302  -14.6161 C   0  0  1  0  0  0  0  0  0  0  0  0
   18.5234   -9.8064  -16.0471 C   0  0  0  0  0  0  0  0  0  0  0  0
   19.1355  -11.1488  -16.2601 C   0  0  0  0  0  0  0  0  0  0  0  0
   18.9035  -11.5789  -17.6864 C   0  0  0  0  0  0  0  0  0  0  0  0
   19.3475  -12.9806  -17.9845 C   0  0  0  0  0  0  0  0  0  0  0  0
   19.0646  -13.3017  -19.3941 N   0  0  0  0  0  0  0  0  0  0  0  0
   19.0976   -7.9309  -14.5334 C   0  0  0  0  0  0  0  0  0  0  0  0
   18.2827   -6.9895  -14.6995 O   0  0  0  0  0  0  0  0  0  0  0  0
   20.4442   -7.5890  -14.2733 N   0  0  0  0  0  0  0  0  0  0  0  0
   20.8687   -6.1856  -14.1934 C   0  0  1  0  0  0  0  0  0  0  0  0
   22.0758   -6.1205  -13.2841 C   0  0  0  0  0  0  0  0  0  0  0  0
   22.6113   -4.4146  -13.0533 S   0  0  0  0  0  0  0  0  0  0  0  0
   21.2011   -5.6423  -15.5112 C   0  0  0  0  0  0  0  0  0  0  0  0
   21.0008   -4.4527  -15.8649 O   0  0  0  0  0  0  0  0  0  0  0  0
   21.7770   -6.4866  -16.4429 O   0  0  0  0  0  0  0  0  0  0  0  0
  2  1  1  0
  3  2  1  0
  4  3  2  0
  5  3  1  0
  6 12  1  0
  6  5  1  0
  6  7  1  6
  8  7  1  0
  9  8  1  0
 10  9  1  0
 11 10  1  0
 12 14  1  0
 13 12  2  0
 14 15  1  0
 15 16  1  1
 15 18  1  0
 17 16  1  0
 18 19  2  0
 18 20  1  0
M  END
$$$$
