GKC.pdb
     RDKit          3D

 20 19  0  0  1  0  0  0  0  0999 V2000
   28.1096  -12.0656  -16.1752 N   0  0  0  0  0  0  0  0  0  0  0  0
   27.0538  -11.9488  -15.2089 C   0  0  0  0  0  0  0  0  0  0  0  0
   25.8386  -11.3101  -15.7912 C   0  0  0  0  0  0  0  0  0  0  0  0
   25.9724  -10.6061  -16.8185 O   0  0  0  0  0  0  0  0  0  0  0  0
   24.5444  -11.4614  -15.2394 N   0  0  0  0  0  0  0  0  0  0  0  0
   23.3493  -10.8857  -15.8182 C   0  0  1  0  0  0  0  0  0  0  0  0
   22.1176  -11.7009  -15.4987 C   0  0  0  0  0  0  0  0  0  0  0  0
   20.8748  -11.1483  -16.1087 C   0  0  0  0  0  0  0  0  0  0  0  0
   20.0609  -12.2786  -16.6860 C   0  0  0  0  0  0  0  0  0  0  0  0
   18.7869  -11.8420  -17.3471 C   0  0  0  0  0  0  0  0  0  0  0  0
   17.9597  -13.0206  -17.6577 N   0  0  0  0  0  0  0  0  0  0  0  0
   23.2096   -9.4805  -15.3711 C   0  0  0  0  0  0  0  0  0  0  0  0
   23.2942   -9.2114  -14.1471 O   0  0  0  0  0  0  0  0  0  0  0  0
   22.9825   -8.4057  -16.2606 N   0  0  0  0  0  0  0  0  0  0  0  0
   22.8400   -7.0301  -15.7674 C   0  0  1  0  0  0  0  0  0  0  0  0
   23.4988   -6.1102  -16.7712 C   0  0  0  0  0  0  0  0  0  0  0  0
   25.2824   -6.3713  -16.8035 S   0  0  0  0  0  0  0  0  0  0  0  0
   21.4353   -6.6588  -15.5905 C   0  0  0  0  0  0  0  0  0  0  0  0
   20.4752   -7.1762  -16.2158 O   0  0  0  0  0  0  0  0  0  0  0  0
   21.1283   -5.6701  -14.6736 O   0  0  0  0  0  0  0  0  0  0  0  0
  2  1  1  0
  3  2  1  0
  4  3  2  0
  5  3  1  0
  6 12  1  0
  6  5  1  0
  6  7  1  1
  8  7  1  0
  9  8  1  0
 10  9  1  0
 11 10  1  0
 12 14  1  0
 13 12  2  0
 14 15  1  0
 15 16  1  6
 15 18  1  0
 17 16  1  0
 18 19  2  0
 18 20  1  0
M  END
$$$$
