GKC.pdb
     RDKit          3D

 20 19  0  0  1  0  0  0  0  0999 V2000
   15.8968   -6.6188   -7.8596 N   0  0  0  0  0  0  0  0  0  0  0  0
   14.8982   -7.5525   -8.2991 C   0  0  0  0  0  0  0  0  0  0  0  0
   15.3516   -8.3289   -9.4888 C   0  0  0  0  0  0  0  0  0  0  0  0
   16.5287   -8.7568   -9.5049 O   0  0  0  0  0  0  0  0  0  0  0  0
   14.5170   -8.6044  -10.5978 N   0  0  0  0  0  0  0  0  0  0  0  0
   14.9254   -9.4006  -11.7354 C   0  0  1  0  0  0  0  0  0  0  0  0
   13.7407   -9.9743  -12.4779 C   0  0  0  0  0  0  0  0  0  0  0  0
   14.1324  -10.8324  -13.6322 C   0  0  0  0  0  0  0  0  0  0  0  0
   14.3631  -12.2412  -13.1469 C   0  0  0  0  0  0  0  0  0  0  0  0
   14.8150  -13.1919  -14.2157 C   0  0  0  0  0  0  0  0  0  0  0  0
   15.0118  -14.5322  -13.6370 N   0  0  0  0  0  0  0  0  0  0  0  0
   15.7901   -8.5893  -12.6232 C   0  0  0  0  0  0  0  0  0  0  0  0
   15.4821   -7.3949  -12.8607 O   0  0  0  0  0  0  0  0  0  0  0  0
   16.9636   -9.0927  -13.2291 N   0  0  0  0  0  0  0  0  0  0  0  0
   17.6964   -8.3084  -14.2310 C   0  0  1  0  0  0  0  0  0  0  0  0
   19.0994   -8.8671  -14.3174 C   0  0  0  0  0  0  0  0  0  0  0  0
   20.0530   -8.0082  -15.5836 S   0  0  0  0  0  0  0  0  0  0  0  0
   17.0507   -8.3637  -15.5434 C   0  0  0  0  0  0  0  0  0  0  0  0
   16.5818   -9.4068  -16.0656 O   0  0  0  0  0  0  0  0  0  0  0  0
   16.9421   -7.1929  -16.2712 O   0  0  0  0  0  0  0  0  0  0  0  0
  2  1  1  0
  3  2  1  0
  4  3  2  0
  5  3  1  0
  6 12  1  0
  6  5  1  0
  6  7  1  6
  8  7  1  0
  9  8  1  0
 10  9  1  0
 11 10  1  0
 12 14  1  0
 13 12  2  0
 14 15  1  0
 15 16  1  6
 15 18  1  0
 17 16  1  0
 18 19  2  0
 18 20  1  0
M  END
$$$$
