GKC.pdb
     RDKit          3D

 20 19  0  0  1  0  0  0  0  0999 V2000
   20.3721  -20.1050  -12.8197 N   0  0  0  0  0  0  0  0  0  0  0  0
   20.8276  -19.8030  -14.1477 C   0  0  0  0  0  0  0  0  0  0  0  0
   22.2850  -19.4882  -14.1750 C   0  0  0  0  0  0  0  0  0  0  0  0
   22.8241  -19.0811  -13.1203 O   0  0  0  0  0  0  0  0  0  0  0  0
   23.0858  -19.6275  -15.3332 N   0  0  0  0  0  0  0  0  0  0  0  0
   24.5098  -19.3705  -15.3640 C   0  0  1  0  0  0  0  0  0  0  0  0
   25.2873  -20.5591  -15.8801 C   0  0  0  0  0  0  0  0  0  0  0  0
   26.7641  -20.3741  -15.7967 C   0  0  0  0  0  0  0  0  0  0  0  0
   27.4490  -21.5792  -16.3901 C   0  0  0  0  0  0  0  0  0  0  0  0
   28.9469  -21.4956  -16.3899 C   0  0  0  0  0  0  0  0  0  0  0  0
   29.5145  -22.7570  -16.8964 N   0  0  0  0  0  0  0  0  0  0  0  0
   24.7761  -18.1512  -16.1616 C   0  0  0  0  0  0  0  0  0  0  0  0
   24.1862  -17.9908  -17.2589 O   0  0  0  0  0  0  0  0  0  0  0  0
   25.6731  -17.1394  -15.7499 N   0  0  0  0  0  0  0  0  0  0  0  0
   25.8494  -15.9145  -16.5400 C   0  0  1  0  0  0  0  0  0  0  0  0
   26.2424  -14.8055  -15.5893 C   0  0  0  0  0  0  0  0  0  0  0  0
   24.9121  -14.4627  -14.4218 S   0  0  0  0  0  0  0  0  0  0  0  0
   26.8724  -16.0771  -17.5742 C   0  0  0  0  0  0  0  0  0  0  0  0
   27.5104  -17.1392  -17.7874 O   0  0  0  0  0  0  0  0  0  0  0  0
   27.1679  -14.9936  -18.3811 O   0  0  0  0  0  0  0  0  0  0  0  0
  2  1  1  0
  3  2  1  0
  4  3  2  0
  5  3  1  0
  6 12  1  0
  6  5  1  0
  6  7  1  6
  8  7  1  0
  9  8  1  0
 10  9  1  0
 11 10  1  0
 12 14  1  0
 13 12  2  0
 14 15  1  0
 15 16  1  1
 15 18  1  0
 17 16  1  0
 18 19  2  0
 18 20  1  0
M  END
$$$$
