GKC.pdb
     RDKit          3D

 20 19  0  0  1  0  0  0  0  0999 V2000
   26.6418  -21.1529  -10.5127 N   0  0  0  0  0  0  0  0  0  0  0  0
   25.2196  -21.3499  -10.4848 C   0  0  0  0  0  0  0  0  0  0  0  0
   24.5466  -20.6902  -11.6405 C   0  0  0  0  0  0  0  0  0  0  0  0
   24.8093  -19.4878  -11.8731 O   0  0  0  0  0  0  0  0  0  0  0  0
   23.6273  -21.3568  -12.4848 N   0  0  0  0  0  0  0  0  0  0  0  0
   23.1373  -20.8111  -13.7326 C   0  0  1  0  0  0  0  0  0  0  0  0
   23.4161  -21.7301  -14.8993 C   0  0  0  0  0  0  0  0  0  0  0  0
   24.8508  -21.7453  -15.3034 C   0  0  0  0  0  0  0  0  0  0  0  0
   25.3994  -23.1393  -15.1319 C   0  0  0  0  0  0  0  0  0  0  0  0
   24.7849  -24.1573  -16.0466 C   0  0  0  0  0  0  0  0  0  0  0  0
   25.5995  -25.3846  -16.0420 N   0  0  0  0  0  0  0  0  0  0  0  0
   21.6935  -20.5052  -13.6066 C   0  0  0  0  0  0  0  0  0  0  0  0
   20.9825  -21.1932  -12.8327 O   0  0  0  0  0  0  0  0  0  0  0  0
   21.0593  -19.4636  -14.3212 N   0  0  0  0  0  0  0  0  0  0  0  0
   19.6460  -19.1376  -14.0921 C   0  0  1  0  0  0  0  0  0  0  0  0
   19.5054  -17.6326  -14.1485 C   0  0  0  0  0  0  0  0  0  0  0  0
   17.8734  -17.1210  -13.5784 S   0  0  0  0  0  0  0  0  0  0  0  0
   18.7755  -19.7623  -15.0892 C   0  0  0  0  0  0  0  0  0  0  0  0
   19.0848  -19.9444  -16.2941 O   0  0  0  0  0  0  0  0  0  0  0  0
   17.5211  -20.1871  -14.6912 O   0  0  0  0  0  0  0  0  0  0  0  0
  2  1  1  0
  3  2  1  0
  4  3  2  0
  5  3  1  0
  6 12  1  0
  6  5  1  0
  6  7  1  6
  8  7  1  0
  9  8  1  0
 10  9  1  0
 11 10  1  0
 12 14  1  0
 13 12  2  0
 14 15  1  0
 15 16  1  6
 15 18  1  0
 17 16  1  0
 18 19  2  0
 18 20  1  0
M  END
$$$$
