GKC.pdb
     RDKit          3D

 20 19  0  0  1  0  0  0  0  0999 V2000
   26.1648  -16.5642  -15.7804 N   0  0  0  0  0  0  0  0  0  0  0  0
   24.9024  -16.0006  -15.3920 C   0  0  0  0  0  0  0  0  0  0  0  0
   24.6786  -14.6634  -16.0131 C   0  0  0  0  0  0  0  0  0  0  0  0
   25.6740  -14.0305  -16.4342 O   0  0  0  0  0  0  0  0  0  0  0  0
   23.3979  -14.0772  -16.1488 N   0  0  0  0  0  0  0  0  0  0  0  0
   23.1479  -12.8440  -16.8640 C   0  0  1  0  0  0  0  0  0  0  0  0
   21.7473  -12.7926  -17.4292 C   0  0  0  0  0  0  0  0  0  0  0  0
   21.6011  -13.5536  -18.7026 C   0  0  0  0  0  0  0  0  0  0  0  0
   20.5815  -14.6479  -18.5119 C   0  0  0  0  0  0  0  0  0  0  0  0
   20.2846  -15.4332  -19.7552 C   0  0  0  0  0  0  0  0  0  0  0  0
   19.4110  -16.5726  -19.4258 N   0  0  0  0  0  0  0  0  0  0  0  0
   23.4250  -11.6913  -15.9760 C   0  0  0  0  0  0  0  0  0  0  0  0
   22.8722  -11.6337  -14.8495 O   0  0  0  0  0  0  0  0  0  0  0  0
   24.2922  -10.6333  -16.3314 N   0  0  0  0  0  0  0  0  0  0  0  0
   24.5512   -9.5219  -15.4074 C   0  0  1  0  0  0  0  0  0  0  0  0
   26.0205   -9.1754  -15.5040 C   0  0  0  0  0  0  0  0  0  0  0  0
   27.0413  -10.5655  -14.9788 S   0  0  0  0  0  0  0  0  0  0  0  0
   23.7354   -8.3491  -15.7255 C   0  0  0  0  0  0  0  0  0  0  0  0
   23.0813   -8.2008  -16.7889 O   0  0  0  0  0  0  0  0  0  0  0  0
   23.6706   -7.3240  -14.7995 O   0  0  0  0  0  0  0  0  0  0  0  0
  2  1  1  0
  3  2  1  0
  4  3  2  0
  5  3  1  0
  6 12  1  0
  6  5  1  0
  6  7  1  1
  8  7  1  0
  9  8  1  0
 10  9  1  0
 11 10  1  0
 12 14  1  0
 13 12  2  0
 14 15  1  0
 15 16  1  6
 15 18  1  0
 17 16  1  0
 18 19  2  0
 18 20  1  0
M  END
$$$$
