GKC.pdb
     RDKit          3D

 20 19  0  0  1  0  0  0  0  0999 V2000
   16.8976  -24.8976   -6.5262 N   0  0  0  0  0  0  0  0  0  0  0  0
   17.8378  -24.8681   -5.4411 C   0  0  0  0  0  0  0  0  0  0  0  0
   17.4622  -25.8208   -4.3571 C   0  0  0  0  0  0  0  0  0  0  0  0
   16.2453  -26.0113   -4.1296 O   0  0  0  0  0  0  0  0  0  0  0  0
   18.4132  -26.5182   -3.5751 N   0  0  0  0  0  0  0  0  0  0  0  0
   18.0648  -27.4342   -2.5101 C   0  0  1  0  0  0  0  0  0  0  0  0
   19.2006  -28.3745   -2.1795 C   0  0  0  0  0  0  0  0  0  0  0  0
   18.7668  -29.7949   -2.0509 C   0  0  0  0  0  0  0  0  0  0  0  0
   19.9586  -30.6470   -1.6948 C   0  0  0  0  0  0  0  0  0  0  0  0
   19.6592  -32.1144   -1.6068 C   0  0  0  0  0  0  0  0  0  0  0  0
   20.8647  -32.8417   -1.1732 N   0  0  0  0  0  0  0  0  0  0  0  0
   17.6222  -26.6678   -1.3224 C   0  0  0  0  0  0  0  0  0  0  0  0
   18.3676  -25.7720   -0.8535 O   0  0  0  0  0  0  0  0  0  0  0  0
   16.3859  -26.8918   -0.6750 N   0  0  0  0  0  0  0  0  0  0  0  0
   16.0181  -26.1479    0.5362 C   0  0  1  0  0  0  0  0  0  0  0  0
   14.8959  -25.2010    0.1725 C   0  0  0  0  0  0  0  0  0  0  0  0
   15.5367  -23.7475   -0.6802 S   0  0  0  0  0  0  0  0  0  0  0  0
   15.5932  -27.0413    1.6149 C   0  0  0  0  0  0  0  0  0  0  0  0
   14.9491  -28.1079    1.4474 O   0  0  0  0  0  0  0  0  0  0  0  0
   15.9166  -26.7000    2.9155 O   0  0  0  0  0  0  0  0  0  0  0  0
  2  1  1  0
  3  2  1  0
  4  3  2  0
  5  3  1  0
  6 12  1  0
  6  5  1  0
  6  7  1  1
  8  7  1  0
  9  8  1  0
 10  9  1  0
 11 10  1  0
 12 14  1  0
 13 12  2  0
 14 15  1  0
 15 16  1  6
 15 18  1  0
 17 16  1  0
 18 19  2  0
 18 20  1  0
M  END
$$$$
