GKC.pdb
     RDKit          3D

 20 19  0  0  1  0  0  0  0  0999 V2000
   20.2951  -22.0388  -13.3629 N   0  0  0  0  0  0  0  0  0  0  0  0
   19.1156  -22.8575  -13.3880 C   0  0  0  0  0  0  0  0  0  0  0  0
   18.5462  -23.0502  -12.0233 C   0  0  0  0  0  0  0  0  0  0  0  0
   19.2591  -22.7571  -11.0360 O   0  0  0  0  0  0  0  0  0  0  0  0
   17.2419  -23.5473  -11.7915 N   0  0  0  0  0  0  0  0  0  0  0  0
   16.6593  -23.6983  -10.4752 C   0  0  1  0  0  0  0  0  0  0  0  0
   15.1667  -23.9260  -10.5407 C   0  0  0  0  0  0  0  0  0  0  0  0
   14.5173  -23.9437   -9.1991 C   0  0  0  0  0  0  0  0  0  0  0  0
   14.3596  -22.5276   -8.7059 C   0  0  0  0  0  0  0  0  0  0  0  0
   13.6929  -22.4151   -7.3667 C   0  0  0  0  0  0  0  0  0  0  0  0
   13.4222  -20.9990   -7.0644 N   0  0  0  0  0  0  0  0  0  0  0  0
   17.3503  -24.7892   -9.7497 C   0  0  0  0  0  0  0  0  0  0  0  0
   17.5337  -25.8918  -10.3229 O   0  0  0  0  0  0  0  0  0  0  0  0
   17.8237  -24.6569   -8.4245 N   0  0  0  0  0  0  0  0  0  0  0  0
   18.4479  -25.7873   -7.7255 C   0  0  1  0  0  0  0  0  0  0  0  0
   18.8920  -25.2989   -6.3645 C   0  0  0  0  0  0  0  0  0  0  0  0
   17.5086  -24.5777   -5.4610 S   0  0  0  0  0  0  0  0  0  0  0  0
   17.5242  -26.9133   -7.5796 C   0  0  0  0  0  0  0  0  0  0  0  0
   16.2719  -26.8098   -7.5411 O   0  0  0  0  0  0  0  0  0  0  0  0
   18.0532  -28.1868   -7.4755 O   0  0  0  0  0  0  0  0  0  0  0  0
  2  1  1  0
  3  2  1  0
  4  3  2  0
  5  3  1  0
  6 12  1  0
  6  5  1  0
  6  7  1  6
  8  7  1  0
  9  8  1  0
 10  9  1  0
 11 10  1  0
 12 14  1  0
 13 12  2  0
 14 15  1  0
 15 16  1  1
 15 18  1  0
 17 16  1  0
 18 19  2  0
 18 20  1  0
M  END
$$$$
