GKC.pdb
     RDKit          3D

 20 19  0  0  1  0  0  0  0  0999 V2000
   28.0107  -10.9229  -16.6044 N   0  0  0  0  0  0  0  0  0  0  0  0
   26.9553  -11.0342  -15.6370 C   0  0  0  0  0  0  0  0  0  0  0  0
   25.7442  -10.2673  -16.0482 C   0  0  0  0  0  0  0  0  0  0  0  0
   25.8784   -9.3567  -16.8977 O   0  0  0  0  0  0  0  0  0  0  0  0
   24.4537  -10.5192  -15.5255 N   0  0  0  0  0  0  0  0  0  0  0  0
   23.2470   -9.8923  -16.0212 C   0  0  1  0  0  0  0  0  0  0  0  0
   22.0390  -10.7860  -15.8606 C   0  0  0  0  0  0  0  0  0  0  0  0
   20.8045  -10.2181  -16.4734 C   0  0  0  0  0  0  0  0  0  0  0  0
   19.6617  -11.1801  -16.2687 C   0  0  0  0  0  0  0  0  0  0  0  0
   18.3886  -10.7745  -16.9508 C   0  0  0  0  0  0  0  0  0  0  0  0
   17.3386  -11.7701  -16.6748 N   0  0  0  0  0  0  0  0  0  0  0  0
   23.0566   -8.5851  -15.3512 C   0  0  0  0  0  0  0  0  0  0  0  0
   22.9925   -8.5381  -14.0975 O   0  0  0  0  0  0  0  0  0  0  0  0
   22.9408   -7.3653  -16.0559 N   0  0  0  0  0  0  0  0  0  0  0  0
   22.8221   -6.0865  -15.3444 C   0  0  1  0  0  0  0  0  0  0  0  0
   23.4897   -5.0249  -16.1902 C   0  0  0  0  0  0  0  0  0  0  0  0
   25.2668   -5.3111  -16.2905 S   0  0  0  0  0  0  0  0  0  0  0  0
   21.4242   -5.7289  -15.0985 C   0  0  0  0  0  0  0  0  0  0  0  0
   21.0466   -4.8098  -14.3283 O   0  0  0  0  0  0  0  0  0  0  0  0
   20.4387   -6.4447  -15.7534 O   0  0  0  0  0  0  0  0  0  0  0  0
  2  1  1  0
  3  2  1  0
  4  3  2  0
  5  3  1  0
  6 12  1  0
  6  5  1  0
  6  7  1  1
  8  7  1  0
  9  8  1  0
 10  9  1  0
 11 10  1  0
 12 14  1  0
 13 12  2  0
 14 15  1  0
 15 16  1  6
 15 18  1  0
 17 16  1  0
 18 19  2  0
 18 20  1  0
M  END
$$$$
