SAY.pdb
     RDKit          3D

 24 24  0  0  1  0  0  0  0  0999 V2000
   28.4391  -21.2698  -12.2187 O   0  0  0  0  0  0  0  0  0  0  0  0
   28.7706  -21.3332  -13.5762 C   0  0  0  0  0  0  0  0  0  0  0  0
   28.6332  -19.9641  -14.2296 C   0  0  2  0  0  0  0  0  0  0  0  0
   29.2736  -18.9501  -13.4189 N   0  0  0  0  0  0  0  0  0  0  0  0
   27.1969  -19.6657  -14.3214 C   0  0  0  0  0  0  0  0  0  0  0  0
   26.6725  -18.8988  -13.4785 O   0  0  0  0  0  0  0  0  0  0  0  0
   24.4765  -20.0856  -16.8344 C   0  0  0  0  0  0  0  0  0  0  0  0
   24.9703  -19.7906  -15.4485 C   0  0  2  0  0  0  0  0  0  0  0  0
   26.3502  -20.2097  -15.3346 N   0  0  0  0  0  0  0  0  0  0  0  0
   24.1845  -20.3766  -14.3798 C   0  0  0  0  0  0  0  0  0  0  0  0
   24.5142  -21.5150  -13.9387 O   0  0  0  0  0  0  0  0  0  0  0  0
   26.7687  -20.3097   -8.1078 O   0  0  0  0  0  0  0  0  0  0  0  0
   25.6754  -20.0784   -8.9622 C   0  0  0  0  0  0  0  0  0  0  0  0
   25.5198  -18.9107   -9.6476 C   0  0  0  0  0  0  0  0  0  0  0  0
   24.4367  -18.6879  -10.4907 C   0  0  0  0  0  0  0  0  0  0  0  0
   23.5073  -19.6942  -10.6193 C   0  0  0  0  0  0  0  0  0  0  0  0
   22.3525  -19.4776  -11.5089 C   0  0  0  0  0  0  0  0  0  0  0  0
   22.3832  -20.4415  -12.6788 C   0  0  2  0  0  0  0  0  0  0  0  0
   23.0527  -19.7762  -13.7687 N   0  0  0  0  0  0  0  0  0  0  0  0
   21.0322  -20.8419  -13.1095 C   0  0  0  0  0  0  0  0  0  0  0  0
   20.2399  -21.6778  -12.3451 O   0  0  0  0  0  0  0  0  0  0  0  0
   23.6350  -20.9016   -9.9329 C   0  0  0  0  0  0  0  0  0  0  0  0
   24.7243  -21.0595   -9.1178 C   0  0  0  0  0  0  0  0  0  0  0  0
   20.5819  -20.4186  -14.1952 O   0  0  0  0  0  0  0  0  0  0  0  0
  2  3  1  0
  2  1  1  0
  3  4  1  1
  5  9  1  0
  5  3  1  0
  6  5  2  0
  8  7  1  6
  8 10  1  0
  8  9  1  0
 10 19  1  0
 11 10  2  0
 13 12  1  0
 14 13  2  0
 15 14  1  0
 16 22  1  0
 16 15  2  0
 17 16  1  0
 18 17  1  1
 19 18  1  0
 20 21  1  0
 20 18  1  0
 22 23  2  0
 23 13  1  0
 24 20  2  0
M  END
$$$$
