SAY.pdb
     RDKit          3D

 24 24  0  0  1  0  0  0  0  0999 V2000
   26.0603  -19.3594  -20.3382 O   0  0  0  0  0  0  0  0  0  0  0  0
   25.5469  -19.4401  -19.0395 C   0  0  0  0  0  0  0  0  0  0  0  0
   25.7534  -18.1272  -18.2952 C   0  0  2  0  0  0  0  0  0  0  0  0
   27.1157  -18.0261  -17.8163 N   0  0  0  0  0  0  0  0  0  0  0  0
   24.8409  -18.1297  -17.1429 C   0  0  0  0  0  0  0  0  0  0  0  0
   25.2897  -18.3986  -16.0029 O   0  0  0  0  0  0  0  0  0  0  0  0
   21.3122  -17.1807  -16.3642 C   0  0  0  0  0  0  0  0  0  0  0  0
   22.5791  -17.9395  -16.0980 C   0  0  2  0  0  0  0  0  0  0  0  0
   23.4471  -17.8379  -17.2508 N   0  0  0  0  0  0  0  0  0  0  0  0
   22.3955  -19.3320  -15.7371 C   0  0  0  0  0  0  0  0  0  0  0  0
   22.3663  -20.1984  -16.6578 O   0  0  0  0  0  0  0  0  0  0  0  0
   27.8177  -22.3172  -16.5635 O   0  0  0  0  0  0  0  0  0  0  0  0
   26.6786  -22.1478  -15.7558 C   0  0  0  0  0  0  0  0  0  0  0  0
   26.5031  -21.0534  -14.9627 C   0  0  0  0  0  0  0  0  0  0  0  0
   25.3747  -20.8917  -14.1664 C   0  0  0  0  0  0  0  0  0  0  0  0
   24.4204  -21.8824  -14.1987 C   0  0  0  0  0  0  0  0  0  0  0  0
   23.2167  -21.7290  -13.3624 C   0  0  0  0  0  0  0  0  0  0  0  0
   22.0449  -21.2341  -14.1874 C   0  0  2  0  0  0  0  0  0  0  0  0
   22.2419  -19.8240  -14.4144 N   0  0  0  0  0  0  0  0  0  0  0  0
   20.7544  -21.4416  -13.5071 C   0  0  0  0  0  0  0  0  0  0  0  0
   20.2156  -22.7024  -13.3325 O   0  0  0  0  0  0  0  0  0  0  0  0
   24.5674  -23.0155  -14.9985 C   0  0  0  0  0  0  0  0  0  0  0  0
   25.7016  -23.1158  -15.7599 C   0  0  0  0  0  0  0  0  0  0  0  0
   20.1223  -20.4554  -13.0729 O   0  0  0  0  0  0  0  0  0  0  0  0
  2  3  1  0
  2  1  1  0
  3  4  1  1
  5  9  1  0
  5  3  1  0
  6  5  2  0
  8  7  1  6
  8 10  1  0
  8  9  1  0
 10 19  1  0
 11 10  2  0
 13 12  1  0
 14 13  2  0
 15 14  1  0
 16 22  1  0
 16 15  2  0
 17 16  1  0
 18 17  1  1
 19 18  1  0
 20 21  1  0
 20 18  1  0
 22 23  2  0
 23 13  1  0
 24 20  2  0
M  END
$$$$
