SAY.pdb
     RDKit          3D

 24 24  0  0  1  0  0  0  0  0999 V2000
   20.1303  -14.4707  -16.4209 O   0  0  0  0  0  0  0  0  0  0  0  0
   20.8370  -13.2873  -16.6597 C   0  0  0  0  0  0  0  0  0  0  0  0
   20.7593  -12.9000  -18.1308 C   0  0  2  0  0  0  0  0  0  0  0  0
   21.9455  -13.3412  -18.8334 N   0  0  0  0  0  0  0  0  0  0  0  0
   20.6848  -11.4334  -18.1933 C   0  0  0  0  0  0  0  0  0  0  0  0
   21.7025  -10.7531  -17.9191 O   0  0  0  0  0  0  0  0  0  0  0  0
   18.2839   -8.8138  -19.3566 C   0  0  0  0  0  0  0  0  0  0  0  0
   19.4729   -9.2808  -18.5692 C   0  0  2  0  0  0  0  0  0  0  0  0
   19.4976  -10.7271  -18.5552 N   0  0  0  0  0  0  0  0  0  0  0  0
   19.5496   -8.7707  -17.2139 C   0  0  0  0  0  0  0  0  0  0  0  0
   18.8983   -9.3622  -16.3055 O   0  0  0  0  0  0  0  0  0  0  0  0
   24.1325  -12.1553  -14.6535 O   0  0  0  0  0  0  0  0  0  0  0  0
   23.5066  -10.8966  -14.7056 C   0  0  0  0  0  0  0  0  0  0  0  0
   22.4980  -10.5480  -13.8578 C   0  0  0  0  0  0  0  0  0  0  0  0
   21.8831   -9.3021  -13.9143 C   0  0  0  0  0  0  0  0  0  0  0  0
   22.3258   -8.4117  -14.8653 C   0  0  0  0  0  0  0  0  0  0  0  0
   21.6874   -7.0856  -14.9406 C   0  0  0  0  0  0  0  0  0  0  0  0
   20.2575   -7.2012  -15.4311 C   0  0  2  0  0  0  0  0  0  0  0  0
   20.3062   -7.6420  -16.8030 N   0  0  0  0  0  0  0  0  0  0  0  0
   19.5353   -5.9190  -15.3575 C   0  0  0  0  0  0  0  0  0  0  0  0
   19.0603   -5.2826  -16.4889 O   0  0  0  0  0  0  0  0  0  0  0  0
   23.3554   -8.7351  -15.7488 C   0  0  0  0  0  0  0  0  0  0  0  0
   23.9202   -9.9783  -15.6421 C   0  0  0  0  0  0  0  0  0  0  0  0
   19.3425   -5.3846  -14.2450 O   0  0  0  0  0  0  0  0  0  0  0  0
  2  3  1  0
  2  1  1  0
  3  4  1  6
  5  9  1  0
  5  3  1  0
  6  5  2  0
  8  7  1  1
  8 10  1  0
  8  9  1  0
 10 19  1  0
 11 10  2  0
 13 12  1  0
 14 13  2  0
 15 14  1  0
 16 22  1  0
 16 15  2  0
 17 16  1  0
 18 17  1  6
 19 18  1  0
 20 21  1  0
 20 18  1  0
 22 23  2  0
 23 13  1  0
 24 20  2  0
M  END
$$$$
