SAY.pdb
     RDKit          3D

 24 24  0  0  1  0  0  0  0  0999 V2000
   17.8017  -14.1753  -15.2704 O   0  0  0  0  0  0  0  0  0  0  0  0
   18.5458  -12.9948  -15.3686 C   0  0  0  0  0  0  0  0  0  0  0  0
   19.0561  -12.7954  -16.7899 C   0  0  2  0  0  0  0  0  0  0  0  0
   20.1563  -13.6955  -17.0633 N   0  0  0  0  0  0  0  0  0  0  0  0
   19.5359  -11.4098  -16.8917 C   0  0  0  0  0  0  0  0  0  0  0  0
   20.6506  -11.1069  -16.4025 O   0  0  0  0  0  0  0  0  0  0  0  0
   18.4865   -8.2277  -18.5719 C   0  0  0  0  0  0  0  0  0  0  0  0
   19.3211   -9.0278  -17.6154 C   0  0  2  0  0  0  0  0  0  0  0  0
   18.7907  -10.3708  -17.5276 N   0  0  0  0  0  0  0  0  0  0  0  0
   19.4489   -8.4578  -16.2881 C   0  0  0  0  0  0  0  0  0  0  0  0
   18.6627   -8.8531  -15.3800 O   0  0  0  0  0  0  0  0  0  0  0  0
   25.8155   -4.7067  -16.9465 O   0  0  0  0  0  0  0  0  0  0  0  0
   24.8069   -5.3552  -16.2111 C   0  0  0  0  0  0  0  0  0  0  0  0
   24.5857   -6.6969  -16.3026 C   0  0  0  0  0  0  0  0  0  0  0  0
   23.5869   -7.3323  -15.5730 C   0  0  0  0  0  0  0  0  0  0  0  0
   22.8118   -6.5589  -14.7397 C   0  0  0  0  0  0  0  0  0  0  0  0
   21.7484   -7.2139  -13.9573 C   0  0  0  0  0  0  0  0  0  0  0  0
   20.3859   -6.9432  -14.5645 C   0  0  2  0  0  0  0  0  0  0  0  0
   20.3976   -7.4737  -15.9051 N   0  0  0  0  0  0  0  0  0  0  0  0
   20.0708   -5.5047  -14.6133 C   0  0  0  0  0  0  0  0  0  0  0  0
   19.8654   -4.7628  -13.4652 O   0  0  0  0  0  0  0  0  0  0  0  0
   23.0104   -5.1834  -14.6217 C   0  0  0  0  0  0  0  0  0  0  0  0
   24.0104   -4.6173  -15.3670 C   0  0  0  0  0  0  0  0  0  0  0  0
   19.9846   -4.9310  -15.7197 O   0  0  0  0  0  0  0  0  0  0  0  0
  2  3  1  0
  2  1  1  0
  3  4  1  1
  5  9  1  0
  5  3  1  0
  6  5  2  0
  8  7  1  6
  8 10  1  0
  8  9  1  0
 10 19  1  0
 11 10  2  0
 13 12  1  0
 14 13  2  0
 15 14  1  0
 16 22  1  0
 16 15  2  0
 17 16  1  0
 18 17  1  6
 19 18  1  0
 20 21  1  0
 20 18  1  0
 22 23  2  0
 23 13  1  0
 24 20  2  0
M  END
$$$$
