SAY.pdb
     RDKit          3D

 24 24  0  0  1  0  0  0  0  0999 V2000
   33.2729  -34.1285  -22.9971 O   0  0  0  0  0  0  0  0  0  0  0  0
   34.4496  -33.5940  -23.5323 C   0  0  0  0  0  0  0  0  0  0  0  0
   35.6598  -34.0286  -22.7157 C   0  0  2  0  0  0  0  0  0  0  0  0
   35.6507  -35.4632  -22.5221 N   0  0  0  0  0  0  0  0  0  0  0  0
   35.5629  -33.3692  -21.4057 C   0  0  0  0  0  0  0  0  0  0  0  0
   35.0399  -33.9829  -20.4448 O   0  0  0  0  0  0  0  0  0  0  0  0
   36.6836  -30.1605  -19.8168 C   0  0  0  0  0  0  0  0  0  0  0  0
   35.8947  -31.4363  -19.8573 C   0  0  2  0  0  0  0  0  0  0  0  0
   36.0394  -32.0453  -21.1614 N   0  0  0  0  0  0  0  0  0  0  0  0
   34.4892  -31.2990  -19.5276 C   0  0  0  0  0  0  0  0  0  0  0  0
   33.6759  -31.0042  -20.4500 O   0  0  0  0  0  0  0  0  0  0  0  0
   26.4242  -31.7452  -16.3988 O   0  0  0  0  0  0  0  0  0  0  0  0
   27.8001  -31.9207  -16.6330 C   0  0  0  0  0  0  0  0  0  0  0  0
   28.7297  -31.7980  -15.6438 C   0  0  0  0  0  0  0  0  0  0  0  0
   30.0885  -31.9727  -15.8815 C   0  0  0  0  0  0  0  0  0  0  0  0
   30.4803  -32.2785  -17.1646 C   0  0  0  0  0  0  0  0  0  0  0  0
   31.9162  -32.4683  -17.4366 C   0  0  0  0  0  0  0  0  0  0  0  0
   32.5281  -31.2075  -18.0150 C   0  0  2  0  0  0  0  0  0  0  0  0
   33.9289  -31.4690  -18.2345 N   0  0  0  0  0  0  0  0  0  0  0  0
   32.3845  -30.0512  -17.1130 C   0  0  0  0  0  0  0  0  0  0  0  0
   31.2816  -29.2194  -17.1622 O   0  0  0  0  0  0  0  0  0  0  0  0
   29.5563  -32.4116  -18.2008 C   0  0  0  0  0  0  0  0  0  0  0  0
   28.2323  -32.2272  -17.9020 C   0  0  0  0  0  0  0  0  0  0  0  0
   33.2804  -29.8082  -16.2771 O   0  0  0  0  0  0  0  0  0  0  0  0
  2  3  1  0
  2  1  1  0
  3  4  1  1
  5  9  1  0
  5  3  1  0
  6  5  2  0
  8  7  1  6
  8 10  1  0
  8  9  1  0
 10 19  1  0
 11 10  2  0
 13 12  1  0
 14 13  2  0
 15 14  1  0
 16 22  1  0
 16 15  2  0
 17 16  1  0
 18 17  1  1
 19 18  1  0
 20 21  1  0
 20 18  1  0
 22 23  2  0
 23 13  1  0
 24 20  2  0
M  END
$$$$
