SAY.pdb
     RDKit          3D

 24 24  0  0  1  0  0  0  0  0999 V2000
   18.8128  -13.2929  -16.7817 O   0  0  0  0  0  0  0  0  0  0  0  0
   18.6863  -11.8998  -16.7790 C   0  0  0  0  0  0  0  0  0  0  0  0
   17.6274  -11.4561  -15.7779 C   0  0  2  0  0  0  0  0  0  0  0  0
   16.3017  -11.7440  -16.2828 N   0  0  0  0  0  0  0  0  0  0  0  0
   17.7686  -10.0030  -15.6075 C   0  0  0  0  0  0  0  0  0  0  0  0
   17.6770   -9.2540  -16.6095 O   0  0  0  0  0  0  0  0  0  0  0  0
   17.0130   -7.5059  -13.2232 C   0  0  0  0  0  0  0  0  0  0  0  0
   18.0469   -7.9447  -14.2184 C   0  0  2  0  0  0  0  0  0  0  0  0
   18.0084   -9.3855  -14.3424 N   0  0  0  0  0  0  0  0  0  0  0  0
   19.3994   -7.5081  -13.9304 C   0  0  0  0  0  0  0  0  0  0  0  0
   20.1234   -8.2283  -13.1845 O   0  0  0  0  0  0  0  0  0  0  0  0
   22.4541  -11.1830  -17.5887 O   0  0  0  0  0  0  0  0  0  0  0  0
   22.3611   -9.8848  -17.0553 C   0  0  0  0  0  0  0  0  0  0  0  0
   21.4590   -8.9713  -17.5128 C   0  0  0  0  0  0  0  0  0  0  0  0
   21.3718   -7.6893  -16.9814 C   0  0  0  0  0  0  0  0  0  0  0  0
   22.2350   -7.3581  -15.9624 C   0  0  0  0  0  0  0  0  0  0  0  0
   22.1577   -6.0043  -15.3852 C   0  0  0  0  0  0  0  0  0  0  0  0
   21.3698   -6.0131  -14.0900 C   0  0  2  0  0  0  0  0  0  0  0  0
   20.0000   -6.3187  -14.4202 N   0  0  0  0  0  0  0  0  0  0  0  0
   21.4245   -4.7161  -13.3929 C   0  0  0  0  0  0  0  0  0  0  0  0
   22.5892   -4.2458  -12.8160 O   0  0  0  0  0  0  0  0  0  0  0  0
   23.1705   -8.2678  -15.4699 C   0  0  0  0  0  0  0  0  0  0  0  0
   23.2064   -9.5147  -16.0355 C   0  0  0  0  0  0  0  0  0  0  0  0
   20.3934   -4.0150  -13.3162 O   0  0  0  0  0  0  0  0  0  0  0  0
  2  3  1  0
  2  1  1  0
  3  4  1  6
  5  9  1  0
  5  3  1  0
  6  5  2  0
  8  7  1  1
  8 10  1  0
  8  9  1  0
 10 19  1  0
 11 10  2  0
 13 12  1  0
 14 13  2  0
 15 14  1  0
 16 22  1  0
 16 15  2  0
 17 16  1  0
 18 17  1  6
 19 18  1  0
 20 21  1  0
 20 18  1  0
 22 23  2  0
 23 13  1  0
 24 20  2  0
M  END
$$$$
