SAY.pdb
     RDKit          3D

 24 24  0  0  1  0  0  0  0  0999 V2000
   18.3322  -22.7324    3.2781 O   0  0  0  0  0  0  0  0  0  0  0  0
   18.0120  -21.4628    3.7704 C   0  0  0  0  0  0  0  0  0  0  0  0
   16.5049  -21.2421    3.7540 C   0  0  2  0  0  0  0  0  0  0  0  0
   16.0277  -21.1108    2.3936 N   0  0  0  0  0  0  0  0  0  0  0  0
   16.2386  -19.9901    4.4765 C   0  0  0  0  0  0  0  0  0  0  0  0
   16.4389  -18.8932    3.9019 O   0  0  0  0  0  0  0  0  0  0  0  0
   14.6981  -18.9708    7.7419 C   0  0  0  0  0  0  0  0  0  0  0  0
   15.3904  -18.6968    6.4391 C   0  0  2  0  0  0  0  0  0  0  0  0
   15.7559  -19.9521    5.8199 N   0  0  0  0  0  0  0  0  0  0  0  0
   16.5518  -17.8332    6.5315 C   0  0  0  0  0  0  0  0  0  0  0  0
   17.6967  -18.3634    6.6165 O   0  0  0  0  0  0  0  0  0  0  0  0
   21.9208  -10.9121    6.4987 O   0  0  0  0  0  0  0  0  0  0  0  0
   20.9032  -11.8505    6.2482 C   0  0  0  0  0  0  0  0  0  0  0  0
   19.7364  -11.5134    5.6297 C   0  0  0  0  0  0  0  0  0  0  0  0
   18.7342  -12.4457    5.3848 C   0  0  0  0  0  0  0  0  0  0  0  0
   18.9526  -13.7424    5.7898 C   0  0  0  0  0  0  0  0  0  0  0  0
   17.9027  -14.7455    5.5385 C   0  0  0  0  0  0  0  0  0  0  0  0
   17.7385  -15.6666    6.7315 C   0  0  2  0  0  0  0  0  0  0  0  0
   16.5212  -16.4140    6.5355 N   0  0  0  0  0  0  0  0  0  0  0  0
   17.6554  -14.9263    8.0028 C   0  0  0  0  0  0  0  0  0  0  0  0
   18.7633  -14.7257    8.8047 O   0  0  0  0  0  0  0  0  0  0  0  0
   20.1346  -14.1223    6.4254 C   0  0  0  0  0  0  0  0  0  0  0  0
   21.0830  -13.1571    6.6377 C   0  0  0  0  0  0  0  0  0  0  0  0
   16.5562  -14.4633    8.3743 O   0  0  0  0  0  0  0  0  0  0  0  0
  2  3  1  0
  2  1  1  0
  3  4  1  6
  5  9  1  0
  5  3  1  0
  6  5  2  0
  8  7  1  1
  8 10  1  0
  8  9  1  0
 10 19  1  0
 11 10  2  0
 13 12  1  0
 14 13  2  0
 15 14  1  0
 16 22  1  0
 16 15  2  0
 17 16  1  0
 18 17  1  6
 19 18  1  0
 20 21  1  0
 20 18  1  0
 22 23  2  0
 23 13  1  0
 24 20  2  0
M  END
$$$$
