SAY.pdb
     RDKit          3D

 24 24  0  0  1  0  0  0  0  0999 V2000
   26.9666  -18.3489  -15.1387 O   0  0  0  0  0  0  0  0  0  0  0  0
   27.9331  -18.7687  -14.2186 C   0  0  0  0  0  0  0  0  0  0  0  0
   28.0909  -20.2833  -14.2552 C   0  0  2  0  0  0  0  0  0  0  0  0
   28.2377  -20.7437  -15.6197 N   0  0  0  0  0  0  0  0  0  0  0  0
   26.8676  -20.8642  -13.6839 C   0  0  0  0  0  0  0  0  0  0  0  0
   26.0577  -21.4566  -14.4368 O   0  0  0  0  0  0  0  0  0  0  0  0
   25.3835  -21.4714  -10.3035 C   0  0  0  0  0  0  0  0  0  0  0  0
   25.3006  -21.3366  -11.7957 C   0  0  2  0  0  0  0  0  0  0  0  0
   26.5437  -20.7905  -12.2950 N   0  0  0  0  0  0  0  0  0  0  0  0
   24.1835  -20.5483  -12.2791 C   0  0  0  0  0  0  0  0  0  0  0  0
   24.3473  -19.3063  -12.4517 O   0  0  0  0  0  0  0  0  0  0  0  0
   22.1160  -23.4832  -18.3527 O   0  0  0  0  0  0  0  0  0  0  0  0
   22.1153  -22.5036  -17.3431 C   0  0  0  0  0  0  0  0  0  0  0  0
   20.9648  -22.0351  -16.7824 C   0  0  0  0  0  0  0  0  0  0  0  0
   20.9705  -21.0665  -15.7847 C   0  0  0  0  0  0  0  0  0  0  0  0
   22.1895  -20.5826  -15.3686 C   0  0  0  0  0  0  0  0  0  0  0  0
   22.2167  -19.5562  -14.3115 C   0  0  0  0  0  0  0  0  0  0  0  0
   21.8366  -20.1517  -12.9700 C   0  0  2  0  0  0  0  0  0  0  0  0
   22.8926  -21.0542  -12.5837 N   0  0  0  0  0  0  0  0  0  0  0  0
   20.5624  -20.8895  -13.0262 C   0  0  0  0  0  0  0  0  0  0  0  0
   19.3616  -20.2543  -13.2814 O   0  0  0  0  0  0  0  0  0  0  0  0
   23.3862  -21.0394  -15.9204 C   0  0  0  0  0  0  0  0  0  0  0  0
   23.3133  -21.9944  -16.8996 C   0  0  0  0  0  0  0  0  0  0  0  0
   20.5580  -22.1246  -12.8388 O   0  0  0  0  0  0  0  0  0  0  0  0
  2  3  1  0
  2  1  1  0
  3  4  1  6
  5  9  1  0
  5  3  1  0
  6  5  2  0
  8  7  1  1
  8 10  1  0
  8  9  1  0
 10 19  1  0
 11 10  2  0
 13 12  1  0
 14 13  2  0
 15 14  1  0
 16 22  1  0
 16 15  2  0
 17 16  1  0
 18 17  1  6
 19 18  1  0
 20 21  1  0
 20 18  1  0
 22 23  2  0
 23 13  1  0
 24 20  2  0
M  END
$$$$
