SAY.pdb
     RDKit          3D

 24 24  0  0  1  0  0  0  0  0999 V2000
   17.5934  -10.0833  -17.4112 O   0  0  0  0  0  0  0  0  0  0  0  0
   18.6240   -9.8493  -18.3277 C   0  0  0  0  0  0  0  0  0  0  0  0
   19.8191  -10.7477  -18.0367 C   0  0  2  0  0  0  0  0  0  0  0  0
   19.5587  -11.5769  -16.8790 N   0  0  0  0  0  0  0  0  0  0  0  0
   20.9643   -9.8723  -17.7494 C   0  0  0  0  0  0  0  0  0  0  0  0
   21.2725   -9.6333  -16.5572 O   0  0  0  0  0  0  0  0  0  0  0  0
   23.7276   -8.2026  -19.6467 C   0  0  0  0  0  0  0  0  0  0  0  0
   22.8779   -8.4159  -18.4284 C   0  0  2  0  0  0  0  0  0  0  0  0
   21.7598   -9.2679  -18.7698 N   0  0  0  0  0  0  0  0  0  0  0  0
   22.4005   -7.2026  -17.7936 C   0  0  0  0  0  0  0  0  0  0  0  0
   21.2500   -6.7727  -18.0948 O   0  0  0  0  0  0  0  0  0  0  0  0
   18.8378   -8.7487  -12.5561 O   0  0  0  0  0  0  0  0  0  0  0  0
   19.8166   -7.9065  -13.1142 C   0  0  0  0  0  0  0  0  0  0  0  0
   21.0744   -8.3432  -13.4055 C   0  0  0  0  0  0  0  0  0  0  0  0
   22.0376   -7.5057  -13.9571 C   0  0  0  0  0  0  0  0  0  0  0  0
   21.6839   -6.1997  -14.2070 C   0  0  0  0  0  0  0  0  0  0  0  0
   22.6907   -5.2966  -14.7923 C   0  0  0  0  0  0  0  0  0  0  0  0
   22.5456   -5.2300  -16.3000 C   0  0  2  0  0  0  0  0  0  0  0  0
   23.1227   -6.4347  -16.8427 N   0  0  0  0  0  0  0  0  0  0  0  0
   23.2304   -4.0599  -16.8770 C   0  0  0  0  0  0  0  0  0  0  0  0
   22.8354   -2.7671  -16.5884 O   0  0  0  0  0  0  0  0  0  0  0  0
   20.4061   -5.7192  -13.9214 C   0  0  0  0  0  0  0  0  0  0  0  0
   19.5025   -6.5940  -13.3789 C   0  0  0  0  0  0  0  0  0  0  0  0
   24.1964   -4.2318  -17.6501 O   0  0  0  0  0  0  0  0  0  0  0  0
  2  3  1  0
  2  1  1  0
  3  4  1  1
  5  9  1  0
  5  3  1  0
  6  5  2  0
  8  7  1  6
  8 10  1  0
  8  9  1  0
 10 19  1  0
 11 10  2  0
 13 12  1  0
 14 13  2  0
 15 14  1  0
 16 22  1  0
 16 15  2  0
 17 16  1  0
 18 17  1  1
 19 18  1  0
 20 21  1  0
 20 18  1  0
 22 23  2  0
 23 13  1  0
 24 20  2  0
M  END
$$$$
