SAY.pdb
     RDKit          3D

 24 24  0  0  1  0  0  0  0  0999 V2000
   22.5010  -14.2552  -15.4716 O   0  0  0  0  0  0  0  0  0  0  0  0
   22.6553  -15.6375  -15.6203 C   0  0  0  0  0  0  0  0  0  0  0  0
   23.4001  -15.9618  -16.9088 C   0  0  2  0  0  0  0  0  0  0  0  0
   22.4693  -16.1104  -18.0075 N   0  0  0  0  0  0  0  0  0  0  0  0
   24.1002  -17.2372  -16.6999 C   0  0  0  0  0  0  0  0  0  0  0  0
   23.4449  -18.3069  -16.7036 O   0  0  0  0  0  0  0  0  0  0  0  0
   27.4045  -18.6376  -17.1759 C   0  0  0  0  0  0  0  0  0  0  0  0
   26.1542  -18.6155  -16.3464 C   0  0  2  0  0  0  0  0  0  0  0  0
   25.5097  -17.3283  -16.4893 N   0  0  0  0  0  0  0  0  0  0  0  0
   26.3449  -18.9209  -14.9416 C   0  0  0  0  0  0  0  0  0  0  0  0
   26.6432  -17.9798  -14.1514 O   0  0  0  0  0  0  0  0  0  0  0  0
   26.1231  -20.1866   -6.6288 O   0  0  0  0  0  0  0  0  0  0  0  0
   25.9712  -20.0115   -8.0163 C   0  0  0  0  0  0  0  0  0  0  0  0
   26.5221  -18.9581   -8.6830 C   0  0  0  0  0  0  0  0  0  0  0  0
   26.3684  -18.7903  -10.0547 C   0  0  0  0  0  0  0  0  0  0  0  0
   25.6324  -19.7317  -10.7368 C   0  0  0  0  0  0  0  0  0  0  0  0
   25.4588  -19.5721  -12.1915 C   0  0  0  0  0  0  0  0  0  0  0  0
   26.4836  -20.3913  -12.9513 C   0  0  2  0  0  0  0  0  0  0  0  0
   26.2246  -20.2093  -14.3579 N   0  0  0  0  0  0  0  0  0  0  0  0
   26.4070  -21.8259  -12.6242 C   0  0  0  0  0  0  0  0  0  0  0  0
   27.2490  -22.4091  -11.6959 O   0  0  0  0  0  0  0  0  0  0  0  0
   25.0546  -20.8220  -10.0865 C   0  0  0  0  0  0  0  0  0  0  0  0
   25.2426  -20.9307   -8.7342 C   0  0  0  0  0  0  0  0  0  0  0  0
   25.5601  -22.5433  -13.1976 O   0  0  0  0  0  0  0  0  0  0  0  0
  2  3  1  0
  2  1  1  0
  3  4  1  6
  5  9  1  0
  5  3  1  0
  6  5  2  0
  8  7  1  6
  8 10  1  0
  8  9  1  0
 10 19  1  0
 11 10  2  0
 13 12  1  0
 14 13  2  0
 15 14  1  0
 16 22  1  0
 16 15  2  0
 17 16  1  0
 18 17  1  1
 19 18  1  0
 20 21  1  0
 20 18  1  0
 22 23  2  0
 23 13  1  0
 24 20  2  0
M  END
$$$$
