SAY.pdb
     RDKit          3D

 24 24  0  0  1  0  0  0  0  0999 V2000
   17.8858  -12.5265  -19.9863 O   0  0  0  0  0  0  0  0  0  0  0  0
   18.8405  -11.7577  -19.3124 C   0  0  0  0  0  0  0  0  0  0  0  0
   20.1322  -12.5433  -19.1261 C   0  0  2  0  0  0  0  0  0  0  0  0
   19.9487  -13.5936  -18.1469 N   0  0  0  0  0  0  0  0  0  0  0  0
   21.1486  -11.6029  -18.6331 C   0  0  0  0  0  0  0  0  0  0  0  0
   21.1838  -11.3191  -17.4118 O   0  0  0  0  0  0  0  0  0  0  0  0
   24.1997   -9.8950  -19.9793 C   0  0  0  0  0  0  0  0  0  0  0  0
   23.1594  -10.1492  -18.9281 C   0  0  2  0  0  0  0  0  0  0  0  0
   22.1154  -10.9833  -19.4821 N   0  0  0  0  0  0  0  0  0  0  0  0
   22.5808   -8.9579  -18.3373 C   0  0  0  0  0  0  0  0  0  0  0  0
   21.4728   -8.5385  -18.7796 O   0  0  0  0  0  0  0  0  0  0  0  0
   20.9483   -1.8317  -13.5027 O   0  0  0  0  0  0  0  0  0  0  0  0
   21.4721   -3.0442  -13.9866 C   0  0  0  0  0  0  0  0  0  0  0  0
   20.8541   -4.2408  -13.7774 C   0  0  0  0  0  0  0  0  0  0  0  0
   21.3769   -5.4362  -14.2583 C   0  0  0  0  0  0  0  0  0  0  0  0
   22.5564   -5.3813  -14.9647 C   0  0  0  0  0  0  0  0  0  0  0  0
   23.1262   -6.6375  -15.4836 C   0  0  0  0  0  0  0  0  0  0  0  0
   22.5094   -6.9992  -16.8205 C   0  0  2  0  0  0  0  0  0  0  0  0
   23.1570   -8.2013  -17.2835 N   0  0  0  0  0  0  0  0  0  0  0  0
   22.6849   -5.9346  -17.8240 C   0  0  0  0  0  0  0  0  0  0  0  0
   23.8067   -5.8678  -18.6289 O   0  0  0  0  0  0  0  0  0  0  0  0
   23.2156   -4.1744  -15.1975 C   0  0  0  0  0  0  0  0  0  0  0  0
   22.6494   -3.0319  -14.6975 C   0  0  0  0  0  0  0  0  0  0  0  0
   21.7997   -5.0634  -17.9579 O   0  0  0  0  0  0  0  0  0  0  0  0
  2  3  1  0
  2  1  1  0
  3  4  1  1
  5  9  1  0
  5  3  1  0
  6  5  2  0
  8  7  1  6
  8 10  1  0
  8  9  1  0
 10 19  1  0
 11 10  2  0
 13 12  1  0
 14 13  2  0
 15 14  1  0
 16 22  1  0
 16 15  2  0
 17 16  1  0
 18 17  1  1
 19 18  1  0
 20 21  1  0
 20 18  1  0
 22 23  2  0
 23 13  1  0
 24 20  2  0
M  END
$$$$
