SAY.pdb
     RDKit          3D

 24 24  0  0  1  0  0  0  0  0999 V2000
   29.4750  -13.1422  -22.3557 O   0  0  0  0  0  0  0  0  0  0  0  0
   30.4626  -13.1546  -21.3651 C   0  0  0  0  0  0  0  0  0  0  0  0
   29.8404  -13.3227  -19.9850 C   0  0  2  0  0  0  0  0  0  0  0  0
   28.7501  -14.2738  -20.0341 N   0  0  0  0  0  0  0  0  0  0  0  0
   29.3128  -12.0117  -19.5807 C   0  0  0  0  0  0  0  0  0  0  0  0
   28.1139  -11.7304  -19.8195 O   0  0  0  0  0  0  0  0  0  0  0  0
   30.4320   -9.0325  -17.6134 C   0  0  0  0  0  0  0  0  0  0  0  0
   29.5555   -9.7176  -18.6204 C   0  0  2  0  0  0  0  0  0  0  0  0
   30.1030  -11.0228  -18.9195 N   0  0  0  0  0  0  0  0  0  0  0  0
   29.3386   -8.9779  -19.8487 C   0  0  0  0  0  0  0  0  0  0  0  0
   30.0810   -9.2219  -20.8428 O   0  0  0  0  0  0  0  0  0  0  0  0
   24.6558  -11.9869  -23.5111 O   0  0  0  0  0  0  0  0  0  0  0  0
   25.1805  -10.7773  -23.0210 C   0  0  0  0  0  0  0  0  0  0  0  0
   24.9989  -10.3726  -21.7322 C   0  0  0  0  0  0  0  0  0  0  0  0
   25.5201   -9.1756  -21.2536 C   0  0  0  0  0  0  0  0  0  0  0  0
   26.2379   -8.3938  -22.1292 C   0  0  0  0  0  0  0  0  0  0  0  0
   26.7993   -7.1218  -21.6407 C   0  0  0  0  0  0  0  0  0  0  0  0
   28.2679   -7.2756  -21.2973 C   0  0  2  0  0  0  0  0  0  0  0  0
   28.3461   -7.9816  -20.0426 N   0  0  0  0  0  0  0  0  0  0  0  0
   28.9514   -5.9766  -21.1679 C   0  0  0  0  0  0  0  0  0  0  0  0
   29.2655   -5.2039  -22.2702 O   0  0  0  0  0  0  0  0  0  0  0  0
   26.4432   -8.7770  -23.4545 C   0  0  0  0  0  0  0  0  0  0  0  0
   25.9039   -9.9674  -23.8648 C   0  0  0  0  0  0  0  0  0  0  0  0
   29.2596   -5.5539  -20.0335 O   0  0  0  0  0  0  0  0  0  0  0  0
  2  3  1  0
  2  1  1  0
  3  4  1  6
  5  9  1  0
  5  3  1  0
  6  5  2  0
  8  7  1  1
  8 10  1  0
  8  9  1  0
 10 19  1  0
 11 10  2  0
 13 12  1  0
 14 13  2  0
 15 14  1  0
 16 22  1  0
 16 15  2  0
 17 16  1  0
 18 17  1  1
 19 18  1  0
 20 21  1  0
 20 18  1  0
 22 23  2  0
 23 13  1  0
 24 20  2  0
M  END
$$$$
