SAY.pdb
     RDKit          3D

 24 24  0  0  1  0  0  0  0  0999 V2000
   46.1257  -12.7551   -9.3877 O   0  0  0  0  0  0  0  0  0  0  0  0
   46.8725  -12.4019   -8.2588 C   0  0  0  0  0  0  0  0  0  0  0  0
   46.3352  -13.1003   -7.0163 C   0  0  2  0  0  0  0  0  0  0  0  0
   46.1817  -14.5190   -7.2599 N   0  0  0  0  0  0  0  0  0  0  0  0
   45.0165  -12.5203   -6.7247 C   0  0  0  0  0  0  0  0  0  0  0  0
   43.9831  -13.1108   -7.1209 O   0  0  0  0  0  0  0  0  0  0  0  0
   43.6253   -9.6499   -4.7503 C   0  0  0  0  0  0  0  0  0  0  0  0
   43.5190  -10.7917   -5.7181 C   0  0  2  0  0  0  0  0  0  0  0  0
   44.8429  -11.3005   -6.0028 N   0  0  0  0  0  0  0  0  0  0  0  0
   42.8297  -10.4839   -6.9563 C   0  0  0  0  0  0  0  0  0  0  0  0
   43.5166  -10.1789   -7.9733 O   0  0  0  0  0  0  0  0  0  0  0  0
   37.0246   -9.2175  -13.3652 O   0  0  0  0  0  0  0  0  0  0  0  0
   37.6566   -9.6106  -12.1716 C   0  0  0  0  0  0  0  0  0  0  0  0
   37.4395   -8.9725  -10.9870 C   0  0  0  0  0  0  0  0  0  0  0  0
   38.0673   -9.3658   -9.8102 C   0  0  0  0  0  0  0  0  0  0  0  0
   38.9302  -10.4358   -9.8712 C   0  0  0  0  0  0  0  0  0  0  0  0
   39.6048  -10.8685   -8.6345 C   0  0  0  0  0  0  0  0  0  0  0  0
   40.8501  -10.0418   -8.3805 C   0  0  2  0  0  0  0  0  0  0  0  0
   41.4216  -10.4936   -7.1363 N   0  0  0  0  0  0  0  0  0  0  0  0
   40.5556   -8.6012   -8.2858 C   0  0  0  0  0  0  0  0  0  0  0  0
   40.6786   -7.7578   -9.3741 O   0  0  0  0  0  0  0  0  0  0  0  0
   39.1758  -11.1118  -11.0662 C   0  0  0  0  0  0  0  0  0  0  0  0
   38.5264  -10.6757  -12.1906 C   0  0  0  0  0  0  0  0  0  0  0  0
   40.1839   -8.1196   -7.1947 O   0  0  0  0  0  0  0  0  0  0  0  0
  2  3  1  0
  2  1  1  0
  3  4  1  6
  5  9  1  0
  5  3  1  0
  6  5  2  0
  8  7  1  1
  8 10  1  0
  8  9  1  0
 10 19  1  0
 11 10  2  0
 13 12  1  0
 14 13  2  0
 15 14  1  0
 16 22  1  0
 16 15  2  0
 17 16  1  0
 18 17  1  1
 19 18  1  0
 20 21  1  0
 20 18  1  0
 22 23  2  0
 23 13  1  0
 24 20  2  0
M  END
$$$$
