SAY.pdb
     RDKit          3D

 24 24  0  0  1  0  0  0  0  0999 V2000
   20.4366  -12.3846  -15.2506 O   0  0  0  0  0  0  0  0  0  0  0  0
   19.0500  -12.3760  -15.0660 C   0  0  0  0  0  0  0  0  0  0  0  0
   18.3368  -11.9836  -16.3535 C   0  0  2  0  0  0  0  0  0  0  0  0
   18.9767  -12.6024  -17.4951 N   0  0  0  0  0  0  0  0  0  0  0  0
   18.4390  -10.5230  -16.4821 C   0  0  0  0  0  0  0  0  0  0  0  0
   19.1778  -10.0335  -17.3699 O   0  0  0  0  0  0  0  0  0  0  0  0
   16.7480   -7.5036  -15.0424 C   0  0  0  0  0  0  0  0  0  0  0  0
   17.7984   -8.1872  -15.8676 C   0  0  2  0  0  0  0  0  0  0  0  0
   17.7318   -9.6139  -15.6379 N   0  0  0  0  0  0  0  0  0  0  0  0
   19.1520   -7.7134  -15.6523 C   0  0  0  0  0  0  0  0  0  0  0  0
   19.8697   -8.2987  -14.7912 O   0  0  0  0  0  0  0  0  0  0  0  0
   26.8106   -3.5121  -16.5889 O   0  0  0  0  0  0  0  0  0  0  0  0
   25.5309   -4.0592  -16.7930 C   0  0  0  0  0  0  0  0  0  0  0  0
   24.4222   -3.2822  -16.9499 C   0  0  0  0  0  0  0  0  0  0  0  0
   23.1596   -3.8289  -17.1515 C   0  0  0  0  0  0  0  0  0  0  0  0
   23.0540   -5.2002  -17.1896 C   0  0  0  0  0  0  0  0  0  0  0  0
   21.7244   -5.7990  -17.4031 C   0  0  0  0  0  0  0  0  0  0  0  0
   21.1469   -6.3120  -16.0986 C   0  0  2  0  0  0  0  0  0  0  0  0
   19.7600   -6.6274  -16.3350 N   0  0  0  0  0  0  0  0  0  0  0  0
   21.2418   -5.3178  -15.0152 C   0  0  0  0  0  0  0  0  0  0  0  0
   22.3123   -5.2903  -14.1412 O   0  0  0  0  0  0  0  0  0  0  0  0
   24.1673   -6.0255  -17.0328 C   0  0  0  0  0  0  0  0  0  0  0  0
   25.3831   -5.4258  -16.8375 C   0  0  0  0  0  0  0  0  0  0  0  0
   20.3333   -4.4719  -14.8752 O   0  0  0  0  0  0  0  0  0  0  0  0
  2  3  1  0
  2  1  1  0
  3  4  1  6
  5  9  1  0
  5  3  1  0
  6  5  2  0
  8  7  1  1
  8 10  1  0
  8  9  1  0
 10 19  1  0
 11 10  2  0
 13 12  1  0
 14 13  2  0
 15 14  1  0
 16 22  1  0
 16 15  2  0
 17 16  1  0
 18 17  1  6
 19 18  1  0
 20 21  1  0
 20 18  1  0
 22 23  2  0
 23 13  1  0
 24 20  2  0
M  END
$$$$
