SAY.pdb
     RDKit          3D

 24 24  0  0  1  0  0  0  0  0999 V2000
   19.6661  -32.0590  -12.2981 O   0  0  0  0  0  0  0  0  0  0  0  0
   20.2765  -32.1243  -13.5550 C   0  0  0  0  0  0  0  0  0  0  0  0
   21.6461  -31.4581  -13.5249 C   0  0  2  0  0  0  0  0  0  0  0  0
   22.5050  -32.1110  -12.5597 N   0  0  0  0  0  0  0  0  0  0  0  0
   21.4437  -30.0609  -13.1162 C   0  0  0  0  0  0  0  0  0  0  0  0
   21.7631  -29.7065  -11.9560 O   0  0  0  0  0  0  0  0  0  0  0  0
   20.6726  -26.8193  -14.8036 C   0  0  0  0  0  0  0  0  0  0  0  0
   20.8691  -27.6751  -13.5868 C   0  0  2  0  0  0  0  0  0  0  0  0
   20.8940  -29.0666  -13.9814 N   0  0  0  0  0  0  0  0  0  0  0  0
   19.8928  -27.4762  -12.5331 C   0  0  0  0  0  0  0  0  0  0  0  0
   18.8600  -28.2058  -12.5175 O   0  0  0  0  0  0  0  0  0  0  0  0
   15.6860  -25.0868   -5.2358 O   0  0  0  0  0  0  0  0  0  0  0  0
   16.6625  -25.3088   -6.2236 C   0  0  0  0  0  0  0  0  0  0  0  0
   17.3521  -26.4806   -6.3172 C   0  0  0  0  0  0  0  0  0  0  0  0
   18.3164  -26.6941   -7.2961 C   0  0  0  0  0  0  0  0  0  0  0  0
   18.5627  -25.6739   -8.1858 C   0  0  0  0  0  0  0  0  0  0  0  0
   19.5805  -25.8811   -9.2313 C   0  0  0  0  0  0  0  0  0  0  0  0
   18.9490  -26.4141  -10.5024 C   0  0  2  0  0  0  0  0  0  0  0  0
   19.9918  -26.5154  -11.4928 N   0  0  0  0  0  0  0  0  0  0  0  0
   17.8812  -25.5338  -11.0084 C   0  0  0  0  0  0  0  0  0  0  0  0
   16.5547  -25.7267  -10.6710 O   0  0  0  0  0  0  0  0  0  0  0  0
   17.8759  -24.4618   -8.1194 C   0  0  0  0  0  0  0  0  0  0  0  0
   16.9382  -24.3137   -7.1320 C   0  0  0  0  0  0  0  0  0  0  0  0
   18.1741  -24.5837  -11.7648 O   0  0  0  0  0  0  0  0  0  0  0  0
  2  3  1  0
  2  1  1  0
  3  4  1  1
  5  9  1  0
  5  3  1  0
  6  5  2  0
  8  7  1  6
  8 10  1  0
  8  9  1  0
 10 19  1  0
 11 10  2  0
 13 12  1  0
 14 13  2  0
 15 14  1  0
 16 22  1  0
 16 15  2  0
 17 16  1  0
 18 17  1  1
 19 18  1  0
 20 21  1  0
 20 18  1  0
 22 23  2  0
 23 13  1  0
 24 20  2  0
M  END
$$$$
