GGI.pdb
     RDKit          3D

 17 16  0  0  1  0  0  0  0  0999 V2000
    8.1294  -20.4664   21.6026 N   0  0  0  0  0  0  0  0  0  0  0  0
    6.7159  -20.3348   21.8392 C   0  0  0  0  0  0  0  0  0  0  0  0
    6.4666  -19.6610   23.1183 C   0  0  0  0  0  0  0  0  0  0  0  0
    6.7282  -20.2772   24.1861 O   0  0  0  0  0  0  0  0  0  0  0  0
    5.9478  -18.3584   23.1501 N   0  0  0  0  0  0  0  0  0  0  0  0
    5.7905  -17.6030   24.3734 C   0  0  0  0  0  0  0  0  0  0  0  0
    6.9045  -16.6256   24.5213 C   0  0  0  0  0  0  0  0  0  0  0  0
    7.7735  -16.5602   23.6340 O   0  0  0  0  0  0  0  0  0  0  0  0
    5.5231  -11.8868   26.5175 C   0  0  0  0  0  0  0  0  0  0  0  0
    6.2218  -12.9544   25.7180 C   0  0  0  0  0  0  0  0  0  0  0  0
    7.4342  -13.5026   26.4228 C   0  0  2  0  0  0  0  0  0  0  0  0
    8.4212  -12.4097   26.5960 C   0  0  0  0  0  0  0  0  0  0  0  0
    7.9530  -14.7432   25.7917 C   0  0  2  0  0  0  0  0  0  0  0  0
    6.9686  -15.7797   25.6657 N   0  0  0  0  0  0  0  0  0  0  0  0
    9.1906  -15.2704   26.3600 C   0  0  0  0  0  0  0  0  0  0  0  0
   10.3467  -14.9050   26.0244 O   0  0  0  0  0  0  0  0  0  0  0  0
    9.1125  -16.2438   27.3377 O   0  0  0  0  0  0  0  0  0  0  0  0
  1  2  1  0
  3  5  1  0
  3  2  1  0
  4  3  2  0
  6  5  1  0
  7  6  1  0
  8  7  2  0
  9 10  1  0
 10 11  1  0
 11 13  1  0
 11 12  1  6
 13 14  1  1
 14  7  1  0
 15 13  1  0
 16 15  2  0
 17 15  1  0
M  END
$$$$
