GGI.pdb
     RDKit          3D

 17 16  0  0  1  0  0  0  0  0999 V2000
    6.8732  -18.2460   17.9843 N   0  0  0  0  0  0  0  0  0  0  0  0
    7.5680  -17.3179   18.8369 C   0  0  0  0  0  0  0  0  0  0  0  0
    6.8572  -17.1536   20.1097 C   0  0  0  0  0  0  0  0  0  0  0  0
    5.6494  -17.5072   20.1764 O   0  0  0  0  0  0  0  0  0  0  0  0
    7.5098  -16.6141   21.2276 N   0  0  0  0  0  0  0  0  0  0  0  0
    6.8941  -16.5282   22.5336 C   0  0  0  0  0  0  0  0  0  0  0  0
    7.7934  -15.8119   23.4803 C   0  0  0  0  0  0  0  0  0  0  0  0
    9.0237  -15.8715   23.3081 O   0  0  0  0  0  0  0  0  0  0  0  0
    5.6265  -11.5849   26.3029 C   0  0  0  0  0  0  0  0  0  0  0  0
    6.5383  -12.4605   25.4849 C   0  0  0  0  0  0  0  0  0  0  0  0
    7.3641  -13.3882   26.3362 C   0  0  2  0  0  0  0  0  0  0  0  0
    8.2130  -12.5771   27.2418 C   0  0  0  0  0  0  0  0  0  0  0  0
    8.0773  -14.4179   25.5376 C   0  0  2  0  0  0  0  0  0  0  0  0
    7.2463  -15.0702   24.5664 N   0  0  0  0  0  0  0  0  0  0  0  0
    8.8408  -15.3964   26.3071 C   0  0  0  0  0  0  0  0  0  0  0  0
    8.3646  -16.4524   26.7979 O   0  0  0  0  0  0  0  0  0  0  0  0
   10.1855  -15.1672   26.5276 O   0  0  0  0  0  0  0  0  0  0  0  0
  1  2  1  0
  3  5  1  0
  3  2  1  0
  4  3  2  0
  6  5  1  0
  7  6  1  0
  8  7  2  0
  9 10  1  0
 10 11  1  0
 11 13  1  0
 11 12  1  6
 13 14  1  1
 14  7  1  0
 15 13  1  0
 16 15  2  0
 17 15  1  0
M  END
$$$$
