GGI.pdb
     RDKit          3D

 17 16  0  0  1  0  0  0  0  0999 V2000
    4.9266  -20.9864   20.8801 N   0  0  0  0  0  0  0  0  0  0  0  0
    5.9635  -20.0920   21.3229 C   0  0  0  0  0  0  0  0  0  0  0  0
    5.4971  -19.2779   22.4507 C   0  0  0  0  0  0  0  0  0  0  0  0
    4.3072  -19.4150   22.8426 O   0  0  0  0  0  0  0  0  0  0  0  0
    6.3589  -18.3668   23.0784 N   0  0  0  0  0  0  0  0  0  0  0  0
    5.9749  -17.5883   24.2353 C   0  0  0  0  0  0  0  0  0  0  0  0
    7.0372  -16.5979   24.5647 C   0  0  0  0  0  0  0  0  0  0  0  0
    8.1438  -16.6890   24.0043 O   0  0  0  0  0  0  0  0  0  0  0  0
    5.2527  -11.8395   26.6398 C   0  0  0  0  0  0  0  0  0  0  0  0
    6.0360  -12.8078   25.7935 C   0  0  0  0  0  0  0  0  0  0  0  0
    7.2229  -13.3812   26.5215 C   0  0  2  0  0  0  0  0  0  0  0  0
    8.1926  -12.2914   26.7873 C   0  0  0  0  0  0  0  0  0  0  0  0
    7.7779  -14.5868   25.8544 C   0  0  2  0  0  0  0  0  0  0  0  0
    6.7838  -15.5625   25.5097 N   0  0  0  0  0  0  0  0  0  0  0  0
    8.9099  -15.2164   26.5287 C   0  0  0  0  0  0  0  0  0  0  0  0
    8.8134  -16.0458   27.4697 O   0  0  0  0  0  0  0  0  0  0  0  0
   10.1905  -14.8924   26.1231 O   0  0  0  0  0  0  0  0  0  0  0  0
  1  2  1  0
  3  5  1  0
  3  2  1  0
  4  3  2  0
  6  5  1  0
  7  6  1  0
  8  7  2  0
  9 10  1  0
 10 11  1  0
 11 13  1  0
 11 12  1  6
 13 14  1  1
 14  7  1  0
 15 13  1  0
 16 15  2  0
 17 15  1  0
M  END
$$$$
