GGI.pdb
     RDKit          3D

 17 16  0  0  1  0  0  0  0  0999 V2000
    6.1212  -21.1216   21.7560 N   0  0  0  0  0  0  0  0  0  0  0  0
    6.2730  -19.7613   21.3114 C   0  0  0  0  0  0  0  0  0  0  0  0
    5.8514  -18.8250   22.3592 C   0  0  0  0  0  0  0  0  0  0  0  0
    4.8994  -18.0359   22.1161 O   0  0  0  0  0  0  0  0  0  0  0  0
    6.4956  -18.8101   23.6049 N   0  0  0  0  0  0  0  0  0  0  0  0
    6.1297  -17.9024   24.6699 C   0  0  0  0  0  0  0  0  0  0  0  0
    7.1314  -16.8056   24.7778 C   0  0  0  0  0  0  0  0  0  0  0  0
    8.1118  -16.8044   24.0125 O   0  0  0  0  0  0  0  0  0  0  0  0
    5.3362  -12.0643   26.8741 C   0  0  0  0  0  0  0  0  0  0  0  0
    6.1149  -12.9661   25.9534 C   0  0  0  0  0  0  0  0  0  0  0  0
    7.3569  -13.5185   26.6012 C   0  0  2  0  0  0  0  0  0  0  0  0
    8.3119  -12.4072   26.8286 C   0  0  0  0  0  0  0  0  0  0  0  0
    7.9030  -14.6982   25.8825 C   0  0  2  0  0  0  0  0  0  0  0  0
    6.9637  -15.7745   25.7463 N   0  0  0  0  0  0  0  0  0  0  0  0
    9.1897  -15.1916   26.3657 C   0  0  0  0  0  0  0  0  0  0  0  0
   10.3063  -14.8839   25.8744 O   0  0  0  0  0  0  0  0  0  0  0  0
    9.2084  -16.0628   27.4382 O   0  0  0  0  0  0  0  0  0  0  0  0
  1  2  1  0
  3  5  1  0
  3  2  1  0
  4  3  2  0
  6  5  1  0
  7  6  1  0
  8  7  2  0
  9 10  1  0
 10 11  1  0
 11 13  1  0
 11 12  1  6
 13 14  1  1
 14  7  1  0
 15 13  1  0
 16 15  2  0
 17 15  1  0
M  END
$$$$
