GGI.pdb
     RDKit          3D

 17 16  0  0  1  0  0  0  0  0999 V2000
    4.7854  -21.3078   21.6226 N   0  0  0  0  0  0  0  0  0  0  0  0
    5.8884  -20.4227   21.8890 C   0  0  0  0  0  0  0  0  0  0  0  0
    5.7238  -19.7696   23.1924 C   0  0  0  0  0  0  0  0  0  0  0  0
    5.6627  -20.4897   24.2248 O   0  0  0  0  0  0  0  0  0  0  0  0
    5.6364  -18.3730   23.2853 N   0  0  0  0  0  0  0  0  0  0  0  0
    5.7188  -17.6606   24.5414 C   0  0  0  0  0  0  0  0  0  0  0  0
    6.8152  -16.6540   24.4910 C   0  0  0  0  0  0  0  0  0  0  0  0
    7.5096  -16.5671   23.4629 O   0  0  0  0  0  0  0  0  0  0  0  0
    6.4966  -11.7457   27.2793 C   0  0  0  0  0  0  0  0  0  0  0  0
    6.8128  -13.1959   27.0261 C   0  0  0  0  0  0  0  0  0  0  0  0
    7.5354  -13.4098   25.7225 C   0  0  2  0  0  0  0  0  0  0  0  0
    6.6684  -12.9441   24.6134 C   0  0  0  0  0  0  0  0  0  0  0  0
    8.0725  -14.7878   25.5833 C   0  0  2  0  0  0  0  0  0  0  0  0
    7.0605  -15.8049   25.6082 N   0  0  0  0  0  0  0  0  0  0  0  0
    9.1730  -15.1298   26.4802 C   0  0  0  0  0  0  0  0  0  0  0  0
   10.2865  -14.5447   26.5049 O   0  0  0  0  0  0  0  0  0  0  0  0
    9.0043  -16.1695   27.3747 O   0  0  0  0  0  0  0  0  0  0  0  0
  1  2  1  0
  3  5  1  0
  3  2  1  0
  4  3  2  0
  6  5  1  0
  7  6  1  0
  8  7  2  0
  9 10  1  0
 10 11  1  0
 11 13  1  0
 11 12  1  6
 13 14  1  1
 14  7  1  0
 15 13  1  0
 16 15  2  0
 17 15  1  0
M  END
$$$$
