GGI.pdb
     RDKit          3D

 17 16  0  0  1  0  0  0  0  0999 V2000
    8.2825  -17.7233   17.6181 N   0  0  0  0  0  0  0  0  0  0  0  0
    8.9030  -17.3843   18.8715 C   0  0  0  0  0  0  0  0  0  0  0  0
    7.9253  -16.7859   19.7871 C   0  0  0  0  0  0  0  0  0  0  0  0
    6.7197  -16.7229   19.4256 O   0  0  0  0  0  0  0  0  0  0  0  0
    8.3259  -16.2946   21.0381 N   0  0  0  0  0  0  0  0  0  0  0  0
    7.3909  -15.8167   22.0328 C   0  0  0  0  0  0  0  0  0  0  0  0
    8.1244  -15.2813   23.2132 C   0  0  0  0  0  0  0  0  0  0  0  0
    9.3525  -15.4602   23.2942 O   0  0  0  0  0  0  0  0  0  0  0  0
    5.4805  -11.3837   26.1799 C   0  0  0  0  0  0  0  0  0  0  0  0
    6.4702  -12.1830   25.3744 C   0  0  0  0  0  0  0  0  0  0  0  0
    7.2455  -13.1601   26.2179 C   0  0  2  0  0  0  0  0  0  0  0  0
    7.9585  -12.4125   27.2816 C   0  0  0  0  0  0  0  0  0  0  0  0
    8.0836  -14.0799   25.4067 C   0  0  2  0  0  0  0  0  0  0  0  0
    7.4237  -14.5747   24.2324 N   0  0  0  0  0  0  0  0  0  0  0  0
    8.7182  -15.1700   26.1426 C   0  0  0  0  0  0  0  0  0  0  0  0
    8.1701  -16.2710   26.4076 O   0  0  0  0  0  0  0  0  0  0  0  0
   10.0139  -15.0035   26.5930 O   0  0  0  0  0  0  0  0  0  0  0  0
  1  2  1  0
  3  5  1  0
  3  2  1  0
  4  3  2  0
  6  5  1  0
  7  6  1  0
  8  7  2  0
  9 10  1  0
 10 11  1  0
 11 13  1  0
 11 12  1  1
 13 14  1  6
 14  7  1  0
 15 13  1  0
 16 15  2  0
 17 15  1  0
M  END
$$$$
