GGI.pdb
     RDKit          3D

 17 16  0  0  1  0  0  0  0  0999 V2000
    6.1753  -20.7647   23.9849 N   0  0  0  0  0  0  0  0  0  0  0  0
    6.3033  -19.4973   24.6546 C   0  0  0  0  0  0  0  0  0  0  0  0
    6.8841  -18.4940   23.7555 C   0  0  0  0  0  0  0  0  0  0  0  0
    8.0295  -18.7056   23.2746 O   0  0  0  0  0  0  0  0  0  0  0  0
    6.1777  -17.3244   23.4391 N   0  0  0  0  0  0  0  0  0  0  0  0
    6.6789  -16.3259   22.5206 C   0  0  0  0  0  0  0  0  0  0  0  0
    7.5380  -15.3472   23.2432 C   0  0  0  0  0  0  0  0  0  0  0  0
    8.4450  -14.7649   22.6226 O   0  0  0  0  0  0  0  0  0  0  0  0
    6.2050  -11.5942   27.1955 C   0  0  0  0  0  0  0  0  0  0  0  0
    6.4946  -12.9412   26.5879 C   0  0  0  0  0  0  0  0  0  0  0  0
    7.7090  -12.9237   25.6979 C   0  0  2  0  0  0  0  0  0  0  0  0
    7.4233  -12.0748   24.5162 C   0  0  0  0  0  0  0  0  0  0  0  0
    8.2233  -14.2854   25.4018 C   0  0  2  0  0  0  0  0  0  0  0  0
    7.3193  -15.0858   24.6263 N   0  0  0  0  0  0  0  0  0  0  0  0
    8.7236  -15.0349   26.5510 C   0  0  0  0  0  0  0  0  0  0  0  0
    8.2538  -16.1307   26.9522 O   0  0  0  0  0  0  0  0  0  0  0  0
    9.7885  -14.5228   27.2673 O   0  0  0  0  0  0  0  0  0  0  0  0
  1  2  1  0
  3  5  1  0
  3  2  1  0
  4  3  2  0
  6  5  1  0
  7  6  1  0
  8  7  2  0
  9 10  1  0
 10 11  1  0
 11 13  1  0
 11 12  1  6
 13 14  1  1
 14  7  1  0
 15 13  1  0
 16 15  2  0
 17 15  1  0
M  END
$$$$
