GGI.pdb
     RDKit          3D

 17 16  0  0  1  0  0  0  0  0999 V2000
    5.7127  -20.4868   21.0643 N   0  0  0  0  0  0  0  0  0  0  0  0
    5.3408  -19.0966   21.0523 C   0  0  0  0  0  0  0  0  0  0  0  0
    5.2386  -18.5772   22.4206 C   0  0  0  0  0  0  0  0  0  0  0  0
    4.1464  -18.0716   22.7942 O   0  0  0  0  0  0  0  0  0  0  0  0
    6.3347  -18.6429   23.2931 N   0  0  0  0  0  0  0  0  0  0  0  0
    6.3040  -18.1109   24.6376 C   0  0  0  0  0  0  0  0  0  0  0  0
    7.3072  -17.0197   24.7822 C   0  0  0  0  0  0  0  0  0  0  0  0
    8.3692  -17.0853   24.1383 O   0  0  0  0  0  0  0  0  0  0  0  0
    5.3499  -12.2805   26.6815 C   0  0  0  0  0  0  0  0  0  0  0  0
    6.1939  -13.1597   25.7972 C   0  0  0  0  0  0  0  0  0  0  0  0
    7.4335  -13.6571   26.4925 C   0  0  2  0  0  0  0  0  0  0  0  0
    8.3706  -12.5215   26.6692 C   0  0  0  0  0  0  0  0  0  0  0  0
    8.0053  -14.8681   25.8498 C   0  0  2  0  0  0  0  0  0  0  0  0
    7.0485  -15.9183   25.6478 N   0  0  0  0  0  0  0  0  0  0  0  0
    9.2258  -15.3894   26.4592 C   0  0  0  0  0  0  0  0  0  0  0  0
    9.2623  -16.1028   27.4947 O   0  0  0  0  0  0  0  0  0  0  0  0
   10.4418  -15.0892   25.8755 O   0  0  0  0  0  0  0  0  0  0  0  0
  1  2  1  0
  3  5  1  0
  3  2  1  0
  4  3  2  0
  6  5  1  0
  7  6  1  0
  8  7  2  0
  9 10  1  0
 10 11  1  0
 11 13  1  0
 11 12  1  6
 13 14  1  1
 14  7  1  0
 15 13  1  0
 16 15  2  0
 17 15  1  0
M  END
$$$$
