GGI.pdb
     RDKit          3D

 17 16  0  0  1  0  0  0  0  0999 V2000
    7.7466  -18.5626   18.1183 N   0  0  0  0  0  0  0  0  0  0  0  0
    8.4554  -17.6775   19.0044 C   0  0  0  0  0  0  0  0  0  0  0  0
    7.5493  -17.1268   20.0184 C   0  0  0  0  0  0  0  0  0  0  0  0
    6.3090  -17.2992   19.8769 O   0  0  0  0  0  0  0  0  0  0  0  0
    8.0549  -16.4233   21.1213 N   0  0  0  0  0  0  0  0  0  0  0  0
    7.2144  -15.9100   22.1806 C   0  0  0  0  0  0  0  0  0  0  0  0
    8.0529  -15.3626   23.2830 C   0  0  0  0  0  0  0  0  0  0  0  0
    9.2835  -15.2801   23.1232 O   0  0  0  0  0  0  0  0  0  0  0  0
    5.6802  -11.6208   26.4598 C   0  0  0  0  0  0  0  0  0  0  0  0
    6.6080  -12.4437   25.6056 C   0  0  0  0  0  0  0  0  0  0  0  0
    7.4246  -13.4173   26.4133 C   0  0  2  0  0  0  0  0  0  0  0  0
    8.2014  -12.6639   27.4270 C   0  0  0  0  0  0  0  0  0  0  0  0
    8.2098  -14.3502   25.5649 C   0  0  2  0  0  0  0  0  0  0  0  0
    7.4480  -14.9407   24.5018 N   0  0  0  0  0  0  0  0  0  0  0  0
    8.9713  -15.3680   26.2838 C   0  0  0  0  0  0  0  0  0  0  0  0
    8.4983  -16.4565   26.7009 O   0  0  0  0  0  0  0  0  0  0  0  0
   10.3105  -15.1412   26.5385 O   0  0  0  0  0  0  0  0  0  0  0  0
  1  2  1  0
  3  5  1  0
  3  2  1  0
  4  3  2  0
  6  5  1  0
  7  6  1  0
  8  7  2  0
  9 10  1  0
 10 11  1  0
 11 13  1  0
 11 12  1  1
 13 14  1  6
 14  7  1  0
 15 13  1  0
 16 15  2  0
 17 15  1  0
M  END
$$$$
