GGI.pdb
     RDKit          3D

 17 16  0  0  1  0  0  0  0  0999 V2000
    8.1163  -17.8386   18.4832 N   0  0  0  0  0  0  0  0  0  0  0  0
    7.6584  -16.5487   18.9276 C   0  0  0  0  0  0  0  0  0  0  0  0
    7.1601  -16.6237   20.3054 C   0  0  0  0  0  0  0  0  0  0  0  0
    5.9163  -16.5704   20.5011 O   0  0  0  0  0  0  0  0  0  0  0  0
    8.0509  -16.7520   21.3810 N   0  0  0  0  0  0  0  0  0  0  0  0
    7.6142  -16.9185   22.7498 C   0  0  0  0  0  0  0  0  0  0  0  0
    8.3576  -15.9880   23.6438 C   0  0  0  0  0  0  0  0  0  0  0  0
    9.5767  -15.8205   23.4632 O   0  0  0  0  0  0  0  0  0  0  0  0
    5.5937  -11.9217   26.1281 C   0  0  0  0  0  0  0  0  0  0  0  0
    6.6442  -12.7284   25.4120 C   0  0  0  0  0  0  0  0  0  0  0  0
    7.5059  -13.5227   26.3575 C   0  0  2  0  0  0  0  0  0  0  0  0
    8.2036  -12.5852   27.2702 C   0  0  0  0  0  0  0  0  0  0  0  0
    8.3742  -14.5032   25.6567 C   0  0  2  0  0  0  0  0  0  0  0  0
    7.6765  -15.3017   24.6900 N   0  0  0  0  0  0  0  0  0  0  0  0
    9.2039  -15.3406   26.5186 C   0  0  0  0  0  0  0  0  0  0  0  0
    8.8183  -16.4012   27.0746 O   0  0  0  0  0  0  0  0  0  0  0  0
   10.5107  -14.9604   26.7579 O   0  0  0  0  0  0  0  0  0  0  0  0
  1  2  1  0
  3  5  1  0
  3  2  1  0
  4  3  2  0
  6  5  1  0
  7  6  1  0
  8  7  2  0
  9 10  1  0
 10 11  1  0
 11 13  1  0
 11 12  1  6
 13 14  1  1
 14  7  1  0
 15 13  1  0
 16 15  2  0
 17 15  1  0
M  END
$$$$
