GGI.pdb
     RDKit          3D

 17 16  0  0  1  0  0  0  0  0999 V2000
    8.0794  -17.8882   17.7223 N   0  0  0  0  0  0  0  0  0  0  0  0
    8.7462  -17.1725   18.7779 C   0  0  0  0  0  0  0  0  0  0  0  0
    7.7857  -16.7517   19.8039 C   0  0  0  0  0  0  0  0  0  0  0  0
    6.5657  -17.0183   19.6342 O   0  0  0  0  0  0  0  0  0  0  0  0
    8.2181  -16.0672   20.9491 N   0  0  0  0  0  0  0  0  0  0  0  0
    7.3222  -15.6629   22.0102 C   0  0  0  0  0  0  0  0  0  0  0  0
    8.0994  -15.1443   23.1700 C   0  0  0  0  0  0  0  0  0  0  0  0
    9.3420  -15.1545   23.1185 O   0  0  0  0  0  0  0  0  0  0  0  0
    5.5580  -11.4265   26.3681 C   0  0  0  0  0  0  0  0  0  0  0  0
    6.5395  -12.1902   25.5191 C   0  0  0  0  0  0  0  0  0  0  0  0
    7.3003  -13.2245   26.3057 C   0  0  2  0  0  0  0  0  0  0  0  0
    8.0166  -12.5498   27.4150 C   0  0  0  0  0  0  0  0  0  0  0  0
    8.1321  -14.1035   25.4442 C   0  0  2  0  0  0  0  0  0  0  0  0
    7.4233  -14.6445   24.3199 N   0  0  0  0  0  0  0  0  0  0  0  0
    8.8748  -15.1501   26.1410 C   0  0  0  0  0  0  0  0  0  0  0  0
   10.0435  -15.0234   26.5890 O   0  0  0  0  0  0  0  0  0  0  0  0
    8.2722  -16.3789   26.3327 O   0  0  0  0  0  0  0  0  0  0  0  0
  1  2  1  0
  3  5  1  0
  3  2  1  0
  4  3  2  0
  6  5  1  0
  7  6  1  0
  8  7  2  0
  9 10  1  0
 10 11  1  0
 11 13  1  0
 11 12  1  1
 13 14  1  6
 14  7  1  0
 15 13  1  0
 16 15  2  0
 17 15  1  0
M  END
$$$$
