GGI.pdb
     RDKit          3D

 17 16  0  0  1  0  0  0  0  0999 V2000
    8.2001  -17.8243   18.3956 N   0  0  0  0  0  0  0  0  0  0  0  0
    8.0043  -18.3885   19.7049 C   0  0  0  0  0  0  0  0  0  0  0  0
    7.5393  -17.3629   20.6453 C   0  0  0  0  0  0  0  0  0  0  0  0
    7.4972  -16.1642   20.2587 O   0  0  0  0  0  0  0  0  0  0  0  0
    7.1502  -17.7113   21.9469 N   0  0  0  0  0  0  0  0  0  0  0  0
    6.5193  -16.7800   22.8561 C   0  0  0  0  0  0  0  0  0  0  0  0
    7.5525  -15.9988   23.5912 C   0  0  0  0  0  0  0  0  0  0  0  0
    8.7128  -15.9606   23.1451 O   0  0  0  0  0  0  0  0  0  0  0  0
    6.1763  -11.6278   27.1809 C   0  0  0  0  0  0  0  0  0  0  0  0
    6.3518  -12.9762   26.5342 C   0  0  0  0  0  0  0  0  0  0  0  0
    7.4824  -12.9965   25.5399 C   0  0  2  0  0  0  0  0  0  0  0  0
    7.0260  -12.3535   24.2841 C   0  0  0  0  0  0  0  0  0  0  0  0
    8.0893  -14.3438   25.3883 C   0  0  2  0  0  0  0  0  0  0  0  0
    7.2105  -15.3065   24.7883 N   0  0  0  0  0  0  0  0  0  0  0  0
    8.7169  -14.8919   26.5876 C   0  0  0  0  0  0  0  0  0  0  0  0
    8.3114  -15.9078   27.2089 O   0  0  0  0  0  0  0  0  0  0  0  0
    9.8381  -14.2655   27.0977 O   0  0  0  0  0  0  0  0  0  0  0  0
  1  2  1  0
  3  5  1  0
  3  2  1  0
  4  3  2  0
  6  5  1  0
  7  6  1  0
  8  7  2  0
  9 10  1  0
 10 11  1  0
 11 13  1  0
 11 12  1  6
 13 14  1  1
 14  7  1  0
 15 13  1  0
 16 15  2  0
 17 15  1  0
M  END
$$$$
