GGI.pdb
     RDKit          3D

 17 16  0  0  1  0  0  0  0  0999 V2000
    7.7851  -13.0820   17.3314 N   0  0  0  0  0  0  0  0  0  0  0  0
    8.3949  -13.0162   18.6333 C   0  0  0  0  0  0  0  0  0  0  0  0
    7.8171  -14.0267   19.5263 C   0  0  0  0  0  0  0  0  0  0  0  0
    6.9112  -14.7800   19.0792 O   0  0  0  0  0  0  0  0  0  0  0  0
    8.2649  -14.1501   20.8496 N   0  0  0  0  0  0  0  0  0  0  0  0
    7.9468  -15.2865   21.6859 C   0  0  0  0  0  0  0  0  0  0  0  0
    8.4760  -15.0767   23.0621 C   0  0  0  0  0  0  0  0  0  0  0  0
    9.6814  -15.2865   23.2851 O   0  0  0  0  0  0  0  0  0  0  0  0
    5.6339  -11.5372   26.1212 C   0  0  0  0  0  0  0  0  0  0  0  0
    6.6609  -12.3528   25.3813 C   0  0  0  0  0  0  0  0  0  0  0  0
    7.2181  -13.4746   26.2170 C   0  0  2  0  0  0  0  0  0  0  0  0
    7.8304  -12.9012   27.4396 C   0  0  0  0  0  0  0  0  0  0  0  0
    8.0829  -14.3966   25.4369 C   0  0  2  0  0  0  0  0  0  0  0  0
    7.6085  -14.6415   24.1049 N   0  0  0  0  0  0  0  0  0  0  0  0
    8.4306  -15.6496   26.1015 C   0  0  0  0  0  0  0  0  0  0  0  0
    7.7104  -16.6811   26.1098 O   0  0  0  0  0  0  0  0  0  0  0  0
    9.6321  -15.7326   26.7792 O   0  0  0  0  0  0  0  0  0  0  0  0
  1  2  1  0
  3  5  1  0
  3  2  1  0
  4  3  2  0
  6  5  1  0
  7  6  1  0
  8  7  2  0
  9 10  1  0
 10 11  1  0
 11 13  1  0
 11 12  1  1
 13 14  1  6
 14  7  1  0
 15 13  1  0
 16 15  2  0
 17 15  1  0
M  END
$$$$
