GGI.pdb
     RDKit          3D

 17 16  0  0  1  0  0  0  0  0999 V2000
    5.8563  -20.2062   23.5321 N   0  0  0  0  0  0  0  0  0  0  0  0
    5.5958  -18.7985   23.6797 C   0  0  0  0  0  0  0  0  0  0  0  0
    6.6192  -18.0081   22.9869 C   0  0  0  0  0  0  0  0  0  0  0  0
    7.7408  -18.5371   22.7622 O   0  0  0  0  0  0  0  0  0  0  0  0
    6.3531  -16.6915   22.5837 N   0  0  0  0  0  0  0  0  0  0  0  0
    7.3308  -15.8586   21.9186 C   0  0  0  0  0  0  0  0  0  0  0  0
    8.0382  -15.0029   22.9113 C   0  0  0  0  0  0  0  0  0  0  0  0
    9.0124  -14.3249   22.5399 O   0  0  0  0  0  0  0  0  0  0  0  0
    6.0210  -11.9447   27.2162 C   0  0  0  0  0  0  0  0  0  0  0  0
    6.4162  -13.1662   26.4293 C   0  0  0  0  0  0  0  0  0  0  0  0
    7.7134  -12.9802   25.6878 C   0  0  2  0  0  0  0  0  0  0  0  0
    7.5034  -11.9991   24.5960 C   0  0  0  0  0  0  0  0  0  0  0  0
    8.3335  -14.2681   25.2840 C   0  0  2  0  0  0  0  0  0  0  0  0
    7.6004  -14.9655   24.2664 N   0  0  0  0  0  0  0  0  0  0  0  0
    8.6865  -15.1691   26.3778 C   0  0  0  0  0  0  0  0  0  0  0  0
    8.1647  -16.2967   26.5749 O   0  0  0  0  0  0  0  0  0  0  0  0
    9.6602  -14.7761   27.2760 O   0  0  0  0  0  0  0  0  0  0  0  0
  1  2  1  0
  3  5  1  0
  3  2  1  0
  4  3  2  0
  6  5  1  0
  7  6  1  0
  8  7  2  0
  9 10  1  0
 10 11  1  0
 11 13  1  0
 11 12  1  6
 13 14  1  6
 14  7  1  0
 15 13  1  0
 16 15  2  0
 17 15  1  0
M  END
$$$$
