GGI.pdb
     RDKit          3D

 17 16  0  0  1  0  0  0  0  0999 V2000
    4.4934  -21.4307   21.6549 N   0  0  0  0  0  0  0  0  0  0  0  0
    5.1530  -20.1517   21.6473 C   0  0  0  0  0  0  0  0  0  0  0  0
    5.1557  -19.5637   22.9914 C   0  0  0  0  0  0  0  0  0  0  0  0
    4.3600  -20.0243   23.8533 O   0  0  0  0  0  0  0  0  0  0  0  0
    6.0263  -18.5109   23.3086 N   0  0  0  0  0  0  0  0  0  0  0  0
    6.0927  -17.9130   24.6239 C   0  0  0  0  0  0  0  0  0  0  0  0
    7.0545  -16.7758   24.6241 C   0  0  0  0  0  0  0  0  0  0  0  0
    8.0237  -16.8033   23.8451 O   0  0  0  0  0  0  0  0  0  0  0  0
    5.2978  -11.9407   26.6637 C   0  0  0  0  0  0  0  0  0  0  0  0
    5.9690  -12.9516   25.7721 C   0  0  0  0  0  0  0  0  0  0  0  0
    7.2966  -13.4091   26.3156 C   0  0  2  0  0  0  0  0  0  0  0  0
    8.2167  -12.2476   26.3697 C   0  0  0  0  0  0  0  0  0  0  0  0
    7.8194  -14.6112   25.6170 C   0  0  2  0  0  0  0  0  0  0  0  0
    6.8619  -15.6744   25.5066 N   0  0  0  0  0  0  0  0  0  0  0  0
    9.1006  -15.1162   26.1028 C   0  0  0  0  0  0  0  0  0  0  0  0
    9.2417  -15.8826   27.0904 O   0  0  0  0  0  0  0  0  0  0  0  0
   10.2570  -14.7373   25.4479 O   0  0  0  0  0  0  0  0  0  0  0  0
  1  2  1  0
  3  5  1  0
  3  2  1  0
  4  3  2  0
  6  5  1  0
  7  6  1  0
  8  7  2  0
  9 10  1  0
 10 11  1  0
 11 13  1  0
 11 12  1  6
 13 14  1  1
 14  7  1  0
 15 13  1  0
 16 15  2  0
 17 15  1  0
M  END
$$$$
