GGI.pdb
     RDKit          3D

 17 16  0  0  1  0  0  0  0  0999 V2000
    5.0842  -20.7431   21.7382 N   0  0  0  0  0  0  0  0  0  0  0  0
    6.1370  -19.9508   22.3170 C   0  0  0  0  0  0  0  0  0  0  0  0
    5.8770  -18.5208   22.1175 C   0  0  0  0  0  0  0  0  0  0  0  0
    4.8793  -18.1794   21.4275 O   0  0  0  0  0  0  0  0  0  0  0  0
    6.7223  -17.5555   22.6836 N   0  0  0  0  0  0  0  0  0  0  0  0
    6.5528  -16.1356   22.4664 C   0  0  0  0  0  0  0  0  0  0  0  0
    7.4812  -15.3670   23.3412 C   0  0  0  0  0  0  0  0  0  0  0  0
    8.5519  -14.9482   22.8667 O   0  0  0  0  0  0  0  0  0  0  0  0
    5.6719  -11.5414   26.4359 C   0  0  0  0  0  0  0  0  0  0  0  0
    6.4724  -12.4936   25.5874 C   0  0  0  0  0  0  0  0  0  0  0  0
    7.3709  -13.3812   26.4072 C   0  0  2  0  0  0  0  0  0  0  0  0
    8.2766  -12.5291   27.2149 C   0  0  0  0  0  0  0  0  0  0  0  0
    8.0334  -14.4342   25.5954 C   0  0  2  0  0  0  0  0  0  0  0  0
    7.1423  -15.1177   24.7022 N   0  0  0  0  0  0  0  0  0  0  0  0
    8.8496  -15.3871   26.3427 C   0  0  0  0  0  0  0  0  0  0  0  0
    8.4298  -16.4740   26.8170 O   0  0  0  0  0  0  0  0  0  0  0  0
   10.1828  -15.0952   26.5594 O   0  0  0  0  0  0  0  0  0  0  0  0
  1  2  1  0
  3  5  1  0
  3  2  1  0
  4  3  2  0
  6  5  1  0
  7  6  1  0
  8  7  2  0
  9 10  1  0
 10 11  1  0
 11 13  1  0
 11 12  1  6
 13 14  1  1
 14  7  1  0
 15 13  1  0
 16 15  2  0
 17 15  1  0
M  END
$$$$
