GGI.pdb
     RDKit          3D

 17 16  0  0  1  0  0  0  0  0999 V2000
    5.8027  -21.3255   24.9744 N   0  0  0  0  0  0  0  0  0  0  0  0
    6.6802  -20.4992   25.7608 C   0  0  0  0  0  0  0  0  0  0  0  0
    7.1024  -19.3202   24.9966 C   0  0  0  0  0  0  0  0  0  0  0  0
    8.3338  -19.1370   24.8009 O   0  0  0  0  0  0  0  0  0  0  0  0
    6.1539  -18.4169   24.4951 N   0  0  0  0  0  0  0  0  0  0  0  0
    6.4317  -17.5075   23.4054 C   0  0  0  0  0  0  0  0  0  0  0  0
    7.3536  -16.4288   23.8577 C   0  0  0  0  0  0  0  0  0  0  0  0
    8.2103  -15.9946   23.0676 O   0  0  0  0  0  0  0  0  0  0  0  0
    5.4634  -12.1870   26.2248 C   0  0  0  0  0  0  0  0  0  0  0  0
    6.3843  -13.0975   25.4565 C   0  0  0  0  0  0  0  0  0  0  0  0
    7.4091  -13.7597   26.3388 C   0  0  2  0  0  0  0  0  0  0  0  0
    8.2736  -12.7132   26.9357 C   0  0  0  0  0  0  0  0  0  0  0  0
    8.1220  -14.8702   25.6569 C   0  0  2  0  0  0  0  0  0  0  0  0
    7.2508  -15.9053   25.1786 N   0  0  0  0  0  0  0  0  0  0  0  0
    9.2501  -15.4396   26.3887 C   0  0  0  0  0  0  0  0  0  0  0  0
   10.3998  -14.9318   26.4429 O   0  0  0  0  0  0  0  0  0  0  0  0
    9.0671  -16.6231   27.0783 O   0  0  0  0  0  0  0  0  0  0  0  0
  1  2  1  0
  3  5  1  0
  3  2  1  0
  4  3  2  0
  6  5  1  0
  7  6  1  0
  8  7  2  0
  9 10  1  0
 10 11  1  0
 11 13  1  0
 11 12  1  6
 13 14  1  1
 14  7  1  0
 15 13  1  0
 16 15  2  0
 17 15  1  0
M  END
$$$$
