EHH.pdb
     RDKit          3D

 30 31  0  0  1  0  0  0  0  0999 V2000
    8.4806  -19.3094   17.7826 N   0  0  0  0  0  0  0  0  0  0  0  0
    7.8858  -18.7516   19.0046 C   0  0  1  0  0  0  0  0  0  0  0  0
    7.8163  -19.9067   20.0045 C   0  0  0  0  0  0  0  0  0  0  0  0
    7.1071  -21.0455   19.2640 C   0  0  0  0  0  0  0  0  0  0  0  0
    6.9548  -22.2421   20.1145 C   0  0  0  0  0  0  0  0  0  0  0  0
    7.4069  -22.2170   21.2900 O   0  0  0  0  0  0  0  0  0  0  0  0
    8.7657  -17.7216   19.5767 C   0  0  0  0  0  0  0  0  0  0  0  0
   10.0057  -17.7997   19.4448 O   0  0  0  0  0  0  0  0  0  0  0  0
    6.3288  -23.3628   19.6257 O   0  0  0  0  0  0  0  0  0  0  0  0
    8.2889  -16.5863   20.3056 N   0  0  0  0  0  0  0  0  0  0  0  0
    9.1393  -15.5686   20.8049 C   0  0  1  0  0  0  0  0  0  0  0  0
    8.6812  -14.1723   20.7704 C   0  0  0  0  0  0  0  0  0  0  0  0
    8.1672  -13.6721   19.4774 C   0  0  0  0  0  0  0  0  0  0  0  0
    6.9753  -13.0938   19.1456 C   0  0  0  0  0  0  0  0  0  0  0  0
    6.9428  -12.7587   17.8410 N   0  0  0  0  0  0  0  0  0  0  0  0
    8.1204  -13.1232   17.3324 C   0  0  0  0  0  0  0  0  0  0  0  0
    8.8724  -13.6742   18.2971 N   0  0  0  0  0  0  0  0  0  0  0  0
    9.6371  -15.8802   22.1913 C   0  0  0  0  0  0  0  0  0  0  0  0
    8.8498  -15.8030   23.1517 O   0  0  0  0  0  0  0  0  0  0  0  0
   10.9740  -16.2547   22.4045 N   0  0  0  0  0  0  0  0  0  0  0  0
   11.4342  -16.9004   23.6347 C   0  0  1  0  0  0  0  0  0  0  0  0
   11.4816  -18.3798   23.4823 C   0  0  0  0  0  0  0  0  0  0  0  0
   11.8919  -19.0172   24.7556 C   0  0  0  0  0  0  0  0  0  0  0  0
   12.1086  -18.3845   25.9805 C   0  0  0  0  0  0  0  0  0  0  0  0
   12.4665  -19.2997   26.8885 N   0  0  0  0  0  0  0  0  0  0  0  0
   12.4823  -20.4858   26.2762 C   0  0  0  0  0  0  0  0  0  0  0  0
   12.1366  -20.3228   24.9885 N   0  0  0  0  0  0  0  0  0  0  0  0
   12.7665  -16.3666   23.9387 C   0  0  0  0  0  0  0  0  0  0  0  0
   13.4071  -15.6734   23.1085 O   0  0  0  0  0  0  0  0  0  0  0  0
   13.3714  -16.6023   25.1536 O   0  0  0  0  0  0  0  0  0  0  0  0
  2  1  1  6
  3  2  1  0
  4  5  1  0
  4  3  1  0
  5  6  2  0
  7  2  1  0
  8  7  2  0
  9  5  1  0
 10  7  1  0
 11 10  1  0
 12 13  1  0
 11 12  1  1
 13 14  2  0
 15 14  1  0
 16 15  1  0
 17 16  2  0
 17 13  1  0
 18 11  1  0
 18 19  2  0
 20 18  1  0
 21 20  1  0
 21 22  1  6
 23 22  1  0
 24 23  2  0
 25 26  1  0
 25 24  1  0
 26 27  2  0
 27 23  1  0
 28 21  1  0
 29 28  2  0
 30 28  1  0
M  END
$$$$
