EHH.pdb
     RDKit          3D

 30 31  0  0  1  0  0  0  0  0999 V2000
    9.7289  -16.4344   14.8703 N   0  0  0  0  0  0  0  0  0  0  0  0
    9.6723  -17.4981   15.8820 C   0  0  1  0  0  0  0  0  0  0  0  0
   10.7121  -18.5370   15.4598 C   0  0  0  0  0  0  0  0  0  0  0  0
   11.9296  -17.7307   14.9953 C   0  0  0  0  0  0  0  0  0  0  0  0
   13.0536  -18.6065   14.6108 C   0  0  0  0  0  0  0  0  0  0  0  0
   14.2324  -18.2116   14.8143 O   0  0  0  0  0  0  0  0  0  0  0  0
   10.0755  -16.9752   17.1960 C   0  0  0  0  0  0  0  0  0  0  0  0
   10.9728  -16.1107   17.2882 O   0  0  0  0  0  0  0  0  0  0  0  0
   12.8113  -19.8322   14.0402 O   0  0  0  0  0  0  0  0  0  0  0  0
    9.4929  -17.4000   18.4319 N   0  0  0  0  0  0  0  0  0  0  0  0
    9.7806  -16.7903   19.6783 C   0  0  1  0  0  0  0  0  0  0  0  0
    8.6874  -16.1711   20.4416 C   0  0  0  0  0  0  0  0  0  0  0  0
    7.9616  -15.0628   19.7850 C   0  0  0  0  0  0  0  0  0  0  0  0
    6.7968  -15.0471   19.0722 C   0  0  0  0  0  0  0  0  0  0  0  0
    6.4832  -13.7971   18.6788 N   0  0  0  0  0  0  0  0  0  0  0  0
    7.4515  -13.0059   19.1421 C   0  0  0  0  0  0  0  0  0  0  0  0
    8.3507  -13.7444   19.8099 N   0  0  0  0  0  0  0  0  0  0  0  0
   10.5479  -17.7092   20.5913 C   0  0  0  0  0  0  0  0  0  0  0  0
   10.3852  -18.9389   20.4932 O   0  0  0  0  0  0  0  0  0  0  0  0
   11.4392  -17.1904   21.5450 N   0  0  0  0  0  0  0  0  0  0  0  0
   12.0883  -18.0181   22.5626 C   0  0  1  0  0  0  0  0  0  0  0  0
   13.5267  -17.6657   22.7078 C   0  0  0  0  0  0  0  0  0  0  0  0
   14.3116  -18.2251   21.5824 C   0  0  0  0  0  0  0  0  0  0  0  0
   13.8300  -18.9950   20.5226 C   0  0  0  0  0  0  0  0  0  0  0  0
   14.8470  -19.3078   19.7114 N   0  0  0  0  0  0  0  0  0  0  0  0
   15.9511  -18.7611   20.2251 C   0  0  0  0  0  0  0  0  0  0  0  0
   15.6356  -18.1061   21.3546 N   0  0  0  0  0  0  0  0  0  0  0  0
   11.3713  -17.8051   23.8247 C   0  0  0  0  0  0  0  0  0  0  0  0
   10.4281  -16.9794   23.9189 O   0  0  0  0  0  0  0  0  0  0  0  0
   11.7025  -18.5068   24.9627 O   0  0  0  0  0  0  0  0  0  0  0  0
  2  1  1  6
  3  2  1  0
  4  5  1  0
  4  3  1  0
  5  6  2  0
  7  2  1  0
  8  7  2  0
  9  5  1  0
 10  7  1  0
 11 10  1  0
 12 13  1  0
 11 12  1  1
 13 14  2  0
 15 14  1  0
 16 15  1  0
 17 16  2  0
 17 13  1  0
 18 11  1  0
 18 19  2  0
 20 18  1  0
 21 20  1  0
 21 22  1  1
 23 22  1  0
 24 23  2  0
 25 26  1  0
 25 24  1  0
 26 27  2  0
 27 23  1  0
 28 21  1  0
 29 28  2  0
 30 28  1  0
M  END
$$$$
