EHH.pdb
     RDKit          3D

 30 31  0  0  1  0  0  0  0  0999 V2000
   14.7586  -13.9606   17.4114 N   0  0  0  0  0  0  0  0  0  0  0  0
   13.7260  -15.0054   17.4271 C   0  0  1  0  0  0  0  0  0  0  0  0
   14.4623  -16.3218   17.6798 C   0  0  0  0  0  0  0  0  0  0  0  0
   15.7052  -15.9447   18.4930 C   0  0  0  0  0  0  0  0  0  0  0  0
   16.4919  -17.1333   18.8760 C   0  0  0  0  0  0  0  0  0  0  0  0
   16.5159  -17.4858   20.0852 O   0  0  0  0  0  0  0  0  0  0  0  0
   12.8003  -14.7920   18.5496 C   0  0  0  0  0  0  0  0  0  0  0  0
   13.0902  -13.9993   19.4709 O   0  0  0  0  0  0  0  0  0  0  0  0
   17.1850  -17.8400   17.9237 O   0  0  0  0  0  0  0  0  0  0  0  0
   11.5370  -15.4524   18.6729 N   0  0  0  0  0  0  0  0  0  0  0  0
   10.6365  -15.2169   19.7416 C   0  0  1  0  0  0  0  0  0  0  0  0
    9.2022  -15.4653   19.5369 C   0  0  0  0  0  0  0  0  0  0  0  0
    8.5057  -14.5877   18.5721 C   0  0  0  0  0  0  0  0  0  0  0  0
    8.9584  -13.5468   17.8128 C   0  0  0  0  0  0  0  0  0  0  0  0
    7.9759  -13.0442   17.0396 N   0  0  0  0  0  0  0  0  0  0  0  0
    6.8867  -13.7668   17.3036 C   0  0  0  0  0  0  0  0  0  0  0  0
    7.1811  -14.7001   18.2212 N   0  0  0  0  0  0  0  0  0  0  0  0
   11.0712  -15.9072   21.0070 C   0  0  0  0  0  0  0  0  0  0  0  0
   11.8508  -16.8743   20.9352 O   0  0  0  0  0  0  0  0  0  0  0  0
   10.6057  -15.4689   22.2577 N   0  0  0  0  0  0  0  0  0  0  0  0
   11.0243  -16.0766   23.5216 C   0  0  1  0  0  0  0  0  0  0  0  0
   10.3820  -15.4034   24.6828 C   0  0  0  0  0  0  0  0  0  0  0  0
   10.8504  -16.0059   25.9530 C   0  0  0  0  0  0  0  0  0  0  0  0
   11.7368  -17.0739   26.0999 C   0  0  0  0  0  0  0  0  0  0  0  0
   11.9100  -17.3226   27.4031 N   0  0  0  0  0  0  0  0  0  0  0  0
   11.1628  -16.4478   28.0801 C   0  0  0  0  0  0  0  0  0  0  0  0
   10.5204  -15.6499   27.2112 N   0  0  0  0  0  0  0  0  0  0  0  0
   10.6512  -17.4946   23.4717 C   0  0  0  0  0  0  0  0  0  0  0  0
    9.6299  -17.8890   22.8540 O   0  0  0  0  0  0  0  0  0  0  0  0
   11.4103  -18.4565   24.1008 O   0  0  0  0  0  0  0  0  0  0  0  0
  2  1  1  1
  3  2  1  0
  4  5  1  0
  4  3  1  0
  5  6  2  0
  7  2  1  0
  8  7  2  0
  9  5  1  0
 10  7  1  0
 11 10  1  0
 12 13  1  0
 11 12  1  6
 13 14  2  0
 15 14  1  0
 16 15  1  0
 17 16  2  0
 17 13  1  0
 18 11  1  0
 18 19  2  0
 20 18  1  0
 21 20  1  0
 21 22  1  1
 23 22  1  0
 24 23  2  0
 25 26  1  0
 25 24  1  0
 26 27  2  0
 27 23  1  0
 28 21  1  0
 29 28  2  0
 30 28  1  0
M  END
$$$$
