EHH.pdb
     RDKit          3D

 30 31  0  0  1  0  0  0  0  0999 V2000
    9.1222  -17.4658   15.4942 N   0  0  0  0  0  0  0  0  0  0  0  0
    9.9426  -18.1551   16.4992 C   0  0  1  0  0  0  0  0  0  0  0  0
   11.3250  -17.5043   16.4329 C   0  0  0  0  0  0  0  0  0  0  0  0
   11.9236  -17.9528   15.0955 C   0  0  0  0  0  0  0  0  0  0  0  0
   13.3149  -17.4877   14.9335 C   0  0  0  0  0  0  0  0  0  0  0  0
   14.2565  -18.2380   15.3041 O   0  0  0  0  0  0  0  0  0  0  0  0
    9.4047  -17.9183   17.8472 C   0  0  0  0  0  0  0  0  0  0  0  0
    8.7753  -16.8704   18.1057 O   0  0  0  0  0  0  0  0  0  0  0  0
   13.5724  -16.2544   14.3862 O   0  0  0  0  0  0  0  0  0  0  0  0
    9.5539  -18.8373   18.9337 N   0  0  0  0  0  0  0  0  0  0  0  0
    8.8921  -18.6861   20.1777 C   0  0  1  0  0  0  0  0  0  0  0  0
    8.7351  -19.8573   21.0519 C   0  0  0  0  0  0  0  0  0  0  0  0
    7.8523  -19.6970   22.2272 C   0  0  0  0  0  0  0  0  0  0  0  0
    7.0815  -18.6469   22.6375 C   0  0  0  0  0  0  0  0  0  0  0  0
    6.4052  -18.9494   23.7629 N   0  0  0  0  0  0  0  0  0  0  0  0
    6.7430  -20.2007   24.0765 C   0  0  0  0  0  0  0  0  0  0  0  0
    7.6113  -20.6702   23.1680 N   0  0  0  0  0  0  0  0  0  0  0  0
    9.4646  -17.5523   20.9863 C   0  0  0  0  0  0  0  0  0  0  0  0
   10.6990  -17.4548   21.1078 O   0  0  0  0  0  0  0  0  0  0  0  0
    8.6198  -16.6118   21.5986 N   0  0  0  0  0  0  0  0  0  0  0  0
    9.1194  -15.4202   22.2858 C   0  0  1  0  0  0  0  0  0  0  0  0
    8.1846  -14.2736   22.1263 C   0  0  0  0  0  0  0  0  0  0  0  0
    8.0828  -13.8848   20.7000 C   0  0  0  0  0  0  0  0  0  0  0  0
    6.9137  -13.7083   19.9584 C   0  0  0  0  0  0  0  0  0  0  0  0
    7.2373  -13.3577   18.7084 N   0  0  0  0  0  0  0  0  0  0  0  0
    8.5694  -13.3079   18.6389 C   0  0  0  0  0  0  0  0  0  0  0  0
    9.0865  -13.6251   19.8374 N   0  0  0  0  0  0  0  0  0  0  0  0
    9.2808  -15.7657   23.7025 C   0  0  0  0  0  0  0  0  0  0  0  0
    9.7340  -14.9422   24.5372 O   0  0  0  0  0  0  0  0  0  0  0  0
    8.9379  -17.0119   24.1784 O   0  0  0  0  0  0  0  0  0  0  0  0
  2  1  1  6
  3  2  1  0
  4  5  1  0
  4  3  1  0
  5  6  2  0
  7  2  1  0
  8  7  2  0
  9  5  1  0
 10  7  1  0
 11 10  1  0
 12 13  1  0
 11 12  1  1
 13 14  2  0
 15 14  1  0
 16 15  1  0
 17 16  2  0
 17 13  1  0
 18 11  1  0
 18 19  2  0
 20 18  1  0
 21 20  1  0
 21 22  1  1
 23 22  1  0
 24 23  2  0
 25 26  1  0
 25 24  1  0
 26 27  2  0
 27 23  1  0
 28 21  1  0
 29 28  2  0
 30 28  1  0
M  END
$$$$
