EHH.pdb
     RDKit          3D

 30 31  0  0  1  0  0  0  0  0999 V2000
   13.3548  -15.7350   13.5678 N   0  0  0  0  0  0  0  0  0  0  0  0
   12.8176  -15.5983   14.9283 C   0  0  1  0  0  0  0  0  0  0  0  0
   12.0466  -16.8889   15.2086 C   0  0  0  0  0  0  0  0  0  0  0  0
   11.6617  -16.8209   16.6903 C   0  0  0  0  0  0  0  0  0  0  0  0
   10.9449  -18.0348   17.1273 C   0  0  0  0  0  0  0  0  0  0  0  0
   10.5584  -18.1182   18.3234 O   0  0  0  0  0  0  0  0  0  0  0  0
   13.9142  -15.5154   15.9046 C   0  0  0  0  0  0  0  0  0  0  0  0
   14.7950  -16.4006   15.9481 O   0  0  0  0  0  0  0  0  0  0  0  0
   10.7059  -19.0545   16.2386 O   0  0  0  0  0  0  0  0  0  0  0  0
   14.0557  -14.4513   16.8505 N   0  0  0  0  0  0  0  0  0  0  0  0
   15.1351  -14.3603   17.7642 C   0  0  1  0  0  0  0  0  0  0  0  0
   15.7760  -13.0564   17.9875 C   0  0  0  0  0  0  0  0  0  0  0  0
   16.8466  -12.6706   17.0435 C   0  0  0  0  0  0  0  0  0  0  0  0
   17.4511  -13.3655   16.0352 C   0  0  0  0  0  0  0  0  0  0  0  0
   18.3658  -12.6065   15.4005 N   0  0  0  0  0  0  0  0  0  0  0  0
   18.3480  -11.4176   16.0042 C   0  0  0  0  0  0  0  0  0  0  0  0
   17.4429  -11.4327   16.9943 N   0  0  0  0  0  0  0  0  0  0  0  0
   14.7956  -14.9674   19.0996 C   0  0  0  0  0  0  0  0  0  0  0  0
   13.7591  -14.6065   19.6857 O   0  0  0  0  0  0  0  0  0  0  0  0
   15.6354  -15.9310   19.6822 N   0  0  0  0  0  0  0  0  0  0  0  0
   15.3276  -16.5944   20.9499 C   0  0  1  0  0  0  0  0  0  0  0  0
   15.1067  -18.0531   20.7558 C   0  0  0  0  0  0  0  0  0  0  0  0
   14.8155  -18.7083   22.0525 C   0  0  0  0  0  0  0  0  0  0  0  0
   13.6790  -18.5369   22.8443 C   0  0  0  0  0  0  0  0  0  0  0  0
   13.7878  -19.3010   23.9372 N   0  0  0  0  0  0  0  0  0  0  0  0
   14.9537  -19.9465   23.8596 C   0  0  0  0  0  0  0  0  0  0  0  0
   15.5794  -19.5935   22.7246 N   0  0  0  0  0  0  0  0  0  0  0  0
   16.4569  -16.3561   21.8556 C   0  0  0  0  0  0  0  0  0  0  0  0
   17.5691  -15.9492   21.4339 O   0  0  0  0  0  0  0  0  0  0  0  0
   16.3430  -16.5672   23.2119 O   0  0  0  0  0  0  0  0  0  0  0  0
  2  1  1  6
  3  2  1  0
  4  5  1  0
  4  3  1  0
  5  6  2  0
  7  2  1  0
  8  7  2  0
  9  5  1  0
 10  7  1  0
 11 10  1  0
 12 13  1  0
 11 12  1  1
 13 14  2  0
 15 14  1  0
 16 15  1  0
 17 16  2  0
 17 13  1  0
 18 11  1  0
 18 19  2  0
 20 18  1  0
 21 20  1  0
 21 22  1  6
 23 22  1  0
 24 23  2  0
 25 26  1  0
 25 24  1  0
 26 27  2  0
 27 23  1  0
 28 21  1  0
 29 28  2  0
 30 28  1  0
M  END
$$$$
