EHH.pdb
     RDKit          3D

 30 31  0  0  1  0  0  0  0  0999 V2000
    9.3944  -13.4828   18.2924 N   0  0  0  0  0  0  0  0  0  0  0  0
    9.5800  -14.9304   18.4610 C   0  0  1  0  0  0  0  0  0  0  0  0
   11.0906  -15.1549   18.5416 C   0  0  0  0  0  0  0  0  0  0  0  0
   11.6636  -13.8657   19.1398 C   0  0  0  0  0  0  0  0  0  0  0  0
   13.1269  -13.9454   19.3158 C   0  0  0  0  0  0  0  0  0  0  0  0
   13.5907  -14.2177   20.4550 O   0  0  0  0  0  0  0  0  0  0  0  0
    8.9966  -15.3751   19.7355 C   0  0  0  0  0  0  0  0  0  0  0  0
    8.6343  -14.5426   20.5939 O   0  0  0  0  0  0  0  0  0  0  0  0
   13.9646  -13.7250   18.2498 O   0  0  0  0  0  0  0  0  0  0  0  0
    8.8038  -16.7497   20.0831 N   0  0  0  0  0  0  0  0  0  0  0  0
    8.2509  -17.1701   21.3184 C   0  0  1  0  0  0  0  0  0  0  0  0
    7.7268  -18.5380   21.4393 C   0  0  0  0  0  0  0  0  0  0  0  0
    7.0442  -18.8798   22.7057 C   0  0  0  0  0  0  0  0  0  0  0  0
    6.7911  -18.1341   23.8215 C   0  0  0  0  0  0  0  0  0  0  0  0
    6.1050  -18.8452   24.7374 N   0  0  0  0  0  0  0  0  0  0  0  0
    5.9160  -20.0538   24.2067 C   0  0  0  0  0  0  0  0  0  0  0  0
    6.4716  -20.0978   22.9864 N   0  0  0  0  0  0  0  0  0  0  0  0
    9.1819  -16.9052   22.4716 C   0  0  0  0  0  0  0  0  0  0  0  0
   10.4087  -17.0273   22.3032 O   0  0  0  0  0  0  0  0  0  0  0  0
    8.6775  -16.5236   23.7258 N   0  0  0  0  0  0  0  0  0  0  0  0
    9.5213  -16.3735   24.9121 C   0  0  1  0  0  0  0  0  0  0  0  0
    8.7779  -15.7213   26.0240 C   0  0  0  0  0  0  0  0  0  0  0  0
    8.0936  -14.4991   25.5406 C   0  0  0  0  0  0  0  0  0  0  0  0
    8.4033  -13.7581   24.3992 C   0  0  0  0  0  0  0  0  0  0  0  0
    7.5570  -12.7261   24.3045 N   0  0  0  0  0  0  0  0  0  0  0  0
    6.7263  -12.7930   25.3472 C   0  0  0  0  0  0  0  0  0  0  0  0
    7.0443  -13.8607   26.0978 N   0  0  0  0  0  0  0  0  0  0  0  0
    9.9707  -17.7140   25.3037 C   0  0  0  0  0  0  0  0  0  0  0  0
    9.6340  -18.7395   24.6594 O   0  0  0  0  0  0  0  0  0  0  0  0
   10.7862  -17.9040   26.3974 O   0  0  0  0  0  0  0  0  0  0  0  0
  2  1  1  1
  3  2  1  0
  4  5  1  0
  4  3  1  0
  5  6  2  0
  7  2  1  0
  8  7  2  0
  9  5  1  0
 10  7  1  0
 11 10  1  0
 12 13  1  0
 11 12  1  6
 13 14  2  0
 15 14  1  0
 16 15  1  0
 17 16  2  0
 17 13  1  0
 18 11  1  0
 18 19  2  0
 20 18  1  0
 21 20  1  0
 21 22  1  1
 23 22  1  0
 24 23  2  0
 25 26  1  0
 25 24  1  0
 26 27  2  0
 27 23  1  0
 28 21  1  0
 29 28  2  0
 30 28  1  0
M  END
$$$$
