EHH.pdb
     RDKit          3D

 30 31  0  0  1  0  0  0  0  0999 V2000
   11.7489  -17.2353   15.6030 N   0  0  0  0  0  0  0  0  0  0  0  0
   10.6480  -17.7322   16.4392 C   0  0  1  0  0  0  0  0  0  0  0  0
   10.9792  -19.1930   16.7476 C   0  0  0  0  0  0  0  0  0  0  0  0
   12.4074  -19.1793   17.3028 C   0  0  0  0  0  0  0  0  0  0  0  0
   12.8683  -20.5338   17.6654 C   0  0  0  0  0  0  0  0  0  0  0  0
   12.0595  -21.3264   18.2173 O   0  0  0  0  0  0  0  0  0  0  0  0
   10.6097  -17.0063   17.7175 C   0  0  0  0  0  0  0  0  0  0  0  0
   11.6422  -16.4739   18.1776 O   0  0  0  0  0  0  0  0  0  0  0  0
   14.1605  -20.9180   17.4025 O   0  0  0  0  0  0  0  0  0  0  0  0
    9.4278  -16.8567   18.5099 N   0  0  0  0  0  0  0  0  0  0  0  0
    9.3649  -16.0423   19.6681 C   0  0  1  0  0  0  0  0  0  0  0  0
    8.1245  -15.3105   19.9620 C   0  0  0  0  0  0  0  0  0  0  0  0
    7.6081  -14.4218   18.8990 C   0  0  0  0  0  0  0  0  0  0  0  0
    7.6999  -13.0694   18.7330 C   0  0  0  0  0  0  0  0  0  0  0  0
    7.1038  -12.6772   17.5900 N   0  0  0  0  0  0  0  0  0  0  0  0
    6.6272  -13.7839   17.0188 C   0  0  0  0  0  0  0  0  0  0  0  0
    6.9184  -14.8443   17.7872 N   0  0  0  0  0  0  0  0  0  0  0  0
    9.7913  -16.7877   20.9048 C   0  0  0  0  0  0  0  0  0  0  0  0
    9.5446  -18.0038   20.9972 O   0  0  0  0  0  0  0  0  0  0  0  0
   10.4608  -16.1235   21.9458 N   0  0  0  0  0  0  0  0  0  0  0  0
   11.5460  -16.7355   22.7138 C   0  0  1  0  0  0  0  0  0  0  0  0
   12.8424  -16.0527   22.4542 C   0  0  0  0  0  0  0  0  0  0  0  0
   13.9362  -16.7217   23.1969 C   0  0  0  0  0  0  0  0  0  0  0  0
   13.8599  -17.9222   23.9046 C   0  0  0  0  0  0  0  0  0  0  0  0
   15.0573  -18.1935   24.4364 N   0  0  0  0  0  0  0  0  0  0  0  0
   15.8834  -17.2048   24.0873 C   0  0  0  0  0  0  0  0  0  0  0  0
   15.2134  -16.3127   23.3391 N   0  0  0  0  0  0  0  0  0  0  0  0
   11.1855  -16.6437   24.1329 C   0  0  0  0  0  0  0  0  0  0  0  0
   10.6230  -15.6250   24.6085 O   0  0  0  0  0  0  0  0  0  0  0  0
   11.4478  -17.6764   25.0058 O   0  0  0  0  0  0  0  0  0  0  0  0
  2  1  1  6
  3  2  1  0
  4  5  1  0
  4  3  1  0
  5  6  2  0
  7  2  1  0
  8  7  2  0
  9  5  1  0
 10  7  1  0
 11 10  1  0
 12 13  1  0
 11 12  1  1
 13 14  2  0
 15 14  1  0
 16 15  1  0
 17 16  2  0
 17 13  1  0
 18 11  1  0
 18 19  2  0
 20 18  1  0
 21 20  1  0
 21 22  1  1
 23 22  1  0
 24 23  2  0
 25 26  1  0
 25 24  1  0
 26 27  2  0
 27 23  1  0
 28 21  1  0
 29 28  2  0
 30 28  1  0
M  END
$$$$
