EHH.pdb
     RDKit          3D

 30 31  0  0  1  0  0  0  0  0999 V2000
   11.1878  -17.3421   15.7661 N   0  0  0  0  0  0  0  0  0  0  0  0
   10.8005  -18.2463   16.8572 C   0  0  1  0  0  0  0  0  0  0  0  0
   11.7735  -19.4245   16.7935 C   0  0  0  0  0  0  0  0  0  0  0  0
   12.1120  -19.5945   15.3087 C   0  0  0  0  0  0  0  0  0  0  0  0
   13.0441  -20.7165   15.0833 C   0  0  0  0  0  0  0  0  0  0  0  0
   13.7304  -20.7372   14.0271 O   0  0  0  0  0  0  0  0  0  0  0  0
   10.9871  -17.5864   18.1580 C   0  0  0  0  0  0  0  0  0  0  0  0
   12.1327  -17.3057   18.5701 O   0  0  0  0  0  0  0  0  0  0  0  0
   13.1569  -21.7195   16.0149 O   0  0  0  0  0  0  0  0  0  0  0  0
    9.9088  -17.2255   19.0265 N   0  0  0  0  0  0  0  0  0  0  0  0
   10.0955  -16.5651   20.2664 C   0  0  1  0  0  0  0  0  0  0  0  0
    8.9683  -15.8370   20.8665 C   0  0  0  0  0  0  0  0  0  0  0  0
    8.4100  -14.7131   20.0846 C   0  0  0  0  0  0  0  0  0  0  0  0
    8.7928  -14.1683   18.8921 C   0  0  0  0  0  0  0  0  0  0  0  0
    7.9704  -13.1649   18.5285 N   0  0  0  0  0  0  0  0  0  0  0  0
    7.0542  -13.0652   19.4923 C   0  0  0  0  0  0  0  0  0  0  0  0
    7.2982  -13.9854   20.4376 N   0  0  0  0  0  0  0  0  0  0  0  0
   10.6909  -17.4767   21.3062 C   0  0  0  0  0  0  0  0  0  0  0  0
   10.7433  -18.6999   21.0843 O   0  0  0  0  0  0  0  0  0  0  0  0
   11.1837  -16.9582   22.5151 N   0  0  0  0  0  0  0  0  0  0  0  0
   11.8763  -17.7779   23.5103 C   0  0  1  0  0  0  0  0  0  0  0  0
   13.2800  -18.0532   23.1002 C   0  0  0  0  0  0  0  0  0  0  0  0
   13.3342  -19.2314   22.2031 C   0  0  0  0  0  0  0  0  0  0  0  0
   12.2515  -19.9400   21.6801 C   0  0  0  0  0  0  0  0  0  0  0  0
   12.7098  -20.9368   20.9143 N   0  0  0  0  0  0  0  0  0  0  0  0
   14.0432  -20.8791   20.9383 C   0  0  0  0  0  0  0  0  0  0  0  0
   14.4271  -19.8521   21.7143 N   0  0  0  0  0  0  0  0  0  0  0  0
   11.8406  -17.0476   24.7822 C   0  0  0  0  0  0  0  0  0  0  0  0
   12.3497  -17.5188   25.8306 O   0  0  0  0  0  0  0  0  0  0  0  0
   11.2469  -15.8085   24.8792 O   0  0  0  0  0  0  0  0  0  0  0  0
  2  1  1  6
  3  2  1  0
  4  5  1  0
  4  3  1  0
  5  6  2  0
  7  2  1  0
  8  7  2  0
  9  5  1  0
 10  7  1  0
 11 10  1  0
 12 13  1  0
 11 12  1  1
 13 14  2  0
 15 14  1  0
 16 15  1  0
 17 16  2  0
 17 13  1  0
 18 11  1  0
 18 19  2  0
 20 18  1  0
 21 20  1  0
 21 22  1  6
 23 22  1  0
 24 23  2  0
 25 26  1  0
 25 24  1  0
 26 27  2  0
 27 23  1  0
 28 21  1  0
 29 28  2  0
 30 28  1  0
M  END
$$$$
