EHH.pdb
     RDKit          3D

 30 31  0  0  1  0  0  0  0  0999 V2000
   12.7461  -15.9272   13.2082 N   0  0  0  0  0  0  0  0  0  0  0  0
   11.5163  -16.4607   13.8093 C   0  0  1  0  0  0  0  0  0  0  0  0
   11.7900  -17.9396   14.0863 C   0  0  0  0  0  0  0  0  0  0  0  0
   13.3162  -18.0749   14.1103 C   0  0  0  0  0  0  0  0  0  0  0  0
   13.7405  -19.4365   14.4902 C   0  0  0  0  0  0  0  0  0  0  0  0
   12.8834  -20.2371   14.9498 O   0  0  0  0  0  0  0  0  0  0  0  0
   11.2544  -15.8082   15.1008 C   0  0  0  0  0  0  0  0  0  0  0  0
   12.1993  -15.4209   15.8207 O   0  0  0  0  0  0  0  0  0  0  0  0
   15.0516  -19.8187   14.3422 O   0  0  0  0  0  0  0  0  0  0  0  0
    9.9417  -15.5728   15.6191 N   0  0  0  0  0  0  0  0  0  0  0  0
    9.6957  -14.8782   16.8296 C   0  0  1  0  0  0  0  0  0  0  0  0
    8.3076  -14.6052   17.2288 C   0  0  0  0  0  0  0  0  0  0  0  0
    8.1127  -13.8418   18.4800 C   0  0  0  0  0  0  0  0  0  0  0  0
    8.3052  -12.5207   18.7677 C   0  0  0  0  0  0  0  0  0  0  0  0
    7.9672  -12.2454   20.0427 N   0  0  0  0  0  0  0  0  0  0  0  0
    7.5549  -13.3958   20.5763 C   0  0  0  0  0  0  0  0  0  0  0  0
    7.6335  -14.3688   19.6560 N   0  0  0  0  0  0  0  0  0  0  0  0
   10.4202  -15.5004   17.9935 C   0  0  0  0  0  0  0  0  0  0  0  0
   10.5184  -16.7392   18.0567 O   0  0  0  0  0  0  0  0  0  0  0  0
   10.9815  -14.6969   18.9997 N   0  0  0  0  0  0  0  0  0  0  0  0
   11.7171  -15.2454   20.1399 C   0  0  1  0  0  0  0  0  0  0  0  0
   12.7803  -14.3098   20.5965 C   0  0  0  0  0  0  0  0  0  0  0  0
   13.5877  -14.9311   21.6726 C   0  0  0  0  0  0  0  0  0  0  0  0
   13.4180  -16.2022   22.2232 C   0  0  0  0  0  0  0  0  0  0  0  0
   14.3440  -16.3963   23.1693 N   0  0  0  0  0  0  0  0  0  0  0  0
   15.0895  -15.2908   23.2323 C   0  0  0  0  0  0  0  0  0  0  0  0
   14.6386  -14.4020   22.3317 N   0  0  0  0  0  0  0  0  0  0  0  0
   10.7461  -15.4912   21.2118 C   0  0  0  0  0  0  0  0  0  0  0  0
    9.6925  -14.8138   21.3186 O   0  0  0  0  0  0  0  0  0  0  0  0
   10.9492  -16.4810   22.1479 O   0  0  0  0  0  0  0  0  0  0  0  0
  2  1  1  1
  3  2  1  0
  4  5  1  0
  4  3  1  0
  5  6  2  0
  7  2  1  0
  8  7  2  0
  9  5  1  0
 10  7  1  0
 11 10  1  0
 12 13  1  0
 11 12  1  1
 13 14  2  0
 15 14  1  0
 16 15  1  0
 17 16  2  0
 17 13  1  0
 18 11  1  0
 18 19  2  0
 20 18  1  0
 21 20  1  0
 21 22  1  1
 23 22  1  0
 24 23  2  0
 25 26  1  0
 25 24  1  0
 26 27  2  0
 27 23  1  0
 28 21  1  0
 29 28  2  0
 30 28  1  0
M  END
$$$$
