EHH.pdb
     RDKit          3D

 30 31  0  0  1  0  0  0  0  0999 V2000
   11.4161  -16.4717   14.5601 N   0  0  0  0  0  0  0  0  0  0  0  0
   10.9692  -16.8074   15.9187 C   0  0  1  0  0  0  0  0  0  0  0  0
   11.4915  -18.2174   16.1977 C   0  0  0  0  0  0  0  0  0  0  0  0
   12.6615  -18.0343   17.1702 C   0  0  0  0  0  0  0  0  0  0  0  0
   13.2496  -19.3274   17.5710 C   0  0  0  0  0  0  0  0  0  0  0  0
   12.5744  -20.1069   18.2945 O   0  0  0  0  0  0  0  0  0  0  0  0
   11.5887  -15.9026   16.8984 C   0  0  0  0  0  0  0  0  0  0  0  0
   12.7017  -15.3831   16.6692 O   0  0  0  0  0  0  0  0  0  0  0  0
   14.5141  -19.6696   17.1580 O   0  0  0  0  0  0  0  0  0  0  0  0
   10.9876  -15.5564   18.1498 N   0  0  0  0  0  0  0  0  0  0  0  0
   11.4376  -14.4838   18.9593 C   0  0  1  0  0  0  0  0  0  0  0  0
   10.5907  -13.2909   19.1025 C   0  0  0  0  0  0  0  0  0  0  0  0
    9.1950  -13.4046   18.6278 C   0  0  0  0  0  0  0  0  0  0  0  0
    8.0075  -13.1639   19.2580 C   0  0  0  0  0  0  0  0  0  0  0  0
    6.9655  -13.3688   18.4286 N   0  0  0  0  0  0  0  0  0  0  0  0
    7.4868  -13.7424   17.2595 C   0  0  0  0  0  0  0  0  0  0  0  0
    8.8246  -13.7708   17.3554 N   0  0  0  0  0  0  0  0  0  0  0  0
   11.8544  -14.9483   20.3295 C   0  0  0  0  0  0  0  0  0  0  0  0
   12.3836  -14.1379   21.1114 O   0  0  0  0  0  0  0  0  0  0  0  0
   11.6505  -16.2801   20.7267 N   0  0  0  0  0  0  0  0  0  0  0  0
   11.9235  -16.7580   22.0827 C   0  0  1  0  0  0  0  0  0  0  0  0
   10.7277  -17.4181   22.6732 C   0  0  0  0  0  0  0  0  0  0  0  0
    9.5540  -16.5160   22.6061 C   0  0  0  0  0  0  0  0  0  0  0  0
    9.4114  -15.2748   23.2283 C   0  0  0  0  0  0  0  0  0  0  0  0
    8.2099  -14.7694   22.9262 N   0  0  0  0  0  0  0  0  0  0  0  0
    7.5927  -15.6503   22.1357 C   0  0  0  0  0  0  0  0  0  0  0  0
    8.3980  -16.7071   21.9384 N   0  0  0  0  0  0  0  0  0  0  0  0
   13.0472  -17.6976   21.9992 C   0  0  0  0  0  0  0  0  0  0  0  0
   13.6136  -17.9566   20.9073 O   0  0  0  0  0  0  0  0  0  0  0  0
   13.5313  -18.3352   23.1201 O   0  0  0  0  0  0  0  0  0  0  0  0
  2  1  1  6
  3  2  1  0
  4  5  1  0
  4  3  1  0
  5  6  2  0
  7  2  1  0
  8  7  2  0
  9  5  1  0
 10  7  1  0
 11 10  1  0
 12 13  1  0
 11 12  1  1
 13 14  2  0
 15 14  1  0
 16 15  1  0
 17 16  2  0
 17 13  1  0
 18 11  1  0
 18 19  2  0
 20 18  1  0
 21 20  1  0
 21 22  1  6
 23 22  1  0
 24 23  2  0
 25 26  1  0
 25 24  1  0
 26 27  2  0
 27 23  1  0
 28 21  1  0
 29 28  2  0
 30 28  1  0
M  END
$$$$
