EHH.pdb
     RDKit          3D

 30 31  0  0  1  0  0  0  0  0999 V2000
    9.8288  -17.3078   18.0452 N   0  0  0  0  0  0  0  0  0  0  0  0
    9.4254  -17.9765   19.2895 C   0  0  1  0  0  0  0  0  0  0  0  0
   10.5216  -18.9988   19.5930 C   0  0  0  0  0  0  0  0  0  0  0  0
   11.5244  -18.8763   18.4407 C   0  0  0  0  0  0  0  0  0  0  0  0
   12.6481  -19.8217   18.5883 C   0  0  0  0  0  0  0  0  0  0  0  0
   12.4198  -21.0581   18.5112 O   0  0  0  0  0  0  0  0  0  0  0  0
    9.3964  -17.0137   20.4006 C   0  0  0  0  0  0  0  0  0  0  0  0
   10.1498  -16.0169   20.3980 O   0  0  0  0  0  0  0  0  0  0  0  0
   13.9211  -19.3540   18.8063 O   0  0  0  0  0  0  0  0  0  0  0  0
    8.5330  -17.1368   21.5349 N   0  0  0  0  0  0  0  0  0  0  0  0
    8.4771  -16.1793   22.5782 C   0  0  1  0  0  0  0  0  0  0  0  0
    7.1659  -15.7372   23.0744 C   0  0  0  0  0  0  0  0  0  0  0  0
    7.1679  -14.6917   24.1200 C   0  0  0  0  0  0  0  0  0  0  0  0
    7.7548  -13.4592   24.1593 C   0  0  0  0  0  0  0  0  0  0  0  0
    7.4661  -12.8186   25.3091 N   0  0  0  0  0  0  0  0  0  0  0  0
    6.6891  -13.6440   26.0113 C   0  0  0  0  0  0  0  0  0  0  0  0
    6.4964  -14.7755   25.3168 N   0  0  0  0  0  0  0  0  0  0  0  0
    9.3302  -16.5761   23.7535 C   0  0  0  0  0  0  0  0  0  0  0  0
    9.0685  -17.6260   24.3680 O   0  0  0  0  0  0  0  0  0  0  0  0
   10.4111  -15.7747   24.1565 N   0  0  0  0  0  0  0  0  0  0  0  0
   10.7471  -15.5372   25.5610 C   0  0  1  0  0  0  0  0  0  0  0  0
    9.5970  -14.9478   26.2987 C   0  0  0  0  0  0  0  0  0  0  0  0
    9.9308  -14.7886   27.7336 C   0  0  0  0  0  0  0  0  0  0  0  0
   10.7156  -13.7874   28.3078 C   0  0  0  0  0  0  0  0  0  0  0  0
   10.7817  -13.9872   29.6291 N   0  0  0  0  0  0  0  0  0  0  0  0
   10.0657  -15.0794   29.9049 C   0  0  0  0  0  0  0  0  0  0  0  0
    9.5492  -15.5685   28.7655 N   0  0  0  0  0  0  0  0  0  0  0  0
   11.1324  -16.8270   26.1444 C   0  0  0  0  0  0  0  0  0  0  0  0
   12.3281  -17.0967   26.4232 O   0  0  0  0  0  0  0  0  0  0  0  0
   10.1943  -17.7988   26.4142 O   0  0  0  0  0  0  0  0  0  0  0  0
  2  1  1  6
  3  2  1  0
  4  5  1  0
  4  3  1  0
  5  6  2  0
  7  2  1  0
  8  7  2  0
  9  5  1  0
 10  7  1  0
 11 10  1  0
 12 13  1  0
 11 12  1  1
 13 14  2  0
 15 14  1  0
 16 15  1  0
 17 16  2  0
 17 13  1  0
 18 11  1  0
 18 19  2  0
 20 18  1  0
 21 20  1  0
 21 22  1  1
 23 22  1  0
 24 23  2  0
 25 26  1  0
 25 24  1  0
 26 27  2  0
 27 23  1  0
 28 21  1  0
 29 28  2  0
 30 28  1  0
M  END
$$$$
