EHH.pdb
     RDKit          3D

 30 31  0  0  1  0  0  0  0  0999 V2000
   11.4308  -16.7367   17.0647 N   0  0  0  0  0  0  0  0  0  0  0  0
   10.7671  -17.5593   18.0850 C   0  0  1  0  0  0  0  0  0  0  0  0
   11.6296  -18.8123   18.2426 C   0  0  0  0  0  0  0  0  0  0  0  0
   13.0623  -18.3628   17.9367 C   0  0  0  0  0  0  0  0  0  0  0  0
   14.0198  -19.4824   18.0265 C   0  0  0  0  0  0  0  0  0  0  0  0
   13.6789  -20.6137   17.5894 O   0  0  0  0  0  0  0  0  0  0  0  0
   10.7591  -16.8604   19.3788 C   0  0  0  0  0  0  0  0  0  0  0  0
   11.7254  -16.1464   19.7218 O   0  0  0  0  0  0  0  0  0  0  0  0
   15.2620  -19.2874   18.5793 O   0  0  0  0  0  0  0  0  0  0  0  0
    9.6814  -16.9393   20.3167 N   0  0  0  0  0  0  0  0  0  0  0  0
    9.6283  -16.1734   21.5078 C   0  0  1  0  0  0  0  0  0  0  0  0
    8.3834  -15.4721   21.8530 C   0  0  0  0  0  0  0  0  0  0  0  0
    7.8018  -14.5972   20.8126 C   0  0  0  0  0  0  0  0  0  0  0  0
    6.7131  -14.7607   20.0044 C   0  0  0  0  0  0  0  0  0  0  0  0
    6.5260  -13.6846   19.2153 N   0  0  0  0  0  0  0  0  0  0  0  0
    7.4994  -12.8253   19.5189 C   0  0  0  0  0  0  0  0  0  0  0  0
    8.2780  -13.3521   20.4761 N   0  0  0  0  0  0  0  0  0  0  0  0
   10.0874  -16.9617   22.7056 C   0  0  0  0  0  0  0  0  0  0  0  0
    9.6665  -18.1213   22.8680 O   0  0  0  0  0  0  0  0  0  0  0  0
   10.9810  -16.4002   23.6325 N   0  0  0  0  0  0  0  0  0  0  0  0
   11.4240  -17.1018   24.8381 C   0  0  1  0  0  0  0  0  0  0  0  0
   12.7153  -16.5555   25.3364 C   0  0  0  0  0  0  0  0  0  0  0  0
   13.7899  -16.7813   24.3414 C   0  0  0  0  0  0  0  0  0  0  0  0
   13.7007  -17.5211   23.1613 C   0  0  0  0  0  0  0  0  0  0  0  0
   14.8821  -17.4884   22.5340 N   0  0  0  0  0  0  0  0  0  0  0  0
   15.7106  -16.7537   23.2794 C   0  0  0  0  0  0  0  0  0  0  0  0
   15.0582  -16.3236   24.3720 N   0  0  0  0  0  0  0  0  0  0  0  0
   10.3708  -16.9479   25.8477 C   0  0  0  0  0  0  0  0  0  0  0  0
    9.3411  -16.2602   25.6305 O   0  0  0  0  0  0  0  0  0  0  0  0
   10.4666  -17.5561   27.0798 O   0  0  0  0  0  0  0  0  0  0  0  0
  2  1  1  6
  3  2  1  0
  4  5  1  0
  4  3  1  0
  5  6  2  0
  7  2  1  0
  8  7  2  0
  9  5  1  0
 10  7  1  0
 11 10  1  0
 12 13  1  0
 11 12  1  1
 13 14  2  0
 15 14  1  0
 16 15  1  0
 17 16  2  0
 17 13  1  0
 18 11  1  0
 18 19  2  0
 20 18  1  0
 21 20  1  0
 21 22  1  1
 23 22  1  0
 24 23  2  0
 25 26  1  0
 25 24  1  0
 26 27  2  0
 27 23  1  0
 28 21  1  0
 29 28  2  0
 30 28  1  0
M  END
$$$$
