EHH.pdb
     RDKit          3D

 30 31  0  0  1  0  0  0  0  0999 V2000
    9.7437  -13.8347   18.5425 N   0  0  0  0  0  0  0  0  0  0  0  0
    8.3841  -13.7761   19.0959 C   0  0  1  0  0  0  0  0  0  0  0  0
    7.4569  -14.2824   17.9900 C   0  0  0  0  0  0  0  0  0  0  0  0
    7.9966  -13.6706   16.6929 C   0  0  0  0  0  0  0  0  0  0  0  0
    7.7249  -14.5318   15.5254 C   0  0  0  0  0  0  0  0  0  0  0  0
    6.9099  -14.1350   14.6506 O   0  0  0  0  0  0  0  0  0  0  0  0
    8.2570  -14.6949   20.2370 C   0  0  0  0  0  0  0  0  0  0  0  0
    7.1740  -14.8000   20.8512 O   0  0  0  0  0  0  0  0  0  0  0  0
    8.3544  -15.7462   15.4006 O   0  0  0  0  0  0  0  0  0  0  0  0
    9.3265  -15.5140   20.7190 N   0  0  0  0  0  0  0  0  0  0  0  0
    9.1744  -16.4554   21.7674 C   0  0  1  0  0  0  0  0  0  0  0  0
    9.4438  -17.8754   21.4989 C   0  0  0  0  0  0  0  0  0  0  0  0
   10.4673  -18.1768   20.4753 C   0  0  0  0  0  0  0  0  0  0  0  0
   11.2991  -17.3583   19.7659 C   0  0  0  0  0  0  0  0  0  0  0  0
   12.1044  -18.0690   18.9523 N   0  0  0  0  0  0  0  0  0  0  0  0
   11.7884  -19.3507   19.1408 C   0  0  0  0  0  0  0  0  0  0  0  0
   10.8073  -19.4397   20.0515 N   0  0  0  0  0  0  0  0  0  0  0  0
    9.9266  -16.0462   23.0057 C   0  0  0  0  0  0  0  0  0  0  0  0
   10.9709  -15.3794   22.8904 O   0  0  0  0  0  0  0  0  0  0  0  0
    9.4598  -16.4095   24.2797 N   0  0  0  0  0  0  0  0  0  0  0  0
   10.0780  -15.9377   25.5195 C   0  0  1  0  0  0  0  0  0  0  0  0
    9.1156  -15.1504   26.3369 C   0  0  0  0  0  0  0  0  0  0  0  0
    9.7242  -14.7788   27.6358 C   0  0  0  0  0  0  0  0  0  0  0  0
   10.9858  -15.1439   28.1078 C   0  0  0  0  0  0  0  0  0  0  0  0
   11.1699  -14.6112   29.3214 N   0  0  0  0  0  0  0  0  0  0  0  0
   10.0673  -13.9241   29.6281 C   0  0  0  0  0  0  0  0  0  0  0  0
    9.1903  -14.0209   28.6153 N   0  0  0  0  0  0  0  0  0  0  0  0
   10.5408  -17.1188   26.2565 C   0  0  0  0  0  0  0  0  0  0  0  0
   11.4214  -17.0385   27.1500 O   0  0  0  0  0  0  0  0  0  0  0  0
   10.0245  -18.3698   25.9997 O   0  0  0  0  0  0  0  0  0  0  0  0
  2  1  1  6
  3  2  1  0
  4  5  1  0
  4  3  1  0
  5  6  2  0
  7  2  1  0
  8  7  2  0
  9  5  1  0
 10  7  1  0
 11 10  1  0
 12 13  1  0
 11 12  1  6
 13 14  2  0
 15 14  1  0
 16 15  1  0
 17 16  2  0
 17 13  1  0
 18 11  1  0
 18 19  2  0
 20 18  1  0
 21 20  1  0
 21 22  1  1
 23 22  1  0
 24 23  2  0
 25 26  1  0
 25 24  1  0
 26 27  2  0
 27 23  1  0
 28 21  1  0
 29 28  2  0
 30 28  1  0
M  END
$$$$
