FIM.pdb
     RDKit          3D

 28 28  0  0  1  0  0  0  0  0999 V2000
   22.1166  -21.8013  -15.8442 N   0  0  0  0  0  0  0  0  0  0  0  0
   22.6505  -20.6002  -15.2616 C   0  0  1  0  0  0  0  0  0  0  0  0
   21.5948  -20.0596  -14.2971 C   0  0  0  0  0  0  0  0  0  0  0  0
   20.4144  -19.5548  -15.0317 C   0  0  0  0  0  0  0  0  0  0  0  0
   20.5423  -18.4243  -15.8065 C   0  0  0  0  0  0  0  0  0  0  0  0
   19.4783  -17.9030  -16.5181 C   0  0  0  0  0  0  0  0  0  0  0  0
   18.2569  -18.5373  -16.4456 C   0  0  0  0  0  0  0  0  0  0  0  0
   18.1428  -19.6655  -15.6683 C   0  0  0  0  0  0  0  0  0  0  0  0
   19.2068  -20.1935  -14.9520 C   0  0  0  0  0  0  0  0  0  0  0  0
   23.8522  -20.9210  -14.4504 C   0  0  0  0  0  0  0  0  0  0  0  0
   23.8775  -21.9205  -13.6818 O   0  0  0  0  0  0  0  0  0  0  0  0
   28.9603  -19.5873  -16.1454 C   0  0  0  0  0  0  0  0  0  0  0  0
   27.7555  -20.2676  -15.5571 C   0  0  0  0  0  0  0  0  0  0  0  0
   27.4240  -19.7321  -14.1769 C   0  0  2  0  0  0  0  0  0  0  0  0
   28.5536  -20.1212  -13.2467 C   0  0  0  0  0  0  0  0  0  0  0  0
   26.1712  -20.3875  -13.6224 C   0  0  2  0  0  0  0  0  0  0  0  0
   25.0439  -20.1346  -14.4816 N   0  0  0  0  0  0  0  0  0  0  0  0
   25.9223  -20.0256  -12.2208 C   0  0  0  0  0  0  0  0  0  0  0  0
   25.4472  -18.8904  -11.9553 O   0  0  0  0  0  0  0  0  0  0  0  0
   21.6267  -21.1439   -9.0245 C   0  0  0  0  0  0  0  0  0  0  0  0
   22.6510  -21.3882   -7.5256 S   0  0  0  0  0  0  0  0  0  0  0  0
   24.2759  -20.5938   -7.8605 C   0  0  0  0  0  0  0  0  0  0  0  0
   24.6506  -21.0178   -9.2595 C   0  0  0  0  0  0  0  0  0  0  0  0
   25.9573  -20.4653   -9.7321 C   0  0  2  0  0  0  0  0  0  0  0  0
   26.1807  -20.8745  -11.1124 N   0  0  0  0  0  0  0  0  0  0  0  0
   27.1061  -20.7371   -8.8772 C   0  0  0  0  0  0  0  0  0  0  0  0
   27.1326  -20.3216   -7.6976 O   0  0  0  0  0  0  0  0  0  0  0  0
   28.1995  -21.4576   -9.3343 O   0  0  0  0  0  0  0  0  0  0  0  0
  2  1  1  1
  2 10  1  0
  2  3  1  0
  3  4  1  0
  4  9  2  0
  5  4  1  0
  5  6  2  0
  6  7  1  0
  7  8  2  0
  9  8  1  0
 10 11  2  0
 10 17  1  0
 13 12  1  0
 14 15  1  1
 14 13  1  0
 16 14  1  0
 16 17  1  6
 18 16  1  0
 18 19  2  0
 20 21  1  0
 21 22  1  0
 22 23  1  0
 24 23  1  1
 24 25  1  0
 25 18  1  0
 26 24  1  0
 26 28  1  0
 27 26  2  0
M  END
$$$$
