FIM.pdb
     RDKit          3D

 28 28  0  0  1  0  0  0  0  0999 V2000
   24.0481  -21.0142  -15.8969 N   0  0  0  0  0  0  0  0  0  0  0  0
   24.1995  -20.2113  -14.7138 C   0  0  1  0  0  0  0  0  0  0  0  0
   22.8353  -20.1607  -14.0261 C   0  0  0  0  0  0  0  0  0  0  0  0
   21.8574  -19.4091  -14.8426 C   0  0  0  0  0  0  0  0  0  0  0  0
   20.5959  -19.9298  -15.0223 C   0  0  0  0  0  0  0  0  0  0  0  0
   19.6367  -19.2763  -15.7726 C   0  0  0  0  0  0  0  0  0  0  0  0
   19.9583  -18.0694  -16.3553 C   0  0  0  0  0  0  0  0  0  0  0  0
   21.2216  -17.5605  -16.1678 C   0  0  0  0  0  0  0  0  0  0  0  0
   22.1885  -18.2115  -15.4159 C   0  0  0  0  0  0  0  0  0  0  0  0
   25.1349  -20.8724  -13.7688 C   0  0  0  0  0  0  0  0  0  0  0  0
   25.1368  -22.1239  -13.6149 O   0  0  0  0  0  0  0  0  0  0  0  0
   30.0083  -21.6727  -13.9375 C   0  0  0  0  0  0  0  0  0  0  0  0
   28.7728  -20.8187  -13.8703 C   0  0  0  0  0  0  0  0  0  0  0  0
   28.4405  -20.4196  -12.4449 C   0  0  2  0  0  0  0  0  0  0  0  0
   29.3324  -21.2215  -11.5206 C   0  0  0  0  0  0  0  0  0  0  0  0
   27.0125  -20.7959  -12.0904 C   0  0  2  0  0  0  0  0  0  0  0  0
   26.0823  -20.1510  -12.9804 N   0  0  0  0  0  0  0  0  0  0  0  0
   26.7080  -20.5676  -10.6717 C   0  0  0  0  0  0  0  0  0  0  0  0
   26.2535  -19.4493  -10.3140 O   0  0  0  0  0  0  0  0  0  0  0  0
   29.6369  -19.3787   -5.6609 C   0  0  0  0  0  0  0  0  0  0  0  0
   27.9986  -18.5602   -5.7042 S   0  0  0  0  0  0  0  0  0  0  0  0
   26.7915  -19.8237   -6.2786 C   0  0  0  0  0  0  0  0  0  0  0  0
   27.2782  -20.2560   -7.6401 C   0  0  0  0  0  0  0  0  0  0  0  0
   26.4420  -21.3213   -8.2740 C   0  0  2  0  0  0  0  0  0  0  0  0
   26.8893  -21.5309   -9.6446 N   0  0  0  0  0  0  0  0  0  0  0  0
   24.9996  -21.1334   -8.1809 C   0  0  0  0  0  0  0  0  0  0  0  0
   24.4091  -20.3530   -8.9599 O   0  0  0  0  0  0  0  0  0  0  0  0
   24.2375  -21.8048   -7.2364 O   0  0  0  0  0  0  0  0  0  0  0  0
  2  1  1  6
  2 10  1  0
  2  3  1  0
  3  4  1  0
  4  9  2  0
  5  4  1  0
  5  6  2  0
  6  7  1  0
  7  8  2  0
  9  8  1  0
 10 11  2  0
 10 17  1  0
 13 12  1  0
 14 15  1  1
 14 13  1  0
 16 14  1  0
 16 17  1  6
 18 16  1  0
 18 19  2  0
 20 21  1  0
 21 22  1  0
 22 23  1  0
 24 23  1  6
 24 25  1  0
 25 18  1  0
 26 24  1  0
 26 28  1  0
 27 26  2  0
M  END
$$$$
