FIM.pdb
     RDKit          3D

 28 28  0  0  1  0  0  0  0  0999 V2000
   28.4551  -20.7027   -8.8111 N   0  0  0  0  0  0  0  0  0  0  0  0
   27.0241  -20.6795   -8.6731 C   0  0  1  0  0  0  0  0  0  0  0  0
   26.6809  -19.5235   -7.7336 C   0  0  0  0  0  0  0  0  0  0  0  0
   27.3692  -19.6748   -6.4332 C   0  0  0  0  0  0  0  0  0  0  0  0
   26.9111  -20.6164   -5.5398 C   0  0  0  0  0  0  0  0  0  0  0  0
   27.5109  -20.8078   -4.3094 C   0  0  0  0  0  0  0  0  0  0  0  0
   28.5981  -20.0305   -3.9730 C   0  0  0  0  0  0  0  0  0  0  0  0
   29.0457  -19.0939   -4.8744 C   0  0  0  0  0  0  0  0  0  0  0  0
   28.4481  -18.8972   -6.1106 C   0  0  0  0  0  0  0  0  0  0  0  0
   26.3935  -20.3735   -9.9822 C   0  0  0  0  0  0  0  0  0  0  0  0
   26.5426  -19.2505  -10.5360 O   0  0  0  0  0  0  0  0  0  0  0  0
   28.3522  -21.5954  -13.9355 C   0  0  0  0  0  0  0  0  0  0  0  0
   27.3974  -21.0222  -12.9255 C   0  0  0  0  0  0  0  0  0  0  0  0
   26.0039  -21.6035  -13.0743 C   0  0  2  0  0  0  0  0  0  0  0  0
   25.4511  -21.1435  -14.4068 C   0  0  0  0  0  0  0  0  0  0  0  0
   25.0665  -21.0553  -12.0126 C   0  0  2  0  0  0  0  0  0  0  0  0
   25.5870  -21.3122  -10.6950 N   0  0  0  0  0  0  0  0  0  0  0  0
   23.6850  -21.5217  -12.1894 C   0  0  0  0  0  0  0  0  0  0  0  0
   23.1085  -22.1078  -11.2358 O   0  0  0  0  0  0  0  0  0  0  0  0
   20.6680  -18.5272  -10.3467 C   0  0  0  0  0  0  0  0  0  0  0  0
   19.0637  -19.1474  -10.9769 S   0  0  0  0  0  0  0  0  0  0  0  0
   19.4474  -20.2889  -12.3672 C   0  0  0  0  0  0  0  0  0  0  0  0
   20.9514  -20.4119  -12.3838 C   0  0  0  0  0  0  0  0  0  0  0  0
   21.4706  -21.3789  -13.3994 C   0  0  2  0  0  0  0  0  0  0  0  0
   22.9273  -21.3607  -13.3792 N   0  0  0  0  0  0  0  0  0  0  0  0
   20.9298  -21.2350  -14.7452 C   0  0  0  0  0  0  0  0  0  0  0  0
   21.5567  -20.5923  -15.6163 O   0  0  0  0  0  0  0  0  0  0  0  0
   19.7149  -21.7984  -15.1058 O   0  0  0  0  0  0  0  0  0  0  0  0
  2  1  1  6
  2 10  1  0
  2  3  1  0
  3  4  1  0
  4  9  2  0
  5  4  1  0
  5  6  2  0
  6  7  1  0
  7  8  2  0
  9  8  1  0
 10 11  2  0
 10 17  1  0
 13 12  1  0
 14 15  1  6
 14 13  1  0
 16 14  1  0
 16 17  1  1
 18 16  1  0
 18 19  2  0
 20 21  1  0
 21 22  1  0
 22 23  1  0
 24 23  1  1
 24 25  1  0
 25 18  1  0
 26 24  1  0
 26 28  1  0
 27 26  2  0
M  END
$$$$
