FIM.pdb
     RDKit          3D

 28 28  0  0  1  0  0  0  0  0999 V2000
   19.0910  -11.1151  -18.6706 N   0  0  0  0  0  0  0  0  0  0  0  0
   20.1458  -10.1469  -18.5398 C   0  0  1  0  0  0  0  0  0  0  0  0
   19.8532   -9.0246  -19.5356 C   0  0  0  0  0  0  0  0  0  0  0  0
   19.9847   -9.5041  -20.9286 C   0  0  0  0  0  0  0  0  0  0  0  0
   21.2347   -9.8164  -21.4130 C   0  0  0  0  0  0  0  0  0  0  0  0
   21.4244  -10.2706  -22.7045 C   0  0  0  0  0  0  0  0  0  0  0  0
   20.3271  -10.4124  -23.5262 C   0  0  0  0  0  0  0  0  0  0  0  0
   19.0844  -10.0971  -23.0300 C   0  0  0  0  0  0  0  0  0  0  0  0
   18.8875   -9.6410  -21.7348 C   0  0  0  0  0  0  0  0  0  0  0  0
   20.1127   -9.5409  -17.1846 C   0  0  0  0  0  0  0  0  0  0  0  0
   19.0621   -9.5498  -16.4872 O   0  0  0  0  0  0  0  0  0  0  0  0
   22.6826   -9.3415  -11.8833 C   0  0  0  0  0  0  0  0  0  0  0  0
   21.9583   -8.5041  -12.9005 C   0  0  0  0  0  0  0  0  0  0  0  0
   21.9525   -9.1596  -14.2687 C   0  0  2  0  0  0  0  0  0  0  0  0
   23.3858   -9.2353  -14.7509 C   0  0  0  0  0  0  0  0  0  0  0  0
   21.2077   -8.3065  -15.2805 C   0  0  2  0  0  0  0  0  0  0  0  0
   21.2478   -8.9154  -16.5847 N   0  0  0  0  0  0  0  0  0  0  0  0
   21.6634   -6.9101  -15.2805 C   0  0  0  0  0  0  0  0  0  0  0  0
   22.8414   -6.6492  -15.6400 O   0  0  0  0  0  0  0  0  0  0  0  0
   21.4501   -2.1134  -19.1135 C   0  0  0  0  0  0  0  0  0  0  0  0
   20.3752   -1.6273  -17.7120 S   0  0  0  0  0  0  0  0  0  0  0  0
   21.1792   -2.2619  -16.1843 C   0  0  0  0  0  0  0  0  0  0  0  0
   20.7372   -3.6998  -16.0641 C   0  0  0  0  0  0  0  0  0  0  0  0
   21.3501   -4.4294  -14.9117 C   0  0  2  0  0  0  0  0  0  0  0  0
   20.8622   -5.8021  -14.8981 N   0  0  0  0  0  0  0  0  0  0  0  0
   21.2251   -3.7804  -13.6126 C   0  0  0  0  0  0  0  0  0  0  0  0
   20.4398   -4.2320  -12.7499 O   0  0  0  0  0  0  0  0  0  0  0  0
   21.9631   -2.6517  -13.2886 O   0  0  0  0  0  0  0  0  0  0  0  0
  2  1  1  1
  2 10  1  0
  2  3  1  0
  3  4  1  0
  4  9  2  0
  5  4  1  0
  5  6  2  0
  6  7  1  0
  7  8  2  0
  9  8  1  0
 10 11  2  0
 10 17  1  0
 13 12  1  0
 14 15  1  6
 14 13  1  0
 16 14  1  0
 16 17  1  6
 18 16  1  0
 18 19  2  0
 20 21  1  0
 21 22  1  0
 22 23  1  0
 24 23  1  6
 24 25  1  0
 25 18  1  0
 26 24  1  0
 26 28  1  0
 27 26  2  0
M  END
$$$$
