FIM.pdb
     RDKit          3D

 28 28  0  0  1  0  0  0  0  0999 V2000
   21.8420  -20.9110  -15.8709 N   0  0  0  0  0  0  0  0  0  0  0  0
   22.6997  -19.9047  -15.3063 C   0  0  1  0  0  0  0  0  0  0  0  0
   21.8167  -18.9766  -14.4722 C   0  0  0  0  0  0  0  0  0  0  0  0
   21.0078  -18.0931  -15.3398 C   0  0  0  0  0  0  0  0  0  0  0  0
   21.6438  -17.1382  -16.1004 C   0  0  0  0  0  0  0  0  0  0  0  0
   20.9454  -16.2832  -16.9319 C   0  0  0  0  0  0  0  0  0  0  0  0
   19.5733  -16.3945  -16.9971 C   0  0  0  0  0  0  0  0  0  0  0  0
   18.9505  -17.3524  -16.2325 C   0  0  0  0  0  0  0  0  0  0  0  0
   19.6458  -18.2134  -15.3963 C   0  0  0  0  0  0  0  0  0  0  0  0
   23.6701  -20.5310  -14.3730 C   0  0  0  0  0  0  0  0  0  0  0  0
   23.3410  -21.5012  -13.6377 O   0  0  0  0  0  0  0  0  0  0  0  0
   28.9978  -20.9317  -15.6088 C   0  0  0  0  0  0  0  0  0  0  0  0
   27.6106  -21.1772  -15.0835 C   0  0  0  0  0  0  0  0  0  0  0  0
   27.3753  -20.4704  -13.7619 C   0  0  2  0  0  0  0  0  0  0  0  0
   28.2511  -21.1346  -12.7203 C   0  0  0  0  0  0  0  0  0  0  0  0
   25.9427  -20.6523  -13.2920 C   0  0  2  0  0  0  0  0  0  0  0  0
   25.0213  -20.0874  -14.2433 N   0  0  0  0  0  0  0  0  0  0  0  0
   25.7346  -20.1607  -11.9236 C   0  0  0  0  0  0  0  0  0  0  0  0
   25.6087  -18.9232  -11.7288 O   0  0  0  0  0  0  0  0  0  0  0  0
   21.3320  -21.5335   -7.9649 C   0  0  0  0  0  0  0  0  0  0  0  0
   22.6879  -21.7945   -6.7611 S   0  0  0  0  0  0  0  0  0  0  0  0
   24.1077  -20.7756   -7.3350 C   0  0  0  0  0  0  0  0  0  0  0  0
   24.3424  -21.1833   -8.7688 C   0  0  0  0  0  0  0  0  0  0  0  0
   25.4748  -20.4625   -9.4277 C   0  0  2  0  0  0  0  0  0  0  0  0
   25.6617  -20.9894  -10.7731 N   0  0  0  0  0  0  0  0  0  0  0  0
   26.7195  -20.4123   -8.6708 C   0  0  0  0  0  0  0  0  0  0  0  0
   27.6307  -21.2404   -8.8911 O   0  0  0  0  0  0  0  0  0  0  0  0
   26.9370  -19.4561   -7.6901 O   0  0  0  0  0  0  0  0  0  0  0  0
  2  1  1  1
  2 10  1  0
  2  3  1  0
  3  4  1  0
  4  9  2  0
  5  4  1  0
  5  6  2  0
  6  7  1  0
  7  8  2  0
  9  8  1  0
 10 11  2  0
 10 17  1  0
 13 12  1  0
 14 15  1  1
 14 13  1  0
 16 14  1  0
 16 17  1  6
 18 16  1  0
 18 19  2  0
 20 21  1  0
 21 22  1  0
 22 23  1  0
 24 23  1  1
 24 25  1  0
 25 18  1  0
 26 24  1  0
 26 28  1  0
 27 26  2  0
M  END
$$$$
