FIM.pdb
     RDKit          3D

 28 28  0  0  1  0  0  0  0  0999 V2000
   26.9803  -21.9248   -9.2449 N   0  0  0  0  0  0  0  0  0  0  0  0
   26.4836  -20.5786   -9.3337 C   0  0  1  0  0  0  0  0  0  0  0  0
   27.6602  -19.6446   -9.0508 C   0  0  0  0  0  0  0  0  0  0  0  0
   28.1575  -19.8219   -7.6691 C   0  0  0  0  0  0  0  0  0  0  0  0
   27.4380  -19.2852   -6.6255 C   0  0  0  0  0  0  0  0  0  0  0  0
   27.8482  -19.4170   -5.3123 C   0  0  0  0  0  0  0  0  0  0  0  0
   29.0117  -20.1062   -5.0463 C   0  0  0  0  0  0  0  0  0  0  0  0
   29.7207  -20.6374   -6.0976 C   0  0  0  0  0  0  0  0  0  0  0  0
   29.3142  -20.5086   -7.4176 C   0  0  0  0  0  0  0  0  0  0  0  0
   26.0314  -20.2954  -10.7195 C   0  0  0  0  0  0  0  0  0  0  0  0
   25.5605  -19.1701  -11.0392 O   0  0  0  0  0  0  0  0  0  0  0  0
   29.0027  -21.5853  -14.8118 C   0  0  0  0  0  0  0  0  0  0  0  0
   27.9968  -21.0047  -13.8572 C   0  0  0  0  0  0  0  0  0  0  0  0
   26.5948  -21.5117  -14.1387 C   0  0  2  0  0  0  0  0  0  0  0  0
   26.1516  -20.9322  -15.4655 C   0  0  0  0  0  0  0  0  0  0  0  0
   25.6102  -21.0012  -13.1013 C   0  0  2  0  0  0  0  0  0  0  0  0
   26.0958  -21.2600  -11.7707 N   0  0  0  0  0  0  0  0  0  0  0  0
   24.2479  -21.5019  -13.3269 C   0  0  0  0  0  0  0  0  0  0  0  0
   23.8170  -22.4489  -12.6180 O   0  0  0  0  0  0  0  0  0  0  0  0
   20.8641  -20.7855   -9.7642 C   0  0  0  0  0  0  0  0  0  0  0  0
   19.9407  -19.6195  -10.8335 S   0  0  0  0  0  0  0  0  0  0  0  0
   20.0871  -20.2513  -12.5547 C   0  0  0  0  0  0  0  0  0  0  0  0
   21.5689  -20.3529  -12.8217 C   0  0  0  0  0  0  0  0  0  0  0  0
   21.9078  -20.9885  -14.1321 C   0  0  2  0  0  0  0  0  0  0  0  0
   23.3544  -20.9909  -14.3049 N   0  0  0  0  0  0  0  0  0  0  0  0
   21.2084  -20.4551  -15.2944 C   0  0  0  0  0  0  0  0  0  0  0  0
   20.1806  -21.0186  -15.7312 O   0  0  0  0  0  0  0  0  0  0  0  0
   21.6513  -19.3167  -15.9513 O   0  0  0  0  0  0  0  0  0  0  0  0
  2  1  1  6
  2 10  1  0
  2  3  1  0
  3  4  1  0
  4  9  2  0
  5  4  1  0
  5  6  2  0
  6  7  1  0
  7  8  2  0
  9  8  1  0
 10 11  2  0
 10 17  1  0
 13 12  1  0
 14 15  1  6
 14 13  1  0
 16 14  1  0
 16 17  1  1
 18 16  1  0
 18 19  2  0
 20 21  1  0
 21 22  1  0
 22 23  1  0
 24 23  1  1
 24 25  1  0
 25 18  1  0
 26 24  1  0
 26 28  1  0
 27 26  2  0
M  END
$$$$
