FIM.pdb
     RDKit          3D

 28 28  0  0  1  0  0  0  0  0999 V2000
   19.4225  -11.9080  -19.6947 N   0  0  0  0  0  0  0  0  0  0  0  0
   20.6455  -11.1664  -19.5483 C   0  0  1  0  0  0  0  0  0  0  0  0
   20.5058   -9.8967  -20.3881 C   0  0  0  0  0  0  0  0  0  0  0  0
   20.6055  -10.2022  -21.8318 C   0  0  0  0  0  0  0  0  0  0  0  0
   19.4744  -10.1216  -22.6120 C   0  0  0  0  0  0  0  0  0  0  0  0
   19.5014  -10.3931  -23.9669 C   0  0  0  0  0  0  0  0  0  0  0  0
   20.6978  -10.7547  -24.5477 C   0  0  0  0  0  0  0  0  0  0  0  0
   21.8200  -10.8314  -23.7573 C   0  0  0  0  0  0  0  0  0  0  0  0
   21.7994  -10.5600  -22.3971 C   0  0  0  0  0  0  0  0  0  0  0  0
   20.8108  -10.7346  -18.1373 C   0  0  0  0  0  0  0  0  0  0  0  0
   19.8138  -10.5087  -17.3990 O   0  0  0  0  0  0  0  0  0  0  0  0
   24.0431  -13.1788  -14.7681 C   0  0  0  0  0  0  0  0  0  0  0  0
   22.9670  -12.3614  -15.4272 C   0  0  0  0  0  0  0  0  0  0  0  0
   23.3174  -10.8855  -15.4540 C   0  0  2  0  0  0  0  0  0  0  0  0
   23.3325  -10.3881  -14.0240 C   0  0  0  0  0  0  0  0  0  0  0  0
   22.2472  -10.0825  -16.1726 C   0  0  2  0  0  0  0  0  0  0  0  0
   22.0879  -10.5470  -17.5261 N   0  0  0  0  0  0  0  0  0  0  0  0
   22.4767   -8.6346  -16.0816 C   0  0  0  0  0  0  0  0  0  0  0  0
   23.4269   -8.1221  -16.7293 O   0  0  0  0  0  0  0  0  0  0  0  0
   20.7325   -3.9096  -19.1274 C   0  0  0  0  0  0  0  0  0  0  0  0
   20.0133   -3.5033  -17.4924 S   0  0  0  0  0  0  0  0  0  0  0  0
   21.2014   -4.1111  -16.2265 C   0  0  0  0  0  0  0  0  0  0  0  0
   21.0502   -5.6125  -16.2204 C   0  0  0  0  0  0  0  0  0  0  0  0
   21.9454   -6.3092  -15.2460 C   0  0  2  0  0  0  0  0  0  0  0  0
   21.6932   -7.7430  -15.3024 N   0  0  0  0  0  0  0  0  0  0  0  0
   21.9223   -5.7923  -13.8834 C   0  0  0  0  0  0  0  0  0  0  0  0
   21.3967   -6.4547  -12.9615 O   0  0  0  0  0  0  0  0  0  0  0  0
   22.4754   -4.5617  -13.5620 O   0  0  0  0  0  0  0  0  0  0  0  0
  2  1  1  1
  2 10  1  0
  2  3  1  0
  3  4  1  0
  4  9  2  0
  5  4  1  0
  5  6  2  0
  6  7  1  0
  7  8  2  0
  9  8  1  0
 10 11  2  0
 10 17  1  0
 13 12  1  0
 14 15  1  1
 14 13  1  0
 16 14  1  0
 16 17  1  6
 18 16  1  0
 18 19  2  0
 20 21  1  0
 21 22  1  0
 22 23  1  0
 24 23  1  6
 24 25  1  0
 25 18  1  0
 26 24  1  0
 26 28  1  0
 27 26  2  0
M  END
$$$$
