FIM.pdb
     RDKit          3D

 28 28  0  0  1  0  0  0  0  0999 V2000
   19.7913  -29.2379    3.2066 N   0  0  0  0  0  0  0  0  0  0  0  0
   20.9960  -28.7239    3.7994 C   0  0  1  0  0  0  0  0  0  0  0  0
   20.5852  -27.6041    4.7556 C   0  0  0  0  0  0  0  0  0  0  0  0
   20.1559  -26.4010    4.0100 C   0  0  0  0  0  0  0  0  0  0  0  0
   18.8148  -26.0971    3.9463 C   0  0  0  0  0  0  0  0  0  0  0  0
   18.3495  -24.9871    3.2669 C   0  0  0  0  0  0  0  0  0  0  0  0
   19.2588  -24.1650    2.6370 C   0  0  0  0  0  0  0  0  0  0  0  0
   20.5951  -24.4798    2.7084 C   0  0  0  0  0  0  0  0  0  0  0  0
   21.0683  -25.5922    3.3888 C   0  0  0  0  0  0  0  0  0  0  0  0
   21.6458  -29.7763    4.6211 C   0  0  0  0  0  0  0  0  0  0  0  0
   20.9900  -30.7536    5.0740 O   0  0  0  0  0  0  0  0  0  0  0  0
   26.5611  -31.1078    3.2800 C   0  0  0  0  0  0  0  0  0  0  0  0
   25.2166  -31.4229    3.8744 C   0  0  0  0  0  0  0  0  0  0  0  0
   25.1164  -30.9632    5.3167 C   0  0  2  0  0  0  0  0  0  0  0  0
   25.6800  -32.0624    6.1924 C   0  0  0  0  0  0  0  0  0  0  0  0
   23.6672  -30.7868    5.7351 C   0  0  2  0  0  0  0  0  0  0  0  0
   23.0350  -29.7573    4.9518 N   0  0  0  0  0  0  0  0  0  0  0  0
   23.5221  -30.5832    7.1825 C   0  0  0  0  0  0  0  0  0  0  0  0
   23.8266  -29.4668    7.6785 O   0  0  0  0  0  0  0  0  0  0  0  0
   18.7345  -31.6025   10.5912 C   0  0  0  0  0  0  0  0  0  0  0  0
   19.8101  -32.2877   11.9061 S   0  0  0  0  0  0  0  0  0  0  0  0
   21.5201  -31.7165   11.5416 C   0  0  0  0  0  0  0  0  0  0  0  0
   21.6671  -31.8165   10.0430 C   0  0  0  0  0  0  0  0  0  0  0  0
   22.9938  -31.3544    9.5307 C   0  0  2  0  0  0  0  0  0  0  0  0
   23.0538  -31.5687    8.0908 N   0  0  0  0  0  0  0  0  0  0  0  0
   24.1605  -31.8877   10.2227 C   0  0  0  0  0  0  0  0  0  0  0  0
   24.5339  -31.3955   11.3104 O   0  0  0  0  0  0  0  0  0  0  0  0
   24.8914  -32.9477    9.7071 O   0  0  0  0  0  0  0  0  0  0  0  0
  2  1  1  1
  2 10  1  0
  2  3  1  0
  3  4  1  0
  4  9  2  0
  5  4  1  0
  5  6  2  0
  6  7  1  0
  7  8  2  0
  9  8  1  0
 10 11  2  0
 10 17  1  0
 13 12  1  0
 14 15  1  1
 14 13  1  0
 16 14  1  0
 16 17  1  6
 18 16  1  0
 18 19  2  0
 20 21  1  0
 21 22  1  0
 22 23  1  0
 24 23  1  1
 24 25  1  0
 25 18  1  0
 26 24  1  0
 26 28  1  0
 27 26  2  0
M  END
$$$$
