FIM.pdb
     RDKit          3D

 28 28  0  0  1  0  0  0  0  0999 V2000
   27.2116  -18.3690  -16.8377 N   0  0  0  0  0  0  0  0  0  0  0  0
   26.8409  -17.9870  -15.5021 C   0  0  1  0  0  0  0  0  0  0  0  0
   25.6840  -16.9950  -15.6220 C   0  0  0  0  0  0  0  0  0  0  0  0
   26.1527  -15.6949  -16.1490 C   0  0  0  0  0  0  0  0  0  0  0  0
   25.8756  -15.3642  -17.4561 C   0  0  0  0  0  0  0  0  0  0  0  0
   26.2844  -14.1647  -18.0078 C   0  0  0  0  0  0  0  0  0  0  0  0
   26.9896  -13.2788  -17.2221 C   0  0  0  0  0  0  0  0  0  0  0  0
   27.2596  -13.6213  -15.9184 C   0  0  0  0  0  0  0  0  0  0  0  0
   26.8519  -14.8234  -15.3589 C   0  0  0  0  0  0  0  0  0  0  0  0
   26.3233  -19.1662  -14.7628 C   0  0  0  0  0  0  0  0  0  0  0  0
   25.6720  -20.0737  -15.3479 O   0  0  0  0  0  0  0  0  0  0  0  0
   29.0656  -21.3130  -10.6407 C   0  0  0  0  0  0  0  0  0  0  0  0
   28.1280  -21.2488  -11.8143 C   0  0  0  0  0  0  0  0  0  0  0  0
   26.7435  -20.7830  -11.4045 C   0  0  2  0  0  0  0  0  0  0  0  0
   26.0431  -21.9474  -10.7364 C   0  0  0  0  0  0  0  0  0  0  0  0
   25.9061  -20.4228  -12.6191 C   0  0  2  0  0  0  0  0  0  0  0  0
   26.5222  -19.3537  -13.3610 N   0  0  0  0  0  0  0  0  0  0  0  0
   24.5040  -20.1535  -12.2738 C   0  0  0  0  0  0  0  0  0  0  0  0
   24.1527  -18.9736  -12.0105 O   0  0  0  0  0  0  0  0  0  0  0  0
   22.2762  -19.6498  -16.8201 C   0  0  0  0  0  0  0  0  0  0  0  0
   20.9442  -18.7926  -15.9001 S   0  0  0  0  0  0  0  0  0  0  0  0
   20.6986  -19.7254  -14.3340 C   0  0  0  0  0  0  0  0  0  0  0  0
   22.0828  -20.1136  -13.8752 C   0  0  0  0  0  0  0  0  0  0  0  0
   22.1045  -20.8809  -12.5919 C   0  0  2  0  0  0  0  0  0  0  0  0
   23.4865  -21.1418  -12.2115 N   0  0  0  0  0  0  0  0  0  0  0  0
   21.2808  -22.0830  -12.5588 C   0  0  0  0  0  0  0  0  0  0  0  0
   21.6587  -23.1280  -13.1332 O   0  0  0  0  0  0  0  0  0  0  0  0
   20.0622  -22.1125  -11.8973 O   0  0  0  0  0  0  0  0  0  0  0  0
  2  1  1  6
  2 10  1  0
  2  3  1  0
  3  4  1  0
  4  9  2  0
  5  4  1  0
  5  6  2  0
  6  7  1  0
  7  8  2  0
  9  8  1  0
 10 11  2  0
 10 17  1  0
 13 12  1  0
 14 15  1  6
 14 13  1  0
 16 14  1  0
 16 17  1  1
 18 16  1  0
 18 19  2  0
 20 21  1  0
 21 22  1  0
 22 23  1  0
 24 23  1  6
 24 25  1  0
 25 18  1  0
 26 24  1  0
 26 28  1  0
 27 26  2  0
M  END
$$$$
