FIM.pdb
     RDKit          3D

 28 28  0  0  1  0  0  0  0  0999 V2000
   27.9728  -20.9633  -15.7194 N   0  0  0  0  0  0  0  0  0  0  0  0
   27.2820  -19.9979  -14.9082 C   0  0  1  0  0  0  0  0  0  0  0  0
   26.5417  -19.0576  -15.8594 C   0  0  0  0  0  0  0  0  0  0  0  0
   27.4788  -18.1163  -16.5103 C   0  0  0  0  0  0  0  0  0  0  0  0
   27.7980  -16.9405  -15.8696 C   0  0  0  0  0  0  0  0  0  0  0  0
   28.6677  -16.0203  -16.4238 C   0  0  0  0  0  0  0  0  0  0  0  0
   29.2278  -16.2930  -17.6531 C   0  0  0  0  0  0  0  0  0  0  0  0
   28.9007  -17.4708  -18.2822 C   0  0  0  0  0  0  0  0  0  0  0  0
   28.0287  -18.3984  -17.7312 C   0  0  0  0  0  0  0  0  0  0  0  0
   26.2509  -20.6752  -14.0817 C   0  0  0  0  0  0  0  0  0  0  0  0
   25.6682  -21.7184  -14.4844 O   0  0  0  0  0  0  0  0  0  0  0  0
   26.6212  -20.6283   -8.6601 C   0  0  0  0  0  0  0  0  0  0  0  0
   26.2690  -21.1434  -10.0279 C   0  0  0  0  0  0  0  0  0  0  0  0
   24.9817  -20.5307  -10.5466 C   0  0  2  0  0  0  0  0  0  0  0  0
   23.8285  -21.2106   -9.8390 C   0  0  0  0  0  0  0  0  0  0  0  0
   24.7989  -20.8142  -12.0273 C   0  0  2  0  0  0  0  0  0  0  0  0
   25.8522  -20.2018  -12.7946 N   0  0  0  0  0  0  0  0  0  0  0  0
   23.4555  -20.4603  -12.5044 C   0  0  0  0  0  0  0  0  0  0  0  0
   23.1284  -19.2465  -12.5721 O   0  0  0  0  0  0  0  0  0  0  0  0
   20.4239  -23.6510  -16.7746 C   0  0  0  0  0  0  0  0  0  0  0  0
   19.4625  -22.0979  -16.9133 S   0  0  0  0  0  0  0  0  0  0  0  0
   19.5152  -21.2941  -15.2597 C   0  0  0  0  0  0  0  0  0  0  0  0
   20.8900  -21.5895  -14.7120 C   0  0  0  0  0  0  0  0  0  0  0  0
   21.1405  -21.0118  -13.3557 C   0  0  2  0  0  0  0  0  0  0  0  0
   22.4706  -21.4008  -12.9062 N   0  0  0  0  0  0  0  0  0  0  0  0
   20.1143  -21.2767  -12.3551 C   0  0  0  0  0  0  0  0  0  0  0  0
   20.2464  -22.2199  -11.5440 O   0  0  0  0  0  0  0  0  0  0  0  0
   18.9671  -20.5024  -12.2661 O   0  0  0  0  0  0  0  0  0  0  0  0
  2  1  1  6
  2 10  1  0
  2  3  1  0
  3  4  1  0
  4  9  2  0
  5  4  1  0
  5  6  2  0
  6  7  1  0
  7  8  2  0
  9  8  1  0
 10 11  2  0
 10 17  1  0
 13 12  1  0
 14 15  1  1
 14 13  1  0
 16 14  1  0
 16 17  1  6
 18 16  1  0
 18 19  2  0
 20 21  1  0
 21 22  1  0
 22 23  1  0
 24 23  1  6
 24 25  1  0
 25 18  1  0
 26 24  1  0
 26 28  1  0
 27 26  2  0
M  END
$$$$
