FIM.pdb
     RDKit          3D

 28 28  0  0  1  0  0  0  0  0999 V2000
   13.8191  -20.8276    1.8316 N   0  0  0  0  0  0  0  0  0  0  0  0
   14.3395  -19.8100    2.7038 C   0  0  1  0  0  0  0  0  0  0  0  0
   13.5770  -19.9155    4.0245 C   0  0  0  0  0  0  0  0  0  0  0  0
   12.1761  -19.4686    3.8651 C   0  0  0  0  0  0  0  0  0  0  0  0
   11.1585  -20.3726    4.0703 C   0  0  0  0  0  0  0  0  0  0  0  0
    9.8293  -20.0175    3.9384 C   0  0  0  0  0  0  0  0  0  0  0  0
    9.5201  -18.7201    3.5911 C   0  0  0  0  0  0  0  0  0  0  0  0
   10.5459  -17.8274    3.3891 C   0  0  0  0  0  0  0  0  0  0  0  0
   11.8817  -18.1775    3.5201 C   0  0  0  0  0  0  0  0  0  0  0  0
   15.7672  -20.0836    3.0067 C   0  0  0  0  0  0  0  0  0  0  0  0
   16.2405  -21.2505    2.9394 O   0  0  0  0  0  0  0  0  0  0  0  0
   19.7216  -17.9756    0.4806 C   0  0  0  0  0  0  0  0  0  0  0  0
   18.8793  -18.8606    1.3567 C   0  0  0  0  0  0  0  0  0  0  0  0
   18.9783  -18.4654    2.8181 C   0  0  2  0  0  0  0  0  0  0  0  0
   20.3945  -18.7427    3.2768 C   0  0  0  0  0  0  0  0  0  0  0  0
   18.0749  -19.3293    3.6806 C   0  0  2  0  0  0  0  0  0  0  0  0
   16.6901  -19.0632    3.3896 N   0  0  0  0  0  0  0  0  0  0  0  0
   18.3958  -19.2237    5.1101 C   0  0  0  0  0  0  0  0  0  0  0  0
   18.0946  -18.1704    5.7303 O   0  0  0  0  0  0  0  0  0  0  0  0
   21.4746  -23.8342    8.6058 C   0  0  0  0  0  0  0  0  0  0  0  0
   20.3388  -23.0919    9.8364 S   0  0  0  0  0  0  0  0  0  0  0  0
   20.0797  -21.3429    9.3293 C   0  0  0  0  0  0  0  0  0  0  0  0
   19.6285  -21.4034    7.8906 C   0  0  0  0  0  0  0  0  0  0  0  0
   19.4236  -20.0624    7.2614 C   0  0  2  0  0  0  0  0  0  0  0  0
   19.0344  -20.2399    5.8686 N   0  0  0  0  0  0  0  0  0  0  0  0
   20.5206  -19.1155    7.4173 C   0  0  0  0  0  0  0  0  0  0  0  0
   21.5496  -19.2138    6.7130 O   0  0  0  0  0  0  0  0  0  0  0  0
   20.4649  -18.0827    8.3414 O   0  0  0  0  0  0  0  0  0  0  0  0
  2  1  1  6
  2 10  1  0
  2  3  1  0
  3  4  1  0
  4  9  2  0
  5  4  1  0
  5  6  2  0
  6  7  1  0
  7  8  2  0
  9  8  1  0
 10 11  2  0
 10 17  1  0
 13 12  1  0
 14 15  1  1
 14 13  1  0
 16 14  1  0
 16 17  1  1
 18 16  1  0
 18 19  2  0
 20 21  1  0
 21 22  1  0
 22 23  1  0
 24 23  1  6
 24 25  1  0
 25 18  1  0
 26 24  1  0
 26 28  1  0
 27 26  2  0
M  END
$$$$
