IRP.pdb
     RDKit          3D

 27 27  0  0  1  0  0  0  0  0999 V2000
   21.1796  -19.4893  -16.4132 C   0  0  0  0  0  0  0  0  0  0  0  0
   20.7687  -18.1255  -16.9274 C   0  0  0  0  0  0  0  0  0  0  0  0
   21.6453  -17.0321  -16.3276 C   0  0  2  0  0  0  0  0  0  0  0  0
   21.4092  -17.0748  -14.8291 C   0  0  0  0  0  0  0  0  0  0  0  0
   21.1608  -15.7251  -16.9224 C   0  0  2  0  0  0  0  0  0  0  0  0
   21.3174  -15.8279  -18.3407 N   0  0  0  0  0  0  0  0  0  0  0  0
   21.9124  -14.5661  -16.3805 C   0  0  0  0  0  0  0  0  0  0  0  0
   22.0256  -14.4101  -15.1229 O   0  0  0  0  0  0  0  0  0  0  0  0
   24.8733   -6.9421  -19.7309 N   0  0  0  0  0  0  0  0  0  0  0  0
   25.6600   -7.2048  -18.5757 C   0  0  0  0  0  0  0  0  0  0  0  0
   26.4597   -6.3161  -18.0947 N   0  0  0  0  0  0  0  0  0  0  0  0
   25.5997   -8.4505  -17.9055 N   0  0  0  0  0  0  0  0  0  0  0  0
   24.8491   -9.5790  -18.5001 C   0  0  0  0  0  0  0  0  0  0  0  0
   24.8872  -10.7541  -17.5287 C   0  0  0  0  0  0  0  0  0  0  0  0
   24.1783  -11.9651  -17.9843 C   0  0  0  0  0  0  0  0  0  0  0  0
   23.1905  -12.4522  -16.9202 C   0  0  2  0  0  0  0  0  0  0  0  0
   22.4998  -13.6388  -17.2717 N   0  0  0  0  0  0  0  0  0  0  0  0
   22.4599  -11.3284  -16.3307 C   0  0  0  0  0  0  0  0  0  0  0  0
   21.7321  -10.6821  -17.2055 O   0  0  0  0  0  0  0  0  0  0  0  0
   26.9424   -6.4950  -17.1944 N   0  0  0  0  0  0  0  0  0  0  0  0
   22.4067  -10.8424  -15.0318 C   0  0  0  0  0  0  0  0  0  0  0  0
   22.9430  -11.5229  -13.8317 C   0  0  0  0  0  0  0  0  0  0  0  0
   23.7587  -10.3753  -13.2099 C   0  0  0  0  0  0  0  0  0  0  0  0
   23.2051   -9.0931  -13.8397 C   0  0  2  0  0  0  0  0  0  0  0  0
   21.8914   -9.6495  -14.4181 C   0  0  0  0  0  0  0  0  0  0  0  0
   21.1290   -8.6852  -15.1292 O   0  0  0  0  0  0  0  0  0  0  0  0
   21.4318   -8.1037  -16.1701 O   0  0  0  0  0  0  0  0  0  0  0  0
  1  2  1  0
  3  2  1  0
  3  4  1  1
  5  6  1  6
  5  3  1  0
  7  5  1  0
  8  7  2  0
  9 10  1  0
 10 12  1  0
 11 10  2  0
 12 13  1  0
 13 14  1  0
 15 14  1  0
 16 15  1  6
 16 17  1  0
 17  7  1  0
 18 16  1  0
 19 18  2  0
 20 18  1  0
 21 20  1  0
 22 23  1  0
 22 21  1  0
 23 24  1  0
 24 20  1  0
 25 27  1  0
 24 25  1  1
 26 25  2  0
M  END
$$$$
