IRP.pdb
     RDKit          3D

 27 27  0  0  1  0  0  0  0  0999 V2000
   22.4185  -19.8014   -9.6731 C   0  0  0  0  0  0  0  0  0  0  0  0
   23.3136  -20.9376  -10.1215 C   0  0  0  0  0  0  0  0  0  0  0  0
   24.2750  -20.4745  -11.2101 C   0  0  2  0  0  0  0  0  0  0  0  0
   23.7885  -21.1065  -12.5013 C   0  0  0  0  0  0  0  0  0  0  0  0
   25.6419  -21.0015  -10.8222 C   0  0  2  0  0  0  0  0  0  0  0  0
   26.0019  -20.3646   -9.5928 N   0  0  0  0  0  0  0  0  0  0  0  0
   26.6493  -20.7389  -11.8796 C   0  0  0  0  0  0  0  0  0  0  0  0
   27.2504  -19.6185  -11.9246 O   0  0  0  0  0  0  0  0  0  0  0  0
   29.6445  -24.8849  -17.9859 N   0  0  0  0  0  0  0  0  0  0  0  0
   30.8039  -24.0614  -17.9725 C   0  0  0  0  0  0  0  0  0  0  0  0
   31.4118  -23.7443  -19.0635 N   0  0  0  0  0  0  0  0  0  0  0  0
   31.3398  -23.5557  -16.7634 N   0  0  0  0  0  0  0  0  0  0  0  0
   30.6387  -23.7945  -15.4821 C   0  0  0  0  0  0  0  0  0  0  0  0
   29.5620  -22.7280  -15.3108 C   0  0  0  0  0  0  0  0  0  0  0  0
   28.8732  -22.7390  -14.0061 C   0  0  0  0  0  0  0  0  0  0  0  0
   27.8185  -21.6309  -13.9365 C   0  0  2  0  0  0  0  0  0  0  0  0
   26.9344  -21.7421  -12.8343 N   0  0  0  0  0  0  0  0  0  0  0  0
   27.2919  -21.3250  -15.2681 C   0  0  0  0  0  0  0  0  0  0  0  0
   26.8769  -22.3898  -15.9060 O   0  0  0  0  0  0  0  0  0  0  0  0
   32.2258  -23.1027  -19.0284 N   0  0  0  0  0  0  0  0  0  0  0  0
   27.1588  -20.1262  -15.9544 C   0  0  0  0  0  0  0  0  0  0  0  0
   27.4513  -18.7813  -15.4097 C   0  0  0  0  0  0  0  0  0  0  0  0
   28.3444  -18.2217  -16.5313 C   0  0  0  0  0  0  0  0  0  0  0  0
   28.0544  -19.0936  -17.7572 C   0  0  2  0  0  0  0  0  0  0  0  0
   26.7506  -19.7606  -17.2830 C   0  0  0  0  0  0  0  0  0  0  0  0
   26.2197  -20.6960  -18.2102 O   0  0  0  0  0  0  0  0  0  0  0  0
   25.2302  -20.5655  -18.9293 O   0  0  0  0  0  0  0  0  0  0  0  0
  1  2  1  0
  3  2  1  0
  3  4  1  6
  5  6  1  1
  5  3  1  0
  7  5  1  0
  8  7  2  0
  9 10  1  0
 10 12  1  0
 11 10  2  0
 12 13  1  0
 13 14  1  0
 15 14  1  0
 16 15  1  6
 16 17  1  0
 17  7  1  0
 18 16  1  0
 19 18  2  0
 20 18  1  0
 21 20  1  0
 22 23  1  0
 22 21  1  0
 23 24  1  0
 24 20  1  0
 25 27  1  0
 24 25  1  6
 26 25  2  0
M  END
$$$$
