IRP.pdb
     RDKit          3D

 27 27  0  0  1  0  0  0  0  0999 V2000
   20.6467   -9.1697  -21.1659 C   0  0  0  0  0  0  0  0  0  0  0  0
   20.3459  -10.3828  -20.3108 C   0  0  0  0  0  0  0  0  0  0  0  0
   21.5849  -10.8254  -19.5410 C   0  0  2  0  0  0  0  0  0  0  0  0
   22.6197  -11.2025  -20.5853 C   0  0  0  0  0  0  0  0  0  0  0  0
   21.1681  -12.0302  -18.7216 C   0  0  2  0  0  0  0  0  0  0  0  0
   20.0952  -11.6086  -17.8745 N   0  0  0  0  0  0  0  0  0  0  0  0
   22.3001  -12.5698  -17.9282 C   0  0  0  0  0  0  0  0  0  0  0  0
   22.9937  -11.7941  -17.1960 O   0  0  0  0  0  0  0  0  0  0  0  0
   18.8162  -17.9837  -19.3794 N   0  0  0  0  0  0  0  0  0  0  0  0
   18.8156  -17.2972  -18.1339 C   0  0  0  0  0  0  0  0  0  0  0  0
   17.8198  -16.5619  -17.7760 N   0  0  0  0  0  0  0  0  0  0  0  0
   19.9058  -17.3910  -17.2355 N   0  0  0  0  0  0  0  0  0  0  0  0
   21.2926  -17.2454  -17.7315 C   0  0  0  0  0  0  0  0  0  0  0  0
   22.0695  -16.3700  -16.7538 C   0  0  0  0  0  0  0  0  0  0  0  0
   23.4701  -16.1014  -17.1321 C   0  0  0  0  0  0  0  0  0  0  0  0
   23.6932  -14.6055  -17.3723 C   0  0  2  0  0  0  0  0  0  0  0  0
   22.6006  -13.9499  -17.9929 N   0  0  0  0  0  0  0  0  0  0  0  0
   25.0585  -14.3473  -17.8340 C   0  0  0  0  0  0  0  0  0  0  0  0
   25.2596  -14.7394  -19.0664 O   0  0  0  0  0  0  0  0  0  0  0  0
   17.8852  -15.9984  -16.9078 N   0  0  0  0  0  0  0  0  0  0  0  0
   26.1517  -13.7697  -17.2037 C   0  0  0  0  0  0  0  0  0  0  0  0
   26.1023  -12.9247  -15.9894 C   0  0  0  0  0  0  0  0  0  0  0  0
   27.1823  -13.6123  -15.1352 C   0  0  0  0  0  0  0  0  0  0  0  0
   28.0285  -14.4229  -16.1223 C   0  0  2  0  0  0  0  0  0  0  0  0
   27.5697  -13.7671  -17.4373 C   0  0  0  0  0  0  0  0  0  0  0  0
   28.1605  -14.3391  -18.5951 O   0  0  0  0  0  0  0  0  0  0  0  0
   27.8716  -15.4029  -19.1412 O   0  0  0  0  0  0  0  0  0  0  0  0
  1  2  1  0
  3  2  1  0
  3  4  1  6
  5  6  1  1
  5  3  1  0
  7  5  1  0
  8  7  2  0
  9 10  1  0
 10 12  1  0
 11 10  2  0
 12 13  1  0
 13 14  1  0
 15 14  1  0
 16 15  1  6
 16 17  1  0
 17  7  1  0
 18 16  1  0
 19 18  2  0
 20 18  1  0
 21 20  1  0
 22 23  1  0
 22 21  1  0
 23 24  1  0
 24 20  1  0
 25 27  1  0
 24 25  1  1
 26 25  2  0
M  END
$$$$
