IRP.pdb
     RDKit          3D

 27 27  0  0  1  0  0  0  0  0999 V2000
   22.4381  -26.1829  -17.6197 C   0  0  0  0  0  0  0  0  0  0  0  0
   23.8522  -25.6525  -17.5091 C   0  0  0  0  0  0  0  0  0  0  0  0
   24.0772  -24.9835  -16.1580 C   0  0  2  0  0  0  0  0  0  0  0  0
   23.1255  -23.8025  -16.1067 C   0  0  0  0  0  0  0  0  0  0  0  0
   25.5216  -24.5251  -16.1462 C   0  0  2  0  0  0  0  0  0  0  0  0
   26.3313  -25.6980  -16.0220 N   0  0  0  0  0  0  0  0  0  0  0  0
   25.7833  -23.5709  -15.0403 C   0  0  0  0  0  0  0  0  0  0  0  0
   25.7766  -23.9746  -13.8337 O   0  0  0  0  0  0  0  0  0  0  0  0
   27.9357  -16.7237  -17.2575 N   0  0  0  0  0  0  0  0  0  0  0  0
   26.6897  -16.3610  -16.6758 C   0  0  0  0  0  0  0  0  0  0  0  0
   25.8989  -15.5251  -17.2558 N   0  0  0  0  0  0  0  0  0  0  0  0
   26.2648  -16.9004  -15.4376 N   0  0  0  0  0  0  0  0  0  0  0  0
   27.2579  -17.4372  -14.4806 C   0  0  0  0  0  0  0  0  0  0  0  0
   26.7669  -18.7908  -13.9782 C   0  0  0  0  0  0  0  0  0  0  0  0
   26.6890  -19.8478  -15.0046 C   0  0  0  0  0  0  0  0  0  0  0  0
   26.1515  -21.1511  -14.4062 C   0  0  2  0  0  0  0  0  0  0  0  0
   26.0392  -22.2127  -15.3384 N   0  0  0  0  0  0  0  0  0  0  0  0
   25.0606  -20.8848  -13.4665 C   0  0  0  0  0  0  0  0  0  0  0  0
   24.0159  -20.3460  -14.0421 O   0  0  0  0  0  0  0  0  0  0  0  0
   24.9989  -15.2746  -16.8055 N   0  0  0  0  0  0  0  0  0  0  0  0
   24.9459  -21.1021  -12.1007 C   0  0  0  0  0  0  0  0  0  0  0  0
   25.9280  -21.8153  -11.2535 C   0  0  0  0  0  0  0  0  0  0  0  0
   26.0908  -20.7979  -10.1102 C   0  0  0  0  0  0  0  0  0  0  0  0
   24.8574  -19.8927  -10.1907 C   0  0  2  0  0  0  0  0  0  0  0  0
   23.9714  -20.7630  -11.1004 C   0  0  0  0  0  0  0  0  0  0  0  0
   22.7205  -20.1685  -11.4142 O   0  0  0  0  0  0  0  0  0  0  0  0
   22.4684  -19.3787  -12.3230 O   0  0  0  0  0  0  0  0  0  0  0  0
  1  2  1  0
  3  2  1  0
  3  4  1  6
  5  6  1  1
  5  3  1  0
  7  5  1  0
  8  7  2  0
  9 10  1  0
 10 12  1  0
 11 10  2  0
 12 13  1  0
 13 14  1  0
 15 14  1  0
 16 15  1  6
 16 17  1  0
 17  7  1  0
 18 16  1  0
 19 18  2  0
 20 18  1  0
 21 20  1  0
 22 23  1  0
 22 21  1  0
 23 24  1  0
 24 20  1  0
 25 27  1  0
 24 25  1  1
 26 25  2  0
M  END
$$$$
