IRP.pdb
     RDKit          3D

 27 27  0  0  1  0  0  0  0  0999 V2000
   28.7898  -19.4449  -14.0765 C   0  0  0  0  0  0  0  0  0  0  0  0
   28.1895  -20.8251  -14.2436 C   0  0  0  0  0  0  0  0  0  0  0  0
   26.6981  -20.7357  -14.5461 C   0  0  2  0  0  0  0  0  0  0  0  0
   26.0524  -20.1260  -13.3153 C   0  0  0  0  0  0  0  0  0  0  0  0
   26.2235  -22.1579  -14.7672 C   0  0  2  0  0  0  0  0  0  0  0  0
   26.9928  -22.6918  -15.8487 N   0  0  0  0  0  0  0  0  0  0  0  0
   24.7704  -22.2094  -15.0634 C   0  0  0  0  0  0  0  0  0  0  0  0
   24.3103  -21.6400  -16.1041 O   0  0  0  0  0  0  0  0  0  0  0  0
   21.8204  -27.9461  -13.0352 N   0  0  0  0  0  0  0  0  0  0  0  0
   21.0216  -27.3088  -12.0462 C   0  0  0  0  0  0  0  0  0  0  0  0
   20.9376  -27.7788  -10.8493 N   0  0  0  0  0  0  0  0  0  0  0  0
   20.2854  -26.1337  -12.3324 N   0  0  0  0  0  0  0  0  0  0  0  0
   19.8794  -25.8310  -13.7230 C   0  0  0  0  0  0  0  0  0  0  0  0
   20.5161  -24.5090  -14.1387 C   0  0  0  0  0  0  0  0  0  0  0  0
   21.9683  -24.4112  -13.8973 C   0  0  0  0  0  0  0  0  0  0  0  0
   22.5005  -23.0387  -14.3194 C   0  0  2  0  0  0  0  0  0  0  0  0
   23.9037  -22.8947  -14.1812 N   0  0  0  0  0  0  0  0  0  0  0  0
   21.6079  -21.9695  -13.8676 C   0  0  0  0  0  0  0  0  0  0  0  0
   21.1478  -22.1701  -12.6590 O   0  0  0  0  0  0  0  0  0  0  0  0
   20.2792  -27.3468  -10.1744 N   0  0  0  0  0  0  0  0  0  0  0  0
   21.1765  -20.8048  -14.4868 C   0  0  0  0  0  0  0  0  0  0  0  0
   21.7842  -20.1880  -15.6872 C   0  0  0  0  0  0  0  0  0  0  0  0
   20.5277  -19.9775  -16.5508 C   0  0  0  0  0  0  0  0  0  0  0  0
   19.3475  -20.0383  -15.5757 C   0  0  2  0  0  0  0  0  0  0  0  0
   20.1128  -19.8677  -14.2509 C   0  0  0  0  0  0  0  0  0  0  0  0
   19.2803  -19.9209  -13.1017 O   0  0  0  0  0  0  0  0  0  0  0  0
   19.0444  -19.0183  -12.2998 O   0  0  0  0  0  0  0  0  0  0  0  0
  1  2  1  0
  3  2  1  0
  3  4  1  1
  5  6  1  6
  5  3  1  0
  7  5  1  0
  8  7  2  0
  9 10  1  0
 10 12  1  0
 11 10  2  0
 12 13  1  0
 13 14  1  0
 15 14  1  0
 16 15  1  1
 16 17  1  0
 17  7  1  0
 18 16  1  0
 19 18  2  0
 20 18  1  0
 21 20  1  0
 22 23  1  0
 22 21  1  0
 23 24  1  0
 24 20  1  0
 25 27  1  0
 24 25  1  6
 26 25  2  0
M  END
$$$$
