IRP.pdb
     RDKit          3D

 27 27  0  0  1  0  0  0  0  0999 V2000
   21.9656  -20.3184  -10.3709 C   0  0  0  0  0  0  0  0  0  0  0  0
   23.3846  -20.7958  -10.1432 C   0  0  0  0  0  0  0  0  0  0  0  0
   24.2858  -20.3945  -11.3053 C   0  0  2  0  0  0  0  0  0  0  0  0
   23.7412  -21.1078  -12.5292 C   0  0  0  0  0  0  0  0  0  0  0  0
   25.6753  -20.8879  -10.9556 C   0  0  2  0  0  0  0  0  0  0  0  0
   25.9786  -20.3910   -9.6488 N   0  0  0  0  0  0  0  0  0  0  0  0
   26.6814  -20.4382  -11.9493 C   0  0  0  0  0  0  0  0  0  0  0  0
   26.7056  -19.2239  -12.3286 O   0  0  0  0  0  0  0  0  0  0  0  0
   31.2324  -25.8917  -17.6519 N   0  0  0  0  0  0  0  0  0  0  0  0
   31.3840  -24.5261  -18.0185 C   0  0  0  0  0  0  0  0  0  0  0  0
   31.8162  -24.1907  -19.1852 N   0  0  0  0  0  0  0  0  0  0  0  0
   31.0680  -23.4781  -17.1204 N   0  0  0  0  0  0  0  0  0  0  0  0
   30.4108  -23.7787  -15.8288 C   0  0  0  0  0  0  0  0  0  0  0  0
   29.5347  -22.5921  -15.4411 C   0  0  0  0  0  0  0  0  0  0  0  0
   28.8812  -22.7019  -14.1229 C   0  0  0  0  0  0  0  0  0  0  0  0
   28.0738  -21.4394  -13.8073 C   0  0  2  0  0  0  0  0  0  0  0  0
   27.6103  -21.3684  -12.4698 N   0  0  0  0  0  0  0  0  0  0  0  0
   27.1729  -21.1044  -14.9119 C   0  0  0  0  0  0  0  0  0  0  0  0
   26.3767  -22.0920  -15.2341 O   0  0  0  0  0  0  0  0  0  0  0  0
   31.9389  -23.1873  -19.4170 N   0  0  0  0  0  0  0  0  0  0  0  0
   27.0206  -19.9447  -15.6587 C   0  0  0  0  0  0  0  0  0  0  0  0
   27.4805  -18.5948  -15.2623 C   0  0  0  0  0  0  0  0  0  0  0  0
   28.2331  -18.1780  -16.5386 C   0  0  0  0  0  0  0  0  0  0  0  0
   27.7064  -19.1006  -17.6426 C   0  0  2  0  0  0  0  0  0  0  0  0
   26.4454  -19.6333  -16.9384 C   0  0  0  0  0  0  0  0  0  0  0  0
   25.7210  -20.5815  -17.7084 O   0  0  0  0  0  0  0  0  0  0  0  0
   24.5915  -20.4632  -18.1811 O   0  0  0  0  0  0  0  0  0  0  0  0
  1  2  1  0
  3  2  1  0
  3  4  1  6
  5  6  1  1
  5  3  1  0
  7  5  1  0
  8  7  2  0
  9 10  1  0
 10 12  1  0
 11 10  2  0
 12 13  1  0
 13 14  1  0
 15 14  1  0
 16 15  1  6
 16 17  1  0
 17  7  1  0
 18 16  1  0
 19 18  2  0
 20 18  1  0
 21 20  1  0
 22 23  1  0
 22 21  1  0
 23 24  1  0
 24 20  1  0
 25 27  1  0
 24 25  1  6
 26 25  2  0
M  END
$$$$
