IRP.pdb
     RDKit          3D

 27 27  0  0  1  0  0  0  0  0999 V2000
   31.4072  -22.5833  -11.9560 C   0  0  0  0  0  0  0  0  0  0  0  0
   31.4501  -21.2020  -12.5753 C   0  0  0  0  0  0  0  0  0  0  0  0
   30.2040  -20.4039  -12.2094 C   0  0  2  0  0  0  0  0  0  0  0  0
   29.7948  -20.8693  -10.8240 C   0  0  0  0  0  0  0  0  0  0  0  0
   29.1527  -20.7608  -13.2409 C   0  0  2  0  0  0  0  0  0  0  0  0
   29.6208  -20.2718  -14.5012 N   0  0  0  0  0  0  0  0  0  0  0  0
   27.8304  -20.1823  -12.8966 C   0  0  0  0  0  0  0  0  0  0  0  0
   27.6870  -18.9206  -12.8158 O   0  0  0  0  0  0  0  0  0  0  0  0
   20.9985  -17.7506  -14.4938 N   0  0  0  0  0  0  0  0  0  0  0  0
   21.7158  -18.6397  -15.3408 C   0  0  0  0  0  0  0  0  0  0  0  0
   21.9888  -18.3272  -16.5608 N   0  0  0  0  0  0  0  0  0  0  0  0
   22.1598  -19.9036  -14.8824 N   0  0  0  0  0  0  0  0  0  0  0  0
   21.8548  -20.3431  -13.5025 C   0  0  0  0  0  0  0  0  0  0  0  0
   23.0957  -20.1354  -12.6405 C   0  0  0  0  0  0  0  0  0  0  0  0
   24.3439  -20.6909  -13.1973 C   0  0  0  0  0  0  0  0  0  0  0  0
   25.4637  -20.6712  -12.1528 C   0  0  2  0  0  0  0  0  0  0  0  0
   26.7340  -21.0430  -12.6595 N   0  0  0  0  0  0  0  0  0  0  0  0
   24.9980  -21.2157  -10.8758 C   0  0  0  0  0  0  0  0  0  0  0  0
   24.1918  -22.2360  -11.0235 O   0  0  0  0  0  0  0  0  0  0  0  0
   22.4721  -19.0138  -17.1695 N   0  0  0  0  0  0  0  0  0  0  0  0
   25.2601  -20.8448   -9.5644 C   0  0  0  0  0  0  0  0  0  0  0  0
   26.5174  -20.2379   -9.0727 C   0  0  0  0  0  0  0  0  0  0  0  0
   25.9530  -19.0379   -8.2913 C   0  0  0  0  0  0  0  0  0  0  0  0
   24.4826  -19.3779   -8.0274 C   0  0  2  0  0  0  0  0  0  0  0  0
   24.5190  -20.8861   -8.3338 C   0  0  0  0  0  0  0  0  0  0  0  0
   23.2543  -21.5214   -8.2173 O   0  0  0  0  0  0  0  0  0  0  0  0
   22.3043  -21.4571   -8.9962 O   0  0  0  0  0  0  0  0  0  0  0  0
  1  2  1  0
  3  2  1  0
  3  4  1  1
  5  6  1  6
  5  3  1  0
  7  5  1  0
  8  7  2  0
  9 10  1  0
 10 12  1  0
 11 10  2  0
 12 13  1  0
 13 14  1  0
 15 14  1  0
 16 15  1  6
 16 17  1  0
 17  7  1  0
 18 16  1  0
 19 18  2  0
 20 18  1  0
 21 20  1  0
 22 23  1  0
 22 21  1  0
 23 24  1  0
 24 20  1  0
 25 27  1  0
 24 25  1  1
 26 25  2  0
M  END
$$$$
