IRP.pdb
     RDKit          3D

 27 27  0  0  1  0  0  0  0  0999 V2000
   26.6342  -16.9951  -22.9387 C   0  0  0  0  0  0  0  0  0  0  0  0
   27.2734  -16.6905  -21.6001 C   0  0  0  0  0  0  0  0  0  0  0  0
   26.5339  -17.3993  -20.4711 C   0  0  2  0  0  0  0  0  0  0  0  0
   25.6733  -16.3440  -19.8009 C   0  0  0  0  0  0  0  0  0  0  0  0
   27.5986  -17.9199  -19.5268 C   0  0  2  0  0  0  0  0  0  0  0  0
   28.5586  -18.6194  -20.3241 N   0  0  0  0  0  0  0  0  0  0  0  0
   27.0199  -18.8025  -18.4836 C   0  0  0  0  0  0  0  0  0  0  0  0
   26.9302  -20.0555  -18.6853 O   0  0  0  0  0  0  0  0  0  0  0  0
   26.8063  -21.8234  -11.7569 N   0  0  0  0  0  0  0  0  0  0  0  0
   25.9827  -20.9648  -10.9778 C   0  0  0  0  0  0  0  0  0  0  0  0
   25.3387  -21.4053   -9.9523 N   0  0  0  0  0  0  0  0  0  0  0  0
   25.8343  -19.5927  -11.2939 N   0  0  0  0  0  0  0  0  0  0  0  0
   26.6872  -18.9726  -12.3323 C   0  0  0  0  0  0  0  0  0  0  0  0
   26.0079  -19.1456  -13.6868 C   0  0  0  0  0  0  0  0  0  0  0  0
   26.8053  -18.7041  -14.8470 C   0  0  0  0  0  0  0  0  0  0  0  0
   26.0456  -18.9451  -16.1547 C   0  0  2  0  0  0  0  0  0  0  0  0
   26.5701  -18.2402  -17.2668 N   0  0  0  0  0  0  0  0  0  0  0  0
   24.6001  -18.9736  -15.9228 C   0  0  0  0  0  0  0  0  0  0  0  0
   24.1543  -17.8763  -15.3659 O   0  0  0  0  0  0  0  0  0  0  0  0
   24.7297  -20.7609   -9.4144 N   0  0  0  0  0  0  0  0  0  0  0  0
   23.6423  -19.9423  -16.1876 C   0  0  0  0  0  0  0  0  0  0  0  0
   23.8405  -21.1482  -17.0227 C   0  0  0  0  0  0  0  0  0  0  0  0
   23.2916  -22.2292  -16.0745 C   0  0  0  0  0  0  0  0  0  0  0  0
   22.4243  -21.4787  -15.0586 C   0  0  2  0  0  0  0  0  0  0  0  0
   22.2713  -20.1410  -15.8051 C   0  0  0  0  0  0  0  0  0  0  0  0
   21.5238  -19.1705  -15.0868 O   0  0  0  0  0  0  0  0  0  0  0  0
   21.9173  -18.0922  -14.6445 O   0  0  0  0  0  0  0  0  0  0  0  0
  1  2  1  0
  3  2  1  0
  3  4  1  1
  5  6  1  6
  5  3  1  0
  7  5  1  0
  8  7  2  0
  9 10  1  0
 10 12  1  0
 11 10  2  0
 12 13  1  0
 13 14  1  0
 15 14  1  0
 16 15  1  1
 16 17  1  0
 17  7  1  0
 18 16  1  0
 19 18  2  0
 20 18  1  0
 21 20  1  0
 22 23  1  0
 22 21  1  0
 23 24  1  0
 24 20  1  0
 25 27  1  0
 24 25  1  1
 26 25  2  0
M  END
$$$$
