IRP.pdb
     RDKit          3D

 27 27  0  0  1  0  0  0  0  0999 V2000
   18.9087  -20.3903  -13.4812 C   0  0  0  0  0  0  0  0  0  0  0  0
   19.4894  -21.1155  -12.2854 C   0  0  0  0  0  0  0  0  0  0  0  0
   20.8388  -20.5240  -11.8941 C   0  0  2  0  0  0  0  0  0  0  0  0
   20.6208  -19.0287  -11.7539 C   0  0  0  0  0  0  0  0  0  0  0  0
   21.7862  -20.8358  -13.0351 C   0  0  2  0  0  0  0  0  0  0  0  0
   21.8000  -22.2579  -13.1902 N   0  0  0  0  0  0  0  0  0  0  0  0
   23.1489  -20.3097  -12.7734 C   0  0  0  0  0  0  0  0  0  0  0  0
   23.3552  -19.0544  -12.7509 O   0  0  0  0  0  0  0  0  0  0  0  0
   30.9971  -22.3971   -8.6750 N   0  0  0  0  0  0  0  0  0  0  0  0
   31.1996  -21.9548  -10.0113 C   0  0  0  0  0  0  0  0  0  0  0  0
   32.3609  -22.0141  -10.5667 N   0  0  0  0  0  0  0  0  0  0  0  0
   30.1377  -21.4312  -10.7878 N   0  0  0  0  0  0  0  0  0  0  0  0
   28.7500  -21.8897  -10.5546 C   0  0  0  0  0  0  0  0  0  0  0  0
   27.8502  -21.2802  -11.6245 C   0  0  0  0  0  0  0  0  0  0  0  0
   26.4232  -21.6404  -11.5207 C   0  0  0  0  0  0  0  0  0  0  0  0
   25.5975  -20.9114  -12.5847 C   0  0  2  0  0  0  0  0  0  0  0  0
   24.2132  -21.2133  -12.5500 N   0  0  0  0  0  0  0  0  0  0  0  0
   26.3065  -20.8777  -13.8653 C   0  0  0  0  0  0  0  0  0  0  0  0
   26.6235  -22.0705  -14.3009 O   0  0  0  0  0  0  0  0  0  0  0  0
   32.4835  -21.6659  -11.5359 N   0  0  0  0  0  0  0  0  0  0  0  0
   26.6907  -19.8215  -14.6796 C   0  0  0  0  0  0  0  0  0  0  0  0
   26.3157  -18.4024  -14.4888 C   0  0  0  0  0  0  0  0  0  0  0  0
   27.6998  -17.7381  -14.5977 C   0  0  0  0  0  0  0  0  0  0  0  0
   28.5904  -18.7643  -15.3056 C   0  0  2  0  0  0  0  0  0  0  0  0
   27.4989  -19.6968  -15.8613 C   0  0  0  0  0  0  0  0  0  0  0  0
   28.0124  -20.8184  -16.5650 O   0  0  0  0  0  0  0  0  0  0  0  0
   28.5978  -21.7957  -16.1007 O   0  0  0  0  0  0  0  0  0  0  0  0
  1  2  1  0
  3  2  1  0
  3  4  1  6
  5  6  1  1
  5  3  1  0
  7  5  1  0
  8  7  2  0
  9 10  1  0
 10 12  1  0
 11 10  2  0
 12 13  1  0
 13 14  1  0
 15 14  1  0
 16 15  1  1
 16 17  1  0
 17  7  1  0
 18 16  1  0
 19 18  2  0
 20 18  1  0
 21 20  1  0
 22 23  1  0
 22 21  1  0
 23 24  1  0
 24 20  1  0
 25 27  1  0
 24 25  1  6
 26 25  2  0
M  END
$$$$
