IRP.pdb
     RDKit          3D

 27 27  0  0  1  0  0  0  0  0999 V2000
   29.0417  -17.6451  -17.9362 C   0  0  0  0  0  0  0  0  0  0  0  0
   29.1578  -18.7656  -16.9242 C   0  0  0  0  0  0  0  0  0  0  0  0
   27.7880  -19.3531  -16.6048 C   0  0  2  0  0  0  0  0  0  0  0  0
   27.0310  -18.2759  -15.8498 C   0  0  0  0  0  0  0  0  0  0  0  0
   28.0388  -20.5640  -15.7286 C   0  0  2  0  0  0  0  0  0  0  0  0
   28.8775  -21.4521  -16.4732 N   0  0  0  0  0  0  0  0  0  0  0  0
   26.7704  -21.2254  -15.3341 C   0  0  0  0  0  0  0  0  0  0  0  0
   26.1912  -22.0254  -16.1362 O   0  0  0  0  0  0  0  0  0  0  0  0
   23.5281  -21.2392   -7.8473 N   0  0  0  0  0  0  0  0  0  0  0  0
   22.8451  -20.8670   -9.0378 C   0  0  0  0  0  0  0  0  0  0  0  0
   21.5581  -20.8238   -9.0850 N   0  0  0  0  0  0  0  0  0  0  0  0
   23.5470  -20.5288  -10.2201 N   0  0  0  0  0  0  0  0  0  0  0  0
   24.9817  -20.1712  -10.1564 C   0  0  0  0  0  0  0  0  0  0  0  0
   25.7045  -20.8519  -11.3140 C   0  0  0  0  0  0  0  0  0  0  0  0
   24.8646  -21.7409  -12.1393 C   0  0  0  0  0  0  0  0  0  0  0  0
   24.9204  -21.3307  -13.6137 C   0  0  2  0  0  0  0  0  0  0  0  0
   26.2125  -20.9594  -14.0624 N   0  0  0  0  0  0  0  0  0  0  0  0
   23.7590  -20.5152  -13.9745 C   0  0  0  0  0  0  0  0  0  0  0  0
   23.7213  -19.3749  -13.3333 O   0  0  0  0  0  0  0  0  0  0  0  0
   21.0851  -20.6203   -9.9852 N   0  0  0  0  0  0  0  0  0  0  0  0
   22.7149  -20.7382  -14.8611 C   0  0  0  0  0  0  0  0  0  0  0  0
   22.7936  -21.5345  -16.1064 C   0  0  0  0  0  0  0  0  0  0  0  0
   21.5676  -22.4469  -15.9240 C   0  0  0  0  0  0  0  0  0  0  0  0
   20.6903  -21.7479  -14.8804 C   0  0  2  0  0  0  0  0  0  0  0  0
   21.3325  -20.3492  -14.9150 C   0  0  0  0  0  0  0  0  0  0  0  0
   20.7536  -19.4342  -13.9962 O   0  0  0  0  0  0  0  0  0  0  0  0
   19.7859  -18.6963  -14.1761 O   0  0  0  0  0  0  0  0  0  0  0  0
  1  2  1  0
  3  2  1  0
  3  4  1  1
  5  6  1  6
  5  3  1  0
  7  5  1  0
  8  7  2  0
  9 10  1  0
 10 12  1  0
 11 10  2  0
 12 13  1  0
 13 14  1  0
 15 14  1  0
 16 15  1  1
 16 17  1  0
 17  7  1  0
 18 16  1  0
 19 18  2  0
 20 18  1  0
 21 20  1  0
 22 23  1  0
 22 21  1  0
 23 24  1  0
 24 20  1  0
 25 27  1  0
 24 25  1  1
 26 25  2  0
M  END
$$$$
