IRP.pdb
     RDKit          3D

 27 27  0  0  1  0  0  0  0  0999 V2000
   27.5885  -20.0218   -4.8220 C   0  0  0  0  0  0  0  0  0  0  0  0
   26.5195  -19.8934   -5.8869 C   0  0  0  0  0  0  0  0  0  0  0  0
   27.0573  -20.3138   -7.2498 C   0  0  2  0  0  0  0  0  0  0  0  0
   28.2215  -19.3875   -7.5496 C   0  0  0  0  0  0  0  0  0  0  0  0
   25.9246  -20.1081   -8.2354 C   0  0  2  0  0  0  0  0  0  0  0  0
   24.8634  -20.9827   -7.8410 N   0  0  0  0  0  0  0  0  0  0  0  0
   26.3563  -20.3798   -9.6289 C   0  0  0  0  0  0  0  0  0  0  0  0
   27.5309  -20.0679  -10.0057 O   0  0  0  0  0  0  0  0  0  0  0  0
   24.2456  -25.9811  -13.9523 N   0  0  0  0  0  0  0  0  0  0  0  0
   23.8177  -25.1902  -15.0540 C   0  0  0  0  0  0  0  0  0  0  0  0
   22.6797  -25.3953  -15.6227 N   0  0  0  0  0  0  0  0  0  0  0  0
   24.6208  -24.1461  -15.5730 N   0  0  0  0  0  0  0  0  0  0  0  0
   25.6222  -23.4796  -14.7108 C   0  0  0  0  0  0  0  0  0  0  0  0
   24.9488  -22.3128  -13.9958 C   0  0  0  0  0  0  0  0  0  0  0  0
   24.9810  -22.3800  -12.5223 C   0  0  0  0  0  0  0  0  0  0  0  0
   25.6233  -21.1210  -11.9325 C   0  0  2  0  0  0  0  0  0  0  0  0
   25.4533  -20.9866  -10.5319 N   0  0  0  0  0  0  0  0  0  0  0  0
   25.4133  -19.9667  -12.8085 C   0  0  0  0  0  0  0  0  0  0  0  0
   24.1479  -19.6701  -12.9617 O   0  0  0  0  0  0  0  0  0  0  0  0
   22.3789  -24.7816  -16.4027 N   0  0  0  0  0  0  0  0  0  0  0  0
   26.3061  -19.1500  -13.4883 C   0  0  0  0  0  0  0  0  0  0  0  0
   27.6975  -18.8589  -13.0757 C   0  0  0  0  0  0  0  0  0  0  0  0
   28.4382  -19.1471  -14.3938 C   0  0  0  0  0  0  0  0  0  0  0  0
   27.3657  -19.0865  -15.4863 C   0  0  2  0  0  0  0  0  0  0  0  0
   26.2503  -18.3763  -14.6981 C   0  0  0  0  0  0  0  0  0  0  0  0
   25.0542  -18.1953  -15.4419 O   0  0  0  0  0  0  0  0  0  0  0  0
   24.2386  -19.0528  -15.7777 O   0  0  0  0  0  0  0  0  0  0  0  0
  1  2  1  0
  3  2  1  0
  3  4  1  6
  5  6  1  1
  5  3  1  0
  7  5  1  0
  8  7  2  0
  9 10  1  0
 10 12  1  0
 11 10  2  0
 12 13  1  0
 13 14  1  0
 15 14  1  0
 16 15  1  6
 16 17  1  0
 17  7  1  0
 18 16  1  0
 19 18  2  0
 20 18  1  0
 21 20  1  0
 22 23  1  0
 22 21  1  0
 23 24  1  0
 24 20  1  0
 25 27  1  0
 24 25  1  6
 26 25  2  0
M  END
$$$$
