IRP.pdb
     RDKit          3D

 27 27  0  0  1  0  0  0  0  0999 V2000
   27.5080  -14.9606  -16.6395 C   0  0  0  0  0  0  0  0  0  0  0  0
   26.0772  -15.4542  -16.6880 C   0  0  0  0  0  0  0  0  0  0  0  0
   25.1495  -14.3773  -17.2387 C   0  0  2  0  0  0  0  0  0  0  0  0
   25.9033  -13.7093  -18.3740 C   0  0  0  0  0  0  0  0  0  0  0  0
   24.9005  -13.4083  -16.1004 C   0  0  2  0  0  0  0  0  0  0  0  0
   24.4556  -14.1822  -14.9825 N   0  0  0  0  0  0  0  0  0  0  0  0
   23.9024  -12.3746  -16.4709 C   0  0  0  0  0  0  0  0  0  0  0  0
   24.1024  -11.6268  -17.4806 O   0  0  0  0  0  0  0  0  0  0  0  0
   14.9009  -11.6614  -15.1491 N   0  0  0  0  0  0  0  0  0  0  0  0
   15.4456  -10.5821  -15.8979 C   0  0  0  0  0  0  0  0  0  0  0  0
   14.6860   -9.7633  -16.5407 N   0  0  0  0  0  0  0  0  0  0  0  0
   16.8422  -10.3606  -15.9703 N   0  0  0  0  0  0  0  0  0  0  0  0
   17.7850  -11.4787  -15.7433 C   0  0  0  0  0  0  0  0  0  0  0  0
   19.2045  -10.9733  -15.9787 C   0  0  0  0  0  0  0  0  0  0  0  0
   20.2696  -11.9646  -15.7343 C   0  0  0  0  0  0  0  0  0  0  0  0
   21.6528  -11.3440  -15.9506 C   0  0  2  0  0  0  0  0  0  0  0  0
   22.7302  -12.2282  -15.6938 N   0  0  0  0  0  0  0  0  0  0  0  0
   21.6962   -9.9717  -15.4419 C   0  0  0  0  0  0  0  0  0  0  0  0
   21.4720   -9.9009  -14.1544 O   0  0  0  0  0  0  0  0  0  0  0  0
   15.1082   -8.9608  -17.0439 N   0  0  0  0  0  0  0  0  0  0  0  0
   21.9305   -8.7597  -16.0762 C   0  0  0  0  0  0  0  0  0  0  0  0
   22.4686   -8.5902  -17.4446 C   0  0  0  0  0  0  0  0  0  0  0  0
   21.4389   -7.6025  -18.0216 C   0  0  0  0  0  0  0  0  0  0  0  0
   20.7542   -6.9701  -16.8057 C   0  0  2  0  0  0  0  0  0  0  0  0
   21.7607   -7.3791  -15.7151 C   0  0  0  0  0  0  0  0  0  0  0  0
   21.3851   -6.9651  -14.4096 O   0  0  0  0  0  0  0  0  0  0  0  0
   20.8015   -7.6229  -13.5493 O   0  0  0  0  0  0  0  0  0  0  0  0
  1  2  1  0
  3  2  1  0
  3  4  1  6
  5  6  1  1
  5  3  1  0
  7  5  1  0
  8  7  2  0
  9 10  1  0
 10 12  1  0
 11 10  2  0
 12 13  1  0
 13 14  1  0
 15 14  1  0
 16 15  1  1
 16 17  1  0
 17  7  1  0
 18 16  1  0
 19 18  2  0
 20 18  1  0
 21 20  1  0
 22 23  1  0
 22 21  1  0
 23 24  1  0
 24 20  1  0
 25 27  1  0
 24 25  1  6
 26 25  2  0
M  END
$$$$
