IRP.pdb
     RDKit          3D

 27 27  0  0  1  0  0  0  0  0999 V2000
   18.4187  -21.1569  -11.3468 C   0  0  0  0  0  0  0  0  0  0  0  0
   19.4709  -21.3741  -12.4140 C   0  0  0  0  0  0  0  0  0  0  0  0
   20.7421  -20.5980  -12.0894 C   0  0  2  0  0  0  0  0  0  0  0  0
   20.3499  -19.1319  -12.0710 C   0  0  0  0  0  0  0  0  0  0  0  0
   21.7172  -20.8911  -13.2118 C   0  0  2  0  0  0  0  0  0  0  0  0
   21.7045  -22.3068  -13.4174 N   0  0  0  0  0  0  0  0  0  0  0  0
   23.0823  -20.4061  -12.8906 C   0  0  0  0  0  0  0  0  0  0  0  0
   23.2901  -19.1660  -12.6962 O   0  0  0  0  0  0  0  0  0  0  0  0
   30.6722  -22.1489   -8.4982 N   0  0  0  0  0  0  0  0  0  0  0  0
   30.9884  -22.0038   -9.8771 C   0  0  0  0  0  0  0  0  0  0  0  0
   32.1909  -22.1711  -10.3088 N   0  0  0  0  0  0  0  0  0  0  0  0
   29.9989  -21.6699  -10.8332 N   0  0  0  0  0  0  0  0  0  0  0  0
   28.5783  -21.9974  -10.5783 C   0  0  0  0  0  0  0  0  0  0  0  0
   27.7389  -21.4489  -11.7274 C   0  0  0  0  0  0  0  0  0  0  0  0
   26.2886  -21.6955  -11.6155 C   0  0  0  0  0  0  0  0  0  0  0  0
   25.5307  -21.0251  -12.7651 C   0  0  2  0  0  0  0  0  0  0  0  0
   24.1475  -21.3318  -12.8028 N   0  0  0  0  0  0  0  0  0  0  0  0
   26.3194  -21.0526  -13.9984 C   0  0  0  0  0  0  0  0  0  0  0  0
   26.6896  -22.2615  -14.3367 O   0  0  0  0  0  0  0  0  0  0  0  0
   32.3990  -22.0258  -11.3143 N   0  0  0  0  0  0  0  0  0  0  0  0
   26.7318  -20.0393  -14.8525 C   0  0  0  0  0  0  0  0  0  0  0  0
   26.3022  -18.6244  -14.7857 C   0  0  0  0  0  0  0  0  0  0  0  0
   27.6705  -17.9217  -14.8392 C   0  0  0  0  0  0  0  0  0  0  0  0
   28.6409  -18.9609  -15.4100 C   0  0  2  0  0  0  0  0  0  0  0  0
   27.6214  -19.9645  -15.9786 C   0  0  0  0  0  0  0  0  0  0  0  0
   28.2184  -21.1114  -16.5659 O   0  0  0  0  0  0  0  0  0  0  0  0
   28.5849  -22.1419  -16.0029 O   0  0  0  0  0  0  0  0  0  0  0  0
  1  2  1  0
  3  2  1  0
  3  4  1  6
  5  6  1  1
  5  3  1  0
  7  5  1  0
  8  7  2  0
  9 10  1  0
 10 12  1  0
 11 10  2  0
 12 13  1  0
 13 14  1  0
 15 14  1  0
 16 15  1  1
 16 17  1  0
 17  7  1  0
 18 16  1  0
 19 18  2  0
 20 18  1  0
 21 20  1  0
 22 23  1  0
 22 21  1  0
 23 24  1  0
 24 20  1  0
 25 27  1  0
 24 25  1  6
 26 25  2  0
M  END
$$$$
