VWY.pdb
     RDKit          3D

 34 36  0  0  1  0  0  0  0  0999 V2000
   26.9805  -22.1088  -18.6053 C   0  0  0  0  0  0  0  0  0  0  0  0
   28.3315  -21.4062  -18.2923 C   0  0  2  0  0  0  0  0  0  0  0  0
   29.1155  -21.5675  -19.5784 C   0  0  0  0  0  0  0  0  0  0  0  0
   28.9513  -22.0989  -17.1154 C   0  0  2  0  0  0  0  0  0  0  0  0
   29.1017  -23.5069  -17.5418 N   0  0  0  0  0  0  0  0  0  0  0  0
   28.2104  -22.0929  -15.8686 C   0  0  0  0  0  0  0  0  0  0  0  0
   27.4045  -23.0705  -15.6251 O   0  0  0  0  0  0  0  0  0  0  0  0
   28.2861  -21.0993  -14.8635 N   0  0  0  0  0  0  0  0  0  0  0  0
   27.4804  -21.1886  -13.6349 C   0  0  1  0  0  0  0  0  0  0  0  0
   28.0086  -20.2499  -12.6106 C   0  0  0  0  0  0  0  0  0  0  0  0
   27.3439  -20.3404  -11.3100 C   0  0  0  0  0  0  0  0  0  0  0  0
   25.9909  -20.1036  -11.0975 C   0  0  0  0  0  0  0  0  0  0  0  0
   25.7251  -20.2733   -9.8017 N   0  0  0  0  0  0  0  0  0  0  0  0
   26.8306  -20.6137   -9.1246 C   0  0  0  0  0  0  0  0  0  0  0  0
   27.0626  -20.8902   -7.7937 C   0  0  0  0  0  0  0  0  0  0  0  0
   28.3385  -21.2179   -7.3868 C   0  0  0  0  0  0  0  0  0  0  0  0
   29.3571  -21.2594   -8.3388 C   0  0  0  0  0  0  0  0  0  0  0  0
   29.1304  -20.9839   -9.6713 C   0  0  0  0  0  0  0  0  0  0  0  0
   27.8523  -20.6553  -10.0804 C   0  0  0  0  0  0  0  0  0  0  0  0
   26.0358  -20.8658  -13.9144 C   0  0  0  0  0  0  0  0  0  0  0  0
   25.7132  -19.8166  -14.5167 O   0  0  0  0  0  0  0  0  0  0  0  0
   17.3048  -22.4347  -14.0606 O   0  0  0  0  0  0  0  0  0  0  0  0
   18.6700  -22.5030  -13.9422 C   0  0  0  0  0  0  0  0  0  0  0  0
   19.4609  -22.6344  -15.0652 C   0  0  0  0  0  0  0  0  0  0  0  0
   20.8222  -22.7015  -14.9331 C   0  0  0  0  0  0  0  0  0  0  0  0
   21.3742  -22.6363  -13.6764 C   0  0  0  0  0  0  0  0  0  0  0  0
   22.8242  -22.7136  -13.4939 C   0  0  0  0  0  0  0  0  0  0  0  0
   23.5666  -21.4311  -13.7961 C   0  0  2  0  0  0  0  0  0  0  0  0
   24.9809  -21.7216  -13.5132 N   0  0  0  0  0  0  0  0  0  0  0  0
   23.0939  -20.2959  -12.9753 C   0  0  0  0  0  0  0  0  0  0  0  0
   22.3744  -19.3687  -13.3891 O   0  0  0  0  0  0  0  0  0  0  0  0
   20.5858  -22.5041  -12.5432 C   0  0  0  0  0  0  0  0  0  0  0  0
   19.2166  -22.4371  -12.6847 C   0  0  0  0  0  0  0  0  0  0  0  0
   23.4746  -20.2510  -11.6421 O   0  0  0  0  0  0  0  0  0  0  0  0
  2  1  1  6
  2  3  1  0
  4  2  1  0
  4  5  1  6
  6  4  1  0
  6  8  1  0
  7  6  2  0
  9  8  1  0
  9 20  1  0
  9 10  1  1
 11 19  1  0
 11 10  1  0
 12 11  2  0
 13 12  1  0
 13 14  1  0
 14 15  1  0
 14 19  2  0
 15 16  2  0
 16 17  1  0
 18 17  2  0
 19 18  1  0
 20 29  1  0
 21 20  2  0
 22 23  1  0
 23 24  2  0
 23 33  1  0
 24 25  1  0
 25 26  2  0
 26 27  1  0
 28 27  1  1
 28 30  1  0
 29 28  1  0
 30 31  2  0
 30 34  1  0
 32 26  1  0
 33 32  2  0
M  END
$$$$
