VWY.pdb
     RDKit          3D

 34 36  0  0  1  0  0  0  0  0999 V2000
   27.4834  -20.9549  -17.2901 C   0  0  0  0  0  0  0  0  0  0  0  0
   26.5178  -21.2086  -16.0985 C   0  0  2  0  0  0  0  0  0  0  0  0
   25.6614  -19.9594  -16.0704 C   0  0  0  0  0  0  0  0  0  0  0  0
   27.3472  -21.4009  -14.8639 C   0  0  2  0  0  0  0  0  0  0  0  0
   28.1612  -22.6045  -15.1391 N   0  0  0  0  0  0  0  0  0  0  0  0
   26.6457  -21.6200  -13.6135 C   0  0  0  0  0  0  0  0  0  0  0  0
   26.0632  -22.7555  -13.4236 O   0  0  0  0  0  0  0  0  0  0  0  0
   26.5352  -20.6919  -12.5507 N   0  0  0  0  0  0  0  0  0  0  0  0
   25.8066  -21.0239  -11.3156 C   0  0  1  0  0  0  0  0  0  0  0  0
   26.2724  -20.1572  -10.2015 C   0  0  0  0  0  0  0  0  0  0  0  0
   27.5730  -20.5348   -9.6471 C   0  0  0  0  0  0  0  0  0  0  0  0
   28.5261  -21.2928  -10.3171 C   0  0  0  0  0  0  0  0  0  0  0  0
   29.5858  -21.4476   -9.5223 N   0  0  0  0  0  0  0  0  0  0  0  0
   29.3991  -20.8320   -8.3465 C   0  0  0  0  0  0  0  0  0  0  0  0
   30.1871  -20.7082   -7.2216 C   0  0  0  0  0  0  0  0  0  0  0  0
   29.7107  -19.9965   -6.1412 C   0  0  0  0  0  0  0  0  0  0  0  0
   28.4422  -19.4222   -6.2218 C   0  0  0  0  0  0  0  0  0  0  0  0
   27.6501  -19.5428   -7.3447 C   0  0  0  0  0  0  0  0  0  0  0  0
   28.1261  -20.2558   -8.4280 C   0  0  0  0  0  0  0  0  0  0  0  0
   24.3224  -20.8471  -11.5024 C   0  0  0  0  0  0  0  0  0  0  0  0
   23.5284  -20.9988  -10.5463 O   0  0  0  0  0  0  0  0  0  0  0  0
   17.0424  -17.7329  -15.3886 O   0  0  0  0  0  0  0  0  0  0  0  0
   18.3075  -18.0471  -14.9604 C   0  0  0  0  0  0  0  0  0  0  0  0
   18.6470  -17.9088  -13.6301 C   0  0  0  0  0  0  0  0  0  0  0  0
   19.9131  -18.2258  -13.2158 C   0  0  0  0  0  0  0  0  0  0  0  0
   20.8237  -18.6774  -14.1405 C   0  0  0  0  0  0  0  0  0  0  0  0
   22.1890  -19.0177  -13.7379 C   0  0  0  0  0  0  0  0  0  0  0  0
   22.3115  -20.3015  -12.9478 C   0  0  2  0  0  0  0  0  0  0  0  0
   23.7557  -20.5060  -12.7549 N   0  0  0  0  0  0  0  0  0  0  0  0
   21.7109  -21.4570  -13.6476 C   0  0  0  0  0  0  0  0  0  0  0  0
   22.3003  -22.1710  -14.4791 O   0  0  0  0  0  0  0  0  0  0  0  0
   20.4898  -18.8190  -15.4790 C   0  0  0  0  0  0  0  0  0  0  0  0
   19.2135  -18.4981  -15.8879 C   0  0  0  0  0  0  0  0  0  0  0  0
   20.3918  -21.7789  -13.3634 O   0  0  0  0  0  0  0  0  0  0  0  0
  2  1  1  6
  2  3  1  0
  4  2  1  0
  4  5  1  6
  6  4  1  0
  6  8  1  0
  7  6  2  0
  9  8  1  0
  9 20  1  0
  9 10  1  1
 11 19  1  0
 11 10  1  0
 12 11  2  0
 13 12  1  0
 13 14  1  0
 14 15  1  0
 14 19  2  0
 15 16  2  0
 16 17  1  0
 18 17  2  0
 19 18  1  0
 20 29  1  0
 21 20  2  0
 22 23  1  0
 23 24  2  0
 23 33  1  0
 24 25  1  0
 25 26  2  0
 26 27  1  0
 28 27  1  6
 28 30  1  0
 29 28  1  0
 30 31  2  0
 30 34  1  0
 32 26  1  0
 33 32  2  0
M  END
$$$$
