VWY.pdb
     RDKit          3D

 34 36  0  0  1  0  0  0  0  0999 V2000
   26.3791  -20.2632   -5.5568 C   0  0  0  0  0  0  0  0  0  0  0  0
   25.5875  -20.0521   -6.8780 C   0  0  2  0  0  0  0  0  0  0  0  0
   24.5359  -21.1415   -6.8331 C   0  0  0  0  0  0  0  0  0  0  0  0
   26.5497  -20.1873   -8.0203 C   0  0  2  0  0  0  0  0  0  0  0  0
   27.5303  -19.0986   -7.8194 N   0  0  0  0  0  0  0  0  0  0  0  0
   26.0170  -20.0581   -9.3631 C   0  0  0  0  0  0  0  0  0  0  0  0
   25.7356  -18.8788   -9.8044 O   0  0  0  0  0  0  0  0  0  0  0  0
   25.7714  -21.1217  -10.2640 N   0  0  0  0  0  0  0  0  0  0  0  0
   25.1950  -20.8801  -11.5966 C   0  0  1  0  0  0  0  0  0  0  0  0
   25.9144  -21.6877  -12.6162 C   0  0  0  0  0  0  0  0  0  0  0  0
   27.2008  -21.1272  -13.0316 C   0  0  0  0  0  0  0  0  0  0  0  0
   28.4322  -21.5089  -12.5122 C   0  0  0  0  0  0  0  0  0  0  0  0
   29.3885  -20.7993  -13.1127 N   0  0  0  0  0  0  0  0  0  0  0  0
   28.8669  -19.9554  -14.0139 C   0  0  0  0  0  0  0  0  0  0  0  0
   29.4347  -19.0347  -14.8692 C   0  0  0  0  0  0  0  0  0  0  0  0
   28.6194  -18.2946  -15.6989 C   0  0  0  0  0  0  0  0  0  0  0  0
   27.2412  -18.5026  -15.6461 C   0  0  0  0  0  0  0  0  0  0  0  0
   26.6683  -19.4225  -14.7927 C   0  0  0  0  0  0  0  0  0  0  0  0
   27.4840  -20.1647  -13.9606 C   0  0  0  0  0  0  0  0  0  0  0  0
   23.7302  -21.2303  -11.6208 C   0  0  0  0  0  0  0  0  0  0  0  0
   23.1224  -21.5390  -10.5704 O   0  0  0  0  0  0  0  0  0  0  0  0
   23.2538  -16.2621  -16.6116 O   0  0  0  0  0  0  0  0  0  0  0  0
   22.7516  -17.0947  -15.6437 C   0  0  0  0  0  0  0  0  0  0  0  0
   21.7586  -18.0019  -15.9519 C   0  0  0  0  0  0  0  0  0  0  0  0
   21.2660  -18.8271  -14.9764 C   0  0  0  0  0  0  0  0  0  0  0  0
   21.7747  -18.7326  -13.7035 C   0  0  0  0  0  0  0  0  0  0  0  0
   21.2678  -19.5911  -12.6321 C   0  0  0  0  0  0  0  0  0  0  0  0
   21.5125  -21.0691  -12.8398 C   0  0  2  0  0  0  0  0  0  0  0  0
   22.9748  -21.2304  -12.8189 N   0  0  0  0  0  0  0  0  0  0  0  0
   20.9525  -21.5622  -14.1162 C   0  0  0  0  0  0  0  0  0  0  0  0
   19.7383  -21.6562  -14.3721 O   0  0  0  0  0  0  0  0  0  0  0  0
   22.7728  -17.8235  -13.3863 C   0  0  0  0  0  0  0  0  0  0  0  0
   23.2634  -16.9967  -14.3737 C   0  0  0  0  0  0  0  0  0  0  0  0
   21.8379  -21.9518  -15.1104 O   0  0  0  0  0  0  0  0  0  0  0  0
  2  1  1  1
  2  3  1  0
  4  2  1  0
  4  5  1  1
  6  4  1  0
  6  8  1  0
  7  6  2  0
  9  8  1  0
  9 20  1  0
  9 10  1  6
 11 19  1  0
 11 10  1  0
 12 11  2  0
 13 12  1  0
 13 14  1  0
 14 15  1  0
 14 19  2  0
 15 16  2  0
 16 17  1  0
 18 17  2  0
 19 18  1  0
 20 29  1  0
 21 20  2  0
 22 23  1  0
 23 24  2  0
 23 33  1  0
 24 25  1  0
 25 26  2  0
 26 27  1  0
 28 27  1  6
 28 30  1  0
 29 28  1  0
 30 31  2  0
 30 34  1  0
 32 26  1  0
 33 32  2  0
M  END
$$$$
