VWY.pdb
     RDKit          3D

 34 36  0  0  1  0  0  0  0  0999 V2000
   27.7919  -24.4966  -19.1929 C   0  0  0  0  0  0  0  0  0  0  0  0
   26.7071  -24.1201  -18.1449 C   0  0  2  0  0  0  0  0  0  0  0  0
   25.7870  -23.1929  -18.9121 C   0  0  0  0  0  0  0  0  0  0  0  0
   27.3937  -23.4655  -16.9833 C   0  0  2  0  0  0  0  0  0  0  0  0
   28.0841  -24.5690  -16.2815 N   0  0  0  0  0  0  0  0  0  0  0  0
   26.5614  -22.7793  -16.0138 C   0  0  0  0  0  0  0  0  0  0  0  0
   25.9870  -23.4750  -15.0915 O   0  0  0  0  0  0  0  0  0  0  0  0
   26.3113  -21.3868  -15.9732 N   0  0  0  0  0  0  0  0  0  0  0  0
   25.5189  -20.7815  -14.8904 C   0  0  1  0  0  0  0  0  0  0  0  0
   26.1958  -19.5573  -14.3878 C   0  0  0  0  0  0  0  0  0  0  0  0
   27.4009  -19.8154  -13.5988 C   0  0  0  0  0  0  0  0  0  0  0  0
   28.6992  -19.6204  -14.0550 C   0  0  0  0  0  0  0  0  0  0  0  0
   29.5491  -19.9536  -13.0827 N   0  0  0  0  0  0  0  0  0  0  0  0
   28.8917  -20.3648  -11.9895 C   0  0  0  0  0  0  0  0  0  0  0  0
   29.3176  -20.8032  -10.7533 C   0  0  0  0  0  0  0  0  0  0  0  0
   28.3813  -21.1673   -9.8091 C   0  0  0  0  0  0  0  0  0  0  0  0
   27.0282  -21.0797  -10.1363 C   0  0  0  0  0  0  0  0  0  0  0  0
   26.5970  -20.6416  -11.3711 C   0  0  0  0  0  0  0  0  0  0  0  0
   27.5341  -20.2765  -12.3184 C   0  0  0  0  0  0  0  0  0  0  0  0
   24.1347  -20.4293  -15.3690 C   0  0  0  0  0  0  0  0  0  0  0  0
   23.9521  -19.9160  -16.4963 O   0  0  0  0  0  0  0  0  0  0  0  0
   20.7711  -19.3068   -8.8402 O   0  0  0  0  0  0  0  0  0  0  0  0
   20.7652  -19.7595  -10.1354 C   0  0  0  0  0  0  0  0  0  0  0  0
   21.5899  -20.7992  -10.5136 C   0  0  0  0  0  0  0  0  0  0  0  0
   21.5743  -21.2414  -11.8095 C   0  0  0  0  0  0  0  0  0  0  0  0
   20.7323  -20.6356  -12.7107 C   0  0  0  0  0  0  0  0  0  0  0  0
   20.6937  -21.0742  -14.1064 C   0  0  0  0  0  0  0  0  0  0  0  0
   21.6241  -20.3200  -15.0300 C   0  0  2  0  0  0  0  0  0  0  0  0
   22.9828  -20.6564  -14.5767 N   0  0  0  0  0  0  0  0  0  0  0  0
   21.4065  -18.8584  -14.9834 C   0  0  0  0  0  0  0  0  0  0  0  0
   20.4095  -18.2718  -15.4422 O   0  0  0  0  0  0  0  0  0  0  0  0
   19.9006  -19.5904  -12.3379 C   0  0  0  0  0  0  0  0  0  0  0  0
   19.9220  -19.1513  -11.0318 C   0  0  0  0  0  0  0  0  0  0  0  0
   22.3803  -18.0721  -14.3852 O   0  0  0  0  0  0  0  0  0  0  0  0
  2  1  1  6
  2  3  1  0
  4  2  1  0
  4  5  1  1
  6  4  1  0
  6  8  1  0
  7  6  2  0
  9  8  1  0
  9 20  1  0
  9 10  1  6
 11 19  1  0
 11 10  1  0
 12 11  2  0
 13 12  1  0
 13 14  1  0
 14 15  1  0
 14 19  2  0
 15 16  2  0
 16 17  1  0
 18 17  2  0
 19 18  1  0
 20 29  1  0
 21 20  2  0
 22 23  1  0
 23 24  2  0
 23 33  1  0
 24 25  1  0
 25 26  2  0
 26 27  1  0
 28 27  1  1
 28 30  1  0
 29 28  1  0
 30 31  2  0
 30 34  1  0
 32 26  1  0
 33 32  2  0
M  END
$$$$
