VWY.pdb
     RDKit          3D

 34 36  0  0  1  0  0  0  0  0999 V2000
   28.3033  -20.0238  -17.1895 C   0  0  0  0  0  0  0  0  0  0  0  0
   27.1993  -20.5221  -16.2150 C   0  0  2  0  0  0  0  0  0  0  0  0
   26.3365  -19.2945  -16.0072 C   0  0  0  0  0  0  0  0  0  0  0  0
   27.8706  -21.0080  -14.9651 C   0  0  2  0  0  0  0  0  0  0  0  0
   28.5824  -22.2386  -15.3723 N   0  0  0  0  0  0  0  0  0  0  0  0
   27.0230  -21.3424  -13.8366 C   0  0  0  0  0  0  0  0  0  0  0  0
   26.3555  -22.4459  -13.8719 O   0  0  0  0  0  0  0  0  0  0  0  0
   26.8516  -20.5624  -12.6681 N   0  0  0  0  0  0  0  0  0  0  0  0
   25.8531  -20.9197  -11.6474 C   0  0  1  0  0  0  0  0  0  0  0  0
   26.1391  -20.1966  -10.3807 C   0  0  0  0  0  0  0  0  0  0  0  0
   27.3857  -20.5962   -9.7266 C   0  0  0  0  0  0  0  0  0  0  0  0
   28.3800  -21.3617  -10.3244 C   0  0  0  0  0  0  0  0  0  0  0  0
   29.3699  -21.5372   -9.4481 N   0  0  0  0  0  0  0  0  0  0  0  0
   29.0966  -20.9286   -8.2856 C   0  0  0  0  0  0  0  0  0  0  0  0
   29.7926  -20.8247   -7.0997 C   0  0  0  0  0  0  0  0  0  0  0  0
   29.2396  -20.1153   -6.0548 C   0  0  0  0  0  0  0  0  0  0  0  0
   27.9892  -19.5233   -6.2322 C   0  0  0  0  0  0  0  0  0  0  0  0
   27.2891  -19.6240   -7.4164 C   0  0  0  0  0  0  0  0  0  0  0  0
   27.8419  -20.3347   -8.4643 C   0  0  0  0  0  0  0  0  0  0  0  0
   24.4615  -20.5822  -12.1150 C   0  0  0  0  0  0  0  0  0  0  0  0
   24.1849  -19.4406  -12.5488 O   0  0  0  0  0  0  0  0  0  0  0  0
   16.4848  -21.8654  -15.4804 O   0  0  0  0  0  0  0  0  0  0  0  0
   17.7405  -22.0046  -14.9453 C   0  0  0  0  0  0  0  0  0  0  0  0
   17.9278  -22.7329  -13.7884 C   0  0  0  0  0  0  0  0  0  0  0  0
   19.1863  -22.8640  -13.2647 C   0  0  0  0  0  0  0  0  0  0  0  0
   20.2418  -22.2630  -13.9072 C   0  0  0  0  0  0  0  0  0  0  0  0
   21.6001  -22.3729  -13.3735 C   0  0  0  0  0  0  0  0  0  0  0  0
   22.0366  -21.2062  -12.5158 C   0  0  2  0  0  0  0  0  0  0  0  0
   23.4068  -21.5271  -12.0865 N   0  0  0  0  0  0  0  0  0  0  0  0
   21.1577  -21.0041  -11.3443 C   0  0  0  0  0  0  0  0  0  0  0  0
   21.2797  -21.5896  -10.2530 O   0  0  0  0  0  0  0  0  0  0  0  0
   20.0613  -21.5296  -15.0703 C   0  0  0  0  0  0  0  0  0  0  0  0
   18.7917  -21.4026  -15.5910 C   0  0  0  0  0  0  0  0  0  0  0  0
   20.1158  -20.0955  -11.4587 O   0  0  0  0  0  0  0  0  0  0  0  0
  2  1  1  6
  2  3  1  0
  4  2  1  0
  4  5  1  6
  6  4  1  0
  6  8  1  0
  7  6  2  0
  9  8  1  0
  9 20  1  0
  9 10  1  1
 11 19  1  0
 11 10  1  0
 12 11  2  0
 13 12  1  0
 13 14  1  0
 14 15  1  0
 14 19  2  0
 15 16  2  0
 16 17  1  0
 18 17  2  0
 19 18  1  0
 20 29  1  0
 21 20  2  0
 22 23  1  0
 23 24  2  0
 23 33  1  0
 24 25  1  0
 25 26  2  0
 26 27  1  0
 28 27  1  6
 28 30  1  0
 29 28  1  0
 30 31  2  0
 30 34  1  0
 32 26  1  0
 33 32  2  0
M  END
$$$$
