VWY.pdb
     RDKit          3D

 34 36  0  0  1  0  0  0  0  0999 V2000
   29.3546  -23.0693  -15.7505 C   0  0  0  0  0  0  0  0  0  0  0  0
   28.3277  -22.6536  -16.8411 C   0  0  2  0  0  0  0  0  0  0  0  0
   29.2028  -22.2628  -18.0142 C   0  0  0  0  0  0  0  0  0  0  0  0
   27.5066  -21.5231  -16.2962 C   0  0  2  0  0  0  0  0  0  0  0  0
   28.4321  -20.3705  -16.2527 N   0  0  0  0  0  0  0  0  0  0  0  0
   26.9414  -21.6846  -14.9703 C   0  0  0  0  0  0  0  0  0  0  0  0
   25.8993  -22.4324  -14.8307 O   0  0  0  0  0  0  0  0  0  0  0  0
   27.4317  -21.0927  -13.7819 N   0  0  0  0  0  0  0  0  0  0  0  0
   26.7002  -21.2076  -12.5098 C   0  0  1  0  0  0  0  0  0  0  0  0
   27.5865  -20.8314  -11.3774 C   0  0  0  0  0  0  0  0  0  0  0  0
   26.9031  -20.7200  -10.0882 C   0  0  0  0  0  0  0  0  0  0  0  0
   25.5969  -21.1309   -9.8497 C   0  0  0  0  0  0  0  0  0  0  0  0
   25.2964  -20.8828   -8.5742 N   0  0  0  0  0  0  0  0  0  0  0  0
   26.3340  -20.3243   -7.9356 C   0  0  0  0  0  0  0  0  0  0  0  0
   26.5102  -19.8955   -6.6368 C   0  0  0  0  0  0  0  0  0  0  0  0
   27.7205  -19.3487   -6.2669 C   0  0  0  0  0  0  0  0  0  0  0  0
   28.7316  -19.2468   -7.2224 C   0  0  0  0  0  0  0  0  0  0  0  0
   28.5606  -19.6745   -8.5227 C   0  0  0  0  0  0  0  0  0  0  0  0
   27.3482  -20.2225   -8.8948 C   0  0  0  0  0  0  0  0  0  0  0  0
   25.4811  -20.3228  -12.5085 C   0  0  0  0  0  0  0  0  0  0  0  0
   25.5883  -19.0753  -12.5005 O   0  0  0  0  0  0  0  0  0  0  0  0
   17.9096  -17.1621  -15.1243 O   0  0  0  0  0  0  0  0  0  0  0  0
   19.0807  -17.8278  -14.8641 C   0  0  0  0  0  0  0  0  0  0  0  0
   20.2940  -17.2550  -15.1868 C   0  0  0  0  0  0  0  0  0  0  0  0
   21.4555  -17.9301  -14.9219 C   0  0  0  0  0  0  0  0  0  0  0  0
   21.3867  -19.1715  -14.3368 C   0  0  0  0  0  0  0  0  0  0  0  0
   22.6056  -19.9277  -14.0464 C   0  0  0  0  0  0  0  0  0  0  0  0
   22.9667  -20.0018  -12.5795 C   0  0  2  0  0  0  0  0  0  0  0  0
   24.1667  -20.8506  -12.5143 N   0  0  0  0  0  0  0  0  0  0  0  0
   21.8794  -20.5732  -11.7566 C   0  0  0  0  0  0  0  0  0  0  0  0
   21.5811  -21.7805  -11.7094 O   0  0  0  0  0  0  0  0  0  0  0  0
   20.1712  -19.7534  -14.0096 C   0  0  0  0  0  0  0  0  0  0  0  0
   19.0067  -19.0675  -14.2793 C   0  0  0  0  0  0  0  0  0  0  0  0
   21.1292  -19.7078  -10.9740 O   0  0  0  0  0  0  0  0  0  0  0  0
  2  1  1  1
  2  3  1  0
  4  2  1  0
  4  5  1  1
  6  4  1  0
  6  8  1  0
  7  6  2  0
  9  8  1  0
  9 20  1  0
  9 10  1  1
 11 19  1  0
 11 10  1  0
 12 11  2  0
 13 12  1  0
 13 14  1  0
 14 15  1  0
 14 19  2  0
 15 16  2  0
 16 17  1  0
 18 17  2  0
 19 18  1  0
 20 29  1  0
 21 20  2  0
 22 23  1  0
 23 24  2  0
 23 33  1  0
 24 25  1  0
 25 26  2  0
 26 27  1  0
 28 27  1  6
 28 30  1  0
 29 28  1  0
 30 31  2  0
 30 34  1  0
 32 26  1  0
 33 32  2  0
M  END
$$$$
