VWY.pdb
     RDKit          3D

 34 36  0  0  1  0  0  0  0  0999 V2000
   26.5349  -19.3490  -15.6877 C   0  0  0  0  0  0  0  0  0  0  0  0
   28.0537  -19.2575  -15.3689 C   0  0  2  0  0  0  0  0  0  0  0  0
   28.6647  -18.8476  -16.6930 C   0  0  0  0  0  0  0  0  0  0  0  0
   28.5065  -20.6028  -14.8848 C   0  0  2  0  0  0  0  0  0  0  0  0
   28.2052  -21.5267  -15.9995 N   0  0  0  0  0  0  0  0  0  0  0  0
   27.8752  -21.1320  -13.6910 C   0  0  0  0  0  0  0  0  0  0  0  0
   26.8558  -21.9113  -13.8260 O   0  0  0  0  0  0  0  0  0  0  0  0
   28.2763  -20.8768  -12.3580 N   0  0  0  0  0  0  0  0  0  0  0  0
   27.4265  -21.2526  -11.2164 C   0  0  1  0  0  0  0  0  0  0  0  0
   28.1856  -21.1057   -9.9469 C   0  0  0  0  0  0  0  0  0  0  0  0
   27.3489  -20.8935   -8.7652 C   0  0  0  0  0  0  0  0  0  0  0  0
   25.9870  -21.1645   -8.7039 C   0  0  0  0  0  0  0  0  0  0  0  0
   25.5436  -20.8553   -7.4848 N   0  0  0  0  0  0  0  0  0  0  0  0
   26.5370  -20.3881   -6.7159 C   0  0  0  0  0  0  0  0  0  0  0  0
   26.5787  -19.9465   -5.4102 C   0  0  0  0  0  0  0  0  0  0  0  0
   27.7776  -19.5152   -4.8836 C   0  0  0  0  0  0  0  0  0  0  0  0
   28.9140  -19.5399   -5.6920 C   0  0  0  0  0  0  0  0  0  0  0  0
   28.8777  -19.9809   -6.9986 C   0  0  0  0  0  0  0  0  0  0  0  0
   27.6770  -20.4133   -7.5276 C   0  0  0  0  0  0  0  0  0  0  0  0
   26.1882  -20.3966  -11.1628 C   0  0  0  0  0  0  0  0  0  0  0  0
   26.2654  -19.1470  -11.1819 O   0  0  0  0  0  0  0  0  0  0  0  0
   20.0567  -17.6913  -16.1576 O   0  0  0  0  0  0  0  0  0  0  0  0
   21.0489  -18.2653  -15.4037 C   0  0  0  0  0  0  0  0  0  0  0  0
   21.9522  -17.4748  -14.7229 C   0  0  0  0  0  0  0  0  0  0  0  0
   22.9378  -18.0604  -13.9741 C   0  0  0  0  0  0  0  0  0  0  0  0
   23.0062  -19.4316  -13.9171 C   0  0  0  0  0  0  0  0  0  0  0  0
   24.0505  -20.0943  -13.1347 C   0  0  0  0  0  0  0  0  0  0  0  0
   23.7068  -20.3072  -11.6773 C   0  0  2  0  0  0  0  0  0  0  0  0
   24.8887  -20.9548  -11.0870 N   0  0  0  0  0  0  0  0  0  0  0  0
   22.5059  -21.1503  -11.4958 C   0  0  0  0  0  0  0  0  0  0  0  0
   22.4931  -22.3934  -11.5538 O   0  0  0  0  0  0  0  0  0  0  0  0
   22.1019  -20.2325  -14.5983 C   0  0  0  0  0  0  0  0  0  0  0  0
   21.1128  -19.6355  -15.3496 C   0  0  0  0  0  0  0  0  0  0  0  0
   21.2974  -20.5190  -11.2406 O   0  0  0  0  0  0  0  0  0  0  0  0
  2  1  1  6
  2  3  1  0
  4  2  1  0
  4  5  1  6
  6  4  1  0
  6  8  1  0
  7  6  2  0
  9  8  1  0
  9 20  1  0
  9 10  1  1
 11 19  1  0
 11 10  1  0
 12 11  2  0
 13 12  1  0
 13 14  1  0
 14 15  1  0
 14 19  2  0
 15 16  2  0
 16 17  1  0
 18 17  2  0
 19 18  1  0
 20 29  1  0
 21 20  2  0
 22 23  1  0
 23 24  2  0
 23 33  1  0
 24 25  1  0
 25 26  2  0
 26 27  1  0
 28 27  1  6
 28 30  1  0
 29 28  1  0
 30 31  2  0
 30 34  1  0
 32 26  1  0
 33 32  2  0
M  END
$$$$
