VWY.pdb
     RDKit          3D

 34 36  0  0  1  0  0  0  0  0999 V2000
   29.6984  -22.3348  -14.5012 C   0  0  0  0  0  0  0  0  0  0  0  0
   28.6053  -22.1655  -15.5936 C   0  0  2  0  0  0  0  0  0  0  0  0
   29.3808  -21.6455  -16.7865 C   0  0  0  0  0  0  0  0  0  0  0  0
   27.5779  -21.2041  -15.0747 C   0  0  2  0  0  0  0  0  0  0  0  0
   28.2515  -19.8876  -15.0878 N   0  0  0  0  0  0  0  0  0  0  0  0
   27.0702  -21.4258  -13.7343 C   0  0  0  0  0  0  0  0  0  0  0  0
   26.1977  -22.3584  -13.5514 O   0  0  0  0  0  0  0  0  0  0  0  0
   27.4473  -20.7067  -12.5750 N   0  0  0  0  0  0  0  0  0  0  0  0
   26.7788  -20.9304  -11.2828 C   0  0  1  0  0  0  0  0  0  0  0  0
   27.6234  -20.4095  -10.1762 C   0  0  0  0  0  0  0  0  0  0  0  0
   27.0116  -20.5130   -8.8508 C   0  0  0  0  0  0  0  0  0  0  0  0
   25.7581  -21.0592   -8.6010 C   0  0  0  0  0  0  0  0  0  0  0  0
   25.5159  -20.9932   -7.2912 N   0  0  0  0  0  0  0  0  0  0  0  0
   26.5428  -20.4296   -6.6400 C   0  0  0  0  0  0  0  0  0  0  0  0
   26.7621  -20.1472   -5.3082 C   0  0  0  0  0  0  0  0  0  0  0  0
   27.9458  -19.5480   -4.9333 C   0  0  0  0  0  0  0  0  0  0  0  0
   28.8869  -19.2460   -5.9175 C   0  0  0  0  0  0  0  0  0  0  0  0
   28.6727  -19.5267   -7.2510 C   0  0  0  0  0  0  0  0  0  0  0  0
   27.4868  -20.1270   -7.6281 C   0  0  0  0  0  0  0  0  0  0  0  0
   25.4335  -20.2536  -11.2489 C   0  0  0  0  0  0  0  0  0  0  0  0
   25.3373  -19.0055  -11.2765 O   0  0  0  0  0  0  0  0  0  0  0  0
   17.2173  -19.0507  -13.7829 O   0  0  0  0  0  0  0  0  0  0  0  0
   18.4702  -19.5231  -13.4834 C   0  0  0  0  0  0  0  0  0  0  0  0
   18.6207  -20.6716  -12.7335 C   0  0  0  0  0  0  0  0  0  0  0  0
   19.8767  -21.1323  -12.4416 C   0  0  0  0  0  0  0  0  0  0  0  0
   20.9669  -20.4358  -12.9049 C   0  0  0  0  0  0  0  0  0  0  0  0
   22.3251  -20.8917  -12.6062 C   0  0  0  0  0  0  0  0  0  0  0  0
   22.9005  -20.3543  -11.3148 C   0  0  2  0  0  0  0  0  0  0  0  0
   24.2228  -20.9858  -11.1829 N   0  0  0  0  0  0  0  0  0  0  0  0
   22.0545  -20.6681  -10.1437 C   0  0  0  0  0  0  0  0  0  0  0  0
   22.0522  -21.7549   -9.5374 O   0  0  0  0  0  0  0  0  0  0  0  0
   20.8234  -19.2810  -13.6592 C   0  0  0  0  0  0  0  0  0  0  0  0
   19.5560  -18.8240  -13.9489 C   0  0  0  0  0  0  0  0  0  0  0  0
   21.1951  -19.6844   -9.6768 O   0  0  0  0  0  0  0  0  0  0  0  0
  2  1  1  1
  2  3  1  0
  4  2  1  0
  4  5  1  1
  6  4  1  0
  6  8  1  0
  7  6  2  0
  9  8  1  0
  9 20  1  0
  9 10  1  1
 11 19  1  0
 11 10  1  0
 12 11  2  0
 13 12  1  0
 13 14  1  0
 14 15  1  0
 14 19  2  0
 15 16  2  0
 16 17  1  0
 18 17  2  0
 19 18  1  0
 20 29  1  0
 21 20  2  0
 22 23  1  0
 23 24  2  0
 23 33  1  0
 24 25  1  0
 25 26  2  0
 26 27  1  0
 28 27  1  6
 28 30  1  0
 29 28  1  0
 30 31  2  0
 30 34  1  0
 32 26  1  0
 33 32  2  0
M  END
$$$$
