VWY.pdb
     RDKit          3D

 34 36  0  0  1  0  0  0  0  0999 V2000
   15.1367  -18.9053  -17.4113 C   0  0  0  0  0  0  0  0  0  0  0  0
   16.3900  -19.8081  -17.2358 C   0  0  2  0  0  0  0  0  0  0  0  0
   16.5185  -20.4930  -18.5808 C   0  0  0  0  0  0  0  0  0  0  0  0
   16.1254  -20.7511  -16.1000 C   0  0  2  0  0  0  0  0  0  0  0  0
   15.0006  -21.5928  -16.5618 N   0  0  0  0  0  0  0  0  0  0  0  0
   15.7484  -20.1733  -14.8242 C   0  0  0  0  0  0  0  0  0  0  0  0
   16.6289  -19.4939  -14.1702 O   0  0  0  0  0  0  0  0  0  0  0  0
   14.4781  -20.2786  -14.2090 N   0  0  0  0  0  0  0  0  0  0  0  0
   14.1959  -19.6318  -12.9172 C   0  0  1  0  0  0  0  0  0  0  0  0
   13.2792  -18.4786  -13.1151 C   0  0  0  0  0  0  0  0  0  0  0  0
   13.8948  -17.3249  -13.7722 C   0  0  0  0  0  0  0  0  0  0  0  0
   15.1156  -16.7687  -13.4088 C   0  0  0  0  0  0  0  0  0  0  0  0
   15.3717  -15.7361  -14.2130 N   0  0  0  0  0  0  0  0  0  0  0  0
   14.3854  -15.5644  -15.1041 C   0  0  0  0  0  0  0  0  0  0  0  0
   14.1940  -14.6531  -16.1212 C   0  0  0  0  0  0  0  0  0  0  0  0
   13.0506  -14.7303  -16.8877 C   0  0  0  0  0  0  0  0  0  0  0  0
   12.1211  -15.7320  -16.6082 C   0  0  0  0  0  0  0  0  0  0  0  0
   12.3079  -16.6462  -15.5922 C   0  0  0  0  0  0  0  0  0  0  0  0
   13.4531  -16.5699  -14.8232 C   0  0  0  0  0  0  0  0  0  0  0  0
   13.5748  -20.6069  -11.9516 C   0  0  0  0  0  0  0  0  0  0  0  0
   12.9688  -21.6235  -12.3604 O   0  0  0  0  0  0  0  0  0  0  0  0
    8.7443  -17.7063   -6.7576 O   0  0  0  0  0  0  0  0  0  0  0  0
    9.8464  -18.4317   -7.1341 C   0  0  0  0  0  0  0  0  0  0  0  0
   10.7655  -17.8965   -8.0131 C   0  0  0  0  0  0  0  0  0  0  0  0
   11.8611  -18.6310   -8.3808 C   0  0  0  0  0  0  0  0  0  0  0  0
   12.0218  -19.8936   -7.8630 C   0  0  0  0  0  0  0  0  0  0  0  0
   13.1749  -20.7127   -8.2389 C   0  0  0  0  0  0  0  0  0  0  0  0
   13.0603  -21.3792   -9.5917 C   0  0  2  0  0  0  0  0  0  0  0  0
   13.6421  -20.4249  -10.5486 N   0  0  0  0  0  0  0  0  0  0  0  0
   11.6610  -21.6911   -9.9529 C   0  0  0  0  0  0  0  0  0  0  0  0
   10.9039  -20.9348  -10.5882 O   0  0  0  0  0  0  0  0  0  0  0  0
   11.1024  -20.4381   -6.9790 C   0  0  0  0  0  0  0  0  0  0  0  0
   10.0026  -19.6923   -6.6137 C   0  0  0  0  0  0  0  0  0  0  0  0
   11.1427  -22.9162   -9.5597 O   0  0  0  0  0  0  0  0  0  0  0  0
  2  1  1  6
  2  3  1  0
  4  2  1  0
  4  5  1  6
  6  4  1  0
  6  8  1  0
  7  6  2  0
  9  8  1  0
  9 20  1  0
  9 10  1  6
 11 19  1  0
 11 10  1  0
 12 11  2  0
 13 12  1  0
 13 14  1  0
 14 15  1  0
 14 19  2  0
 15 16  2  0
 16 17  1  0
 18 17  2  0
 19 18  1  0
 20 29  1  0
 21 20  2  0
 22 23  1  0
 23 24  2  0
 23 33  1  0
 24 25  1  0
 25 26  2  0
 26 27  1  0
 28 27  1  1
 28 30  1  0
 29 28  1  0
 30 31  2  0
 30 34  1  0
 32 26  1  0
 33 32  2  0
M  END
$$$$
