VWY.pdb
     RDKit          3D

 34 36  0  0  1  0  0  0  0  0999 V2000
   28.9481  -18.6634  -15.1695 C   0  0  0  0  0  0  0  0  0  0  0  0
   27.7468  -19.2067  -14.3459 C   0  0  2  0  0  0  0  0  0  0  0  0
   27.3564  -18.0281  -13.4780 C   0  0  0  0  0  0  0  0  0  0  0  0
   28.2201  -20.3990  -13.5690 C   0  0  2  0  0  0  0  0  0  0  0  0
   28.5526  -21.4109  -14.5950 N   0  0  0  0  0  0  0  0  0  0  0  0
   27.2872  -21.0052  -12.6386 C   0  0  0  0  0  0  0  0  0  0  0  0
   26.3695  -21.7836  -13.1040 O   0  0  0  0  0  0  0  0  0  0  0  0
   27.2830  -20.8280  -11.2344 N   0  0  0  0  0  0  0  0  0  0  0  0
   26.2843  -21.4918  -10.3808 C   0  0  1  0  0  0  0  0  0  0  0  0
   26.8738  -21.7972   -9.0510 C   0  0  0  0  0  0  0  0  0  0  0  0
   26.9245  -20.6551   -8.1374 C   0  0  0  0  0  0  0  0  0  0  0  0
   26.1676  -19.4979   -8.2783 C   0  0  0  0  0  0  0  0  0  0  0  0
   26.4623  -18.6691   -7.2759 N   0  0  0  0  0  0  0  0  0  0  0  0
   27.3814  -19.2066   -6.4618 C   0  0  0  0  0  0  0  0  0  0  0  0
   27.9944  -18.7492   -5.3144 C   0  0  0  0  0  0  0  0  0  0  0  0
   28.9231  -19.5490   -4.6829 C   0  0  0  0  0  0  0  0  0  0  0  0
   29.2130  -20.8000   -5.2274 C   0  0  0  0  0  0  0  0  0  0  0  0
   28.6025  -21.2624   -6.3746 C   0  0  0  0  0  0  0  0  0  0  0  0
   27.6718  -20.4619   -7.0086 C   0  0  0  0  0  0  0  0  0  0  0  0
   25.0665  -20.6232  -10.2027 C   0  0  0  0  0  0  0  0  0  0  0  0
   25.1723  -19.4278   -9.8455 O   0  0  0  0  0  0  0  0  0  0  0  0
   20.5132  -18.1954  -16.8115 O   0  0  0  0  0  0  0  0  0  0  0  0
   21.2526  -18.7047  -15.7741 C   0  0  0  0  0  0  0  0  0  0  0  0
   21.5753  -17.9104  -14.6929 C   0  0  0  0  0  0  0  0  0  0  0  0
   22.3140  -18.4310  -13.6641 C   0  0  0  0  0  0  0  0  0  0  0  0
   22.7205  -19.7419  -13.7319 C   0  0  0  0  0  0  0  0  0  0  0  0
   23.5188  -20.3316  -12.6563 C   0  0  0  0  0  0  0  0  0  0  0  0
   22.8018  -20.4464  -11.3296 C   0  0  2  0  0  0  0  0  0  0  0  0
   23.7549  -21.1091  -10.4257 N   0  0  0  0  0  0  0  0  0  0  0  0
   21.5494  -21.2259  -11.4280 C   0  0  0  0  0  0  0  0  0  0  0  0
   20.4044  -20.7385  -11.4164 O   0  0  0  0  0  0  0  0  0  0  0  0
   22.3999  -20.5463  -14.8151 C   0  0  0  0  0  0  0  0  0  0  0  0
   21.6560  -20.0148  -15.8463 C   0  0  0  0  0  0  0  0  0  0  0  0
   21.6459  -22.6049  -11.5427 O   0  0  0  0  0  0  0  0  0  0  0  0
  2  1  1  6
  2  3  1  0
  4  2  1  0
  4  5  1  6
  6  4  1  0
  6  8  1  0
  7  6  2  0
  9  8  1  0
  9 20  1  0
  9 10  1  1
 11 19  1  0
 11 10  1  0
 12 11  2  0
 13 12  1  0
 13 14  1  0
 14 15  1  0
 14 19  2  0
 15 16  2  0
 16 17  1  0
 18 17  2  0
 19 18  1  0
 20 29  1  0
 21 20  2  0
 22 23  1  0
 23 24  2  0
 23 33  1  0
 24 25  1  0
 25 26  2  0
 26 27  1  0
 28 27  1  6
 28 30  1  0
 29 28  1  0
 30 31  2  0
 30 34  1  0
 32 26  1  0
 33 32  2  0
M  END
$$$$
