VWY.pdb
     RDKit          3D

 34 36  0  0  1  0  0  0  0  0999 V2000
   27.5106  -15.8285  -18.8184 C   0  0  0  0  0  0  0  0  0  0  0  0
   26.8063  -16.2959  -17.5137 C   0  0  2  0  0  0  0  0  0  0  0  0
   27.9385  -16.8831  -16.6963 C   0  0  0  0  0  0  0  0  0  0  0  0
   25.7513  -17.2934  -17.8894 C   0  0  2  0  0  0  0  0  0  0  0  0
   24.8029  -16.5393  -18.7373 N   0  0  0  0  0  0  0  0  0  0  0  0
   24.9924  -17.9024  -16.8139 C   0  0  0  0  0  0  0  0  0  0  0  0
   24.1975  -17.1586  -16.1216 O   0  0  0  0  0  0  0  0  0  0  0  0
   25.0335  -19.2665  -16.4388 N   0  0  0  0  0  0  0  0  0  0  0  0
   24.3628  -19.7469  -15.2198 C   0  0  1  0  0  0  0  0  0  0  0  0
   23.4343  -20.8584  -15.5542 C   0  0  0  0  0  0  0  0  0  0  0  0
   22.2178  -20.4387  -16.2509 C   0  0  0  0  0  0  0  0  0  0  0  0
   22.1163  -20.2655  -17.6262 C   0  0  0  0  0  0  0  0  0  0  0  0
   20.8734  -19.8802  -17.9184 N   0  0  0  0  0  0  0  0  0  0  0  0
   20.1266  -19.7837  -16.8097 C   0  0  0  0  0  0  0  0  0  0  0  0
   18.8105  -19.4306  -16.5979 C   0  0  0  0  0  0  0  0  0  0  0  0
   18.3141  -19.4237  -15.3117 C   0  0  0  0  0  0  0  0  0  0  0  0
   19.1629  -19.7757  -14.2624 C   0  0  0  0  0  0  0  0  0  0  0  0
   20.4799  -20.1300  -14.4688 C   0  0  0  0  0  0  0  0  0  0  0  0
   20.9787  -20.1373  -15.7571 C   0  0  0  0  0  0  0  0  0  0  0  0
   25.3688  -20.2216  -14.2039 C   0  0  0  0  0  0  0  0  0  0  0  0
   26.2984  -20.9953  -14.5281 O   0  0  0  0  0  0  0  0  0  0  0  0
   21.0430  -21.0039   -8.3883 O   0  0  0  0  0  0  0  0  0  0  0  0
   22.2406  -20.6271   -8.9417 C   0  0  0  0  0  0  0  0  0  0  0  0
   22.2675  -19.8269  -10.0655 C   0  0  0  0  0  0  0  0  0  0  0  0
   23.4695  -19.4581  -10.6080 C   0  0  0  0  0  0  0  0  0  0  0  0
   24.6302  -19.8964  -10.0173 C   0  0  0  0  0  0  0  0  0  0  0  0
   25.9338  -19.5307  -10.5729 C   0  0  0  0  0  0  0  0  0  0  0  0
   26.3025  -20.2582  -11.8466 C   0  0  2  0  0  0  0  0  0  0  0  0
   25.3141  -19.8232  -12.8459 N   0  0  0  0  0  0  0  0  0  0  0  0
   26.2714  -21.7279  -11.6890 C   0  0  0  0  0  0  0  0  0  0  0  0
   25.3726  -22.4717  -12.1219 O   0  0  0  0  0  0  0  0  0  0  0  0
   24.6110  -20.7006   -8.8877 C   0  0  0  0  0  0  0  0  0  0  0  0
   23.3972  -21.0672   -8.3477 C   0  0  0  0  0  0  0  0  0  0  0  0
   27.3179  -22.3339  -11.0095 O   0  0  0  0  0  0  0  0  0  0  0  0
  2  1  1  6
  2  3  1  0
  4  2  1  0
  4  5  1  6
  6  4  1  0
  6  8  1  0
  7  6  2  0
  9  8  1  0
  9 20  1  0
  9 10  1  6
 11 19  1  0
 11 10  1  0
 12 11  2  0
 13 12  1  0
 13 14  1  0
 14 15  1  0
 14 19  2  0
 15 16  2  0
 16 17  1  0
 18 17  2  0
 19 18  1  0
 20 29  1  0
 21 20  2  0
 22 23  1  0
 23 24  2  0
 23 33  1  0
 24 25  1  0
 25 26  2  0
 26 27  1  0
 28 27  1  1
 28 30  1  0
 29 28  1  0
 30 31  2  0
 30 34  1  0
 32 26  1  0
 33 32  2  0
M  END
$$$$
