GCM.pdb
     RDKit          3D

 19 18  0  0  1  0  0  0  0  0999 V2000
   17.5926  -14.9750  -16.3461 N   0  0  0  0  0  0  0  0  0  0  0  0
   18.7942  -14.2424  -16.6892 C   0  0  0  0  0  0  0  0  0  0  0  0
   18.4815  -12.7955  -16.6431 C   0  0  0  0  0  0  0  0  0  0  0  0
   18.7786  -12.0560  -17.6232 O   0  0  0  0  0  0  0  0  0  0  0  0
   17.8530  -12.1721  -15.5385 N   0  0  0  0  0  0  0  0  0  0  0  0
   17.4991  -10.7398  -15.5243 C   0  0  1  0  0  0  0  0  0  0  0  0
   16.3772  -10.5198  -14.5494 C   0  0  0  0  0  0  0  0  0  0  0  0
   15.9959   -8.7931  -14.2464 S   0  0  0  0  0  0  0  0  0  0  0  0
   18.6792   -9.9419  -15.1579 C   0  0  0  0  0  0  0  0  0  0  0  0
   19.4160  -10.2766  -14.1701 O   0  0  0  0  0  0  0  0  0  0  0  0
   23.3715   -7.7742  -19.2625 C   0  0  0  0  0  0  0  0  0  0  0  0
   22.4978   -6.3334  -18.5415 S   0  0  0  0  0  0  0  0  0  0  0  0
   22.0465   -6.7675  -16.8165 C   0  0  0  0  0  0  0  0  0  0  0  0
   20.7951   -7.5773  -16.8960 C   0  0  0  0  0  0  0  0  0  0  0  0
   20.2646   -8.0362  -15.5550 C   0  0  2  0  0  0  0  0  0  0  0  0
   19.0446   -8.7959  -15.8714 N   0  0  0  0  0  0  0  0  0  0  0  0
   19.8589   -6.9148  -14.6773 C   0  0  0  0  0  0  0  0  0  0  0  0
   20.6901   -6.3254  -13.7329 O   0  0  0  0  0  0  0  0  0  0  0  0
   18.6924   -6.4081  -14.7355 O   0  0  0  0  0  0  0  0  0  0  0  0
  2  3  1  0
  2  1  1  0
  3  5  1  0
  4  3  2  0
  6  5  1  0
  6  9  1  0
  6  7  1  1
  7  8  1  0
  9 16  1  0
  9 10  2  0
 11 12  1  0
 13 12  1  0
 13 14  1  0
 15 14  1  6
 15 17  1  0
 16 15  1  0
 17 19  2  0
 17 18  1  0
M  END
$$$$
