GCM.pdb
     RDKit          3D

 19 18  0  0  1  0  0  0  0  0999 V2000
   14.1499  -10.9489  -11.2726 N   0  0  0  0  0  0  0  0  0  0  0  0
   14.9900  -10.4856  -10.1873 C   0  0  0  0  0  0  0  0  0  0  0  0
   15.3415   -9.0707  -10.4476 C   0  0  0  0  0  0  0  0  0  0  0  0
   14.7277   -8.4243  -11.3427 O   0  0  0  0  0  0  0  0  0  0  0  0
   16.3503   -8.3781   -9.7360 N   0  0  0  0  0  0  0  0  0  0  0  0
   16.6914   -6.9676  -10.0031 C   0  0  1  0  0  0  0  0  0  0  0  0
   16.3351   -6.1392   -8.8013 C   0  0  0  0  0  0  0  0  0  0  0  0
   14.6070   -6.2356   -8.3292 S   0  0  0  0  0  0  0  0  0  0  0  0
   18.1245   -6.8552  -10.3141 C   0  0  0  0  0  0  0  0  0  0  0  0
   19.0003   -7.4369   -9.5893 O   0  0  0  0  0  0  0  0  0  0  0  0
   23.2794  -10.0309  -13.9067 C   0  0  0  0  0  0  0  0  0  0  0  0
   21.5580   -9.5984  -13.4495 S   0  0  0  0  0  0  0  0  0  0  0  0
   21.5606   -7.8559  -12.8739 C   0  0  0  0  0  0  0  0  0  0  0  0
   20.1900   -7.5793  -12.3514 C   0  0  0  0  0  0  0  0  0  0  0  0
   19.9897   -6.1666  -11.8472 C   0  0  2  0  0  0  0  0  0  0  0  0
   18.5855   -6.1175  -11.4092 N   0  0  0  0  0  0  0  0  0  0  0  0
   20.1467   -5.1448  -12.9071 C   0  0  0  0  0  0  0  0  0  0  0  0
   21.3376   -4.4834  -13.1805 O   0  0  0  0  0  0  0  0  0  0  0  0
   19.1744   -4.8000  -13.6533 O   0  0  0  0  0  0  0  0  0  0  0  0
  2  3  1  0
  2  1  1  0
  3  5  1  0
  4  3  2  0
  6  5  1  0
  6  9  1  0
  6  7  1  1
  7  8  1  0
  9 16  1  0
  9 10  2  0
 11 12  1  0
 13 12  1  0
 13 14  1  0
 15 14  1  6
 15 17  1  0
 16 15  1  0
 17 19  2  0
 17 18  1  0
M  END
$$$$
