GCM.pdb
     RDKit          3D

 19 18  0  0  1  0  0  0  0  0999 V2000
   26.8308  -10.0059  -16.4661 N   0  0  0  0  0  0  0  0  0  0  0  0
   27.4825  -11.0838  -15.7508 C   0  0  0  0  0  0  0  0  0  0  0  0
   26.7808  -12.3460  -16.0791 C   0  0  0  0  0  0  0  0  0  0  0  0
   25.7464  -12.3207  -16.8038 O   0  0  0  0  0  0  0  0  0  0  0  0
   27.2087  -13.6143  -15.6186 N   0  0  0  0  0  0  0  0  0  0  0  0
   26.5218  -14.8691  -15.9803 C   0  0  1  0  0  0  0  0  0  0  0  0
   27.4386  -16.0280  -15.7081 C   0  0  0  0  0  0  0  0  0  0  0  0
   26.6346  -17.6306  -15.7704 S   0  0  0  0  0  0  0  0  0  0  0  0
   25.2754  -14.9913  -15.2090 C   0  0  0  0  0  0  0  0  0  0  0  0
   25.2731  -14.8491  -13.9399 O   0  0  0  0  0  0  0  0  0  0  0  0
   21.4170  -11.0393  -14.0401 C   0  0  0  0  0  0  0  0  0  0  0  0
   20.2313  -12.1560  -14.8806 S   0  0  0  0  0  0  0  0  0  0  0  0
   20.7969  -13.8782  -14.5950 C   0  0  0  0  0  0  0  0  0  0  0  0
   22.1453  -13.9923  -15.2249 C   0  0  0  0  0  0  0  0  0  0  0  0
   22.7948  -15.3496  -15.0631 C   0  0  2  0  0  0  0  0  0  0  0  0
   24.0499  -15.2610  -15.8264 N   0  0  0  0  0  0  0  0  0  0  0  0
   22.0021  -16.4471  -15.6625 C   0  0  0  0  0  0  0  0  0  0  0  0
   20.9596  -17.0982  -15.0147 O   0  0  0  0  0  0  0  0  0  0  0  0
   22.2329  -16.8732  -16.8398 O   0  0  0  0  0  0  0  0  0  0  0  0
  2  3  1  0
  2  1  1  0
  3  5  1  0
  4  3  2  0
  6  5  1  0
  6  9  1  0
  6  7  1  1
  7  8  1  0
  9 16  1  0
  9 10  2  0
 11 12  1  0
 13 12  1  0
 13 14  1  0
 15 14  1  6
 15 17  1  0
 16 15  1  0
 17 19  2  0
 17 18  1  0
M  END
$$$$
