GCM.pdb
     RDKit          3D

 19 18  0  0  1  0  0  0  0  0999 V2000
   27.7621  -21.8794  -15.8995 N   0  0  0  0  0  0  0  0  0  0  0  0
   27.7264  -20.9452  -14.7931 C   0  0  0  0  0  0  0  0  0  0  0  0
   26.6057  -21.3265  -13.9032 C   0  0  0  0  0  0  0  0  0  0  0  0
   25.7016  -22.1006  -14.3264 O   0  0  0  0  0  0  0  0  0  0  0  0
   26.4810  -20.8648  -12.5709 N   0  0  0  0  0  0  0  0  0  0  0  0
   25.2904  -21.1314  -11.7411 C   0  0  1  0  0  0  0  0  0  0  0  0
   25.6101  -20.8181  -10.3069 C   0  0  0  0  0  0  0  0  0  0  0  0
   24.2003  -20.9177   -9.2018 S   0  0  0  0  0  0  0  0  0  0  0  0
   24.1618  -20.3180  -12.2189 C   0  0  0  0  0  0  0  0  0  0  0  0
   24.3379  -19.1121  -12.6004 O   0  0  0  0  0  0  0  0  0  0  0  0
   23.4073  -19.9252  -16.9507 C   0  0  0  0  0  0  0  0  0  0  0  0
   21.5837  -19.7492  -17.0035 S   0  0  0  0  0  0  0  0  0  0  0  0
   20.9947  -19.5809  -15.2736 C   0  0  0  0  0  0  0  0  0  0  0  0
   22.0666  -20.1476  -14.4031 C   0  0  0  0  0  0  0  0  0  0  0  0
   21.7628  -20.0856  -12.9218 C   0  0  2  0  0  0  0  0  0  0  0  0
   22.8604  -20.8266  -12.2800 N   0  0  0  0  0  0  0  0  0  0  0  0
   20.5051  -20.7772  -12.5583 C   0  0  0  0  0  0  0  0  0  0  0  0
   19.2754  -20.1426  -12.4350 O   0  0  0  0  0  0  0  0  0  0  0  0
   20.4721  -22.0294  -12.3303 O   0  0  0  0  0  0  0  0  0  0  0  0
  2  3  1  0
  2  1  1  0
  3  5  1  0
  4  3  2  0
  6  5  1  0
  6  9  1  0
  6  7  1  1
  7  8  1  0
  9 16  1  0
  9 10  2  0
 11 12  1  0
 13 12  1  0
 13 14  1  0
 15 14  1  6
 15 17  1  0
 16 15  1  0
 17 19  2  0
 17 18  1  0
M  END
$$$$
