GCM.pdb
     RDKit          3D

 19 18  0  0  1  0  0  0  0  0999 V2000
   15.3392  -13.6532  -13.6567 N   0  0  0  0  0  0  0  0  0  0  0  0
   15.4746  -12.2427  -13.9573 C   0  0  0  0  0  0  0  0  0  0  0  0
   16.1734  -11.5944  -12.8240 C   0  0  0  0  0  0  0  0  0  0  0  0
   16.3715  -12.2385  -11.7554 O   0  0  0  0  0  0  0  0  0  0  0  0
   16.6465  -10.2608  -12.8644 N   0  0  0  0  0  0  0  0  0  0  0  0
   17.2647   -9.5967  -11.7008 C   0  0  1  0  0  0  0  0  0  0  0  0
   18.6681   -9.1923  -12.0533 C   0  0  0  0  0  0  0  0  0  0  0  0
   18.7981   -8.2317  -13.5629 S   0  0  0  0  0  0  0  0  0  0  0  0
   16.4612   -8.4272  -11.3136 C   0  0  0  0  0  0  0  0  0  0  0  0
   15.8247   -7.7500  -12.1894 O   0  0  0  0  0  0  0  0  0  0  0  0
   11.0732   -6.2455   -6.4323 C   0  0  0  0  0  0  0  0  0  0  0  0
   12.2306   -7.4461   -7.1928 S   0  0  0  0  0  0  0  0  0  0  0  0
   13.5050   -6.4864   -8.0997 C   0  0  0  0  0  0  0  0  0  0  0  0
   14.4261   -7.4838   -8.7201 C   0  0  0  0  0  0  0  0  0  0  0  0
   15.5110   -6.8764   -9.5829 C   0  0  2  0  0  0  0  0  0  0  0  0
   16.3565   -8.0129   -9.9820 N   0  0  0  0  0  0  0  0  0  0  0  0
   16.3790   -5.9318   -8.8436 C   0  0  0  0  0  0  0  0  0  0  0  0
   16.0676   -4.5953   -8.6267 O   0  0  0  0  0  0  0  0  0  0  0  0
   17.4939   -6.2956   -8.3480 O   0  0  0  0  0  0  0  0  0  0  0  0
  2  3  1  0
  2  1  1  0
  3  5  1  0
  4  3  2  0
  6  5  1  0
  6  9  1  0
  6  7  1  6
  7  8  1  0
  9 16  1  0
  9 10  2  0
 11 12  1  0
 13 12  1  0
 13 14  1  0
 15 14  1  1
 15 17  1  0
 16 15  1  0
 17 19  2  0
 17 18  1  0
M  END
$$$$
