GCM.pdb
     RDKit          3D

 19 18  0  0  1  0  0  0  0  0999 V2000
   31.1910  -22.2825  -10.8213 N   0  0  0  0  0  0  0  0  0  0  0  0
   30.4044  -21.0678  -10.8825 C   0  0  0  0  0  0  0  0  0  0  0  0
   28.9755  -21.4366  -10.7587 C   0  0  0  0  0  0  0  0  0  0  0  0
   28.5197  -22.4168  -11.4126 O   0  0  0  0  0  0  0  0  0  0  0  0
   28.0630  -20.7402   -9.9304 N   0  0  0  0  0  0  0  0  0  0  0  0
   26.6306  -21.0856   -9.8524 C   0  0  1  0  0  0  0  0  0  0  0  0
   26.0632  -20.5449   -8.5705 C   0  0  0  0  0  0  0  0  0  0  0  0
   26.8472  -19.0357   -7.9995 S   0  0  0  0  0  0  0  0  0  0  0  0
   25.9234  -20.5309  -11.0166 C   0  0  0  0  0  0  0  0  0  0  0  0
   26.2515  -19.3971  -11.5040 O   0  0  0  0  0  0  0  0  0  0  0  0
   26.8272  -22.6859  -15.9024 C   0  0  0  0  0  0  0  0  0  0  0  0
   25.0889  -22.5419  -16.4653 S   0  0  0  0  0  0  0  0  0  0  0  0
   24.2303  -21.3946  -15.3189 C   0  0  0  0  0  0  0  0  0  0  0  0
   24.8241  -21.6208  -13.9682 C   0  0  0  0  0  0  0  0  0  0  0  0
   24.2554  -20.7336  -12.8820 C   0  0  2  0  0  0  0  0  0  0  0  0
   24.8743  -21.2166  -11.6373 N   0  0  0  0  0  0  0  0  0  0  0  0
   22.7909  -20.8806  -12.7207 C   0  0  0  0  0  0  0  0  0  0  0  0
   22.1906  -21.7435  -11.8123 O   0  0  0  0  0  0  0  0  0  0  0  0
   21.9697  -20.2075  -13.4231 O   0  0  0  0  0  0  0  0  0  0  0  0
  2  3  1  0
  2  1  1  0
  3  5  1  0
  4  3  2  0
  6  5  1  0
  6  9  1  0
  6  7  1  1
  7  8  1  0
  9 16  1  0
  9 10  2  0
 11 12  1  0
 13 12  1  0
 13 14  1  0
 15 14  1  6
 15 17  1  0
 16 15  1  0
 17 19  2  0
 17 18  1  0
M  END
$$$$
