GCM.pdb
     RDKit          3D

 19 18  0  0  1  0  0  0  0  0999 V2000
   19.1162  -15.3832  -18.0624 N   0  0  0  0  0  0  0  0  0  0  0  0
   19.5996  -14.6451  -16.9136 C   0  0  0  0  0  0  0  0  0  0  0  0
   20.0977  -13.3324  -17.3847 C   0  0  0  0  0  0  0  0  0  0  0  0
   21.0081  -13.2818  -18.2591 O   0  0  0  0  0  0  0  0  0  0  0  0
   19.6036  -12.0964  -16.9032 N   0  0  0  0  0  0  0  0  0  0  0  0
   20.1125  -10.7942  -17.3747 C   0  0  1  0  0  0  0  0  0  0  0  0
   18.9537   -9.8632  -17.5938 C   0  0  0  0  0  0  0  0  0  0  0  0
   17.7416   -9.8758  -16.2713 S   0  0  0  0  0  0  0  0  0  0  0  0
   21.0517  -10.2424  -16.3863 C   0  0  0  0  0  0  0  0  0  0  0  0
   20.8081  -10.3210  -15.1353 O   0  0  0  0  0  0  0  0  0  0  0  0
   27.6355  -11.2215  -15.1351 C   0  0  0  0  0  0  0  0  0  0  0  0
   27.1941   -9.8805  -16.3039 S   0  0  0  0  0  0  0  0  0  0  0  0
   25.7464   -8.9943  -15.6066 C   0  0  0  0  0  0  0  0  0  0  0  0
   24.5740   -9.3639  -16.4533 C   0  0  0  0  0  0  0  0  0  0  0  0
   23.2327   -9.1543  -15.7845 C   0  0  2  0  0  0  0  0  0  0  0  0
   22.2429   -9.6181  -16.7699 N   0  0  0  0  0  0  0  0  0  0  0  0
   22.9363   -7.7292  -15.5134 C   0  0  0  0  0  0  0  0  0  0  0  0
   23.1366   -7.1125  -14.2847 O   0  0  0  0  0  0  0  0  0  0  0  0
   22.4671   -6.9606  -16.4135 O   0  0  0  0  0  0  0  0  0  0  0  0
  2  3  1  0
  2  1  1  0
  3  5  1  0
  4  3  2  0
  6  5  1  0
  6  9  1  0
  6  7  1  1
  7  8  1  0
  9 16  1  0
  9 10  2  0
 11 12  1  0
 13 12  1  0
 13 14  1  0
 15 14  1  6
 15 17  1  0
 16 15  1  0
 17 19  2  0
 17 18  1  0
M  END
$$$$
