GCM.pdb
     RDKit          3D

 19 18  0  0  1  0  0  0  0  0999 V2000
   29.3726  -22.3505  -16.5426 N   0  0  0  0  0  0  0  0  0  0  0  0
   27.9533  -22.3640  -16.2534 C   0  0  0  0  0  0  0  0  0  0  0  0
   27.6780  -21.3156  -15.2443 C   0  0  0  0  0  0  0  0  0  0  0  0
   27.9972  -20.1163  -15.4799 O   0  0  0  0  0  0  0  0  0  0  0  0
   27.0624  -21.5809  -13.9975 N   0  0  0  0  0  0  0  0  0  0  0  0
   26.3053  -20.5608  -13.2471 C   0  0  1  0  0  0  0  0  0  0  0  0
   25.0674  -20.2003  -14.0185 C   0  0  0  0  0  0  0  0  0  0  0  0
   23.8864  -19.2164  -13.0935 S   0  0  0  0  0  0  0  0  0  0  0  0
   25.9628  -21.0795  -11.9141 C   0  0  0  0  0  0  0  0  0  0  0  0
   25.2628  -22.1395  -11.7831 O   0  0  0  0  0  0  0  0  0  0  0  0
   29.1763  -19.1420   -6.9223 C   0  0  0  0  0  0  0  0  0  0  0  0
   27.5764  -19.2181   -6.0314 S   0  0  0  0  0  0  0  0  0  0  0  0
   26.4518  -20.2918   -7.0062 C   0  0  0  0  0  0  0  0  0  0  0  0
   26.7959  -20.0740   -8.4422 C   0  0  0  0  0  0  0  0  0  0  0  0
   26.0023  -20.9267   -9.4084 C   0  0  2  0  0  0  0  0  0  0  0  0
   26.3887  -20.4434  -10.7437 N   0  0  0  0  0  0  0  0  0  0  0  0
   24.5395  -20.7330   -9.2863 C   0  0  0  0  0  0  0  0  0  0  0  0
   23.7173  -21.5042   -8.4742 O   0  0  0  0  0  0  0  0  0  0  0  0
   23.9287  -19.8237   -9.9350 O   0  0  0  0  0  0  0  0  0  0  0  0
  2  3  1  0
  2  1  1  0
  3  5  1  0
  4  3  2  0
  6  5  1  0
  6  9  1  0
  6  7  1  6
  7  8  1  0
  9 16  1  0
  9 10  2  0
 11 12  1  0
 13 12  1  0
 13 14  1  0
 15 14  1  1
 15 17  1  0
 16 15  1  0
 17 19  2  0
 17 18  1  0
M  END
$$$$
