GCM.pdb
     RDKit          3D

 19 18  0  0  1  0  0  0  0  0999 V2000
   18.6899  -12.3340  -16.1981 N   0  0  0  0  0  0  0  0  0  0  0  0
   19.6555  -11.5411  -16.9310 C   0  0  0  0  0  0  0  0  0  0  0  0
   19.4412  -10.1172  -16.5848 C   0  0  0  0  0  0  0  0  0  0  0  0
   19.4791   -9.2369  -17.4901 O   0  0  0  0  0  0  0  0  0  0  0  0
   19.1894   -9.6685  -15.2661 N   0  0  0  0  0  0  0  0  0  0  0  0
   18.9648   -8.2484  -14.9345 C   0  0  1  0  0  0  0  0  0  0  0  0
   17.9902   -8.1575  -13.7945 C   0  0  0  0  0  0  0  0  0  0  0  0
   18.5317   -8.9854  -12.2979 S   0  0  0  0  0  0  0  0  0  0  0  0
   20.2446   -7.6132  -14.5851 C   0  0  0  0  0  0  0  0  0  0  0  0
   21.1461   -8.2595  -13.9524 O   0  0  0  0  0  0  0  0  0  0  0  0
   22.2873   -1.5300  -16.9939 C   0  0  0  0  0  0  0  0  0  0  0  0
   23.3387   -2.9726  -17.4093 S   0  0  0  0  0  0  0  0  0  0  0  0
   23.3716   -4.0732  -15.9412 C   0  0  0  0  0  0  0  0  0  0  0  0
   22.1004   -4.8551  -15.9682 C   0  0  0  0  0  0  0  0  0  0  0  0
   21.8633   -5.7001  -14.7352 C   0  0  2  0  0  0  0  0  0  0  0  0
   20.5288   -6.2884  -14.9315 N   0  0  0  0  0  0  0  0  0  0  0  0
   21.8042   -4.9032  -13.4887 C   0  0  0  0  0  0  0  0  0  0  0  0
   20.6297   -4.4062  -12.9375 O   0  0  0  0  0  0  0  0  0  0  0  0
   22.8538   -4.6166  -12.8275 O   0  0  0  0  0  0  0  0  0  0  0  0
  2  3  1  0
  2  1  1  0
  3  5  1  0
  4  3  2  0
  6  5  1  0
  6  9  1  0
  6  7  1  1
  7  8  1  0
  9 16  1  0
  9 10  2  0
 11 12  1  0
 13 12  1  0
 13 14  1  0
 15 14  1  6
 15 17  1  0
 16 15  1  0
 17 19  2  0
 17 18  1  0
M  END
$$$$
