GCM.pdb
     RDKit          3D

 19 18  0  0  1  0  0  0  0  0999 V2000
   27.4602  -22.7959  -16.8872 N   0  0  0  0  0  0  0  0  0  0  0  0
   27.7338  -24.1896  -17.1718 C   0  0  0  0  0  0  0  0  0  0  0  0
   26.5529  -24.9845  -16.7630 C   0  0  0  0  0  0  0  0  0  0  0  0
   25.7060  -24.4893  -15.9672 O   0  0  0  0  0  0  0  0  0  0  0  0
   26.3072  -26.3011  -17.2212 N   0  0  0  0  0  0  0  0  0  0  0  0
   25.1194  -27.0785  -16.8188 C   0  0  1  0  0  0  0  0  0  0  0  0
   23.8832  -26.3721  -17.2990 C   0  0  0  0  0  0  0  0  0  0  0  0
   24.1762  -24.7088  -17.9038 S   0  0  0  0  0  0  0  0  0  0  0  0
   25.2022  -28.4354  -17.3803 C   0  0  0  0  0  0  0  0  0  0  0  0
   26.0283  -28.7088  -18.3150 O   0  0  0  0  0  0  0  0  0  0  0  0
   29.3028  -31.5957  -16.4652 C   0  0  0  0  0  0  0  0  0  0  0  0
   28.0847  -32.5417  -15.4751 S   0  0  0  0  0  0  0  0  0  0  0  0
   26.4955  -32.5259  -16.3926 C   0  0  0  0  0  0  0  0  0  0  0  0
   26.0198  -31.1111  -16.3935 C   0  0  0  0  0  0  0  0  0  0  0  0
   24.7272  -30.8897  -17.1489 C   0  0  2  0  0  0  0  0  0  0  0  0
   24.3913  -29.4760  -16.9162 N   0  0  0  0  0  0  0  0  0  0  0  0
   23.6016  -31.6932  -16.6200 C   0  0  0  0  0  0  0  0  0  0  0  0
   23.3369  -33.0043  -16.9957 O   0  0  0  0  0  0  0  0  0  0  0  0
   22.7852  -31.2196  -15.7655 O   0  0  0  0  0  0  0  0  0  0  0  0
  2  3  1  0
  2  1  1  0
  3  5  1  0
  4  3  2  0
  6  5  1  0
  6  9  1  0
  6  7  1  6
  7  8  1  0
  9 16  1  0
  9 10  2  0
 11 12  1  0
 13 12  1  0
 13 14  1  0
 15 14  1  1
 15 17  1  0
 16 15  1  0
 17 19  2  0
 17 18  1  0
M  END
$$$$
