GCM.pdb
     RDKit          3D

 19 18  0  0  1  0  0  0  0  0999 V2000
   26.6836  -16.5179  -15.5091 N   0  0  0  0  0  0  0  0  0  0  0  0
   27.2636  -16.8830  -14.2330 C   0  0  0  0  0  0  0  0  0  0  0  0
   26.4660  -17.9937  -13.6645 C   0  0  0  0  0  0  0  0  0  0  0  0
   25.2143  -17.8723  -13.5442 O   0  0  0  0  0  0  0  0  0  0  0  0
   27.0343  -19.2172  -13.2355 N   0  0  0  0  0  0  0  0  0  0  0  0
   26.2473  -20.2750  -12.5731 C   0  0  1  0  0  0  0  0  0  0  0  0
   26.4592  -21.5734  -13.2988 C   0  0  0  0  0  0  0  0  0  0  0  0
   25.5707  -22.9628  -12.5926 S   0  0  0  0  0  0  0  0  0  0  0  0
   26.6549  -20.3866  -11.1643 C   0  0  0  0  0  0  0  0  0  0  0  0
   27.8529  -20.6986  -10.8511 O   0  0  0  0  0  0  0  0  0  0  0  0
   29.5370  -19.3639   -6.0220 C   0  0  0  0  0  0  0  0  0  0  0  0
   27.7999  -18.8574   -5.7306 S   0  0  0  0  0  0  0  0  0  0  0  0
   26.7186  -20.1176   -6.5119 C   0  0  0  0  0  0  0  0  0  0  0  0
   26.7027  -19.8160   -7.9737 C   0  0  0  0  0  0  0  0  0  0  0  0
   25.9075  -20.8005   -8.8035 C   0  0  2  0  0  0  0  0  0  0  0  0
   25.7581  -20.1533  -10.1168 N   0  0  0  0  0  0  0  0  0  0  0  0
   24.5423  -21.0315   -8.2788 C   0  0  0  0  0  0  0  0  0  0  0  0
   24.2676  -21.6920   -7.0878 O   0  0  0  0  0  0  0  0  0  0  0  0
   23.5086  -20.6284   -8.9032 O   0  0  0  0  0  0  0  0  0  0  0  0
  2  3  1  0
  2  1  1  0
  3  5  1  0
  4  3  2  0
  6  5  1  0
  6  9  1  0
  6  7  1  6
  7  8  1  0
  9 16  1  0
  9 10  2  0
 11 12  1  0
 13 12  1  0
 13 14  1  0
 15 14  1  1
 15 17  1  0
 16 15  1  0
 17 19  2  0
 17 18  1  0
M  END
$$$$
