GCM.pdb
     RDKit          3D

 19 18  0  0  1  0  0  0  0  0999 V2000
   12.9271  -10.7811   -9.6737 N   0  0  0  0  0  0  0  0  0  0  0  0
   13.9113   -9.7767   -9.3260 C   0  0  0  0  0  0  0  0  0  0  0  0
   14.4509   -9.2055  -10.5813 C   0  0  0  0  0  0  0  0  0  0  0  0
   14.1640   -9.7391  -11.6898 O   0  0  0  0  0  0  0  0  0  0  0  0
   15.2915   -8.0671  -10.6176 N   0  0  0  0  0  0  0  0  0  0  0  0
   15.7637   -7.4623  -11.8779 C   0  0  1  0  0  0  0  0  0  0  0  0
   15.0591   -6.1522  -12.0892 C   0  0  0  0  0  0  0  0  0  0  0  0
   13.2913   -6.3037  -12.3544 S   0  0  0  0  0  0  0  0  0  0  0  0
   17.2212   -7.2732  -11.8207 C   0  0  0  0  0  0  0  0  0  0  0  0
   17.8227   -7.1491  -10.7011 O   0  0  0  0  0  0  0  0  0  0  0  0
   23.8660  -10.2201  -13.5102 C   0  0  0  0  0  0  0  0  0  0  0  0
   22.0351  -10.1481  -13.5533 S   0  0  0  0  0  0  0  0  0  0  0  0
   21.5446   -8.4002  -13.2855 C   0  0  0  0  0  0  0  0  0  0  0  0
   20.0558   -8.3886  -13.1789 C   0  0  0  0  0  0  0  0  0  0  0  0
   19.4606   -7.0202  -12.9270 C   0  0  2  0  0  0  0  0  0  0  0  0
   18.0044   -7.2265  -12.9784 N   0  0  0  0  0  0  0  0  0  0  0  0
   19.7947   -6.0389  -13.9842 C   0  0  0  0  0  0  0  0  0  0  0  0
   20.8968   -5.1939  -13.9419 O   0  0  0  0  0  0  0  0  0  0  0  0
   19.0737   -5.9054  -15.0250 O   0  0  0  0  0  0  0  0  0  0  0  0
  2  3  1  0
  2  1  1  0
  3  5  1  0
  4  3  2  0
  6  5  1  0
  6  9  1  0
  6  7  1  1
  7  8  1  0
  9 16  1  0
  9 10  2  0
 11 12  1  0
 13 12  1  0
 13 14  1  0
 15 14  1  6
 15 17  1  0
 16 15  1  0
 17 19  2  0
 17 18  1  0
M  END
$$$$
