GCM.pdb
     RDKit          3D

 19 18  0  0  1  0  0  0  0  0999 V2000
   13.9702  -21.8696    1.5442 N   0  0  0  0  0  0  0  0  0  0  0  0
   14.6699  -21.9510    2.8099 C   0  0  0  0  0  0  0  0  0  0  0  0
   15.6905  -20.8784    2.8428 C   0  0  0  0  0  0  0  0  0  0  0  0
   16.2545  -20.5135    1.7729 O   0  0  0  0  0  0  0  0  0  0  0  0
   16.0846  -20.2181    4.0312 N   0  0  0  0  0  0  0  0  0  0  0  0
   16.9968  -19.0584    4.0362 C   0  0  1  0  0  0  0  0  0  0  0  0
   16.3734  -17.9387    3.2517 C   0  0  0  0  0  0  0  0  0  0  0  0
   17.4150  -16.4870    3.0898 S   0  0  0  0  0  0  0  0  0  0  0  0
   17.2645  -18.6450    5.4221 C   0  0  0  0  0  0  0  0  0  0  0  0
   16.4232  -18.8855    6.3521 O   0  0  0  0  0  0  0  0  0  0  0  0
   23.0572  -18.4684    8.5801 C   0  0  0  0  0  0  0  0  0  0  0  0
   22.5016  -16.7282    8.4315 S   0  0  0  0  0  0  0  0  0  0  0  0
   20.6683  -16.7246    8.5146 C   0  0  0  0  0  0  0  0  0  0  0  0
   20.1828  -17.2395    7.2003 C   0  0  0  0  0  0  0  0  0  0  0  0
   18.6988  -17.5333    7.1571 C   0  0  2  0  0  0  0  0  0  0  0  0
   18.4427  -17.9813    5.7788 N   0  0  0  0  0  0  0  0  0  0  0  0
   17.8630  -16.3322    7.3825 C   0  0  0  0  0  0  0  0  0  0  0  0
   17.4030  -15.9267    8.6292 O   0  0  0  0  0  0  0  0  0  0  0  0
   17.5047  -15.5768    6.4223 O   0  0  0  0  0  0  0  0  0  0  0  0
  2  3  1  0
  2  1  1  0
  3  5  1  0
  4  3  2  0
  6  5  1  0
  6  9  1  0
  6  7  1  6
  7  8  1  0
  9 16  1  0
  9 10  2  0
 11 12  1  0
 13 12  1  0
 13 14  1  0
 15 14  1  6
 15 17  1  0
 16 15  1  0
 17 19  2  0
 17 18  1  0
M  END
$$$$
