IEL.pdb
     RDKit          3D

 26 25  0  0  1  0  0  0  0  0999 V2000
   27.8875  -20.3845   -5.9978 C   0  0  0  0  0  0  0  0  0  0  0  0
   26.5525  -20.0821   -6.5999 C   0  0  0  0  0  0  0  0  0  0  0  0
   26.5020  -20.3225   -8.0775 C   0  0  2  0  0  0  0  0  0  0  0  0
   27.7454  -19.7631   -8.7387 C   0  0  0  0  0  0  0  0  0  0  0  0
   25.2476  -19.8410   -8.7336 C   0  0  2  0  0  0  0  0  0  0  0  0
   24.1601  -20.6299   -8.1009 N   0  0  0  0  0  0  0  0  0  0  0  0
   25.1733  -20.1638  -10.1931 C   0  0  0  0  0  0  0  0  0  0  0  0
   26.1562  -19.8308  -10.8887 O   0  0  0  0  0  0  0  0  0  0  0  0
   24.0920  -20.8009  -10.7916 N   0  0  0  0  0  0  0  0  0  0  0  0
   23.7871  -21.0486  -12.1505 C   0  0  1  0  0  0  0  0  0  0  0  0
   22.3504  -21.1444  -12.5203 C   0  0  0  0  0  0  0  0  0  0  0  0
   22.0017  -21.5204  -13.9070 C   0  0  0  0  0  0  0  0  0  0  0  0
   20.5568  -21.5578  -14.2189 C   0  0  0  0  0  0  0  0  0  0  0  0
   19.9516  -20.6775  -14.8740 O   0  0  0  0  0  0  0  0  0  0  0  0
   24.5567  -20.4043  -13.2100 C   0  0  0  0  0  0  0  0  0  0  0  0
   24.5191  -19.1131  -13.2323 O   0  0  0  0  0  0  0  0  0  0  0  0
   19.7778  -22.6354  -13.7683 O   0  0  0  0  0  0  0  0  0  0  0  0
   29.7824  -21.2930  -13.8972 C   0  0  0  0  0  0  0  0  0  0  0  0
   28.4372  -20.5701  -13.7022 C   0  0  1  0  0  0  0  0  0  0  0  0
   28.7981  -19.1343  -13.3966 C   0  0  0  0  0  0  0  0  0  0  0  0
   27.6948  -20.7367  -14.9767 C   0  0  0  0  0  0  0  0  0  0  0  0
   26.3021  -20.1953  -15.0122 C   0  0  2  0  0  0  0  0  0  0  0  0
   25.3369  -20.9492  -14.2341 N   0  0  0  0  0  0  0  0  0  0  0  0
   25.8554  -20.2296  -16.4174 C   0  0  0  0  0  0  0  0  0  0  0  0
   25.0965  -21.1261  -16.8203 O   0  0  0  0  0  0  0  0  0  0  0  0
   26.2857  -19.2543  -17.2940 O   0  0  0  0  0  0  0  0  0  0  0  0
  1  2  1  0
  2  3  1  0
  3  5  1  0
  3  4  1  6
  5  6  1  1
  7  5  1  0
  7  8  2  0
  9 10  1  0
  9  7  1  0
 11 12  1  0
 10 11  1  1
 12 13  1  0
 13 14  2  0
 13 17  1  0
 15 16  2  0
 15 10  1  0
 19 18  1  6
 19 20  1  0
 19 21  1  0
 22 21  1  6
 22 23  1  0
 22 24  1  0
 23 15  1  0
 24 26  1  0
 25 24  2  0
M  END
$$$$
