IEL.pdb
     RDKit          3D

 26 25  0  0  1  0  0  0  0  0999 V2000
   16.7082  -11.8491  -19.3043 C   0  0  0  0  0  0  0  0  0  0  0  0
   17.9327  -11.8728  -18.4463 C   0  0  0  0  0  0  0  0  0  0  0  0
   18.0032  -10.7267  -17.4845 C   0  0  2  0  0  0  0  0  0  0  0  0
   17.8159   -9.4161  -18.2219 C   0  0  0  0  0  0  0  0  0  0  0  0
   19.2273  -10.7222  -16.6259 C   0  0  2  0  0  0  0  0  0  0  0  0
   19.1592  -11.9925  -15.8595 N   0  0  0  0  0  0  0  0  0  0  0  0
   19.2316   -9.6376  -15.5948 C   0  0  0  0  0  0  0  0  0  0  0  0
   18.3036   -9.6593  -14.7586 O   0  0  0  0  0  0  0  0  0  0  0  0
   20.1950   -8.6373  -15.5264 N   0  0  0  0  0  0  0  0  0  0  0  0
   20.2521   -7.4435  -14.7698 C   0  0  1  0  0  0  0  0  0  0  0  0
   21.5183   -7.1547  -14.0464 C   0  0  0  0  0  0  0  0  0  0  0  0
   21.6074   -5.9149  -13.2460 C   0  0  0  0  0  0  0  0  0  0  0  0
   22.3295   -4.7909  -13.8798 C   0  0  0  0  0  0  0  0  0  0  0  0
   23.3934   -4.9112  -14.5310 O   0  0  0  0  0  0  0  0  0  0  0  0
   19.6511   -6.2154  -15.2803 C   0  0  0  0  0  0  0  0  0  0  0  0
   20.1897   -5.7219  -16.3460 O   0  0  0  0  0  0  0  0  0  0  0  0
   21.8203   -3.4875  -13.7664 O   0  0  0  0  0  0  0  0  0  0  0  0
   14.5656   -5.1258  -16.6471 C   0  0  0  0  0  0  0  0  0  0  0  0
   16.1016   -5.1872  -16.7305 C   0  0  1  0  0  0  0  0  0  0  0  0
   16.4399   -4.7715  -18.1440 C   0  0  0  0  0  0  0  0  0  0  0  0
   16.6053   -4.2462  -15.6989 C   0  0  0  0  0  0  0  0  0  0  0  0
   18.0791   -4.2565  -15.4505 C   0  0  2  0  0  0  0  0  0  0  0  0
   18.5783   -5.4560  -14.8044 N   0  0  0  0  0  0  0  0  0  0  0  0
   18.3801   -3.1205  -14.5591 C   0  0  0  0  0  0  0  0  0  0  0  0
   18.7845   -3.3126  -13.4009 O   0  0  0  0  0  0  0  0  0  0  0  0
   18.2103   -1.8299  -15.0177 O   0  0  0  0  0  0  0  0  0  0  0  0
  1  2  1  0
  2  3  1  0
  3  5  1  0
  3  4  1  6
  5  6  1  1
  7  5  1  0
  7  8  2  0
  9 10  1  0
  9  7  1  0
 11 12  1  0
 10 11  1  6
 12 13  1  0
 13 14  2  0
 13 17  1  0
 15 16  2  0
 15 10  1  0
 19 18  1  6
 19 20  1  0
 19 21  1  0
 22 21  1  1
 22 23  1  0
 22 24  1  0
 23 15  1  0
 24 26  1  0
 25 24  2  0
M  END
$$$$
