IEL.pdb
     RDKit          3D

 26 25  0  0  1  0  0  0  0  0999 V2000
   17.1172  -24.8409    2.2103 C   0  0  0  0  0  0  0  0  0  0  0  0
   15.8406  -24.0783    2.0527 C   0  0  0  0  0  0  0  0  0  0  0  0
   15.8936  -22.7063    2.6513 C   0  0  2  0  0  0  0  0  0  0  0  0
   16.3358  -22.7866    4.0985 C   0  0  0  0  0  0  0  0  0  0  0  0
   14.6334  -21.9181    2.4883 C   0  0  2  0  0  0  0  0  0  0  0  0
   14.4030  -21.8680    1.0220 N   0  0  0  0  0  0  0  0  0  0  0  0
   14.7604  -20.4902    2.9180 C   0  0  0  0  0  0  0  0  0  0  0  0
   15.1750  -19.6838    2.0585 O   0  0  0  0  0  0  0  0  0  0  0  0
   14.4450  -20.0338    4.1930 N   0  0  0  0  0  0  0  0  0  0  0  0
   14.4746  -18.7366    4.7563 C   0  0  1  0  0  0  0  0  0  0  0  0
   13.7655  -18.5377    6.0476 C   0  0  0  0  0  0  0  0  0  0  0  0
   13.6807  -17.1703    6.6034 C   0  0  0  0  0  0  0  0  0  0  0  0
   12.8745  -17.0256    7.8345 C   0  0  0  0  0  0  0  0  0  0  0  0
   12.2838  -17.9701    8.4082 O   0  0  0  0  0  0  0  0  0  0  0  0
   15.6927  -17.9345    4.7010 C   0  0  0  0  0  0  0  0  0  0  0  0
   16.7920  -18.5543    4.9775 O   0  0  0  0  0  0  0  0  0  0  0  0
   12.7386  -15.7613    8.4297 O   0  0  0  0  0  0  0  0  0  0  0  0
   19.3583  -14.3892    2.8438 C   0  0  0  0  0  0  0  0  0  0  0  0
   18.4727  -13.7995    3.9565 C   0  0  1  0  0  0  0  0  0  0  0  0
   18.3491  -12.3290    3.6288 C   0  0  0  0  0  0  0  0  0  0  0  0
   17.1843  -14.5333    3.8859 C   0  0  0  0  0  0  0  0  0  0  0  0
   17.1647  -15.9041    4.4813 C   0  0  2  0  0  0  0  0  0  0  0  0
   15.8839  -16.5816    4.4049 N   0  0  0  0  0  0  0  0  0  0  0  0
   17.5027  -15.7649    5.9102 C   0  0  0  0  0  0  0  0  0  0  0  0
   16.6883  -15.2763    6.7102 O   0  0  0  0  0  0  0  0  0  0  0  0
   18.7378  -16.1825    6.3629 O   0  0  0  0  0  0  0  0  0  0  0  0
  1  2  1  0
  2  3  1  0
  3  5  1  0
  3  4  1  1
  5  6  1  6
  7  5  1  0
  7  8  2  0
  9 10  1  0
  9  7  1  0
 11 12  1  0
 10 11  1  1
 12 13  1  0
 13 14  2  0
 13 17  1  0
 15 16  2  0
 15 10  1  0
 19 18  1  6
 19 20  1  0
 19 21  1  0
 22 21  1  1
 22 23  1  0
 22 24  1  0
 23 15  1  0
 24 26  1  0
 25 24  2  0
M  END
$$$$
