IEL.pdb
     RDKit          3D

 26 25  0  0  1  0  0  0  0  0999 V2000
   20.0685  -17.8075  -15.8251 C   0  0  0  0  0  0  0  0  0  0  0  0
   21.4756  -17.9008  -16.3225 C   0  0  0  0  0  0  0  0  0  0  0  0
   22.3264  -18.8353  -15.5185 C   0  0  2  0  0  0  0  0  0  0  0  0
   22.1837  -18.5285  -14.0413 C   0  0  0  0  0  0  0  0  0  0  0  0
   23.7573  -18.8851  -15.9497 C   0  0  2  0  0  0  0  0  0  0  0  0
   23.7072  -19.2100  -17.3979 N   0  0  0  0  0  0  0  0  0  0  0  0
   24.5339  -19.9991  -15.3207 C   0  0  0  0  0  0  0  0  0  0  0  0
   24.0620  -21.1489  -15.4476 O   0  0  0  0  0  0  0  0  0  0  0  0
   25.7231  -19.8173  -14.6236 N   0  0  0  0  0  0  0  0  0  0  0  0
   26.4612  -20.6892  -13.7893 C   0  0  1  0  0  0  0  0  0  0  0  0
   27.9425  -20.5674  -13.8165 C   0  0  0  0  0  0  0  0  0  0  0  0
   28.5841  -20.0222  -15.0317 C   0  0  0  0  0  0  0  0  0  0  0  0
   28.9773  -21.0171  -16.0526 C   0  0  0  0  0  0  0  0  0  0  0  0
   29.1317  -22.2398  -15.8260 O   0  0  0  0  0  0  0  0  0  0  0  0
   25.9880  -21.0020  -12.4445 C   0  0  0  0  0  0  0  0  0  0  0  0
   26.7867  -21.7061  -11.7127 O   0  0  0  0  0  0  0  0  0  0  0  0
   29.2014  -20.6022  -17.3750 O   0  0  0  0  0  0  0  0  0  0  0  0
   26.9114  -19.0547   -8.2676 C   0  0  0  0  0  0  0  0  0  0  0  0
   26.5489  -20.1923   -9.2394 C   0  0  1  0  0  0  0  0  0  0  0  0
   27.0515  -21.4553   -8.5780 C   0  0  0  0  0  0  0  0  0  0  0  0
   25.0727  -20.1481   -9.3887 C   0  0  0  0  0  0  0  0  0  0  0  0
   24.4810  -21.0441  -10.4284 C   0  0  2  0  0  0  0  0  0  0  0  0
   24.7928  -20.6760  -11.7968 N   0  0  0  0  0  0  0  0  0  0  0  0
   23.0151  -20.9780  -10.2795 C   0  0  0  0  0  0  0  0  0  0  0  0
   22.3079  -20.4875  -11.1746 O   0  0  0  0  0  0  0  0  0  0  0  0
   22.4231  -21.4669   -9.1326 O   0  0  0  0  0  0  0  0  0  0  0  0
  1  2  1  0
  2  3  1  0
  3  5  1  0
  3  4  1  1
  5  6  1  6
  7  5  1  0
  7  8  2  0
  9 10  1  0
  9  7  1  0
 11 12  1  0
 10 11  1  1
 12 13  1  0
 13 14  2  0
 13 17  1  0
 15 16  2  0
 15 10  1  0
 19 18  1  1
 19 20  1  0
 19 21  1  0
 22 21  1  1
 22 23  1  0
 22 24  1  0
 23 15  1  0
 24 26  1  0
 25 24  2  0
M  END
$$$$
