IEL.pdb
     RDKit          3D

 26 25  0  0  1  0  0  0  0  0999 V2000
   17.4312  -15.8608  -16.1707 C   0  0  0  0  0  0  0  0  0  0  0  0
   16.6239  -14.7236  -16.7104 C   0  0  0  0  0  0  0  0  0  0  0  0
   17.4013  -13.4484  -16.8247 C   0  0  2  0  0  0  0  0  0  0  0  0
   18.0347  -13.1038  -15.4919 C   0  0  0  0  0  0  0  0  0  0  0  0
   16.6223  -12.3053  -17.3926 C   0  0  2  0  0  0  0  0  0  0  0  0
   16.2457  -12.7439  -18.7606 N   0  0  0  0  0  0  0  0  0  0  0  0
   17.4352  -11.0635  -17.5848 C   0  0  0  0  0  0  0  0  0  0  0  0
   18.4133  -11.1512  -18.3572 O   0  0  0  0  0  0  0  0  0  0  0  0
   17.1577   -9.8517  -16.9621 N   0  0  0  0  0  0  0  0  0  0  0  0
   17.8688   -8.6292  -16.9353 C   0  0  1  0  0  0  0  0  0  0  0  0
   17.0953   -7.3848  -17.1864 C   0  0  0  0  0  0  0  0  0  0  0  0
   17.8198   -6.0964  -17.2143 C   0  0  0  0  0  0  0  0  0  0  0  0
   16.9936   -4.8999  -17.4831 C   0  0  0  0  0  0  0  0  0  0  0  0
   15.7528   -4.9217  -17.6571 O   0  0  0  0  0  0  0  0  0  0  0  0
   18.9125   -8.4029  -15.9404 C   0  0  0  0  0  0  0  0  0  0  0  0
   18.5579   -8.5424  -14.7059 O   0  0  0  0  0  0  0  0  0  0  0  0
   17.6040   -3.6377  -17.5554 O   0  0  0  0  0  0  0  0  0  0  0  0
   23.9875  -10.4118  -15.3542 C   0  0  0  0  0  0  0  0  0  0  0  0
   22.5352   -9.9935  -15.0612 C   0  0  1  0  0  0  0  0  0  0  0  0
   22.2453  -10.5109  -13.6708 C   0  0  0  0  0  0  0  0  0  0  0  0
   22.5080   -8.5127  -15.1607 C   0  0  0  0  0  0  0  0  0  0  0  0
   21.1764   -7.8574  -14.9839 C   0  0  2  0  0  0  0  0  0  0  0  0
   20.2554   -8.0443  -16.0895 N   0  0  0  0  0  0  0  0  0  0  0  0
   21.4163   -6.4080  -14.8531 C   0  0  0  0  0  0  0  0  0  0  0  0
   22.0709   -5.9567  -13.8993 O   0  0  0  0  0  0  0  0  0  0  0  0
   20.9078   -5.5440  -15.8016 O   0  0  0  0  0  0  0  0  0  0  0  0
  1  2  1  0
  2  3  1  0
  3  5  1  0
  3  4  1  1
  5  6  1  6
  7  5  1  0
  7  8  2  0
  9 10  1  0
  9  7  1  0
 11 12  1  0
 10 11  1  1
 12 13  1  0
 13 14  2  0
 13 17  1  0
 15 16  2  0
 15 10  1  0
 19 18  1  1
 19 20  1  0
 19 21  1  0
 22 21  1  6
 22 23  1  0
 22 24  1  0
 23 15  1  0
 24 26  1  0
 25 24  2  0
M  END
$$$$
