IEL.pdb
     RDKit          3D

 26 25  0  0  1  0  0  0  0  0999 V2000
   26.1655  -21.6662  -11.1674 C   0  0  0  0  0  0  0  0  0  0  0  0
   25.4843  -20.3421  -11.0309 C   0  0  0  0  0  0  0  0  0  0  0  0
   24.0350  -20.4570  -10.6704 C   0  0  2  0  0  0  0  0  0  0  0  0
   23.8822  -21.2013   -9.3594 C   0  0  0  0  0  0  0  0  0  0  0  0
   23.1791  -21.0350  -11.7517 C   0  0  2  0  0  0  0  0  0  0  0  0
   23.3704  -20.1297  -12.9133 N   0  0  0  0  0  0  0  0  0  0  0  0
   21.7146  -20.9846  -11.4475 C   0  0  0  0  0  0  0  0  0  0  0  0
   21.2773  -19.9085  -10.9873 O   0  0  0  0  0  0  0  0  0  0  0  0
   20.8441  -22.0496  -11.6500 N   0  0  0  0  0  0  0  0  0  0  0  0
   19.4838  -22.2249  -11.3040 C   0  0  1  0  0  0  0  0  0  0  0  0
   18.4681  -21.8700  -12.3299 C   0  0  0  0  0  0  0  0  0  0  0  0
   17.0473  -21.8094  -11.9256 C   0  0  0  0  0  0  0  0  0  0  0  0
   16.0755  -21.6034  -13.0209 C   0  0  0  0  0  0  0  0  0  0  0  0
   16.3832  -21.5177  -14.2327 O   0  0  0  0  0  0  0  0  0  0  0  0
   19.0614  -23.3899  -10.5329 C   0  0  0  0  0  0  0  0  0  0  0  0
   19.6038  -24.5149  -10.8636 O   0  0  0  0  0  0  0  0  0  0  0  0
   14.7081  -21.4916  -12.7228 O   0  0  0  0  0  0  0  0  0  0  0  0
   17.4510  -24.6630   -5.0042 C   0  0  0  0  0  0  0  0  0  0  0  0
   18.2545  -24.8631   -6.3021 C   0  0  1  0  0  0  0  0  0  0  0  0
   18.7373  -26.2948   -6.2539 C   0  0  0  0  0  0  0  0  0  0  0  0
   17.3092  -24.5931   -7.4142 C   0  0  0  0  0  0  0  0  0  0  0  0
   17.8470  -24.7531   -8.7995 C   0  0  2  0  0  0  0  0  0  0  0  0
   18.1461  -23.5086   -9.4829 N   0  0  0  0  0  0  0  0  0  0  0  0
   16.8164  -25.4512   -9.5907 C   0  0  0  0  0  0  0  0  0  0  0  0
   16.0022  -24.8123  -10.2768 O   0  0  0  0  0  0  0  0  0  0  0  0
   16.7566  -26.8299   -9.5681 O   0  0  0  0  0  0  0  0  0  0  0  0
  1  2  1  0
  2  3  1  0
  3  5  1  0
  3  4  1  1
  5  6  1  6
  7  5  1  0
  7  8  2  0
  9 10  1  0
  9  7  1  0
 11 12  1  0
 10 11  1  6
 12 13  1  0
 13 14  2  0
 13 17  1  0
 15 16  2  0
 15 10  1  0
 19 18  1  1
 19 20  1  0
 19 21  1  0
 22 21  1  1
 22 23  1  0
 22 24  1  0
 23 15  1  0
 24 26  1  0
 25 24  2  0
M  END
$$$$
