IEL.pdb
     RDKit          3D

 26 25  0  0  1  0  0  0  0  0999 V2000
   37.6580   -8.5122   -7.9306 C   0  0  0  0  0  0  0  0  0  0  0  0
   38.4913   -9.2724   -6.9489 C   0  0  0  0  0  0  0  0  0  0  0  0
   39.8503   -9.6223   -7.4725 C   0  0  2  0  0  0  0  0  0  0  0  0
   39.7285  -10.3137   -8.8155 C   0  0  0  0  0  0  0  0  0  0  0  0
   40.6955  -10.3970   -6.5127 C   0  0  2  0  0  0  0  0  0  0  0  0
   40.7553   -9.5535   -5.2918 N   0  0  0  0  0  0  0  0  0  0  0  0
   42.1164  -10.5524   -6.9564 C   0  0  0  0  0  0  0  0  0  0  0  0
   42.7528   -9.4984   -7.1685 O   0  0  0  0  0  0  0  0  0  0  0  0
   42.7420  -11.7810   -7.1358 N   0  0  0  0  0  0  0  0  0  0  0  0
   43.9984  -12.1189   -7.6911 C   0  0  1  0  0  0  0  0  0  0  0  0
   44.5403  -13.4680   -7.3809 C   0  0  0  0  0  0  0  0  0  0  0  0
   45.8348  -13.8629   -7.9759 C   0  0  0  0  0  0  0  0  0  0  0  0
   46.3047  -15.2257   -7.6464 C   0  0  0  0  0  0  0  0  0  0  0  0
   46.6814  -15.5879   -6.5074 O   0  0  0  0  0  0  0  0  0  0  0  0
   44.3343  -11.7226   -9.0550 C   0  0  0  0  0  0  0  0  0  0  0  0
   43.5009  -12.0876   -9.9723 O   0  0  0  0  0  0  0  0  0  0  0  0
   46.3457  -16.2066   -8.6500 O   0  0  0  0  0  0  0  0  0  0  0  0
   45.7866   -6.9274  -11.4187 C   0  0  0  0  0  0  0  0  0  0  0  0
   45.0606   -8.2504  -11.1144 C   0  0  1  0  0  0  0  0  0  0  0  0
   43.9534   -8.3411  -12.1396 C   0  0  0  0  0  0  0  0  0  0  0  0
   46.0827   -9.3184  -11.2493 C   0  0  0  0  0  0  0  0  0  0  0  0
   45.6301  -10.7138  -10.9631 C   0  0  2  0  0  0  0  0  0  0  0  0
   45.4276  -11.0108   -9.5573 N   0  0  0  0  0  0  0  0  0  0  0  0
   46.6805  -11.6239  -11.4568 C   0  0  0  0  0  0  0  0  0  0  0  0
   46.9189  -11.7179  -12.6718 O   0  0  0  0  0  0  0  0  0  0  0  0
   47.4064  -12.3792  -10.5583 O   0  0  0  0  0  0  0  0  0  0  0  0
  1  2  1  0
  2  3  1  0
  3  5  1  0
  3  4  1  6
  5  6  1  1
  7  5  1  0
  7  8  2  0
  9 10  1  0
  9  7  1  0
 11 12  1  0
 10 11  1  6
 12 13  1  0
 13 14  2  0
 13 17  1  0
 15 16  2  0
 15 10  1  0
 19 18  1  6
 19 20  1  0
 19 21  1  0
 22 21  1  1
 22 23  1  0
 22 24  1  0
 23 15  1  0
 24 26  1  0
 25 24  2  0
M  END
$$$$
