IEL.pdb
     RDKit          3D

 26 25  0  0  1  0  0  0  0  0999 V2000
   29.0671  -21.7116   -8.5311 C   0  0  0  0  0  0  0  0  0  0  0  0
   27.7772  -20.9983   -8.7831 C   0  0  0  0  0  0  0  0  0  0  0  0
   27.3433  -21.0493  -10.2159 C   0  0  2  0  0  0  0  0  0  0  0  0
   28.4953  -20.6656  -11.1225 C   0  0  0  0  0  0  0  0  0  0  0  0
   26.1065  -20.2619  -10.5095 C   0  0  2  0  0  0  0  0  0  0  0  0
   25.0584  -20.8640   -9.6467 N   0  0  0  0  0  0  0  0  0  0  0  0
   25.6093  -20.4284  -11.9112 C   0  0  0  0  0  0  0  0  0  0  0  0
   26.2792  -19.8765  -12.8098 O   0  0  0  0  0  0  0  0  0  0  0  0
   24.4699  -21.1504  -12.2485 N   0  0  0  0  0  0  0  0  0  0  0  0
   23.8475  -21.3867  -13.4965 C   0  0  1  0  0  0  0  0  0  0  0  0
   24.0657  -22.7154  -14.1265 C   0  0  0  0  0  0  0  0  0  0  0  0
   25.4511  -23.1368  -14.4243 C   0  0  0  0  0  0  0  0  0  0  0  0
   26.1461  -22.3640  -15.4761 C   0  0  0  0  0  0  0  0  0  0  0  0
   27.3788  -22.1391  -15.4907 O   0  0  0  0  0  0  0  0  0  0  0  0
   22.4932  -20.9053  -13.7500 C   0  0  0  0  0  0  0  0  0  0  0  0
   21.6850  -20.9312  -12.7423 O   0  0  0  0  0  0  0  0  0  0  0  0
   25.4096  -21.8308  -16.5458 O   0  0  0  0  0  0  0  0  0  0  0  0
   20.3925  -17.2242  -17.6867 C   0  0  0  0  0  0  0  0  0  0  0  0
   20.8089  -17.7809  -16.3132 C   0  0  1  0  0  0  0  0  0  0  0  0
   20.2367  -16.8137  -15.3021 C   0  0  0  0  0  0  0  0  0  0  0  0
   20.2235  -19.1424  -16.2289 C   0  0  0  0  0  0  0  0  0  0  0  0
   20.5366  -19.9272  -14.9960 C   0  0  2  0  0  0  0  0  0  0  0  0
   21.8993  -20.4194  -14.9186 N   0  0  0  0  0  0  0  0  0  0  0  0
   19.6447  -21.1019  -14.9874 C   0  0  0  0  0  0  0  0  0  0  0  0
   20.0364  -22.1991  -15.4169 O   0  0  0  0  0  0  0  0  0  0  0  0
   18.3607  -20.9800  -14.4962 O   0  0  0  0  0  0  0  0  0  0  0  0
  1  2  1  0
  2  3  1  0
  3  5  1  0
  3  4  1  6
  5  6  1  1
  7  5  1  0
  7  8  2  0
  9 10  1  0
  9  7  1  0
 11 12  1  0
 10 11  1  1
 12 13  1  0
 13 14  2  0
 13 17  1  0
 15 16  2  0
 15 10  1  0
 19 18  1  6
 19 20  1  0
 19 21  1  0
 22 21  1  6
 22 23  1  0
 22 24  1  0
 23 15  1  0
 24 26  1  0
 25 24  2  0
M  END
$$$$
