IEL.pdb
     RDKit          3D

 26 25  0  0  1  0  0  0  0  0999 V2000
   30.2613  -18.7808  -15.9427 C   0  0  0  0  0  0  0  0  0  0  0  0
   28.8308  -19.2045  -15.8420 C   0  0  0  0  0  0  0  0  0  0  0  0
   28.3208  -19.2354  -14.4339 C   0  0  2  0  0  0  0  0  0  0  0  0
   29.2110  -20.1127  -13.5771 C   0  0  0  0  0  0  0  0  0  0  0  0
   26.8773  -19.6062  -14.3135 C   0  0  2  0  0  0  0  0  0  0  0  0
   26.1665  -18.6677  -15.2188 N   0  0  0  0  0  0  0  0  0  0  0  0
   26.3056  -19.3539  -12.9536 C   0  0  0  0  0  0  0  0  0  0  0  0
   26.3843  -18.1834  -12.5240 O   0  0  0  0  0  0  0  0  0  0  0  0
   25.7067  -20.3345  -12.1708 N   0  0  0  0  0  0  0  0  0  0  0  0
   25.1328  -20.2793  -10.8791 C   0  0  1  0  0  0  0  0  0  0  0  0
   23.7018  -20.6616  -10.7518 C   0  0  0  0  0  0  0  0  0  0  0  0
   23.0280  -20.4532   -9.4526 C   0  0  0  0  0  0  0  0  0  0  0  0
   21.6293  -20.9259   -9.3706 C   0  0  0  0  0  0  0  0  0  0  0  0
   20.8679  -20.7166   -8.3976 O   0  0  0  0  0  0  0  0  0  0  0  0
   25.8947  -20.7141   -9.7126 C   0  0  0  0  0  0  0  0  0  0  0  0
   26.6252  -21.7675   -9.8738 O   0  0  0  0  0  0  0  0  0  0  0  0
   21.0824  -21.6613  -10.4341 O   0  0  0  0  0  0  0  0  0  0  0  0
   28.4847  -18.9698   -4.7873 C   0  0  0  0  0  0  0  0  0  0  0  0
   28.9565  -19.6285   -6.0963 C   0  0  1  0  0  0  0  0  0  0  0  0
   29.1135  -21.0959   -5.7688 C   0  0  0  0  0  0  0  0  0  0  0  0
   27.8956  -19.3546   -7.0978 C   0  0  0  0  0  0  0  0  0  0  0  0
   27.0163  -20.5050   -7.4685 C   0  0  2  0  0  0  0  0  0  0  0  0
   25.9680  -20.1868   -8.4200 N   0  0  0  0  0  0  0  0  0  0  0  0
   26.3601  -20.9698   -6.2321 C   0  0  0  0  0  0  0  0  0  0  0  0
   25.3246  -20.4230   -5.8192 O   0  0  0  0  0  0  0  0  0  0  0  0
   26.9032  -22.0244   -5.5266 O   0  0  0  0  0  0  0  0  0  0  0  0
  1  2  1  0
  2  3  1  0
  3  5  1  0
  3  4  1  1
  5  6  1  6
  7  5  1  0
  7  8  2  0
  9 10  1  0
  9  7  1  0
 11 12  1  0
 10 11  1  6
 12 13  1  0
 13 14  2  0
 13 17  1  0
 15 16  2  0
 15 10  1  0
 19 18  1  1
 19 20  1  0
 19 21  1  0
 22 21  1  1
 22 23  1  0
 22 24  1  0
 23 15  1  0
 24 26  1  0
 25 24  2  0
M  END
$$$$
