IEL.pdb
     RDKit          3D

 26 25  0  0  1  0  0  0  0  0999 V2000
   17.8339  -17.0319  -18.7865 C   0  0  0  0  0  0  0  0  0  0  0  0
   17.5187  -16.0763  -17.6803 C   0  0  0  0  0  0  0  0  0  0  0  0
   18.2253  -14.7624  -17.8146 C   0  0  2  0  0  0  0  0  0  0  0  0
   19.7155  -14.9868  -17.9739 C   0  0  0  0  0  0  0  0  0  0  0  0
   17.9140  -13.7858  -16.7260 C   0  0  2  0  0  0  0  0  0  0  0  0
   16.4439  -13.5887  -16.8004 N   0  0  0  0  0  0  0  0  0  0  0  0
   18.5070  -12.4300  -16.9502 C   0  0  0  0  0  0  0  0  0  0  0  0
   19.7541  -12.3662  -16.9883 O   0  0  0  0  0  0  0  0  0  0  0  0
   17.7542  -11.2727  -17.1151 N   0  0  0  0  0  0  0  0  0  0  0  0
   18.1381   -9.9177  -17.2462 C   0  0  1  0  0  0  0  0  0  0  0  0
   17.1200   -8.9678  -17.7670 C   0  0  0  0  0  0  0  0  0  0  0  0
   16.4950   -9.2506  -19.0766 C   0  0  0  0  0  0  0  0  0  0  0  0
   15.4455   -8.3017  -19.5064 C   0  0  0  0  0  0  0  0  0  0  0  0
   14.2340   -8.4017  -19.2023 O   0  0  0  0  0  0  0  0  0  0  0  0
   18.9709   -9.2837  -16.2290 C   0  0  0  0  0  0  0  0  0  0  0  0
   18.5647   -9.4045  -15.0085 O   0  0  0  0  0  0  0  0  0  0  0  0
   15.7908   -7.2030  -20.3094 O   0  0  0  0  0  0  0  0  0  0  0  0
   23.8037  -10.3685  -14.4000 C   0  0  0  0  0  0  0  0  0  0  0  0
   22.3235   -9.9462  -14.3712 C   0  0  1  0  0  0  0  0  0  0  0  0
   21.9525   -9.8973  -12.9066 C   0  0  0  0  0  0  0  0  0  0  0  0
   22.2622   -8.6239  -15.0430 C   0  0  0  0  0  0  0  0  0  0  0  0
   20.9030   -8.0270  -15.2163 C   0  0  2  0  0  0  0  0  0  0  0  0
   20.1515   -8.5439  -16.3448 N   0  0  0  0  0  0  0  0  0  0  0  0
   21.0858   -6.5801  -15.4369 C   0  0  0  0  0  0  0  0  0  0  0  0
   20.7559   -6.0557  -16.5130 O   0  0  0  0  0  0  0  0  0  0  0  0
   21.6295   -5.8008  -14.4360 O   0  0  0  0  0  0  0  0  0  0  0  0
  1  2  1  0
  2  3  1  0
  3  5  1  0
  3  4  1  1
  5  6  1  6
  7  5  1  0
  7  8  2  0
  9 10  1  0
  9  7  1  0
 11 12  1  0
 10 11  1  1
 12 13  1  0
 13 14  2  0
 13 17  1  0
 15 16  2  0
 15 10  1  0
 19 18  1  1
 19 20  1  0
 19 21  1  0
 22 21  1  6
 22 23  1  0
 22 24  1  0
 23 15  1  0
 24 26  1  0
 25 24  2  0
M  END
$$$$
