IEL.pdb
     RDKit          3D

 26 25  0  0  1  0  0  0  0  0999 V2000
   26.2675  -26.7735  -18.3696 C   0  0  0  0  0  0  0  0  0  0  0  0
   26.0088  -25.4268  -17.7732 C   0  0  0  0  0  0  0  0  0  0  0  0
   24.8059  -25.3962  -16.8811 C   0  0  2  0  0  0  0  0  0  0  0  0
   23.6069  -25.9760  -17.6040 C   0  0  0  0  0  0  0  0  0  0  0  0
   24.5152  -24.0534  -16.2911 C   0  0  2  0  0  0  0  0  0  0  0  0
   25.7017  -23.7402  -15.4547 N   0  0  0  0  0  0  0  0  0  0  0  0
   23.3540  -24.0529  -15.3468 C   0  0  0  0  0  0  0  0  0  0  0  0
   23.4835  -24.7276  -14.3033 O   0  0  0  0  0  0  0  0  0  0  0  0
   22.1732  -23.3540  -15.5713 N   0  0  0  0  0  0  0  0  0  0  0  0
   20.9380  -23.3583  -14.8820 C   0  0  1  0  0  0  0  0  0  0  0  0
   19.9754  -22.2713  -15.2010 C   0  0  0  0  0  0  0  0  0  0  0  0
   18.6958  -22.2218  -14.4621 C   0  0  0  0  0  0  0  0  0  0  0  0
   17.7566  -21.1564  -14.8735 C   0  0  0  0  0  0  0  0  0  0  0  0
   16.5803  -21.3590  -15.2548 O   0  0  0  0  0  0  0  0  0  0  0  0
   20.2402  -24.6139  -14.6235 C   0  0  0  0  0  0  0  0  0  0  0  0
   20.0020  -25.3525  -15.6564 O   0  0  0  0  0  0  0  0  0  0  0  0
   18.1743  -19.8162  -14.8487 O   0  0  0  0  0  0  0  0  0  0  0  0
   20.3974  -28.2757  -10.2783 C   0  0  0  0  0  0  0  0  0  0  0  0
   20.5073  -27.7296  -11.7134 C   0  0  1  0  0  0  0  0  0  0  0  0
   20.8410  -28.9291  -12.5707 C   0  0  0  0  0  0  0  0  0  0  0  0
   19.1867  -27.1273  -12.0243 C   0  0  0  0  0  0  0  0  0  0  0  0
   19.0641  -26.4345  -13.3430 C   0  0  2  0  0  0  0  0  0  0  0  0
   19.7645  -25.1668  -13.4309 N   0  0  0  0  0  0  0  0  0  0  0  0
   17.6314  -26.1602  -13.5611 C   0  0  0  0  0  0  0  0  0  0  0  0
   16.8740  -27.0456  -13.9902 O   0  0  0  0  0  0  0  0  0  0  0  0
   17.1273  -24.9054  -13.2850 O   0  0  0  0  0  0  0  0  0  0  0  0
  1  2  1  0
  2  3  1  0
  3  5  1  0
  3  4  1  6
  5  6  1  1
  7  5  1  0
  7  8  2  0
  9 10  1  0
  9  7  1  0
 11 12  1  0
 10 11  1  6
 12 13  1  0
 13 14  2  0
 13 17  1  0
 15 16  2  0
 15 10  1  0
 19 18  1  1
 19 20  1  0
 19 21  1  0
 22 21  1  1
 22 23  1  0
 22 24  1  0
 23 15  1  0
 24 26  1  0
 25 24  2  0
M  END
$$$$
