IEL.pdb
     RDKit          3D

 26 25  0  0  1  0  0  0  0  0999 V2000
   18.5571    3.2332  -11.5019 C   0  0  0  0  0  0  0  0  0  0  0  0
   19.8402    3.1039  -12.2589 C   0  0  0  0  0  0  0  0  0  0  0  0
   21.0168    2.8040  -11.3817 C   0  0  2  0  0  0  0  0  0  0  0  0
   21.1555    3.8708  -10.3144 C   0  0  0  0  0  0  0  0  0  0  0  0
   22.2941    2.5798  -12.1260 C   0  0  2  0  0  0  0  0  0  0  0  0
   22.0598    1.3477  -12.9214 N   0  0  0  0  0  0  0  0  0  0  0  0
   23.4567    2.2628  -11.2384 C   0  0  0  0  0  0  0  0  0  0  0  0
   23.4860    1.1147  -10.7465 O   0  0  0  0  0  0  0  0  0  0  0  0
   24.4767    3.1617  -10.9470 N   0  0  0  0  0  0  0  0  0  0  0  0
   25.6267    3.0398  -10.1325 C   0  0  1  0  0  0  0  0  0  0  0  0
   26.9023    3.5836  -10.6681 C   0  0  0  0  0  0  0  0  0  0  0  0
   27.4278    3.0331  -11.9356 C   0  0  0  0  0  0  0  0  0  0  0  0
   28.6660    3.6609  -12.4449 C   0  0  0  0  0  0  0  0  0  0  0  0
   29.7670    3.0716  -12.5484 O   0  0  0  0  0  0  0  0  0  0  0  0
   25.5363    3.2460   -8.6905 C   0  0  0  0  0  0  0  0  0  0  0  0
   24.9219    4.3166   -8.3089 O   0  0  0  0  0  0  0  0  0  0  0  0
   28.6461    5.0053  -12.8490 O   0  0  0  0  0  0  0  0  0  0  0  0
   23.7754    2.7828   -3.7939 C   0  0  0  0  0  0  0  0  0  0  0  0
   25.1433    2.0879   -3.9199 C   0  0  1  0  0  0  0  0  0  0  0  0
   25.0534    0.8691   -3.0301 C   0  0  0  0  0  0  0  0  0  0  0  0
   25.3052    1.7611   -5.3588 C   0  0  0  0  0  0  0  0  0  0  0  0
   25.8663    2.8398   -6.2280 C   0  0  2  0  0  0  0  0  0  0  0  0
   26.0160    2.4782   -7.6252 N   0  0  0  0  0  0  0  0  0  0  0  0
   27.2099    3.1624   -5.7120 C   0  0  0  0  0  0  0  0  0  0  0  0
   27.3487    3.7478   -4.6258 O   0  0  0  0  0  0  0  0  0  0  0  0
   28.3249    2.8093   -6.4446 O   0  0  0  0  0  0  0  0  0  0  0  0
  1  2  1  0
  2  3  1  0
  3  5  1  0
  3  4  1  1
  5  6  1  6
  7  5  1  0
  7  8  2  0
  9 10  1  0
  9  7  1  0
 11 12  1  0
 10 11  1  6
 12 13  1  0
 13 14  2  0
 13 17  1  0
 15 16  2  0
 15 10  1  0
 19 18  1  6
 19 20  1  0
 19 21  1  0
 22 21  1  1
 22 23  1  0
 22 24  1  0
 23 15  1  0
 24 26  1  0
 25 24  2  0
M  END
$$$$
