IEL.pdb
     RDKit          3D

 26 25  0  0  1  0  0  0  0  0999 V2000
   21.2871  -17.5503  -18.0418 C   0  0  0  0  0  0  0  0  0  0  0  0
   22.5717  -17.4447  -17.2836 C   0  0  0  0  0  0  0  0  0  0  0  0
   22.6218  -18.3327  -16.0784 C   0  0  2  0  0  0  0  0  0  0  0  0
   21.3874  -18.1221  -15.2251 C   0  0  0  0  0  0  0  0  0  0  0  0
   23.8839  -18.2173  -15.2849 C   0  0  2  0  0  0  0  0  0  0  0  0
   24.9746  -18.3999  -16.2761 N   0  0  0  0  0  0  0  0  0  0  0  0
   24.0670  -19.3181  -14.2876 C   0  0  0  0  0  0  0  0  0  0  0  0
   23.2306  -19.3762  -13.3614 O   0  0  0  0  0  0  0  0  0  0  0  0
   25.0948  -20.2527  -14.3452 N   0  0  0  0  0  0  0  0  0  0  0  0
   25.4177  -21.3413  -13.5016 C   0  0  1  0  0  0  0  0  0  0  0  0
   26.0883  -22.5121  -14.1259 C   0  0  0  0  0  0  0  0  0  0  0  0
   25.2542  -23.5173  -14.8183 C   0  0  0  0  0  0  0  0  0  0  0  0
   25.9873  -24.6321  -15.4557 C   0  0  0  0  0  0  0  0  0  0  0  0
   27.2362  -24.7138  -15.5171 O   0  0  0  0  0  0  0  0  0  0  0  0
   25.9259  -21.1065  -12.1538 C   0  0  0  0  0  0  0  0  0  0  0  0
   27.1871  -20.8411  -12.0623 O   0  0  0  0  0  0  0  0  0  0  0  0
   25.2710  -25.6878  -16.0418 O   0  0  0  0  0  0  0  0  0  0  0  0
   29.0513  -20.0137   -8.2414 C   0  0  0  0  0  0  0  0  0  0  0  0
   27.5301  -20.0706   -8.0118 C   0  0  1  0  0  0  0  0  0  0  0  0
   27.2007  -18.8256   -7.2201 C   0  0  0  0  0  0  0  0  0  0  0  0
   26.9132  -20.0955   -9.3617 C   0  0  0  0  0  0  0  0  0  0  0  0
   25.9617  -21.2143   -9.6389 C   0  0  2  0  0  0  0  0  0  0  0  0
   25.2774  -21.1281  -10.9155 N   0  0  0  0  0  0  0  0  0  0  0  0
   24.9301  -21.1820   -8.5852 C   0  0  0  0  0  0  0  0  0  0  0  0
   23.7899  -20.7534   -8.8265 O   0  0  0  0  0  0  0  0  0  0  0  0
   25.2356  -21.6332   -7.3172 O   0  0  0  0  0  0  0  0  0  0  0  0
  1  2  1  0
  2  3  1  0
  3  5  1  0
  3  4  1  1
  5  6  1  6
  7  5  1  0
  7  8  2  0
  9 10  1  0
  9  7  1  0
 11 12  1  0
 10 11  1  6
 12 13  1  0
 13 14  2  0
 13 17  1  0
 15 16  2  0
 15 10  1  0
 19 18  1  6
 19 20  1  0
 19 21  1  0
 22 21  1  1
 22 23  1  0
 22 24  1  0
 23 15  1  0
 24 26  1  0
 25 24  2  0
M  END
$$$$
