YWG.pdb
     RDKit          3D

 31 33  0  0  1  0  0  0  0  0999 V2000
   17.4411  -21.0928  -15.8289 O   0  0  0  0  0  0  0  0  0  0  0  0
   18.6581  -20.6789  -15.2607 C   0  0  0  0  0  0  0  0  0  0  0  0
   19.8456  -21.2482  -15.6829 C   0  0  0  0  0  0  0  0  0  0  0  0
   21.0835  -20.8803  -15.1572 C   0  0  0  0  0  0  0  0  0  0  0  0
   21.1368  -19.9143  -14.1803 C   0  0  0  0  0  0  0  0  0  0  0  0
   22.4623  -19.5175  -13.6191 C   0  0  0  0  0  0  0  0  0  0  0  0
   23.0533  -20.6393  -12.7922 C   0  0  2  0  0  0  0  0  0  0  0  0
   22.1980  -21.0359  -11.7167 N   0  0  0  0  0  0  0  0  0  0  0  0
   24.4133  -20.3102  -12.2636 C   0  0  0  0  0  0  0  0  0  0  0  0
   24.5649  -19.6254  -11.2247 O   0  0  0  0  0  0  0  0  0  0  0  0
   19.9546  -19.3391  -13.7520 C   0  0  0  0  0  0  0  0  0  0  0  0
   18.7257  -19.7067  -14.2762 C   0  0  0  0  0  0  0  0  0  0  0  0
   25.6019  -20.7754  -12.9322 N   0  0  0  0  0  0  0  0  0  0  0  0
   26.8189  -21.1340  -12.2975 C   0  0  1  0  0  0  0  0  0  0  0  0
   26.7547  -21.9678  -11.0921 C   0  0  0  0  0  0  0  0  0  0  0  0
   26.4702  -21.2350   -9.8469 C   0  0  0  0  0  0  0  0  0  0  0  0
   25.3210  -20.6751   -9.3458 C   0  0  0  0  0  0  0  0  0  0  0  0
   25.5628  -20.0787   -8.1424 N   0  0  0  0  0  0  0  0  0  0  0  0
   26.8487  -20.2392   -7.8496 C   0  0  0  0  0  0  0  0  0  0  0  0
   27.5550  -19.8069   -6.7419 C   0  0  0  0  0  0  0  0  0  0  0  0
   28.9096  -20.0841   -6.6374 C   0  0  0  0  0  0  0  0  0  0  0  0
   29.4946  -20.7880   -7.6584 C   0  0  0  0  0  0  0  0  0  0  0  0
   28.7844  -21.2224   -8.7711 C   0  0  0  0  0  0  0  0  0  0  0  0
   27.4404  -20.9446   -8.8713 C   0  0  0  0  0  0  0  0  0  0  0  0
   27.8389  -21.5592  -13.2893 C   0  0  0  0  0  0  0  0  0  0  0  0
   29.0424  -21.3574  -13.0408 O   0  0  0  0  0  0  0  0  0  0  0  0
   27.5324  -22.1892  -14.5232 N   0  0  0  0  0  0  0  0  0  0  0  0
   27.2359  -21.3752  -15.7184 C   0  0  0  0  0  0  0  0  0  0  0  0
   28.4640  -20.8580  -16.3206 C   0  0  0  0  0  0  0  0  0  0  0  0
   28.5129  -19.5672  -16.7998 O   0  0  0  0  0  0  0  0  0  0  0  0
   29.4778  -21.5787  -16.4059 O   0  0  0  0  0  0  0  0  0  0  0  0
  2  1  1  0
  3  2  2  0
  4  3  1  0
  5  4  2  0
  5 11  1  0
  6  5  1  0
  7  6  1  0
  7  8  1  1
  9 10  2  0
  9  7  1  0
 11 12  2  0
 12  2  1  0
 13  9  1  0
 14 13  1  0
 14 15  1  1
 16 15  1  0
 16 17  2  0
 18 17  1  0
 19 18  1  0
 20 19  2  0
 21 20  1  0
 22 21  2  0
 22 23  1  0
 23 24  2  0
 24 19  1  0
 24 16  1  0
 25 14  1  0
 26 25  2  0
 27 25  1  0
 28 27  1  0
 29 28  1  0
 29 30  1  0
 31 29  2  0
M  END
$$$$
