YWG.pdb
     RDKit          3D

 31 33  0  0  1  0  0  0  0  0999 V2000
   25.3897  -19.5184  -20.9094 O   0  0  0  0  0  0  0  0  0  0  0  0
   25.1221  -19.9952  -19.6147 C   0  0  0  0  0  0  0  0  0  0  0  0
   25.0441  -19.1093  -18.5557 C   0  0  0  0  0  0  0  0  0  0  0  0
   24.7825  -19.5213  -17.2495 C   0  0  0  0  0  0  0  0  0  0  0  0
   24.5930  -20.8588  -16.9937 C   0  0  0  0  0  0  0  0  0  0  0  0
   24.3097  -21.3004  -15.5958 C   0  0  0  0  0  0  0  0  0  0  0  0
   25.5910  -21.4132  -14.7977 C   0  0  2  0  0  0  0  0  0  0  0  0
   26.4764  -22.4068  -15.3213 N   0  0  0  0  0  0  0  0  0  0  0  0
   25.3439  -21.6691  -13.3449 C   0  0  0  0  0  0  0  0  0  0  0  0
   25.1833  -22.8305  -12.9017 O   0  0  0  0  0  0  0  0  0  0  0  0
   24.6687  -21.7521  -18.0463 C   0  0  0  0  0  0  0  0  0  0  0  0
   24.9289  -21.3398  -19.3434 C   0  0  0  0  0  0  0  0  0  0  0  0
   25.2860  -20.5832  -12.3994 N   0  0  0  0  0  0  0  0  0  0  0  0
   24.9569  -20.7026  -11.0247 C   0  0  1  0  0  0  0  0  0  0  0  0
   25.7249  -19.9137  -10.0551 C   0  0  0  0  0  0  0  0  0  0  0  0
   27.0213  -20.4967   -9.6708 C   0  0  0  0  0  0  0  0  0  0  0  0
   27.9304  -21.2628  -10.3577 C   0  0  0  0  0  0  0  0  0  0  0  0
   28.9908  -21.5805   -9.5596 N   0  0  0  0  0  0  0  0  0  0  0  0
   28.7900  -21.0356   -8.3648 C   0  0  0  0  0  0  0  0  0  0  0  0
   29.5854  -21.0863   -7.2345 C   0  0  0  0  0  0  0  0  0  0  0  0
   29.1788  -20.4407   -6.0766 C   0  0  0  0  0  0  0  0  0  0  0  0
   27.9835  -19.7697   -6.1096 C   0  0  0  0  0  0  0  0  0  0  0  0
   27.1848  -19.7188   -7.2456 C   0  0  0  0  0  0  0  0  0  0  0  0
   27.5915  -20.3614   -8.3925 C   0  0  0  0  0  0  0  0  0  0  0  0
   23.4867  -20.6743  -10.8182 C   0  0  0  0  0  0  0  0  0  0  0  0
   22.8414  -19.6848  -11.2121 O   0  0  0  0  0  0  0  0  0  0  0  0
   22.7530  -21.7141  -10.1904 N   0  0  0  0  0  0  0  0  0  0  0  0
   21.3164  -21.5378   -9.9003 C   0  0  0  0  0  0  0  0  0  0  0  0
   20.5021  -21.8272  -11.0800 C   0  0  0  0  0  0  0  0  0  0  0  0
   19.1283  -21.7487  -11.0126 O   0  0  0  0  0  0  0  0  0  0  0  0
   21.0422  -22.1470  -12.1573 O   0  0  0  0  0  0  0  0  0  0  0  0
  2  1  1  0
  3  2  2  0
  4  3  1  0
  5  4  2  0
  5 11  1  0
  6  5  1  0
  7  6  1  0
  7  8  1  6
  9 10  2  0
  9  7  1  0
 11 12  2  0
 12  2  1  0
 13  9  1  0
 14 13  1  0
 14 15  1  1
 16 15  1  0
 16 17  2  0
 18 17  1  0
 19 18  1  0
 20 19  2  0
 21 20  1  0
 22 21  2  0
 22 23  1  0
 23 24  2  0
 24 19  1  0
 24 16  1  0
 25 14  1  0
 26 25  2  0
 27 25  1  0
 28 27  1  0
 29 28  1  0
 29 30  1  0
 31 29  2  0
M  END
$$$$
