YWG.pdb
     RDKit          3D

 31 33  0  0  1  0  0  0  0  0999 V2000
   28.4788  -15.4418  -18.0570 O   0  0  0  0  0  0  0  0  0  0  0  0
   27.7937  -16.3887  -17.2765 C   0  0  0  0  0  0  0  0  0  0  0  0
   27.5361  -16.1272  -15.9432 C   0  0  0  0  0  0  0  0  0  0  0  0
   26.8620  -17.0266  -15.1181 C   0  0  0  0  0  0  0  0  0  0  0  0
   26.4321  -18.2234  -15.6408 C   0  0  0  0  0  0  0  0  0  0  0  0
   25.7074  -19.1858  -14.7588 C   0  0  0  0  0  0  0  0  0  0  0  0
   26.6801  -19.9627  -13.8976 C   0  0  2  0  0  0  0  0  0  0  0  0
   27.5079  -20.8421  -14.6637 N   0  0  0  0  0  0  0  0  0  0  0  0
   25.9997  -20.7282  -12.8074 C   0  0  0  0  0  0  0  0  0  0  0  0
   25.6284  -21.9140  -12.9722 O   0  0  0  0  0  0  0  0  0  0  0  0
   26.6848  -18.4935  -16.9731 C   0  0  0  0  0  0  0  0  0  0  0  0
   27.3550  -17.5978  -17.7907 C   0  0  0  0  0  0  0  0  0  0  0  0
   25.7503  -20.1262  -11.5222 N   0  0  0  0  0  0  0  0  0  0  0  0
   25.0176  -20.7187  -10.4617 C   0  0  1  0  0  0  0  0  0  0  0  0
   25.5121  -20.5422   -9.0918 C   0  0  0  0  0  0  0  0  0  0  0  0
   26.9752  -20.6229   -8.9465 C   0  0  0  0  0  0  0  0  0  0  0  0
   27.9532  -21.1780   -9.7343 C   0  0  0  0  0  0  0  0  0  0  0  0
   29.1814  -21.0120   -9.1631 N   0  0  0  0  0  0  0  0  0  0  0  0
   29.0224  -20.3589   -8.0172 C   0  0  0  0  0  0  0  0  0  0  0  0
   29.9741  -19.9678   -7.0930 C   0  0  0  0  0  0  0  0  0  0  0  0
   29.5844  -19.2902   -5.9477 C   0  0  0  0  0  0  0  0  0  0  0  0
   28.2470  -19.0356   -5.7842 C   0  0  0  0  0  0  0  0  0  0  0  0
   27.2912  -19.4287   -6.7132 C   0  0  0  0  0  0  0  0  0  0  0  0
   27.6819  -20.1016   -7.8482 C   0  0  0  0  0  0  0  0  0  0  0  0
   23.5585  -20.4974  -10.6252 C   0  0  0  0  0  0  0  0  0  0  0  0
   22.9865  -19.6758   -9.8845 O   0  0  0  0  0  0  0  0  0  0  0  0
   22.7557  -21.1700  -11.5826 N   0  0  0  0  0  0  0  0  0  0  0  0
   21.3017  -20.9215  -11.6379 C   0  0  0  0  0  0  0  0  0  0  0  0
   20.7032  -21.5595  -12.8097 C   0  0  0  0  0  0  0  0  0  0  0  0
   19.3487  -21.4578  -13.0406 O   0  0  0  0  0  0  0  0  0  0  0  0
   21.4116  -22.2007  -13.6107 O   0  0  0  0  0  0  0  0  0  0  0  0
  2  1  1  0
  3  2  2  0
  4  3  1  0
  5  4  2  0
  5 11  1  0
  6  5  1  0
  7  6  1  0
  7  8  1  6
  9 10  2  0
  9  7  1  0
 11 12  2  0
 12  2  1  0
 13  9  1  0
 14 13  1  0
 14 15  1  1
 16 15  1  0
 16 17  2  0
 18 17  1  0
 19 18  1  0
 20 19  2  0
 21 20  1  0
 22 21  2  0
 22 23  1  0
 23 24  2  0
 24 19  1  0
 24 16  1  0
 25 14  1  0
 26 25  2  0
 27 25  1  0
 28 27  1  0
 29 28  1  0
 29 30  1  0
 31 29  2  0
M  END
$$$$
