YWG.pdb
     RDKit          3D

 31 33  0  0  1  0  0  0  0  0999 V2000
   28.2760  -16.0138  -18.5876 O   0  0  0  0  0  0  0  0  0  0  0  0
   27.6939  -16.7411  -17.5353 C   0  0  0  0  0  0  0  0  0  0  0  0
   28.2392  -16.6743  -16.2661 C   0  0  0  0  0  0  0  0  0  0  0  0
   27.7078  -17.3728  -15.1826 C   0  0  0  0  0  0  0  0  0  0  0  0
   26.5979  -18.1616  -15.3727 C   0  0  0  0  0  0  0  0  0  0  0  0
   26.0263  -18.9074  -14.2124 C   0  0  0  0  0  0  0  0  0  0  0  0
   26.9675  -20.0040  -13.7619 C   0  0  2  0  0  0  0  0  0  0  0  0
   27.1218  -21.0311  -14.7451 N   0  0  0  0  0  0  0  0  0  0  0  0
   26.5631  -20.6094  -12.4553 C   0  0  0  0  0  0  0  0  0  0  0  0
   25.9484  -21.7003  -12.4005 O   0  0  0  0  0  0  0  0  0  0  0  0
   26.0455  -18.2343  -16.6382 C   0  0  0  0  0  0  0  0  0  0  0  0
   26.5757  -17.5392  -17.7131 C   0  0  0  0  0  0  0  0  0  0  0  0
   26.8720  -19.9572  -11.2080 N   0  0  0  0  0  0  0  0  0  0  0  0
   26.5643  -20.4578   -9.9168 C   0  0  1  0  0  0  0  0  0  0  0  0
   27.3798  -20.0063   -8.7839 C   0  0  0  0  0  0  0  0  0  0  0  0
   26.9133  -20.4633   -7.4642 C   0  0  0  0  0  0  0  0  0  0  0  0
   25.8861  -21.2906   -7.0823 C   0  0  0  0  0  0  0  0  0  0  0  0
   25.8388  -21.4010   -5.7230 N   0  0  0  0  0  0  0  0  0  0  0  0
   26.8162  -20.6609   -5.2112 C   0  0  0  0  0  0  0  0  0  0  0  0
   27.1595  -20.4585   -3.8869 C   0  0  0  0  0  0  0  0  0  0  0  0
   28.2278  -19.6329   -3.5708 C   0  0  0  0  0  0  0  0  0  0  0  0
   28.9055  -19.0456   -4.6080 C   0  0  0  0  0  0  0  0  0  0  0  0
   28.5603  -19.2496   -5.9385 C   0  0  0  0  0  0  0  0  0  0  0  0
   27.4990  -20.0691   -6.2481 C   0  0  0  0  0  0  0  0  0  0  0  0
   25.1004  -20.4446   -9.6685 C   0  0  0  0  0  0  0  0  0  0  0  0
   24.6607  -20.9674   -8.6272 O   0  0  0  0  0  0  0  0  0  0  0  0
   24.1504  -19.8691  -10.5515 N   0  0  0  0  0  0  0  0  0  0  0  0
   22.7231  -19.8224  -10.1780 C   0  0  0  0  0  0  0  0  0  0  0  0
   21.9124  -20.6202  -11.0972 C   0  0  0  0  0  0  0  0  0  0  0  0
   20.5373  -20.5865  -11.0194 O   0  0  0  0  0  0  0  0  0  0  0  0
   22.4567  -21.3374  -11.9596 O   0  0  0  0  0  0  0  0  0  0  0  0
  2  1  1  0
  3  2  2  0
  4  3  1  0
  5  4  2  0
  5 11  1  0
  6  5  1  0
  7  6  1  0
  7  8  1  6
  9 10  2  0
  9  7  1  0
 11 12  2  0
 12  2  1  0
 13  9  1  0
 14 13  1  0
 14 15  1  1
 16 15  1  0
 16 17  2  0
 18 17  1  0
 19 18  1  0
 20 19  2  0
 21 20  1  0
 22 21  2  0
 22 23  1  0
 23 24  2  0
 24 19  1  0
 24 16  1  0
 25 14  1  0
 26 25  2  0
 27 25  1  0
 28 27  1  0
 29 28  1  0
 29 30  1  0
 31 29  2  0
M  END
$$$$
