YWG.pdb
     RDKit          3D

 31 33  0  0  1  0  0  0  0  0999 V2000
   17.6878  -16.6544  -23.7402 O   0  0  0  0  0  0  0  0  0  0  0  0
   18.3203  -17.2345  -22.6273 C   0  0  0  0  0  0  0  0  0  0  0  0
   18.9440  -16.4299  -21.6912 C   0  0  0  0  0  0  0  0  0  0  0  0
   19.5885  -16.9459  -20.5676 C   0  0  0  0  0  0  0  0  0  0  0  0
   19.6104  -18.3067  -20.3731 C   0  0  0  0  0  0  0  0  0  0  0  0
   20.2976  -18.8599  -19.1684 C   0  0  0  0  0  0  0  0  0  0  0  0
   21.7868  -18.5956  -19.2305 C   0  0  2  0  0  0  0  0  0  0  0  0
   22.4113  -19.2406  -20.3437 N   0  0  0  0  0  0  0  0  0  0  0  0
   22.4916  -18.9714  -17.9658 C   0  0  0  0  0  0  0  0  0  0  0  0
   23.3195  -19.9119  -17.9313 O   0  0  0  0  0  0  0  0  0  0  0  0
   18.9891  -19.1192  -21.3035 C   0  0  0  0  0  0  0  0  0  0  0  0
   18.3494  -18.6037  -22.4193 C   0  0  0  0  0  0  0  0  0  0  0  0
   22.2443  -18.2583  -16.7383 N   0  0  0  0  0  0  0  0  0  0  0  0
   22.9433  -18.4480  -15.5186 C   0  0  1  0  0  0  0  0  0  0  0  0
   23.8478  -17.3864  -15.0635 C   0  0  0  0  0  0  0  0  0  0  0  0
   24.8511  -16.9610  -16.0539 C   0  0  0  0  0  0  0  0  0  0  0  0
   24.8011  -16.0674  -17.0952 C   0  0  0  0  0  0  0  0  0  0  0  0
   25.9977  -16.0260  -17.7500 N   0  0  0  0  0  0  0  0  0  0  0  0
   26.8271  -16.8762  -17.1549 C   0  0  0  0  0  0  0  0  0  0  0  0
   28.1408  -17.1788  -17.4637 C   0  0  0  0  0  0  0  0  0  0  0  0
   28.8298  -18.1117  -16.7036 C   0  0  0  0  0  0  0  0  0  0  0  0
   28.1612  -18.7005  -15.6613 C   0  0  0  0  0  0  0  0  0  0  0  0
   26.8413  -18.3959  -15.3512 C   0  0  0  0  0  0  0  0  0  0  0  0
   26.1607  -17.4701  -16.1085 C   0  0  0  0  0  0  0  0  0  0  0  0
   22.0502  -18.9927  -14.4648 C   0  0  0  0  0  0  0  0  0  0  0  0
   22.4641  -19.0451  -13.2914 O   0  0  0  0  0  0  0  0  0  0  0  0
   20.7351  -19.4679  -14.7061 N   0  0  0  0  0  0  0  0  0  0  0  0
   19.9375  -20.0371  -13.6021 C   0  0  0  0  0  0  0  0  0  0  0  0
   19.6166  -21.4412  -13.8546 C   0  0  0  0  0  0  0  0  0  0  0  0
   18.3361  -21.9085  -13.6539 O   0  0  0  0  0  0  0  0  0  0  0  0
   20.4971  -22.2285  -14.2539 O   0  0  0  0  0  0  0  0  0  0  0  0
  2  1  1  0
  3  2  2  0
  4  3  1  0
  5  4  2  0
  5 11  1  0
  6  5  1  0
  7  6  1  0
  7  8  1  6
  9 10  2  0
  9  7  1  0
 11 12  2  0
 12  2  1  0
 13  9  1  0
 14 13  1  0
 14 15  1  1
 16 15  1  0
 16 17  2  0
 18 17  1  0
 19 18  1  0
 20 19  2  0
 21 20  1  0
 22 21  2  0
 22 23  1  0
 23 24  2  0
 24 19  1  0
 24 16  1  0
 25 14  1  0
 26 25  2  0
 27 25  1  0
 28 27  1  0
 29 28  1  0
 29 30  1  0
 31 29  2  0
M  END
$$$$
