YWG.pdb
     RDKit          3D

 31 33  0  0  1  0  0  0  0  0999 V2000
   26.2192  -19.4742  -18.7083 O   0  0  0  0  0  0  0  0  0  0  0  0
   26.4545  -19.6557  -17.3347 C   0  0  0  0  0  0  0  0  0  0  0  0
   26.6551  -20.9281  -16.8313 C   0  0  0  0  0  0  0  0  0  0  0  0
   26.8923  -21.1720  -15.4791 C   0  0  0  0  0  0  0  0  0  0  0  0
   26.9303  -20.1128  -14.6033 C   0  0  0  0  0  0  0  0  0  0  0  0
   27.1874  -20.3729  -13.1557 C   0  0  0  0  0  0  0  0  0  0  0  0
   25.9173  -20.8023  -12.4530 C   0  0  2  0  0  0  0  0  0  0  0  0
   24.8459  -19.8741  -12.6432 N   0  0  0  0  0  0  0  0  0  0  0  0
   26.1222  -21.0476  -10.9918 C   0  0  0  0  0  0  0  0  0  0  0  0
   26.9500  -21.8933  -10.5788 O   0  0  0  0  0  0  0  0  0  0  0  0
   26.7313  -18.8369  -15.0975 C   0  0  0  0  0  0  0  0  0  0  0  0
   26.4958  -18.5974  -16.4418 C   0  0  0  0  0  0  0  0  0  0  0  0
   25.3738  -20.3127  -10.0038 N   0  0  0  0  0  0  0  0  0  0  0  0
   25.4493  -20.5046   -8.6003 C   0  0  1  0  0  0  0  0  0  0  0  0
   25.7542  -19.3445   -7.7556 C   0  0  0  0  0  0  0  0  0  0  0  0
   27.1347  -19.2956   -7.2457 C   0  0  0  0  0  0  0  0  0  0  0  0
   28.3247  -18.9409   -7.8319 C   0  0  0  0  0  0  0  0  0  0  0  0
   29.3548  -19.0769   -6.9472 N   0  0  0  0  0  0  0  0  0  0  0  0
   28.8587  -19.5137   -5.7949 C   0  0  0  0  0  0  0  0  0  0  0  0
   29.5148  -19.8010   -4.6118 C   0  0  0  0  0  0  0  0  0  0  0  0
   28.7945  -20.2542   -3.5171 C   0  0  0  0  0  0  0  0  0  0  0  0
   27.4388  -20.3982   -3.6640 C   0  0  0  0  0  0  0  0  0  0  0  0
   26.7800  -20.1092   -4.8529 C   0  0  0  0  0  0  0  0  0  0  0  0
   27.4985  -19.6603   -5.9373 C   0  0  0  0  0  0  0  0  0  0  0  0
   24.3298  -21.3482   -8.1107 C   0  0  0  0  0  0  0  0  0  0  0  0
   23.2287  -21.2841   -8.6891 O   0  0  0  0  0  0  0  0  0  0  0  0
   24.4282  -22.2371   -7.0090 N   0  0  0  0  0  0  0  0  0  0  0  0
   23.3165  -23.1562   -6.6954 C   0  0  0  0  0  0  0  0  0  0  0  0
   22.2156  -22.4474   -6.0444 C   0  0  0  0  0  0  0  0  0  0  0  0
   21.1861  -23.1509   -5.4583 O   0  0  0  0  0  0  0  0  0  0  0  0
   22.1977  -21.2011   -6.0127 O   0  0  0  0  0  0  0  0  0  0  0  0
  2  1  1  0
  3  2  2  0
  4  3  1  0
  5  4  2  0
  5 11  1  0
  6  5  1  0
  7  6  1  0
  7  8  1  1
  9 10  2  0
  9  7  1  0
 11 12  2  0
 12  2  1  0
 13  9  1  0
 14 13  1  0
 14 15  1  1
 16 15  1  0
 16 17  2  0
 18 17  1  0
 19 18  1  0
 20 19  2  0
 21 20  1  0
 22 21  2  0
 22 23  1  0
 23 24  2  0
 24 19  1  0
 24 16  1  0
 25 14  1  0
 26 25  2  0
 27 25  1  0
 28 27  1  0
 29 28  1  0
 29 30  1  0
 31 29  2  0
M  END
$$$$
