YWG.pdb
     RDKit          3D

 31 33  0  0  1  0  0  0  0  0999 V2000
   29.3381  -17.3091  -19.0637 O   0  0  0  0  0  0  0  0  0  0  0  0
   28.6643  -17.8250  -17.9434 C   0  0  0  0  0  0  0  0  0  0  0  0
   27.4189  -18.4069  -18.0950 C   0  0  0  0  0  0  0  0  0  0  0  0
   26.7013  -18.9352  -17.0226 C   0  0  0  0  0  0  0  0  0  0  0  0
   27.2443  -18.8808  -15.7607 C   0  0  0  0  0  0  0  0  0  0  0  0
   26.4779  -19.4493  -14.6122 C   0  0  0  0  0  0  0  0  0  0  0  0
   27.0286  -20.8024  -14.2159 C   0  0  2  0  0  0  0  0  0  0  0  0
   26.8134  -21.7968  -15.2210 N   0  0  0  0  0  0  0  0  0  0  0  0
   26.4906  -21.2816  -12.9051 C   0  0  0  0  0  0  0  0  0  0  0  0
   25.3614  -21.8185  -12.8166 O   0  0  0  0  0  0  0  0  0  0  0  0
   28.4893  -18.3012  -15.5994 C   0  0  0  0  0  0  0  0  0  0  0  0
   29.2002  -17.7769  -16.6670 C   0  0  0  0  0  0  0  0  0  0  0  0
   27.2584  -21.1454  -11.6933 N   0  0  0  0  0  0  0  0  0  0  0  0
   26.7299  -21.1483  -10.3768 C   0  0  1  0  0  0  0  0  0  0  0  0
   27.6638  -21.0189   -9.2528 C   0  0  0  0  0  0  0  0  0  0  0  0
   27.0344  -20.7141   -7.9569 C   0  0  0  0  0  0  0  0  0  0  0  0
   25.7220  -20.5878   -7.5736 C   0  0  0  0  0  0  0  0  0  0  0  0
   25.6372  -20.2756   -6.2478 N   0  0  0  0  0  0  0  0  0  0  0  0
   26.8700  -20.1961   -5.7594 C   0  0  0  0  0  0  0  0  0  0  0  0
   27.2850  -19.9038   -4.4729 C   0  0  0  0  0  0  0  0  0  0  0  0
   28.6392  -19.8698   -4.1770 C   0  0  0  0  0  0  0  0  0  0  0  0
   29.5189  -20.1331   -5.1953 C   0  0  0  0  0  0  0  0  0  0  0  0
   29.1015  -20.4270   -6.4877 C   0  0  0  0  0  0  0  0  0  0  0  0
   27.7566  -20.4591   -6.7776 C   0  0  0  0  0  0  0  0  0  0  0  0
   25.5225  -20.2897  -10.2790 C   0  0  0  0  0  0  0  0  0  0  0  0
   25.5304  -19.1729  -10.8298 O   0  0  0  0  0  0  0  0  0  0  0  0
   24.3395  -20.6589   -9.5877 N   0  0  0  0  0  0  0  0  0  0  0  0
   23.3072  -21.4690  -10.2637 C   0  0  0  0  0  0  0  0  0  0  0  0
   22.4147  -20.6267  -11.0589 C   0  0  0  0  0  0  0  0  0  0  0  0
   22.9109  -19.8864  -12.1097 O   0  0  0  0  0  0  0  0  0  0  0  0
   21.1975  -20.5703  -10.7948 O   0  0  0  0  0  0  0  0  0  0  0  0
  2  1  1  0
  3  2  2  0
  4  3  1  0
  5  4  2  0
  5 11  1  0
  6  5  1  0
  7  6  1  0
  7  8  1  6
  9 10  2  0
  9  7  1  0
 11 12  2  0
 12  2  1  0
 13  9  1  0
 14 13  1  0
 14 15  1  1
 16 15  1  0
 16 17  2  0
 18 17  1  0
 19 18  1  0
 20 19  2  0
 21 20  1  0
 22 21  2  0
 22 23  1  0
 23 24  2  0
 24 19  1  0
 24 16  1  0
 25 14  1  0
 26 25  2  0
 27 25  1  0
 28 27  1  0
 29 28  1  0
 29 30  1  0
 31 29  2  0
M  END
$$$$
