YWG.pdb
     RDKit          3D

 31 33  0  0  1  0  0  0  0  0999 V2000
   23.2174   -5.5059  -26.4754 O   0  0  0  0  0  0  0  0  0  0  0  0
   22.8287   -6.0440  -25.2366 C   0  0  0  0  0  0  0  0  0  0  0  0
   22.1312   -7.2373  -25.1910 C   0  0  0  0  0  0  0  0  0  0  0  0
   21.7180   -7.8204  -23.9938 C   0  0  0  0  0  0  0  0  0  0  0  0
   22.0106   -7.1926  -22.8062 C   0  0  0  0  0  0  0  0  0  0  0  0
   21.5713   -7.8181  -21.5235 C   0  0  0  0  0  0  0  0  0  0  0  0
   22.7228   -8.5373  -20.8543 C   0  0  2  0  0  0  0  0  0  0  0  0
   23.1976   -9.6454  -21.6239 N   0  0  0  0  0  0  0  0  0  0  0  0
   22.3920   -8.9882  -19.4670 C   0  0  0  0  0  0  0  0  0  0  0  0
   21.9251  -10.1296  -19.2424 O   0  0  0  0  0  0  0  0  0  0  0  0
   22.7081   -5.9993  -22.8417 C   0  0  0  0  0  0  0  0  0  0  0  0
   23.1175   -5.4220  -24.0330 C   0  0  0  0  0  0  0  0  0  0  0  0
   22.6039   -8.1223  -18.3349 N   0  0  0  0  0  0  0  0  0  0  0  0
   22.3495   -8.4580  -16.9802 C   0  0  1  0  0  0  0  0  0  0  0  0
   23.3213   -8.0359  -15.9654 C   0  0  0  0  0  0  0  0  0  0  0  0
   22.7310   -7.5540  -14.7054 C   0  0  0  0  0  0  0  0  0  0  0  0
   22.2546   -6.3259  -14.3180 C   0  0  0  0  0  0  0  0  0  0  0  0
   21.8153   -6.3671  -13.0266 N   0  0  0  0  0  0  0  0  0  0  0  0
   21.9964   -7.5995  -12.5647 C   0  0  0  0  0  0  0  0  0  0  0  0
   21.7078   -8.1175  -11.3152 C   0  0  0  0  0  0  0  0  0  0  0  0
   21.9846   -9.4481  -11.0405 C   0  0  0  0  0  0  0  0  0  0  0  0
   22.5423  -10.2009  -12.0417 C   0  0  0  0  0  0  0  0  0  0  0  0
   22.8320   -9.6800  -13.2970 C   0  0  0  0  0  0  0  0  0  0  0  0
   22.5564   -8.3588  -13.5655 C   0  0  0  0  0  0  0  0  0  0  0  0
   20.9312   -8.2064  -16.6199 C   0  0  0  0  0  0  0  0  0  0  0  0
   20.4117   -7.1202  -16.9380 O   0  0  0  0  0  0  0  0  0  0  0  0
   20.1122   -9.1333  -15.9244 N   0  0  0  0  0  0  0  0  0  0  0  0
   18.6873   -8.8309  -15.6853 C   0  0  0  0  0  0  0  0  0  0  0  0
   18.5038   -8.1334  -14.4132 C   0  0  0  0  0  0  0  0  0  0  0  0
   18.2440   -6.7805  -14.3936 O   0  0  0  0  0  0  0  0  0  0  0  0
   18.5799   -8.7551  -13.3352 O   0  0  0  0  0  0  0  0  0  0  0  0
  2  1  1  0
  3  2  2  0
  4  3  1  0
  5  4  2  0
  5 11  1  0
  6  5  1  0
  7  6  1  0
  7  8  1  6
  9 10  2  0
  9  7  1  0
 11 12  2  0
 12  2  1  0
 13  9  1  0
 14 13  1  0
 14 15  1  1
 16 15  1  0
 16 17  2  0
 18 17  1  0
 19 18  1  0
 20 19  2  0
 21 20  1  0
 22 21  2  0
 22 23  1  0
 23 24  2  0
 24 19  1  0
 24 16  1  0
 25 14  1  0
 26 25  2  0
 27 25  1  0
 28 27  1  0
 29 28  1  0
 29 30  1  0
 31 29  2  0
M  END
$$$$
