YWG.pdb
     RDKit          3D

 31 33  0  0  1  0  0  0  0  0999 V2000
   29.1568  -14.4880  -18.3393 O   0  0  0  0  0  0  0  0  0  0  0  0
   28.5418  -15.5491  -17.6530 C   0  0  0  0  0  0  0  0  0  0  0  0
   28.3792  -15.4814  -16.2813 C   0  0  0  0  0  0  0  0  0  0  0  0
   27.7778  -16.5015  -15.5451 C   0  0  0  0  0  0  0  0  0  0  0  0
   27.3251  -17.6230  -16.1989 C   0  0  0  0  0  0  0  0  0  0  0  0
   26.6781  -18.7143  -15.4117 C   0  0  0  0  0  0  0  0  0  0  0  0
   27.7015  -19.7399  -14.9733 C   0  0  2  0  0  0  0  0  0  0  0  0
   28.3743  -20.3490  -16.0787 N   0  0  0  0  0  0  0  0  0  0  0  0
   27.1163  -20.7967  -14.0912 C   0  0  0  0  0  0  0  0  0  0  0  0
   26.5743  -21.8218  -14.5670 O   0  0  0  0  0  0  0  0  0  0  0  0
   27.4829  -17.6994  -17.5705 C   0  0  0  0  0  0  0  0  0  0  0  0
   28.0809  -16.6842  -18.2996 C   0  0  0  0  0  0  0  0  0  0  0  0
   27.1599  -20.6733  -12.6562 N   0  0  0  0  0  0  0  0  0  0  0  0
   26.4988  -21.5251  -11.7342 C   0  0  1  0  0  0  0  0  0  0  0  0
   27.1881  -21.8648  -10.4845 C   0  0  0  0  0  0  0  0  0  0  0  0
   27.0277  -20.8800   -9.4015 C   0  0  0  0  0  0  0  0  0  0  0  0
   26.0323  -19.9803   -9.1101 C   0  0  0  0  0  0  0  0  0  0  0  0
   26.3476  -19.2603   -7.9946 N   0  0  0  0  0  0  0  0  0  0  0  0
   27.5304  -19.6738   -7.5531 C   0  0  0  0  0  0  0  0  0  0  0  0
   28.2577  -19.2394   -6.4599 C   0  0  0  0  0  0  0  0  0  0  0  0
   29.4881  -19.8137   -6.1789 C   0  0  0  0  0  0  0  0  0  0  0  0
   29.9327  -20.8047   -7.0158 C   0  0  0  0  0  0  0  0  0  0  0  0
   29.2015  -21.2409   -8.1139 C   0  0  0  0  0  0  0  0  0  0  0  0
   27.9811  -20.6680   -8.3899 C   0  0  0  0  0  0  0  0  0  0  0  0
   25.0747  -21.1385  -11.5691 C   0  0  0  0  0  0  0  0  0  0  0  0
   24.7850  -19.9314  -11.4699 O   0  0  0  0  0  0  0  0  0  0  0  0
   24.0017  -22.0654  -11.5136 N   0  0  0  0  0  0  0  0  0  0  0  0
   22.6368  -21.6024  -11.1947 C   0  0  0  0  0  0  0  0  0  0  0  0
   21.8049  -21.5499  -12.3962 C   0  0  0  0  0  0  0  0  0  0  0  0
   20.4764  -21.1962  -12.3068 O   0  0  0  0  0  0  0  0  0  0  0  0
   22.2890  -21.8239  -13.5120 O   0  0  0  0  0  0  0  0  0  0  0  0
  2  1  1  0
  3  2  2  0
  4  3  1  0
  5  4  2  0
  5 11  1  0
  6  5  1  0
  7  6  1  0
  7  8  1  6
  9 10  2  0
  9  7  1  0
 11 12  2  0
 12  2  1  0
 13  9  1  0
 14 13  1  0
 14 15  1  1
 16 15  1  0
 16 17  2  0
 18 17  1  0
 19 18  1  0
 20 19  2  0
 21 20  1  0
 22 21  2  0
 22 23  1  0
 23 24  2  0
 24 19  1  0
 24 16  1  0
 25 14  1  0
 26 25  2  0
 27 25  1  0
 28 27  1  0
 29 28  1  0
 29 30  1  0
 31 29  2  0
M  END
$$$$
