YWG.pdb
     RDKit          3D

 31 33  0  0  1  0  0  0  0  0999 V2000
   10.0252   -9.1962   -7.6405 O   0  0  0  0  0  0  0  0  0  0  0  0
   11.1857   -9.1538   -8.4320 C   0  0  0  0  0  0  0  0  0  0  0  0
   11.7810   -7.9390   -8.7192 C   0  0  0  0  0  0  0  0  0  0  0  0
   12.9321   -7.8323   -9.4987 C   0  0  0  0  0  0  0  0  0  0  0  0
   13.5061   -8.9738  -10.0066 C   0  0  0  0  0  0  0  0  0  0  0  0
   14.7406   -8.8607  -10.8388 C   0  0  0  0  0  0  0  0  0  0  0  0
   14.3890   -8.6420  -12.2948 C   0  0  2  0  0  0  0  0  0  0  0  0
   13.7544   -9.7814  -12.8818 N   0  0  0  0  0  0  0  0  0  0  0  0
   15.5709   -8.2395  -13.1184 C   0  0  0  0  0  0  0  0  0  0  0  0
   16.2397   -9.0824  -13.7613 O   0  0  0  0  0  0  0  0  0  0  0  0
   12.9182  -10.1931   -9.7244 C   0  0  0  0  0  0  0  0  0  0  0  0
   11.7742  -10.2961   -8.9495 C   0  0  0  0  0  0  0  0  0  0  0  0
   15.9804   -6.8606  -13.2045 N   0  0  0  0  0  0  0  0  0  0  0  0
   16.9983   -6.3536  -14.0526 C   0  0  1  0  0  0  0  0  0  0  0  0
   16.7216   -5.1323  -14.8170 C   0  0  0  0  0  0  0  0  0  0  0  0
   15.4495   -5.1409  -15.5585 C   0  0  0  0  0  0  0  0  0  0  0  0
   14.8795   -6.0588  -16.4057 C   0  0  0  0  0  0  0  0  0  0  0  0
   13.6787   -5.6043  -16.8681 N   0  0  0  0  0  0  0  0  0  0  0  0
   13.4551   -4.4068  -16.3382 C   0  0  0  0  0  0  0  0  0  0  0  0
   12.3767   -3.5589  -16.5141 C   0  0  0  0  0  0  0  0  0  0  0  0
   12.3471   -2.3372  -15.8591 C   0  0  0  0  0  0  0  0  0  0  0  0
   13.4101   -2.0230  -15.0521 C   0  0  0  0  0  0  0  0  0  0  0  0
   14.4933   -2.8754  -14.8754 C   0  0  0  0  0  0  0  0  0  0  0  0
   14.5193   -4.0868  -15.5278 C   0  0  0  0  0  0  0  0  0  0  0  0
   18.3212   -6.3743  -13.3786 C   0  0  0  0  0  0  0  0  0  0  0  0
   18.4496   -5.7939  -12.2842 O   0  0  0  0  0  0  0  0  0  0  0  0
   19.4704   -7.0192  -13.9048 N   0  0  0  0  0  0  0  0  0  0  0  0
   20.7762   -6.8742  -13.2318 C   0  0  0  0  0  0  0  0  0  0  0  0
   21.4070   -5.6007  -13.5763 C   0  0  0  0  0  0  0  0  0  0  0  0
   22.6404   -5.2731  -13.0570 O   0  0  0  0  0  0  0  0  0  0  0  0
   20.8362   -4.8001  -14.3429 O   0  0  0  0  0  0  0  0  0  0  0  0
  2  1  1  0
  3  2  2  0
  4  3  1  0
  5  4  2  0
  5 11  1  0
  6  5  1  0
  7  6  1  0
  7  8  1  6
  9 10  2  0
  9  7  1  0
 11 12  2  0
 12  2  1  0
 13  9  1  0
 14 13  1  0
 14 15  1  1
 16 15  1  0
 16 17  2  0
 18 17  1  0
 19 18  1  0
 20 19  2  0
 21 20  1  0
 22 21  2  0
 22 23  1  0
 23 24  2  0
 24 19  1  0
 24 16  1  0
 25 14  1  0
 26 25  2  0
 27 25  1  0
 28 27  1  0
 29 28  1  0
 29 30  1  0
 31 29  2  0
M  END
$$$$
