YWG.pdb
     RDKit          3D

 31 33  0  0  1  0  0  0  0  0999 V2000
   29.0647  -30.5507  -18.8798 O   0  0  0  0  0  0  0  0  0  0  0  0
   28.3359  -29.5350  -18.2376 C   0  0  0  0  0  0  0  0  0  0  0  0
   27.4229  -28.7826  -18.9537 C   0  0  0  0  0  0  0  0  0  0  0  0
   26.6712  -27.7619  -18.3732 C   0  0  0  0  0  0  0  0  0  0  0  0
   26.8364  -27.4845  -17.0367 C   0  0  0  0  0  0  0  0  0  0  0  0
   26.0294  -26.3937  -16.4136 C   0  0  0  0  0  0  0  0  0  0  0  0
   26.7229  -25.0570  -16.5678 C   0  0  2  0  0  0  0  0  0  0  0  0
   28.0183  -25.0392  -15.9619 N   0  0  0  0  0  0  0  0  0  0  0  0
   25.9034  -23.9195  -16.0462 C   0  0  0  0  0  0  0  0  0  0  0  0
   25.7673  -23.7194  -14.8164 O   0  0  0  0  0  0  0  0  0  0  0  0
   27.7467  -28.2318  -16.3125 C   0  0  0  0  0  0  0  0  0  0  0  0
   28.4925  -29.2456  -16.8920 C   0  0  0  0  0  0  0  0  0  0  0  0
   25.2424  -23.0077  -16.9451 N   0  0  0  0  0  0  0  0  0  0  0  0
   24.4371  -21.9058  -16.5579 C   0  0  1  0  0  0  0  0  0  0  0  0
   24.5768  -20.6482  -17.3002 C   0  0  0  0  0  0  0  0  0  0  0  0
   23.7049  -19.5557  -16.8369 C   0  0  0  0  0  0  0  0  0  0  0  0
   23.6777  -18.8240  -15.6754 C   0  0  0  0  0  0  0  0  0  0  0  0
   22.6573  -17.9183  -15.7025 N   0  0  0  0  0  0  0  0  0  0  0  0
   22.0185  -18.0458  -16.8604 C   0  0  0  0  0  0  0  0  0  0  0  0
   20.9224  -17.3500  -17.3369 C   0  0  0  0  0  0  0  0  0  0  0  0
   20.4069  -17.6502  -18.5886 C   0  0  0  0  0  0  0  0  0  0  0  0
   21.0219  -18.6426  -19.3077 C   0  0  0  0  0  0  0  0  0  0  0  0
   22.1234  -19.3413  -18.8285 C   0  0  0  0  0  0  0  0  0  0  0  0
   22.6316  -19.0408  -17.5855 C   0  0  0  0  0  0  0  0  0  0  0  0
   23.0342  -22.3245  -16.3101 C   0  0  0  0  0  0  0  0  0  0  0  0
   22.4750  -23.0754  -17.1312 O   0  0  0  0  0  0  0  0  0  0  0  0
   22.2720  -21.9199  -15.1836 N   0  0  0  0  0  0  0  0  0  0  0  0
   20.9202  -22.4713  -14.9654 C   0  0  0  0  0  0  0  0  0  0  0  0
   19.8984  -21.6085  -15.5571 C   0  0  0  0  0  0  0  0  0  0  0  0
   20.2538  -20.4179  -16.1523 O   0  0  0  0  0  0  0  0  0  0  0  0
   18.6973  -21.9414  -15.5292 O   0  0  0  0  0  0  0  0  0  0  0  0
  2  1  1  0
  3  2  2  0
  4  3  1  0
  5  4  2  0
  5 11  1  0
  6  5  1  0
  7  6  1  0
  7  8  1  1
  9 10  2  0
  9  7  1  0
 11 12  2  0
 12  2  1  0
 13  9  1  0
 14 13  1  0
 14 15  1  6
 16 15  1  0
 16 17  2  0
 18 17  1  0
 19 18  1  0
 20 19  2  0
 21 20  1  0
 22 21  2  0
 22 23  1  0
 23 24  2  0
 24 19  1  0
 24 16  1  0
 25 14  1  0
 26 25  2  0
 27 25  1  0
 28 27  1  0
 29 28  1  0
 29 30  1  0
 31 29  2  0
M  END
$$$$
