YWG.pdb
     RDKit          3D

 31 33  0  0  1  0  0  0  0  0999 V2000
   29.7994  -16.3630  -18.8546 O   0  0  0  0  0  0  0  0  0  0  0  0
   29.0765  -17.0409  -17.8582 C   0  0  0  0  0  0  0  0  0  0  0  0
   29.2883  -16.7383  -16.5255 C   0  0  0  0  0  0  0  0  0  0  0  0
   28.6030  -17.3763  -15.4923 C   0  0  0  0  0  0  0  0  0  0  0  0
   27.6779  -18.3458  -15.7998 C   0  0  0  0  0  0  0  0  0  0  0  0
   26.9413  -19.0272  -14.6941 C   0  0  0  0  0  0  0  0  0  0  0  0
   27.7424  -20.1917  -14.1524 C   0  0  2  0  0  0  0  0  0  0  0  0
   27.9650  -21.2071  -15.1347 N   0  0  0  0  0  0  0  0  0  0  0  0
   27.1268  -20.7951  -12.9300 C   0  0  0  0  0  0  0  0  0  0  0  0
   26.1764  -21.6086  -13.0079 O   0  0  0  0  0  0  0  0  0  0  0  0
   27.4590  -18.6548  -17.1296 C   0  0  0  0  0  0  0  0  0  0  0  0
   28.1416  -18.0192  -18.1543 C   0  0  0  0  0  0  0  0  0  0  0  0
   27.6111  -20.4629  -11.6141 N   0  0  0  0  0  0  0  0  0  0  0  0
   27.0728  -20.9408  -10.3917 C   0  0  1  0  0  0  0  0  0  0  0  0
   27.8894  -20.8211   -9.1788 C   0  0  0  0  0  0  0  0  0  0  0  0
   27.1256  -20.7678   -7.9210 C   0  0  0  0  0  0  0  0  0  0  0  0
   25.8117  -21.0352   -7.6253 C   0  0  0  0  0  0  0  0  0  0  0  0
   25.5651  -20.8226   -6.3000 N   0  0  0  0  0  0  0  0  0  0  0  0
   26.6940  -20.4214   -5.7260 C   0  0  0  0  0  0  0  0  0  0  0  0
   26.9337  -20.0849   -4.4061 C   0  0  0  0  0  0  0  0  0  0  0  0
   28.2027  -19.6839   -4.0170 C   0  0  0  0  0  0  0  0  0  0  0  0
   29.1782  -19.6400   -4.9796 C   0  0  0  0  0  0  0  0  0  0  0  0
   28.9370  -19.9785   -6.3056 C   0  0  0  0  0  0  0  0  0  0  0  0
   27.6760  -20.3752   -6.6880 C   0  0  0  0  0  0  0  0  0  0  0  0
   25.6570  -20.5246  -10.2270 C   0  0  0  0  0  0  0  0  0  0  0  0
   25.3950  -19.3134  -10.1039 O   0  0  0  0  0  0  0  0  0  0  0  0
   24.5623  -21.4270  -10.1978 N   0  0  0  0  0  0  0  0  0  0  0  0
   23.4329  -21.2541  -11.1325 C   0  0  0  0  0  0  0  0  0  0  0  0
   22.3356  -20.5217  -10.5017 C   0  0  0  0  0  0  0  0  0  0  0  0
   21.1740  -20.2733  -11.1997 O   0  0  0  0  0  0  0  0  0  0  0  0
   22.4397  -20.1157   -9.3275 O   0  0  0  0  0  0  0  0  0  0  0  0
  2  1  1  0
  3  2  2  0
  4  3  1  0
  5  4  2  0
  5 11  1  0
  6  5  1  0
  7  6  1  0
  7  8  1  6
  9 10  2  0
  9  7  1  0
 11 12  2  0
 12  2  1  0
 13  9  1  0
 14 13  1  0
 14 15  1  1
 16 15  1  0
 16 17  2  0
 18 17  1  0
 19 18  1  0
 20 19  2  0
 21 20  1  0
 22 21  2  0
 22 23  1  0
 23 24  2  0
 24 19  1  0
 24 16  1  0
 25 14  1  0
 26 25  2  0
 27 25  1  0
 28 27  1  0
 29 28  1  0
 29 30  1  0
 31 29  2  0
M  END
$$$$
