YWG.pdb
     RDKit          3D

 31 33  0  0  1  0  0  0  0  0999 V2000
   21.7340  -15.1663  -20.3223 O   0  0  0  0  0  0  0  0  0  0  0  0
   22.0940  -16.0545  -19.2945 C   0  0  0  0  0  0  0  0  0  0  0  0
   21.8193  -17.4040  -19.4211 C   0  0  0  0  0  0  0  0  0  0  0  0
   22.1511  -18.3336  -18.4362 C   0  0  0  0  0  0  0  0  0  0  0  0
   22.7764  -17.9021  -17.2903 C   0  0  0  0  0  0  0  0  0  0  0  0
   23.1349  -18.8974  -16.2366 C   0  0  0  0  0  0  0  0  0  0  0  0
   24.5716  -19.3485  -16.3902 C   0  0  2  0  0  0  0  0  0  0  0  0
   24.7717  -20.1510  -17.5570 N   0  0  0  0  0  0  0  0  0  0  0  0
   25.0800  -20.0722  -15.1838 C   0  0  0  0  0  0  0  0  0  0  0  0
   24.8253  -21.2841  -14.9905 O   0  0  0  0  0  0  0  0  0  0  0  0
   23.0555  -16.5546  -17.1550 C   0  0  0  0  0  0  0  0  0  0  0  0
   22.7246  -15.6330  -18.1353 C   0  0  0  0  0  0  0  0  0  0  0  0
   25.8880  -19.3977  -14.1996 N   0  0  0  0  0  0  0  0  0  0  0  0
   26.3440  -19.9608  -12.9800 C   0  0  1  0  0  0  0  0  0  0  0  0
   27.5932  -19.4514  -12.4035 C   0  0  0  0  0  0  0  0  0  0  0  0
   28.1002  -20.2155  -11.2513 C   0  0  0  0  0  0  0  0  0  0  0  0
   28.9394  -21.2981  -11.1571 C   0  0  0  0  0  0  0  0  0  0  0  0
   29.1026  -21.6668   -9.8533 N   0  0  0  0  0  0  0  0  0  0  0  0
   28.3852  -20.8446   -9.0956 C   0  0  0  0  0  0  0  0  0  0  0  0
   28.2352  -20.8278   -7.7208 C   0  0  0  0  0  0  0  0  0  0  0  0
   27.4249  -19.8714   -7.1280 C   0  0  0  0  0  0  0  0  0  0  0  0
   26.7992  -18.9704   -7.9507 C   0  0  0  0  0  0  0  0  0  0  0  0
   26.9504  -18.9876   -9.3319 C   0  0  0  0  0  0  0  0  0  0  0  0
   27.7549  -19.9388   -9.9165 C   0  0  0  0  0  0  0  0  0  0  0  0
   25.2320  -20.1133  -12.0079 C   0  0  0  0  0  0  0  0  0  0  0  0
   24.4261  -19.1753  -11.8614 O   0  0  0  0  0  0  0  0  0  0  0  0
   25.0207  -21.2737  -11.2189 N   0  0  0  0  0  0  0  0  0  0  0  0
   24.0000  -21.2701  -10.1525 C   0  0  0  0  0  0  0  0  0  0  0  0
   22.6640  -21.4966  -10.7023 C   0  0  0  0  0  0  0  0  0  0  0  0
   21.5583  -21.4543   -9.8815 O   0  0  0  0  0  0  0  0  0  0  0  0
   22.5123  -21.7294  -11.9177 O   0  0  0  0  0  0  0  0  0  0  0  0
  2  1  1  0
  3  2  2  0
  4  3  1  0
  5  4  2  0
  5 11  1  0
  6  5  1  0
  7  6  1  0
  7  8  1  6
  9 10  2  0
  9  7  1  0
 11 12  2  0
 12  2  1  0
 13  9  1  0
 14 13  1  0
 14 15  1  1
 16 15  1  0
 16 17  2  0
 18 17  1  0
 19 18  1  0
 20 19  2  0
 21 20  1  0
 22 21  2  0
 22 23  1  0
 23 24  2  0
 24 19  1  0
 24 16  1  0
 25 14  1  0
 26 25  2  0
 27 25  1  0
 28 27  1  0
 29 28  1  0
 29 30  1  0
 31 29  2  0
M  END
$$$$
