YWG.pdb
     RDKit          3D

 31 33  0  0  1  0  0  0  0  0999 V2000
   17.1215  -19.2030  -14.3794 O   0  0  0  0  0  0  0  0  0  0  0  0
   18.4973  -19.4867  -14.3355 C   0  0  0  0  0  0  0  0  0  0  0  0
   19.1524  -19.5389  -13.1187 C   0  0  0  0  0  0  0  0  0  0  0  0
   20.5150  -19.8146  -13.0106 C   0  0  0  0  0  0  0  0  0  0  0  0
   21.2450  -20.0454  -14.1525 C   0  0  0  0  0  0  0  0  0  0  0  0
   22.7034  -20.3439  -14.0374 C   0  0  0  0  0  0  0  0  0  0  0  0
   23.4807  -19.0957  -13.6783 C   0  0  2  0  0  0  0  0  0  0  0  0
   23.3679  -18.0751  -14.6739 N   0  0  0  0  0  0  0  0  0  0  0  0
   24.9235  -19.3757  -13.4005 C   0  0  0  0  0  0  0  0  0  0  0  0
   25.8375  -18.7937  -14.0306 O   0  0  0  0  0  0  0  0  0  0  0  0
   20.5984  -19.9958  -15.3737 C   0  0  0  0  0  0  0  0  0  0  0  0
   19.2442  -19.7215  -15.4782 C   0  0  0  0  0  0  0  0  0  0  0  0
   25.3139  -20.3264  -12.3905 N   0  0  0  0  0  0  0  0  0  0  0  0
   26.5433  -21.0333  -12.3538 C   0  0  1  0  0  0  0  0  0  0  0  0
   26.9156  -21.7158  -11.1097 C   0  0  0  0  0  0  0  0  0  0  0  0
   26.5809  -20.9828   -9.8772 C   0  0  0  0  0  0  0  0  0  0  0  0
   25.4088  -20.4359   -9.4164 C   0  0  0  0  0  0  0  0  0  0  0  0
   25.6033  -19.8325   -8.2079 N   0  0  0  0  0  0  0  0  0  0  0  0
   26.8806  -19.9758   -7.8721 C   0  0  0  0  0  0  0  0  0  0  0  0
   27.5444  -19.5310   -6.7433 C   0  0  0  0  0  0  0  0  0  0  0  0
   28.8982  -19.7907   -6.5931 C   0  0  0  0  0  0  0  0  0  0  0  0
   29.5254  -20.4904   -7.5916 C   0  0  0  0  0  0  0  0  0  0  0  0
   28.8580  -20.9373   -8.7256 C   0  0  0  0  0  0  0  0  0  0  0  0
   27.5146  -20.6770   -8.8712 C   0  0  0  0  0  0  0  0  0  0  0  0
   26.7368  -21.8421  -13.5840 C   0  0  0  0  0  0  0  0  0  0  0  0
   26.2293  -22.9777  -13.6451 O   0  0  0  0  0  0  0  0  0  0  0  0
   27.4743  -21.4041  -14.7143 N   0  0  0  0  0  0  0  0  0  0  0  0
   28.6619  -22.1574  -15.1629 C   0  0  0  0  0  0  0  0  0  0  0  0
   28.2948  -23.1908  -16.1303 C   0  0  0  0  0  0  0  0  0  0  0  0
   29.2708  -23.8663  -16.8298 O   0  0  0  0  0  0  0  0  0  0  0  0
   27.0966  -23.4711  -16.3310 O   0  0  0  0  0  0  0  0  0  0  0  0
  2  1  1  0
  3  2  2  0
  4  3  1  0
  5  4  2  0
  5 11  1  0
  6  5  1  0
  7  6  1  0
  7  8  1  6
  9 10  2  0
  9  7  1  0
 11 12  2  0
 12  2  1  0
 13  9  1  0
 14 13  1  0
 14 15  1  1
 16 15  1  0
 16 17  2  0
 18 17  1  0
 19 18  1  0
 20 19  2  0
 21 20  1  0
 22 21  2  0
 22 23  1  0
 23 24  2  0
 24 19  1  0
 24 16  1  0
 25 14  1  0
 26 25  2  0
 27 25  1  0
 28 27  1  0
 29 28  1  0
 29 30  1  0
 31 29  2  0
M  END
$$$$
