YWG.pdb
     RDKit          3D

 31 33  0  0  1  0  0  0  0  0999 V2000
   24.7698  -12.4971  -16.4880 O   0  0  0  0  0  0  0  0  0  0  0  0
   24.8874  -13.8339  -16.0706 C   0  0  0  0  0  0  0  0  0  0  0  0
   25.4005  -14.7838  -16.9349 C   0  0  0  0  0  0  0  0  0  0  0  0
   25.5411  -16.1247  -16.5794 C   0  0  0  0  0  0  0  0  0  0  0  0
   25.1577  -16.5288  -15.3225 C   0  0  0  0  0  0  0  0  0  0  0  0
   25.3109  -17.9639  -14.9399 C   0  0  0  0  0  0  0  0  0  0  0  0
   26.4112  -18.1321  -13.9141 C   0  0  2  0  0  0  0  0  0  0  0  0
   27.6697  -17.6320  -14.3742 N   0  0  0  0  0  0  0  0  0  0  0  0
   26.5640  -19.5492  -13.4604 C   0  0  0  0  0  0  0  0  0  0  0  0
   27.5308  -20.2557  -13.8310 O   0  0  0  0  0  0  0  0  0  0  0  0
   24.6440  -15.5860  -14.4512 C   0  0  0  0  0  0  0  0  0  0  0  0
   24.5054  -14.2541  -14.8072 C   0  0  0  0  0  0  0  0  0  0  0  0
   25.6016  -20.1524  -12.5737 N   0  0  0  0  0  0  0  0  0  0  0  0
   25.5813  -21.5158  -12.1822 C   0  0  1  0  0  0  0  0  0  0  0  0
   25.6077  -21.8278  -10.7490 C   0  0  0  0  0  0  0  0  0  0  0  0
   26.4419  -20.9280   -9.9347 C   0  0  0  0  0  0  0  0  0  0  0  0
   26.1422  -19.8226   -9.1774 C   0  0  0  0  0  0  0  0  0  0  0  0
   27.2725  -19.3065   -8.6132 N   0  0  0  0  0  0  0  0  0  0  0  0
   28.3039  -20.0550   -8.9886 C   0  0  0  0  0  0  0  0  0  0  0  0
   29.6437  -19.9213   -8.6728 C   0  0  0  0  0  0  0  0  0  0  0  0
   30.5649  -20.8237   -9.1824 C   0  0  0  0  0  0  0  0  0  0  0  0
   30.0927  -21.8253   -9.9911 C   0  0  0  0  0  0  0  0  0  0  0  0
   28.7463  -21.9594  -10.3079 C   0  0  0  0  0  0  0  0  0  0  0  0
   27.8353  -21.0614   -9.8007 C   0  0  0  0  0  0  0  0  0  0  0  0
   24.5810  -22.2860  -12.9639 C   0  0  0  0  0  0  0  0  0  0  0  0
   24.5242  -23.5216  -12.8192 O   0  0  0  0  0  0  0  0  0  0  0  0
   23.6701  -21.7021  -13.8819 N   0  0  0  0  0  0  0  0  0  0  0  0
   22.7741  -22.5579  -14.6843 C   0  0  0  0  0  0  0  0  0  0  0  0
   21.8060  -21.7536  -15.4288 C   0  0  0  0  0  0  0  0  0  0  0  0
   20.4822  -21.7304  -15.0475 O   0  0  0  0  0  0  0  0  0  0  0  0
   22.1683  -21.0814  -16.4144 O   0  0  0  0  0  0  0  0  0  0  0  0
  2  1  1  0
  3  2  2  0
  4  3  1  0
  5  4  2  0
  5 11  1  0
  6  5  1  0
  7  6  1  0
  7  8  1  6
  9 10  2  0
  9  7  1  0
 11 12  2  0
 12  2  1  0
 13  9  1  0
 14 13  1  0
 14 15  1  1
 16 15  1  0
 16 17  2  0
 18 17  1  0
 19 18  1  0
 20 19  2  0
 21 20  1  0
 22 21  2  0
 22 23  1  0
 23 24  2  0
 24 19  1  0
 24 16  1  0
 25 14  1  0
 26 25  2  0
 27 25  1  0
 28 27  1  0
 29 28  1  0
 29 30  1  0
 31 29  2  0
M  END
$$$$
