KDY.pdb
     RDKit          3D

 30 30  0  0  1  0  0  0  0  0999 V2000
   22.2127  -21.1166  -17.0539 N   0  0  0  0  0  0  0  0  0  0  0  0
   23.2691  -20.1892  -16.7935 C   0  0  1  0  0  0  0  0  0  0  0  0
   22.7228  -18.9010  -16.1836 C   0  0  0  0  0  0  0  0  0  0  0  0
   21.7027  -18.3260  -17.1091 C   0  0  0  0  0  0  0  0  0  0  0  0
   21.1298  -17.0256  -16.7034 C   0  0  0  0  0  0  0  0  0  0  0  0
   20.1588  -16.3605  -17.5892 C   0  0  0  0  0  0  0  0  0  0  0  0
   19.7728  -15.0686  -17.1365 N   0  0  0  0  0  0  0  0  0  0  0  0
   24.2666  -20.7750  -15.8651 C   0  0  0  0  0  0  0  0  0  0  0  0
   23.9515  -21.7375  -15.1119 O   0  0  0  0  0  0  0  0  0  0  0  0
   25.5990  -20.2781  -15.7918 N   0  0  0  0  0  0  0  0  0  0  0  0
   26.5042  -20.8364  -14.8394 C   0  0  1  0  0  0  0  0  0  0  0  0
   27.9152  -20.7822  -15.3789 C   0  0  0  0  0  0  0  0  0  0  0  0
   28.1067  -21.6603  -16.5597 C   0  0  0  0  0  0  0  0  0  0  0  0
   27.8913  -22.9056  -16.4410 O   0  0  0  0  0  0  0  0  0  0  0  0
   26.4504  -20.1183  -13.5364 C   0  0  0  0  0  0  0  0  0  0  0  0
   26.5374  -18.8675  -13.4444 O   0  0  0  0  0  0  0  0  0  0  0  0
   28.5093  -21.2281  -17.8069 O   0  0  0  0  0  0  0  0  0  0  0  0
   20.1815  -22.0405  -11.7136 O   0  0  0  0  0  0  0  0  0  0  0  0
   21.3603  -21.3659  -11.5471 C   0  0  0  0  0  0  0  0  0  0  0  0
   22.1499  -21.0582  -12.6474 C   0  0  0  0  0  0  0  0  0  0  0  0
   23.3373  -20.3763  -12.4591 C   0  0  0  0  0  0  0  0  0  0  0  0
   23.7614  -19.9923  -11.2083 C   0  0  0  0  0  0  0  0  0  0  0  0
   25.0280  -19.2747  -11.0101 C   0  0  0  0  0  0  0  0  0  0  0  0
   26.1863  -20.2242  -11.0359 C   0  0  2  0  0  0  0  0  0  0  0  0
   26.2959  -20.8702  -12.3569 N   0  0  0  0  0  0  0  0  0  0  0  0
   26.1325  -21.2772  -10.0072 C   0  0  0  0  0  0  0  0  0  0  0  0
   26.1047  -21.0326   -8.6459 O   0  0  0  0  0  0  0  0  0  0  0  0
   22.9554  -20.3118  -10.1319 C   0  0  0  0  0  0  0  0  0  0  0  0
   21.7651  -20.9912  -10.2862 C   0  0  0  0  0  0  0  0  0  0  0  0
   26.1111  -22.4784  -10.3628 O   0  0  0  0  0  0  0  0  0  0  0  0
  2  1  1  1
  2  8  1  0
  2  3  1  0
  4  3  1  0
  4  5  1  0
  6  5  1  0
  7  6  1  0
  8  9  2  0
 10 11  1  0
 10  8  1  0
 11 12  1  6
 13 12  1  0
 14 13  2  0
 15 16  2  0
 15 11  1  0
 17 13  1  0
 18 19  1  0
 19 29  2  0
 19 20  1  0
 20 21  2  0
 21 22  1  0
 22 23  1  0
 24 23  1  6
 24 26  1  0
 24 25  1  0
 25 15  1  0
 26 27  1  0
 28 22  2  0
 29 28  1  0
 30 26  2  0
M  END
$$$$
