KDY.pdb
     RDKit          3D

 30 30  0  0  1  0  0  0  0  0999 V2000
   19.3848  -22.6011  -13.5339 N   0  0  0  0  0  0  0  0  0  0  0  0
   20.2014  -23.6780  -13.9999 C   0  0  1  0  0  0  0  0  0  0  0  0
   19.5893  -24.3270  -15.2385 C   0  0  0  0  0  0  0  0  0  0  0  0
   18.1363  -23.9897  -15.2895 C   0  0  0  0  0  0  0  0  0  0  0  0
   17.8142  -22.5481  -15.3359 C   0  0  0  0  0  0  0  0  0  0  0  0
   16.4027  -22.1276  -15.3594 C   0  0  0  0  0  0  0  0  0  0  0  0
   16.2339  -20.7174  -15.4342 N   0  0  0  0  0  0  0  0  0  0  0  0
   21.5649  -23.1985  -14.3329 C   0  0  0  0  0  0  0  0  0  0  0  0
   22.4386  -24.0023  -14.7615 O   0  0  0  0  0  0  0  0  0  0  0  0
   21.9320  -21.8309  -14.1827 N   0  0  0  0  0  0  0  0  0  0  0  0
   23.2635  -21.4236  -14.4974 C   0  0  1  0  0  0  0  0  0  0  0  0
   23.2345  -20.3527  -15.5639 C   0  0  0  0  0  0  0  0  0  0  0  0
   22.4275  -19.1733  -15.1637 C   0  0  0  0  0  0  0  0  0  0  0  0
   21.1948  -19.3310  -14.9053 O   0  0  0  0  0  0  0  0  0  0  0  0
   23.9816  -20.9039  -13.3013 C   0  0  0  0  0  0  0  0  0  0  0  0
   23.4518  -20.1136  -12.4795 O   0  0  0  0  0  0  0  0  0  0  0  0
   22.9148  -17.8876  -15.0457 O   0  0  0  0  0  0  0  0  0  0  0  0
   28.6207  -19.7849   -6.2379 O   0  0  0  0  0  0  0  0  0  0  0  0
   28.0372  -20.2876   -7.3690 C   0  0  0  0  0  0  0  0  0  0  0  0
   26.6716  -20.1407   -7.5743 C   0  0  0  0  0  0  0  0  0  0  0  0
   26.1005  -20.6552   -8.7229 C   0  0  0  0  0  0  0  0  0  0  0  0
   26.8485  -21.3115   -9.6723 C   0  0  0  0  0  0  0  0  0  0  0  0
   26.2376  -21.8647  -10.8886 C   0  0  0  0  0  0  0  0  0  0  0  0
   26.0961  -20.8073  -11.9402 C   0  0  2  0  0  0  0  0  0  0  0  0
   25.3095  -21.3137  -13.0800 N   0  0  0  0  0  0  0  0  0  0  0  0
   27.3745  -20.2855  -12.4536 C   0  0  0  0  0  0  0  0  0  0  0  0
   27.9555  -19.1024  -12.0335 O   0  0  0  0  0  0  0  0  0  0  0  0
   28.2049  -21.4428   -9.4416 C   0  0  0  0  0  0  0  0  0  0  0  0
   28.8052  -20.9406   -8.3059 C   0  0  0  0  0  0  0  0  0  0  0  0
   27.9929  -20.9358  -13.3279 O   0  0  0  0  0  0  0  0  0  0  0  0
  2  1  1  6
  2  8  1  0
  2  3  1  0
  4  3  1  0
  4  5  1  0
  6  5  1  0
  7  6  1  0
  8  9  2  0
 10 11  1  0
 10  8  1  0
 11 12  1  6
 13 12  1  0
 14 13  2  0
 15 16  2  0
 15 11  1  0
 17 13  1  0
 18 19  1  0
 19 29  2  0
 19 20  1  0
 20 21  2  0
 21 22  1  0
 22 23  1  0
 24 23  1  1
 24 26  1  0
 24 25  1  0
 25 15  1  0
 26 27  1  0
 28 22  2  0
 29 28  1  0
 30 26  2  0
M  END
$$$$
