KDY.pdb
     RDKit          3D

 30 30  0  0  1  0  0  0  0  0999 V2000
   16.4714  -10.9097  -15.6586 N   0  0  0  0  0  0  0  0  0  0  0  0
   17.5757  -11.3546  -14.8673 C   0  0  1  0  0  0  0  0  0  0  0  0
   17.8096  -12.8514  -15.0540 C   0  0  0  0  0  0  0  0  0  0  0  0
   16.4881  -13.5448  -15.0785 C   0  0  0  0  0  0  0  0  0  0  0  0
   16.0819  -14.1043  -16.3847 C   0  0  0  0  0  0  0  0  0  0  0  0
   14.7845  -14.7921  -16.4996 C   0  0  0  0  0  0  0  0  0  0  0  0
   14.6595  -15.9124  -15.6323 N   0  0  0  0  0  0  0  0  0  0  0  0
   18.8140  -10.6254  -15.2346 C   0  0  0  0  0  0  0  0  0  0  0  0
   19.8892  -10.8342  -14.6073 O   0  0  0  0  0  0  0  0  0  0  0  0
   18.8333   -9.6755  -16.2952 N   0  0  0  0  0  0  0  0  0  0  0  0
   20.0400   -8.9684  -16.5815 C   0  0  1  0  0  0  0  0  0  0  0  0
   20.4196   -9.1661  -18.0312 C   0  0  0  0  0  0  0  0  0  0  0  0
   21.6466   -8.4196  -18.4047 C   0  0  0  0  0  0  0  0  0  0  0  0
   22.6923   -8.5637  -17.6996 O   0  0  0  0  0  0  0  0  0  0  0  0
   19.9080   -7.5117  -16.3043 C   0  0  0  0  0  0  0  0  0  0  0  0
   18.8735   -6.8558  -16.5880 O   0  0  0  0  0  0  0  0  0  0  0  0
   21.7505   -7.5605  -19.4796 O   0  0  0  0  0  0  0  0  0  0  0  0
   21.1276    0.4766  -13.1447 O   0  0  0  0  0  0  0  0  0  0  0  0
   21.2299   -0.8667  -13.3846 C   0  0  0  0  0  0  0  0  0  0  0  0
   22.3803   -1.3869  -13.9631 C   0  0  0  0  0  0  0  0  0  0  0  0
   22.4649   -2.7464  -14.1975 C   0  0  0  0  0  0  0  0  0  0  0  0
   21.4384   -3.6025  -13.8734 C   0  0  0  0  0  0  0  0  0  0  0  0
   21.5277   -5.0461  -14.1312 C   0  0  0  0  0  0  0  0  0  0  0  0
   20.9622   -5.3814  -15.4772 C   0  0  2  0  0  0  0  0  0  0  0  0
   20.9859   -6.8389  -15.6994 N   0  0  0  0  0  0  0  0  0  0  0  0
   21.6489   -4.7285  -16.6051 C   0  0  0  0  0  0  0  0  0  0  0  0
   21.2175   -3.5593  -17.2055 O   0  0  0  0  0  0  0  0  0  0  0  0
   20.3059   -3.0569  -13.2989 C   0  0  0  0  0  0  0  0  0  0  0  0
   20.1903   -1.7049  -13.0518 C   0  0  0  0  0  0  0  0  0  0  0  0
   22.6911   -5.2468  -17.0686 O   0  0  0  0  0  0  0  0  0  0  0  0
  2  1  1  6
  2  8  1  0
  2  3  1  0
  4  3  1  0
  4  5  1  0
  6  5  1  0
  7  6  1  0
  8  9  2  0
 10 11  1  0
 10  8  1  0
 11 12  1  6
 13 12  1  0
 14 13  2  0
 15 16  2  0
 15 11  1  0
 17 13  1  0
 18 19  1  0
 19 29  2  0
 19 20  1  0
 20 21  2  0
 21 22  1  0
 22 23  1  0
 24 23  1  1
 24 26  1  0
 24 25  1  0
 25 15  1  0
 26 27  1  0
 28 22  2  0
 29 28  1  0
 30 26  2  0
M  END
$$$$
