KDY.pdb
     RDKit          3D

 30 30  0  0  1  0  0  0  0  0999 V2000
   18.9734  -16.3256  -19.3352 N   0  0  0  0  0  0  0  0  0  0  0  0
   18.6122  -16.0865  -17.9728 C   0  0  1  0  0  0  0  0  0  0  0  0
   19.1409  -17.1964  -17.0679 C   0  0  0  0  0  0  0  0  0  0  0  0
   18.6432  -18.5086  -17.5760 C   0  0  0  0  0  0  0  0  0  0  0  0
   17.1907  -18.7416  -17.4344 C   0  0  0  0  0  0  0  0  0  0  0  0
   16.6216  -20.0239  -17.8831 C   0  0  0  0  0  0  0  0  0  0  0  0
   15.2266  -20.1420  -17.6325 N   0  0  0  0  0  0  0  0  0  0  0  0
   19.1530  -14.7869  -17.5052 C   0  0  0  0  0  0  0  0  0  0  0  0
   18.9791  -14.4138  -16.3121 O   0  0  0  0  0  0  0  0  0  0  0  0
   19.8788  -13.9247  -18.3755 N   0  0  0  0  0  0  0  0  0  0  0  0
   20.2735  -12.6328  -17.9138 C   0  0  1  0  0  0  0  0  0  0  0  0
   21.5098  -12.1780  -18.6553 C   0  0  0  0  0  0  0  0  0  0  0  0
   22.7104  -12.9756  -18.3021 C   0  0  0  0  0  0  0  0  0  0  0  0
   23.0437  -13.0771  -17.0815 O   0  0  0  0  0  0  0  0  0  0  0  0
   19.1937  -11.6246  -18.0978 C   0  0  0  0  0  0  0  0  0  0  0  0
   18.4498  -11.6012  -19.1111 O   0  0  0  0  0  0  0  0  0  0  0  0
   23.5156  -13.6327  -19.2099 O   0  0  0  0  0  0  0  0  0  0  0  0
   12.8043   -5.9907  -17.1105 O   0  0  0  0  0  0  0  0  0  0  0  0
   13.7385   -6.9866  -17.0215 C   0  0  0  0  0  0  0  0  0  0  0  0
   14.5674   -7.0690  -15.9103 C   0  0  0  0  0  0  0  0  0  0  0  0
   15.5048   -8.0821  -15.8386 C   0  0  0  0  0  0  0  0  0  0  0  0
   15.6413   -9.0147  -16.8403 C   0  0  0  0  0  0  0  0  0  0  0  0
   16.6442  -10.0858  -16.7653 C   0  0  0  0  0  0  0  0  0  0  0  0
   17.9803   -9.5963  -17.2336 C   0  0  2  0  0  0  0  0  0  0  0  0
   18.9963  -10.6561  -17.0961 N   0  0  0  0  0  0  0  0  0  0  0  0
   18.4663   -8.3938  -16.5351 C   0  0  0  0  0  0  0  0  0  0  0  0
   19.5112   -8.3910  -15.6286 O   0  0  0  0  0  0  0  0  0  0  0  0
   14.8030   -8.9082  -17.9340 C   0  0  0  0  0  0  0  0  0  0  0  0
   13.8574   -7.9093  -18.0357 C   0  0  0  0  0  0  0  0  0  0  0  0
   17.9133   -7.2920  -16.7586 O   0  0  0  0  0  0  0  0  0  0  0  0
  2  1  1  6
  2  8  1  0
  2  3  1  0
  4  3  1  0
  4  5  1  0
  6  5  1  0
  7  6  1  0
  8  9  2  0
 10 11  1  0
 10  8  1  0
 11 12  1  6
 13 12  1  0
 14 13  2  0
 15 16  2  0
 15 11  1  0
 17 13  1  0
 18 19  1  0
 19 29  2  0
 19 20  1  0
 20 21  2  0
 21 22  1  0
 22 23  1  0
 24 23  1  1
 24 26  1  0
 24 25  1  0
 25 15  1  0
 26 27  1  0
 28 22  2  0
 29 28  1  0
 30 26  2  0
M  END
$$$$
