KDY.pdb
     RDKit          3D

 30 30  0  0  1  0  0  0  0  0999 V2000
   26.9822  -20.0517  -16.8925 N   0  0  0  0  0  0  0  0  0  0  0  0
   27.6371  -20.0473  -15.6218 C   0  0  1  0  0  0  0  0  0  0  0  0
   28.6073  -18.8737  -15.5150 C   0  0  0  0  0  0  0  0  0  0  0  0
   28.2368  -17.8495  -16.5354 C   0  0  0  0  0  0  0  0  0  0  0  0
   29.1476  -16.6904  -16.6402 C   0  0  0  0  0  0  0  0  0  0  0  0
   28.7744  -15.5594  -17.5069 C   0  0  0  0  0  0  0  0  0  0  0  0
   29.5816  -15.4499  -18.6728 N   0  0  0  0  0  0  0  0  0  0  0  0
   26.6479  -19.9546  -14.5203 C   0  0  0  0  0  0  0  0  0  0  0  0
   25.9237  -18.9285  -14.3958 O   0  0  0  0  0  0  0  0  0  0  0  0
   26.4826  -21.0074  -13.5759 N   0  0  0  0  0  0  0  0  0  0  0  0
   25.5509  -20.8497  -12.5059 C   0  0  1  0  0  0  0  0  0  0  0  0
   24.3566  -21.7493  -12.7279 C   0  0  0  0  0  0  0  0  0  0  0  0
   23.1952  -21.3710  -11.8852 C   0  0  0  0  0  0  0  0  0  0  0  0
   22.2244  -22.1816  -11.7767 O   0  0  0  0  0  0  0  0  0  0  0  0
   26.1634  -21.1660  -11.1864 C   0  0  0  0  0  0  0  0  0  0  0  0
   27.0403  -22.0547  -11.0386 O   0  0  0  0  0  0  0  0  0  0  0  0
   23.0772  -20.1834  -11.1924 O   0  0  0  0  0  0  0  0  0  0  0  0
   29.2457  -19.9264   -3.1670 O   0  0  0  0  0  0  0  0  0  0  0  0
   28.7650  -19.8121   -4.4431 C   0  0  0  0  0  0  0  0  0  0  0  0
   27.7523  -18.9058   -4.7289 C   0  0  0  0  0  0  0  0  0  0  0  0
   27.2799  -18.8048   -6.0238 C   0  0  0  0  0  0  0  0  0  0  0  0
   27.7855  -19.5794   -7.0417 C   0  0  0  0  0  0  0  0  0  0  0  0
   27.2758  -19.4758   -8.4158 C   0  0  0  0  0  0  0  0  0  0  0  0
   26.3755  -20.6293   -8.7369 C   0  0  2  0  0  0  0  0  0  0  0  0
   25.7439  -20.4405  -10.0558 N   0  0  0  0  0  0  0  0  0  0  0  0
   25.3140  -20.8670   -7.7435 C   0  0  0  0  0  0  0  0  0  0  0  0
   25.4884  -21.5928   -6.5789 O   0  0  0  0  0  0  0  0  0  0  0  0
   28.7926  -20.4724   -6.7281 C   0  0  0  0  0  0  0  0  0  0  0  0
   29.2860  -20.5972   -5.4461 C   0  0  0  0  0  0  0  0  0  0  0  0
   24.1718  -20.3931   -7.9446 O   0  0  0  0  0  0  0  0  0  0  0  0
  2  1  1  6
  2  8  1  0
  2  3  1  0
  4  3  1  0
  4  5  1  0
  6  5  1  0
  7  6  1  0
  8  9  2  0
 10 11  1  0
 10  8  1  0
 11 12  1  6
 13 12  1  0
 14 13  2  0
 15 16  2  0
 15 11  1  0
 17 13  1  0
 18 19  1  0
 19 29  2  0
 19 20  1  0
 20 21  2  0
 21 22  1  0
 22 23  1  0
 24 23  1  1
 24 26  1  0
 24 25  1  0
 25 15  1  0
 26 27  1  0
 28 22  2  0
 29 28  1  0
 30 26  2  0
M  END
$$$$
