KDY.pdb
     RDKit          3D

 30 30  0  0  1  0  0  0  0  0999 V2000
   20.7225  -13.4165  -17.0427 N   0  0  0  0  0  0  0  0  0  0  0  0
   20.4683  -12.4348  -18.0504 C   0  0  1  0  0  0  0  0  0  0  0  0
   19.7856  -13.0644  -19.2618 C   0  0  0  0  0  0  0  0  0  0  0  0
   20.0133  -14.5391  -19.2293 C   0  0  0  0  0  0  0  0  0  0  0  0
   19.3836  -15.3092  -20.3221 C   0  0  0  0  0  0  0  0  0  0  0  0
   17.9723  -15.7121  -20.1967 C   0  0  0  0  0  0  0  0  0  0  0  0
   17.4827  -16.4178  -21.3303 N   0  0  0  0  0  0  0  0  0  0  0  0
   19.6053  -11.3500  -17.5225 C   0  0  0  0  0  0  0  0  0  0  0  0
   19.3357  -10.3435  -18.2346 O   0  0  0  0  0  0  0  0  0  0  0  0
   19.0572  -11.4053  -16.2095 N   0  0  0  0  0  0  0  0  0  0  0  0
   18.2688  -10.3151  -15.7322 C   0  0  1  0  0  0  0  0  0  0  0  0
   17.2489  -10.8163  -14.7354 C   0  0  0  0  0  0  0  0  0  0  0  0
   16.1789  -11.6228  -15.3735 C   0  0  0  0  0  0  0  0  0  0  0  0
   15.5872  -11.1595  -16.3965 O   0  0  0  0  0  0  0  0  0  0  0  0
   19.1061   -9.2651  -15.0897 C   0  0  0  0  0  0  0  0  0  0  0  0
   19.8980   -9.5099  -14.1444 O   0  0  0  0  0  0  0  0  0  0  0  0
   15.7616  -12.8642  -14.9387 O   0  0  0  0  0  0  0  0  0  0  0  0
   22.5904   -1.2431  -14.1789 O   0  0  0  0  0  0  0  0  0  0  0  0
   22.1636   -2.4843  -14.5660 C   0  0  0  0  0  0  0  0  0  0  0  0
   22.4240   -3.5918  -13.7696 C   0  0  0  0  0  0  0  0  0  0  0  0
   21.9848   -4.8372  -14.1775 C   0  0  0  0  0  0  0  0  0  0  0  0
   21.2947   -5.0122  -15.3543 C   0  0  0  0  0  0  0  0  0  0  0  0
   20.8361   -6.3384  -15.7895 C   0  0  0  0  0  0  0  0  0  0  0  0
   19.7309   -6.8340  -14.9081 C   0  0  2  0  0  0  0  0  0  0  0  0
   19.0079   -7.9420  -15.5591 N   0  0  0  0  0  0  0  0  0  0  0  0
   18.7514   -5.8032  -14.5232 C   0  0  0  0  0  0  0  0  0  0  0  0
   18.8231   -5.0598  -13.3589 O   0  0  0  0  0  0  0  0  0  0  0  0
   21.0499   -3.8923  -16.1265 C   0  0  0  0  0  0  0  0  0  0  0  0
   21.4745   -2.6360  -15.7476 C   0  0  0  0  0  0  0  0  0  0  0  0
   17.7823   -5.5677  -15.2816 O   0  0  0  0  0  0  0  0  0  0  0  0
  2  1  1  1
  2  8  1  0
  2  3  1  0
  4  3  1  0
  4  5  1  0
  6  5  1  0
  7  6  1  0
  8  9  2  0
 10 11  1  0
 10  8  1  0
 11 12  1  1
 13 12  1  0
 14 13  2  0
 15 16  2  0
 15 11  1  0
 17 13  1  0
 18 19  1  0
 19 29  2  0
 19 20  1  0
 20 21  2  0
 21 22  1  0
 22 23  1  0
 24 23  1  6
 24 26  1  0
 24 25  1  0
 25 15  1  0
 26 27  1  0
 28 22  2  0
 29 28  1  0
 30 26  2  0
M  END
$$$$
