KDY.pdb
     RDKit          3D

 30 30  0  0  1  0  0  0  0  0999 V2000
   27.2770  -19.5756  -19.0050 N   0  0  0  0  0  0  0  0  0  0  0  0
   27.0778  -18.3116  -18.3677 C   0  0  1  0  0  0  0  0  0  0  0  0
   27.1209  -17.1765  -19.3872 C   0  0  0  0  0  0  0  0  0  0  0  0
   28.4767  -17.1414  -20.0103 C   0  0  0  0  0  0  0  0  0  0  0  0
   28.9681  -18.4270  -20.5488 C   0  0  0  0  0  0  0  0  0  0  0  0
   30.2763  -18.4699  -21.2243 C   0  0  0  0  0  0  0  0  0  0  0  0
   30.6389  -19.7701  -21.6725 N   0  0  0  0  0  0  0  0  0  0  0  0
   25.7721  -18.2767  -17.6647 C   0  0  0  0  0  0  0  0  0  0  0  0
   25.4187  -17.2491  -17.0227 O   0  0  0  0  0  0  0  0  0  0  0  0
   24.8821  -19.3879  -17.6891 N   0  0  0  0  0  0  0  0  0  0  0  0
   23.6505  -19.3158  -16.9708 C   0  0  1  0  0  0  0  0  0  0  0  0
   22.5210  -19.8281  -17.8350 C   0  0  0  0  0  0  0  0  0  0  0  0
   21.1979  -19.7024  -17.1749 C   0  0  0  0  0  0  0  0  0  0  0  0
   20.4260  -20.7098  -17.1483 O   0  0  0  0  0  0  0  0  0  0  0  0
   23.6978  -20.1043  -15.7089 C   0  0  0  0  0  0  0  0  0  0  0  0
   24.0756  -21.3028  -15.6690 O   0  0  0  0  0  0  0  0  0  0  0  0
   20.7228  -18.5553  -16.5727 O   0  0  0  0  0  0  0  0  0  0  0  0
   24.1022  -21.9724   -7.2055 O   0  0  0  0  0  0  0  0  0  0  0  0
   24.1081  -21.3492   -8.4238 C   0  0  0  0  0  0  0  0  0  0  0  0
   25.2300  -21.4211   -9.2392 C   0  0  0  0  0  0  0  0  0  0  0  0
   25.2169  -20.7852  -10.4662 C   0  0  0  0  0  0  0  0  0  0  0  0
   24.1205  -20.0800  -10.9048 C   0  0  0  0  0  0  0  0  0  0  0  0
   24.1122  -19.3981  -12.2061 C   0  0  0  0  0  0  0  0  0  0  0  0
   23.3474  -20.1945  -13.2185 C   0  0  2  0  0  0  0  0  0  0  0  0
   23.3030  -19.4833  -14.5094 N   0  0  0  0  0  0  0  0  0  0  0  0
   21.9671  -20.5197  -12.8197 C   0  0  0  0  0  0  0  0  0  0  0  0
   21.5908  -21.7095  -12.2229 O   0  0  0  0  0  0  0  0  0  0  0  0
   23.0184  -20.0256  -10.0726 C   0  0  0  0  0  0  0  0  0  0  0  0
   22.9996  -20.6493   -8.8425 C   0  0  0  0  0  0  0  0  0  0  0  0
   21.0584  -19.6820  -13.0251 O   0  0  0  0  0  0  0  0  0  0  0  0
  2  1  1  6
  2  8  1  0
  2  3  1  0
  4  3  1  0
  4  5  1  0
  6  5  1  0
  7  6  1  0
  8  9  2  0
 10 11  1  0
 10  8  1  0
 11 12  1  6
 13 12  1  0
 14 13  2  0
 15 16  2  0
 15 11  1  0
 17 13  1  0
 18 19  1  0
 19 29  2  0
 19 20  1  0
 20 21  2  0
 21 22  1  0
 22 23  1  0
 24 23  1  1
 24 26  1  0
 24 25  1  0
 25 15  1  0
 26 27  1  0
 28 22  2  0
 29 28  1  0
 30 26  2  0
M  END
$$$$
