KDY.pdb
     RDKit          3D

 30 30  0  0  1  0  0  0  0  0999 V2000
   21.8769  -14.3784  -21.1153 N   0  0  0  0  0  0  0  0  0  0  0  0
   22.0241  -14.0394  -19.7343 C   0  0  1  0  0  0  0  0  0  0  0  0
   23.4081  -14.4310  -19.2234 C   0  0  0  0  0  0  0  0  0  0  0  0
   23.8342  -15.6883  -19.9057 C   0  0  0  0  0  0  0  0  0  0  0  0
   25.2204  -16.1248  -19.6379 C   0  0  0  0  0  0  0  0  0  0  0  0
   25.7383  -17.3271  -20.3132 C   0  0  0  0  0  0  0  0  0  0  0  0
   27.1044  -17.5950  -20.0220 N   0  0  0  0  0  0  0  0  0  0  0  0
   21.8293  -12.5837  -19.5262 C   0  0  0  0  0  0  0  0  0  0  0  0
   22.2739  -11.7525  -20.3655 O   0  0  0  0  0  0  0  0  0  0  0  0
   21.1421  -12.0788  -18.3859 N   0  0  0  0  0  0  0  0  0  0  0  0
   20.9081  -10.6751  -18.2728 C   0  0  1  0  0  0  0  0  0  0  0  0
   19.4226  -10.3974  -18.3094 C   0  0  0  0  0  0  0  0  0  0  0  0
   19.1108   -8.9526  -18.1771 C   0  0  0  0  0  0  0  0  0  0  0  0
   18.1723   -8.5948  -17.4009 O   0  0  0  0  0  0  0  0  0  0  0  0
   21.4795  -10.1173  -17.0164 C   0  0  0  0  0  0  0  0  0  0  0  0
   21.3878  -10.7035  -15.9079 O   0  0  0  0  0  0  0  0  0  0  0  0
   19.7702   -7.9394  -18.8427 O   0  0  0  0  0  0  0  0  0  0  0  0
   27.5563  -12.1579  -17.1388 O   0  0  0  0  0  0  0  0  0  0  0  0
   26.7231  -11.0984  -16.9027 C   0  0  0  0  0  0  0  0  0  0  0  0
   26.2556  -10.3289  -17.9600 C   0  0  0  0  0  0  0  0  0  0  0  0
   25.4148   -9.2628  -17.7016 C   0  0  0  0  0  0  0  0  0  0  0  0
   25.0264   -8.9404  -16.4222 C   0  0  0  0  0  0  0  0  0  0  0  0
   24.1391   -7.8016  -16.1495 C   0  0  0  0  0  0  0  0  0  0  0  0
   22.7446   -8.2704  -15.8668 C   0  0  2  0  0  0  0  0  0  0  0  0
   22.1508   -8.8817  -17.0701 N   0  0  0  0  0  0  0  0  0  0  0  0
   21.8351   -7.2169  -15.3842 C   0  0  0  0  0  0  0  0  0  0  0  0
   21.7831   -6.7756  -14.0742 O   0  0  0  0  0  0  0  0  0  0  0  0
   25.5069   -9.7236  -15.3897 C   0  0  0  0  0  0  0  0  0  0  0  0
   26.3471  -10.7942  -15.6143 C   0  0  0  0  0  0  0  0  0  0  0  0
   21.0481   -6.6718  -16.1924 O   0  0  0  0  0  0  0  0  0  0  0  0
  2  1  1  6
  2  8  1  0
  2  3  1  0
  4  3  1  0
  4  5  1  0
  6  5  1  0
  7  6  1  0
  8  9  2  0
 10 11  1  0
 10  8  1  0
 11 12  1  1
 13 12  1  0
 14 13  2  0
 15 16  2  0
 15 11  1  0
 17 13  1  0
 18 19  1  0
 19 29  2  0
 19 20  1  0
 20 21  2  0
 21 22  1  0
 22 23  1  0
 24 23  1  6
 24 26  1  0
 24 25  1  0
 25 15  1  0
 26 27  1  0
 28 22  2  0
 29 28  1  0
 30 26  2  0
M  END
$$$$
