KDY.pdb
     RDKit          3D

 30 30  0  0  1  0  0  0  0  0999 V2000
   24.1459  -18.1463  -15.8216 N   0  0  0  0  0  0  0  0  0  0  0  0
   23.3411  -19.3266  -15.7683 C   0  0  1  0  0  0  0  0  0  0  0  0
   22.5822  -19.5261  -17.0776 C   0  0  0  0  0  0  0  0  0  0  0  0
   22.0711  -18.2033  -17.5431 C   0  0  0  0  0  0  0  0  0  0  0  0
   21.1163  -17.5304  -16.6379 C   0  0  0  0  0  0  0  0  0  0  0  0
   20.4403  -16.3024  -17.0906 C   0  0  0  0  0  0  0  0  0  0  0  0
   19.5937  -15.7262  -16.1036 N   0  0  0  0  0  0  0  0  0  0  0  0
   24.1788  -20.5235  -15.5114 C   0  0  0  0  0  0  0  0  0  0  0  0
   23.6494  -21.6647  -15.4093 O   0  0  0  0  0  0  0  0  0  0  0  0
   25.5927  -20.4284  -15.3726 N   0  0  0  0  0  0  0  0  0  0  0  0
   26.3509  -21.6058  -15.0954 C   0  0  1  0  0  0  0  0  0  0  0  0
   27.6056  -21.6191  -15.9383 C   0  0  0  0  0  0  0  0  0  0  0  0
   27.3583  -21.1775  -17.3333 C   0  0  0  0  0  0  0  0  0  0  0  0
   26.5744  -21.8582  -18.0637 O   0  0  0  0  0  0  0  0  0  0  0  0
   26.7260  -21.6977  -13.6576 C   0  0  0  0  0  0  0  0  0  0  0  0
   27.8685  -22.0558  -13.2738 O   0  0  0  0  0  0  0  0  0  0  0  0
   27.9218  -20.0624  -17.9191 O   0  0  0  0  0  0  0  0  0  0  0  0
   28.2500  -19.6729   -5.5393 O   0  0  0  0  0  0  0  0  0  0  0  0
   28.0095  -19.8474   -6.8750 C   0  0  0  0  0  0  0  0  0  0  0  0
   28.7041  -20.8153   -7.5888 C   0  0  0  0  0  0  0  0  0  0  0  0
   28.4473  -20.9766   -8.9372 C   0  0  0  0  0  0  0  0  0  0  0  0
   27.5200  -20.2029   -9.5954 C   0  0  0  0  0  0  0  0  0  0  0  0
   27.2548  -20.3709  -11.0307 C   0  0  0  0  0  0  0  0  0  0  0  0
   26.1009  -21.3001  -11.2526 C   0  0  2  0  0  0  0  0  0  0  0  0
   25.7621  -21.3706  -12.6859 N   0  0  0  0  0  0  0  0  0  0  0  0
   24.8824  -20.9459  -10.5044 C   0  0  0  0  0  0  0  0  0  0  0  0
   23.7917  -20.2992  -11.0573 O   0  0  0  0  0  0  0  0  0  0  0  0
   26.8438  -19.2478   -8.8599 C   0  0  0  0  0  0  0  0  0  0  0  0
   27.0769  -19.0620   -7.5133 C   0  0  0  0  0  0  0  0  0  0  0  0
   24.8058  -21.2372   -9.2882 O   0  0  0  0  0  0  0  0  0  0  0  0
  2  1  1  6
  2  8  1  0
  2  3  1  0
  4  3  1  0
  4  5  1  0
  6  5  1  0
  7  6  1  0
  8  9  2  0
 10 11  1  0
 10  8  1  0
 11 12  1  6
 13 12  1  0
 14 13  2  0
 15 16  2  0
 15 11  1  0
 17 13  1  0
 18 19  1  0
 19 29  2  0
 19 20  1  0
 20 21  2  0
 21 22  1  0
 22 23  1  0
 24 23  1  6
 24 26  1  0
 24 25  1  0
 25 15  1  0
 26 27  1  0
 28 22  2  0
 29 28  1  0
 30 26  2  0
M  END
$$$$
