KDY.pdb
     RDKit          3D

 30 30  0  0  1  0  0  0  0  0999 V2000
   28.3668  -19.8603  -16.7020 N   0  0  0  0  0  0  0  0  0  0  0  0
   28.1173  -18.9017  -15.6711 C   0  0  1  0  0  0  0  0  0  0  0  0
   27.6878  -17.5634  -16.2664 C   0  0  0  0  0  0  0  0  0  0  0  0
   28.6301  -17.2020  -17.3660 C   0  0  0  0  0  0  0  0  0  0  0  0
   29.2353  -18.3387  -18.0910 C   0  0  0  0  0  0  0  0  0  0  0  0
   30.1688  -18.0697  -19.1982 C   0  0  0  0  0  0  0  0  0  0  0  0
   30.7654  -19.2448  -19.7331 N   0  0  0  0  0  0  0  0  0  0  0  0
   27.0563  -19.3813  -14.7521 C   0  0  0  0  0  0  0  0  0  0  0  0
   26.5694  -18.6102  -13.8795 O   0  0  0  0  0  0  0  0  0  0  0  0
   26.5557  -20.7126  -14.8211 N   0  0  0  0  0  0  0  0  0  0  0  0
   25.5775  -21.1438  -13.8750 C   0  0  1  0  0  0  0  0  0  0  0  0
   24.9370  -22.4287  -14.3479 C   0  0  0  0  0  0  0  0  0  0  0  0
   24.4826  -22.3520  -15.7586 C   0  0  0  0  0  0  0  0  0  0  0  0
   23.8408  -21.3264  -16.1427 O   0  0  0  0  0  0  0  0  0  0  0  0
   26.1684  -21.3591  -12.5257 C   0  0  0  0  0  0  0  0  0  0  0  0
   27.1550  -22.1126  -12.3270 O   0  0  0  0  0  0  0  0  0  0  0  0
   24.7034  -23.3247  -16.7122 O   0  0  0  0  0  0  0  0  0  0  0  0
   28.7596  -20.2323   -4.3700 O   0  0  0  0  0  0  0  0  0  0  0  0
   28.3962  -20.1684   -5.6877 C   0  0  0  0  0  0  0  0  0  0  0  0
   27.4595  -19.2335   -6.1089 C   0  0  0  0  0  0  0  0  0  0  0  0
   27.1052  -19.1842   -7.4439 C   0  0  0  0  0  0  0  0  0  0  0  0
   27.6556  -20.0380   -8.3712 C   0  0  0  0  0  0  0  0  0  0  0  0
   27.2712  -19.9890   -9.7884 C   0  0  0  0  0  0  0  0  0  0  0  0
   26.1045  -20.8903  -10.0539 C   0  0  2  0  0  0  0  0  0  0  0  0
   25.5995  -20.6919  -11.4250 N   0  0  0  0  0  0  0  0  0  0  0  0
   24.9808  -20.7226   -9.1164 C   0  0  0  0  0  0  0  0  0  0  0  0
   23.8557  -19.9622   -9.3803 O   0  0  0  0  0  0  0  0  0  0  0  0
   28.5850  -20.9578   -7.9236 C   0  0  0  0  0  0  0  0  0  0  0  0
   28.9600  -21.0325   -6.5984 C   0  0  0  0  0  0  0  0  0  0  0  0
   25.0241  -21.2940   -8.0022 O   0  0  0  0  0  0  0  0  0  0  0  0
  2  1  1  6
  2  8  1  0
  2  3  1  0
  4  3  1  0
  4  5  1  0
  6  5  1  0
  7  6  1  0
  8  9  2  0
 10 11  1  0
 10  8  1  0
 11 12  1  6
 13 12  1  0
 14 13  2  0
 15 16  2  0
 15 11  1  0
 17 13  1  0
 18 19  1  0
 19 29  2  0
 19 20  1  0
 20 21  2  0
 21 22  1  0
 22 23  1  0
 24 23  1  1
 24 26  1  0
 24 25  1  0
 25 15  1  0
 26 27  1  0
 28 22  2  0
 29 28  1  0
 30 26  2  0
M  END
$$$$
