KDY.pdb
     RDKit          3D

 30 30  0  0  1  0  0  0  0  0999 V2000
   26.2468  -18.4809  -19.2174 N   0  0  0  0  0  0  0  0  0  0  0  0
   26.3392  -17.5699  -18.1196 C   0  0  1  0  0  0  0  0  0  0  0  0
   26.7831  -16.1892  -18.5955 C   0  0  0  0  0  0  0  0  0  0  0  0
   28.1696  -16.2910  -19.1387 C   0  0  0  0  0  0  0  0  0  0  0  0
   28.3480  -17.2257  -20.2694 C   0  0  0  0  0  0  0  0  0  0  0  0
   29.6585  -17.3037  -20.9373 C   0  0  0  0  0  0  0  0  0  0  0  0
   29.7296  -18.3235  -21.9260 N   0  0  0  0  0  0  0  0  0  0  0  0
   25.0323  -17.4430  -17.4296 C   0  0  0  0  0  0  0  0  0  0  0  0
   24.8960  -16.6476  -16.4592 O   0  0  0  0  0  0  0  0  0  0  0  0
   23.8990  -18.2049  -17.8330 N   0  0  0  0  0  0  0  0  0  0  0  0
   22.6660  -18.0540  -17.1294 C   0  0  1  0  0  0  0  0  0  0  0  0
   21.5059  -18.2835  -18.0709 C   0  0  0  0  0  0  0  0  0  0  0  0
   20.9473  -17.0164  -18.6044 C   0  0  0  0  0  0  0  0  0  0  0  0
   20.7692  -16.0412  -17.8116 O   0  0  0  0  0  0  0  0  0  0  0  0
   22.5618  -18.9998  -15.9845 C   0  0  0  0  0  0  0  0  0  0  0  0
   22.7991  -20.2297  -16.0938 O   0  0  0  0  0  0  0  0  0  0  0  0
   20.5959  -16.8024  -19.9216 O   0  0  0  0  0  0  0  0  0  0  0  0
   21.9300  -21.9455   -7.7874 O   0  0  0  0  0  0  0  0  0  0  0  0
   22.0520  -21.1361   -8.8839 C   0  0  0  0  0  0  0  0  0  0  0  0
   20.9760  -20.3666   -9.3067 C   0  0  0  0  0  0  0  0  0  0  0  0
   21.1186  -19.5551  -10.4164 C   0  0  0  0  0  0  0  0  0  0  0  0
   22.3001  -19.4876  -11.1172 C   0  0  0  0  0  0  0  0  0  0  0  0
   22.4464  -18.6303  -12.3014 C   0  0  0  0  0  0  0  0  0  0  0  0
   22.0671  -19.3736  -13.5455 C   0  0  2  0  0  0  0  0  0  0  0  0
   22.1815  -18.4976  -14.7261 N   0  0  0  0  0  0  0  0  0  0  0  0
   20.7100  -19.9460  -13.5218 C   0  0  0  0  0  0  0  0  0  0  0  0
   20.4199  -21.2413  -13.1324 O   0  0  0  0  0  0  0  0  0  0  0  0
   23.3538  -20.2642  -10.6736 C   0  0  0  0  0  0  0  0  0  0  0  0
   23.2439  -21.0840   -9.5699 C   0  0  0  0  0  0  0  0  0  0  0  0
   19.7405  -19.2346  -13.8737 O   0  0  0  0  0  0  0  0  0  0  0  0
  2  1  1  6
  2  8  1  0
  2  3  1  0
  4  3  1  0
  4  5  1  0
  6  5  1  0
  7  6  1  0
  8  9  2  0
 10 11  1  0
 10  8  1  0
 11 12  1  6
 13 12  1  0
 14 13  2  0
 15 16  2  0
 15 11  1  0
 17 13  1  0
 18 19  1  0
 19 29  2  0
 19 20  1  0
 20 21  2  0
 21 22  1  0
 22 23  1  0
 24 23  1  1
 24 26  1  0
 24 25  1  0
 25 15  1  0
 26 27  1  0
 28 22  2  0
 29 28  1  0
 30 26  2  0
M  END
$$$$
