WHW.pdb
     RDKit          3D

 39 43  0  0  1  0  0  0  0  0999 V2000
    7.6204  -17.7635   21.4478 N   0  0  0  0  0  0  0  0  0  0  0  0
    8.4678  -16.7391   22.0198 C   0  0  1  0  0  0  0  0  0  0  0  0
    7.5718  -15.6887   22.6860 C   0  0  0  0  0  0  0  0  0  0  0  0
    7.0324  -14.8293   21.6094 C   0  0  0  0  0  0  0  0  0  0  0  0
    5.7054  -14.8424   21.1705 C   0  0  0  0  0  0  0  0  0  0  0  0
    5.5703  -13.9310   20.1766 N   0  0  0  0  0  0  0  0  0  0  0  0
    6.7436  -13.3284   19.9502 C   0  0  0  0  0  0  0  0  0  0  0  0
    7.1534  -12.3560   19.0781 C   0  0  0  0  0  0  0  0  0  0  0  0
    8.4681  -11.9359   19.0891 C   0  0  0  0  0  0  0  0  0  0  0  0
    9.4061  -12.4761   19.9707 C   0  0  0  0  0  0  0  0  0  0  0  0
    8.9690  -13.4533   20.8384 C   0  0  0  0  0  0  0  0  0  0  0  0
    7.6552  -13.8852   20.8401 C   0  0  0  0  0  0  0  0  0  0  0  0
    9.3651  -17.3482   23.0042 C   0  0  0  0  0  0  0  0  0  0  0  0
    8.8656  -18.0503   23.9206 O   0  0  0  0  0  0  0  0  0  0  0  0
   10.7686  -17.1751   22.9602 N   0  0  0  0  0  0  0  0  0  0  0  0
   11.6995  -17.7216   23.9360 C   0  0  1  0  0  0  0  0  0  0  0  0
   13.1219  -17.7188   23.4980 C   0  0  0  0  0  0  0  0  0  0  0  0
   13.4100  -18.5228   22.2694 C   0  0  0  0  0  0  0  0  0  0  0  0
   12.8691  -19.6967   21.8244 C   0  0  0  0  0  0  0  0  0  0  0  0
   13.4535  -20.0507   20.6712 N   0  0  0  0  0  0  0  0  0  0  0  0
   14.3617  -19.1137   20.3778 C   0  0  0  0  0  0  0  0  0  0  0  0
   14.3499  -18.1814   21.3332 N   0  0  0  0  0  0  0  0  0  0  0  0
   11.6205  -16.8304   25.1255 C   0  0  0  0  0  0  0  0  0  0  0  0
   12.0735  -15.6828   25.0771 O   0  0  0  0  0  0  0  0  0  0  0  0
   11.0236  -17.3277   26.2891 N   0  0  0  0  0  0  0  0  0  0  0  0
   11.1645  -16.6131   27.5629 C   0  0  1  0  0  0  0  0  0  0  0  0
   10.6006  -15.2475   27.3026 C   0  0  0  0  0  0  0  0  0  0  0  0
    9.1542  -15.2865   27.1035 C   0  0  0  0  0  0  0  0  0  0  0  0
    8.3772  -16.4199   27.0635 C   0  0  0  0  0  0  0  0  0  0  0  0
    7.0989  -16.0933   26.8285 N   0  0  0  0  0  0  0  0  0  0  0  0
    7.0350  -14.7556   26.7156 C   0  0  0  0  0  0  0  0  0  0  0  0
    5.9877  -13.8836   26.4928 C   0  0  0  0  0  0  0  0  0  0  0  0
    6.1709  -12.5295   26.4358 C   0  0  0  0  0  0  0  0  0  0  0  0
    7.4186  -11.9675   26.5992 C   0  0  0  0  0  0  0  0  0  0  0  0
    8.4636  -12.8303   26.8203 C   0  0  0  0  0  0  0  0  0  0  0  0
    8.3176  -14.2160   26.8846 C   0  0  0  0  0  0  0  0  0  0  0  0
   10.5852  -17.3785   28.6452 C   0  0  0  0  0  0  0  0  0  0  0  0
   10.6292  -16.9705   29.8287 O   0  0  0  0  0  0  0  0  0  0  0  0
    9.9418  -18.6131   28.4578 O   0  0  0  0  0  0  0  0  0  0  0  0
  2  3  1  0
  2  1  1  1
  4  3  1  0
  5  4  2  0
  6  5  1  0
  7  6  1  0
  7 12  2  0
  8  7  1  0
  9  8  2  0
  9 10  1  0
 10 11  2  0
 11 12  1  0
 12  4  1  0
 13  2  1  0
 13 14  2  0
 15 13  1  0
 16 15  1  0
 16 17  1  6
 18 17  1  0
 18 22  1  0
 19 18  2  0
 20 19  1  0
 20 21  1  0
 21 22  2  0
 23 16  1  0
 24 23  2  0
 25 23  1  0
 26 37  1  0
 26 25  1  0
 26 27  1  6
 28 36  1  0
 28 27  1  0
 29 28  2  0
 30 29  1  0
 30 31  1  0
 31 36  2  0
 32 31  1  0
 32 33  2  0
 33 34  1  0
 34 35  2  0
 36 35  1  0
 37 39  1  0
 38 37  2  0
M  END
$$$$
