WHW.pdb
     RDKit          3D

 39 43  0  0  1  0  0  0  0  0999 V2000
   14.3073  -17.2006   23.0567 N   0  0  0  0  0  0  0  0  0  0  0  0
   13.1204  -16.9790   23.8546 C   0  0  1  0  0  0  0  0  0  0  0  0
   13.4008  -15.8273   24.8266 C   0  0  0  0  0  0  0  0  0  0  0  0
   12.7893  -16.1920   26.1234 C   0  0  0  0  0  0  0  0  0  0  0  0
   13.0033  -17.4006   26.7921 C   0  0  0  0  0  0  0  0  0  0  0  0
   12.2867  -17.3903   27.9424 N   0  0  0  0  0  0  0  0  0  0  0  0
   11.6196  -16.2353   28.0518 C   0  0  0  0  0  0  0  0  0  0  0  0
   10.7696  -15.7208   28.9937 C   0  0  0  0  0  0  0  0  0  0  0  0
   10.2280  -14.4641   28.8140 C   0  0  0  0  0  0  0  0  0  0  0  0
   10.5212  -13.6900   27.6898 C   0  0  0  0  0  0  0  0  0  0  0  0
   11.3791  -14.2300   26.7564 C   0  0  0  0  0  0  0  0  0  0  0  0
   11.9303  -15.4877   26.9216 C   0  0  0  0  0  0  0  0  0  0  0  0
   11.9999  -16.6457   22.9722 C   0  0  0  0  0  0  0  0  0  0  0  0
   11.8965  -15.4651   22.5506 O   0  0  0  0  0  0  0  0  0  0  0  0
   11.0340  -17.6017   22.5789 N   0  0  0  0  0  0  0  0  0  0  0  0
    9.6082  -17.3357   22.4616 C   0  0  1  0  0  0  0  0  0  0  0  0
    8.9114  -18.1577   21.4352 C   0  0  0  0  0  0  0  0  0  0  0  0
    7.4416  -17.9060   21.3102 C   0  0  0  0  0  0  0  0  0  0  0  0
    6.3717  -18.7016   21.6115 C   0  0  0  0  0  0  0  0  0  0  0  0
    5.2352  -18.0544   21.3176 N   0  0  0  0  0  0  0  0  0  0  0  0
    5.5713  -16.8546   20.8315 C   0  0  0  0  0  0  0  0  0  0  0  0
    6.9018  -16.7467   20.8193 N   0  0  0  0  0  0  0  0  0  0  0  0
    9.0111  -17.7019   23.7749 C   0  0  0  0  0  0  0  0  0  0  0  0
    9.4503  -18.6624   24.4144 O   0  0  0  0  0  0  0  0  0  0  0  0
    7.9468  -16.9327   24.2578 N   0  0  0  0  0  0  0  0  0  0  0  0
    7.2934  -17.2771   25.5257 C   0  0  1  0  0  0  0  0  0  0  0  0
    6.3462  -16.1444   25.7907 C   0  0  0  0  0  0  0  0  0  0  0  0
    6.9042  -14.8612   25.3724 C   0  0  0  0  0  0  0  0  0  0  0  0
    7.9869  -14.6857   24.5437 C   0  0  0  0  0  0  0  0  0  0  0  0
    8.2487  -13.3793   24.3991 N   0  0  0  0  0  0  0  0  0  0  0  0
    7.3450  -12.7005   25.1263 C   0  0  0  0  0  0  0  0  0  0  0  0
    7.1304  -11.3519   25.3312 C   0  0  0  0  0  0  0  0  0  0  0  0
    6.1109  -10.8909   26.1177 C   0  0  0  0  0  0  0  0  0  0  0  0
    5.2433  -11.7572   26.7471 C   0  0  0  0  0  0  0  0  0  0  0  0
    5.4528  -13.0994   26.5472 C   0  0  0  0  0  0  0  0  0  0  0  0
    6.4808  -13.6084   25.7536 C   0  0  0  0  0  0  0  0  0  0  0  0
    6.7377  -18.6115   25.4685 C   0  0  0  0  0  0  0  0  0  0  0  0
    6.7220  -19.2660   24.4005 O   0  0  0  0  0  0  0  0  0  0  0  0
    6.1840  -19.2641   26.5824 O   0  0  0  0  0  0  0  0  0  0  0  0
  2  3  1  0
  2  1  1  6
  4  3  1  0
  5  4  2  0
  6  5  1  0
  7  6  1  0
  7 12  2  0
  8  7  1  0
  9  8  2  0
  9 10  1  0
 10 11  2  0
 11 12  1  0
 12  4  1  0
 13  2  1  0
 13 14  2  0
 15 13  1  0
 16 15  1  0
 16 17  1  6
 18 17  1  0
 18 22  1  0
 19 18  2  0
 20 19  1  0
 20 21  1  0
 21 22  2  0
 23 16  1  0
 24 23  2  0
 25 23  1  0
 26 37  1  0
 26 25  1  0
 26 27  1  6
 28 36  1  0
 28 27  1  0
 29 28  2  0
 30 29  1  0
 30 31  1  0
 31 36  2  0
 32 31  1  0
 32 33  2  0
 33 34  1  0
 34 35  2  0
 36 35  1  0
 37 39  1  0
 38 37  2  0
M  END
$$$$
