WHW.pdb
     RDKit          3D

 39 43  0  0  1  0  0  0  0  0999 V2000
    8.4320  -17.9333   20.5841 N   0  0  0  0  0  0  0  0  0  0  0  0
    8.7794  -17.3160   21.8461 C   0  0  1  0  0  0  0  0  0  0  0  0
    7.6107  -16.4266   22.2856 C   0  0  0  0  0  0  0  0  0  0  0  0
    7.4000  -15.4239   21.2185 C   0  0  0  0  0  0  0  0  0  0  0  0
    7.0139  -15.7246   19.9092 C   0  0  0  0  0  0  0  0  0  0  0  0
    6.9186  -14.5672   19.2106 N   0  0  0  0  0  0  0  0  0  0  0  0
    7.2237  -13.5322   20.0024 C   0  0  0  0  0  0  0  0  0  0  0  0
    7.2839  -12.1786   19.8065 C   0  0  0  0  0  0  0  0  0  0  0  0
    7.6417  -11.3506   20.8512 C   0  0  0  0  0  0  0  0  0  0  0  0
    7.9484  -11.8532   22.1170 C   0  0  0  0  0  0  0  0  0  0  0  0
    7.8805  -13.2188   22.2887 C   0  0  0  0  0  0  0  0  0  0  0  0
    7.5236  -14.0620   21.2521 C   0  0  0  0  0  0  0  0  0  0  0  0
    9.0334  -18.3601   22.8413 C   0  0  0  0  0  0  0  0  0  0  0  0
    8.6272  -19.5272   22.6062 O   0  0  0  0  0  0  0  0  0  0  0  0
    9.7172  -18.1027   24.0529 N   0  0  0  0  0  0  0  0  0  0  0  0
   11.1340  -17.7858   24.1507 C   0  0  1  0  0  0  0  0  0  0  0  0
   11.6575  -16.9560   23.0316 C   0  0  0  0  0  0  0  0  0  0  0  0
   12.1426  -17.7251   21.8432 C   0  0  0  0  0  0  0  0  0  0  0  0
   12.1749  -19.0706   21.6041 C   0  0  0  0  0  0  0  0  0  0  0  0
   12.7136  -19.2985   20.3981 N   0  0  0  0  0  0  0  0  0  0  0  0
   13.0251  -18.1111   19.8672 C   0  0  0  0  0  0  0  0  0  0  0  0
   12.6871  -17.1474   20.7269 N   0  0  0  0  0  0  0  0  0  0  0  0
   11.2907  -16.9750   25.3889 C   0  0  0  0  0  0  0  0  0  0  0  0
   11.9763  -15.9481   25.3803 O   0  0  0  0  0  0  0  0  0  0  0  0
   10.6444  -17.4075   26.5519 N   0  0  0  0  0  0  0  0  0  0  0  0
   10.9218  -16.7652   27.8417 C   0  0  1  0  0  0  0  0  0  0  0  0
   10.5381  -15.3281   27.6465 C   0  0  0  0  0  0  0  0  0  0  0  0
    9.1947  -15.1960   27.0890 C   0  0  0  0  0  0  0  0  0  0  0  0
    8.3123  -16.2254   26.8619 C   0  0  0  0  0  0  0  0  0  0  0  0
    7.1864  -15.7529   26.3096 N   0  0  0  0  0  0  0  0  0  0  0  0
    7.3263  -14.4230   26.1750 C   0  0  0  0  0  0  0  0  0  0  0  0
    6.4897  -13.4378   25.6892 C   0  0  0  0  0  0  0  0  0  0  0  0
    6.8549  -12.1200   25.6709 C   0  0  0  0  0  0  0  0  0  0  0  0
    8.0843  -11.7104   26.1402 C   0  0  0  0  0  0  0  0  0  0  0  0
    8.9204  -12.6863   26.6238 C   0  0  0  0  0  0  0  0  0  0  0  0
    8.5850  -14.0397   26.6587 C   0  0  0  0  0  0  0  0  0  0  0  0
   10.2810  -17.4858   28.9200 C   0  0  0  0  0  0  0  0  0  0  0  0
    9.4942  -18.4340   28.6935 O   0  0  0  0  0  0  0  0  0  0  0  0
   10.4864  -17.1853   30.2768 O   0  0  0  0  0  0  0  0  0  0  0  0
  2  3  1  0
  2  1  1  6
  4  3  1  0
  5  4  2  0
  6  5  1  0
  7  6  1  0
  7 12  2  0
  8  7  1  0
  9  8  2  0
  9 10  1  0
 10 11  2  0
 11 12  1  0
 12  4  1  0
 13  2  1  0
 13 14  2  0
 15 13  1  0
 16 15  1  0
 16 17  1  6
 18 17  1  0
 18 22  1  0
 19 18  2  0
 20 19  1  0
 20 21  1  0
 21 22  2  0
 23 16  1  0
 24 23  2  0
 25 23  1  0
 26 37  1  0
 26 25  1  0
 26 27  1  6
 28 36  1  0
 28 27  1  0
 29 28  2  0
 30 29  1  0
 30 31  1  0
 31 36  2  0
 32 31  1  0
 32 33  2  0
 33 34  1  0
 34 35  2  0
 36 35  1  0
 37 39  1  0
 38 37  2  0
M  END
$$$$
