WHW.pdb
     RDKit          3D

 39 43  0  0  1  0  0  0  0  0999 V2000
    6.2040  -17.8065   25.1348 N   0  0  0  0  0  0  0  0  0  0  0  0
    6.8843  -16.7123   24.4758 C   0  0  1  0  0  0  0  0  0  0  0  0
    7.5628  -15.8511   25.5471 C   0  0  0  0  0  0  0  0  0  0  0  0
    6.6675  -14.7048   25.8171 C   0  0  0  0  0  0  0  0  0  0  0  0
    5.5913  -14.7285   26.7087 C   0  0  0  0  0  0  0  0  0  0  0  0
    4.9976  -13.5102   26.7014 N   0  0  0  0  0  0  0  0  0  0  0  0
    5.6358  -12.6990   25.8495 C   0  0  0  0  0  0  0  0  0  0  0  0
    5.4540  -11.3963   25.4698 C   0  0  0  0  0  0  0  0  0  0  0  0
    6.3039  -10.8282   24.5424 C   0  0  0  0  0  0  0  0  0  0  0  0
    7.3560  -11.5463   23.9713 C   0  0  0  0  0  0  0  0  0  0  0  0
    7.5180  -12.8554   24.3698 C   0  0  0  0  0  0  0  0  0  0  0  0
    6.6751  -13.4394   25.2979 C   0  0  0  0  0  0  0  0  0  0  0  0
    7.8778  -17.2516   23.5444 C   0  0  0  0  0  0  0  0  0  0  0  0
    8.6261  -18.1837   23.9360 O   0  0  0  0  0  0  0  0  0  0  0  0
    8.0242  -16.7625   22.2249 N   0  0  0  0  0  0  0  0  0  0  0  0
    9.1734  -17.0212   21.3707 C   0  0  1  0  0  0  0  0  0  0  0  0
    9.0908  -16.3965   20.0224 C   0  0  0  0  0  0  0  0  0  0  0  0
   10.1487  -16.8282   19.0562 C   0  0  0  0  0  0  0  0  0  0  0  0
   11.2001  -17.6881   19.2101 C   0  0  0  0  0  0  0  0  0  0  0  0
   11.8951  -17.7555   18.0660 N   0  0  0  0  0  0  0  0  0  0  0  0
   11.2968  -16.9463   17.1851 C   0  0  0  0  0  0  0  0  0  0  0  0
   10.2384  -16.3766   17.7661 N   0  0  0  0  0  0  0  0  0  0  0  0
   10.3423  -16.4026   22.0535 C   0  0  0  0  0  0  0  0  0  0  0  0
   10.4548  -15.1742   22.1092 O   0  0  0  0  0  0  0  0  0  0  0  0
   11.3010  -17.2468   22.6243 N   0  0  0  0  0  0  0  0  0  0  0  0
   12.5015  -16.6902   23.2584 C   0  0  1  0  0  0  0  0  0  0  0  0
   11.9829  -15.7394   24.2964 C   0  0  0  0  0  0  0  0  0  0  0  0
   11.6077  -16.4311   25.5268 C   0  0  0  0  0  0  0  0  0  0  0  0
   11.6697  -17.7880   25.7387 C   0  0  0  0  0  0  0  0  0  0  0  0
   11.2161  -18.0834   26.9647 N   0  0  0  0  0  0  0  0  0  0  0  0
   10.8592  -16.9301   27.5552 C   0  0  0  0  0  0  0  0  0  0  0  0
   10.3505  -16.6361   28.8048 C   0  0  0  0  0  0  0  0  0  0  0  0
   10.0773  -15.3537   29.1935 C   0  0  0  0  0  0  0  0  0  0  0  0
   10.2986  -14.2865   28.3499 C   0  0  0  0  0  0  0  0  0  0  0  0
   10.8038  -14.5734   27.1058 C   0  0  0  0  0  0  0  0  0  0  0  0
   11.0946  -15.8670   26.6724 C   0  0  0  0  0  0  0  0  0  0  0  0
   13.3817  -17.7483   23.7037 C   0  0  0  0  0  0  0  0  0  0  0  0
   14.5312  -17.5014   24.1362 O   0  0  0  0  0  0  0  0  0  0  0  0
   13.0242  -19.1066   23.6863 O   0  0  0  0  0  0  0  0  0  0  0  0
  2  3  1  0
  2  1  1  1
  4  3  1  0
  5  4  2  0
  6  5  1  0
  7  6  1  0
  7 12  2  0
  8  7  1  0
  9  8  2  0
  9 10  1  0
 10 11  2  0
 11 12  1  0
 12  4  1  0
 13  2  1  0
 13 14  2  0
 15 13  1  0
 16 15  1  0
 16 17  1  6
 18 17  1  0
 18 22  1  0
 19 18  2  0
 20 19  1  0
 20 21  1  0
 21 22  2  0
 23 16  1  0
 24 23  2  0
 25 23  1  0
 26 37  1  0
 26 25  1  0
 26 27  1  1
 28 36  1  0
 28 27  1  0
 29 28  2  0
 30 29  1  0
 30 31  1  0
 31 36  2  0
 32 31  1  0
 32 33  2  0
 33 34  1  0
 34 35  2  0
 36 35  1  0
 37 39  1  0
 38 37  2  0
M  END
$$$$
