WHW.pdb
     RDKit          3D

 39 43  0  0  1  0  0  0  0  0999 V2000
    8.8457  -18.3435   18.7434 N   0  0  0  0  0  0  0  0  0  0  0  0
    9.3968  -18.1813   20.0717 C   0  0  1  0  0  0  0  0  0  0  0  0
   10.1469  -16.8454   20.1228 C   0  0  0  0  0  0  0  0  0  0  0  0
    9.1749  -15.7857   19.7752 C   0  0  0  0  0  0  0  0  0  0  0  0
    8.6088  -15.6094   18.5094 C   0  0  0  0  0  0  0  0  0  0  0  0
    7.7682  -14.5474   18.5564 N   0  0  0  0  0  0  0  0  0  0  0  0
    7.7618  -14.0273   19.7896 C   0  0  0  0  0  0  0  0  0  0  0  0
    7.1060  -12.9734   20.3670 C   0  0  0  0  0  0  0  0  0  0  0  0
    7.3177  -12.6819   21.6993 C   0  0  0  0  0  0  0  0  0  0  0  0
    8.1892  -13.4350   22.4882 C   0  0  0  0  0  0  0  0  0  0  0  0
    8.8373  -14.4904   21.8839 C   0  0  0  0  0  0  0  0  0  0  0  0
    8.6361  -14.7956   20.5500 C   0  0  0  0  0  0  0  0  0  0  0  0
    8.3086  -18.1978   21.0519 C   0  0  0  0  0  0  0  0  0  0  0  0
    7.1308  -18.0230   20.6464 O   0  0  0  0  0  0  0  0  0  0  0  0
    8.5354  -18.4027   22.4333 N   0  0  0  0  0  0  0  0  0  0  0  0
    7.5061  -18.3295   23.4593 C   0  0  1  0  0  0  0  0  0  0  0  0
    7.1094  -19.6464   24.0279 C   0  0  0  0  0  0  0  0  0  0  0  0
    7.4060  -20.8285   23.1597 C   0  0  0  0  0  0  0  0  0  0  0  0
    8.5867  -21.4609   22.8866 C   0  0  0  0  0  0  0  0  0  0  0  0
    8.3667  -22.4729   22.0357 N   0  0  0  0  0  0  0  0  0  0  0  0
    7.0573  -22.4907   21.7639 C   0  0  0  0  0  0  0  0  0  0  0  0
    6.4597  -21.5033   22.4346 N   0  0  0  0  0  0  0  0  0  0  0  0
    8.0947  -17.5445   24.5785 C   0  0  0  0  0  0  0  0  0  0  0  0
    7.4376  -17.3253   25.6007 O   0  0  0  0  0  0  0  0  0  0  0  0
    9.4021  -17.0666   24.4386 N   0  0  0  0  0  0  0  0  0  0  0  0
    9.8953  -15.9828   25.2960 C   0  0  1  0  0  0  0  0  0  0  0  0
    8.9460  -15.9480   26.4570 C   0  0  0  0  0  0  0  0  0  0  0  0
    7.7600  -15.1474   26.1645 C   0  0  0  0  0  0  0  0  0  0  0  0
    6.5372  -15.6346   25.7681 C   0  0  0  0  0  0  0  0  0  0  0  0
    5.6867  -14.6219   25.5515 N   0  0  0  0  0  0  0  0  0  0  0  0
    6.3442  -13.4773   25.8041 C   0  0  0  0  0  0  0  0  0  0  0  0
    5.9644  -12.1504   25.7625 C   0  0  0  0  0  0  0  0  0  0  0  0
    6.8252  -11.1389   26.0887 C   0  0  0  0  0  0  0  0  0  0  0  0
    8.1218  -11.3985   26.4772 C   0  0  0  0  0  0  0  0  0  0  0  0
    8.5047  -12.7164   26.5195 C   0  0  0  0  0  0  0  0  0  0  0  0
    7.6572  -13.7754   26.1940 C   0  0  0  0  0  0  0  0  0  0  0  0
   11.3006  -16.1619   25.5889 C   0  0  0  0  0  0  0  0  0  0  0  0
   11.9044  -17.2121   25.2699 O   0  0  0  0  0  0  0  0  0  0  0  0
   12.0818  -15.1929   26.2401 O   0  0  0  0  0  0  0  0  0  0  0  0
  2  3  1  0
  2  1  1  6
  4  3  1  0
  5  4  2  0
  6  5  1  0
  7  6  1  0
  7 12  2  0
  8  7  1  0
  9  8  2  0
  9 10  1  0
 10 11  2  0
 11 12  1  0
 12  4  1  0
 13  2  1  0
 13 14  2  0
 15 13  1  0
 16 15  1  0
 16 17  1  1
 18 17  1  0
 18 22  1  0
 19 18  2  0
 20 19  1  0
 20 21  1  0
 21 22  2  0
 23 16  1  0
 24 23  2  0
 25 23  1  0
 26 37  1  0
 26 25  1  0
 26 27  1  1
 28 36  1  0
 28 27  1  0
 29 28  2  0
 30 29  1  0
 30 31  1  0
 31 36  2  0
 32 31  1  0
 32 33  2  0
 33 34  1  0
 34 35  2  0
 36 35  1  0
 37 39  1  0
 38 37  2  0
M  END
$$$$
