WHW.pdb
     RDKit          3D

 39 43  0  0  1  0  0  0  0  0999 V2000
    9.7749  -15.5506   22.8950 N   0  0  0  0  0  0  0  0  0  0  0  0
    8.8214  -16.4408   23.5219 C   0  0  1  0  0  0  0  0  0  0  0  0
    7.5980  -16.5594   22.6059 C   0  0  0  0  0  0  0  0  0  0  0  0
    7.3042  -15.2035   22.0924 C   0  0  0  0  0  0  0  0  0  0  0  0
    7.2535  -14.8591   20.7386 C   0  0  0  0  0  0  0  0  0  0  0  0
    6.9606  -13.5396   20.6395 N   0  0  0  0  0  0  0  0  0  0  0  0
    6.8191  -13.0126   21.8615 C   0  0  0  0  0  0  0  0  0  0  0  0
    6.5299  -11.7556   22.3205 C   0  0  0  0  0  0  0  0  0  0  0  0
    6.4521  -11.5236   23.6788 C   0  0  0  0  0  0  0  0  0  0  0  0
    6.6612  -12.5402   24.6125 C   0  0  0  0  0  0  0  0  0  0  0  0
    6.9508  -13.7963   24.1254 C   0  0  0  0  0  0  0  0  0  0  0  0
    7.0324  -14.0453   22.7674 C   0  0  0  0  0  0  0  0  0  0  0  0
    9.4431  -17.7519   23.7216 C   0  0  0  0  0  0  0  0  0  0  0  0
    8.7487  -18.7828   23.5289 O   0  0  0  0  0  0  0  0  0  0  0  0
   10.7922  -17.8983   24.1220 N   0  0  0  0  0  0  0  0  0  0  0  0
   11.6299  -19.0437   23.7998 C   0  0  1  0  0  0  0  0  0  0  0  0
   12.5581  -18.8249   22.6571 C   0  0  0  0  0  0  0  0  0  0  0  0
   11.8972  -18.6525   21.3258 C   0  0  0  0  0  0  0  0  0  0  0  0
   11.9319  -17.6113   20.4408 C   0  0  0  0  0  0  0  0  0  0  0  0
   11.1676  -17.9004   19.3783 N   0  0  0  0  0  0  0  0  0  0  0  0
   10.6460  -19.1156   19.5785 C   0  0  0  0  0  0  0  0  0  0  0  0
   11.0759  -19.5864   20.7514 N   0  0  0  0  0  0  0  0  0  0  0  0
   12.4809  -19.2820   24.9974 C   0  0  0  0  0  0  0  0  0  0  0  0
   13.7085  -19.3550   24.8867 O   0  0  0  0  0  0  0  0  0  0  0  0
   11.8538  -19.4202   26.2405 N   0  0  0  0  0  0  0  0  0  0  0  0
   12.1469  -18.4837   27.3314 C   0  0  1  0  0  0  0  0  0  0  0  0
   11.9212  -17.1229   26.7416 C   0  0  0  0  0  0  0  0  0  0  0  0
   10.9515  -16.3507   27.5139 C   0  0  0  0  0  0  0  0  0  0  0  0
   10.3775  -16.7368   28.7018 C   0  0  0  0  0  0  0  0  0  0  0  0
    9.5069  -15.8059   29.1161 N   0  0  0  0  0  0  0  0  0  0  0  0
    9.5085  -14.8148   28.2084 C   0  0  0  0  0  0  0  0  0  0  0  0
    8.8292  -13.6151   28.1306 C   0  0  0  0  0  0  0  0  0  0  0  0
    9.0155  -12.7419   27.0947 C   0  0  0  0  0  0  0  0  0  0  0  0
    9.8967  -13.0203   26.0722 C   0  0  0  0  0  0  0  0  0  0  0  0
   10.5743  -14.2123   26.1444 C   0  0  0  0  0  0  0  0  0  0  0  0
   10.4115  -15.1289   27.1832 C   0  0  0  0  0  0  0  0  0  0  0  0
   11.3948  -18.8293   28.5177 C   0  0  0  0  0  0  0  0  0  0  0  0
   11.7014  -18.3682   29.6414 O   0  0  0  0  0  0  0  0  0  0  0  0
   10.2852  -19.6906   28.5031 O   0  0  0  0  0  0  0  0  0  0  0  0
  2  3  1  0
  2  1  1  6
  4  3  1  0
  5  4  2  0
  6  5  1  0
  7  6  1  0
  7 12  2  0
  8  7  1  0
  9  8  2  0
  9 10  1  0
 10 11  2  0
 11 12  1  0
 12  4  1  0
 13  2  1  0
 13 14  2  0
 15 13  1  0
 16 15  1  0
 16 17  1  6
 18 17  1  0
 18 22  1  0
 19 18  2  0
 20 19  1  0
 20 21  1  0
 21 22  2  0
 23 16  1  0
 24 23  2  0
 25 23  1  0
 26 37  1  0
 26 25  1  0
 26 27  1  6
 28 36  1  0
 28 27  1  0
 29 28  2  0
 30 29  1  0
 30 31  1  0
 31 36  2  0
 32 31  1  0
 32 33  2  0
 33 34  1  0
 34 35  2  0
 36 35  1  0
 37 39  1  0
 38 37  2  0
M  END
$$$$
