WHW.pdb
     RDKit          3D

 39 43  0  0  1  0  0  0  0  0999 V2000
    9.4635  -16.7514   20.6609 N   0  0  0  0  0  0  0  0  0  0  0  0
    8.5479  -16.2426   21.6597 C   0  0  1  0  0  0  0  0  0  0  0  0
    7.1381  -16.2271   21.0581 C   0  0  0  0  0  0  0  0  0  0  0  0
    7.1586  -15.2793   19.9223 C   0  0  0  0  0  0  0  0  0  0  0  0
    6.8085  -15.6041   18.6087 C   0  0  0  0  0  0  0  0  0  0  0  0
    6.9456  -14.4970   17.8391 N   0  0  0  0  0  0  0  0  0  0  0  0
    7.3669  -13.4717   18.5890 C   0  0  0  0  0  0  0  0  0  0  0  0
    7.6587  -12.1615   18.3196 C   0  0  0  0  0  0  0  0  0  0  0  0
    8.0830  -11.3312   19.3372 C   0  0  0  0  0  0  0  0  0  0  0  0
    8.2265  -11.7880   20.6486 C   0  0  0  0  0  0  0  0  0  0  0  0
    7.9267  -13.1104   20.8939 C   0  0  0  0  0  0  0  0  0  0  0  0
    7.5004  -13.9554   19.8855 C   0  0  0  0  0  0  0  0  0  0  0  0
    8.5931  -17.1064   22.8416 C   0  0  0  0  0  0  0  0  0  0  0  0
    7.5314  -17.2968   23.4887 O   0  0  0  0  0  0  0  0  0  0  0  0
    9.7845  -17.7317   23.2788 N   0  0  0  0  0  0  0  0  0  0  0  0
    9.8771  -18.6234   24.4250 C   0  0  1  0  0  0  0  0  0  0  0  0
   10.8677  -19.7232   24.2703 C   0  0  0  0  0  0  0  0  0  0  0  0
   10.9130  -20.7013   25.4018 C   0  0  0  0  0  0  0  0  0  0  0  0
    9.9732  -21.5840   25.8561 C   0  0  0  0  0  0  0  0  0  0  0  0
   10.4580  -22.2503   26.9132 N   0  0  0  0  0  0  0  0  0  0  0  0
   11.6974  -21.8000   27.1369 C   0  0  0  0  0  0  0  0  0  0  0  0
   11.9901  -20.8625   26.2327 N   0  0  0  0  0  0  0  0  0  0  0  0
   10.3475  -17.7860   25.5620 C   0  0  0  0  0  0  0  0  0  0  0  0
   11.3628  -17.0925   25.4486 O   0  0  0  0  0  0  0  0  0  0  0  0
    9.6120  -17.8086   26.7519 N   0  0  0  0  0  0  0  0  0  0  0  0
   10.1510  -17.1991   27.9730 C   0  0  1  0  0  0  0  0  0  0  0  0
    8.9504  -16.6753   28.7042 C   0  0  0  0  0  0  0  0  0  0  0  0
    8.1811  -15.7418   27.8857 C   0  0  0  0  0  0  0  0  0  0  0  0
    7.1984  -16.0806   26.9862 C   0  0  0  0  0  0  0  0  0  0  0  0
    6.7271  -14.9802   26.3835 N   0  0  0  0  0  0  0  0  0  0  0  0
    7.3939  -13.9257   26.8830 C   0  0  0  0  0  0  0  0  0  0  0  0
    7.3133  -12.5681   26.6438 C   0  0  0  0  0  0  0  0  0  0  0  0
    8.1022  -11.6671   27.3044 C   0  0  0  0  0  0  0  0  0  0  0  0
    9.0213  -12.0749   28.2469 C   0  0  0  0  0  0  0  0  0  0  0  0
    9.1059  -13.4239   28.4880 C   0  0  0  0  0  0  0  0  0  0  0  0
    8.3200  -14.3736   27.8351 C   0  0  0  0  0  0  0  0  0  0  0  0
   11.0053  -18.1314   28.6756 C   0  0  0  0  0  0  0  0  0  0  0  0
   11.0176  -19.3501   28.3858 O   0  0  0  0  0  0  0  0  0  0  0  0
   11.8695  -17.7515   29.7158 O   0  0  0  0  0  0  0  0  0  0  0  0
  2  3  1  0
  2  1  1  6
  4  3  1  0
  5  4  2  0
  6  5  1  0
  7  6  1  0
  7 12  2  0
  8  7  1  0
  9  8  2  0
  9 10  1  0
 10 11  2  0
 11 12  1  0
 12  4  1  0
 13  2  1  0
 13 14  2  0
 15 13  1  0
 16 15  1  0
 16 17  1  6
 18 17  1  0
 18 22  1  0
 19 18  2  0
 20 19  1  0
 20 21  1  0
 21 22  2  0
 23 16  1  0
 24 23  2  0
 25 23  1  0
 26 37  1  0
 26 25  1  0
 26 27  1  1
 28 36  1  0
 28 27  1  0
 29 28  2  0
 30 29  1  0
 30 31  1  0
 31 36  2  0
 32 31  1  0
 32 33  2  0
 33 34  1  0
 34 35  2  0
 36 35  1  0
 37 39  1  0
 38 37  2  0
M  END
$$$$
