WHW.pdb
     RDKit          3D

 39 43  0  0  1  0  0  0  0  0999 V2000
    6.2385  -17.4347   23.3660 N   0  0  0  0  0  0  0  0  0  0  0  0
    7.0955  -16.2714   23.4492 C   0  0  1  0  0  0  0  0  0  0  0  0
    7.5486  -16.1094   24.9047 C   0  0  0  0  0  0  0  0  0  0  0  0
    6.6405  -15.1280   25.5377 C   0  0  0  0  0  0  0  0  0  0  0  0
    5.4672  -15.4561   26.2228 C   0  0  0  0  0  0  0  0  0  0  0  0
    4.8919  -14.3121   26.6664 N   0  0  0  0  0  0  0  0  0  0  0  0
    5.6343  -13.2596   26.3028 C   0  0  0  0  0  0  0  0  0  0  0  0
    5.5125  -11.9086   26.4878 C   0  0  0  0  0  0  0  0  0  0  0  0
    6.4713  -11.0580   25.9757 C   0  0  0  0  0  0  0  0  0  0  0  0
    7.5751  -11.5348   25.2664 C   0  0  0  0  0  0  0  0  0  0  0  0
    7.6750  -12.8984   25.0937 C   0  0  0  0  0  0  0  0  0  0  0  0
    6.7228  -13.7640   25.6005 C   0  0  0  0  0  0  0  0  0  0  0  0
    8.2510  -16.4584   22.5689 C   0  0  0  0  0  0  0  0  0  0  0  0
    8.8493  -17.5647   22.5879 O   0  0  0  0  0  0  0  0  0  0  0  0
    8.7155  -15.4420   21.7012 N   0  0  0  0  0  0  0  0  0  0  0  0
    9.9740  -15.4895   20.9722 C   0  0  1  0  0  0  0  0  0  0  0  0
   10.1601  -14.3837   19.9935 C   0  0  0  0  0  0  0  0  0  0  0  0
    9.1055  -14.2868   18.9364 C   0  0  0  0  0  0  0  0  0  0  0  0
    8.0919  -13.3854   18.7677 C   0  0  0  0  0  0  0  0  0  0  0  0
    7.3824  -13.7077   17.6770 N   0  0  0  0  0  0  0  0  0  0  0  0
    7.9343  -14.8061   17.1499 C   0  0  0  0  0  0  0  0  0  0  0  0
    8.9778  -15.1712   17.8981 N   0  0  0  0  0  0  0  0  0  0  0  0
   11.0473  -15.3378   21.9921 C   0  0  0  0  0  0  0  0  0  0  0  0
   11.3131  -14.2258   22.4584 O   0  0  0  0  0  0  0  0  0  0  0  0
   11.7399  -16.4823   22.4022 N   0  0  0  0  0  0  0  0  0  0  0  0
   12.0787  -16.6820   23.8158 C   0  0  1  0  0  0  0  0  0  0  0  0
   10.8135  -16.3762   24.5618 C   0  0  0  0  0  0  0  0  0  0  0  0
   11.0068  -16.4419   26.0079 C   0  0  0  0  0  0  0  0  0  0  0  0
   10.9377  -17.5781   26.7787 C   0  0  0  0  0  0  0  0  0  0  0  0
   11.1296  -17.2710   28.0690 N   0  0  0  0  0  0  0  0  0  0  0  0
   11.3242  -15.9435   28.1467 C   0  0  0  0  0  0  0  0  0  0  0  0
   11.5811  -15.0951   29.2055 C   0  0  0  0  0  0  0  0  0  0  0  0
   11.7653  -13.7514   29.0300 C   0  0  0  0  0  0  0  0  0  0  0  0
   11.7028  -13.1766   27.7789 C   0  0  0  0  0  0  0  0  0  0  0  0
   11.4468  -14.0158   26.7227 C   0  0  0  0  0  0  0  0  0  0  0  0
   11.2528  -15.3902   26.8608 C   0  0  0  0  0  0  0  0  0  0  0  0
   12.6747  -17.9842   24.0196 C   0  0  0  0  0  0  0  0  0  0  0  0
   13.4895  -18.1902   24.9486 O   0  0  0  0  0  0  0  0  0  0  0  0
   12.3927  -19.0963   23.2090 O   0  0  0  0  0  0  0  0  0  0  0  0
  2  3  1  0
  2  1  1  1
  4  3  1  0
  5  4  2  0
  6  5  1  0
  7  6  1  0
  7 12  2  0
  8  7  1  0
  9  8  2  0
  9 10  1  0
 10 11  2  0
 11 12  1  0
 12  4  1  0
 13  2  1  0
 13 14  2  0
 15 13  1  0
 16 15  1  0
 16 17  1  6
 18 17  1  0
 18 22  1  0
 19 18  2  0
 20 19  1  0
 20 21  1  0
 21 22  2  0
 23 16  1  0
 24 23  2  0
 25 23  1  0
 26 37  1  0
 26 25  1  0
 26 27  1  1
 28 36  1  0
 28 27  1  0
 29 28  2  0
 30 29  1  0
 30 31  1  0
 31 36  2  0
 32 31  1  0
 32 33  2  0
 33 34  1  0
 34 35  2  0
 36 35  1  0
 37 39  1  0
 38 37  2  0
M  END
$$$$
