WHW.pdb
     RDKit          3D

 39 43  0  0  1  0  0  0  0  0999 V2000
    8.4499  -17.6461   20.1484 N   0  0  0  0  0  0  0  0  0  0  0  0
    8.8393  -16.7326   21.2012 C   0  0  1  0  0  0  0  0  0  0  0  0
    7.5893  -15.9834   21.6764 C   0  0  0  0  0  0  0  0  0  0  0  0
    7.2072  -15.0444   20.5989 C   0  0  0  0  0  0  0  0  0  0  0  0
    6.2721  -15.3207   19.5974 C   0  0  0  0  0  0  0  0  0  0  0  0
    6.1753  -14.2389   18.7868 N   0  0  0  0  0  0  0  0  0  0  0  0
    7.0011  -13.2761   19.2136 C   0  0  0  0  0  0  0  0  0  0  0  0
    7.2885  -12.0130   18.7705 C   0  0  0  0  0  0  0  0  0  0  0  0
    8.2144  -11.2442   19.4462 C   0  0  0  0  0  0  0  0  0  0  0  0
    8.8764  -11.7171   20.5806 C   0  0  0  0  0  0  0  0  0  0  0  0
    8.5698  -12.9913   21.0066 C   0  0  0  0  0  0  0  0  0  0  0  0
    7.6445  -13.7743   20.3408 C   0  0  0  0  0  0  0  0  0  0  0  0
    9.4343  -17.4912   22.3038 C   0  0  0  0  0  0  0  0  0  0  0  0
    8.7561  -18.4043   22.8410 O   0  0  0  0  0  0  0  0  0  0  0  0
   10.7402  -17.2338   22.7835 N   0  0  0  0  0  0  0  0  0  0  0  0
   11.3528  -17.9116   23.9161 C   0  0  1  0  0  0  0  0  0  0  0  0
   12.8323  -18.0456   23.8260 C   0  0  0  0  0  0  0  0  0  0  0  0
   13.3234  -18.9506   22.7403 C   0  0  0  0  0  0  0  0  0  0  0  0
   12.7638  -20.0704   22.1913 C   0  0  0  0  0  0  0  0  0  0  0  0
   13.5795  -20.5630   21.2486 N   0  0  0  0  0  0  0  0  0  0  0  0
   14.6535  -19.7678   21.1924 C   0  0  0  0  0  0  0  0  0  0  0  0
   14.5165  -18.7869   22.0875 N   0  0  0  0  0  0  0  0  0  0  0  0
   11.0759  -17.0602   25.1052 C   0  0  0  0  0  0  0  0  0  0  0  0
   11.3665  -15.8602   25.0952 O   0  0  0  0  0  0  0  0  0  0  0  0
   10.4828  -17.6551   26.2240 N   0  0  0  0  0  0  0  0  0  0  0  0
   10.3038  -16.8941   27.4658 C   0  0  1  0  0  0  0  0  0  0  0  0
    8.8468  -17.0323   27.7953 C   0  0  0  0  0  0  0  0  0  0  0  0
    8.0172  -16.1677   26.9602 C   0  0  0  0  0  0  0  0  0  0  0  0
    7.0220  -16.5849   26.1086 C   0  0  0  0  0  0  0  0  0  0  0  0
    6.4900  -15.5325   25.4719 N   0  0  0  0  0  0  0  0  0  0  0  0
    7.1294  -14.4313   25.9017 C   0  0  0  0  0  0  0  0  0  0  0  0
    6.9884  -13.0903   25.6039 C   0  0  0  0  0  0  0  0  0  0  0  0
    7.7606  -12.1303   26.1976 C   0  0  0  0  0  0  0  0  0  0  0  0
    8.7230  -12.4587   27.1280 C   0  0  0  0  0  0  0  0  0  0  0  0
    8.8678  -13.7909   27.4271 C   0  0  0  0  0  0  0  0  0  0  0  0
    8.1006  -14.7990   26.8433 C   0  0  0  0  0  0  0  0  0  0  0  0
   11.2571  -17.3188   28.4675 C   0  0  0  0  0  0  0  0  0  0  0  0
   11.9480  -18.3524   28.3134 O   0  0  0  0  0  0  0  0  0  0  0  0
   11.4782  -16.6204   29.6661 O   0  0  0  0  0  0  0  0  0  0  0  0
  2  3  1  0
  2  1  1  6
  4  3  1  0
  5  4  2  0
  6  5  1  0
  7  6  1  0
  7 12  2  0
  8  7  1  0
  9  8  2  0
  9 10  1  0
 10 11  2  0
 11 12  1  0
 12  4  1  0
 13  2  1  0
 13 14  2  0
 15 13  1  0
 16 15  1  0
 16 17  1  6
 18 17  1  0
 18 22  1  0
 19 18  2  0
 20 19  1  0
 20 21  1  0
 21 22  2  0
 23 16  1  0
 24 23  2  0
 25 23  1  0
 26 37  1  0
 26 25  1  0
 26 27  1  1
 28 36  1  0
 28 27  1  0
 29 28  2  0
 30 29  1  0
 30 31  1  0
 31 36  2  0
 32 31  1  0
 32 33  2  0
 33 34  1  0
 34 35  2  0
 36 35  1  0
 37 39  1  0
 38 37  2  0
M  END
$$$$
