WHW.pdb
     RDKit          3D

 39 43  0  0  1  0  0  0  0  0999 V2000
    9.1244  -16.4888   20.2657 N   0  0  0  0  0  0  0  0  0  0  0  0
    8.9493  -16.1116   21.6519 C   0  0  1  0  0  0  0  0  0  0  0  0
    7.4796  -16.3300   22.0291 C   0  0  0  0  0  0  0  0  0  0  0  0
    7.1880  -15.4454   23.1785 C   0  0  0  0  0  0  0  0  0  0  0  0
    6.6501  -15.8736   24.3955 C   0  0  0  0  0  0  0  0  0  0  0  0
    6.5174  -14.7991   25.2107 N   0  0  0  0  0  0  0  0  0  0  0  0
    6.9427  -13.6967   24.5822 C   0  0  0  0  0  0  0  0  0  0  0  0
    7.0257  -12.3779   24.9400 C   0  0  0  0  0  0  0  0  0  0  0  0
    7.5235  -11.4548   24.0428 C   0  0  0  0  0  0  0  0  0  0  0  0
    7.9506  -11.8252   22.7663 C   0  0  0  0  0  0  0  0  0  0  0  0
    7.8569  -13.1583   22.4302 C   0  0  0  0  0  0  0  0  0  0  0  0
    7.3604  -14.0957   23.3177 C   0  0  0  0  0  0  0  0  0  0  0  0
    9.8232  -16.9347   22.4910 C   0  0  0  0  0  0  0  0  0  0  0  0
    9.2982  -17.7906   23.2486 O   0  0  0  0  0  0  0  0  0  0  0  0
   11.2316  -16.8011   22.4788 N   0  0  0  0  0  0  0  0  0  0  0  0
   12.1435  -17.5910   23.2923 C   0  0  1  0  0  0  0  0  0  0  0  0
   13.5164  -17.7166   22.7318 C   0  0  0  0  0  0  0  0  0  0  0  0
   13.6065  -18.4479   21.4294 C   0  0  0  0  0  0  0  0  0  0  0  0
   13.8919  -17.9969   20.1710 C   0  0  0  0  0  0  0  0  0  0  0  0
   13.8443  -19.0202   19.3066 N   0  0  0  0  0  0  0  0  0  0  0  0
   13.5308  -20.1185   20.0025 C   0  0  0  0  0  0  0  0  0  0  0  0
   13.3829  -19.7920   21.2884 N   0  0  0  0  0  0  0  0  0  0  0  0
   12.2781  -16.8646   24.5844 C   0  0  0  0  0  0  0  0  0  0  0  0
   12.8093  -15.7506   24.6221 O   0  0  0  0  0  0  0  0  0  0  0  0
   11.7898  -17.4765   25.7440 N   0  0  0  0  0  0  0  0  0  0  0  0
   12.0261  -16.8738   27.0608 C   0  0  1  0  0  0  0  0  0  0  0  0
   11.4098  -15.5087   26.9757 C   0  0  0  0  0  0  0  0  0  0  0  0
    9.9512  -15.5680   27.0205 C   0  0  0  0  0  0  0  0  0  0  0  0
    9.1968  -16.7023   27.2051 C   0  0  0  0  0  0  0  0  0  0  0  0
    7.8920  -16.4001   27.1559 N   0  0  0  0  0  0  0  0  0  0  0  0
    7.7886  -15.0774   26.9415 C   0  0  0  0  0  0  0  0  0  0  0  0
    6.7049  -14.2304   26.8200 C   0  0  0  0  0  0  0  0  0  0  0  0
    6.8541  -12.8859   26.6186 C   0  0  0  0  0  0  0  0  0  0  0  0
    8.1024  -12.3091   26.5267 C   0  0  0  0  0  0  0  0  0  0  0  0
    9.1835  -13.1471   26.6461 C   0  0  0  0  0  0  0  0  0  0  0  0
    9.0727  -14.5224   26.8513 C   0  0  0  0  0  0  0  0  0  0  0  0
   11.5628  -17.7500   28.1146 C   0  0  0  0  0  0  0  0  0  0  0  0
   10.8683  -18.7618   27.8630 O   0  0  0  0  0  0  0  0  0  0  0  0
   11.8492  -17.5394   29.4736 O   0  0  0  0  0  0  0  0  0  0  0  0
  2  3  1  0
  2  1  1  6
  4  3  1  0
  5  4  2  0
  6  5  1  0
  7  6  1  0
  7 12  2  0
  8  7  1  0
  9  8  2  0
  9 10  1  0
 10 11  2  0
 11 12  1  0
 12  4  1  0
 13  2  1  0
 13 14  2  0
 15 13  1  0
 16 15  1  0
 16 17  1  6
 18 17  1  0
 18 22  1  0
 19 18  2  0
 20 19  1  0
 20 21  1  0
 21 22  2  0
 23 16  1  0
 24 23  2  0
 25 23  1  0
 26 37  1  0
 26 25  1  0
 26 27  1  6
 28 36  1  0
 28 27  1  0
 29 28  2  0
 30 29  1  0
 30 31  1  0
 31 36  2  0
 32 31  1  0
 32 33  2  0
 33 34  1  0
 34 35  2  0
 36 35  1  0
 37 39  1  0
 38 37  2  0
M  END
$$$$
