WHW.pdb
     RDKit          3D

 39 43  0  0  1  0  0  0  0  0999 V2000
    7.1798  -17.8794   21.3464 N   0  0  0  0  0  0  0  0  0  0  0  0
    8.1381  -16.8999   21.8119 C   0  0  1  0  0  0  0  0  0  0  0  0
    7.3672  -15.7146   22.4039 C   0  0  0  0  0  0  0  0  0  0  0  0
    7.0820  -14.7806   21.2926 C   0  0  0  0  0  0  0  0  0  0  0  0
    5.8294  -14.6135   20.6954 C   0  0  0  0  0  0  0  0  0  0  0  0
    5.9385  -13.6824   19.7166 N   0  0  0  0  0  0  0  0  0  0  0  0
    7.1992  -13.2384   19.6505 C   0  0  0  0  0  0  0  0  0  0  0  0
    7.8372  -12.3202   18.8605 C   0  0  0  0  0  0  0  0  0  0  0  0
    9.1838  -12.0781   19.0423 C   0  0  0  0  0  0  0  0  0  0  0  0
    9.9268  -12.7465   20.0171 C   0  0  0  0  0  0  0  0  0  0  0  0
    9.2619  -13.6657   20.7993 C   0  0  0  0  0  0  0  0  0  0  0  0
    7.9130  -13.9198   20.6298 C   0  0  0  0  0  0  0  0  0  0  0  0
    8.9998  -17.5110   22.8264 C   0  0  0  0  0  0  0  0  0  0  0  0
    8.4982  -18.3544   23.6133 O   0  0  0  0  0  0  0  0  0  0  0  0
   10.3713  -17.1869   22.9514 N   0  0  0  0  0  0  0  0  0  0  0  0
   11.2636  -17.7438   23.9570 C   0  0  1  0  0  0  0  0  0  0  0  0
   12.7111  -17.6015   23.6417 C   0  0  0  0  0  0  0  0  0  0  0  0
   13.1716  -18.3399   22.4244 C   0  0  0  0  0  0  0  0  0  0  0  0
   12.8227  -19.5704   21.9423 C   0  0  0  0  0  0  0  0  0  0  0  0
   13.5099  -19.8233   20.8197 N   0  0  0  0  0  0  0  0  0  0  0  0
   14.2937  -18.7658   20.5826 C   0  0  0  0  0  0  0  0  0  0  0  0
   14.1029  -17.8583   21.5428 N   0  0  0  0  0  0  0  0  0  0  0  0
   11.0219  -16.9625   25.2006 C   0  0  0  0  0  0  0  0  0  0  0  0
   11.4399  -15.8051   25.3021 O   0  0  0  0  0  0  0  0  0  0  0  0
   10.3142  -17.5734   26.2415 N   0  0  0  0  0  0  0  0  0  0  0  0
   10.2982  -16.9776   27.5823 C   0  0  1  0  0  0  0  0  0  0  0  0
    8.8471  -16.9114   27.9569 C   0  0  0  0  0  0  0  0  0  0  0  0
    8.0968  -16.0284   27.0678 C   0  0  0  0  0  0  0  0  0  0  0  0
    7.1350  -16.4205   26.1673 C   0  0  0  0  0  0  0  0  0  0  0  0
    6.6778  -15.3579   25.4906 N   0  0  0  0  0  0  0  0  0  0  0  0
    7.3328  -14.2751   25.9427 C   0  0  0  0  0  0  0  0  0  0  0  0
    7.2578  -12.9339   25.6228 C   0  0  0  0  0  0  0  0  0  0  0  0
    8.0312  -11.9948   26.2475 C   0  0  0  0  0  0  0  0  0  0  0  0
    8.9285  -12.3454   27.2330 C   0  0  0  0  0  0  0  0  0  0  0  0
    9.0075  -13.6780   27.5545 C   0  0  0  0  0  0  0  0  0  0  0  0
    8.2369  -14.6653   26.9404 C   0  0  0  0  0  0  0  0  0  0  0  0
   11.1843  -17.6962   28.4717 C   0  0  0  0  0  0  0  0  0  0  0  0
   11.7336  -18.7659   28.1205 O   0  0  0  0  0  0  0  0  0  0  0  0
   11.4918  -17.2602   29.7712 O   0  0  0  0  0  0  0  0  0  0  0  0
  2  3  1  0
  2  1  1  1
  4  3  1  0
  5  4  2  0
  6  5  1  0
  7  6  1  0
  7 12  2  0
  8  7  1  0
  9  8  2  0
  9 10  1  0
 10 11  2  0
 11 12  1  0
 12  4  1  0
 13  2  1  0
 13 14  2  0
 15 13  1  0
 16 15  1  0
 16 17  1  6
 18 17  1  0
 18 22  1  0
 19 18  2  0
 20 19  1  0
 20 21  1  0
 21 22  2  0
 23 16  1  0
 24 23  2  0
 25 23  1  0
 26 37  1  0
 26 25  1  0
 26 27  1  1
 28 36  1  0
 28 27  1  0
 29 28  2  0
 30 29  1  0
 30 31  1  0
 31 36  2  0
 32 31  1  0
 32 33  2  0
 33 34  1  0
 34 35  2  0
 36 35  1  0
 37 39  1  0
 38 37  2  0
M  END
$$$$
