WHW.pdb
     RDKit          3D

 39 43  0  0  1  0  0  0  0  0999 V2000
   13.9105  -18.3112   24.4272 N   0  0  0  0  0  0  0  0  0  0  0  0
   12.7376  -17.4737   24.5592 C   0  0  1  0  0  0  0  0  0  0  0  0
   13.1027  -16.2663   25.4301 C   0  0  0  0  0  0  0  0  0  0  0  0
   12.4735  -16.4758   26.7526 C   0  0  0  0  0  0  0  0  0  0  0  0
   12.3377  -17.7168   27.3813 C   0  0  0  0  0  0  0  0  0  0  0  0
   11.7169  -17.5319   28.5718 N   0  0  0  0  0  0  0  0  0  0  0  0
   11.4442  -16.2332   28.7451 C   0  0  0  0  0  0  0  0  0  0  0  0
   10.8416  -15.5199   29.7463 C   0  0  0  0  0  0  0  0  0  0  0  0
   10.7051  -14.1517   29.6259 C   0  0  0  0  0  0  0  0  0  0  0  0
   11.1665  -13.4619   28.5034 C   0  0  0  0  0  0  0  0  0  0  0  0
   11.7692  -14.2023   27.5096 C   0  0  0  0  0  0  0  0  0  0  0  0
   11.9137  -15.5737   27.6149 C   0  0  0  0  0  0  0  0  0  0  0  0
   12.3036  -17.0367   23.2303 C   0  0  0  0  0  0  0  0  0  0  0  0
   12.9891  -16.1709   22.6279 O   0  0  0  0  0  0  0  0  0  0  0  0
   11.1450  -17.5525   22.6033 N   0  0  0  0  0  0  0  0  0  0  0  0
   10.1922  -16.7563   21.8446 C   0  0  1  0  0  0  0  0  0  0  0  0
    9.5523  -17.4778   20.7111 C   0  0  0  0  0  0  0  0  0  0  0  0
    8.6278  -16.6520   19.8731 C   0  0  0  0  0  0  0  0  0  0  0  0
    8.8728  -15.5651   19.0811 C   0  0  0  0  0  0  0  0  0  0  0  0
    7.7258  -15.1447   18.5296 N   0  0  0  0  0  0  0  0  0  0  0  0
    6.7525  -15.9531   18.9633 C   0  0  0  0  0  0  0  0  0  0  0  0
    7.2790  -16.8710   19.7771 N   0  0  0  0  0  0  0  0  0  0  0  0
    9.1008  -16.4047   22.7934 C   0  0  0  0  0  0  0  0  0  0  0  0
    8.1509  -15.7085   22.4223 O   0  0  0  0  0  0  0  0  0  0  0  0
    9.1831  -16.8816   24.1061 N   0  0  0  0  0  0  0  0  0  0  0  0
    8.0945  -16.6346   25.0586 C   0  0  1  0  0  0  0  0  0  0  0  0
    6.9137  -16.2709   24.2077 C   0  0  0  0  0  0  0  0  0  0  0  0
    6.8747  -14.8402   23.9166 C   0  0  0  0  0  0  0  0  0  0  0  0
    7.1310  -14.2594   22.6972 C   0  0  0  0  0  0  0  0  0  0  0  0
    7.0415  -12.9258   22.7949 N   0  0  0  0  0  0  0  0  0  0  0  0
    6.7280  -12.6314   24.0682 C   0  0  0  0  0  0  0  0  0  0  0  0
    6.4983  -11.4382   24.7241 C   0  0  0  0  0  0  0  0  0  0  0  0
    6.1681  -11.3914   26.0505 C   0  0  0  0  0  0  0  0  0  0  0  0
    6.0480  -12.5416   26.8002 C   0  0  0  0  0  0  0  0  0  0  0  0
    6.2761  -13.7308   26.1529 C   0  0  0  0  0  0  0  0  0  0  0  0
    6.6153  -13.8199   24.8028 C   0  0  0  0  0  0  0  0  0  0  0  0
    7.9445  -17.7523   25.9646 C   0  0  0  0  0  0  0  0  0  0  0  0
    7.0230  -17.7850   26.8126 O   0  0  0  0  0  0  0  0  0  0  0  0
    8.8021  -18.8649   25.9645 O   0  0  0  0  0  0  0  0  0  0  0  0
  2  3  1  0
  2  1  1  6
  4  3  1  0
  5  4  2  0
  6  5  1  0
  7  6  1  0
  7 12  2  0
  8  7  1  0
  9  8  2  0
  9 10  1  0
 10 11  2  0
 11 12  1  0
 12  4  1  0
 13  2  1  0
 13 14  2  0
 15 13  1  0
 16 15  1  0
 16 17  1  6
 18 17  1  0
 18 22  1  0
 19 18  2  0
 20 19  1  0
 20 21  1  0
 21 22  2  0
 23 16  1  0
 24 23  2  0
 25 23  1  0
 26 37  1  0
 26 25  1  0
 26 27  1  6
 28 36  1  0
 28 27  1  0
 29 28  2  0
 30 29  1  0
 30 31  1  0
 31 36  2  0
 32 31  1  0
 32 33  2  0
 33 34  1  0
 34 35  2  0
 36 35  1  0
 37 39  1  0
 38 37  2  0
M  END
$$$$
