KAE.pdb
     RDKit          3D

 24 23  0  0  1  0  0  0  0  0999 V2000
    9.2254  -16.8951   16.8831 N   0  0  0  0  0  0  0  0  0  0  0  0
    8.5721  -15.8629   16.1607 C   0  0  1  0  0  0  0  0  0  0  0  0
    7.3630  -16.2268   15.3891 C   0  0  0  0  0  0  0  0  0  0  0  0
    7.5276  -16.8424   14.0625 C   0  0  0  0  0  0  0  0  0  0  0  0
    7.1893  -16.0515   12.8604 C   0  0  0  0  0  0  0  0  0  0  0  0
    7.3377  -16.8146   11.5553 C   0  0  0  0  0  0  0  0  0  0  0  0
    7.0113  -15.9019   10.4602 N   0  0  0  0  0  0  0  0  0  0  0  0
    8.3820  -14.5983   16.9595 C   0  0  0  0  0  0  0  0  0  0  0  0
    7.5487  -13.7283   16.5975 O   0  0  0  0  0  0  0  0  0  0  0  0
    7.4757  -13.3843   19.5733 C   0  0  0  0  0  0  0  0  0  0  0  0
    8.8454  -13.1673   18.9744 C   0  0  2  0  0  0  0  0  0  0  0  0
    9.1184  -14.3233   18.1403 N   0  0  0  0  0  0  0  0  0  0  0  0
    9.9024  -13.1006   20.0180 C   0  0  0  0  0  0  0  0  0  0  0  0
    9.7305  -12.3874   21.0383 O   0  0  0  0  0  0  0  0  0  0  0  0
   11.1108  -13.8310   19.8856 N   0  0  0  0  0  0  0  0  0  0  0  0
   11.8415  -14.4115   21.0021 C   0  0  1  0  0  0  0  0  0  0  0  0
   10.9994  -15.4920   21.6055 C   0  0  0  0  0  0  0  0  0  0  0  0
   11.7256  -16.1594   22.7211 C   0  0  0  0  0  0  0  0  0  0  0  0
   10.8607  -17.1808   23.3416 C   0  0  0  0  0  0  0  0  0  0  0  0
   10.8092  -18.3412   22.8884 O   0  0  0  0  0  0  0  0  0  0  0  0
   13.1061  -15.0174   20.4414 C   0  0  0  0  0  0  0  0  0  0  0  0
   13.2104  -15.1664   19.2178 O   0  0  0  0  0  0  0  0  0  0  0  0
   10.1016  -16.8204   24.4481 O   0  0  0  0  0  0  0  0  0  0  0  0
   14.1129  -15.3918   21.2833 O   0  0  0  0  0  0  0  0  0  0  0  0
  2  1  1  1
  3  2  1  0
  4  3  1  0
  5  4  1  0
  6  5  1  0
  7  6  1  0
  8  2  1  0
  8  9  2  0
 11 10  1  1
 11 12  1  0
 12  8  1  0
 13 11  1  0
 14 13  2  0
 15 13  1  0
 16 21  1  0
 16 15  1  0
 16 17  1  6
 18 17  1  0
 19 18  1  0
 20 19  2  0
 21 24  1  0
 22 21  2  0
 23 19  1  0
M  END
$$$$
