KAE.pdb
     RDKit          3D

 24 23  0  0  1  0  0  0  0  0999 V2000
   10.1593  -15.3723   19.0547 N   0  0  0  0  0  0  0  0  0  0  0  0
    9.2962  -14.7434   19.9894 C   0  0  1  0  0  0  0  0  0  0  0  0
    8.0643  -14.1119   19.4664 C   0  0  0  0  0  0  0  0  0  0  0  0
    8.1324  -13.3691   18.1978 C   0  0  0  0  0  0  0  0  0  0  0  0
    7.4081  -13.8953   17.0215 C   0  0  0  0  0  0  0  0  0  0  0  0
    7.5236  -13.0239   15.7826 C   0  0  0  0  0  0  0  0  0  0  0  0
    6.8999  -13.7385   14.6695 N   0  0  0  0  0  0  0  0  0  0  0  0
    9.0349  -15.5748   21.2198 C   0  0  0  0  0  0  0  0  0  0  0  0
    8.2931  -15.1454   22.1404 O   0  0  0  0  0  0  0  0  0  0  0  0
    9.6062  -19.0972   22.2049 C   0  0  0  0  0  0  0  0  0  0  0  0
    9.3436  -17.6603   22.5900 C   0  0  2  0  0  0  0  0  0  0  0  0
    9.6009  -16.8623   21.4053 N   0  0  0  0  0  0  0  0  0  0  0  0
   10.2662  -17.1957   23.6595 C   0  0  0  0  0  0  0  0  0  0  0  0
   11.4277  -16.8179   23.3635 O   0  0  0  0  0  0  0  0  0  0  0  0
    9.8600  -17.1693   25.0180 N   0  0  0  0  0  0  0  0  0  0  0  0
   10.7107  -16.7383   26.1172 C   0  0  1  0  0  0  0  0  0  0  0  0
    9.9630  -15.7200   26.9202 C   0  0  0  0  0  0  0  0  0  0  0  0
   10.7563  -15.3078   28.1110 C   0  0  0  0  0  0  0  0  0  0  0  0
   10.0380  -14.2529   28.8508 C   0  0  0  0  0  0  0  0  0  0  0  0
    9.0796  -13.6446   28.3350 O   0  0  0  0  0  0  0  0  0  0  0  0
   10.9808  -17.9516   26.9750 C   0  0  0  0  0  0  0  0  0  0  0  0
   10.1331  -18.8509   27.0287 O   0  0  0  0  0  0  0  0  0  0  0  0
   10.4538  -13.9508   30.1417 O   0  0  0  0  0  0  0  0  0  0  0  0
   12.1476  -18.0428   27.6770 O   0  0  0  0  0  0  0  0  0  0  0  0
  2  1  1  6
  3  2  1  0
  4  3  1  0
  5  4  1  0
  6  5  1  0
  7  6  1  0
  8  2  1  0
  8  9  2  0
 11 10  1  6
 11 12  1  0
 12  8  1  0
 13 11  1  0
 14 13  2  0
 15 13  1  0
 16 21  1  0
 16 15  1  0
 16 17  1  1
 18 17  1  0
 19 18  1  0
 20 19  2  0
 21 24  1  0
 22 21  2  0
 23 19  1  0
M  END
$$$$
