KAE.pdb
     RDKit          3D

 24 23  0  0  1  0  0  0  0  0999 V2000
    8.1669  -17.6587   17.8875 N   0  0  0  0  0  0  0  0  0  0  0  0
    8.2226  -17.7429   19.3031 C   0  0  1  0  0  0  0  0  0  0  0  0
    8.9162  -18.9096   19.8928 C   0  0  0  0  0  0  0  0  0  0  0  0
    8.8296  -20.2076   19.2047 C   0  0  0  0  0  0  0  0  0  0  0  0
    9.5216  -21.3750   19.7908 C   0  0  0  0  0  0  0  0  0  0  0  0
    9.3907  -22.6477   18.9718 C   0  0  0  0  0  0  0  0  0  0  0  0
   10.1151  -23.7091   19.6700 N   0  0  0  0  0  0  0  0  0  0  0  0
    8.6164  -16.4477   19.9669 C   0  0  0  0  0  0  0  0  0  0  0  0
    9.4903  -15.7021   19.4543 O   0  0  0  0  0  0  0  0  0  0  0  0
    7.1839  -14.2877   22.5818 C   0  0  0  0  0  0  0  0  0  0  0  0
    8.3948  -14.7432   21.8021 C   0  0  2  0  0  0  0  0  0  0  0  0
    8.0359  -16.0063   21.1837 N   0  0  0  0  0  0  0  0  0  0  0  0
    9.5644  -14.9873   22.6873 C   0  0  0  0  0  0  0  0  0  0  0  0
   10.0371  -14.0465   23.3734 O   0  0  0  0  0  0  0  0  0  0  0  0
   10.1628  -16.2700   22.7746 N   0  0  0  0  0  0  0  0  0  0  0  0
   11.2838  -16.5913   23.6451 C   0  0  1  0  0  0  0  0  0  0  0  0
   11.3226  -18.0757   23.8348 C   0  0  0  0  0  0  0  0  0  0  0  0
   10.1799  -18.5253   24.6771 C   0  0  0  0  0  0  0  0  0  0  0  0
   10.2133  -19.9928   24.8247 C   0  0  0  0  0  0  0  0  0  0  0  0
   11.1239  -20.5540   25.4650 O   0  0  0  0  0  0  0  0  0  0  0  0
   12.5409  -16.1446   22.9375 C   0  0  0  0  0  0  0  0  0  0  0  0
   12.4781  -15.8249   21.7441 O   0  0  0  0  0  0  0  0  0  0  0  0
    9.2024  -20.7397   24.2324 O   0  0  0  0  0  0  0  0  0  0  0  0
   13.7243  -16.0988   23.6159 O   0  0  0  0  0  0  0  0  0  0  0  0
  2  1  1  6
  3  2  1  0
  4  3  1  0
  5  4  1  0
  6  5  1  0
  7  6  1  0
  8  2  1  0
  8  9  2  0
 11 10  1  1
 11 12  1  0
 12  8  1  0
 13 11  1  0
 14 13  2  0
 15 13  1  0
 16 21  1  0
 16 15  1  0
 16 17  1  6
 18 17  1  0
 19 18  1  0
 20 19  2  0
 21 24  1  0
 22 21  2  0
 23 19  1  0
M  END
$$$$
