KAE.pdb
     RDKit          3D

 24 23  0  0  1  0  0  0  0  0999 V2000
   10.9182  -19.7593   25.4804 N   0  0  0  0  0  0  0  0  0  0  0  0
    9.6777  -20.4479   25.5143 C   0  0  1  0  0  0  0  0  0  0  0  0
    9.0438  -20.6522   26.8358 C   0  0  0  0  0  0  0  0  0  0  0  0
    9.8278  -21.2878   27.9069 C   0  0  0  0  0  0  0  0  0  0  0  0
    9.2066  -21.4693   29.2360 C   0  0  0  0  0  0  0  0  0  0  0  0
   10.1043  -22.1571   30.2502 C   0  0  0  0  0  0  0  0  0  0  0  0
    9.3564  -22.2848   31.5004 N   0  0  0  0  0  0  0  0  0  0  0  0
    8.6951  -19.9668   24.4768 C   0  0  0  0  0  0  0  0  0  0  0  0
    7.5156  -20.4035   24.4569 O   0  0  0  0  0  0  0  0  0  0  0  0
    8.3186  -17.0824   22.3072 C   0  0  0  0  0  0  0  0  0  0  0  0
    8.0944  -18.5667   22.4765 C   0  0  2  0  0  0  0  0  0  0  0  0
    9.0390  -19.0142   23.4835 N   0  0  0  0  0  0  0  0  0  0  0  0
    8.3771  -19.3163   21.2239 C   0  0  0  0  0  0  0  0  0  0  0  0
    7.6988  -19.0876   20.1910 O   0  0  0  0  0  0  0  0  0  0  0  0
    9.4046  -20.2922   21.1693 N   0  0  0  0  0  0  0  0  0  0  0  0
    9.7254  -21.0760   19.9860 C   0  0  1  0  0  0  0  0  0  0  0  0
   11.1909  -20.9391   19.7133 C   0  0  0  0  0  0  0  0  0  0  0  0
   11.5425  -19.5171   19.4462 C   0  0  0  0  0  0  0  0  0  0  0  0
   12.9792  -19.4073   19.1292 C   0  0  0  0  0  0  0  0  0  0  0  0
   13.8446  -19.8667   19.9001 O   0  0  0  0  0  0  0  0  0  0  0  0
    9.4088  -22.5176   20.3059 C   0  0  0  0  0  0  0  0  0  0  0  0
    9.0330  -22.8118   21.4472 O   0  0  0  0  0  0  0  0  0  0  0  0
   13.3489  -18.7785   17.9466 O   0  0  0  0  0  0  0  0  0  0  0  0
    9.5398  -23.4736   19.3409 O   0  0  0  0  0  0  0  0  0  0  0  0
  2  1  1  1
  3  2  1  0
  4  3  1  0
  5  4  1  0
  6  5  1  0
  7  6  1  0
  8  2  1  0
  8  9  2  0
 11 10  1  6
 11 12  1  0
 12  8  1  0
 13 11  1  0
 14 13  2  0
 15 13  1  0
 16 21  1  0
 16 15  1  0
 16 17  1  1
 18 17  1  0
 19 18  1  0
 20 19  2  0
 21 24  1  0
 22 21  2  0
 23 19  1  0
M  END
$$$$
