KAE.pdb
     RDKit          3D

 24 23  0  0  1  0  0  0  0  0999 V2000
    7.8457  -14.6610   14.2205 N   0  0  0  0  0  0  0  0  0  0  0  0
    7.4849  -15.1373   15.5078 C   0  0  1  0  0  0  0  0  0  0  0  0
    7.3717  -16.6016   15.6891 C   0  0  0  0  0  0  0  0  0  0  0  0
    8.5128  -17.4522   15.3145 C   0  0  0  0  0  0  0  0  0  0  0  0
    8.3520  -18.9212   15.3521 C   0  0  0  0  0  0  0  0  0  0  0  0
    9.5565  -19.6892   14.8355 C   0  0  0  0  0  0  0  0  0  0  0  0
    9.2639  -21.1173   14.9517 N   0  0  0  0  0  0  0  0  0  0  0  0
    8.2505  -14.4796   16.6279 C   0  0  0  0  0  0  0  0  0  0  0  0
    9.5083  -14.4701   16.6282 O   0  0  0  0  0  0  0  0  0  0  0  0
    7.3317  -12.6170   19.7342 C   0  0  0  0  0  0  0  0  0  0  0  0
    8.3476  -13.2878   18.8398 C   0  0  2  0  0  0  0  0  0  0  0  0
    7.6080  -13.8480   17.7237 N   0  0  0  0  0  0  0  0  0  0  0  0
    9.0421  -14.4061   19.5312 C   0  0  0  0  0  0  0  0  0  0  0  0
    8.5679  -15.5684   19.4736 O   0  0  0  0  0  0  0  0  0  0  0  0
   10.2384  -14.1871   20.2606 N   0  0  0  0  0  0  0  0  0  0  0  0
   11.0817  -15.2505   20.7859 C   0  0  1  0  0  0  0  0  0  0  0  0
   12.5112  -14.8894   20.5273 C   0  0  0  0  0  0  0  0  0  0  0  0
   13.4231  -15.9034   21.1251 C   0  0  0  0  0  0  0  0  0  0  0  0
   14.8261  -15.5390   20.8508 C   0  0  0  0  0  0  0  0  0  0  0  0
   15.7677  -16.1836   21.3530 O   0  0  0  0  0  0  0  0  0  0  0  0
   10.8436  -15.3143   22.2758 C   0  0  0  0  0  0  0  0  0  0  0  0
   11.4181  -16.1856   22.9399 O   0  0  0  0  0  0  0  0  0  0  0  0
   15.0768  -14.4571   20.0158 O   0  0  0  0  0  0  0  0  0  0  0  0
   10.0035  -14.4177   22.8699 O   0  0  0  0  0  0  0  0  0  0  0  0
  2  1  1  6
  3  2  1  0
  4  3  1  0
  5  4  1  0
  6  5  1  0
  7  6  1  0
  8  2  1  0
  8  9  2  0
 11 10  1  1
 11 12  1  0
 12  8  1  0
 13 11  1  0
 14 13  2  0
 15 13  1  0
 16 21  1  0
 16 15  1  0
 16 17  1  1
 18 17  1  0
 19 18  1  0
 20 19  2  0
 21 24  1  0
 22 21  2  0
 23 19  1  0
M  END
$$$$
