KAE.pdb
     RDKit          3D

 24 23  0  0  1  0  0  0  0  0999 V2000
    7.9969  -15.9721   20.0129 N   0  0  0  0  0  0  0  0  0  0  0  0
    8.7741  -14.8112   20.2630 C   0  0  1  0  0  0  0  0  0  0  0  0
    8.5569  -13.6397   19.3854 C   0  0  0  0  0  0  0  0  0  0  0  0
    7.6781  -13.7851   18.2139 C   0  0  0  0  0  0  0  0  0  0  0  0
    8.2530  -13.6120   16.8632 C   0  0  0  0  0  0  0  0  0  0  0  0
    7.2389  -13.7327   15.7386 C   0  0  0  0  0  0  0  0  0  0  0  0
    7.9291  -13.4605   14.4784 N   0  0  0  0  0  0  0  0  0  0  0  0
    8.8337  -14.4308   21.7208 C   0  0  0  0  0  0  0  0  0  0  0  0
    9.5281  -13.4540   22.1025 O   0  0  0  0  0  0  0  0  0  0  0  0
    6.8541  -14.9023   24.7149 C   0  0  0  0  0  0  0  0  0  0  0  0
    8.2463  -14.8191   24.1346 C   0  0  2  0  0  0  0  0  0  0  0  0
    8.1249  -15.1400   22.7243 N   0  0  0  0  0  0  0  0  0  0  0  0
    9.1634  -15.8149   24.7494 C   0  0  0  0  0  0  0  0  0  0  0  0
    9.1762  -15.9676   25.9967 O   0  0  0  0  0  0  0  0  0  0  0  0
   10.0316  -16.6029   23.9515 N   0  0  0  0  0  0  0  0  0  0  0  0
   10.8634  -17.6798   24.4673 C   0  0  1  0  0  0  0  0  0  0  0  0
   10.8097  -18.8211   23.5002 C   0  0  0  0  0  0  0  0  0  0  0  0
   10.5362  -20.0989   24.2140 C   0  0  0  0  0  0  0  0  0  0  0  0
   10.5447  -21.2201   23.2552 C   0  0  0  0  0  0  0  0  0  0  0  0
   10.8643  -21.0441   22.0631 O   0  0  0  0  0  0  0  0  0  0  0  0
   12.2773  -17.1546   24.5432 C   0  0  0  0  0  0  0  0  0  0  0  0
   12.5463  -16.0721   24.0085 O   0  0  0  0  0  0  0  0  0  0  0  0
   10.1880  -22.4830   23.7119 O   0  0  0  0  0  0  0  0  0  0  0  0
   13.2365  -17.8740   25.1952 O   0  0  0  0  0  0  0  0  0  0  0  0
  2  1  1  1
  3  2  1  0
  4  3  1  0
  5  4  1  0
  6  5  1  0
  7  6  1  0
  8  2  1  0
  8  9  2  0
 11 10  1  1
 11 12  1  0
 12  8  1  0
 13 11  1  0
 14 13  2  0
 15 13  1  0
 16 21  1  0
 16 15  1  0
 16 17  1  6
 18 17  1  0
 19 18  1  0
 20 19  2  0
 21 24  1  0
 22 21  2  0
 23 19  1  0
M  END
$$$$
