KAE.pdb
     RDKit          3D

 24 23  0  0  1  0  0  0  0  0999 V2000
    9.8796  -17.9042   17.9766 N   0  0  0  0  0  0  0  0  0  0  0  0
    9.8017  -18.3453   19.3233 C   0  0  1  0  0  0  0  0  0  0  0  0
    9.9899  -19.7901   19.5824 C   0  0  0  0  0  0  0  0  0  0  0  0
    9.3358  -20.7610   18.6906 C   0  0  0  0  0  0  0  0  0  0  0  0
    9.5734  -22.2038   18.9075 C   0  0  0  0  0  0  0  0  0  0  0  0
    8.8574  -23.1050   17.9162 C   0  0  0  0  0  0  0  0  0  0  0  0
    9.3096  -24.4766   18.1461 N   0  0  0  0  0  0  0  0  0  0  0  0
   10.5840  -17.4852   20.2834 C   0  0  0  0  0  0  0  0  0  0  0  0
   11.7920  -17.2119   20.0640 O   0  0  0  0  0  0  0  0  0  0  0  0
    9.7858  -15.4868   23.3225 C   0  0  0  0  0  0  0  0  0  0  0  0
   10.7841  -16.1637   22.4131 C   0  0  2  0  0  0  0  0  0  0  0  0
   10.0132  -16.9475   21.4655 N   0  0  0  0  0  0  0  0  0  0  0  0
   11.6700  -17.0962   23.1590 C   0  0  0  0  0  0  0  0  0  0  0  0
   11.2727  -18.2582   23.4258 O   0  0  0  0  0  0  0  0  0  0  0  0
   12.9649  -16.6991   23.5794 N   0  0  0  0  0  0  0  0  0  0  0  0
   13.8683  -17.5409   24.3493 C   0  0  1  0  0  0  0  0  0  0  0  0
   15.2495  -16.9746   24.2383 C   0  0  0  0  0  0  0  0  0  0  0  0
   15.6600  -16.8734   22.8106 C   0  0  0  0  0  0  0  0  0  0  0  0
   16.9706  -16.2032   22.7125 C   0  0  0  0  0  0  0  0  0  0  0  0
   17.9500  -16.7784   22.1984 O   0  0  0  0  0  0  0  0  0  0  0  0
   13.4170  -17.4800   25.7893 C   0  0  0  0  0  0  0  0  0  0  0  0
   12.5965  -16.6179   26.1264 O   0  0  0  0  0  0  0  0  0  0  0  0
   17.0904  -14.9102   23.2069 O   0  0  0  0  0  0  0  0  0  0  0  0
   13.9153  -18.3691   26.6969 O   0  0  0  0  0  0  0  0  0  0  0  0
  2  1  1  6
  3  2  1  0
  4  3  1  0
  5  4  1  0
  6  5  1  0
  7  6  1  0
  8  2  1  0
  8  9  2  0
 11 10  1  1
 11 12  1  0
 12  8  1  0
 13 11  1  0
 14 13  2  0
 15 13  1  0
 16 21  1  0
 16 15  1  0
 16 17  1  1
 18 17  1  0
 19 18  1  0
 20 19  2  0
 21 24  1  0
 22 21  2  0
 23 19  1  0
M  END
$$$$
