KAE.pdb
     RDKit          3D

 24 23  0  0  1  0  0  0  0  0999 V2000
    7.3297  -16.5899   20.3106 N   0  0  0  0  0  0  0  0  0  0  0  0
    8.0703  -15.4448   20.7036 C   0  0  1  0  0  0  0  0  0  0  0  0
    7.6798  -14.1429   20.1185 C   0  0  0  0  0  0  0  0  0  0  0  0
    8.1042  -13.8275   18.7450 C   0  0  0  0  0  0  0  0  0  0  0  0
    7.6099  -12.5869   18.1113 C   0  0  0  0  0  0  0  0  0  0  0  0
    8.1098  -12.3748   16.6926 C   0  0  0  0  0  0  0  0  0  0  0  0
    7.8281  -13.5900   15.9293 N   0  0  0  0  0  0  0  0  0  0  0  0
    8.2978  -15.3581   22.1916 C   0  0  0  0  0  0  0  0  0  0  0  0
    9.2098  -14.6302   22.6613 O   0  0  0  0  0  0  0  0  0  0  0  0
    6.4258  -16.1730   25.2354 C   0  0  0  0  0  0  0  0  0  0  0  0
    7.7671  -16.0318   24.5552 C   0  0  2  0  0  0  0  0  0  0  0  0
    7.5123  -16.0793   23.1271 N   0  0  0  0  0  0  0  0  0  0  0  0
    8.6800  -17.1565   24.8911 C   0  0  0  0  0  0  0  0  0  0  0  0
    8.4213  -18.3161   24.4818 O   0  0  0  0  0  0  0  0  0  0  0  0
    9.8463  -16.9467   25.6702 N   0  0  0  0  0  0  0  0  0  0  0  0
   10.7464  -18.0078   26.0962 C   0  0  1  0  0  0  0  0  0  0  0  0
   12.1306  -17.6614   25.6437 C   0  0  0  0  0  0  0  0  0  0  0  0
   12.1681  -17.4814   24.1661 C   0  0  0  0  0  0  0  0  0  0  0  0
   13.5476  -17.1905   23.7317 C   0  0  0  0  0  0  0  0  0  0  0  0
   13.8355  -17.1020   22.5219 O   0  0  0  0  0  0  0  0  0  0  0  0
   10.7085  -18.0462   27.6055 C   0  0  0  0  0  0  0  0  0  0  0  0
   11.3106  -18.9490   28.1993 O   0  0  0  0  0  0  0  0  0  0  0  0
   14.5239  -17.0154   24.7047 O   0  0  0  0  0  0  0  0  0  0  0  0
   10.0158  -17.0927   28.2935 O   0  0  0  0  0  0  0  0  0  0  0  0
  2  1  1  1
  3  2  1  0
  4  3  1  0
  5  4  1  0
  6  5  1  0
  7  6  1  0
  8  2  1  0
  8  9  2  0
 11 10  1  1
 11 12  1  0
 12  8  1  0
 13 11  1  0
 14 13  2  0
 15 13  1  0
 16 21  1  0
 16 15  1  0
 16 17  1  1
 18 17  1  0
 19 18  1  0
 20 19  2  0
 21 24  1  0
 22 21  2  0
 23 19  1  0
M  END
$$$$
