KAE.pdb
     RDKit          3D

 24 23  0  0  1  0  0  0  0  0999 V2000
    6.8925  -14.6047   21.3188 N   0  0  0  0  0  0  0  0  0  0  0  0
    7.1524  -15.0117   22.6533 C   0  0  1  0  0  0  0  0  0  0  0  0
    8.0342  -16.1833   22.8523 C   0  0  0  0  0  0  0  0  0  0  0  0
    8.5460  -16.8940   21.6695 C   0  0  0  0  0  0  0  0  0  0  0  0
    9.2728  -18.1671   21.8595 C   0  0  0  0  0  0  0  0  0  0  0  0
    9.7534  -18.8043   20.5670 C   0  0  0  0  0  0  0  0  0  0  0  0
   10.3708  -20.0876   20.8998 N   0  0  0  0  0  0  0  0  0  0  0  0
    7.5032  -13.8690   23.5723 C   0  0  0  0  0  0  0  0  0  0  0  0
    8.4305  -13.0707   23.2807 O   0  0  0  0  0  0  0  0  0  0  0  0
    5.9153  -12.0866   26.3481 C   0  0  0  0  0  0  0  0  0  0  0  0
    7.1932  -12.5621   25.6979 C   0  0  2  0  0  0  0  0  0  0  0  0
    6.8215  -13.6353   24.7942 N   0  0  0  0  0  0  0  0  0  0  0  0
    8.1483  -13.1171   26.6933 C   0  0  0  0  0  0  0  0  0  0  0  0
    8.5445  -12.4013   27.6472 O   0  0  0  0  0  0  0  0  0  0  0  0
    8.6257  -14.4484   26.5883 N   0  0  0  0  0  0  0  0  0  0  0  0
    9.5187  -15.0748   27.5515 C   0  0  1  0  0  0  0  0  0  0  0  0
    9.2068  -16.5380   27.6010 C   0  0  0  0  0  0  0  0  0  0  0  0
   10.1244  -17.2367   28.5427 C   0  0  0  0  0  0  0  0  0  0  0  0
    9.8347  -18.6833   28.5438 C   0  0  0  0  0  0  0  0  0  0  0  0
    8.8674  -19.1457   27.9076 O   0  0  0  0  0  0  0  0  0  0  0  0
   10.9283  -14.8806   27.0454 C   0  0  0  0  0  0  0  0  0  0  0  0
   11.8764  -15.0831   27.8138 O   0  0  0  0  0  0  0  0  0  0  0  0
   10.6678  -19.5236   29.2721 O   0  0  0  0  0  0  0  0  0  0  0  0
   11.1403  -14.4865   25.7561 O   0  0  0  0  0  0  0  0  0  0  0  0
  2  1  1  6
  3  2  1  0
  4  3  1  0
  5  4  1  0
  6  5  1  0
  7  6  1  0
  8  2  1  0
  8  9  2  0
 11 10  1  1
 11 12  1  0
 12  8  1  0
 13 11  1  0
 14 13  2  0
 15 13  1  0
 16 21  1  0
 16 15  1  0
 16 17  1  6
 18 17  1  0
 19 18  1  0
 20 19  2  0
 21 24  1  0
 22 21  2  0
 23 19  1  0
M  END
$$$$
