KAE.pdb
     RDKit          3D

 24 23  0  0  1  0  0  0  0  0999 V2000
    7.3968  -16.3447   18.0824 N   0  0  0  0  0  0  0  0  0  0  0  0
    8.7410  -15.9033   18.1938 C   0  0  1  0  0  0  0  0  0  0  0  0
    9.2713  -15.0437   17.1122 C   0  0  0  0  0  0  0  0  0  0  0  0
    8.3214  -14.3748   16.2087 C   0  0  0  0  0  0  0  0  0  0  0  0
    8.4858  -14.5403   14.7490 C   0  0  0  0  0  0  0  0  0  0  0  0
    7.6211  -13.6072   13.9189 C   0  0  0  0  0  0  0  0  0  0  0  0
    8.0567  -13.7087   12.5266 N   0  0  0  0  0  0  0  0  0  0  0  0
    9.0897  -15.3792   19.5639 C   0  0  0  0  0  0  0  0  0  0  0  0
   10.2812  -15.1129   19.8665 O   0  0  0  0  0  0  0  0  0  0  0  0
    7.1691  -14.1571   22.5016 C   0  0  0  0  0  0  0  0  0  0  0  0
    8.4540  -14.6621   21.8886 C   0  0  2  0  0  0  0  0  0  0  0  0
    8.1128  -15.1624   20.5695 N   0  0  0  0  0  0  0  0  0  0  0  0
    9.0332  -15.7897   22.6658 C   0  0  0  0  0  0  0  0  0  0  0  0
    8.5418  -16.9413   22.5587 O   0  0  0  0  0  0  0  0  0  0  0  0
   10.1379  -15.5916   23.5328 N   0  0  0  0  0  0  0  0  0  0  0  0
   10.7694  -16.6497   24.3069 C   0  0  1  0  0  0  0  0  0  0  0  0
   12.2535  -16.4726   24.2241 C   0  0  0  0  0  0  0  0  0  0  0  0
   12.7463  -16.8189   22.8624 C   0  0  0  0  0  0  0  0  0  0  0  0
   14.2072  -16.6254   22.7941 C   0  0  0  0  0  0  0  0  0  0  0  0
   14.9236  -16.7756   23.8034 O   0  0  0  0  0  0  0  0  0  0  0  0
   10.3247  -16.4805   25.7402 C   0  0  0  0  0  0  0  0  0  0  0  0
    9.7223  -15.4501   26.0653 O   0  0  0  0  0  0  0  0  0  0  0  0
   14.7707  -16.2712   21.5744 O   0  0  0  0  0  0  0  0  0  0  0  0
   10.5900  -17.4578   26.6551 O   0  0  0  0  0  0  0  0  0  0  0  0
  2  1  1  1
  3  2  1  0
  4  3  1  0
  5  4  1  0
  6  5  1  0
  7  6  1  0
  8  2  1  0
  8  9  2  0
 11 10  1  1
 11 12  1  0
 12  8  1  0
 13 11  1  0
 14 13  2  0
 15 13  1  0
 16 21  1  0
 16 15  1  0
 16 17  1  1
 18 17  1  0
 19 18  1  0
 20 19  2  0
 21 24  1  0
 22 21  2  0
 23 19  1  0
M  END
$$$$
