KAE.pdb
     RDKit          3D

 24 23  0  0  1  0  0  0  0  0999 V2000
    8.3345  -12.5605   18.6094 N   0  0  0  0  0  0  0  0  0  0  0  0
    7.6635  -13.5751   19.3405 C   0  0  1  0  0  0  0  0  0  0  0  0
    7.3629  -14.8415   18.6363 C   0  0  0  0  0  0  0  0  0  0  0  0
    8.4462  -15.5221   17.9090 C   0  0  0  0  0  0  0  0  0  0  0  0
    8.1323  -16.7440   17.1385 C   0  0  0  0  0  0  0  0  0  0  0  0
    9.3397  -17.3861   16.4771 C   0  0  0  0  0  0  0  0  0  0  0  0
    8.9001  -18.6314   15.8489 N   0  0  0  0  0  0  0  0  0  0  0  0
    8.2405  -13.8073   20.7140 C   0  0  0  0  0  0  0  0  0  0  0  0
    9.4847  -13.8747   20.8858 O   0  0  0  0  0  0  0  0  0  0  0  0
    6.8234  -14.0469   24.1607 C   0  0  0  0  0  0  0  0  0  0  0  0
    7.9886  -14.0875   23.2001 C   0  0  2  0  0  0  0  0  0  0  0  0
    7.4285  -13.9612   21.8670 N   0  0  0  0  0  0  0  0  0  0  0  0
    8.7162  -15.3826   23.2659 C   0  0  0  0  0  0  0  0  0  0  0  0
    8.3131  -16.3620   22.5895 O   0  0  0  0  0  0  0  0  0  0  0  0
    9.8653  -15.5374   24.0824 N   0  0  0  0  0  0  0  0  0  0  0  0
   10.6386  -16.7662   24.1807 C   0  0  1  0  0  0  0  0  0  0  0  0
   12.0600  -16.4580   23.8267 C   0  0  0  0  0  0  0  0  0  0  0  0
   12.9189  -17.6591   24.0180 C   0  0  0  0  0  0  0  0  0  0  0  0
   14.3187  -17.3321   23.6864 C   0  0  0  0  0  0  0  0  0  0  0  0
   14.8563  -16.2938   24.1194 O   0  0  0  0  0  0  0  0  0  0  0  0
   10.5691  -17.2237   25.6183 C   0  0  0  0  0  0  0  0  0  0  0  0
   10.9894  -18.3494   25.9121 O   0  0  0  0  0  0  0  0  0  0  0  0
   15.0291  -18.2108   22.8779 O   0  0  0  0  0  0  0  0  0  0  0  0
   10.0472  -16.3976   26.5710 O   0  0  0  0  0  0  0  0  0  0  0  0
  2  1  1  6
  3  2  1  0
  4  3  1  0
  5  4  1  0
  6  5  1  0
  7  6  1  0
  8  2  1  0
  8  9  2  0
 11 10  1  1
 11 12  1  0
 12  8  1  0
 13 11  1  0
 14 13  2  0
 15 13  1  0
 16 21  1  0
 16 15  1  0
 16 17  1  1
 18 17  1  0
 19 18  1  0
 20 19  2  0
 21 24  1  0
 22 21  2  0
 23 19  1  0
M  END
$$$$
