KAE.pdb
     RDKit          3D

 24 23  0  0  1  0  0  0  0  0999 V2000
    5.9993  -18.3262   19.4328 N   0  0  0  0  0  0  0  0  0  0  0  0
    7.4027  -18.3651   19.6400 C   0  0  1  0  0  0  0  0  0  0  0  0
    8.2009  -19.2450   18.7577 C   0  0  0  0  0  0  0  0  0  0  0  0
    9.0616  -20.2698   19.3700 C   0  0  0  0  0  0  0  0  0  0  0  0
    9.9822  -21.0392   18.5065 C   0  0  0  0  0  0  0  0  0  0  0  0
   10.8584  -22.0255   19.2595 C   0  0  0  0  0  0  0  0  0  0  0  0
   11.8105  -22.5991   18.3092 N   0  0  0  0  0  0  0  0  0  0  0  0
    8.0242  -17.0008   19.8012 C   0  0  0  0  0  0  0  0  0  0  0  0
    8.9401  -16.6163   19.0295 O   0  0  0  0  0  0  0  0  0  0  0  0
    7.1258  -13.8579   21.4425 C   0  0  0  0  0  0  0  0  0  0  0  0
    8.2222  -14.7808   20.9650 C   0  0  2  0  0  0  0  0  0  0  0  0
    7.6198  -16.0926   20.8130 N   0  0  0  0  0  0  0  0  0  0  0  0
    9.3206  -14.8982   21.9604 C   0  0  0  0  0  0  0  0  0  0  0  0
    9.9301  -13.8684   22.3442 O   0  0  0  0  0  0  0  0  0  0  0  0
    9.6982  -16.1582   22.4905 N   0  0  0  0  0  0  0  0  0  0  0  0
   10.7916  -16.3550   23.4303 C   0  0  1  0  0  0  0  0  0  0  0  0
   10.4110  -17.4542   24.3724 C   0  0  0  0  0  0  0  0  0  0  0  0
   11.5252  -17.7422   25.3174 C   0  0  0  0  0  0  0  0  0  0  0  0
   11.1456  -18.8479   26.2172 C   0  0  0  0  0  0  0  0  0  0  0  0
   10.7541  -18.6253   27.3798 O   0  0  0  0  0  0  0  0  0  0  0  0
   11.9988  -16.7794   22.6282 C   0  0  0  0  0  0  0  0  0  0  0  0
   13.1287  -16.5115   23.0547 O   0  0  0  0  0  0  0  0  0  0  0  0
   11.2334  -20.1494   25.7386 O   0  0  0  0  0  0  0  0  0  0  0  0
   11.8326  -17.4482   21.4503 O   0  0  0  0  0  0  0  0  0  0  0  0
  2  1  1  6
  3  2  1  0
  4  3  1  0
  5  4  1  0
  6  5  1  0
  7  6  1  0
  8  2  1  0
  8  9  2  0
 11 10  1  1
 11 12  1  0
 12  8  1  0
 13 11  1  0
 14 13  2  0
 15 13  1  0
 16 21  1  0
 16 15  1  0
 16 17  1  1
 18 17  1  0
 19 18  1  0
 20 19  2  0
 21 24  1  0
 22 21  2  0
 23 19  1  0
M  END
$$$$
