KAE.pdb
     RDKit          3D

 24 23  0  0  1  0  0  0  0  0999 V2000
    8.0430  -15.7240   18.3807 N   0  0  0  0  0  0  0  0  0  0  0  0
    8.1463  -16.6544   19.4474 C   0  0  1  0  0  0  0  0  0  0  0  0
    8.6265  -18.0163   19.1240 C   0  0  0  0  0  0  0  0  0  0  0  0
    7.7928  -18.8774   18.2701 C   0  0  0  0  0  0  0  0  0  0  0  0
    7.7002  -20.3192   18.5825 C   0  0  0  0  0  0  0  0  0  0  0  0
    6.8206  -21.1049   17.6251 C   0  0  0  0  0  0  0  0  0  0  0  0
    6.8764  -22.5133   18.0150 N   0  0  0  0  0  0  0  0  0  0  0  0
    8.8141  -16.0888   20.6753 C   0  0  0  0  0  0  0  0  0  0  0  0
   10.0636  -16.1420   20.8097 O   0  0  0  0  0  0  0  0  0  0  0  0
    7.6609  -14.2229   23.6973 C   0  0  0  0  0  0  0  0  0  0  0  0
    8.7316  -14.9433   22.9121 C   0  0  2  0  0  0  0  0  0  0  0  0
    8.0850  -15.4782   21.7278 N   0  0  0  0  0  0  0  0  0  0  0  0
    9.3026  -16.0861   23.6728 C   0  0  0  0  0  0  0  0  0  0  0  0
    8.6964  -17.1866   23.6979 O   0  0  0  0  0  0  0  0  0  0  0  0
   10.5273  -15.9597   24.3767 N   0  0  0  0  0  0  0  0  0  0  0  0
   11.1011  -17.0037   25.2124 C   0  0  1  0  0  0  0  0  0  0  0  0
   12.5917  -16.8709   25.1752 C   0  0  0  0  0  0  0  0  0  0  0  0
   13.1419  -17.4976   23.9416 C   0  0  0  0  0  0  0  0  0  0  0  0
   14.3978  -16.8265   23.5560 C   0  0  0  0  0  0  0  0  0  0  0  0
   15.4800  -17.4453   23.5438 O   0  0  0  0  0  0  0  0  0  0  0  0
   10.6129  -16.7663   26.6217 C   0  0  0  0  0  0  0  0  0  0  0  0
    9.9366  -15.7589   26.8621 O   0  0  0  0  0  0  0  0  0  0  0  0
   14.3482  -15.4832   23.2042 O   0  0  0  0  0  0  0  0  0  0  0  0
   10.9208  -17.6580   27.6080 O   0  0  0  0  0  0  0  0  0  0  0  0
  2  1  1  6
  3  2  1  0
  4  3  1  0
  5  4  1  0
  6  5  1  0
  7  6  1  0
  8  2  1  0
  8  9  2  0
 11 10  1  1
 11 12  1  0
 12  8  1  0
 13 11  1  0
 14 13  2  0
 15 13  1  0
 16 21  1  0
 16 15  1  0
 16 17  1  1
 18 17  1  0
 19 18  1  0
 20 19  2  0
 21 24  1  0
 22 21  2  0
 23 19  1  0
M  END
$$$$
