KAE.pdb
     RDKit          3D

 24 23  0  0  1  0  0  0  0  0999 V2000
    8.9273  -16.8241   16.5404 N   0  0  0  0  0  0  0  0  0  0  0  0
    8.1714  -16.9948   17.7293 C   0  0  1  0  0  0  0  0  0  0  0  0
    7.7175  -18.3636   18.0616 C   0  0  0  0  0  0  0  0  0  0  0  0
    6.7908  -19.0451   17.1437 C   0  0  0  0  0  0  0  0  0  0  0  0
    6.2747  -20.3809   17.5105 C   0  0  0  0  0  0  0  0  0  0  0  0
    5.4144  -21.0279   16.4386 C   0  0  0  0  0  0  0  0  0  0  0  0
    4.8902  -22.2821   16.9780 N   0  0  0  0  0  0  0  0  0  0  0  0
    8.7573  -16.2812   18.9213 C   0  0  0  0  0  0  0  0  0  0  0  0
    9.9952  -16.3086   19.1425 O   0  0  0  0  0  0  0  0  0  0  0  0
    7.3989  -14.0977   21.6311 C   0  0  0  0  0  0  0  0  0  0  0  0
    8.5310  -14.8589   20.9825 C   0  0  2  0  0  0  0  0  0  0  0  0
    7.9609  -15.5542   19.8431 N   0  0  0  0  0  0  0  0  0  0  0  0
    9.1069  -15.8809   21.8962 C   0  0  0  0  0  0  0  0  0  0  0  0
    8.5676  -17.0122   21.9893 O   0  0  0  0  0  0  0  0  0  0  0  0
   10.2616  -15.6039   22.6716 N   0  0  0  0  0  0  0  0  0  0  0  0
   10.8918  -16.5599   23.5696 C   0  0  1  0  0  0  0  0  0  0  0  0
   12.3438  -16.2139   23.6825 C   0  0  0  0  0  0  0  0  0  0  0  0
   13.0347  -16.4260   22.3807 C   0  0  0  0  0  0  0  0  0  0  0  0
   14.4255  -15.9418   22.4670 C   0  0  0  0  0  0  0  0  0  0  0  0
   14.8477  -15.3789   23.4962 O   0  0  0  0  0  0  0  0  0  0  0  0
   10.2341  -16.4045   24.9202 C   0  0  0  0  0  0  0  0  0  0  0  0
    9.4730  -15.4484   25.1119 O   0  0  0  0  0  0  0  0  0  0  0  0
   15.2595  -16.1284   21.3714 O   0  0  0  0  0  0  0  0  0  0  0  0
   10.4843  -17.3127   25.9077 O   0  0  0  0  0  0  0  0  0  0  0  0
  2  1  1  6
  3  2  1  0
  4  3  1  0
  5  4  1  0
  6  5  1  0
  7  6  1  0
  8  2  1  0
  8  9  2  0
 11 10  1  1
 11 12  1  0
 12  8  1  0
 13 11  1  0
 14 13  2  0
 15 13  1  0
 16 21  1  0
 16 15  1  0
 16 17  1  1
 18 17  1  0
 19 18  1  0
 20 19  2  0
 21 24  1  0
 22 21  2  0
 23 19  1  0
M  END
$$$$
