LGF.pdb
     RDKit          3D

 24 24  0  0  1  0  0  0  0  0999 V2000
    6.2611  -14.0753   19.6906 C   0  0  0  0  0  0  0  0  0  0  0  0
    7.5721  -13.6004   20.2795 C   0  0  2  0  0  0  0  0  0  0  0  0
    7.7836  -12.1232   19.9768 C   0  0  0  0  0  0  0  0  0  0  0  0
    8.7287  -14.4228   19.6981 C   0  0  0  0  0  0  0  0  0  0  0  0
    8.7909  -15.7035   20.4906 C   0  0  2  0  0  0  0  0  0  0  0  0
    7.6269  -15.7784   21.3468 N   0  0  0  0  0  0  0  0  0  0  0  0
   10.0194  -15.8118   21.2974 C   0  0  0  0  0  0  0  0  0  0  0  0
   11.1421  -15.7572   20.7426 O   0  0  0  0  0  0  0  0  0  0  0  0
    9.8999  -15.9803   22.7245 N   0  0  0  0  0  0  0  0  0  0  0  0
   11.0818  -16.0618   23.5328 C   0  0  0  0  0  0  0  0  0  0  0  0
   10.8346  -16.2547   24.9626 C   0  0  0  0  0  0  0  0  0  0  0  0
   11.8154  -16.1591   25.7908 O   0  0  0  0  0  0  0  0  0  0  0  0
    9.5972  -16.5465   25.5803 N   0  0  0  0  0  0  0  0  0  0  0  0
    9.4520  -16.6877   27.0291 C   0  0  1  0  0  0  0  0  0  0  0  0
    8.0963  -16.1819   27.3750 C   0  0  0  0  0  0  0  0  0  0  0  0
    7.8023  -14.8021   27.0051 C   0  0  0  0  0  0  0  0  0  0  0  0
    8.4986  -13.7020   27.4504 C   0  0  0  0  0  0  0  0  0  0  0  0
    8.1344  -12.4408   27.0319 C   0  0  0  0  0  0  0  0  0  0  0  0
    7.0724  -12.2446   26.1635 C   0  0  0  0  0  0  0  0  0  0  0  0
    6.3646  -13.3354   25.7080 C   0  0  0  0  0  0  0  0  0  0  0  0
    6.7423  -14.5736   26.1349 C   0  0  0  0  0  0  0  0  0  0  0  0
    9.6517  -18.0720   27.4665 C   0  0  0  0  0  0  0  0  0  0  0  0
    9.7745  -18.4173   28.8024 O   0  0  0  0  0  0  0  0  0  0  0  0
    9.7126  -18.9730   26.5790 O   0  0  0  0  0  0  0  0  0  0  0  0
  2  3  1  6
  2  1  1  0
  4  2  1  0
  5  4  1  0
  5  6  1  1
  7  5  1  0
  7  8  2  0
  9  7  1  0
 10  9  1  0
 11 10  1  0
 12 11  2  0
 13 11  1  0
 14 13  1  0
 14 22  1  0
 14 15  1  6
 16 15  1  0
 16 21  2  0
 17 16  1  0
 18 17  2  0
 18 19  1  0
 19 20  2  0
 20 21  1  0
 22 23  1  0
 24 22  2  0
M  END
$$$$
