LGF.pdb
     RDKit          3D

 24 24  0  0  1  0  0  0  0  0999 V2000
    9.2642  -13.1122   19.2779 C   0  0  0  0  0  0  0  0  0  0  0  0
    7.9297  -13.7218   18.9057 C   0  0  2  0  0  0  0  0  0  0  0  0
    7.0403  -12.6808   18.2393 C   0  0  0  0  0  0  0  0  0  0  0  0
    7.2415  -14.2681   20.1627 C   0  0  0  0  0  0  0  0  0  0  0  0
    8.1608  -15.3138   20.7401 C   0  0  2  0  0  0  0  0  0  0  0  0
    8.2994  -16.3912   19.7843 N   0  0  0  0  0  0  0  0  0  0  0  0
    7.6806  -15.8411   22.0298 C   0  0  0  0  0  0  0  0  0  0  0  0
    7.5368  -15.0715   23.0086 O   0  0  0  0  0  0  0  0  0  0  0  0
    7.3836  -17.2481   22.1370 N   0  0  0  0  0  0  0  0  0  0  0  0
    6.9245  -17.7852   23.3850 C   0  0  0  0  0  0  0  0  0  0  0  0
    7.8654  -17.6422   24.4972 C   0  0  0  0  0  0  0  0  0  0  0  0
    8.6387  -18.6260   24.7996 O   0  0  0  0  0  0  0  0  0  0  0  0
    8.0424  -16.5077   25.3215 N   0  0  0  0  0  0  0  0  0  0  0  0
    9.2532  -16.2876   26.1123 C   0  0  1  0  0  0  0  0  0  0  0  0
    9.5300  -14.8263   26.0740 C   0  0  0  0  0  0  0  0  0  0  0  0
    8.4555  -13.9483   26.5228 C   0  0  0  0  0  0  0  0  0  0  0  0
    8.3965  -13.3434   27.7574 C   0  0  0  0  0  0  0  0  0  0  0  0
    7.3321  -12.5280   28.0745 C   0  0  0  0  0  0  0  0  0  0  0  0
    6.3045  -12.2955   27.1742 C   0  0  0  0  0  0  0  0  0  0  0  0
    6.3481  -12.8934   25.9337 C   0  0  0  0  0  0  0  0  0  0  0  0
    7.4103  -13.6961   25.6413 C   0  0  0  0  0  0  0  0  0  0  0  0
    9.1093  -16.7854   27.4830 C   0  0  0  0  0  0  0  0  0  0  0  0
    7.9251  -17.3281   27.9545 O   0  0  0  0  0  0  0  0  0  0  0  0
   10.1126  -16.7092   28.2517 O   0  0  0  0  0  0  0  0  0  0  0  0
  2  3  1  1
  2  1  1  0
  4  2  1  0
  5  4  1  0
  5  6  1  6
  7  5  1  0
  7  8  2  0
  9  7  1  0
 10  9  1  0
 11 10  1  0
 12 11  2  0
 13 11  1  0
 14 13  1  0
 14 22  1  0
 14 15  1  1
 16 15  1  0
 16 21  2  0
 17 16  1  0
 18 17  2  0
 18 19  1  0
 19 20  2  0
 20 21  1  0
 22 23  1  0
 24 22  2  0
M  END
$$$$
