LGF.pdb
     RDKit          3D

 24 24  0  0  1  0  0  0  0  0999 V2000
    5.8108  -14.0762   26.4231 C   0  0  0  0  0  0  0  0  0  0  0  0
    6.9657  -13.7126   25.5146 C   0  0  2  0  0  0  0  0  0  0  0  0
    7.4769  -12.3162   25.8422 C   0  0  0  0  0  0  0  0  0  0  0  0
    6.5113  -13.7716   24.0510 C   0  0  0  0  0  0  0  0  0  0  0  0
    6.8671  -15.1451   23.5420 C   0  0  2  0  0  0  0  0  0  0  0  0
    6.5442  -16.1183   24.5630 N   0  0  0  0  0  0  0  0  0  0  0  0
    8.2873  -15.2599   23.1656 C   0  0  0  0  0  0  0  0  0  0  0  0
    8.8051  -14.4119   22.4015 O   0  0  0  0  0  0  0  0  0  0  0  0
    9.0581  -16.3591   23.6918 N   0  0  0  0  0  0  0  0  0  0  0  0
   10.4261  -16.5237   23.2938 C   0  0  0  0  0  0  0  0  0  0  0  0
   11.3578  -16.7800   24.3934 C   0  0  0  0  0  0  0  0  0  0  0  0
   12.5795  -17.0855   24.1266 O   0  0  0  0  0  0  0  0  0  0  0  0
   11.0743  -16.7329   25.7773 N   0  0  0  0  0  0  0  0  0  0  0  0
   11.8747  -17.4473   26.7718 C   0  0  1  0  0  0  0  0  0  0  0  0
   12.0209  -16.5360   27.9387 C   0  0  0  0  0  0  0  0  0  0  0  0
   11.1936  -15.3349   27.9344 C   0  0  0  0  0  0  0  0  0  0  0  0
   10.5942  -14.7955   26.8195 C   0  0  0  0  0  0  0  0  0  0  0  0
    9.8288  -13.6555   26.9327 C   0  0  0  0  0  0  0  0  0  0  0  0
    9.6420  -13.0270   28.1537 C   0  0  0  0  0  0  0  0  0  0  0  0
   10.2351  -13.5541   29.2800 C   0  0  0  0  0  0  0  0  0  0  0  0
   10.9879  -14.6823   29.1448 C   0  0  0  0  0  0  0  0  0  0  0  0
   11.2674  -18.7276   27.1453 C   0  0  0  0  0  0  0  0  0  0  0  0
   10.0473  -19.1454   26.6394 O   0  0  0  0  0  0  0  0  0  0  0  0
   11.8928  -19.4667   27.9613 O   0  0  0  0  0  0  0  0  0  0  0  0
  2  3  1  1
  2  1  1  0
  4  2  1  0
  5  4  1  0
  5  6  1  1
  7  5  1  0
  7  8  2  0
  9  7  1  0
 10  9  1  0
 11 10  1  0
 12 11  2  0
 13 11  1  0
 14 13  1  0
 14 22  1  0
 14 15  1  1
 16 15  1  0
 16 21  2  0
 17 16  1  0
 18 17  2  0
 18 19  1  0
 19 20  2  0
 20 21  1  0
 22 23  1  0
 24 22  2  0
M  END
$$$$
