LGF.pdb
     RDKit          3D

 24 24  0  0  1  0  0  0  0  0999 V2000
    6.4615  -14.0938   20.9197 C   0  0  0  0  0  0  0  0  0  0  0  0
    7.8654  -13.6402   21.2577 C   0  0  2  0  0  0  0  0  0  0  0  0
    7.9904  -12.1326   21.0835 C   0  0  0  0  0  0  0  0  0  0  0  0
    8.8732  -14.3555   20.3495 C   0  0  0  0  0  0  0  0  0  0  0  0
    9.0470  -15.7456   20.9058 C   0  0  2  0  0  0  0  0  0  0  0  0
    7.9093  -16.0578   21.7435 N   0  0  0  0  0  0  0  0  0  0  0  0
   10.2961  -15.8971   21.6731 C   0  0  0  0  0  0  0  0  0  0  0  0
   11.3722  -15.4438   21.2173 O   0  0  0  0  0  0  0  0  0  0  0  0
   10.2509  -16.5720   22.9466 N   0  0  0  0  0  0  0  0  0  0  0  0
   11.4486  -16.7055   23.7241 C   0  0  0  0  0  0  0  0  0  0  0  0
   11.2940  -16.3958   25.1463 C   0  0  0  0  0  0  0  0  0  0  0  0
   12.3415  -16.2982   25.8881 O   0  0  0  0  0  0  0  0  0  0  0  0
   10.0835  -16.1799   25.8434 N   0  0  0  0  0  0  0  0  0  0  0  0
   10.0125  -16.1235   27.3035 C   0  0  1  0  0  0  0  0  0  0  0  0
    8.6474  -15.6423   27.6476 C   0  0  0  0  0  0  0  0  0  0  0  0
    8.2073  -14.4132   26.9976 C   0  0  0  0  0  0  0  0  0  0  0  0
    8.6701  -13.1531   27.3000 C   0  0  0  0  0  0  0  0  0  0  0  0
    8.1849  -12.0591   26.6173 C   0  0  0  0  0  0  0  0  0  0  0  0
    7.2309  -12.1920   25.6209 C   0  0  0  0  0  0  0  0  0  0  0  0
    6.7569  -13.4467   25.3056 C   0  0  0  0  0  0  0  0  0  0  0  0
    7.2509  -14.5147   25.9936 C   0  0  0  0  0  0  0  0  0  0  0  0
   10.3100  -17.4210   27.9160 C   0  0  0  0  0  0  0  0  0  0  0  0
   10.3477  -18.5960   27.1832 O   0  0  0  0  0  0  0  0  0  0  0  0
   10.5382  -17.4524   29.1611 O   0  0  0  0  0  0  0  0  0  0  0  0
  2  3  1  6
  2  1  1  0
  4  2  1  0
  5  4  1  0
  5  6  1  1
  7  5  1  0
  7  8  2  0
  9  7  1  0
 10  9  1  0
 11 10  1  0
 12 11  2  0
 13 11  1  0
 14 13  1  0
 14 22  1  0
 14 15  1  6
 16 15  1  0
 16 21  2  0
 17 16  1  0
 18 17  2  0
 18 19  1  0
 19 20  2  0
 20 21  1  0
 22 23  1  0
 24 22  2  0
M  END
$$$$
