LGF.pdb
     RDKit          3D

 24 24  0  0  1  0  0  0  0  0999 V2000
    7.4149  -14.1952   18.8650 C   0  0  0  0  0  0  0  0  0  0  0  0
    7.3039  -13.7282   20.3005 C   0  0  2  0  0  0  0  0  0  0  0  0
    6.7816  -12.2988   20.3526 C   0  0  0  0  0  0  0  0  0  0  0  0
    8.6776  -13.8066   20.9780 C   0  0  0  0  0  0  0  0  0  0  0  0
    9.0275  -15.2692   21.0797 C   0  0  2  0  0  0  0  0  0  0  0  0
    7.9213  -15.9712   21.6939 N   0  0  0  0  0  0  0  0  0  0  0  0
   10.2636  -15.5044   21.8470 C   0  0  0  0  0  0  0  0  0  0  0  0
   11.3152  -14.8919   21.5470 O   0  0  0  0  0  0  0  0  0  0  0  0
   10.2342  -16.4458   22.9389 N   0  0  0  0  0  0  0  0  0  0  0  0
   11.3907  -16.6057   23.7718 C   0  0  0  0  0  0  0  0  0  0  0  0
   11.1395  -16.4522   25.2057 C   0  0  0  0  0  0  0  0  0  0  0  0
   12.1353  -16.3070   26.0085 O   0  0  0  0  0  0  0  0  0  0  0  0
    9.8831  -16.4426   25.8531 N   0  0  0  0  0  0  0  0  0  0  0  0
    9.7455  -16.4404   27.3095 C   0  0  1  0  0  0  0  0  0  0  0  0
    8.4173  -15.8429   27.6134 C   0  0  0  0  0  0  0  0  0  0  0  0
    8.1689  -14.5060   27.0863 C   0  0  0  0  0  0  0  0  0  0  0  0
    8.6390  -13.3395   27.6445 C   0  0  0  0  0  0  0  0  0  0  0  0
    8.3447  -12.1279   27.0581 C   0  0  0  0  0  0  0  0  0  0  0  0
    7.5784  -12.0482   25.9061 C   0  0  0  0  0  0  0  0  0  0  0  0
    7.0999  -13.2067   25.3342 C   0  0  0  0  0  0  0  0  0  0  0  0
    7.4032  -14.3940   25.9312 C   0  0  0  0  0  0  0  0  0  0  0  0
    9.8869  -17.7852   27.8742 C   0  0  0  0  0  0  0  0  0  0  0  0
    9.9760  -18.9173   27.0807 O   0  0  0  0  0  0  0  0  0  0  0  0
    9.9271  -17.8997   29.1346 O   0  0  0  0  0  0  0  0  0  0  0  0
  2  3  1  6
  2  1  1  0
  4  2  1  0
  5  4  1  0
  5  6  1  1
  7  5  1  0
  7  8  2  0
  9  7  1  0
 10  9  1  0
 11 10  1  0
 12 11  2  0
 13 11  1  0
 14 13  1  0
 14 22  1  0
 14 15  1  6
 16 15  1  0
 16 21  2  0
 17 16  1  0
 18 17  2  0
 18 19  1  0
 19 20  2  0
 20 21  1  0
 22 23  1  0
 24 22  2  0
M  END
$$$$
