LGF.pdb
     RDKit          3D

 24 24  0  0  1  0  0  0  0  0999 V2000
    8.0628  -13.5594   18.6305 C   0  0  0  0  0  0  0  0  0  0  0  0
    7.4922  -13.2981   20.0079 C   0  0  2  0  0  0  0  0  0  0  0  0
    7.3322  -11.8016   20.2388 C   0  0  0  0  0  0  0  0  0  0  0  0
    8.4198  -13.8942   21.0740 C   0  0  0  0  0  0  0  0  0  0  0  0
    8.3497  -15.3920   20.9206 C   0  0  2  0  0  0  0  0  0  0  0  0
    6.9612  -15.7983   20.9443 N   0  0  0  0  0  0  0  0  0  0  0  0
    9.1027  -16.1050   21.9678 C   0  0  0  0  0  0  0  0  0  0  0  0
   10.3398  -15.9359   22.0773 O   0  0  0  0  0  0  0  0  0  0  0  0
    8.3897  -16.9919   22.8535 N   0  0  0  0  0  0  0  0  0  0  0  0
    9.1031  -17.7027   23.8745 C   0  0  0  0  0  0  0  0  0  0  0  0
    9.6384  -16.8620   24.9467 C   0  0  0  0  0  0  0  0  0  0  0  0
   10.6572  -16.1114   24.7107 O   0  0  0  0  0  0  0  0  0  0  0  0
    9.1568  -16.7640   26.2719 N   0  0  0  0  0  0  0  0  0  0  0  0
    9.8774  -16.0453   27.3227 C   0  0  1  0  0  0  0  0  0  0  0  0
    8.8825  -15.1760   28.0068 C   0  0  0  0  0  0  0  0  0  0  0  0
    8.2087  -14.1819   27.1794 C   0  0  0  0  0  0  0  0  0  0  0  0
    6.9790  -14.3537   26.5863 C   0  0  0  0  0  0  0  0  0  0  0  0
    6.4340  -13.3423   25.8257 C   0  0  0  0  0  0  0  0  0  0  0  0
    7.0971  -12.1400   25.6375 C   0  0  0  0  0  0  0  0  0  0  0  0
    8.3293  -11.9516   26.2244 C   0  0  0  0  0  0  0  0  0  0  0  0
    8.8494  -12.9654   26.9726 C   0  0  0  0  0  0  0  0  0  0  0  0
   10.5422  -16.9606   28.2542 C   0  0  0  0  0  0  0  0  0  0  0  0
   11.4284  -16.5186   29.2229 O   0  0  0  0  0  0  0  0  0  0  0  0
   10.2870  -18.1970   28.1568 O   0  0  0  0  0  0  0  0  0  0  0  0
  2  3  1  1
  2  1  1  0
  4  2  1  0
  5  4  1  0
  5  6  1  1
  7  5  1  0
  7  8  2  0
  9  7  1  0
 10  9  1  0
 11 10  1  0
 12 11  2  0
 13 11  1  0
 14 13  1  0
 14 22  1  0
 14 15  1  1
 16 15  1  0
 16 21  2  0
 17 16  1  0
 18 17  2  0
 18 19  1  0
 19 20  2  0
 20 21  1  0
 22 23  1  0
 24 22  2  0
M  END
$$$$
