LGF.pdb
     RDKit          3D

 24 24  0  0  1  0  0  0  0  0999 V2000
    8.8746  -14.1223   18.7760 C   0  0  0  0  0  0  0  0  0  0  0  0
    7.8708  -13.6278   19.7953 C   0  0  2  0  0  0  0  0  0  0  0  0
    7.8950  -12.1069   19.8666 C   0  0  0  0  0  0  0  0  0  0  0  0
    8.1967  -14.2198   21.1721 C   0  0  0  0  0  0  0  0  0  0  0  0
    7.9634  -15.7055   21.0709 C   0  0  2  0  0  0  0  0  0  0  0  0
    6.5965  -15.9353   20.6557 N   0  0  0  0  0  0  0  0  0  0  0  0
    8.2317  -16.4091   22.3378 C   0  0  0  0  0  0  0  0  0  0  0  0
    7.3532  -16.4517   23.2308 O   0  0  0  0  0  0  0  0  0  0  0  0
    9.5149  -17.0403   22.5229 N   0  0  0  0  0  0  0  0  0  0  0  0
    9.8174  -17.6857   23.7674 C   0  0  0  0  0  0  0  0  0  0  0  0
   10.4395  -16.8208   24.7712 C   0  0  0  0  0  0  0  0  0  0  0  0
   11.6667  -16.4620   24.6214 O   0  0  0  0  0  0  0  0  0  0  0  0
    9.8364  -16.3040   25.9405 N   0  0  0  0  0  0  0  0  0  0  0  0
   10.5973  -15.6150   26.9827 C   0  0  1  0  0  0  0  0  0  0  0  0
   10.3742  -14.1576   26.7832 C   0  0  0  0  0  0  0  0  0  0  0  0
    8.9867  -13.7096   26.7528 C   0  0  0  0  0  0  0  0  0  0  0  0
    8.0087  -14.2302   25.9367 C   0  0  0  0  0  0  0  0  0  0  0  0
    6.7259  -13.7308   25.9944 C   0  0  0  0  0  0  0  0  0  0  0  0
    6.3864  -12.7051   26.8624 C   0  0  0  0  0  0  0  0  0  0  0  0
    7.3537  -12.1726   27.6865 C   0  0  0  0  0  0  0  0  0  0  0  0
    8.6159  -12.6818   27.6127 C   0  0  0  0  0  0  0  0  0  0  0  0
   10.2068  -16.0534   28.3253 C   0  0  0  0  0  0  0  0  0  0  0  0
    9.2420  -17.0247   28.5370 O   0  0  0  0  0  0  0  0  0  0  0  0
   10.7809  -15.5150   29.3171 O   0  0  0  0  0  0  0  0  0  0  0  0
  2  3  1  1
  2  1  1  0
  4  2  1  0
  5  4  1  0
  5  6  1  1
  7  5  1  0
  7  8  2  0
  9  7  1  0
 10  9  1  0
 11 10  1  0
 12 11  2  0
 13 11  1  0
 14 13  1  0
 14 22  1  0
 14 15  1  1
 16 15  1  0
 16 21  2  0
 17 16  1  0
 18 17  2  0
 18 19  1  0
 19 20  2  0
 20 21  1  0
 22 23  1  0
 24 22  2  0
M  END
$$$$
