LGF.pdb
     RDKit          3D

 24 24  0  0  1  0  0  0  0  0999 V2000
    8.2046  -13.6530   18.5619 C   0  0  0  0  0  0  0  0  0  0  0  0
    7.4843  -13.6053   19.8922 C   0  0  2  0  0  0  0  0  0  0  0  0
    6.7915  -12.2611   20.0706 C   0  0  0  0  0  0  0  0  0  0  0  0
    8.4860  -13.8310   21.0316 C   0  0  0  0  0  0  0  0  0  0  0  0
    9.0819  -15.1992   20.8196 C   0  0  2  0  0  0  0  0  0  0  0  0
    8.0467  -16.1925   21.0075 N   0  0  0  0  0  0  0  0  0  0  0  0
   10.2132  -15.4711   21.7242 C   0  0  0  0  0  0  0  0  0  0  0  0
   11.2058  -14.7059   21.7361 O   0  0  0  0  0  0  0  0  0  0  0  0
   10.1511  -16.6260   22.5854 N   0  0  0  0  0  0  0  0  0  0  0  0
   11.2246  -16.8909   23.4988 C   0  0  0  0  0  0  0  0  0  0  0  0
   10.8817  -16.7258   24.9122 C   0  0  0  0  0  0  0  0  0  0  0  0
   11.8244  -16.6563   25.7861 O   0  0  0  0  0  0  0  0  0  0  0  0
    9.5855  -16.6282   25.4676 N   0  0  0  0  0  0  0  0  0  0  0  0
    9.3487  -16.5380   26.9083 C   0  0  1  0  0  0  0  0  0  0  0  0
    7.9728  -15.9996   27.0833 C   0  0  0  0  0  0  0  0  0  0  0  0
    7.7022  -14.6976   26.4846 C   0  0  0  0  0  0  0  0  0  0  0  0
    6.9591  -14.4941   25.3446 C   0  0  0  0  0  0  0  0  0  0  0  0
    6.7641  -13.2158   24.8687 C   0  0  0  0  0  0  0  0  0  0  0  0
    7.3020  -12.1133   25.5134 C   0  0  0  0  0  0  0  0  0  0  0  0
    8.0486  -12.2994   26.6562 C   0  0  0  0  0  0  0  0  0  0  0  0
    8.2286  -13.5724   27.1091 C   0  0  0  0  0  0  0  0  0  0  0  0
    9.5226  -17.8322   27.5732 C   0  0  0  0  0  0  0  0  0  0  0  0
    9.6778  -17.9463   28.9451 O   0  0  0  0  0  0  0  0  0  0  0  0
    9.5296  -18.8741   26.8538 O   0  0  0  0  0  0  0  0  0  0  0  0
  2  3  1  1
  2  1  1  0
  4  2  1  0
  5  4  1  0
  5  6  1  1
  7  5  1  0
  7  8  2  0
  9  7  1  0
 10  9  1  0
 11 10  1  0
 12 11  2  0
 13 11  1  0
 14 13  1  0
 14 22  1  0
 14 15  1  6
 16 15  1  0
 16 21  2  0
 17 16  1  0
 18 17  2  0
 18 19  1  0
 19 20  2  0
 20 21  1  0
 22 23  1  0
 24 22  2  0
M  END
$$$$
