LGF.pdb
     RDKit          3D

 24 24  0  0  1  0  0  0  0  0999 V2000
    6.9127  -14.0037   21.3146 C   0  0  0  0  0  0  0  0  0  0  0  0
    7.8563  -13.6710   20.1788 C   0  0  2  0  0  0  0  0  0  0  0  0
    7.4138  -12.3920   19.4810 C   0  0  0  0  0  0  0  0  0  0  0  0
    7.8861  -14.8297   19.1743 C   0  0  0  0  0  0  0  0  0  0  0  0
    8.3680  -16.0433   19.9272 C   0  0  2  0  0  0  0  0  0  0  0  0
    7.2769  -16.5605   20.7245 N   0  0  0  0  0  0  0  0  0  0  0  0
    9.5289  -15.7529   20.7874 C   0  0  0  0  0  0  0  0  0  0  0  0
   10.6076  -15.3685   20.2779 O   0  0  0  0  0  0  0  0  0  0  0  0
    9.3951  -15.9198   22.2135 N   0  0  0  0  0  0  0  0  0  0  0  0
   10.5238  -15.6845   23.0663 C   0  0  0  0  0  0  0  0  0  0  0  0
   10.2712  -15.9021   24.4916 C   0  0  0  0  0  0  0  0  0  0  0  0
   11.2264  -15.7239   25.3360 O   0  0  0  0  0  0  0  0  0  0  0  0
    9.0540  -16.3022   25.0886 N   0  0  0  0  0  0  0  0  0  0  0  0
    8.9476  -16.6552   26.5042 C   0  0  1  0  0  0  0  0  0  0  0  0
    7.6637  -16.0839   26.9927 C   0  0  0  0  0  0  0  0  0  0  0  0
    7.4659  -14.6542   26.7837 C   0  0  0  0  0  0  0  0  0  0  0  0
    6.6813  -14.1037   25.7963 C   0  0  0  0  0  0  0  0  0  0  0  0
    6.5636  -12.7348   25.6934 C   0  0  0  0  0  0  0  0  0  0  0  0
    7.2212  -11.8837   26.5673 C   0  0  0  0  0  0  0  0  0  0  0  0
    8.0108  -12.4185   27.5617 C   0  0  0  0  0  0  0  0  0  0  0  0
    8.1129  -13.7752   27.6450 C   0  0  0  0  0  0  0  0  0  0  0  0
    9.0213  -18.1037   26.7138 C   0  0  0  0  0  0  0  0  0  0  0  0
    9.1222  -19.0009   25.6631 O   0  0  0  0  0  0  0  0  0  0  0  0
    8.9901  -18.5346   27.9040 O   0  0  0  0  0  0  0  0  0  0  0  0
  2  3  1  6
  2  1  1  0
  4  2  1  0
  5  4  1  0
  5  6  1  1
  7  5  1  0
  7  8  2  0
  9  7  1  0
 10  9  1  0
 11 10  1  0
 12 11  2  0
 13 11  1  0
 14 13  1  0
 14 22  1  0
 14 15  1  6
 16 15  1  0
 16 21  2  0
 17 16  1  0
 18 17  2  0
 18 19  1  0
 19 20  2  0
 20 21  1  0
 22 23  1  0
 24 22  2  0
M  END
$$$$
