LGF.pdb
     RDKit          3D

 24 24  0  0  1  0  0  0  0  0999 V2000
    7.9768  -12.2591   19.3511 C   0  0  0  0  0  0  0  0  0  0  0  0
    7.8392  -13.6682   19.8863 C   0  0  2  0  0  0  0  0  0  0  0  0
    6.4608  -13.8677   20.5020 C   0  0  0  0  0  0  0  0  0  0  0  0
    8.9235  -13.9304   20.9388 C   0  0  0  0  0  0  0  0  0  0  0  0
    9.1949  -15.4129   20.9211 C   0  0  2  0  0  0  0  0  0  0  0  0
    8.0596  -16.0874   20.3295 N   0  0  0  0  0  0  0  0  0  0  0  0
    9.4617  -15.9566   22.2647 C   0  0  0  0  0  0  0  0  0  0  0  0
   10.5957  -15.8242   22.7820 O   0  0  0  0  0  0  0  0  0  0  0  0
    8.3985  -16.6370   22.9618 N   0  0  0  0  0  0  0  0  0  0  0  0
    8.6469  -17.2100   24.2528 C   0  0  0  0  0  0  0  0  0  0  0  0
    9.3208  -16.3198   25.1994 C   0  0  0  0  0  0  0  0  0  0  0  0
   10.1671  -15.4554   24.7592 O   0  0  0  0  0  0  0  0  0  0  0  0
    9.1534  -16.2859   26.6025 N   0  0  0  0  0  0  0  0  0  0  0  0
   10.0126  -15.4923   27.4810 C   0  0  1  0  0  0  0  0  0  0  0  0
    9.1353  -14.4950   28.1513 C   0  0  0  0  0  0  0  0  0  0  0  0
    8.3516  -13.6273   27.2796 C   0  0  0  0  0  0  0  0  0  0  0  0
    8.7951  -12.4391   26.7460 C   0  0  0  0  0  0  0  0  0  0  0  0
    7.9677  -11.6996   25.9294 C   0  0  0  0  0  0  0  0  0  0  0  0
    6.6837  -12.1231   25.6250 C   0  0  0  0  0  0  0  0  0  0  0  0
    6.2241  -13.3107   26.1509 C   0  0  0  0  0  0  0  0  0  0  0  0
    7.0594  -14.0259   26.9562 C   0  0  0  0  0  0  0  0  0  0  0  0
   10.7315  -16.3298   28.4450 C   0  0  0  0  0  0  0  0  0  0  0  0
   10.5204  -17.6953   28.5436 O   0  0  0  0  0  0  0  0  0  0  0  0
   11.5722  -15.7697   29.2085 O   0  0  0  0  0  0  0  0  0  0  0  0
  2  3  1  1
  2  1  1  0
  4  2  1  0
  5  4  1  0
  5  6  1  1
  7  5  1  0
  7  8  2  0
  9  7  1  0
 10  9  1  0
 11 10  1  0
 12 11  2  0
 13 11  1  0
 14 13  1  0
 14 22  1  0
 14 15  1  1
 16 15  1  0
 16 21  2  0
 17 16  1  0
 18 17  2  0
 18 19  1  0
 19 20  2  0
 20 21  1  0
 22 23  1  0
 24 22  2  0
M  END
$$$$
