LGF.pdb
     RDKit          3D

 24 24  0  0  1  0  0  0  0  0999 V2000
    7.2113  -13.5746   21.7022 C   0  0  0  0  0  0  0  0  0  0  0  0
    8.1027  -13.6889   20.4843 C   0  0  2  0  0  0  0  0  0  0  0  0
    7.8877  -12.4996   19.5580 C   0  0  0  0  0  0  0  0  0  0  0  0
    7.7952  -14.9933   19.7384 C   0  0  0  0  0  0  0  0  0  0  0  0
    8.0591  -16.1183   20.7063 C   0  0  2  0  0  0  0  0  0  0  0  0
    7.0548  -16.0824   21.7473 N   0  0  0  0  0  0  0  0  0  0  0  0
    9.4058  -16.0504   21.3009 C   0  0  0  0  0  0  0  0  0  0  0  0
   10.4174  -16.0104   20.5619 O   0  0  0  0  0  0  0  0  0  0  0  0
    9.5301  -16.0314   22.7374 N   0  0  0  0  0  0  0  0  0  0  0  0
   10.8314  -15.9828   23.3384 C   0  0  0  0  0  0  0  0  0  0  0  0
   10.8299  -15.9485   24.8018 C   0  0  0  0  0  0  0  0  0  0  0  0
   11.9415  -15.7849   25.4300 O   0  0  0  0  0  0  0  0  0  0  0  0
    9.7103  -16.0781   25.6547 N   0  0  0  0  0  0  0  0  0  0  0  0
    9.8290  -16.1221   27.1121 C   0  0  1  0  0  0  0  0  0  0  0  0
    8.5464  -15.6064   27.6621 C   0  0  0  0  0  0  0  0  0  0  0  0
    8.0256  -14.3834   27.0619 C   0  0  0  0  0  0  0  0  0  0  0  0
    8.4073  -13.1091   27.4137 C   0  0  0  0  0  0  0  0  0  0  0  0
    7.8501  -12.0225   26.7756 C   0  0  0  0  0  0  0  0  0  0  0  0
    6.9032  -12.1772   25.7756 C   0  0  0  0  0  0  0  0  0  0  0  0
    6.5099  -13.4464   25.4111 C   0  0  0  0  0  0  0  0  0  0  0  0
    7.0742  -14.5067   26.0556 C   0  0  0  0  0  0  0  0  0  0  0  0
   10.1329  -17.4716   27.5956 C   0  0  0  0  0  0  0  0  0  0  0  0
   10.4741  -17.7280   28.9135 O   0  0  0  0  0  0  0  0  0  0  0  0
   10.0774  -18.4269   26.7663 O   0  0  0  0  0  0  0  0  0  0  0  0
  2  3  1  6
  2  1  1  0
  4  2  1  0
  5  4  1  0
  5  6  1  1
  7  5  1  0
  7  8  2  0
  9  7  1  0
 10  9  1  0
 11 10  1  0
 12 11  2  0
 13 11  1  0
 14 13  1  0
 14 22  1  0
 14 15  1  1
 16 15  1  0
 16 21  2  0
 17 16  1  0
 18 17  2  0
 18 19  1  0
 19 20  2  0
 20 21  1  0
 22 23  1  0
 24 22  2  0
M  END
$$$$
