LGF.pdb
     RDKit          3D

 24 24  0  0  1  0  0  0  0  0999 V2000
    7.9118  -13.7337   18.9364 C   0  0  0  0  0  0  0  0  0  0  0  0
    7.4806  -13.5758   20.3786 C   0  0  2  0  0  0  0  0  0  0  0  0
    6.8382  -12.2118   20.5922 C   0  0  0  0  0  0  0  0  0  0  0  0
    8.6954  -13.7305   21.3020 C   0  0  0  0  0  0  0  0  0  0  0  0
    9.2244  -15.1261   21.0916 C   0  0  2  0  0  0  0  0  0  0  0  0
    8.1564  -16.0711   21.3366 N   0  0  0  0  0  0  0  0  0  0  0  0
   10.3778  -15.4317   21.9567 C   0  0  0  0  0  0  0  0  0  0  0  0
   11.3729  -14.6697   21.9693 O   0  0  0  0  0  0  0  0  0  0  0  0
   10.3340  -16.6153   22.7792 N   0  0  0  0  0  0  0  0  0  0  0  0
   11.4386  -16.9247   23.6400 C   0  0  0  0  0  0  0  0  0  0  0  0
   11.1639  -16.7699   25.0694 C   0  0  0  0  0  0  0  0  0  0  0  0
   12.1472  -16.7199   25.8989 O   0  0  0  0  0  0  0  0  0  0  0  0
    9.8964  -16.6630   25.6856 N   0  0  0  0  0  0  0  0  0  0  0  0
    9.7320  -16.4972   27.1297 C   0  0  1  0  0  0  0  0  0  0  0  0
    8.3574  -15.9710   27.3467 C   0  0  0  0  0  0  0  0  0  0  0  0
    8.0939  -14.6199   26.8652 C   0  0  0  0  0  0  0  0  0  0  0  0
    8.8860  -13.5242   27.1211 C   0  0  0  0  0  0  0  0  0  0  0  0
    8.5418  -12.2914   26.6109 C   0  0  0  0  0  0  0  0  0  0  0  0
    7.4054  -12.1198   25.8366 C   0  0  0  0  0  0  0  0  0  0  0  0
    6.6014  -13.2066   25.5707 C   0  0  0  0  0  0  0  0  0  0  0  0
    6.9609  -14.4165   26.0855 C   0  0  0  0  0  0  0  0  0  0  0  0
    9.9632  -17.7499   27.8539 C   0  0  0  0  0  0  0  0  0  0  0  0
   10.1488  -17.7900   29.2261 O   0  0  0  0  0  0  0  0  0  0  0  0
    9.9919  -18.8258   27.1868 O   0  0  0  0  0  0  0  0  0  0  0  0
  2  3  1  6
  2  1  1  0
  4  2  1  0
  5  4  1  0
  5  6  1  1
  7  5  1  0
  7  8  2  0
  9  7  1  0
 10  9  1  0
 11 10  1  0
 12 11  2  0
 13 11  1  0
 14 13  1  0
 14 22  1  0
 14 15  1  6
 16 15  1  0
 16 21  2  0
 17 16  1  0
 18 17  2  0
 18 19  1  0
 19 20  2  0
 20 21  1  0
 22 23  1  0
 24 22  2  0
M  END
$$$$
