LGF.pdb
     RDKit          3D

 24 24  0  0  1  0  0  0  0  0999 V2000
    6.5913  -13.9560   21.1805 C   0  0  0  0  0  0  0  0  0  0  0  0
    7.8255  -13.7637   20.3256 C   0  0  2  0  0  0  0  0  0  0  0  0
    7.7689  -12.4210   19.6096 C   0  0  0  0  0  0  0  0  0  0  0  0
    7.9260  -14.8985   19.2989 C   0  0  0  0  0  0  0  0  0  0  0  0
    8.2759  -16.1475   20.0666 C   0  0  2  0  0  0  0  0  0  0  0  0
    7.1935  -16.4537   20.9767 N   0  0  0  0  0  0  0  0  0  0  0  0
    9.5412  -16.0194   20.8114 C   0  0  0  0  0  0  0  0  0  0  0  0
   10.6197  -15.8559   20.1939 O   0  0  0  0  0  0  0  0  0  0  0  0
    9.5088  -16.0861   22.2514 N   0  0  0  0  0  0  0  0  0  0  0  0
   10.7274  -15.9611   22.9971 C   0  0  0  0  0  0  0  0  0  0  0  0
   10.5691  -16.0487   24.4496 C   0  0  0  0  0  0  0  0  0  0  0  0
   11.5939  -15.8697   25.2078 O   0  0  0  0  0  0  0  0  0  0  0  0
    9.3776  -16.3176   25.1610 N   0  0  0  0  0  0  0  0  0  0  0  0
    9.3326  -16.4069   26.6204 C   0  0  1  0  0  0  0  0  0  0  0  0
    7.9932  -15.9122   27.0386 C   0  0  0  0  0  0  0  0  0  0  0  0
    7.6118  -14.5866   26.5649 C   0  0  0  0  0  0  0  0  0  0  0  0
    6.7754  -14.3414   25.5002 C   0  0  0  0  0  0  0  0  0  0  0  0
    6.4798  -13.0444   25.1413 C   0  0  0  0  0  0  0  0  0  0  0  0
    7.0074  -11.9641   25.8306 C   0  0  0  0  0  0  0  0  0  0  0  0
    7.8465  -12.1921   26.8993 C   0  0  0  0  0  0  0  0  0  0  0  0
    8.1253  -13.4830   27.2368 C   0  0  0  0  0  0  0  0  0  0  0  0
    9.5886  -17.7702   27.0930 C   0  0  0  0  0  0  0  0  0  0  0  0
    9.8527  -18.0571   28.4223 O   0  0  0  0  0  0  0  0  0  0  0  0
    9.5644  -18.7085   26.2431 O   0  0  0  0  0  0  0  0  0  0  0  0
  2  3  1  6
  2  1  1  0
  4  2  1  0
  5  4  1  0
  5  6  1  1
  7  5  1  0
  7  8  2  0
  9  7  1  0
 10  9  1  0
 11 10  1  0
 12 11  2  0
 13 11  1  0
 14 13  1  0
 14 22  1  0
 14 15  1  6
 16 15  1  0
 16 21  2  0
 17 16  1  0
 18 17  2  0
 18 19  1  0
 19 20  2  0
 20 21  1  0
 22 23  1  0
 24 22  2  0
M  END
$$$$
