YYK.pdb
     RDKit          3D

 34 35  0  0  1  0  0  0  0  0999 V2000
    9.8899  -21.2529   15.4453 O   0  0  0  0  0  0  0  0  0  0  0  0
    9.9720  -20.5603   16.6553 C   0  0  0  0  0  0  0  0  0  0  0  0
    8.8356  -20.0767   17.2717 C   0  0  0  0  0  0  0  0  0  0  0  0
    8.8976  -19.3908   18.4663 C   0  0  0  0  0  0  0  0  0  0  0  0
   10.1013  -19.1584   19.0975 C   0  0  0  0  0  0  0  0  0  0  0  0
   10.1562  -18.4133   20.3930 C   0  0  0  0  0  0  0  0  0  0  0  0
   10.2062  -16.9184   20.0526 C   0  0  2  0  0  0  0  0  0  0  0  0
   11.5055  -16.6358   19.4675 N   0  0  0  0  0  0  0  0  0  0  0  0
   10.0654  -16.1349   21.3179 C   0  0  0  0  0  0  0  0  0  0  0  0
   11.0565  -16.0300   22.1139 O   0  0  0  0  0  0  0  0  0  0  0  0
   11.2427  -19.6423   18.4815 C   0  0  0  0  0  0  0  0  0  0  0  0
   11.1795  -20.3305   17.2826 C   0  0  0  0  0  0  0  0  0  0  0  0
    6.5999  -11.9531   28.2471 O   0  0  0  0  0  0  0  0  0  0  0  0
    6.8131  -12.4508   26.9678 C   0  0  0  0  0  0  0  0  0  0  0  0
    7.7422  -11.8648   26.1347 C   0  0  0  0  0  0  0  0  0  0  0  0
    7.9529  -12.3705   24.8467 C   0  0  0  0  0  0  0  0  0  0  0  0
    7.2606  -13.4514   24.3585 C   0  0  0  0  0  0  0  0  0  0  0  0
    7.4446  -14.0239   23.0044 C   0  0  0  0  0  0  0  0  0  0  0  0
    8.6947  -14.8895   22.9347 C   0  0  2  0  0  0  0  0  0  0  0  0
    8.8458  -15.5016   21.6548 N   0  0  0  0  0  0  0  0  0  0  0  0
    8.6630  -15.8254   24.0781 C   0  0  0  0  0  0  0  0  0  0  0  0
    7.7233  -16.6835   24.1852 O   0  0  0  0  0  0  0  0  0  0  0  0
    6.3237  -14.0245   25.2294 C   0  0  0  0  0  0  0  0  0  0  0  0
    6.1047  -13.5381   26.5006 C   0  0  0  0  0  0  0  0  0  0  0  0
    9.6381  -15.8439   25.1011 N   0  0  0  0  0  0  0  0  0  0  0  0
    9.7782  -16.9600   26.0371 C   0  0  1  0  0  0  0  0  0  0  0  0
   10.3038  -18.1608   25.3024 C   0  0  0  0  0  0  0  0  0  0  0  0
   10.5528  -19.3745   26.0956 C   0  0  0  0  0  0  0  0  0  0  0  0
   10.9792  -20.5588   25.3094 C   0  0  0  0  0  0  0  0  0  0  0  0
   11.3476  -21.6909   26.2598 C   0  0  0  0  0  0  0  0  0  0  0  0
   11.8665  -22.7885   25.4298 N   0  0  0  0  0  0  0  0  0  0  0  0
   10.4883  -16.5251   27.2291 C   0  0  0  0  0  0  0  0  0  0  0  0
   11.8355  -16.1082   27.2377 O   0  0  0  0  0  0  0  0  0  0  0  0
    9.9112  -16.4981   28.3516 O   0  0  0  0  0  0  0  0  0  0  0  0
  2  1  1  0
  3  2  2  0
  4  3  1  0
  5  4  2  0
  5 11  1  0
  6  5  1  0
  7  8  1  1
  7  6  1  0
  9  7  1  0
  9 10  2  0
 11 12  2  0
 12  2  1  0
 14 24  2  0
 14 13  1  0
 15 14  1  0
 16 17  1  0
 16 15  2  0
 17 23  2  0
 18 17  1  0
 19 18  1  6
 19 20  1  0
 20  9  1  0
 21 19  1  0
 22 21  2  0
 23 24  1  0
 25 21  1  0
 26 25  1  0
 26 27  1  6
 27 28  1  0
 28 29  1  0
 29 30  1  0
 30 31  1  0
 32 26  1  0
 33 32  1  0
 34 32  2  0
M  END
$$$$
