YYK.pdb
     RDKit          3D

 34 35  0  0  1  0  0  0  0  0999 V2000
    4.9141  -19.4880   15.9163 O   0  0  0  0  0  0  0  0  0  0  0  0
    5.7381  -19.1356   16.9874 C   0  0  0  0  0  0  0  0  0  0  0  0
    6.2358  -20.0976   17.8430 C   0  0  0  0  0  0  0  0  0  0  0  0
    7.0506  -19.7681   18.9054 C   0  0  0  0  0  0  0  0  0  0  0  0
    7.4038  -18.4596   19.1588 C   0  0  0  0  0  0  0  0  0  0  0  0
    8.2882  -18.1143   20.3142 C   0  0  0  0  0  0  0  0  0  0  0  0
    8.4197  -16.5863   20.3418 C   0  0  2  0  0  0  0  0  0  0  0  0
    9.2879  -16.1919   19.2459 N   0  0  0  0  0  0  0  0  0  0  0  0
    9.0580  -16.1845   21.6324 C   0  0  0  0  0  0  0  0  0  0  0  0
   10.3290  -16.1214   21.7203 O   0  0  0  0  0  0  0  0  0  0  0  0
    6.9061  -17.4926   18.3023 C   0  0  0  0  0  0  0  0  0  0  0  0
    6.0885  -17.8242   17.2363 C   0  0  0  0  0  0  0  0  0  0  0  0
   10.4641  -13.9707   30.0236 O   0  0  0  0  0  0  0  0  0  0  0  0
    9.8502  -14.2079   28.8002 C   0  0  0  0  0  0  0  0  0  0  0  0
    9.2512  -15.4225   28.5416 C   0  0  0  0  0  0  0  0  0  0  0  0
    8.6342  -15.6560   27.3072 C   0  0  0  0  0  0  0  0  0  0  0  0
    8.5950  -14.7088   26.3136 C   0  0  0  0  0  0  0  0  0  0  0  0
    7.9570  -14.9058   24.9909 C   0  0  0  0  0  0  0  0  0  0  0  0
    8.9159  -15.5593   24.0058 C   0  0  2  0  0  0  0  0  0  0  0  0
    8.2761  -15.8698   22.7689 N   0  0  0  0  0  0  0  0  0  0  0  0
    9.5551  -16.7048   24.6866 C   0  0  0  0  0  0  0  0  0  0  0  0
    8.8773  -17.7502   24.9674 O   0  0  0  0  0  0  0  0  0  0  0  0
    9.2125  -13.4853   26.6073 C   0  0  0  0  0  0  0  0  0  0  0  0
    9.8242  -13.2399   27.8181 C   0  0  0  0  0  0  0  0  0  0  0  0
   10.9176  -16.7310   25.0614 N   0  0  0  0  0  0  0  0  0  0  0  0
   11.5531  -17.9140   25.6429 C   0  0  1  0  0  0  0  0  0  0  0  0
   12.8896  -18.1302   24.9911 C   0  0  0  0  0  0  0  0  0  0  0  0
   13.6805  -19.2817   25.4523 C   0  0  0  0  0  0  0  0  0  0  0  0
   14.9379  -19.5183   24.7001 C   0  0  0  0  0  0  0  0  0  0  0  0
   15.6526  -20.7327   25.2789 C   0  0  0  0  0  0  0  0  0  0  0  0
   16.8041  -21.0025   24.4048 N   0  0  0  0  0  0  0  0  0  0  0  0
   11.5059  -17.8427   27.0945 C   0  0  0  0  0  0  0  0  0  0  0  0
   12.1689  -16.8604   27.8589 O   0  0  0  0  0  0  0  0  0  0  0  0
   10.8445  -18.6859   27.7619 O   0  0  0  0  0  0  0  0  0  0  0  0
  2  1  1  0
  3  2  2  0
  4  3  1  0
  5  4  2  0
  5 11  1  0
  6  5  1  0
  7  8  1  6
  7  6  1  0
  9  7  1  0
  9 10  2  0
 11 12  2  0
 12  2  1  0
 14 24  2  0
 14 13  1  0
 15 14  1  0
 16 17  1  0
 16 15  2  0
 17 23  2  0
 18 17  1  0
 19 18  1  1
 19 20  1  0
 20  9  1  0
 21 19  1  0
 22 21  2  0
 23 24  1  0
 25 21  1  0
 26 25  1  0
 26 27  1  1
 27 28  1  0
 28 29  1  0
 29 30  1  0
 30 31  1  0
 32 26  1  0
 33 32  1  0
 34 32  2  0
M  END
$$$$
