YYK.pdb
     RDKit          3D

 34 35  0  0  1  0  0  0  0  0999 V2000
    8.8459  -21.8114   15.9748 O   0  0  0  0  0  0  0  0  0  0  0  0
    9.0720  -21.0568   17.1281 C   0  0  0  0  0  0  0  0  0  0  0  0
   10.3493  -20.8867   17.6226 C   0  0  0  0  0  0  0  0  0  0  0  0
   10.5912  -20.1451   18.7597 C   0  0  0  0  0  0  0  0  0  0  0  0
    9.5640  -19.5403   19.4528 C   0  0  0  0  0  0  0  0  0  0  0  0
    9.8386  -18.7384   20.6849 C   0  0  0  0  0  0  0  0  0  0  0  0
    9.7716  -17.2589   20.2853 C   0  0  2  0  0  0  0  0  0  0  0  0
   10.9963  -16.9310   19.5760 N   0  0  0  0  0  0  0  0  0  0  0  0
    9.6965  -16.4310   21.5276 C   0  0  0  0  0  0  0  0  0  0  0  0
   10.7412  -16.2548   22.2381 O   0  0  0  0  0  0  0  0  0  0  0  0
    8.2819  -19.7092   18.9590 C   0  0  0  0  0  0  0  0  0  0  0  0
    8.0401  -20.4536   17.8178 C   0  0  0  0  0  0  0  0  0  0  0  0
    6.8965  -11.6844   28.3498 O   0  0  0  0  0  0  0  0  0  0  0  0
    6.9394  -12.3475   27.1299 C   0  0  0  0  0  0  0  0  0  0  0  0
    6.2012  -13.4948   26.9305 C   0  0  0  0  0  0  0  0  0  0  0  0
    6.2483  -14.1588   25.6994 C   0  0  0  0  0  0  0  0  0  0  0  0
    7.0147  -13.7115   24.6512 C   0  0  0  0  0  0  0  0  0  0  0  0
    7.1006  -14.3772   23.3303 C   0  0  0  0  0  0  0  0  0  0  0  0
    8.4247  -15.1094   23.1647 C   0  0  2  0  0  0  0  0  0  0  0  0
    8.4810  -15.8332   21.9365 N   0  0  0  0  0  0  0  0  0  0  0  0
    8.6512  -15.9182   24.3807 C   0  0  0  0  0  0  0  0  0  0  0  0
    7.8052  -16.8080   24.7321 O   0  0  0  0  0  0  0  0  0  0  0  0
    7.7530  -12.5433   24.8854 C   0  0  0  0  0  0  0  0  0  0  0  0
    7.7173  -11.8779   26.0922 C   0  0  0  0  0  0  0  0  0  0  0  0
    9.7833  -15.7764   25.2149 N   0  0  0  0  0  0  0  0  0  0  0  0
   10.0071  -16.6182   26.3908 C   0  0  1  0  0  0  0  0  0  0  0  0
   11.1713  -17.5324   26.1322 C   0  0  0  0  0  0  0  0  0  0  0  0
   11.0018  -18.5518   25.0852 C   0  0  0  0  0  0  0  0  0  0  0  0
   12.1804  -19.4274   24.8683 C   0  0  0  0  0  0  0  0  0  0  0  0
   11.9115  -20.3547   23.6901 C   0  0  0  0  0  0  0  0  0  0  0  0
   13.1645  -21.0781   23.4262 N   0  0  0  0  0  0  0  0  0  0  0  0
   10.0367  -15.7994   27.5920 C   0  0  0  0  0  0  0  0  0  0  0  0
   10.0019  -14.3896   27.5879 O   0  0  0  0  0  0  0  0  0  0  0  0
   10.0955  -16.3312   28.7355 O   0  0  0  0  0  0  0  0  0  0  0  0
  2  1  1  0
  3  2  2  0
  4  3  1  0
  5  4  2  0
  5 11  1  0
  6  5  1  0
  7  8  1  1
  7  6  1  0
  9  7  1  0
  9 10  2  0
 11 12  2  0
 12  2  1  0
 14 24  2  0
 14 13  1  0
 15 14  1  0
 16 17  1  0
 16 15  2  0
 17 23  2  0
 18 17  1  0
 19 18  1  1
 19 20  1  0
 20  9  1  0
 21 19  1  0
 22 21  2  0
 23 24  1  0
 25 21  1  0
 26 25  1  0
 26 27  1  6
 27 28  1  0
 28 29  1  0
 29 30  1  0
 30 31  1  0
 32 26  1  0
 33 32  1  0
 34 32  2  0
M  END
$$$$
