YYK.pdb
     RDKit          3D

 34 35  0  0  1  0  0  0  0  0999 V2000
    8.2713  -21.8432   15.9271 O   0  0  0  0  0  0  0  0  0  0  0  0
    8.8587  -21.1162   16.9650 C   0  0  0  0  0  0  0  0  0  0  0  0
    9.8458  -20.1867   16.7067 C   0  0  0  0  0  0  0  0  0  0  0  0
   10.4368  -19.4600   17.7187 C   0  0  0  0  0  0  0  0  0  0  0  0
   10.0653  -19.6317   19.0354 C   0  0  0  0  0  0  0  0  0  0  0  0
   10.7134  -18.8377   20.1244 C   0  0  0  0  0  0  0  0  0  0  0  0
    9.7982  -17.6421   20.4178 C   0  0  2  0  0  0  0  0  0  0  0  0
    9.8723  -16.7336   19.2867 N   0  0  0  0  0  0  0  0  0  0  0  0
   10.3052  -16.9394   21.6358 C   0  0  0  0  0  0  0  0  0  0  0  0
   11.2655  -16.1058   21.5351 O   0  0  0  0  0  0  0  0  0  0  0  0
    9.0755  -20.5633   19.2973 C   0  0  0  0  0  0  0  0  0  0  0  0
    8.4830  -21.2922   18.2811 C   0  0  0  0  0  0  0  0  0  0  0  0
   11.1109  -13.9830   29.9027 O   0  0  0  0  0  0  0  0  0  0  0  0
   10.6212  -14.5330   28.7247 C   0  0  0  0  0  0  0  0  0  0  0  0
   10.3710  -13.7332   27.6299 C   0  0  0  0  0  0  0  0  0  0  0  0
    9.8776  -14.2927   26.4456 C   0  0  0  0  0  0  0  0  0  0  0  0
    9.6235  -15.6362   26.3169 C   0  0  0  0  0  0  0  0  0  0  0  0
    9.1005  -16.2774   25.0879 C   0  0  0  0  0  0  0  0  0  0  0  0
   10.1928  -16.4389   24.0402 C   0  0  2  0  0  0  0  0  0  0  0  0
    9.7383  -17.1809   22.9095 N   0  0  0  0  0  0  0  0  0  0  0  0
   11.3886  -16.9890   24.7124 C   0  0  0  0  0  0  0  0  0  0  0  0
   11.3132  -18.0764   25.3779 O   0  0  0  0  0  0  0  0  0  0  0  0
    9.8881  -16.4219   27.4470 C   0  0  0  0  0  0  0  0  0  0  0  0
   10.3741  -15.8859   28.6205 C   0  0  0  0  0  0  0  0  0  0  0  0
   12.6620  -16.3775   24.6676 N   0  0  0  0  0  0  0  0  0  0  0  0
   13.8628  -17.0153   25.2085 C   0  0  1  0  0  0  0  0  0  0  0  0
   15.0788  -16.4050   24.5707 C   0  0  0  0  0  0  0  0  0  0  0  0
   15.5461  -17.0049   23.3113 C   0  0  0  0  0  0  0  0  0  0  0  0
   15.7027  -16.0514   22.1848 C   0  0  0  0  0  0  0  0  0  0  0  0
   16.2631  -16.7867   20.9740 C   0  0  0  0  0  0  0  0  0  0  0  0
   16.2561  -15.8298   19.8572 N   0  0  0  0  0  0  0  0  0  0  0  0
   13.7986  -17.0488   26.6607 C   0  0  0  0  0  0  0  0  0  0  0  0
   13.1218  -16.0907   27.4436 O   0  0  0  0  0  0  0  0  0  0  0  0
   14.3646  -17.9705   27.3117 O   0  0  0  0  0  0  0  0  0  0  0  0
  2  1  1  0
  3  2  2  0
  4  3  1  0
  5  4  2  0
  5 11  1  0
  6  5  1  0
  7  8  1  6
  7  6  1  0
  9  7  1  0
  9 10  2  0
 11 12  2  0
 12  2  1  0
 14 24  2  0
 14 13  1  0
 15 14  1  0
 16 17  1  0
 16 15  2  0
 17 23  2  0
 18 17  1  0
 19 18  1  1
 19 20  1  0
 20  9  1  0
 21 19  1  0
 22 21  2  0
 23 24  1  0
 25 21  1  0
 26 25  1  0
 26 27  1  1
 27 28  1  0
 28 29  1  0
 29 30  1  0
 30 31  1  0
 32 26  1  0
 33 32  1  0
 34 32  2  0
M  END
$$$$
