YYK.pdb
     RDKit          3D

 34 35  0  0  1  0  0  0  0  0999 V2000
    6.1924  -13.4692   15.5267 O   0  0  0  0  0  0  0  0  0  0  0  0
    6.6200  -13.8910   16.7876 C   0  0  0  0  0  0  0  0  0  0  0  0
    6.8737  -15.2243   17.0388 C   0  0  0  0  0  0  0  0  0  0  0  0
    7.2964  -15.6587   18.2774 C   0  0  0  0  0  0  0  0  0  0  0  0
    7.4842  -14.7766   19.3204 C   0  0  0  0  0  0  0  0  0  0  0  0
    7.9430  -15.2595   20.6594 C   0  0  0  0  0  0  0  0  0  0  0  0
    9.2284  -14.4945   20.9994 C   0  0  2  0  0  0  0  0  0  0  0  0
   10.2395  -14.8622   20.0233 N   0  0  0  0  0  0  0  0  0  0  0  0
    9.6912  -14.9167   22.3567 C   0  0  0  0  0  0  0  0  0  0  0  0
   10.6189  -15.7848   22.4703 O   0  0  0  0  0  0  0  0  0  0  0  0
    7.2305  -13.4388   19.0713 C   0  0  0  0  0  0  0  0  0  0  0  0
    6.8063  -13.0037   17.8281 C   0  0  0  0  0  0  0  0  0  0  0  0
   10.5852  -16.0055   31.0218 O   0  0  0  0  0  0  0  0  0  0  0  0
   10.1604  -15.5394   29.7840 C   0  0  0  0  0  0  0  0  0  0  0  0
   10.6859  -14.3798   29.2548 C   0  0  0  0  0  0  0  0  0  0  0  0
   10.2543  -13.9148   28.0073 C   0  0  0  0  0  0  0  0  0  0  0  0
    9.3069  -14.5750   27.2638 C   0  0  0  0  0  0  0  0  0  0  0  0
    8.8152  -14.1251   25.9405 C   0  0  0  0  0  0  0  0  0  0  0  0
    9.6066  -14.7657   24.8091 C   0  0  2  0  0  0  0  0  0  0  0  0
    9.1175  -14.3695   23.5287 N   0  0  0  0  0  0  0  0  0  0  0  0
    9.6368  -16.2243   25.0455 C   0  0  0  0  0  0  0  0  0  0  0  0
    8.5700  -16.9184   24.9402 O   0  0  0  0  0  0  0  0  0  0  0  0
    8.7924  -15.7500   27.8290 C   0  0  0  0  0  0  0  0  0  0  0  0
    9.2073  -16.2208   29.0564 C   0  0  0  0  0  0  0  0  0  0  0  0
   10.8078  -16.9369   25.3895 N   0  0  0  0  0  0  0  0  0  0  0  0
   10.8156  -18.3842   25.6055 C   0  0  1  0  0  0  0  0  0  0  0  0
   11.6277  -19.0425   24.5261 C   0  0  0  0  0  0  0  0  0  0  0  0
   11.8700  -20.4876   24.6582 C   0  0  0  0  0  0  0  0  0  0  0  0
   12.7565  -21.0704   23.6204 C   0  0  0  0  0  0  0  0  0  0  0  0
   12.9453  -22.5572   23.8935 C   0  0  0  0  0  0  0  0  0  0  0  0
   13.9380  -23.0430   22.9232 N   0  0  0  0  0  0  0  0  0  0  0  0
   11.1523  -18.6803   26.9887 C   0  0  0  0  0  0  0  0  0  0  0  0
   10.6528  -19.7888   27.7032 O   0  0  0  0  0  0  0  0  0  0  0  0
   11.9365  -17.9332   27.6372 O   0  0  0  0  0  0  0  0  0  0  0  0
  2  1  1  0
  3  2  2  0
  4  3  1  0
  5  4  2  0
  5 11  1  0
  6  5  1  0
  7  8  1  6
  7  6  1  0
  9  7  1  0
  9 10  2  0
 11 12  2  0
 12  2  1  0
 14 24  2  0
 14 13  1  0
 15 14  1  0
 16 17  1  0
 16 15  2  0
 17 23  2  0
 18 17  1  0
 19 18  1  1
 19 20  1  0
 20  9  1  0
 21 19  1  0
 22 21  2  0
 23 24  1  0
 25 21  1  0
 26 25  1  0
 26 27  1  6
 27 28  1  0
 28 29  1  0
 29 30  1  0
 30 31  1  0
 32 26  1  0
 33 32  1  0
 34 32  2  0
M  END
$$$$
