YYK.pdb
     RDKit          3D

 34 35  0  0  1  0  0  0  0  0999 V2000
    5.4887  -12.6918   17.3007 O   0  0  0  0  0  0  0  0  0  0  0  0
    6.4278  -13.4329   18.0214 C   0  0  0  0  0  0  0  0  0  0  0  0
    6.4636  -14.8096   17.9293 C   0  0  0  0  0  0  0  0  0  0  0  0
    7.3836  -15.5574   18.6334 C   0  0  0  0  0  0  0  0  0  0  0  0
    8.3095  -14.9595   19.4618 C   0  0  0  0  0  0  0  0  0  0  0  0
    9.3026  -15.7809   20.2206 C   0  0  0  0  0  0  0  0  0  0  0  0
   10.6800  -15.5091   19.6026 C   0  0  2  0  0  0  0  0  0  0  0  0
   10.6842  -16.0607   18.2587 N   0  0  0  0  0  0  0  0  0  0  0  0
   11.7168  -16.2134   20.4171 C   0  0  0  0  0  0  0  0  0  0  0  0
   12.0180  -17.4244   20.1529 O   0  0  0  0  0  0  0  0  0  0  0  0
    8.2759  -13.5788   19.5562 C   0  0  0  0  0  0  0  0  0  0  0  0
    7.3523  -12.8292   18.8492 C   0  0  0  0  0  0  0  0  0  0  0  0
   17.3398  -14.3772   17.5024 O   0  0  0  0  0  0  0  0  0  0  0  0
   16.6837  -14.6279   18.7009 C   0  0  0  0  0  0  0  0  0  0  0  0
   16.8968  -15.8076   19.3820 C   0  0  0  0  0  0  0  0  0  0  0  0
   16.2331  -16.0550   20.5892 C   0  0  0  0  0  0  0  0  0  0  0  0
   15.3557  -15.1557   21.1439 C   0  0  0  0  0  0  0  0  0  0  0  0
   14.6275  -15.3694   22.4164 C   0  0  0  0  0  0  0  0  0  0  0  0
   13.3982  -16.2430   22.2105 C   0  0  2  0  0  0  0  0  0  0  0  0
   12.3774  -15.5602   21.4843 N   0  0  0  0  0  0  0  0  0  0  0  0
   12.9867  -16.7659   23.5302 C   0  0  0  0  0  0  0  0  0  0  0  0
   12.5478  -15.9741   24.4310 O   0  0  0  0  0  0  0  0  0  0  0  0
   15.1608  -13.9668   20.4277 C   0  0  0  0  0  0  0  0  0  0  0  0
   15.8069  -13.7084   19.2377 C   0  0  0  0  0  0  0  0  0  0  0  0
   13.0419  -18.1338   23.8815 N   0  0  0  0  0  0  0  0  0  0  0  0
   12.5596  -18.6379   25.1678 C   0  0  1  0  0  0  0  0  0  0  0  0
   11.9976  -20.0188   24.9804 C   0  0  0  0  0  0  0  0  0  0  0  0
   10.9507  -20.1823   23.9598 C   0  0  0  0  0  0  0  0  0  0  0  0
   10.4781  -21.5758   23.7665 C   0  0  0  0  0  0  0  0  0  0  0  0
    9.4693  -21.6140   22.6258 C   0  0  0  0  0  0  0  0  0  0  0  0
    9.1558  -23.0306   22.3852 N   0  0  0  0  0  0  0  0  0  0  0  0
   13.5758  -18.4482   26.1905 C   0  0  0  0  0  0  0  0  0  0  0  0
   14.8476  -17.8901   25.9461 O   0  0  0  0  0  0  0  0  0  0  0  0
   13.3587  -18.7848   27.3877 O   0  0  0  0  0  0  0  0  0  0  0  0
  2  1  1  0
  3  2  2  0
  4  3  1  0
  5  4  2  0
  5 11  1  0
  6  5  1  0
  7  8  1  6
  7  6  1  0
  9  7  1  0
  9 10  2  0
 11 12  2  0
 12  2  1  0
 14 24  2  0
 14 13  1  0
 15 14  1  0
 16 17  1  0
 16 15  2  0
 17 23  2  0
 18 17  1  0
 19 18  1  1
 19 20  1  0
 20  9  1  0
 21 19  1  0
 22 21  2  0
 23 24  1  0
 25 21  1  0
 26 25  1  0
 26 27  1  6
 27 28  1  0
 28 29  1  0
 29 30  1  0
 30 31  1  0
 32 26  1  0
 33 32  1  0
 34 32  2  0
M  END
$$$$
