YYK.pdb
     RDKit          3D

 34 35  0  0  1  0  0  0  0  0999 V2000
    7.2416  -14.9626   15.2912 O   0  0  0  0  0  0  0  0  0  0  0  0
    7.7762  -14.9602   16.5815 C   0  0  0  0  0  0  0  0  0  0  0  0
    8.3834  -13.8311   17.0931 C   0  0  0  0  0  0  0  0  0  0  0  0
    8.9166  -13.8105   18.3646 C   0  0  0  0  0  0  0  0  0  0  0  0
    8.8655  -14.9205   19.1811 C   0  0  0  0  0  0  0  0  0  0  0  0
    9.4473  -14.8862   20.5584 C   0  0  0  0  0  0  0  0  0  0  0  0
    8.2768  -14.7469   21.5399 C   0  0  2  0  0  0  0  0  0  0  0  0
    7.6904  -13.4310   21.3533 N   0  0  0  0  0  0  0  0  0  0  0  0
    8.8073  -14.8461   22.9339 C   0  0  0  0  0  0  0  0  0  0  0  0
    9.7993  -14.1271   23.2890 O   0  0  0  0  0  0  0  0  0  0  0  0
    8.2572  -16.0542   18.6705 C   0  0  0  0  0  0  0  0  0  0  0  0
    7.7223  -16.0740   17.3944 C   0  0  0  0  0  0  0  0  0  0  0  0
    6.2803   -9.9456   26.7852 O   0  0  0  0  0  0  0  0  0  0  0  0
    6.5530  -11.2998   26.6382 C   0  0  0  0  0  0  0  0  0  0  0  0
    5.5449  -12.2333   26.7534 C   0  0  0  0  0  0  0  0  0  0  0  0
    5.8253  -13.5964   26.6043 C   0  0  0  0  0  0  0  0  0  0  0  0
    7.0901  -14.0628   26.3419 C   0  0  0  0  0  0  0  0  0  0  0  0
    7.4398  -15.4931   26.1769 C   0  0  0  0  0  0  0  0  0  0  0  0
    8.6299  -15.6678   25.2442 C   0  0  2  0  0  0  0  0  0  0  0  0
    8.2280  -15.7281   23.8766 N   0  0  0  0  0  0  0  0  0  0  0  0
    9.4130  -16.8274   25.7199 C   0  0  0  0  0  0  0  0  0  0  0  0
    9.8055  -16.8883   26.9337 O   0  0  0  0  0  0  0  0  0  0  0  0
    8.0924  -13.0893   26.2307 C   0  0  0  0  0  0  0  0  0  0  0  0
    7.8322  -11.7432   26.3748 C   0  0  0  0  0  0  0  0  0  0  0  0
    9.7704  -17.9202   24.8979 N   0  0  0  0  0  0  0  0  0  0  0  0
   10.5737  -19.0428   25.3835 C   0  0  1  0  0  0  0  0  0  0  0  0
   11.9176  -19.0185   24.7117 C   0  0  0  0  0  0  0  0  0  0  0  0
   12.0890  -19.8734   23.5268 C   0  0  0  0  0  0  0  0  0  0  0  0
   12.6705  -19.1925   22.3432 C   0  0  0  0  0  0  0  0  0  0  0  0
   12.6487  -20.1420   21.1522 C   0  0  0  0  0  0  0  0  0  0  0  0
   13.1292  -19.3766   19.9919 N   0  0  0  0  0  0  0  0  0  0  0  0
   10.5384  -19.0899   26.8363 C   0  0  0  0  0  0  0  0  0  0  0  0
   10.8793  -20.2266   27.5982 O   0  0  0  0  0  0  0  0  0  0  0  0
   10.1899  -18.0790   27.5075 O   0  0  0  0  0  0  0  0  0  0  0  0
  2  1  1  0
  3  2  2  0
  4  3  1  0
  5  4  2  0
  5 11  1  0
  6  5  1  0
  7  8  1  1
  7  6  1  0
  9  7  1  0
  9 10  2  0
 11 12  2  0
 12  2  1  0
 14 24  2  0
 14 13  1  0
 15 14  1  0
 16 17  1  0
 16 15  2  0
 17 23  2  0
 18 17  1  0
 19 18  1  1
 19 20  1  0
 20  9  1  0
 21 19  1  0
 22 21  2  0
 23 24  1  0
 25 21  1  0
 26 25  1  0
 26 27  1  1
 27 28  1  0
 28 29  1  0
 29 30  1  0
 30 31  1  0
 32 26  1  0
 33 32  1  0
 34 32  2  0
M  END
$$$$
