YYK.pdb
     RDKit          3D

 34 35  0  0  1  0  0  0  0  0999 V2000
    6.7418  -13.7178   15.4947 O   0  0  0  0  0  0  0  0  0  0  0  0
    7.3777  -13.7747   16.7369 C   0  0  0  0  0  0  0  0  0  0  0  0
    6.9433  -12.9952   17.7899 C   0  0  0  0  0  0  0  0  0  0  0  0
    7.5588  -13.0384   19.0231 C   0  0  0  0  0  0  0  0  0  0  0  0
    8.6376  -13.8647   19.2569 C   0  0  0  0  0  0  0  0  0  0  0  0
    9.2971  -13.9029   20.5986 C   0  0  0  0  0  0  0  0  0  0  0  0
    9.1865  -15.3430   21.1155 C   0  0  2  0  0  0  0  0  0  0  0  0
    7.7767  -15.6863   21.1854 N   0  0  0  0  0  0  0  0  0  0  0  0
    9.7671  -15.4029   22.4917 C   0  0  0  0  0  0  0  0  0  0  0  0
   11.0330  -15.4283   22.6468 O   0  0  0  0  0  0  0  0  0  0  0  0
    9.0754  -14.6476   18.2026 C   0  0  0  0  0  0  0  0  0  0  0  0
    8.4571  -14.6036   16.9654 C   0  0  0  0  0  0  0  0  0  0  0  0
   11.0891  -15.2351   31.1471 O   0  0  0  0  0  0  0  0  0  0  0  0
   10.4956  -15.1550   29.8936 C   0  0  0  0  0  0  0  0  0  0  0  0
    9.7489  -16.2058   29.4044 C   0  0  0  0  0  0  0  0  0  0  0  0
    9.1531  -16.1197   28.1408 C   0  0  0  0  0  0  0  0  0  0  0  0
    9.2793  -15.0095   27.3423 C   0  0  0  0  0  0  0  0  0  0  0  0
    8.6710  -14.8687   25.9986 C   0  0  0  0  0  0  0  0  0  0  0  0
    9.5189  -15.5491   24.9333 C   0  0  2  0  0  0  0  0  0  0  0  0
    8.9358  -15.4323   23.6363 N   0  0  0  0  0  0  0  0  0  0  0  0
    9.7843  -16.9328   25.3797 C   0  0  0  0  0  0  0  0  0  0  0  0
    8.8168  -17.7248   25.6401 O   0  0  0  0  0  0  0  0  0  0  0  0
   10.0441  -13.9591   27.8678 C   0  0  0  0  0  0  0  0  0  0  0  0
   10.6371  -14.0286   29.1104 C   0  0  0  0  0  0  0  0  0  0  0  0
   11.0827  -17.4668   25.5424 N   0  0  0  0  0  0  0  0  0  0  0  0
   11.3205  -18.8447   25.9738 C   0  0  1  0  0  0  0  0  0  0  0  0
   12.1605  -19.5485   24.9456 C   0  0  0  0  0  0  0  0  0  0  0  0
   11.6054  -19.6555   23.5874 C   0  0  0  0  0  0  0  0  0  0  0  0
   12.4517  -20.4012   22.6229 C   0  0  0  0  0  0  0  0  0  0  0  0
   11.7538  -20.4495   21.2697 C   0  0  0  0  0  0  0  0  0  0  0  0
   12.6420  -21.1908   20.3616 N   0  0  0  0  0  0  0  0  0  0  0  0
   11.7752  -18.8637   27.3548 C   0  0  0  0  0  0  0  0  0  0  0  0
   11.5633  -19.9398   28.2413 O   0  0  0  0  0  0  0  0  0  0  0  0
   12.4045  -17.8835   27.8416 O   0  0  0  0  0  0  0  0  0  0  0  0
  2  1  1  0
  3  2  2  0
  4  3  1  0
  5  4  2  0
  5 11  1  0
  6  5  1  0
  7  8  1  1
  7  6  1  0
  9  7  1  0
  9 10  2  0
 11 12  2  0
 12  2  1  0
 14 24  2  0
 14 13  1  0
 15 14  1  0
 16 17  1  0
 16 15  2  0
 17 23  2  0
 18 17  1  0
 19 18  1  1
 19 20  1  0
 20  9  1  0
 21 19  1  0
 22 21  2  0
 23 24  1  0
 25 21  1  0
 26 25  1  0
 26 27  1  6
 27 28  1  0
 28 29  1  0
 29 30  1  0
 30 31  1  0
 32 26  1  0
 33 32  1  0
 34 32  2  0
M  END
$$$$
