YYK.pdb
     RDKit          3D

 34 35  0  0  1  0  0  0  0  0999 V2000
    5.9692  -12.0337   17.2061 O   0  0  0  0  0  0  0  0  0  0  0  0
    6.5977  -12.9310   18.0723 C   0  0  0  0  0  0  0  0  0  0  0  0
    5.9758  -14.1046   18.4477 C   0  0  0  0  0  0  0  0  0  0  0  0
    6.5811  -15.0021   19.3019 C   0  0  0  0  0  0  0  0  0  0  0  0
    7.8371  -14.7641   19.8186 C   0  0  0  0  0  0  0  0  0  0  0  0
    8.4836  -15.7449   20.7442 C   0  0  0  0  0  0  0  0  0  0  0  0
    9.8390  -15.1545   21.1531 C   0  0  2  0  0  0  0  0  0  0  0  0
   10.8543  -15.7178   20.2800 N   0  0  0  0  0  0  0  0  0  0  0  0
   10.1327  -15.5618   22.5611 C   0  0  0  0  0  0  0  0  0  0  0  0
   10.9908  -16.4768   22.7921 O   0  0  0  0  0  0  0  0  0  0  0  0
    8.4632  -13.5878   19.4438 C   0  0  0  0  0  0  0  0  0  0  0  0
    7.8550  -12.6877   18.5865 C   0  0  0  0  0  0  0  0  0  0  0  0
   10.7824  -15.6414   31.3232 O   0  0  0  0  0  0  0  0  0  0  0  0
   10.3485  -15.3765   30.0304 C   0  0  0  0  0  0  0  0  0  0  0  0
    9.4119  -16.1881   29.4264 C   0  0  0  0  0  0  0  0  0  0  0  0
    8.9782  -15.9164   28.1236 C   0  0  0  0  0  0  0  0  0  0  0  0
    9.4530  -14.8519   27.3974 C   0  0  0  0  0  0  0  0  0  0  0  0
    9.0285  -14.5218   26.0167 C   0  0  0  0  0  0  0  0  0  0  0  0
    9.8609  -15.2730   24.9874 C   0  0  2  0  0  0  0  0  0  0  0  0
    9.4737  -14.9489   23.6529 N   0  0  0  0  0  0  0  0  0  0  0  0
    9.8094  -16.7111   25.3240 C   0  0  0  0  0  0  0  0  0  0  0  0
    8.6946  -17.3342   25.3295 O   0  0  0  0  0  0  0  0  0  0  0  0
   10.4036  -14.0462   28.0391 C   0  0  0  0  0  0  0  0  0  0  0  0
   10.8407  -14.3006   29.3215 C   0  0  0  0  0  0  0  0  0  0  0  0
   10.9500  -17.4796   25.6496 N   0  0  0  0  0  0  0  0  0  0  0  0
   10.8728  -18.9011   25.9886 C   0  0  1  0  0  0  0  0  0  0  0  0
   11.8423  -19.6682   25.1345 C   0  0  0  0  0  0  0  0  0  0  0  0
   11.9794  -21.1076   25.4056 C   0  0  0  0  0  0  0  0  0  0  0  0
   12.9809  -21.8097   24.5649 C   0  0  0  0  0  0  0  0  0  0  0  0
   13.0239  -23.2821   24.9531 C   0  0  0  0  0  0  0  0  0  0  0  0
   13.9693  -23.9345   24.0346 N   0  0  0  0  0  0  0  0  0  0  0  0
   10.9485  -19.0749   27.4302 C   0  0  0  0  0  0  0  0  0  0  0  0
   11.8186  -18.3478   28.2687 O   0  0  0  0  0  0  0  0  0  0  0  0
   10.2117  -19.9135   28.0198 O   0  0  0  0  0  0  0  0  0  0  0  0
  2  1  1  0
  3  2  2  0
  4  3  1  0
  5  4  2  0
  5 11  1  0
  6  5  1  0
  7  8  1  6
  7  6  1  0
  9  7  1  0
  9 10  2  0
 11 12  2  0
 12  2  1  0
 14 24  2  0
 14 13  1  0
 15 14  1  0
 16 17  1  0
 16 15  2  0
 17 23  2  0
 18 17  1  0
 19 18  1  1
 19 20  1  0
 20  9  1  0
 21 19  1  0
 22 21  2  0
 23 24  1  0
 25 21  1  0
 26 25  1  0
 26 27  1  6
 27 28  1  0
 28 29  1  0
 29 30  1  0
 30 31  1  0
 32 26  1  0
 33 32  1  0
 34 32  2  0
M  END
$$$$
