YYK.pdb
     RDKit          3D

 34 35  0  0  1  0  0  0  0  0999 V2000
    5.2536  -22.6487   15.8784 O   0  0  0  0  0  0  0  0  0  0  0  0
    5.9449  -21.5897   16.4710 C   0  0  0  0  0  0  0  0  0  0  0  0
    7.2696  -21.7252   16.8342 C   0  0  0  0  0  0  0  0  0  0  0  0
    7.9678  -20.6906   17.4203 C   0  0  0  0  0  0  0  0  0  0  0  0
    7.3702  -19.4732   17.6689 C   0  0  0  0  0  0  0  0  0  0  0  0
    8.1375  -18.3583   18.3051 C   0  0  0  0  0  0  0  0  0  0  0  0
    8.3379  -18.7314   19.7795 C   0  0  2  0  0  0  0  0  0  0  0  0
    7.0378  -18.7103   20.4271 N   0  0  0  0  0  0  0  0  0  0  0  0
    9.2128  -17.7016   20.4187 C   0  0  0  0  0  0  0  0  0  0  0  0
   10.4114  -17.5446   20.0113 O   0  0  0  0  0  0  0  0  0  0  0  0
    6.0416  -19.3344   17.3057 C   0  0  0  0  0  0  0  0  0  0  0  0
    5.3418  -20.3733   16.7176 C   0  0  0  0  0  0  0  0  0  0  0  0
    6.9230  -12.3479   17.4082 O   0  0  0  0  0  0  0  0  0  0  0  0
    7.3798  -12.8985   18.5990 C   0  0  0  0  0  0  0  0  0  0  0  0
    6.5426  -13.6635   19.3829 C   0  0  0  0  0  0  0  0  0  0  0  0
    7.0082  -14.2158   20.5818 C   0  0  0  0  0  0  0  0  0  0  0  0
    8.2933  -14.0279   21.0280 C   0  0  0  0  0  0  0  0  0  0  0  0
    8.8346  -14.5884   22.2882 C   0  0  0  0  0  0  0  0  0  0  0  0
    9.5835  -15.8897   22.0384 C   0  0  2  0  0  0  0  0  0  0  0  0
    8.7363  -16.8900   21.4751 N   0  0  0  0  0  0  0  0  0  0  0  0
   10.2578  -16.2740   23.2962 C   0  0  0  0  0  0  0  0  0  0  0  0
    9.6374  -16.2025   24.4102 O   0  0  0  0  0  0  0  0  0  0  0  0
    9.1192  -13.2459   20.2089 C   0  0  0  0  0  0  0  0  0  0  0  0
    8.6756  -12.6951   19.0256 C   0  0  0  0  0  0  0  0  0  0  0  0
   11.5916  -16.7373   23.3587 N   0  0  0  0  0  0  0  0  0  0  0  0
   12.2361  -17.1183   24.6161 C   0  0  1  0  0  0  0  0  0  0  0  0
   11.9706  -18.5718   24.8891 C   0  0  0  0  0  0  0  0  0  0  0  0
   12.5841  -19.1490   26.0953 C   0  0  0  0  0  0  0  0  0  0  0  0
   12.4915  -20.6267   26.1980 C   0  0  0  0  0  0  0  0  0  0  0  0
   13.1727  -21.0882   27.4800 C   0  0  0  0  0  0  0  0  0  0  0  0
   13.0814  -22.5558   27.5032 N   0  0  0  0  0  0  0  0  0  0  0  0
   13.6172  -16.6637   24.6263 C   0  0  0  0  0  0  0  0  0  0  0  0
   14.2590  -16.0624   23.5239 O   0  0  0  0  0  0  0  0  0  0  0  0
   14.3314  -16.7891   25.6598 O   0  0  0  0  0  0  0  0  0  0  0  0
  2  1  1  0
  3  2  2  0
  4  3  1  0
  5  4  2  0
  5 11  1  0
  6  5  1  0
  7  8  1  1
  7  6  1  0
  9  7  1  0
  9 10  2  0
 11 12  2  0
 12  2  1  0
 14 24  2  0
 14 13  1  0
 15 14  1  0
 16 17  1  0
 16 15  2  0
 17 23  2  0
 18 17  1  0
 19 18  1  1
 19 20  1  0
 20  9  1  0
 21 19  1  0
 22 21  2  0
 23 24  1  0
 25 21  1  0
 26 25  1  0
 26 27  1  6
 27 28  1  0
 28 29  1  0
 29 30  1  0
 30 31  1  0
 32 26  1  0
 33 32  1  0
 34 32  2  0
M  END
$$$$
