YYK.pdb
     RDKit          3D

 34 35  0  0  1  0  0  0  0  0999 V2000
    7.6285  -13.3027   15.7042 O   0  0  0  0  0  0  0  0  0  0  0  0
    7.8582  -13.4942   17.0684 C   0  0  0  0  0  0  0  0  0  0  0  0
    7.6595  -12.4680   17.9698 C   0  0  0  0  0  0  0  0  0  0  0  0
    7.8812  -12.6389   19.3200 C   0  0  0  0  0  0  0  0  0  0  0  0
    8.3119  -13.8461   19.8282 C   0  0  0  0  0  0  0  0  0  0  0  0
    8.5490  -14.0197   21.2946 C   0  0  0  0  0  0  0  0  0  0  0  0
    9.0949  -15.4385   21.4992 C   0  0  2  0  0  0  0  0  0  0  0  0
    8.0564  -16.3777   21.1123 N   0  0  0  0  0  0  0  0  0  0  0  0
    9.4017  -15.6282   22.9499 C   0  0  0  0  0  0  0  0  0  0  0  0
   10.5861  -15.4302   23.3801 O   0  0  0  0  0  0  0  0  0  0  0  0
    8.5120  -14.8772   18.9264 C   0  0  0  0  0  0  0  0  0  0  0  0
    8.2893  -14.7047   17.5716 C   0  0  0  0  0  0  0  0  0  0  0  0
    6.5818  -10.2072   26.3326 O   0  0  0  0  0  0  0  0  0  0  0  0
    6.7975  -11.5784   26.2782 C   0  0  0  0  0  0  0  0  0  0  0  0
    5.8490  -12.4148   25.7289 C   0  0  0  0  0  0  0  0  0  0  0  0
    6.0715  -13.7957   25.6767 C   0  0  0  0  0  0  0  0  0  0  0  0
    7.2198  -14.3744   26.1590 C   0  0  0  0  0  0  0  0  0  0  0  0
    7.5033  -15.8284   26.1291 C   0  0  0  0  0  0  0  0  0  0  0  0
    8.7082  -16.1393   25.2525 C   0  0  2  0  0  0  0  0  0  0  0  0
    8.3980  -16.0260   23.8644 N   0  0  0  0  0  0  0  0  0  0  0  0
    9.2471  -17.4506   25.6701 C   0  0  0  0  0  0  0  0  0  0  0  0
    8.5159  -18.4964   25.6176 O   0  0  0  0  0  0  0  0  0  0  0  0
    8.1640  -13.4977   26.7108 C   0  0  0  0  0  0  0  0  0  0  0  0
    7.9596  -12.1356   26.7695 C   0  0  0  0  0  0  0  0  0  0  0  0
   10.5669  -17.6407   26.1386 N   0  0  0  0  0  0  0  0  0  0  0  0
   11.0711  -18.9455   26.5682 C   0  0  1  0  0  0  0  0  0  0  0  0
   12.5342  -19.0445   26.2400 C   0  0  0  0  0  0  0  0  0  0  0  0
   13.2301  -20.2743   26.6497 C   0  0  0  0  0  0  0  0  0  0  0  0
   14.6698  -20.3263   26.2933 C   0  0  0  0  0  0  0  0  0  0  0  0
   15.2637  -21.6424   26.7789 C   0  0  0  0  0  0  0  0  0  0  0  0
   14.8472  -22.6748   25.8179 N   0  0  0  0  0  0  0  0  0  0  0  0
   10.6596  -19.2133   27.9368 C   0  0  0  0  0  0  0  0  0  0  0  0
   10.6865  -18.2553   28.9714 O   0  0  0  0  0  0  0  0  0  0  0  0
   10.2428  -20.3561   28.2747 O   0  0  0  0  0  0  0  0  0  0  0  0
  2  1  1  0
  3  2  2  0
  4  3  1  0
  5  4  2  0
  5 11  1  0
  6  5  1  0
  7  8  1  1
  7  6  1  0
  9  7  1  0
  9 10  2  0
 11 12  2  0
 12  2  1  0
 14 24  2  0
 14 13  1  0
 15 14  1  0
 16 17  1  0
 16 15  2  0
 17 23  2  0
 18 17  1  0
 19 18  1  1
 19 20  1  0
 20  9  1  0
 21 19  1  0
 22 21  2  0
 23 24  1  0
 25 21  1  0
 26 25  1  0
 26 27  1  1
 27 28  1  0
 28 29  1  0
 29 30  1  0
 30 31  1  0
 32 26  1  0
 33 32  1  0
 34 32  2  0
M  END
$$$$
