YYK.pdb
     RDKit          3D

 34 35  0  0  1  0  0  0  0  0999 V2000
    7.5075  -23.5896   18.4061 O   0  0  0  0  0  0  0  0  0  0  0  0
    8.0448  -22.4525   19.0133 C   0  0  0  0  0  0  0  0  0  0  0  0
    9.3052  -22.0007   18.6780 C   0  0  0  0  0  0  0  0  0  0  0  0
    9.8517  -20.8800   19.2671 C   0  0  0  0  0  0  0  0  0  0  0  0
    9.1597  -20.1612   20.2188 C   0  0  0  0  0  0  0  0  0  0  0  0
    9.7627  -18.9473   20.8508 C   0  0  0  0  0  0  0  0  0  0  0  0
    9.0268  -17.7282   20.2803 C   0  0  2  0  0  0  0  0  0  0  0  0
    9.7017  -17.3301   19.0571 N   0  0  0  0  0  0  0  0  0  0  0  0
    9.1173  -16.6098   21.2680 C   0  0  0  0  0  0  0  0  0  0  0  0
   10.2293  -16.0124   21.4515 O   0  0  0  0  0  0  0  0  0  0  0  0
    7.8954  -20.6121   20.5570 C   0  0  0  0  0  0  0  0  0  0  0  0
    7.3478  -21.7368   19.9653 C   0  0  0  0  0  0  0  0  0  0  0  0
    7.2180  -10.7296   27.5523 O   0  0  0  0  0  0  0  0  0  0  0  0
    7.1082  -11.6757   26.5410 C   0  0  0  0  0  0  0  0  0  0  0  0
    7.4961  -11.3720   25.2533 C   0  0  0  0  0  0  0  0  0  0  0  0
    7.3832  -12.3291   24.2383 C   0  0  0  0  0  0  0  0  0  0  0  0
    6.8915  -13.5905   24.4682 C   0  0  0  0  0  0  0  0  0  0  0  0
    6.7503  -14.6384   23.4302 C   0  0  0  0  0  0  0  0  0  0  0  0
    8.1091  -15.1355   22.9573 C   0  0  2  0  0  0  0  0  0  0  0  0
    7.9863  -16.1957   22.0105 N   0  0  0  0  0  0  0  0  0  0  0  0
    8.9177  -15.4526   24.1531 C   0  0  0  0  0  0  0  0  0  0  0  0
    9.2348  -14.5336   24.9813 O   0  0  0  0  0  0  0  0  0  0  0  0
    6.5060  -13.8681   25.7869 C   0  0  0  0  0  0  0  0  0  0  0  0
    6.6110  -12.9364   26.7974 C   0  0  0  0  0  0  0  0  0  0  0  0
    9.3812  -16.7515   24.4621 N   0  0  0  0  0  0  0  0  0  0  0  0
   10.2253  -17.0322   25.6240 C   0  0  1  0  0  0  0  0  0  0  0  0
    9.8353  -18.3590   26.2117 C   0  0  0  0  0  0  0  0  0  0  0  0
   10.6329  -18.8484   27.3469 C   0  0  0  0  0  0  0  0  0  0  0  0
   10.2755  -20.2082   27.8221 C   0  0  0  0  0  0  0  0  0  0  0  0
   11.1894  -20.5967   28.9773 C   0  0  0  0  0  0  0  0  0  0  0  0
   10.8684  -21.9902   29.3208 N   0  0  0  0  0  0  0  0  0  0  0  0
   11.6238  -16.8201   25.2874 C   0  0  0  0  0  0  0  0  0  0  0  0
   12.1555  -16.9711   23.9899 O   0  0  0  0  0  0  0  0  0  0  0  0
   12.4568  -16.4773   26.1719 O   0  0  0  0  0  0  0  0  0  0  0  0
  2  1  1  0
  3  2  2  0
  4  3  1  0
  5  4  2  0
  5 11  1  0
  6  5  1  0
  7  8  1  6
  7  6  1  0
  9  7  1  0
  9 10  2  0
 11 12  2  0
 12  2  1  0
 14 24  2  0
 14 13  1  0
 15 14  1  0
 16 17  1  0
 16 15  2  0
 17 23  2  0
 18 17  1  0
 19 18  1  1
 19 20  1  0
 20  9  1  0
 21 19  1  0
 22 21  2  0
 23 24  1  0
 25 21  1  0
 26 25  1  0
 26 27  1  6
 27 28  1  0
 28 29  1  0
 29 30  1  0
 30 31  1  0
 32 26  1  0
 33 32  1  0
 34 32  2  0
M  END
$$$$
