YYK.pdb
     RDKit          3D

 34 35  0  0  1  0  0  0  0  0999 V2000
    6.7349  -22.9561   30.5684 O   0  0  0  0  0  0  0  0  0  0  0  0
    7.0655  -22.0582   29.5510 C   0  0  0  0  0  0  0  0  0  0  0  0
    8.1398  -22.2976   28.7181 C   0  0  0  0  0  0  0  0  0  0  0  0
    8.4808  -21.4224   27.7086 C   0  0  0  0  0  0  0  0  0  0  0  0
    7.7607  -20.2674   27.4880 C   0  0  0  0  0  0  0  0  0  0  0  0
    8.1401  -19.3256   26.3899 C   0  0  0  0  0  0  0  0  0  0  0  0
    6.9797  -19.3104   25.3868 C   0  0  2  0  0  0  0  0  0  0  0  0
    6.7667  -20.6722   24.9281 N   0  0  0  0  0  0  0  0  0  0  0  0
    7.3685  -18.4624   24.2187 C   0  0  0  0  0  0  0  0  0  0  0  0
    7.8814  -19.0033   23.1835 O   0  0  0  0  0  0  0  0  0  0  0  0
    6.6827  -20.0247   28.3219 C   0  0  0  0  0  0  0  0  0  0  0  0
    6.3413  -20.9036   29.3347 C   0  0  0  0  0  0  0  0  0  0  0  0
    8.3518  -12.0112   18.4251 O   0  0  0  0  0  0  0  0  0  0  0  0
    8.0558  -12.6949   19.5976 C   0  0  0  0  0  0  0  0  0  0  0  0
    8.6432  -12.3273   20.7895 C   0  0  0  0  0  0  0  0  0  0  0  0
    8.3413  -13.0197   21.9679 C   0  0  0  0  0  0  0  0  0  0  0  0
    7.4647  -14.0764   21.9960 C   0  0  0  0  0  0  0  0  0  0  0  0
    7.1125  -14.8425   23.2143 C   0  0  0  0  0  0  0  0  0  0  0  0
    7.6402  -16.2685   23.1432 C   0  0  2  0  0  0  0  0  0  0  0  0
    7.1784  -17.0604   24.2364 N   0  0  0  0  0  0  0  0  0  0  0  0
    9.1089  -16.2019   22.9927 C   0  0  0  0  0  0  0  0  0  0  0  0
    9.7996  -15.4211   23.7305 O   0  0  0  0  0  0  0  0  0  0  0  0
    6.8845  -14.4254   20.7687 C   0  0  0  0  0  0  0  0  0  0  0  0
    7.1715  -13.7534   19.5998 C   0  0  0  0  0  0  0  0  0  0  0  0
    9.8352  -16.9732   22.0571 N   0  0  0  0  0  0  0  0  0  0  0  0
   11.2259  -16.6832   21.7061 C   0  0  1  0  0  0  0  0  0  0  0  0
   11.2563  -15.7559   20.5241 C   0  0  0  0  0  0  0  0  0  0  0  0
   12.5769  -15.2921   20.0713 C   0  0  0  0  0  0  0  0  0  0  0  0
   12.5674  -14.5173   18.8055 C   0  0  0  0  0  0  0  0  0  0  0  0
   13.9873  -14.0789   18.4702 C   0  0  0  0  0  0  0  0  0  0  0  0
   13.8778  -13.0613   17.4141 N   0  0  0  0  0  0  0  0  0  0  0  0
   11.9703  -16.2981   22.8943 C   0  0  0  0  0  0  0  0  0  0  0  0
   13.0810  -17.0083   23.3952 O   0  0  0  0  0  0  0  0  0  0  0  0
   11.6467  -15.2726   23.5557 O   0  0  0  0  0  0  0  0  0  0  0  0
  2  1  1  0
  3  2  2  0
  4  3  1  0
  5  4  2  0
  5 11  1  0
  6  5  1  0
  7  8  1  6
  7  6  1  0
  9  7  1  0
  9 10  2  0
 11 12  2  0
 12  2  1  0
 14 24  2  0
 14 13  1  0
 15 14  1  0
 16 17  1  0
 16 15  2  0
 17 23  2  0
 18 17  1  0
 19 18  1  1
 19 20  1  0
 20  9  1  0
 21 19  1  0
 22 21  2  0
 23 24  1  0
 25 21  1  0
 26 25  1  0
 26 27  1  6
 27 28  1  0
 28 29  1  0
 29 30  1  0
 30 31  1  0
 32 26  1  0
 33 32  1  0
 34 32  2  0
M  END
$$$$
