YYK.pdb
     RDKit          3D

 34 35  0  0  1  0  0  0  0  0999 V2000
    7.5326  -13.2072   16.2177 O   0  0  0  0  0  0  0  0  0  0  0  0
    7.7260  -13.3909   17.5887 C   0  0  0  0  0  0  0  0  0  0  0  0
    8.9081  -13.0133   18.1928 C   0  0  0  0  0  0  0  0  0  0  0  0
    9.1165  -13.1870   19.5448 C   0  0  0  0  0  0  0  0  0  0  0  0
    8.1496  -13.7470   20.3527 C   0  0  0  0  0  0  0  0  0  0  0  0
    8.3870  -13.9304   21.8178 C   0  0  0  0  0  0  0  0  0  0  0  0
    9.1934  -15.2244   21.9863 C   0  0  2  0  0  0  0  0  0  0  0  0
    8.3725  -16.3276   21.5178 N   0  0  0  0  0  0  0  0  0  0  0  0
    9.4835  -15.4212   23.4395 C   0  0  0  0  0  0  0  0  0  0  0  0
   10.5899  -15.0152   23.9273 O   0  0  0  0  0  0  0  0  0  0  0  0
    6.9629  -14.1266   19.7494 C   0  0  0  0  0  0  0  0  0  0  0  0
    6.7547  -13.9519   18.3926 C   0  0  0  0  0  0  0  0  0  0  0  0
    6.5405  -10.3181   26.6738 O   0  0  0  0  0  0  0  0  0  0  0  0
    6.8241  -11.6778   26.6529 C   0  0  0  0  0  0  0  0  0  0  0  0
    7.9984  -12.1563   27.1942 C   0  0  0  0  0  0  0  0  0  0  0  0
    8.2791  -13.5273   27.1703 C   0  0  0  0  0  0  0  0  0  0  0  0
    7.4186  -14.4447   26.6191 C   0  0  0  0  0  0  0  0  0  0  0  0
    7.6685  -15.9042   26.5671 C   0  0  0  0  0  0  0  0  0  0  0  0
    8.8578  -16.2306   25.6750 C   0  0  2  0  0  0  0  0  0  0  0  0
    8.5492  -16.0537   24.2933 N   0  0  0  0  0  0  0  0  0  0  0  0
    9.3445  -17.5769   26.0420 C   0  0  0  0  0  0  0  0  0  0  0  0
    8.6496  -18.6126   25.7673 O   0  0  0  0  0  0  0  0  0  0  0  0
    6.2340  -13.9270   26.0774 C   0  0  0  0  0  0  0  0  0  0  0  0
    5.9432  -12.5795   26.0932 C   0  0  0  0  0  0  0  0  0  0  0  0
   10.5743  -17.8123   26.6976 N   0  0  0  0  0  0  0  0  0  0  0  0
   11.0309  -19.1547   27.0595 C   0  0  1  0  0  0  0  0  0  0  0  0
   12.3100  -19.4569   26.3311 C   0  0  0  0  0  0  0  0  0  0  0  0
   12.9417  -20.7581   26.5998 C   0  0  0  0  0  0  0  0  0  0  0  0
   14.2155  -20.9961   25.8763 C   0  0  0  0  0  0  0  0  0  0  0  0
   14.7400  -22.3845   26.2193 C   0  0  0  0  0  0  0  0  0  0  0  0
   15.8641  -22.6492   25.3086 N   0  0  0  0  0  0  0  0  0  0  0  0
   11.0152  -19.3140   28.5047 C   0  0  0  0  0  0  0  0  0  0  0  0
   11.0265  -18.2395   29.4180 O   0  0  0  0  0  0  0  0  0  0  0  0
   10.9883  -20.4626   29.0281 O   0  0  0  0  0  0  0  0  0  0  0  0
  2  1  1  0
  3  2  2  0
  4  3  1  0
  5  4  2  0
  5 11  1  0
  6  5  1  0
  7  8  1  1
  7  6  1  0
  9  7  1  0
  9 10  2  0
 11 12  2  0
 12  2  1  0
 14 24  2  0
 14 13  1  0
 15 14  1  0
 16 17  1  0
 16 15  2  0
 17 23  2  0
 18 17  1  0
 19 18  1  1
 19 20  1  0
 20  9  1  0
 21 19  1  0
 22 21  2  0
 23 24  1  0
 25 21  1  0
 26 25  1  0
 26 27  1  1
 27 28  1  0
 28 29  1  0
 29 30  1  0
 30 31  1  0
 32 26  1  0
 33 32  1  0
 34 32  2  0
M  END
$$$$
