YYK.pdb
     RDKit          3D

 34 35  0  0  1  0  0  0  0  0999 V2000
   13.8499  -18.6410   12.6042 O   0  0  0  0  0  0  0  0  0  0  0  0
   13.6963  -18.2577   13.9384 C   0  0  0  0  0  0  0  0  0  0  0  0
   12.9991  -17.1134   14.2695 C   0  0  0  0  0  0  0  0  0  0  0  0
   12.8374  -16.7197   15.5811 C   0  0  0  0  0  0  0  0  0  0  0  0
   13.3671  -17.4549   16.6204 C   0  0  0  0  0  0  0  0  0  0  0  0
   13.1852  -17.0179   18.0391 C   0  0  0  0  0  0  0  0  0  0  0  0
   11.7950  -16.3775   18.1399 C   0  0  2  0  0  0  0  0  0  0  0  0
   11.8139  -15.1437   17.3733 N   0  0  0  0  0  0  0  0  0  0  0  0
   11.5214  -16.0517   19.5729 C   0  0  0  0  0  0  0  0  0  0  0  0
   12.2695  -15.2233   20.1903 O   0  0  0  0  0  0  0  0  0  0  0  0
   14.0668  -18.6030   16.2913 C   0  0  0  0  0  0  0  0  0  0  0  0
   14.2286  -18.9974   14.9748 C   0  0  0  0  0  0  0  0  0  0  0  0
    7.5386  -11.7912   17.7789 O   0  0  0  0  0  0  0  0  0  0  0  0
    7.8200  -12.7596   18.7342 C   0  0  0  0  0  0  0  0  0  0  0  0
    7.5282  -14.0855   18.4939 C   0  0  0  0  0  0  0  0  0  0  0  0
    7.8139  -15.0571   19.4601 C   0  0  0  0  0  0  0  0  0  0  0  0
    8.3863  -14.7461   20.6691 C   0  0  0  0  0  0  0  0  0  0  0  0
    8.7072  -15.7349   21.7248 C   0  0  0  0  0  0  0  0  0  0  0  0
   10.1391  -16.2351   21.5977 C   0  0  2  0  0  0  0  0  0  0  0  0
   10.4410  -16.6475   20.2657 N   0  0  0  0  0  0  0  0  0  0  0  0
   10.3546  -17.2634   22.6371 C   0  0  0  0  0  0  0  0  0  0  0  0
    9.4579  -18.1415   22.8734 O   0  0  0  0  0  0  0  0  0  0  0  0
    8.6708  -13.3904   20.8828 C   0  0  0  0  0  0  0  0  0  0  0  0
    8.3955  -12.4218   19.9413 C   0  0  0  0  0  0  0  0  0  0  0  0
   11.5295  -17.3525   23.4177 N   0  0  0  0  0  0  0  0  0  0  0  0
   11.7620  -18.4372   24.3721 C   0  0  1  0  0  0  0  0  0  0  0  0
   13.2183  -18.8073   24.3574 C   0  0  0  0  0  0  0  0  0  0  0  0
   13.8943  -18.8122   23.0508 C   0  0  0  0  0  0  0  0  0  0  0  0
   15.2794  -19.3449   23.0654 C   0  0  0  0  0  0  0  0  0  0  0  0
   15.8742  -19.2455   21.6665 C   0  0  0  0  0  0  0  0  0  0  0  0
   17.2842  -19.6490   21.7764 N   0  0  0  0  0  0  0  0  0  0  0  0
   11.1535  -18.1138   25.6525 C   0  0  0  0  0  0  0  0  0  0  0  0
   10.8129  -19.0721   26.6295 O   0  0  0  0  0  0  0  0  0  0  0  0
   10.8937  -16.9175   25.9610 O   0  0  0  0  0  0  0  0  0  0  0  0
  2  1  1  0
  3  2  2  0
  4  3  1  0
  5  4  2  0
  5 11  1  0
  6  5  1  0
  7  8  1  6
  7  6  1  0
  9  7  1  0
  9 10  2  0
 11 12  2  0
 12  2  1  0
 14 24  2  0
 14 13  1  0
 15 14  1  0
 16 17  1  0
 16 15  2  0
 17 23  2  0
 18 17  1  0
 19 18  1  6
 19 20  1  0
 20  9  1  0
 21 19  1  0
 22 21  2  0
 23 24  1  0
 25 21  1  0
 26 25  1  0
 26 27  1  1
 27 28  1  0
 28 29  1  0
 29 30  1  0
 30 31  1  0
 32 26  1  0
 33 32  1  0
 34 32  2  0
M  END
$$$$
