HSA.pdb
     RDKit          3D

 22 22  0  0  1  0  0  0  0  0999 V2000
   19.7330   -9.8974  -14.6895 N   0  0  0  0  0  0  0  0  0  0  0  0
   19.6313   -8.7834  -15.5802 C   0  0  1  0  0  0  0  0  0  0  0  0
   18.2961   -8.8693  -16.2905 C   0  0  0  0  0  0  0  0  0  0  0  0
   18.3183  -10.1298  -17.0948 C   0  0  0  0  0  0  0  0  0  0  0  0
   17.4555  -11.1779  -16.9178 C   0  0  0  0  0  0  0  0  0  0  0  0
   17.7907  -12.1263  -17.8286 N   0  0  0  0  0  0  0  0  0  0  0  0
   18.8308  -11.6977  -18.5605 C   0  0  0  0  0  0  0  0  0  0  0  0
   19.1411  -10.4751  -18.0988 N   0  0  0  0  0  0  0  0  0  0  0  0
   19.6369   -7.4740  -14.8498 C   0  0  0  0  0  0  0  0  0  0  0  0
   19.3215   -7.4660  -13.6321 O   0  0  0  0  0  0  0  0  0  0  0  0
   22.4967   -4.7189  -13.3482 O   0  0  0  0  0  0  0  0  0  0  0  0
   21.8403   -5.6529  -14.1188 C   0  0  0  0  0  0  0  0  0  0  0  0
   20.5352   -5.1447  -14.7000 C   0  0  2  0  0  0  0  0  0  0  0  0
   19.9785   -6.2569  -15.4649 N   0  0  0  0  0  0  0  0  0  0  0  0
   20.7279   -3.9516  -15.5521 C   0  0  0  0  0  0  0  0  0  0  0  0
   21.3872   -4.0134  -16.6193 O   0  0  0  0  0  0  0  0  0  0  0  0
   19.3990   -0.4598  -15.6122 C   0  0  0  0  0  0  0  0  0  0  0  0
   20.3646   -1.5519  -16.0481 C   0  0  2  0  0  0  0  0  0  0  0  0
   20.1595   -2.7083  -15.1630 N   0  0  0  0  0  0  0  0  0  0  0  0
   21.7718   -1.0887  -15.9819 C   0  0  0  0  0  0  0  0  0  0  0  0
   22.3609   -0.2459  -16.9097 O   0  0  0  0  0  0  0  0  0  0  0  0
   22.4728   -1.4892  -15.0194 O   0  0  0  0  0  0  0  0  0  0  0  0
  2  1  1  1
  3  2  1  0
  4  3  1  0
  4  5  2  0
  6  5  1  0
  7  6  1  0
  8  7  2  0
  8  4  1  0
  9  2  1  0
  9 14  1  0
 10  9  2  0
 11 12  1  0
 13 14  1  0
 13 12  1  6
 13 15  1  0
 15 19  1  0
 15 16  2  0
 18 17  1  1
 18 20  1  0
 19 18  1  0
 20 21  1  0
 22 20  2  0
M  END
$$$$
