HSA.pdb
     RDKit          3D

 22 22  0  0  1  0  0  0  0  0999 V2000
   20.3614  -12.8319  -18.5025 N   0  0  0  0  0  0  0  0  0  0  0  0
   21.3613  -11.8507  -18.2159 C   0  0  1  0  0  0  0  0  0  0  0  0
   22.1932  -11.6479  -19.4654 C   0  0  0  0  0  0  0  0  0  0  0  0
   22.9259  -12.9291  -19.7058 C   0  0  0  0  0  0  0  0  0  0  0  0
   22.7960  -13.6973  -20.8314 C   0  0  0  0  0  0  0  0  0  0  0  0
   23.6144  -14.7687  -20.6777 N   0  0  0  0  0  0  0  0  0  0  0  0
   24.2440  -14.6863  -19.4952 C   0  0  0  0  0  0  0  0  0  0  0  0
   23.8116  -13.5555  -18.9136 N   0  0  0  0  0  0  0  0  0  0  0  0
   20.7642  -10.5157  -17.8855 C   0  0  0  0  0  0  0  0  0  0  0  0
   20.1541   -9.8916  -18.7914 O   0  0  0  0  0  0  0  0  0  0  0  0
   19.3855   -9.6422  -14.3340 O   0  0  0  0  0  0  0  0  0  0  0  0
   19.0935   -8.8614  -15.4304 C   0  0  0  0  0  0  0  0  0  0  0  0
   20.2889   -8.6155  -16.3304 C   0  0  2  0  0  0  0  0  0  0  0  0
   20.8559   -9.9317  -16.6101 N   0  0  0  0  0  0  0  0  0  0  0  0
   21.2882   -7.7236  -15.7039 C   0  0  0  0  0  0  0  0  0  0  0  0
   22.1442   -8.1683  -14.8996 O   0  0  0  0  0  0  0  0  0  0  0  0
   22.2062   -4.1023  -16.0033 C   0  0  0  0  0  0  0  0  0  0  0  0
   22.3275   -5.4952  -15.4029 C   0  0  2  0  0  0  0  0  0  0  0  0
   21.2866   -6.3362  -16.0128 N   0  0  0  0  0  0  0  0  0  0  0  0
   22.1746   -5.4646  -13.9282 C   0  0  0  0  0  0  0  0  0  0  0  0
   23.1703   -5.0755  -13.0478 O   0  0  0  0  0  0  0  0  0  0  0  0
   21.0673   -5.8155  -13.4496 O   0  0  0  0  0  0  0  0  0  0  0  0
  2  1  1  6
  3  2  1  0
  4  3  1  0
  4  5  2  0
  6  5  1  0
  7  6  1  0
  8  7  2  0
  8  4  1  0
  9  2  1  0
  9 14  1  0
 10  9  2  0
 11 12  1  0
 13 14  1  0
 13 12  1  1
 13 15  1  0
 15 19  1  0
 15 16  2  0
 18 17  1  6
 18 20  1  0
 19 18  1  0
 20 21  1  0
 22 20  2  0
M  END
$$$$
