HSA.pdb
     RDKit          3D

 22 22  0  0  1  0  0  0  0  0999 V2000
   22.1276  -12.3969  -19.4255 N   0  0  0  0  0  0  0  0  0  0  0  0
   22.7051  -11.0978  -19.5798 C   0  0  1  0  0  0  0  0  0  0  0  0
   21.8876  -10.3383  -20.6043 C   0  0  0  0  0  0  0  0  0  0  0  0
   22.1317  -10.9992  -21.9234 C   0  0  0  0  0  0  0  0  0  0  0  0
   23.2152  -10.7559  -22.7240 C   0  0  0  0  0  0  0  0  0  0  0  0
   23.0807  -11.5396  -23.8235 N   0  0  0  0  0  0  0  0  0  0  0  0
   21.9507  -12.2575  -23.7270 C   0  0  0  0  0  0  0  0  0  0  0  0
   21.3825  -11.9150  -22.5592 N   0  0  0  0  0  0  0  0  0  0  0  0
   22.6424  -10.2978  -18.3133 C   0  0  0  0  0  0  0  0  0  0  0  0
   21.6058  -10.3777  -17.6049 O   0  0  0  0  0  0  0  0  0  0  0  0
   26.0479   -9.0771  -16.4888 O   0  0  0  0  0  0  0  0  0  0  0  0
   24.8600   -9.2866  -15.8239 C   0  0  0  0  0  0  0  0  0  0  0  0
   23.6469   -8.7920  -16.5874 C   0  0  2  0  0  0  0  0  0  0  0  0
   23.6891   -9.4639  -17.8832 N   0  0  0  0  0  0  0  0  0  0  0  0
   23.6453   -7.3218  -16.7459 C   0  0  0  0  0  0  0  0  0  0  0  0
   24.1814   -6.7737  -17.7406 O   0  0  0  0  0  0  0  0  0  0  0  0
   22.1371   -4.4235  -14.9208 C   0  0  0  0  0  0  0  0  0  0  0  0
   23.0749   -5.0488  -15.9428 C   0  0  2  0  0  0  0  0  0  0  0  0
   23.0275   -6.5071  -15.7585 N   0  0  0  0  0  0  0  0  0  0  0  0
   24.4617   -4.5486  -15.7829 C   0  0  0  0  0  0  0  0  0  0  0  0
   24.9472   -3.3919  -16.3699 O   0  0  0  0  0  0  0  0  0  0  0  0
   25.2451   -5.2209  -15.0669 O   0  0  0  0  0  0  0  0  0  0  0  0
  2  1  1  1
  3  2  1  0
  4  3  1  0
  4  5  2  0
  6  5  1  0
  7  6  1  0
  8  7  2  0
  8  4  1  0
  9  2  1  0
  9 14  1  0
 10  9  2  0
 11 12  1  0
 13 14  1  0
 13 12  1  1
 13 15  1  0
 15 19  1  0
 15 16  2  0
 18 17  1  1
 18 20  1  0
 19 18  1  0
 20 21  1  0
 22 20  2  0
M  END
$$$$
