HSA.pdb
     RDKit          3D

 22 22  0  0  1  0  0  0  0  0999 V2000
   27.8561  -21.0859  -16.3484 N   0  0  0  0  0  0  0  0  0  0  0  0
   27.1155  -20.1859  -15.5200 C   0  0  1  0  0  0  0  0  0  0  0  0
   26.5813  -19.0715  -16.3961 C   0  0  0  0  0  0  0  0  0  0  0  0
   27.7636  -18.2712  -16.8408 C   0  0  0  0  0  0  0  0  0  0  0  0
   28.5604  -17.5351  -16.0057 C   0  0  0  0  0  0  0  0  0  0  0  0
   29.5173  -16.9584  -16.7758 N   0  0  0  0  0  0  0  0  0  0  0  0
   29.3368  -17.3146  -18.0572 C   0  0  0  0  0  0  0  0  0  0  0  0
   28.2602  -18.1175  -18.0794 N   0  0  0  0  0  0  0  0  0  0  0  0
   25.9199  -20.8440  -14.8990 C   0  0  0  0  0  0  0  0  0  0  0  0
   25.2005  -21.5822  -15.6201 O   0  0  0  0  0  0  0  0  0  0  0  0
   24.9304  -20.2295  -10.8903 O   0  0  0  0  0  0  0  0  0  0  0  0
   24.7800  -21.4759  -11.4567 C   0  0  0  0  0  0  0  0  0  0  0  0
   24.4773  -21.4302  -12.9419 C   0  0  2  0  0  0  0  0  0  0  0  0
   25.5682  -20.6726  -13.5488 N   0  0  0  0  0  0  0  0  0  0  0  0
   23.1675  -20.8065  -13.2282 C   0  0  0  0  0  0  0  0  0  0  0  0
   23.0363  -19.5582  -13.2707 O   0  0  0  0  0  0  0  0  0  0  0  0
   19.8680  -21.9794  -14.4768 C   0  0  0  0  0  0  0  0  0  0  0  0
   20.7556  -20.9653  -13.7705 C   0  0  2  0  0  0  0  0  0  0  0  0
   22.0314  -21.6282  -13.4607 N   0  0  0  0  0  0  0  0  0  0  0  0
   20.1183  -20.4576  -12.5316 C   0  0  0  0  0  0  0  0  0  0  0  0
   19.1846  -19.4353  -12.4962 O   0  0  0  0  0  0  0  0  0  0  0  0
   20.4496  -20.9924  -11.4442 O   0  0  0  0  0  0  0  0  0  0  0  0
  2  1  1  6
  3  2  1  0
  4  3  1  0
  4  5  2  0
  6  5  1  0
  7  6  1  0
  8  7  2  0
  8  4  1  0
  9  2  1  0
  9 14  1  0
 10  9  2  0
 11 12  1  0
 13 14  1  0
 13 12  1  1
 13 15  1  0
 15 19  1  0
 15 16  2  0
 18 17  1  1
 18 20  1  0
 19 18  1  0
 20 21  1  0
 22 20  2  0
M  END
$$$$
