HSA.pdb
     RDKit          3D

 22 22  0  0  1  0  0  0  0  0999 V2000
   20.2046  -10.7500  -16.9314 N   0  0  0  0  0  0  0  0  0  0  0  0
   18.8740  -10.3468  -16.5971 C   0  0  1  0  0  0  0  0  0  0  0  0
   18.2067  -11.4906  -15.8615 C   0  0  0  0  0  0  0  0  0  0  0  0
   18.1523  -12.6408  -16.8157 C   0  0  0  0  0  0  0  0  0  0  0  0
   18.7787  -13.8420  -16.6187 C   0  0  0  0  0  0  0  0  0  0  0  0
   18.4950  -14.6189  -17.6945 N   0  0  0  0  0  0  0  0  0  0  0  0
   17.7151  -13.9366  -18.5474 C   0  0  0  0  0  0  0  0  0  0  0  0
   17.5150  -12.7289  -17.9948 N   0  0  0  0  0  0  0  0  0  0  0  0
   18.8571   -9.1762  -15.6605 C   0  0  0  0  0  0  0  0  0  0  0  0
   17.7451   -8.7448  -15.2607 O   0  0  0  0  0  0  0  0  0  0  0  0
   21.9422   -8.4314  -13.2926 O   0  0  0  0  0  0  0  0  0  0  0  0
   20.7057   -7.8844  -13.0301 C   0  0  0  0  0  0  0  0  0  0  0  0
   19.9760   -7.4197  -14.2755 C   0  0  2  0  0  0  0  0  0  0  0  0
   20.0273   -8.5404  -15.2102 N   0  0  0  0  0  0  0  0  0  0  0  0
   20.5835   -6.2053  -14.8610 C   0  0  0  0  0  0  0  0  0  0  0  0
   21.5648   -6.2798  -15.6413 O   0  0  0  0  0  0  0  0  0  0  0  0
   19.8496   -2.5401  -14.8547 C   0  0  0  0  0  0  0  0  0  0  0  0
   20.7650   -3.7413  -15.0401 C   0  0  2  0  0  0  0  0  0  0  0  0
   20.0526   -4.9266  -14.5397 N   0  0  0  0  0  0  0  0  0  0  0  0
   22.0478   -3.5614  -14.3183 C   0  0  0  0  0  0  0  0  0  0  0  0
   23.1184   -2.8266  -14.8000 O   0  0  0  0  0  0  0  0  0  0  0  0
   22.1677   -4.1133  -13.1962 O   0  0  0  0  0  0  0  0  0  0  0  0
  2  1  1  1
  3  2  1  0
  4  3  1  0
  4  5  2  0
  6  5  1  0
  7  6  1  0
  8  7  2  0
  8  4  1  0
  9  2  1  0
  9 14  1  0
 10  9  2  0
 11 12  1  0
 13 14  1  0
 13 12  1  1
 13 15  1  0
 15 19  1  0
 15 16  2  0
 18 17  1  1
 18 20  1  0
 19 18  1  0
 20 21  1  0
 22 20  2  0
M  END
$$$$
