HSA.pdb
     RDKit          3D

 22 22  0  0  1  0  0  0  0  0999 V2000
   19.9947  -13.2189  -17.8408 N   0  0  0  0  0  0  0  0  0  0  0  0
   19.3347  -12.2511  -17.0207 C   0  0  1  0  0  0  0  0  0  0  0  0
   19.4805  -12.6813  -15.5756 C   0  0  0  0  0  0  0  0  0  0  0  0
   18.6395  -13.9060  -15.4055 C   0  0  0  0  0  0  0  0  0  0  0  0
   17.2751  -13.9311  -15.5144 C   0  0  0  0  0  0  0  0  0  0  0  0
   16.8827  -15.2116  -15.2960 N   0  0  0  0  0  0  0  0  0  0  0  0
   17.9595  -15.9761  -15.0563 C   0  0  0  0  0  0  0  0  0  0  0  0
   19.0256  -15.1620  -15.1270 N   0  0  0  0  0  0  0  0  0  0  0  0
   19.9694  -10.8966  -17.1236 C   0  0  0  0  0  0  0  0  0  0  0  0
   21.2216  -10.8137  -17.0371 O   0  0  0  0  0  0  0  0  0  0  0  0
   17.6708   -7.4707  -17.7289 O   0  0  0  0  0  0  0  0  0  0  0  0
   18.9147   -7.5841  -18.3093 C   0  0  0  0  0  0  0  0  0  0  0  0
   19.8825   -8.4257  -17.5004 C   0  0  2  0  0  0  0  0  0  0  0  0
   19.2279   -9.7173  -17.3121 N   0  0  0  0  0  0  0  0  0  0  0  0
   20.2194   -7.8014  -16.2029 C   0  0  0  0  0  0  0  0  0  0  0  0
   19.5944   -8.0997  -15.1552 O   0  0  0  0  0  0  0  0  0  0  0  0
   22.8330   -5.4261  -14.9596 C   0  0  0  0  0  0  0  0  0  0  0  0
   21.5407   -6.2186  -14.8297 C   0  0  2  0  0  0  0  0  0  0  0  0
   21.2687   -6.8453  -16.1322 N   0  0  0  0  0  0  0  0  0  0  0  0
   20.4102   -5.3487  -14.4242 C   0  0  0  0  0  0  0  0  0  0  0  0
   20.1260   -4.9972  -13.1151 O   0  0  0  0  0  0  0  0  0  0  0  0
   19.6632   -4.9031  -15.3306 O   0  0  0  0  0  0  0  0  0  0  0  0
  2  1  1  6
  3  2  1  0
  4  3  1  0
  4  5  2  0
  6  5  1  0
  7  6  1  0
  8  7  2  0
  8  4  1  0
  9  2  1  0
  9 14  1  0
 10  9  2  0
 11 12  1  0
 13 14  1  0
 13 12  1  1
 13 15  1  0
 15 19  1  0
 15 16  2  0
 18 17  1  6
 18 20  1  0
 19 18  1  0
 20 21  1  0
 22 20  2  0
M  END
$$$$
