HSA.pdb
     RDKit          3D

 22 22  0  0  1  0  0  0  0  0999 V2000
   25.2432  -34.9528   -9.2538 N   0  0  0  0  0  0  0  0  0  0  0  0
   24.6911  -34.9281   -7.9349 C   0  0  1  0  0  0  0  0  0  0  0  0
   24.2689  -36.3377   -7.5752 C   0  0  0  0  0  0  0  0  0  0  0  0
   23.0836  -36.6613   -8.4275 C   0  0  0  0  0  0  0  0  0  0  0  0
   21.8382  -36.1171   -8.2629 C   0  0  0  0  0  0  0  0  0  0  0  0
   21.0403  -36.6544   -9.2199 N   0  0  0  0  0  0  0  0  0  0  0  0
   21.7522  -37.5113   -9.9684 C   0  0  0  0  0  0  0  0  0  0  0  0
   22.9996  -37.5036   -9.4704 N   0  0  0  0  0  0  0  0  0  0  0  0
   25.7019  -34.5155   -6.9072 C   0  0  0  0  0  0  0  0  0  0  0  0
   26.8773  -34.9504   -7.0147 O   0  0  0  0  0  0  0  0  0  0  0  0
   26.5279  -31.9060   -2.8632 O   0  0  0  0  0  0  0  0  0  0  0  0
   25.7112  -32.3446   -3.8817 C   0  0  0  0  0  0  0  0  0  0  0  0
   26.3871  -33.3320   -4.8132 C   0  0  2  0  0  0  0  0  0  0  0  0
   25.3943  -33.6654   -5.8307 N   0  0  0  0  0  0  0  0  0  0  0  0
   26.8546  -34.5422   -4.1037 C   0  0  0  0  0  0  0  0  0  0  0  0
   26.0621  -35.4708   -3.8087 O   0  0  0  0  0  0  0  0  0  0  0  0
   30.1472  -35.8808   -2.9333 C   0  0  0  0  0  0  0  0  0  0  0  0
   28.6264  -35.8372   -2.9547 C   0  0  2  0  0  0  0  0  0  0  0  0
   28.2247  -34.6643   -3.7458 N   0  0  0  0  0  0  0  0  0  0  0  0
   28.0674  -35.7568   -1.5835 C   0  0  0  0  0  0  0  0  0  0  0  0
   27.8616  -36.8502   -0.7588 O   0  0  0  0  0  0  0  0  0  0  0  0
   27.7615  -34.6202   -1.1444 O   0  0  0  0  0  0  0  0  0  0  0  0
  2  1  1  6
  3  2  1  0
  4  3  1  0
  4  5  2  0
  6  5  1  0
  7  6  1  0
  8  7  2  0
  8  4  1  0
  9  2  1  0
  9 14  1  0
 10  9  2  0
 11 12  1  0
 13 14  1  0
 13 12  1  1
 13 15  1  0
 15 19  1  0
 15 16  2  0
 18 17  1  1
 18 20  1  0
 19 18  1  0
 20 21  1  0
 22 20  2  0
M  END
$$$$
