HSA.pdb
     RDKit          3D

 22 22  0  0  1  0  0  0  0  0999 V2000
   19.8542  -12.6435  -16.4042 N   0  0  0  0  0  0  0  0  0  0  0  0
   19.6326  -11.3134  -16.8801 C   0  0  1  0  0  0  0  0  0  0  0  0
   18.2066  -11.2254  -17.3836 C   0  0  0  0  0  0  0  0  0  0  0  0
   18.1232  -12.1026  -18.5919 C   0  0  0  0  0  0  0  0  0  0  0  0
   18.5531  -11.7444  -19.8413 C   0  0  0  0  0  0  0  0  0  0  0  0
   18.3100  -12.7975  -20.6619 N   0  0  0  0  0  0  0  0  0  0  0  0
   17.7449  -13.7921  -19.9600 C   0  0  0  0  0  0  0  0  0  0  0  0
   17.6378  -13.3507  -18.6959 N   0  0  0  0  0  0  0  0  0  0  0  0
   19.7577  -10.2944  -15.7875 C   0  0  0  0  0  0  0  0  0  0  0  0
   19.1654  -10.5081  -14.6984 O   0  0  0  0  0  0  0  0  0  0  0  0
   22.1768   -8.0424  -12.8897 O   0  0  0  0  0  0  0  0  0  0  0  0
   21.7463   -8.8531  -13.9166 C   0  0  0  0  0  0  0  0  0  0  0  0
   20.7057   -8.1990  -14.8047 C   0  0  2  0  0  0  0  0  0  0  0  0
   20.5063   -9.1127  -15.9261 N   0  0  0  0  0  0  0  0  0  0  0  0
   21.1283   -6.8613  -15.2719 C   0  0  0  0  0  0  0  0  0  0  0  0
   22.0682   -6.7257  -16.0939 O   0  0  0  0  0  0  0  0  0  0  0  0
   19.9068   -3.3538  -14.8821 C   0  0  0  0  0  0  0  0  0  0  0  0
   20.9710   -4.3898  -15.2128 C   0  0  2  0  0  0  0  0  0  0  0  0
   20.4634   -5.7026  -14.7866 N   0  0  0  0  0  0  0  0  0  0  0  0
   22.2544   -4.0830  -14.5361 C   0  0  0  0  0  0  0  0  0  0  0  0
   22.7551   -4.7886  -13.4547 O   0  0  0  0  0  0  0  0  0  0  0  0
   22.9292   -3.1188  -14.9756 O   0  0  0  0  0  0  0  0  0  0  0  0
  2  1  1  1
  3  2  1  0
  4  3  1  0
  4  5  2  0
  6  5  1  0
  7  6  1  0
  8  7  2  0
  8  4  1  0
  9  2  1  0
  9 14  1  0
 10  9  2  0
 11 12  1  0
 13 14  1  0
 13 12  1  1
 13 15  1  0
 15 19  1  0
 15 16  2  0
 18 17  1  1
 18 20  1  0
 19 18  1  0
 20 21  1  0
 22 20  2  0
M  END
$$$$
