HSA.pdb
     RDKit          3D

 22 22  0  0  1  0  0  0  0  0999 V2000
   17.1247  -10.7474  -16.8739 N   0  0  0  0  0  0  0  0  0  0  0  0
   17.7471  -11.0214  -15.6159 C   0  0  1  0  0  0  0  0  0  0  0  0
   18.1986  -12.4674  -15.6196 C   0  0  0  0  0  0  0  0  0  0  0  0
   16.9606  -13.3037  -15.5552 C   0  0  0  0  0  0  0  0  0  0  0  0
   15.7394  -12.8501  -15.1348 C   0  0  0  0  0  0  0  0  0  0  0  0
   14.8772  -13.8946  -15.2189 N   0  0  0  0  0  0  0  0  0  0  0  0
   15.5264  -14.9763  -15.6771 C   0  0  0  0  0  0  0  0  0  0  0  0
   16.7994  -14.5976  -15.8777 N   0  0  0  0  0  0  0  0  0  0  0  0
   18.9800  -10.1951  -15.4039 C   0  0  0  0  0  0  0  0  0  0  0  0
   19.6751  -10.4088  -14.3774 O   0  0  0  0  0  0  0  0  0  0  0  0
   20.4459   -7.8135  -18.4206 O   0  0  0  0  0  0  0  0  0  0  0  0
   21.2809   -8.3325  -17.4560 C   0  0  0  0  0  0  0  0  0  0  0  0
   20.6287   -8.4447  -16.0916 C   0  0  2  0  0  0  0  0  0  0  0  0
   19.3928   -9.1938  -16.3001 N   0  0  0  0  0  0  0  0  0  0  0  0
   20.3584   -7.1218  -15.4889 C   0  0  0  0  0  0  0  0  0  0  0  0
   19.2645   -6.5333  -15.6741 O   0  0  0  0  0  0  0  0  0  0  0  0
   22.0270   -4.8716  -13.0310 C   0  0  0  0  0  0  0  0  0  0  0  0
   21.0810   -5.1384  -14.1924 C   0  0  2  0  0  0  0  0  0  0  0  0
   21.3500   -6.4983  -14.6838 N   0  0  0  0  0  0  0  0  0  0  0  0
   21.2642   -4.1463  -15.2793 C   0  0  0  0  0  0  0  0  0  0  0  0
   20.7730   -2.8518  -15.2459 O   0  0  0  0  0  0  0  0  0  0  0  0
   21.9080   -4.5074  -16.2958 O   0  0  0  0  0  0  0  0  0  0  0  0
  2  1  1  6
  3  2  1  0
  4  3  1  0
  4  5  2  0
  6  5  1  0
  7  6  1  0
  8  7  2  0
  8  4  1  0
  9  2  1  0
  9 14  1  0
 10  9  2  0
 11 12  1  0
 13 14  1  0
 13 12  1  6
 13 15  1  0
 15 19  1  0
 15 16  2  0
 18 17  1  1
 18 20  1  0
 19 18  1  0
 20 21  1  0
 22 20  2  0
M  END
$$$$
