HSA.pdb
     RDKit          3D

 22 22  0  0  1  0  0  0  0  0999 V2000
   19.6144   -9.9629  -14.9875 N   0  0  0  0  0  0  0  0  0  0  0  0
   20.3383   -9.0767  -15.8450 C   0  0  1  0  0  0  0  0  0  0  0  0
   19.7232   -9.1527  -17.2272 C   0  0  0  0  0  0  0  0  0  0  0  0
   19.9967  -10.5293  -17.7435 C   0  0  0  0  0  0  0  0  0  0  0  0
   21.1880  -10.9323  -18.2842 C   0  0  0  0  0  0  0  0  0  0  0  0
   21.0454  -12.2360  -18.6323 N   0  0  0  0  0  0  0  0  0  0  0  0
   19.8062  -12.6496  -18.3242 C   0  0  0  0  0  0  0  0  0  0  0  0
   19.1782  -11.5936  -17.7816 N   0  0  0  0  0  0  0  0  0  0  0  0
   20.2203   -7.6470  -15.4090 C   0  0  0  0  0  0  0  0  0  0  0  0
   19.0837   -7.2083  -15.0956 O   0  0  0  0  0  0  0  0  0  0  0  0
   21.9286   -5.7330  -12.5983 O   0  0  0  0  0  0  0  0  0  0  0  0
   22.2529   -5.1970  -13.8249 C   0  0  0  0  0  0  0  0  0  0  0  0
   21.1768   -5.3989  -14.8740 C   0  0  2  0  0  0  0  0  0  0  0  0
   21.3218   -6.7768  -15.3350 N   0  0  0  0  0  0  0  0  0  0  0  0
   21.3006   -4.4429  -15.9953 C   0  0  0  0  0  0  0  0  0  0  0  0
   22.1891   -4.5796  -16.8723 O   0  0  0  0  0  0  0  0  0  0  0  0
   19.2552   -1.6285  -17.3428 C   0  0  0  0  0  0  0  0  0  0  0  0
   20.5361   -2.4435  -17.2421 C   0  0  2  0  0  0  0  0  0  0  0  0
   20.4010   -3.3464  -16.0891 N   0  0  0  0  0  0  0  0  0  0  0  0
   21.7233   -1.5693  -17.0826 C   0  0  0  0  0  0  0  0  0  0  0  0
   22.4029   -0.9760  -18.1334 O   0  0  0  0  0  0  0  0  0  0  0  0
   22.1370   -1.3550  -15.9160 O   0  0  0  0  0  0  0  0  0  0  0  0
  2  1  1  1
  3  2  1  0
  4  3  1  0
  4  5  2  0
  6  5  1  0
  7  6  1  0
  8  7  2  0
  8  4  1  0
  9  2  1  0
  9 14  1  0
 10  9  2  0
 11 12  1  0
 13 14  1  0
 13 12  1  1
 13 15  1  0
 15 19  1  0
 15 16  2  0
 18 17  1  1
 18 20  1  0
 19 18  1  0
 20 21  1  0
 22 20  2  0
M  END
$$$$
