HDW.pdb
     RDKit          3D

 33 35  0  0  1  0  0  0  0  0999 V2000
   28.1687  -21.4408  -17.4663 N   0  0  0  0  0  0  0  0  0  0  0  0
   27.6119  -22.2790  -16.3652 C   0  0  1  0  0  0  0  0  0  0  0  0
   28.8237  -22.9406  -15.7679 C   0  0  0  0  0  0  0  0  0  0  0  0
   29.4230  -24.0092  -16.5580 C   0  0  0  0  0  0  0  0  0  0  0  0
   28.8186  -25.2752  -16.6229 C   0  0  0  0  0  0  0  0  0  0  0  0
   29.5706  -26.0544  -17.4082 N   0  0  0  0  0  0  0  0  0  0  0  0
   30.6322  -25.3071  -17.8370 C   0  0  0  0  0  0  0  0  0  0  0  0
   30.5173  -24.0934  -17.3144 N   0  0  0  0  0  0  0  0  0  0  0  0
   27.0449  -21.3198  -15.3852 C   0  0  0  0  0  0  0  0  0  0  0  0
   27.8677  -20.4475  -14.9271 O   0  0  0  0  0  0  0  0  0  0  0  0
   25.7003  -21.2962  -14.9394 N   0  0  0  0  0  0  0  0  0  0  0  0
   25.3524  -20.2746  -13.9480 C   0  0  1  0  0  0  0  0  0  0  0  0
   24.0143  -19.7145  -14.3766 C   0  0  0  0  0  0  0  0  0  0  0  0
   23.9900  -19.1141  -15.7149 C   0  0  0  0  0  0  0  0  0  0  0  0
   24.6763  -18.1527  -16.1167 O   0  0  0  0  0  0  0  0  0  0  0  0
   25.2474  -20.8560  -12.5997 C   0  0  0  0  0  0  0  0  0  0  0  0
   24.7226  -21.9852  -12.4816 O   0  0  0  0  0  0  0  0  0  0  0  0
   23.0813  -19.7014  -16.6458 O   0  0  0  0  0  0  0  0  0  0  0  0
   25.7014  -20.2323  -11.4050 N   0  0  0  0  0  0  0  0  0  0  0  0
   25.5119  -20.7620  -10.0688 C   0  0  1  0  0  0  0  0  0  0  0  0
   26.7325  -20.6713   -9.2313 C   0  0  0  0  0  0  0  0  0  0  0  0
   26.5698  -20.6939   -7.7878 C   0  0  0  0  0  0  0  0  0  0  0  0
   25.7208  -21.5688   -7.1139 C   0  0  0  0  0  0  0  0  0  0  0  0
   25.8133  -21.3673   -5.7891 N   0  0  0  0  0  0  0  0  0  0  0  0
   26.7096  -20.3728   -5.5844 C   0  0  0  0  0  0  0  0  0  0  0  0
   27.1411  -19.8033   -4.4265 C   0  0  0  0  0  0  0  0  0  0  0  0
   28.0692  -18.7785   -4.4380 C   0  0  0  0  0  0  0  0  0  0  0  0
   28.5522  -18.3414   -5.6556 C   0  0  0  0  0  0  0  0  0  0  0  0
   28.1174  -18.9161   -6.8307 C   0  0  0  0  0  0  0  0  0  0  0  0
   27.1820  -19.9510   -6.8223 C   0  0  0  0  0  0  0  0  0  0  0  0
   24.2279  -20.4211   -9.4692 C   0  0  0  0  0  0  0  0  0  0  0  0
   23.7256  -21.1769   -8.4205 O   0  0  0  0  0  0  0  0  0  0  0  0
   23.5056  -19.4552   -9.8368 O   0  0  0  0  0  0  0  0  0  0  0  0
  2  1  1  6
  3  2  1  0
  3  4  1  0
  4  5  2  0
  5  6  1  0
  7  6  1  0
  8  4  1  0
  8  7  2  0
  9  2  1  0
  9 10  2  0
 11  9  1  0
 12 11  1  0
 12 13  1  6
 14 13  1  0
 15 14  2  0
 16 19  1  0
 16 12  1  0
 17 16  2  0
 18 14  1  0
 20 19  1  0
 20 31  1  0
 21 22  1  0
 20 21  1  1
 22 30  1  0
 22 23  2  0
 23 24  1  0
 25 26  2  0
 25 24  1  0
 27 26  1  0
 28 27  2  0
 29 28  1  0
 29 30  2  0
 30 25  1  0
 31 32  1  0
 33 31  2  0
M  END
$$$$
