HDW.pdb
     RDKit          3D

 33 35  0  0  1  0  0  0  0  0999 V2000
   21.5186  -14.2946  -20.8240 N   0  0  0  0  0  0  0  0  0  0  0  0
   21.7805  -13.7445  -19.4624 C   0  0  1  0  0  0  0  0  0  0  0  0
   23.2066  -14.1343  -19.1844 C   0  0  0  0  0  0  0  0  0  0  0  0
   23.4546  -15.5585  -18.9961 C   0  0  0  0  0  0  0  0  0  0  0  0
   22.9775  -16.2221  -17.8540 C   0  0  0  0  0  0  0  0  0  0  0  0
   23.3430  -17.5062  -17.9371 N   0  0  0  0  0  0  0  0  0  0  0  0
   24.0380  -17.6633  -19.1040 C   0  0  0  0  0  0  0  0  0  0  0  0
   24.0882  -16.4862  -19.7134 N   0  0  0  0  0  0  0  0  0  0  0  0
   21.6956  -12.2701  -19.6079 C   0  0  0  0  0  0  0  0  0  0  0  0
   22.3018  -11.7802  -20.6278 O   0  0  0  0  0  0  0  0  0  0  0  0
   21.0083  -11.3945  -18.7314 N   0  0  0  0  0  0  0  0  0  0  0  0
   21.0228   -9.9705  -19.0773 C   0  0  1  0  0  0  0  0  0  0  0  0
   19.6385   -9.6523  -19.5970 C   0  0  0  0  0  0  0  0  0  0  0  0
   18.5386   -9.9875  -18.6859 C   0  0  0  0  0  0  0  0  0  0  0  0
   18.6129  -10.6622  -17.6390 O   0  0  0  0  0  0  0  0  0  0  0  0
   21.3226   -9.1402  -17.8993 C   0  0  0  0  0  0  0  0  0  0  0  0
   21.0005   -9.5749  -16.7716 O   0  0  0  0  0  0  0  0  0  0  0  0
   17.2535   -9.4821  -19.0468 O   0  0  0  0  0  0  0  0  0  0  0  0
   21.9585   -7.8688  -17.9381 N   0  0  0  0  0  0  0  0  0  0  0  0
   22.1763   -7.0144  -16.7872 C   0  0  1  0  0  0  0  0  0  0  0  0
   23.6109   -6.7321  -16.5385 C   0  0  0  0  0  0  0  0  0  0  0  0
   24.4997   -7.8620  -16.3292 C   0  0  0  0  0  0  0  0  0  0  0  0
   25.6509   -8.0959  -17.0781 C   0  0  0  0  0  0  0  0  0  0  0  0
   26.2749   -9.1966  -16.6271 N   0  0  0  0  0  0  0  0  0  0  0  0
   25.5498   -9.6882  -15.5943 C   0  0  0  0  0  0  0  0  0  0  0  0
   25.7603  -10.7841  -14.8159 C   0  0  0  0  0  0  0  0  0  0  0  0
   24.8801  -11.1204  -13.8041 C   0  0  0  0  0  0  0  0  0  0  0  0
   23.7760  -10.3170  -13.5981 C   0  0  0  0  0  0  0  0  0  0  0  0
   23.5595   -9.2059  -14.3846 C   0  0  0  0  0  0  0  0  0  0  0  0
   24.4464   -8.8634  -15.4056 C   0  0  0  0  0  0  0  0  0  0  0  0
   21.2194   -5.9215  -16.6667 C   0  0  0  0  0  0  0  0  0  0  0  0
   21.0927   -5.2348  -15.4685 O   0  0  0  0  0  0  0  0  0  0  0  0
   20.4671   -5.5292  -17.5994 O   0  0  0  0  0  0  0  0  0  0  0  0
  2  1  1  6
  3  2  1  0
  3  4  1  0
  4  5  2  0
  5  6  1  0
  7  6  1  0
  8  4  1  0
  8  7  2  0
  9  2  1  0
  9 10  2  0
 11  9  1  0
 12 11  1  0
 12 13  1  1
 14 13  1  0
 15 14  2  0
 16 19  1  0
 16 12  1  0
 17 16  2  0
 18 14  1  0
 20 19  1  0
 20 31  1  0
 21 22  1  0
 20 21  1  6
 22 30  1  0
 22 23  2  0
 23 24  1  0
 25 26  2  0
 25 24  1  0
 27 26  1  0
 28 27  2  0
 29 28  1  0
 29 30  2  0
 30 25  1  0
 31 32  1  0
 33 31  2  0
M  END
$$$$
