HDW.pdb
     RDKit          3D

 33 35  0  0  1  0  0  0  0  0999 V2000
   23.0027  -18.6403  -16.9767 N   0  0  0  0  0  0  0  0  0  0  0  0
   23.6156  -19.8289  -16.3159 C   0  0  1  0  0  0  0  0  0  0  0  0
   25.0732  -19.7287  -16.6740 C   0  0  0  0  0  0  0  0  0  0  0  0
   25.4144  -20.0405  -18.0566 C   0  0  0  0  0  0  0  0  0  0  0  0
   25.7494  -21.3518  -18.4317 C   0  0  0  0  0  0  0  0  0  0  0  0
   26.0146  -21.3535  -19.7428 N   0  0  0  0  0  0  0  0  0  0  0  0
   25.8541  -20.0744  -20.1985 C   0  0  0  0  0  0  0  0  0  0  0  0
   25.4964  -19.3149  -19.1716 N   0  0  0  0  0  0  0  0  0  0  0  0
   23.4527  -19.5997  -14.8588 C   0  0  0  0  0  0  0  0  0  0  0  0
   23.5860  -18.3827  -14.4730 O   0  0  0  0  0  0  0  0  0  0  0  0
   23.1627  -20.5976  -13.8957 N   0  0  0  0  0  0  0  0  0  0  0  0
   22.8644  -20.1356  -12.5373 C   0  0  1  0  0  0  0  0  0  0  0  0
   21.4584  -20.6045  -12.2355 C   0  0  0  0  0  0  0  0  0  0  0  0
   20.9331  -20.1976  -10.9276 C   0  0  0  0  0  0  0  0  0  0  0  0
   19.8068  -19.7161  -10.6900 O   0  0  0  0  0  0  0  0  0  0  0  0
   23.8071  -20.7076  -11.5621 C   0  0  0  0  0  0  0  0  0  0  0  0
   23.7406  -21.9336  -11.3237 O   0  0  0  0  0  0  0  0  0  0  0  0
   21.8133  -20.3770   -9.8184 O   0  0  0  0  0  0  0  0  0  0  0  0
   24.8018  -19.9716  -10.8611 N   0  0  0  0  0  0  0  0  0  0  0  0
   25.7793  -20.5486   -9.9590 C   0  0  1  0  0  0  0  0  0  0  0  0
   26.9864  -19.7028   -9.7950 C   0  0  0  0  0  0  0  0  0  0  0  0
   28.0406  -20.1849   -8.9194 C   0  0  0  0  0  0  0  0  0  0  0  0
   29.0159  -21.1011   -9.3067 C   0  0  0  0  0  0  0  0  0  0  0  0
   29.8644  -21.3242   -8.2896 N   0  0  0  0  0  0  0  0  0  0  0  0
   29.4596  -20.5686   -7.2411 C   0  0  0  0  0  0  0  0  0  0  0  0
   29.9812  -20.4502   -5.9899 C   0  0  0  0  0  0  0  0  0  0  0  0
   29.4014  -19.6172   -5.0511 C   0  0  0  0  0  0  0  0  0  0  0  0
   28.2751  -18.9035   -5.4104 C   0  0  0  0  0  0  0  0  0  0  0  0
   27.7440  -19.0209   -6.6769 C   0  0  0  0  0  0  0  0  0  0  0  0
   28.3273  -19.8597   -7.6268 C   0  0  0  0  0  0  0  0  0  0  0  0
   25.2018  -21.1764   -8.7771 C   0  0  0  0  0  0  0  0  0  0  0  0
   25.8012  -22.2957   -8.2192 O   0  0  0  0  0  0  0  0  0  0  0  0
   24.1612  -20.7698   -8.1928 O   0  0  0  0  0  0  0  0  0  0  0  0
  2  1  1  6
  3  2  1  0
  3  4  1  0
  4  5  2  0
  5  6  1  0
  7  6  1  0
  8  4  1  0
  8  7  2  0
  9  2  1  0
  9 10  2  0
 11  9  1  0
 12 11  1  0
 12 13  1  1
 14 13  1  0
 15 14  2  0
 16 19  1  0
 16 12  1  0
 17 16  2  0
 18 14  1  0
 20 19  1  0
 20 31  1  0
 21 22  1  0
 20 21  1  1
 22 30  1  0
 22 23  2  0
 23 24  1  0
 25 26  2  0
 25 24  1  0
 27 26  1  0
 28 27  2  0
 29 28  1  0
 29 30  2  0
 30 25  1  0
 31 32  1  0
 33 31  2  0
M  END
$$$$
