HDW.pdb
     RDKit          3D

 33 35  0  0  1  0  0  0  0  0999 V2000
   24.4935  -17.8716  -19.0739 N   0  0  0  0  0  0  0  0  0  0  0  0
   24.3710  -17.5147  -17.6307 C   0  0  1  0  0  0  0  0  0  0  0  0
   22.9099  -17.7137  -17.3330 C   0  0  0  0  0  0  0  0  0  0  0  0
   22.0213  -16.6331  -17.7426 C   0  0  0  0  0  0  0  0  0  0  0  0
   20.9132  -16.8922  -18.5657 C   0  0  0  0  0  0  0  0  0  0  0  0
   20.2782  -15.7351  -18.7833 N   0  0  0  0  0  0  0  0  0  0  0  0
   20.9620  -14.7568  -18.1164 C   0  0  0  0  0  0  0  0  0  0  0  0
   21.9952  -15.3217  -17.5058 N   0  0  0  0  0  0  0  0  0  0  0  0
   25.1627  -18.5363  -16.9016 C   0  0  0  0  0  0  0  0  0  0  0  0
   25.0950  -19.7279  -17.3740 O   0  0  0  0  0  0  0  0  0  0  0  0
   25.9677  -18.2944  -15.7610 N   0  0  0  0  0  0  0  0  0  0  0  0
   26.6438  -19.4543  -15.1735 C   0  0  1  0  0  0  0  0  0  0  0  0
   27.8414  -18.9073  -14.4290 C   0  0  0  0  0  0  0  0  0  0  0  0
   28.8009  -19.9157  -13.9657 C   0  0  0  0  0  0  0  0  0  0  0  0
   29.6959  -19.7603  -13.1103 O   0  0  0  0  0  0  0  0  0  0  0  0
   25.7567  -20.1724  -14.2438 C   0  0  0  0  0  0  0  0  0  0  0  0
   24.5648  -20.3478  -14.5798 O   0  0  0  0  0  0  0  0  0  0  0  0
   28.6875  -21.2064  -14.5644 O   0  0  0  0  0  0  0  0  0  0  0  0
   26.1490  -20.6918  -12.9794 N   0  0  0  0  0  0  0  0  0  0  0  0
   25.2816  -21.4248  -12.0781 C   0  0  1  0  0  0  0  0  0  0  0  0
   26.0151  -22.0585  -10.9557 C   0  0  0  0  0  0  0  0  0  0  0  0
   26.4559  -21.2066   -9.8645 C   0  0  0  0  0  0  0  0  0  0  0  0
   25.6096  -20.3721   -9.1379 C   0  0  0  0  0  0  0  0  0  0  0  0
   26.3043  -19.7383   -8.1787 N   0  0  0  0  0  0  0  0  0  0  0  0
   27.5934  -20.1443   -8.2660 C   0  0  0  0  0  0  0  0  0  0  0  0
   28.6789  -19.7882   -7.5268 C   0  0  0  0  0  0  0  0  0  0  0  0
   29.9271  -20.3214   -7.7897 C   0  0  0  0  0  0  0  0  0  0  0  0
   30.0513  -21.2279   -8.8240 C   0  0  0  0  0  0  0  0  0  0  0  0
   28.9539  -21.5910   -9.5749 C   0  0  0  0  0  0  0  0  0  0  0  0
   27.6929  -21.0557   -9.3115 C   0  0  0  0  0  0  0  0  0  0  0  0
   24.0158  -20.7591  -11.7965 C   0  0  0  0  0  0  0  0  0  0  0  0
   23.8802  -19.3968  -12.0180 O   0  0  0  0  0  0  0  0  0  0  0  0
   22.9896  -21.3417  -11.3523 O   0  0  0  0  0  0  0  0  0  0  0  0
  2  1  1  6
  3  2  1  0
  3  4  1  0
  4  5  2  0
  5  6  1  0
  7  6  1  0
  8  4  1  0
  8  7  2  0
  9  2  1  0
  9 10  2  0
 11  9  1  0
 12 11  1  0
 12 13  1  1
 14 13  1  0
 15 14  2  0
 16 19  1  0
 16 12  1  0
 17 16  2  0
 18 14  1  0
 20 19  1  0
 20 31  1  0
 21 22  1  0
 20 21  1  1
 22 30  1  0
 22 23  2  0
 23 24  1  0
 25 26  2  0
 25 24  1  0
 27 26  1  0
 28 27  2  0
 29 28  1  0
 29 30  2  0
 30 25  1  0
 31 32  1  0
 33 31  2  0
M  END
$$$$
