HDW.pdb
     RDKit          3D

 33 35  0  0  1  0  0  0  0  0999 V2000
   27.3329  -16.7820  -18.4442 N   0  0  0  0  0  0  0  0  0  0  0  0
   28.1266  -17.5145  -17.4153 C   0  0  1  0  0  0  0  0  0  0  0  0
   29.2089  -16.5413  -17.0349 C   0  0  0  0  0  0  0  0  0  0  0  0
   30.2630  -16.3402  -18.0216 C   0  0  0  0  0  0  0  0  0  0  0  0
   30.4663  -15.0780  -18.6031 C   0  0  0  0  0  0  0  0  0  0  0  0
   31.4859  -15.1767  -19.4634 N   0  0  0  0  0  0  0  0  0  0  0  0
   31.9265  -16.4707  -19.4352 C   0  0  0  0  0  0  0  0  0  0  0  0
   31.1791  -17.1399  -18.5674 N   0  0  0  0  0  0  0  0  0  0  0  0
   27.2083  -17.6995  -16.2644 C   0  0  0  0  0  0  0  0  0  0  0  0
   26.5220  -16.6662  -15.9341 O   0  0  0  0  0  0  0  0  0  0  0  0
   27.0366  -18.9006  -15.5329 N   0  0  0  0  0  0  0  0  0  0  0  0
   25.9243  -18.9383  -14.5794 C   0  0  1  0  0  0  0  0  0  0  0  0
   24.6605  -18.8962  -15.4094 C   0  0  0  0  0  0  0  0  0  0  0  0
   23.4702  -18.4036  -14.7074 C   0  0  0  0  0  0  0  0  0  0  0  0
   22.7122  -17.4829  -15.0742 O   0  0  0  0  0  0  0  0  0  0  0  0
   25.9571  -20.1691  -13.7726 C   0  0  0  0  0  0  0  0  0  0  0  0
   25.5231  -21.2243  -14.2850 O   0  0  0  0  0  0  0  0  0  0  0  0
   23.1574  -19.0552  -13.4766 O   0  0  0  0  0  0  0  0  0  0  0  0
   26.4501  -20.2589  -12.4416 N   0  0  0  0  0  0  0  0  0  0  0  0
   26.5145  -21.4790  -11.6611 C   0  0  1  0  0  0  0  0  0  0  0  0
   27.4115  -21.3677  -10.4853 C   0  0  0  0  0  0  0  0  0  0  0  0
   26.9028  -20.6929   -9.3037 C   0  0  0  0  0  0  0  0  0  0  0  0
   25.5655  -20.3495   -9.1185 C   0  0  0  0  0  0  0  0  0  0  0  0
   25.4039  -19.7674   -7.9188 N   0  0  0  0  0  0  0  0  0  0  0  0
   26.6154  -19.7234   -7.3149 C   0  0  0  0  0  0  0  0  0  0  0  0
   26.9741  -19.2267   -6.1000 C   0  0  0  0  0  0  0  0  0  0  0  0
   28.2873  -19.2729   -5.6698 C   0  0  0  0  0  0  0  0  0  0  0  0
   29.2335  -19.8362   -6.5030 C   0  0  0  0  0  0  0  0  0  0  0  0
   28.8738  -20.3404   -7.7344 C   0  0  0  0  0  0  0  0  0  0  0  0
   27.5495  -20.2964   -8.1708 C   0  0  0  0  0  0  0  0  0  0  0  0
   25.2312  -22.1506  -11.4982 C   0  0  0  0  0  0  0  0  0  0  0  0
   25.1842  -23.5162  -11.2612 O   0  0  0  0  0  0  0  0  0  0  0  0
   24.1130  -21.5706  -11.5544 O   0  0  0  0  0  0  0  0  0  0  0  0
  2  1  1  6
  3  2  1  0
  3  4  1  0
  4  5  2  0
  5  6  1  0
  7  6  1  0
  8  4  1  0
  8  7  2  0
  9  2  1  0
  9 10  2  0
 11  9  1  0
 12 11  1  0
 12 13  1  6
 14 13  1  0
 15 14  2  0
 16 19  1  0
 16 12  1  0
 17 16  2  0
 18 14  1  0
 20 19  1  0
 20 31  1  0
 21 22  1  0
 20 21  1  1
 22 30  1  0
 22 23  2  0
 23 24  1  0
 25 26  2  0
 25 24  1  0
 27 26  1  0
 28 27  2  0
 29 28  1  0
 29 30  2  0
 30 25  1  0
 31 32  1  0
 33 31  2  0
M  END
$$$$
