HDW.pdb
     RDKit          3D

 33 35  0  0  1  0  0  0  0  0999 V2000
   23.0230  -17.5534  -18.2952 N   0  0  0  0  0  0  0  0  0  0  0  0
   23.7902  -18.8189  -18.1079 C   0  0  1  0  0  0  0  0  0  0  0  0
   25.2239  -18.3665  -18.0539 C   0  0  0  0  0  0  0  0  0  0  0  0
   25.7842  -17.8682  -19.3040 C   0  0  0  0  0  0  0  0  0  0  0  0
   26.3608  -18.7516  -20.2311 C   0  0  0  0  0  0  0  0  0  0  0  0
   26.7901  -18.0350  -21.2758 N   0  0  0  0  0  0  0  0  0  0  0  0
   26.4966  -16.7232  -21.0257 C   0  0  0  0  0  0  0  0  0  0  0  0
   25.8978  -16.6549  -19.8441 N   0  0  0  0  0  0  0  0  0  0  0  0
   23.3884  -19.3320  -16.7747 C   0  0  0  0  0  0  0  0  0  0  0  0
   23.3250  -18.4533  -15.8411 O   0  0  0  0  0  0  0  0  0  0  0  0
   23.0732  -20.6797  -16.4718 N   0  0  0  0  0  0  0  0  0  0  0  0
   22.6749  -20.9693  -15.0916 C   0  0  1  0  0  0  0  0  0  0  0  0
   21.6962  -22.1197  -15.1715 C   0  0  0  0  0  0  0  0  0  0  0  0
   21.1555  -22.5683  -13.8836 C   0  0  0  0  0  0  0  0  0  0  0  0
   21.4809  -22.1579  -12.7512 O   0  0  0  0  0  0  0  0  0  0  0  0
   23.8364  -21.3512  -14.2719 C   0  0  0  0  0  0  0  0  0  0  0  0
   24.7781  -21.9590  -14.8270 O   0  0  0  0  0  0  0  0  0  0  0  0
   20.1518  -23.5811  -13.9470 O   0  0  0  0  0  0  0  0  0  0  0  0
   23.9789  -21.0804  -12.8831 N   0  0  0  0  0  0  0  0  0  0  0  0
   25.1720  -21.3472  -12.1038 C   0  0  1  0  0  0  0  0  0  0  0  0
   26.4192  -20.9434  -12.7975 C   0  0  0  0  0  0  0  0  0  0  0  0
   26.5725  -19.5454  -13.1616 C   0  0  0  0  0  0  0  0  0  0  0  0
   26.1986  -18.4823  -12.3428 C   0  0  0  0  0  0  0  0  0  0  0  0
   26.4937  -17.3169  -12.9420 N   0  0  0  0  0  0  0  0  0  0  0  0
   27.0547  -17.6000  -14.1416 C   0  0  0  0  0  0  0  0  0  0  0  0
   27.5144  -16.7679  -15.1151 C   0  0  0  0  0  0  0  0  0  0  0  0
   28.0509  -17.2684  -16.2870 C   0  0  0  0  0  0  0  0  0  0  0  0
   28.1110  -18.6382  -16.4510 C   0  0  0  0  0  0  0  0  0  0  0  0
   27.6464  -19.4843  -15.4670 C   0  0  0  0  0  0  0  0  0  0  0  0
   27.1056  -18.9823  -14.2830 C   0  0  0  0  0  0  0  0  0  0  0  0
   25.0356  -21.0478  -10.6838 C   0  0  0  0  0  0  0  0  0  0  0  0
   26.0226  -21.4381   -9.7912 O   0  0  0  0  0  0  0  0  0  0  0  0
   24.0563  -20.4363  -10.1771 O   0  0  0  0  0  0  0  0  0  0  0  0
  2  1  1  1
  3  2  1  0
  3  4  1  0
  4  5  2  0
  5  6  1  0
  7  6  1  0
  8  4  1  0
  8  7  2  0
  9  2  1  0
  9 10  2  0
 11  9  1  0
 12 11  1  0
 12 13  1  6
 14 13  1  0
 15 14  2  0
 16 19  1  0
 16 12  1  0
 17 16  2  0
 18 14  1  0
 20 19  1  0
 20 31  1  0
 21 22  1  0
 20 21  1  6
 22 30  1  0
 22 23  2  0
 23 24  1  0
 25 26  2  0
 25 24  1  0
 27 26  1  0
 28 27  2  0
 29 28  1  0
 29 30  2  0
 30 25  1  0
 31 32  1  0
 33 31  2  0
M  END
$$$$
