HDW.pdb
     RDKit          3D

 33 35  0  0  1  0  0  0  0  0999 V2000
   27.8324  -19.7120  -19.1495 N   0  0  0  0  0  0  0  0  0  0  0  0
   28.4975  -20.3988  -18.0045 C   0  0  1  0  0  0  0  0  0  0  0  0
   29.8762  -19.7976  -17.9752 C   0  0  0  0  0  0  0  0  0  0  0  0
   30.8072  -20.2845  -18.9858 C   0  0  0  0  0  0  0  0  0  0  0  0
   30.5288  -21.4560  -19.7088 C   0  0  0  0  0  0  0  0  0  0  0  0
   31.5388  -21.6684  -20.5597 N   0  0  0  0  0  0  0  0  0  0  0  0
   32.4439  -20.6582  -20.3873 C   0  0  0  0  0  0  0  0  0  0  0  0
   31.9810  -19.8494  -19.4434 N   0  0  0  0  0  0  0  0  0  0  0  0
   27.7503  -19.9689  -16.7966 C   0  0  0  0  0  0  0  0  0  0  0  0
   28.4292  -19.3006  -15.9362 O   0  0  0  0  0  0  0  0  0  0  0  0
   26.3819  -20.2302  -16.5385 N   0  0  0  0  0  0  0  0  0  0  0  0
   25.8298  -19.6849  -15.2953 C   0  0  1  0  0  0  0  0  0  0  0  0
   24.5652  -18.9526  -15.6854 C   0  0  0  0  0  0  0  0  0  0  0  0
   24.7695  -17.7346  -16.4773 C   0  0  0  0  0  0  0  0  0  0  0  0
   25.3895  -16.7098  -16.1281 O   0  0  0  0  0  0  0  0  0  0  0  0
   25.5165  -20.7575  -14.3371 C   0  0  0  0  0  0  0  0  0  0  0  0
   25.0226  -21.8188  -14.7776 O   0  0  0  0  0  0  0  0  0  0  0  0
   24.1934  -17.7356  -17.7832 O   0  0  0  0  0  0  0  0  0  0  0  0
   25.7340  -20.6863  -12.9335 N   0  0  0  0  0  0  0  0  0  0  0  0
   25.3451  -21.7075  -11.9807 C   0  0  1  0  0  0  0  0  0  0  0  0
   26.3749  -21.9530  -10.9421 C   0  0  0  0  0  0  0  0  0  0  0  0
   26.4411  -21.0332   -9.8196 C   0  0  0  0  0  0  0  0  0  0  0  0
   25.4035  -20.1804   -9.4498 C   0  0  0  0  0  0  0  0  0  0  0  0
   25.7535  -19.4795   -8.3587 N   0  0  0  0  0  0  0  0  0  0  0  0
   27.0052  -19.8594   -8.0081 C   0  0  0  0  0  0  0  0  0  0  0  0
   27.7971  -19.4386   -6.9847 C   0  0  0  0  0  0  0  0  0  0  0  0
   29.0667  -19.9560   -6.8056 C   0  0  0  0  0  0  0  0  0  0  0  0
   29.5181  -20.9141   -7.6917 C   0  0  0  0  0  0  0  0  0  0  0  0
   28.7187  -21.3429   -8.7295 C   0  0  0  0  0  0  0  0  0  0  0  0
   27.4369  -20.8236   -8.9122 C   0  0  0  0  0  0  0  0  0  0  0  0
   23.9468  -21.6420  -11.5746 C   0  0  0  0  0  0  0  0  0  0  0  0
   23.2278  -20.4674  -11.7376 O   0  0  0  0  0  0  0  0  0  0  0  0
   23.3076  -22.6039  -11.0685 O   0  0  0  0  0  0  0  0  0  0  0  0
  2  1  1  6
  3  2  1  0
  3  4  1  0
  4  5  2  0
  5  6  1  0
  7  6  1  0
  8  4  1  0
  8  7  2  0
  9  2  1  0
  9 10  2  0
 11  9  1  0
 12 11  1  0
 12 13  1  6
 14 13  1  0
 15 14  2  0
 16 19  1  0
 16 12  1  0
 17 16  2  0
 18 14  1  0
 20 19  1  0
 20 31  1  0
 21 22  1  0
 20 21  1  1
 22 30  1  0
 22 23  2  0
 23 24  1  0
 25 26  2  0
 25 24  1  0
 27 26  1  0
 28 27  2  0
 29 28  1  0
 29 30  2  0
 30 25  1  0
 31 32  1  0
 33 31  2  0
M  END
$$$$
