HDW.pdb
     RDKit          3D

 33 35  0  0  1  0  0  0  0  0999 V2000
   19.8694  -13.3572  -19.9548 N   0  0  0  0  0  0  0  0  0  0  0  0
   20.6831  -12.9944  -18.7584 C   0  0  1  0  0  0  0  0  0  0  0  0
   22.1038  -13.1486  -19.2286 C   0  0  0  0  0  0  0  0  0  0  0  0
   22.6063  -14.5148  -19.3064 C   0  0  0  0  0  0  0  0  0  0  0  0
   21.8358  -15.5879  -18.8298 C   0  0  0  0  0  0  0  0  0  0  0  0
   22.5295  -16.7152  -19.0232 N   0  0  0  0  0  0  0  0  0  0  0  0
   23.7168  -16.3743  -19.6095 C   0  0  0  0  0  0  0  0  0  0  0  0
   23.7339  -15.0572  -19.7658 N   0  0  0  0  0  0  0  0  0  0  0  0
   20.4031  -11.5584  -18.5097 C   0  0  0  0  0  0  0  0  0  0  0  0
   20.4397  -10.8013  -19.5456 O   0  0  0  0  0  0  0  0  0  0  0  0
   20.1009  -10.9846  -17.2501 N   0  0  0  0  0  0  0  0  0  0  0  0
   19.8989   -9.5335  -17.2182 C   0  0  1  0  0  0  0  0  0  0  0  0
   18.5644   -9.3119  -16.5416 C   0  0  0  0  0  0  0  0  0  0  0  0
   17.3895   -9.5700  -17.3814 C   0  0  0  0  0  0  0  0  0  0  0  0
   17.2351   -9.2398  -18.5747 O   0  0  0  0  0  0  0  0  0  0  0  0
   20.9672   -8.8644  -16.4580 C   0  0  0  0  0  0  0  0  0  0  0  0
   21.2566   -9.3109  -15.3261 O   0  0  0  0  0  0  0  0  0  0  0  0
   16.3175  -10.2741  -16.7552 O   0  0  0  0  0  0  0  0  0  0  0  0
   21.7085   -7.7387  -16.9115 N   0  0  0  0  0  0  0  0  0  0  0  0
   22.7219   -7.0467  -16.1393 C   0  0  1  0  0  0  0  0  0  0  0  0
   24.0577   -7.0709  -16.7831 C   0  0  0  0  0  0  0  0  0  0  0  0
   24.6163   -8.3632  -17.1415 C   0  0  0  0  0  0  0  0  0  0  0  0
   24.6557   -8.8605  -18.4422 C   0  0  0  0  0  0  0  0  0  0  0  0
   25.2584  -10.0608  -18.4556 N   0  0  0  0  0  0  0  0  0  0  0  0
   25.6142  -10.3582  -17.1832 C   0  0  0  0  0  0  0  0  0  0  0  0
   26.2410  -11.4560  -16.6798 C   0  0  0  0  0  0  0  0  0  0  0  0
   26.5071  -11.5683  -15.3277 C   0  0  0  0  0  0  0  0  0  0  0  0
   26.1214  -10.5381  -14.4930 C   0  0  0  0  0  0  0  0  0  0  0  0
   25.4863   -9.4245  -14.9994 C   0  0  0  0  0  0  0  0  0  0  0  0
   25.2174   -9.3076  -16.3633 C   0  0  0  0  0  0  0  0  0  0  0  0
   22.2629   -5.8038  -15.5319 C   0  0  0  0  0  0  0  0  0  0  0  0
   23.0139   -5.1949  -14.5377 O   0  0  0  0  0  0  0  0  0  0  0  0
   21.1974   -5.2087  -15.8488 O   0  0  0  0  0  0  0  0  0  0  0  0
  2  1  1  6
  3  2  1  0
  3  4  1  0
  4  5  2  0
  5  6  1  0
  7  6  1  0
  8  4  1  0
  8  7  2  0
  9  2  1  0
  9 10  2  0
 11  9  1  0
 12 11  1  0
 12 13  1  1
 14 13  1  0
 15 14  2  0
 16 19  1  0
 16 12  1  0
 17 16  2  0
 18 14  1  0
 20 19  1  0
 20 31  1  0
 21 22  1  0
 20 21  1  6
 22 30  1  0
 22 23  2  0
 23 24  1  0
 25 26  2  0
 25 24  1  0
 27 26  1  0
 28 27  2  0
 29 28  1  0
 29 30  2  0
 30 25  1  0
 31 32  1  0
 33 31  2  0
M  END
$$$$
