HDW.pdb
     RDKit          3D

 33 35  0  0  1  0  0  0  0  0999 V2000
   27.3356  -18.5688  -18.3996 N   0  0  0  0  0  0  0  0  0  0  0  0
   27.7697  -18.1236  -17.0437 C   0  0  1  0  0  0  0  0  0  0  0  0
   28.1923  -16.6949  -17.2517 C   0  0  0  0  0  0  0  0  0  0  0  0
   29.3380  -16.4886  -18.1293 C   0  0  0  0  0  0  0  0  0  0  0  0
   29.1888  -15.8158  -19.3530 C   0  0  0  0  0  0  0  0  0  0  0  0
   30.3855  -15.7678  -19.9489 N   0  0  0  0  0  0  0  0  0  0  0  0
   31.2813  -16.3948  -19.1280 C   0  0  0  0  0  0  0  0  0  0  0  0
   30.6283  -16.8136  -18.0520 N   0  0  0  0  0  0  0  0  0  0  0  0
   26.5454  -18.1548  -16.2058 C   0  0  0  0  0  0  0  0  0  0  0  0
   25.8028  -17.1100  -16.2742 O   0  0  0  0  0  0  0  0  0  0  0  0
   26.1482  -19.2260  -15.3679 N   0  0  0  0  0  0  0  0  0  0  0  0
   24.7337  -19.2763  -14.9883 C   0  0  1  0  0  0  0  0  0  0  0  0
   23.9668  -19.5354  -16.2660 C   0  0  0  0  0  0  0  0  0  0  0  0
   22.5130  -19.6517  -16.1074 C   0  0  0  0  0  0  0  0  0  0  0  0
   21.7341  -20.3231  -16.8141 O   0  0  0  0  0  0  0  0  0  0  0  0
   24.4809  -20.3562  -14.0204 C   0  0  0  0  0  0  0  0  0  0  0  0
   25.2088  -21.3724  -14.0643 O   0  0  0  0  0  0  0  0  0  0  0  0
   21.9422  -18.9142  -15.0269 O   0  0  0  0  0  0  0  0  0  0  0  0
   23.4654  -20.3381  -13.0250 N   0  0  0  0  0  0  0  0  0  0  0  0
   23.6602  -20.6979  -11.6341 C   0  0  1  0  0  0  0  0  0  0  0  0
   24.9555  -20.2237  -11.0891 C   0  0  0  0  0  0  0  0  0  0  0  0
   25.2381  -20.4805   -9.6875 C   0  0  0  0  0  0  0  0  0  0  0  0
   24.6145  -21.4749   -8.9372 C   0  0  0  0  0  0  0  0  0  0  0  0
   25.1092  -21.4845   -7.6883 N   0  0  0  0  0  0  0  0  0  0  0  0
   26.0472  -20.5109   -7.6085 C   0  0  0  0  0  0  0  0  0  0  0  0
   26.8224  -20.1213   -6.5603 C   0  0  0  0  0  0  0  0  0  0  0  0
   27.7257  -19.0824   -6.6882 C   0  0  0  0  0  0  0  0  0  0  0  0
   27.8259  -18.4438   -7.9084 C   0  0  0  0  0  0  0  0  0  0  0  0
   27.0423  -18.8357   -8.9726 C   0  0  0  0  0  0  0  0  0  0  0  0
   26.1308  -19.8843   -8.8470 C   0  0  0  0  0  0  0  0  0  0  0  0
   22.4654  -20.5619  -10.8104 C   0  0  0  0  0  0  0  0  0  0  0  0
   21.3842  -19.8233  -11.2672 O   0  0  0  0  0  0  0  0  0  0  0  0
   22.3244  -21.0828   -9.6709 O   0  0  0  0  0  0  0  0  0  0  0  0
  2  1  1  6
  3  2  1  0
  3  4  1  0
  4  5  2  0
  5  6  1  0
  7  6  1  0
  8  4  1  0
  8  7  2  0
  9  2  1  0
  9 10  2  0
 11  9  1  0
 12 11  1  0
 12 13  1  6
 14 13  1  0
 15 14  2  0
 16 19  1  0
 16 12  1  0
 17 16  2  0
 18 14  1  0
 20 19  1  0
 20 31  1  0
 21 22  1  0
 20 21  1  1
 22 30  1  0
 22 23  2  0
 23 24  1  0
 25 26  2  0
 25 24  1  0
 27 26  1  0
 28 27  2  0
 29 28  1  0
 29 30  2  0
 30 25  1  0
 31 32  1  0
 33 31  2  0
M  END
$$$$
