HDW.pdb
     RDKit          3D

 33 35  0  0  1  0  0  0  0  0999 V2000
   27.3381  -20.7813  -17.0179 N   0  0  0  0  0  0  0  0  0  0  0  0
   27.0977  -19.7697  -15.9483 C   0  0  1  0  0  0  0  0  0  0  0  0
   26.3800  -18.6558  -16.6604 C   0  0  0  0  0  0  0  0  0  0  0  0
   27.1956  -17.8332  -17.5454 C   0  0  0  0  0  0  0  0  0  0  0  0
   27.5746  -16.5349  -17.1666 C   0  0  0  0  0  0  0  0  0  0  0  0
   28.3105  -16.0126  -18.1540 N   0  0  0  0  0  0  0  0  0  0  0  0
   28.4017  -16.9523  -19.1430 C   0  0  0  0  0  0  0  0  0  0  0  0
   27.7279  -18.0260  -18.7521 N   0  0  0  0  0  0  0  0  0  0  0  0
   26.1672  -20.4186  -14.9916 C   0  0  0  0  0  0  0  0  0  0  0  0
   25.2916  -21.1977  -15.5152 O   0  0  0  0  0  0  0  0  0  0  0  0
   26.1819  -20.2489  -13.5851 N   0  0  0  0  0  0  0  0  0  0  0  0
   25.0977  -20.8865  -12.8329 C   0  0  1  0  0  0  0  0  0  0  0  0
   25.4820  -20.7797  -11.3739 C   0  0  0  0  0  0  0  0  0  0  0  0
   24.5389  -21.3963  -10.4344 C   0  0  0  0  0  0  0  0  0  0  0  0
   23.4821  -21.9954  -10.7193 O   0  0  0  0  0  0  0  0  0  0  0  0
   23.8147  -20.2043  -13.0679 C   0  0  0  0  0  0  0  0  0  0  0  0
   23.6961  -19.0192  -12.6862 O   0  0  0  0  0  0  0  0  0  0  0  0
   24.8780  -21.2930   -9.0519 O   0  0  0  0  0  0  0  0  0  0  0  0
   22.6847  -20.7889  -13.7034 N   0  0  0  0  0  0  0  0  0  0  0  0
   21.3859  -20.1574  -13.8317 C   0  0  1  0  0  0  0  0  0  0  0  0
   21.3033  -19.2322  -14.9878 C   0  0  0  0  0  0  0  0  0  0  0  0
   20.5145  -19.6466  -16.1352 C   0  0  0  0  0  0  0  0  0  0  0  0
   19.1227  -19.6074  -16.1781 C   0  0  0  0  0  0  0  0  0  0  0  0
   18.6895  -20.0229  -17.3797 N   0  0  0  0  0  0  0  0  0  0  0  0
   19.7765  -20.3347  -18.1251 C   0  0  0  0  0  0  0  0  0  0  0  0
   19.8631  -20.8044  -19.3992 C   0  0  0  0  0  0  0  0  0  0  0  0
   21.0893  -21.0710  -19.9795 C   0  0  0  0  0  0  0  0  0  0  0  0
   22.2316  -20.8500  -19.2358 C   0  0  0  0  0  0  0  0  0  0  0  0
   22.1478  -20.3742  -17.9448 C   0  0  0  0  0  0  0  0  0  0  0  0
   20.9121  -20.1031  -17.3568 C   0  0  0  0  0  0  0  0  0  0  0  0
   20.2620  -21.0477  -13.5693 C   0  0  0  0  0  0  0  0  0  0  0  0
   19.0371  -20.5276  -13.1789 O   0  0  0  0  0  0  0  0  0  0  0  0
   20.3101  -22.3033  -13.6738 O   0  0  0  0  0  0  0  0  0  0  0  0
  2  1  1  6
  3  2  1  0
  3  4  1  0
  4  5  2  0
  5  6  1  0
  7  6  1  0
  8  4  1  0
  8  7  2  0
  9  2  1  0
  9 10  2  0
 11  9  1  0
 12 11  1  0
 12 13  1  1
 14 13  1  0
 15 14  2  0
 16 19  1  0
 16 12  1  0
 17 16  2  0
 18 14  1  0
 20 19  1  0
 20 31  1  0
 21 22  1  0
 20 21  1  6
 22 30  1  0
 22 23  2  0
 23 24  1  0
 25 26  2  0
 25 24  1  0
 27 26  1  0
 28 27  2  0
 29 28  1  0
 29 30  2  0
 30 25  1  0
 31 32  1  0
 33 31  2  0
M  END
$$$$
