HDW.pdb
     RDKit          3D

 33 35  0  0  1  0  0  0  0  0999 V2000
   18.0974   -6.0400  -22.6097 N   0  0  0  0  0  0  0  0  0  0  0  0
   17.8884   -6.7073  -21.2920 C   0  0  1  0  0  0  0  0  0  0  0  0
   18.5065   -8.0666  -21.4743 C   0  0  0  0  0  0  0  0  0  0  0  0
   17.6881   -9.0526  -22.1695 C   0  0  0  0  0  0  0  0  0  0  0  0
   18.2540   -9.8933  -23.1419 C   0  0  0  0  0  0  0  0  0  0  0  0
   17.2892  -10.6911  -23.6131 N   0  0  0  0  0  0  0  0  0  0  0  0
   16.1319  -10.3704  -22.9594 C   0  0  0  0  0  0  0  0  0  0  0  0
   16.4006   -9.3913  -22.1059 N   0  0  0  0  0  0  0  0  0  0  0  0
   18.6965   -5.9284  -20.3212 C   0  0  0  0  0  0  0  0  0  0  0  0
   19.1691   -4.8189  -20.7608 O   0  0  0  0  0  0  0  0  0  0  0  0
   18.9681   -6.3087  -18.9836 N   0  0  0  0  0  0  0  0  0  0  0  0
   19.5898   -5.2975  -18.1242 C   0  0  1  0  0  0  0  0  0  0  0  0
   18.6005   -4.1568  -18.0377 C   0  0  0  0  0  0  0  0  0  0  0  0
   19.0021   -3.0485  -17.1643 C   0  0  0  0  0  0  0  0  0  0  0  0
   19.2038   -3.1001  -15.9341 O   0  0  0  0  0  0  0  0  0  0  0  0
   19.8592   -5.8346  -16.7804 C   0  0  0  0  0  0  0  0  0  0  0  0
   19.1464   -6.7748  -16.3652 O   0  0  0  0  0  0  0  0  0  0  0  0
   19.1773   -1.7836  -17.8018 O   0  0  0  0  0  0  0  0  0  0  0  0
   20.8779   -5.3678  -15.9047 N   0  0  0  0  0  0  0  0  0  0  0  0
   21.7741   -6.2185  -15.1463 C   0  0  1  0  0  0  0  0  0  0  0  0
   22.3268   -7.3376  -15.9473 C   0  0  0  0  0  0  0  0  0  0  0  0
   23.2589   -8.2431  -15.2979 C   0  0  0  0  0  0  0  0  0  0  0  0
   22.8936   -9.1686  -14.3228 C   0  0  0  0  0  0  0  0  0  0  0  0
   23.9677   -9.8783  -13.9397 N   0  0  0  0  0  0  0  0  0  0  0  0
   25.0318   -9.4316  -14.6484 C   0  0  0  0  0  0  0  0  0  0  0  0
   26.3346   -9.8230  -14.6183 C   0  0  0  0  0  0  0  0  0  0  0  0
   27.2792   -9.2219  -15.4295 C   0  0  0  0  0  0  0  0  0  0  0  0
   26.8717   -8.2098  -16.2759 C   0  0  0  0  0  0  0  0  0  0  0  0
   25.5528   -7.8107  -16.3092 C   0  0  0  0  0  0  0  0  0  0  0  0
   24.5971   -8.4160  -15.4928 C   0  0  0  0  0  0  0  0  0  0  0  0
   22.6673   -5.4944  -14.2505 C   0  0  0  0  0  0  0  0  0  0  0  0
   22.8260   -5.9114  -12.9374 O   0  0  0  0  0  0  0  0  0  0  0  0
   23.3381   -4.4798  -14.5826 O   0  0  0  0  0  0  0  0  0  0  0  0
  2  1  1  6
  3  2  1  0
  3  4  1  0
  4  5  2  0
  5  6  1  0
  7  6  1  0
  8  4  1  0
  8  7  2  0
  9  2  1  0
  9 10  2  0
 11  9  1  0
 12 11  1  0
 12 13  1  1
 14 13  1  0
 15 14  2  0
 16 19  1  0
 16 12  1  0
 17 16  2  0
 18 14  1  0
 20 19  1  0
 20 31  1  0
 21 22  1  0
 20 21  1  6
 22 30  1  0
 22 23  2  0
 23 24  1  0
 25 26  2  0
 25 24  1  0
 27 26  1  0
 28 27  2  0
 29 28  1  0
 29 30  2  0
 30 25  1  0
 31 32  1  0
 33 31  2  0
M  END
$$$$
