MGA.pdb
     RDKit          3D

 18 17  0  0  1  0  0  0  0  0999 V2000
    5.5920  -12.0493   27.0025 C   0  0  0  0  0  0  0  0  0  0  0  0
    6.9830  -12.2811   25.9080 S   0  0  0  0  0  0  0  0  0  0  0  0
    6.6674  -13.2147   24.4513 C   0  0  0  0  0  0  0  0  0  0  0  0
    7.7310  -13.3932   23.4278 C   0  0  0  0  0  0  0  0  0  0  0  0
    8.0033  -14.7804   23.0221 C   0  0  2  0  0  0  0  0  0  0  0  0
    7.0603  -15.6766   23.6454 N   0  0  0  0  0  0  0  0  0  0  0  0
    9.3680  -15.2524   23.3642 C   0  0  0  0  0  0  0  0  0  0  0  0
   10.3867  -14.6278   22.9751 O   0  0  0  0  0  0  0  0  0  0  0  0
    9.6157  -16.4276   24.1451 N   0  0  0  0  0  0  0  0  0  0  0  0
   10.9268  -16.9411   24.3944 C   0  0  0  0  0  0  0  0  0  0  0  0
   11.4692  -16.5496   25.7195 C   0  0  0  0  0  0  0  0  0  0  0  0
   12.6305  -16.8234   26.0797 O   0  0  0  0  0  0  0  0  0  0  0  0
   10.2869  -14.1554   28.2672 C   0  0  0  0  0  0  0  0  0  0  0  0
   11.0161  -15.4373   27.9073 C   0  0  2  0  0  0  0  0  0  0  0  0
   10.5926  -15.8331   26.5829 N   0  0  0  0  0  0  0  0  0  0  0  0
   10.6898  -16.5278   28.8411 C   0  0  0  0  0  0  0  0  0  0  0  0
    9.9452  -17.4967   28.5436 O   0  0  0  0  0  0  0  0  0  0  0  0
   11.2234  -16.5003   30.1214 O   0  0  0  0  0  0  0  0  0  0  0  0
  2  1  1  0
  3  2  1  0
  4  3  1  0
  5  4  1  0
  5  6  1  1
  7  8  2  0
  7  5  1  0
  9  7  1  0
 10 11  1  0
 10  9  1  0
 11 15  1  0
 12 11  2  0
 14 13  1  1
 14 16  1  0
 15 14  1  0
 16 17  2  0
 16 18  1  0
M  END
$$$$
