MGA.pdb
     RDKit          3D

 18 17  0  0  1  0  0  0  0  0999 V2000
    7.0785  -11.2217   27.8740 C   0  0  0  0  0  0  0  0  0  0  0  0
    5.8481  -11.6923   26.6694 S   0  0  0  0  0  0  0  0  0  0  0  0
    6.4376  -12.6000   25.2832 C   0  0  0  0  0  0  0  0  0  0  0  0
    7.1454  -13.8930   25.4774 C   0  0  0  0  0  0  0  0  0  0  0  0
    8.0542  -14.2950   24.3930 C   0  0  2  0  0  0  0  0  0  0  0  0
    7.3702  -14.2431   23.1240 N   0  0  0  0  0  0  0  0  0  0  0  0
    8.6126  -15.6610   24.5489 C   0  0  0  0  0  0  0  0  0  0  0  0
    9.2555  -15.9852   25.5790 O   0  0  0  0  0  0  0  0  0  0  0  0
    8.4619  -16.6848   23.5582 N   0  0  0  0  0  0  0  0  0  0  0  0
    9.0631  -17.9775   23.6691 C   0  0  0  0  0  0  0  0  0  0  0  0
   10.4940  -17.9959   23.2747 C   0  0  0  0  0  0  0  0  0  0  0  0
   11.1871  -19.0314   23.3021 O   0  0  0  0  0  0  0  0  0  0  0  0
   12.4702  -15.6096   21.2951 C   0  0  0  0  0  0  0  0  0  0  0  0
   12.4143  -16.6902   22.3599 C   0  0  2  0  0  0  0  0  0  0  0  0
   11.0574  -16.7577   22.8543 N   0  0  0  0  0  0  0  0  0  0  0  0
   13.3032  -16.3825   23.4926 C   0  0  0  0  0  0  0  0  0  0  0  0
   12.8903  -16.1738   24.6620 O   0  0  0  0  0  0  0  0  0  0  0  0
   14.6718  -16.3150   23.2755 O   0  0  0  0  0  0  0  0  0  0  0  0
  2  1  1  0
  3  2  1  0
  4  3  1  0
  5  4  1  0
  5  6  1  6
  7  8  2  0
  7  5  1  0
  9  7  1  0
 10 11  1  0
 10  9  1  0
 11 15  1  0
 12 11  2  0
 14 13  1  6
 14 16  1  0
 15 14  1  0
 16 17  2  0
 16 18  1  0
M  END
$$$$
