MGA.pdb
     RDKit          3D

 18 17  0  0  1  0  0  0  0  0999 V2000
    4.9849  -11.3301   26.5634 C   0  0  0  0  0  0  0  0  0  0  0  0
    6.7392  -11.6512   26.6394 S   0  0  0  0  0  0  0  0  0  0  0  0
    7.2048  -13.3377   26.8183 C   0  0  0  0  0  0  0  0  0  0  0  0
    6.8419  -14.3323   25.7744 C   0  0  0  0  0  0  0  0  0  0  0  0
    7.8140  -15.4141   25.5548 C   0  0  2  0  0  0  0  0  0  0  0  0
    9.0762  -15.0828   26.1694 N   0  0  0  0  0  0  0  0  0  0  0  0
    8.0731  -15.7113   24.1241 C   0  0  0  0  0  0  0  0  0  0  0  0
    7.3199  -16.4796   23.4746 O   0  0  0  0  0  0  0  0  0  0  0  0
    9.1758  -15.1558   23.3977 N   0  0  0  0  0  0  0  0  0  0  0  0
    9.5033  -15.5356   22.0585 C   0  0  0  0  0  0  0  0  0  0  0  0
   10.6639  -16.4572   21.9762 C   0  0  0  0  0  0  0  0  0  0  0  0
   10.8188  -17.2636   21.0386 O   0  0  0  0  0  0  0  0  0  0  0  0
   13.9917  -16.2975   23.3337 C   0  0  0  0  0  0  0  0  0  0  0  0
   12.8109  -17.1959   23.0126 C   0  0  2  0  0  0  0  0  0  0  0  0
   11.6152  -16.3834   23.0330 N   0  0  0  0  0  0  0  0  0  0  0  0
   12.6574  -18.2677   24.0104 C   0  0  0  0  0  0  0  0  0  0  0  0
   11.6623  -18.3687   24.7728 O   0  0  0  0  0  0  0  0  0  0  0  0
   13.6544  -19.2250   24.1292 O   0  0  0  0  0  0  0  0  0  0  0  0
  2  1  1  0
  3  2  1  0
  4  3  1  0
  5  4  1  0
  5  6  1  6
  7  8  2  0
  7  5  1  0
  9  7  1  0
 10 11  1  0
 10  9  1  0
 11 15  1  0
 12 11  2  0
 14 13  1  1
 14 16  1  0
 15 14  1  0
 16 17  2  0
 16 18  1  0
M  END
$$$$
