MGA.pdb
     RDKit          3D

 18 17  0  0  1  0  0  0  0  0999 V2000
    7.3972  -11.2205   26.2751 C   0  0  0  0  0  0  0  0  0  0  0  0
    6.8640  -12.8623   25.8205 S   0  0  0  0  0  0  0  0  0  0  0  0
    6.6788  -13.1605   24.0972 C   0  0  0  0  0  0  0  0  0  0  0  0
    7.8715  -13.2117   23.2108 C   0  0  0  0  0  0  0  0  0  0  0  0
    8.1548  -14.5159   22.5927 C   0  0  2  0  0  0  0  0  0  0  0  0
    6.9433  -15.2917   22.4876 N   0  0  0  0  0  0  0  0  0  0  0  0
    9.1497  -15.3311   23.3328 C   0  0  0  0  0  0  0  0  0  0  0  0
   10.3678  -15.0217   23.3366 O   0  0  0  0  0  0  0  0  0  0  0  0
    8.8001  -16.5028   24.0792 N   0  0  0  0  0  0  0  0  0  0  0  0
    9.7311  -17.2199   24.8941 C   0  0  0  0  0  0  0  0  0  0  0  0
   10.4079  -16.3668   25.9028 C   0  0  0  0  0  0  0  0  0  0  0  0
   11.2228  -15.4758   25.5939 O   0  0  0  0  0  0  0  0  0  0  0  0
   10.0637  -14.7733   28.8069 C   0  0  0  0  0  0  0  0  0  0  0  0
   10.8390  -15.9890   28.3319 C   0  0  2  0  0  0  0  0  0  0  0  0
   10.0834  -16.6105   27.2675 N   0  0  0  0  0  0  0  0  0  0  0  0
   11.0146  -16.9760   29.4102 C   0  0  0  0  0  0  0  0  0  0  0  0
   10.5343  -18.1376   29.3726 O   0  0  0  0  0  0  0  0  0  0  0  0
   11.7456  -16.6218   30.5348 O   0  0  0  0  0  0  0  0  0  0  0  0
  2  1  1  0
  3  2  1  0
  4  3  1  0
  5  4  1  0
  5  6  1  1
  7  8  2  0
  7  5  1  0
  9  7  1  0
 10 11  1  0
 10  9  1  0
 11 15  1  0
 12 11  2  0
 14 13  1  1
 14 16  1  0
 15 14  1  0
 16 17  2  0
 16 18  1  0
M  END
$$$$
