MGA.pdb
     RDKit          3D

 18 17  0  0  1  0  0  0  0  0999 V2000
    6.6951  -10.5577   26.1250 C   0  0  0  0  0  0  0  0  0  0  0  0
    5.7874  -11.9161   26.8442 S   0  0  0  0  0  0  0  0  0  0  0  0
    5.9922  -13.4774   26.0611 C   0  0  0  0  0  0  0  0  0  0  0  0
    7.0848  -13.6859   25.0745 C   0  0  0  0  0  0  0  0  0  0  0  0
    7.2602  -15.0651   24.5947 C   0  0  2  0  0  0  0  0  0  0  0  0
    7.2528  -15.9846   25.7062 N   0  0  0  0  0  0  0  0  0  0  0  0
    8.5164  -15.2849   23.8358 C   0  0  0  0  0  0  0  0  0  0  0  0
    8.5202  -15.3031   22.5792 O   0  0  0  0  0  0  0  0  0  0  0  0
    9.7860  -15.4874   24.4677 N   0  0  0  0  0  0  0  0  0  0  0  0
   10.9779  -15.8102   23.7465 C   0  0  0  0  0  0  0  0  0  0  0  0
   11.6894  -16.9953   24.2876 C   0  0  0  0  0  0  0  0  0  0  0  0
   12.7054  -17.4753   23.7484 O   0  0  0  0  0  0  0  0  0  0  0  0
   11.4081  -18.7247   27.5612 C   0  0  0  0  0  0  0  0  0  0  0  0
   11.7928  -18.7157   26.0926 C   0  0  2  0  0  0  0  0  0  0  0  0
   11.1552  -17.5758   25.4727 N   0  0  0  0  0  0  0  0  0  0  0  0
   11.3326  -19.9328   25.4037 C   0  0  0  0  0  0  0  0  0  0  0  0
   11.9053  -21.0476   25.5076 O   0  0  0  0  0  0  0  0  0  0  0  0
   10.2092  -19.8637   24.5927 O   0  0  0  0  0  0  0  0  0  0  0  0
  2  1  1  0
  3  2  1  0
  4  3  1  0
  5  4  1  0
  5  6  1  1
  7  8  2  0
  7  5  1  0
  9  7  1  0
 10 11  1  0
 10  9  1  0
 11 15  1  0
 12 11  2  0
 14 13  1  1
 14 16  1  0
 15 14  1  0
 16 17  2  0
 16 18  1  0
M  END
$$$$
