MGA.pdb
     RDKit          3D

 18 17  0  0  1  0  0  0  0  0999 V2000
    5.8126  -12.1470   26.8887 C   0  0  0  0  0  0  0  0  0  0  0  0
    5.5757  -11.5667   25.2172 S   0  0  0  0  0  0  0  0  0  0  0  0
    6.6356  -12.2695   24.0024 C   0  0  0  0  0  0  0  0  0  0  0  0
    7.2733  -13.5922   24.2358 C   0  0  0  0  0  0  0  0  0  0  0  0
    8.1687  -14.0685   23.1706 C   0  0  2  0  0  0  0  0  0  0  0  0
    7.4488  -14.1774   21.9254 N   0  0  0  0  0  0  0  0  0  0  0  0
    8.7900  -15.3871   23.4493 C   0  0  0  0  0  0  0  0  0  0  0  0
    8.6649  -16.3456   22.6462 O   0  0  0  0  0  0  0  0  0  0  0  0
    9.5596  -15.6551   24.6274 N   0  0  0  0  0  0  0  0  0  0  0  0
   10.1847  -16.9151   24.8855 C   0  0  0  0  0  0  0  0  0  0  0  0
   10.9462  -16.9433   26.1593 C   0  0  0  0  0  0  0  0  0  0  0  0
   11.7416  -17.8582   26.4487 O   0  0  0  0  0  0  0  0  0  0  0  0
   11.0526  -14.4925   28.9996 C   0  0  0  0  0  0  0  0  0  0  0  0
   11.3955  -15.8164   28.3404 C   0  0  2  0  0  0  0  0  0  0  0  0
   10.7288  -15.8609   27.0584 N   0  0  0  0  0  0  0  0  0  0  0  0
   10.9289  -16.9591   29.1430 C   0  0  0  0  0  0  0  0  0  0  0  0
    9.8564  -17.5751   28.9154 O   0  0  0  0  0  0  0  0  0  0  0  0
   11.7012  -17.3920   30.2111 O   0  0  0  0  0  0  0  0  0  0  0  0
  2  1  1  0
  3  2  1  0
  4  3  1  0
  5  4  1  0
  5  6  1  6
  7  8  2  0
  7  5  1  0
  9  7  1  0
 10 11  1  0
 10  9  1  0
 11 15  1  0
 12 11  2  0
 14 13  1  1
 14 16  1  0
 15 14  1  0
 16 17  2  0
 16 18  1  0
M  END
$$$$
