MGA.pdb
     RDKit          3D

 18 17  0  0  1  0  0  0  0  0999 V2000
    6.4931  -11.0878   27.3237 C   0  0  0  0  0  0  0  0  0  0  0  0
    6.9089  -12.5718   26.4229 S   0  0  0  0  0  0  0  0  0  0  0  0
    6.4683  -12.5863   24.7204 C   0  0  0  0  0  0  0  0  0  0  0  0
    6.6348  -13.8226   23.9115 C   0  0  0  0  0  0  0  0  0  0  0  0
    7.7511  -14.6976   24.3009 C   0  0  2  0  0  0  0  0  0  0  0  0
    9.0091  -14.0223   24.0957 N   0  0  0  0  0  0  0  0  0  0  0  0
    7.8008  -15.9802   23.5562 C   0  0  0  0  0  0  0  0  0  0  0  0
    6.9350  -16.8720   23.7420 O   0  0  0  0  0  0  0  0  0  0  0  0
    8.8167  -16.2862   22.5936 N   0  0  0  0  0  0  0  0  0  0  0  0
    8.8967  -17.5396   21.9100 C   0  0  0  0  0  0  0  0  0  0  0  0
    9.7457  -18.5369   22.6084 C   0  0  0  0  0  0  0  0  0  0  0  0
    9.7033  -19.7557   22.3515 O   0  0  0  0  0  0  0  0  0  0  0  0
   12.8646  -18.1979   24.4592 C   0  0  0  0  0  0  0  0  0  0  0  0
   11.5388  -18.9205   24.3016 C   0  0  2  0  0  0  0  0  0  0  0  0
   10.6306  -18.0369   23.6056 N   0  0  0  0  0  0  0  0  0  0  0  0
   10.9457  -19.2570   25.6065 C   0  0  0  0  0  0  0  0  0  0  0  0
    9.8670  -18.7651   26.0260 O   0  0  0  0  0  0  0  0  0  0  0  0
   11.5989  -20.1629   26.4296 O   0  0  0  0  0  0  0  0  0  0  0  0
  2  1  1  0
  3  2  1  0
  4  3  1  0
  5  4  1  0
  5  6  1  6
  7  8  2  0
  7  5  1  0
  9  7  1  0
 10 11  1  0
 10  9  1  0
 11 15  1  0
 12 11  2  0
 14 13  1  1
 14 16  1  0
 15 14  1  0
 16 17  2  0
 16 18  1  0
M  END
$$$$
