MGA.pdb
     RDKit          3D

 18 17  0  0  1  0  0  0  0  0999 V2000
    6.6797  -11.2707   27.7663 C   0  0  0  0  0  0  0  0  0  0  0  0
    7.0713  -12.1814   26.2818 S   0  0  0  0  0  0  0  0  0  0  0  0
    6.2552  -13.7275   26.0909 C   0  0  0  0  0  0  0  0  0  0  0  0
    6.4338  -14.5234   24.8478 C   0  0  0  0  0  0  0  0  0  0  0  0
    7.5611  -15.4680   24.8484 C   0  0  2  0  0  0  0  0  0  0  0  0
    8.6193  -14.9813   25.6993 N   0  0  0  0  0  0  0  0  0  0  0  0
    8.1408  -15.7167   23.5051 C   0  0  0  0  0  0  0  0  0  0  0  0
    7.5519  -16.4483   22.6700 O   0  0  0  0  0  0  0  0  0  0  0  0
    9.3852  -15.1529   23.0743 N   0  0  0  0  0  0  0  0  0  0  0  0
    9.9827  -15.4471   21.8088 C   0  0  0  0  0  0  0  0  0  0  0  0
   11.2861  -16.1481   21.9231 C   0  0  0  0  0  0  0  0  0  0  0  0
   11.8671  -16.6543   20.9434 O   0  0  0  0  0  0  0  0  0  0  0  0
   13.9250  -16.0079   24.4228 C   0  0  0  0  0  0  0  0  0  0  0  0
   13.1442  -16.8534   23.4328 C   0  0  2  0  0  0  0  0  0  0  0  0
   11.8605  -16.2220   23.2238 N   0  0  0  0  0  0  0  0  0  0  0  0
   12.9112  -18.2135   23.9460 C   0  0  0  0  0  0  0  0  0  0  0  0
   11.7672  -18.6799   24.1812 O   0  0  0  0  0  0  0  0  0  0  0  0
   14.0006  -19.0375   24.1889 O   0  0  0  0  0  0  0  0  0  0  0  0
  2  1  1  0
  3  2  1  0
  4  3  1  0
  5  4  1  0
  5  6  1  1
  7  8  2  0
  7  5  1  0
  9  7  1  0
 10 11  1  0
 10  9  1  0
 11 15  1  0
 12 11  2  0
 14 13  1  1
 14 16  1  0
 15 14  1  0
 16 17  2  0
 16 18  1  0
M  END
$$$$
