MGA.pdb
     RDKit          3D

 18 17  0  0  1  0  0  0  0  0999 V2000
    6.3213  -12.0507   26.6583 C   0  0  0  0  0  0  0  0  0  0  0  0
    7.5179  -12.7418   25.5282 S   0  0  0  0  0  0  0  0  0  0  0  0
    6.9597  -12.9984   23.8803 C   0  0  0  0  0  0  0  0  0  0  0  0
    7.9051  -13.4607   22.8299 C   0  0  0  0  0  0  0  0  0  0  0  0
    8.0613  -14.9178   22.7050 C   0  0  2  0  0  0  0  0  0  0  0  0
    6.7760  -15.5666   22.7930 N   0  0  0  0  0  0  0  0  0  0  0  0
    8.9425  -15.5209   23.7355 C   0  0  0  0  0  0  0  0  0  0  0  0
    8.4643  -16.1821   24.6914 O   0  0  0  0  0  0  0  0  0  0  0  0
   10.3693  -15.3952   23.7146 N   0  0  0  0  0  0  0  0  0  0  0  0
   11.2505  -16.3694   24.2798 C   0  0  0  0  0  0  0  0  0  0  0  0
   11.5545  -16.1259   25.7121 C   0  0  0  0  0  0  0  0  0  0  0  0
   12.6263  -16.4771   26.2425 O   0  0  0  0  0  0  0  0  0  0  0  0
    9.8378  -14.0148   28.2475 C   0  0  0  0  0  0  0  0  0  0  0  0
   10.7632  -15.1584   27.8724 C   0  0  2  0  0  0  0  0  0  0  0  0
   10.5527  -15.4607   26.4744 N   0  0  0  0  0  0  0  0  0  0  0  0
   10.4725  -16.3708   28.6555 C   0  0  0  0  0  0  0  0  0  0  0  0
    9.8473  -17.3604   28.1959 O   0  0  0  0  0  0  0  0  0  0  0  0
   10.9038  -16.4416   29.9722 O   0  0  0  0  0  0  0  0  0  0  0  0
  2  1  1  0
  3  2  1  0
  4  3  1  0
  5  4  1  0
  5  6  1  1
  7  8  2  0
  7  5  1  0
  9  7  1  0
 10 11  1  0
 10  9  1  0
 11 15  1  0
 12 11  2  0
 14 13  1  1
 14 16  1  0
 15 14  1  0
 16 17  2  0
 16 18  1  0
M  END
$$$$
