MGA.pdb
     RDKit          3D

 18 17  0  0  1  0  0  0  0  0999 V2000
    5.3434  -11.4595   26.6458 C   0  0  0  0  0  0  0  0  0  0  0  0
    6.9729  -11.9852   27.1508 S   0  0  0  0  0  0  0  0  0  0  0  0
    7.5093  -13.5371   26.5209 C   0  0  0  0  0  0  0  0  0  0  0  0
    6.5816  -14.3886   25.7302 C   0  0  0  0  0  0  0  0  0  0  0  0
    7.1351  -15.6634   25.2490 C   0  0  2  0  0  0  0  0  0  0  0  0
    8.3610  -15.9693   25.9450 N   0  0  0  0  0  0  0  0  0  0  0  0
    7.4253  -15.6844   23.7938 C   0  0  0  0  0  0  0  0  0  0  0  0
    6.5262  -15.4422   22.9497 O   0  0  0  0  0  0  0  0  0  0  0  0
    8.7221  -15.9757   23.2595 N   0  0  0  0  0  0  0  0  0  0  0  0
    9.0060  -15.9965   21.8582 C   0  0  0  0  0  0  0  0  0  0  0  0
   10.4044  -16.3852   21.5476 C   0  0  0  0  0  0  0  0  0  0  0  0
   10.8435  -16.4477   20.3827 O   0  0  0  0  0  0  0  0  0  0  0  0
   13.0379  -15.1611   22.2216 C   0  0  0  0  0  0  0  0  0  0  0  0
   12.6829  -16.6018   22.5429 C   0  0  2  0  0  0  0  0  0  0  0  0
   11.2443  -16.6909   22.6558 N   0  0  0  0  0  0  0  0  0  0  0  0
   13.2735  -17.0342   23.8204 C   0  0  0  0  0  0  0  0  0  0  0  0
   14.5107  -17.1664   24.0034 O   0  0  0  0  0  0  0  0  0  0  0  0
   12.4349  -17.3150   24.8892 O   0  0  0  0  0  0  0  0  0  0  0  0
  2  1  1  0
  3  2  1  0
  4  3  1  0
  5  4  1  0
  5  6  1  1
  7  8  2  0
  7  5  1  0
  9  7  1  0
 10 11  1  0
 10  9  1  0
 11 15  1  0
 12 11  2  0
 14 13  1  1
 14 16  1  0
 15 14  1  0
 16 17  2  0
 16 18  1  0
M  END
$$$$
