MGA.pdb
     RDKit          3D

 18 17  0  0  1  0  0  0  0  0999 V2000
    6.7500  -11.2604   27.4306 C   0  0  0  0  0  0  0  0  0  0  0  0
    5.6627  -11.6634   26.0734 S   0  0  0  0  0  0  0  0  0  0  0  0
    5.8178  -13.2893   25.4212 C   0  0  0  0  0  0  0  0  0  0  0  0
    7.1542  -13.9324   25.3155 C   0  0  0  0  0  0  0  0  0  0  0  0
    7.1949  -15.2091   24.5864 C   0  0  2  0  0  0  0  0  0  0  0  0
    6.1527  -16.0871   25.0593 N   0  0  0  0  0  0  0  0  0  0  0  0
    8.4845  -15.9331   24.7087 C   0  0  0  0  0  0  0  0  0  0  0  0
    8.6124  -16.9009   25.5001 O   0  0  0  0  0  0  0  0  0  0  0  0
    9.6497  -15.5879   23.9501 N   0  0  0  0  0  0  0  0  0  0  0  0
   10.9047  -16.2583   24.0925 C   0  0  0  0  0  0  0  0  0  0  0  0
   11.4841  -16.1379   25.4537 C   0  0  0  0  0  0  0  0  0  0  0  0
   12.5987  -16.6072   25.7555 O   0  0  0  0  0  0  0  0  0  0  0  0
   10.4096  -14.1197   28.3960 C   0  0  0  0  0  0  0  0  0  0  0  0
   11.1852  -15.2666   27.7733 C   0  0  2  0  0  0  0  0  0  0  0  0
   10.7007  -15.4503   26.4236 N   0  0  0  0  0  0  0  0  0  0  0  0
   10.9811  -16.5238   28.5119 C   0  0  0  0  0  0  0  0  0  0  0  0
   11.4961  -16.7606   29.6345 O   0  0  0  0  0  0  0  0  0  0  0  0
   10.1813  -17.5104   27.9538 O   0  0  0  0  0  0  0  0  0  0  0  0
  2  1  1  0
  3  2  1  0
  4  3  1  0
  5  4  1  0
  5  6  1  1
  7  8  2  0
  7  5  1  0
  9  7  1  0
 10 11  1  0
 10  9  1  0
 11 15  1  0
 12 11  2  0
 14 13  1  1
 14 16  1  0
 15 14  1  0
 16 17  2  0
 16 18  1  0
M  END
$$$$
