MGA.pdb
     RDKit          3D

 18 17  0  0  1  0  0  0  0  0999 V2000
    6.1951  -11.2783   27.3065 C   0  0  0  0  0  0  0  0  0  0  0  0
    7.0243  -12.2892   26.0912 S   0  0  0  0  0  0  0  0  0  0  0  0
    6.0476  -13.5440   25.3397 C   0  0  0  0  0  0  0  0  0  0  0  0
    6.6303  -14.4237   24.2922 C   0  0  0  0  0  0  0  0  0  0  0  0
    7.8010  -15.2156   24.6993 C   0  0  2  0  0  0  0  0  0  0  0  0
    8.7173  -14.3983   25.4564 N   0  0  0  0  0  0  0  0  0  0  0  0
    8.5544  -15.8056   23.5651 C   0  0  0  0  0  0  0  0  0  0  0  0
    8.1229  -16.8166   22.9558 O   0  0  0  0  0  0  0  0  0  0  0  0
    9.7997  -15.2765   23.0944 N   0  0  0  0  0  0  0  0  0  0  0  0
   10.5528  -15.8703   22.0337 C   0  0  0  0  0  0  0  0  0  0  0  0
   11.7530  -16.6055   22.5052 C   0  0  0  0  0  0  0  0  0  0  0  0
   12.5977  -17.0869   21.7254 O   0  0  0  0  0  0  0  0  0  0  0  0
   13.7296  -15.9636   25.2605 C   0  0  0  0  0  0  0  0  0  0  0  0
   13.1714  -17.1444   24.4868 C   0  0  2  0  0  0  0  0  0  0  0  0
   11.9061  -16.7430   23.9141 N   0  0  0  0  0  0  0  0  0  0  0  0
   12.9341  -18.3038   25.3628 C   0  0  0  0  0  0  0  0  0  0  0  0
   11.7872  -18.7105   25.6802 O   0  0  0  0  0  0  0  0  0  0  0  0
   14.0226  -18.9953   25.8743 O   0  0  0  0  0  0  0  0  0  0  0  0
  2  1  1  0
  3  2  1  0
  4  3  1  0
  5  4  1  0
  5  6  1  6
  7  8  2  0
  7  5  1  0
  9  7  1  0
 10 11  1  0
 10  9  1  0
 11 15  1  0
 12 11  2  0
 14 13  1  1
 14 16  1  0
 15 14  1  0
 16 17  2  0
 16 18  1  0
M  END
$$$$
