MGA.pdb
     RDKit          3D

 18 17  0  0  1  0  0  0  0  0999 V2000
    5.5982  -11.7095   26.8290 C   0  0  0  0  0  0  0  0  0  0  0  0
    7.0901  -12.6835   26.7187 S   0  0  0  0  0  0  0  0  0  0  0  0
    6.9665  -14.1769   25.7982 C   0  0  0  0  0  0  0  0  0  0  0  0
    6.8545  -14.1392   24.3160 C   0  0  0  0  0  0  0  0  0  0  0  0
    7.4065  -15.3006   23.6021 C   0  0  2  0  0  0  0  0  0  0  0  0
    6.9001  -16.5244   24.1739 N   0  0  0  0  0  0  0  0  0  0  0  0
    8.8886  -15.3728   23.6222 C   0  0  0  0  0  0  0  0  0  0  0  0
    9.5887  -14.4793   23.0829 O   0  0  0  0  0  0  0  0  0  0  0  0
    9.6106  -16.4425   24.2439 N   0  0  0  0  0  0  0  0  0  0  0  0
   11.0386  -16.4998   24.2929 C   0  0  0  0  0  0  0  0  0  0  0  0
   11.5950  -16.1588   25.6261 C   0  0  0  0  0  0  0  0  0  0  0  0
   12.7793  -16.3874   25.9405 O   0  0  0  0  0  0  0  0  0  0  0  0
   10.5214  -13.8626   28.2489 C   0  0  0  0  0  0  0  0  0  0  0  0
   11.1452  -15.1981   27.8852 C   0  0  2  0  0  0  0  0  0  0  0  0
   10.7045  -15.5468   26.5532 N   0  0  0  0  0  0  0  0  0  0  0  0
   10.7190  -16.2648   28.8062 C   0  0  0  0  0  0  0  0  0  0  0  0
    9.9942  -17.2323   28.4595 O   0  0  0  0  0  0  0  0  0  0  0  0
   11.1297  -16.2151   30.1304 O   0  0  0  0  0  0  0  0  0  0  0  0
  2  1  1  0
  3  2  1  0
  4  3  1  0
  5  4  1  0
  5  6  1  1
  7  8  2  0
  7  5  1  0
  9  7  1  0
 10 11  1  0
 10  9  1  0
 11 15  1  0
 12 11  2  0
 14 13  1  1
 14 16  1  0
 15 14  1  0
 16 17  2  0
 16 18  1  0
M  END
$$$$
