EVN.pdb
     RDKit          3D

 25 24  0  0  1  0  0  0  0  0999 V2000
   18.5835  -14.4020  -16.4323 N   0  0  0  0  0  0  0  0  0  0  0  0
   18.3496  -12.9766  -16.7112 C   0  0  1  0  0  0  0  0  0  0  0  0
   17.2870  -12.4503  -15.7905 C   0  0  0  0  0  0  0  0  0  0  0  0
   15.9631  -13.1426  -15.9662 C   0  0  0  0  0  0  0  0  0  0  0  0
   15.4974  -13.6981  -14.6519 C   0  0  0  0  0  0  0  0  0  0  0  0
   15.0615  -14.8706  -14.5896 O   0  0  0  0  0  0  0  0  0  0  0  0
   19.6397  -12.2985  -16.4721 C   0  0  0  0  0  0  0  0  0  0  0  0
   20.4493  -12.6913  -15.5956 O   0  0  0  0  0  0  0  0  0  0  0  0
   15.5592  -12.9045  -13.5385 O   0  0  0  0  0  0  0  0  0  0  0  0
   22.4109  -11.9986  -18.7730 C   0  0  0  0  0  0  0  0  0  0  0  0
   22.0375  -10.6034  -18.3810 C   0  0  1  0  0  0  0  0  0  0  0  0
   21.3159   -9.9173  -19.4908 C   0  0  0  0  0  0  0  0  0  0  0  0
   21.3468  -10.5215  -17.0396 C   0  0  2  0  0  0  0  0  0  0  0  0
   20.0281  -11.1433  -17.2446 N   0  0  0  0  0  0  0  0  0  0  0  0
   21.1141   -9.1464  -16.5662 C   0  0  0  0  0  0  0  0  0  0  0  0
   20.1606   -8.4403  -17.0474 O   0  0  0  0  0  0  0  0  0  0  0  0
   21.3611   -4.4334  -14.0542 N   0  0  0  0  0  0  0  0  0  0  0  0
   22.1430   -5.4192  -13.3992 C   0  0  0  0  0  0  0  0  0  0  0  0
   22.7271   -5.0363  -12.3556 O   0  0  0  0  0  0  0  0  0  0  0  0
   22.3083   -6.7967  -13.8393 C   0  0  0  0  0  0  0  0  0  0  0  0
   21.6275   -7.1247  -15.1428 C   0  0  2  0  0  0  0  0  0  0  0  0
   21.8845   -8.4857  -15.5722 N   0  0  0  0  0  0  0  0  0  0  0  0
   21.9337   -6.1412  -16.2041 C   0  0  0  0  0  0  0  0  0  0  0  0
   21.0534   -5.1295  -16.5205 O   0  0  0  0  0  0  0  0  0  0  0  0
   23.0116   -6.2268  -16.8282 O   0  0  0  0  0  0  0  0  0  0  0  0
  2  1  1  1
  2  3  1  0
  4  3  1  0
  5  9  1  0
  5  4  1  0
  6  5  2  0
  7  2  1  0
  7  8  2  0
 11 10  1  6
 11 13  1  0
 12 11  1  0
 13 14  1  6
 14  7  1  0
 15 16  2  0
 15 13  1  0
 18 19  2  0
 18 17  1  0
 20 18  1  0
 21 22  1  0
 21 20  1  1
 22 15  1  0
 23 21  1  0
 24 23  1  0
 25 23  2  0
M  END
$$$$
