EVN.pdb
     RDKit          3D

 25 24  0  0  1  0  0  0  0  0999 V2000
   14.3040  -12.7360  -12.2242 N   0  0  0  0  0  0  0  0  0  0  0  0
   14.0838  -11.2887  -12.3687 C   0  0  1  0  0  0  0  0  0  0  0  0
   12.6183  -10.9866  -12.2450 C   0  0  0  0  0  0  0  0  0  0  0  0
   11.8263  -11.4210  -13.4477 C   0  0  0  0  0  0  0  0  0  0  0  0
   11.9822  -10.4177  -14.5531 C   0  0  0  0  0  0  0  0  0  0  0  0
   12.7415   -9.4335  -14.3997 O   0  0  0  0  0  0  0  0  0  0  0  0
   14.8492  -10.6501  -11.2789 C   0  0  0  0  0  0  0  0  0  0  0  0
   14.9106  -11.1449  -10.1259 O   0  0  0  0  0  0  0  0  0  0  0  0
   11.2850  -10.6007  -15.7165 O   0  0  0  0  0  0  0  0  0  0  0  0
   17.7247   -7.9055  -12.2608 C   0  0  0  0  0  0  0  0  0  0  0  0
   17.6909   -8.5445  -10.9080 C   0  0  1  0  0  0  0  0  0  0  0  0
   18.5926   -7.8274   -9.9615 C   0  0  0  0  0  0  0  0  0  0  0  0
   16.2911   -8.7739  -10.3875 C   0  0  2  0  0  0  0  0  0  0  0  0
   15.5665   -9.4170  -11.4960 N   0  0  0  0  0  0  0  0  0  0  0  0
   15.5657   -7.5378  -10.0484 C   0  0  0  0  0  0  0  0  0  0  0  0
   14.9450   -6.8740  -10.9503 O   0  0  0  0  0  0  0  0  0  0  0  0
   13.3181   -3.3743   -7.5796 N   0  0  0  0  0  0  0  0  0  0  0  0
   13.4857   -4.4961   -6.7276 C   0  0  0  0  0  0  0  0  0  0  0  0
   12.9862   -4.3803   -5.5814 O   0  0  0  0  0  0  0  0  0  0  0  0
   14.1736   -5.7295   -7.0798 C   0  0  0  0  0  0  0  0  0  0  0  0
   14.7752   -5.7397   -8.4612 C   0  0  2  0  0  0  0  0  0  0  0  0
   15.4794   -6.9747   -8.7470 N   0  0  0  0  0  0  0  0  0  0  0  0
   15.6141   -4.5499   -8.7217 C   0  0  0  0  0  0  0  0  0  0  0  0
   15.1377   -3.4814   -9.4495 O   0  0  0  0  0  0  0  0  0  0  0  0
   16.7789   -4.5099   -8.2741 O   0  0  0  0  0  0  0  0  0  0  0  0
  2  1  1  1
  2  3  1  0
  4  3  1  0
  5  9  1  0
  5  4  1  0
  6  5  2  0
  7  2  1  0
  7  8  2  0
 11 10  1  6
 11 13  1  0
 12 11  1  0
 13 14  1  6
 14  7  1  0
 15 16  2  0
 15 13  1  0
 18 19  2  0
 18 17  1  0
 20 18  1  0
 21 22  1  0
 21 20  1  1
 22 15  1  0
 23 21  1  0
 24 23  1  0
 25 23  2  0
M  END
$$$$
