EVN.pdb
     RDKit          3D

 25 24  0  0  1  0  0  0  0  0999 V2000
   12.8226  -11.3227  -11.0097 N   0  0  0  0  0  0  0  0  0  0  0  0
   14.2774  -11.1051  -10.9922 C   0  0  1  0  0  0  0  0  0  0  0  0
   14.9182  -11.8906  -12.0997 C   0  0  0  0  0  0  0  0  0  0  0  0
   14.8070  -13.3779  -11.9043 C   0  0  0  0  0  0  0  0  0  0  0  0
   15.3414  -14.0941  -13.1102 C   0  0  0  0  0  0  0  0  0  0  0  0
   14.6871  -14.0911  -14.1783 O   0  0  0  0  0  0  0  0  0  0  0  0
   14.4740   -9.6547  -11.1903 C   0  0  0  0  0  0  0  0  0  0  0  0
   13.7788   -8.9899  -11.9981 O   0  0  0  0  0  0  0  0  0  0  0  0
   16.5435  -14.7416  -13.0170 O   0  0  0  0  0  0  0  0  0  0  0  0
   13.5520   -7.0257   -9.2891 C   0  0  0  0  0  0  0  0  0  0  0  0
   15.0377   -6.8689   -9.3784 C   0  0  1  0  0  0  0  0  0  0  0  0
   15.6922   -7.2984   -8.1095 C   0  0  0  0  0  0  0  0  0  0  0  0
   15.6314   -7.4782  -10.6271 C   0  0  2  0  0  0  0  0  0  0  0  0
   15.4845   -8.9330  -10.4553 N   0  0  0  0  0  0  0  0  0  0  0  0
   17.0666   -7.2009  -10.8074 C   0  0  0  0  0  0  0  0  0  0  0  0
   17.9486   -7.8620  -10.1561 O   0  0  0  0  0  0  0  0  0  0  0  0
   21.7584   -6.8423  -13.0498 N   0  0  0  0  0  0  0  0  0  0  0  0
   20.6345   -7.6291  -13.4105 C   0  0  0  0  0  0  0  0  0  0  0  0
   20.8153   -8.4161  -14.3721 O   0  0  0  0  0  0  0  0  0  0  0  0
   19.3312   -7.5876  -12.7639 C   0  0  0  0  0  0  0  0  0  0  0  0
   18.9670   -6.2506  -12.1721 C   0  0  2  0  0  0  0  0  0  0  0  0
   17.6028   -6.2177  -11.6815 N   0  0  0  0  0  0  0  0  0  0  0  0
   19.2528   -5.1281  -13.0917 C   0  0  0  0  0  0  0  0  0  0  0  0
   18.2474   -4.5074  -13.8005 O   0  0  0  0  0  0  0  0  0  0  0  0
   20.4287   -4.7324  -13.2308 O   0  0  0  0  0  0  0  0  0  0  0  0
  2  1  1  6
  2  3  1  0
  4  3  1  0
  5  9  1  0
  5  4  1  0
  6  5  2  0
  7  2  1  0
  7  8  2  0
 11 10  1  1
 11 13  1  0
 12 11  1  0
 13 14  1  1
 14  7  1  0
 15 16  2  0
 15 13  1  0
 18 19  2  0
 18 17  1  0
 20 18  1  0
 21 22  1  0
 21 20  1  6
 22 15  1  0
 23 21  1  0
 24 23  1  0
 25 23  2  0
M  END
$$$$
