EVN.pdb
     RDKit          3D

 25 24  0  0  1  0  0  0  0  0999 V2000
   18.7130  -15.2233  -17.1075 N   0  0  0  0  0  0  0  0  0  0  0  0
   19.1252  -13.9674  -17.7533 C   0  0  1  0  0  0  0  0  0  0  0  0
   17.9443  -13.3403  -18.4363 C   0  0  0  0  0  0  0  0  0  0  0  0
   17.5955  -14.0099  -19.7374 C   0  0  0  0  0  0  0  0  0  0  0  0
   18.6128  -13.6580  -20.7833 C   0  0  0  0  0  0  0  0  0  0  0  0
   19.6389  -14.3636  -20.9179 O   0  0  0  0  0  0  0  0  0  0  0  0
   19.6314  -13.1003  -16.6702 C   0  0  0  0  0  0  0  0  0  0  0  0
   19.1252  -13.1018  -15.5205 O   0  0  0  0  0  0  0  0  0  0  0  0
   18.3963  -12.5632  -21.5756 O   0  0  0  0  0  0  0  0  0  0  0  0
   23.4234  -11.5701  -17.0659 C   0  0  0  0  0  0  0  0  0  0  0  0
   22.7479  -11.6927  -15.7361 C   0  0  1  0  0  0  0  0  0  0  0  0
   23.4995  -10.9421  -14.6898 C   0  0  0  0  0  0  0  0  0  0  0  0
   21.2686  -11.3890  -15.7841 C   0  0  2  0  0  0  0  0  0  0  0  0
   20.7416  -12.2051  -16.8903 N   0  0  0  0  0  0  0  0  0  0  0  0
   20.9532   -9.9828  -16.0879 C   0  0  0  0  0  0  0  0  0  0  0  0
   21.1074   -9.5175  -17.2707 O   0  0  0  0  0  0  0  0  0  0  0  0
   19.3546   -4.8898  -15.8880 N   0  0  0  0  0  0  0  0  0  0  0  0
   18.4167   -5.9033  -15.5632 C   0  0  0  0  0  0  0  0  0  0  0  0
   17.2241   -5.5219  -15.4678 O   0  0  0  0  0  0  0  0  0  0  0  0
   18.7319   -7.3067  -15.3407 C   0  0  0  0  0  0  0  0  0  0  0  0
   20.1916   -7.6521  -15.4841 C   0  0  2  0  0  0  0  0  0  0  0  0
   20.4667   -9.0355  -15.1477 N   0  0  0  0  0  0  0  0  0  0  0  0
   21.0691   -6.7171  -14.7473 C   0  0  0  0  0  0  0  0  0  0  0  0
   21.4701   -5.5213  -15.3020 O   0  0  0  0  0  0  0  0  0  0  0  0
   21.4564   -7.0148  -13.5983 O   0  0  0  0  0  0  0  0  0  0  0  0
  2  1  1  1
  2  3  1  0
  4  3  1  0
  5  9  1  0
  5  4  1  0
  6  5  2  0
  7  2  1  0
  7  8  2  0
 11 10  1  6
 11 13  1  0
 12 11  1  0
 13 14  1  6
 14  7  1  0
 15 16  2  0
 15 13  1  0
 18 19  2  0
 18 17  1  0
 20 18  1  0
 21 22  1  0
 21 20  1  1
 22 15  1  0
 23 21  1  0
 24 23  1  0
 25 23  2  0
M  END
$$$$
