EVN.pdb
     RDKit          3D

 25 24  0  0  1  0  0  0  0  0999 V2000
   28.3145  -21.5905  -16.1533 N   0  0  0  0  0  0  0  0  0  0  0  0
   27.5815  -20.5182  -15.4625 C   0  0  1  0  0  0  0  0  0  0  0  0
   26.8945  -19.6452  -16.4725 C   0  0  0  0  0  0  0  0  0  0  0  0
   27.8574  -18.9153  -17.3685 C   0  0  0  0  0  0  0  0  0  0  0  0
   27.4101  -19.0239  -18.7971 C   0  0  0  0  0  0  0  0  0  0  0  0
   26.2220  -18.7682  -19.1000 O   0  0  0  0  0  0  0  0  0  0  0  0
   26.5984  -21.1935  -14.5914 C   0  0  0  0  0  0  0  0  0  0  0  0
   26.1089  -22.3141  -14.8788 O   0  0  0  0  0  0  0  0  0  0  0  0
   28.3182  -19.4036  -19.7481 O   0  0  0  0  0  0  0  0  0  0  0  0
   25.7260  -19.4340  -10.8646 C   0  0  0  0  0  0  0  0  0  0  0  0
   25.6486  -20.9148  -11.0669 C   0  0  1  0  0  0  0  0  0  0  0  0
   24.8513  -21.5559   -9.9823 C   0  0  0  0  0  0  0  0  0  0  0  0
   25.2341  -21.3086  -12.4655 C   0  0  2  0  0  0  0  0  0  0  0  0
   26.1545  -20.5869  -13.3596 N   0  0  0  0  0  0  0  0  0  0  0  0
   23.8650  -20.9008  -12.8241 C   0  0  0  0  0  0  0  0  0  0  0  0
   23.5968  -19.6804  -13.1034 O   0  0  0  0  0  0  0  0  0  0  0  0
   18.6922  -20.7337  -14.1051 N   0  0  0  0  0  0  0  0  0  0  0  0
   19.1529  -22.0701  -13.9862 C   0  0  0  0  0  0  0  0  0  0  0  0
   18.3038  -22.9570  -14.2494 O   0  0  0  0  0  0  0  0  0  0  0  0
   20.4964  -22.4692  -13.5936 C   0  0  0  0  0  0  0  0  0  0  0  0
   21.4096  -21.3265  -13.2316 C   0  0  2  0  0  0  0  0  0  0  0  0
   22.7472  -21.7746  -12.8960 N   0  0  0  0  0  0  0  0  0  0  0  0
   20.8370  -20.4553  -12.1826 C   0  0  0  0  0  0  0  0  0  0  0  0
   20.2926  -19.2270  -12.4882 O   0  0  0  0  0  0  0  0  0  0  0  0
   20.8457  -20.8381  -10.9942 O   0  0  0  0  0  0  0  0  0  0  0  0
  2  1  1  6
  2  3  1  0
  4  3  1  0
  5  9  1  0
  5  4  1  0
  6  5  2  0
  7  2  1  0
  7  8  2  0
 11 10  1  6
 11 13  1  0
 12 11  1  0
 13 14  1  6
 14  7  1  0
 15 16  2  0
 15 13  1  0
 18 19  2  0
 18 17  1  0
 20 18  1  0
 21 22  1  0
 21 20  1  1
 22 15  1  0
 23 21  1  0
 24 23  1  0
 25 23  2  0
M  END
$$$$
