EVN.pdb
     RDKit          3D

 25 24  0  0  1  0  0  0  0  0999 V2000
   18.6471  -13.7097  -17.1694 N   0  0  0  0  0  0  0  0  0  0  0  0
   18.2835  -12.3098  -16.9006 C   0  0  1  0  0  0  0  0  0  0  0  0
   17.7460  -12.1875  -15.5040 C   0  0  0  0  0  0  0  0  0  0  0  0
   16.4285  -12.8894  -15.3190 C   0  0  0  0  0  0  0  0  0  0  0  0
   15.9364  -12.6928  -13.9148 C   0  0  0  0  0  0  0  0  0  0  0  0
   15.5217  -11.5684  -13.5508 O   0  0  0  0  0  0  0  0  0  0  0  0
   19.5272  -11.5291  -17.0587 C   0  0  0  0  0  0  0  0  0  0  0  0
   20.6519  -11.9921  -16.7445 O   0  0  0  0  0  0  0  0  0  0  0  0
   15.9511  -13.7561  -13.0531 O   0  0  0  0  0  0  0  0  0  0  0  0
   20.4490   -7.4354  -19.3057 C   0  0  0  0  0  0  0  0  0  0  0  0
   20.5981   -8.9240  -19.2674 C   0  0  1  0  0  0  0  0  0  0  0  0
   21.6392   -9.3765  -20.2342 C   0  0  0  0  0  0  0  0  0  0  0  0
   20.7592   -9.4753  -17.8698 C   0  0  2  0  0  0  0  0  0  0  0  0
   19.5016  -10.1865  -17.5870 N   0  0  0  0  0  0  0  0  0  0  0  0
   20.9222   -8.4434  -16.8317 C   0  0  0  0  0  0  0  0  0  0  0  0
   21.9307   -7.6547  -16.8445 O   0  0  0  0  0  0  0  0  0  0  0  0
   22.6795   -5.0150  -13.2858 N   0  0  0  0  0  0  0  0  0  0  0  0
   22.0035   -6.2606  -13.2241 C   0  0  0  0  0  0  0  0  0  0  0  0
   21.6318   -6.6145  -12.0780 O   0  0  0  0  0  0  0  0  0  0  0  0
   21.7212   -7.1262  -14.3596 C   0  0  0  0  0  0  0  0  0  0  0  0
   20.2604   -7.2459  -14.7092 C   0  0  2  0  0  0  0  0  0  0  0  0
   20.0218   -8.2210  -15.7556 N   0  0  0  0  0  0  0  0  0  0  0  0
   19.6440   -5.9378  -15.0192 C   0  0  0  0  0  0  0  0  0  0  0  0
   18.7652   -5.3338  -14.1465 O   0  0  0  0  0  0  0  0  0  0  0  0
   19.9236   -5.3663  -16.0934 O   0  0  0  0  0  0  0  0  0  0  0  0
  2  1  1  1
  2  3  1  0
  4  3  1  0
  5  9  1  0
  5  4  1  0
  6  5  2  0
  7  2  1  0
  7  8  2  0
 11 10  1  1
 11 13  1  0
 12 11  1  0
 13 14  1  1
 14  7  1  0
 15 16  2  0
 15 13  1  0
 18 19  2  0
 18 17  1  0
 20 18  1  0
 21 22  1  0
 21 20  1  6
 22 15  1  0
 23 21  1  0
 24 23  1  0
 25 23  2  0
M  END
$$$$
