EVN.pdb
     RDKit          3D

 25 24  0  0  1  0  0  0  0  0999 V2000
   23.5276  -13.4943  -18.9476 N   0  0  0  0  0  0  0  0  0  0  0  0
   23.5483  -12.0401  -19.1688 C   0  0  1  0  0  0  0  0  0  0  0  0
   22.3939  -11.6466  -20.0443 C   0  0  0  0  0  0  0  0  0  0  0  0
   22.4906  -12.2154  -21.4335 C   0  0  0  0  0  0  0  0  0  0  0  0
   21.3394  -11.7317  -22.2662 C   0  0  0  0  0  0  0  0  0  0  0  0
   20.7894  -12.5078  -23.0810 O   0  0  0  0  0  0  0  0  0  0  0  0
   23.4321  -11.4237  -17.8317 C   0  0  0  0  0  0  0  0  0  0  0  0
   22.5692  -11.7941  -16.9974 O   0  0  0  0  0  0  0  0  0  0  0  0
   20.9105  -10.4407  -22.1166 O   0  0  0  0  0  0  0  0  0  0  0  0
   25.9151  -11.3703  -15.1722 C   0  0  0  0  0  0  0  0  0  0  0  0
   25.5642   -9.9426  -15.4519 C   0  0  1  0  0  0  0  0  0  0  0  0
   26.6700   -9.2594  -16.1825 C   0  0  0  0  0  0  0  0  0  0  0  0
   24.1999   -9.7715  -16.0783 C   0  0  2  0  0  0  0  0  0  0  0  0
   24.3153  -10.3581  -17.4237 N   0  0  0  0  0  0  0  0  0  0  0  0
   23.7872   -8.3677  -16.2461 C   0  0  0  0  0  0  0  0  0  0  0  0
   24.3893   -7.6027  -17.0778 O   0  0  0  0  0  0  0  0  0  0  0  0
   19.2159   -4.4346  -16.8784 N   0  0  0  0  0  0  0  0  0  0  0  0
   20.5262   -4.8447  -16.5219 C   0  0  0  0  0  0  0  0  0  0  0  0
   21.3749   -3.9228  -16.4410 O   0  0  0  0  0  0  0  0  0  0  0  0
   20.9394   -6.2141  -16.2527 C   0  0  0  0  0  0  0  0  0  0  0  0
   22.3493   -6.3546  -15.7398 C   0  0  2  0  0  0  0  0  0  0  0  0
   22.7275   -7.7399  -15.5384 N   0  0  0  0  0  0  0  0  0  0  0  0
   22.5982   -5.5312  -14.5367 C   0  0  0  0  0  0  0  0  0  0  0  0
   23.0297   -4.2265  -14.6368 O   0  0  0  0  0  0  0  0  0  0  0  0
   22.4144   -6.0259  -13.4052 O   0  0  0  0  0  0  0  0  0  0  0  0
  2  1  1  1
  2  3  1  0
  4  3  1  0
  5  9  1  0
  5  4  1  0
  6  5  2  0
  7  2  1  0
  7  8  2  0
 11 10  1  6
 11 13  1  0
 12 11  1  0
 13 14  1  6
 14  7  1  0
 15 16  2  0
 15 13  1  0
 18 19  2  0
 18 17  1  0
 20 18  1  0
 21 22  1  0
 21 20  1  1
 22 15  1  0
 23 21  1  0
 24 23  1  0
 25 23  2  0
M  END
$$$$
