EVN.pdb
     RDKit          3D

 25 24  0  0  1  0  0  0  0  0999 V2000
   18.4347  -24.0588   -6.7796 N   0  0  0  0  0  0  0  0  0  0  0  0
   19.2664  -24.2089   -7.9838 C   0  0  1  0  0  0  0  0  0  0  0  0
   18.7150  -25.3093   -8.8436 C   0  0  0  0  0  0  0  0  0  0  0  0
   19.0582  -26.6815   -8.3317 C   0  0  0  0  0  0  0  0  0  0  0  0
   18.3215  -27.7223   -9.1233 C   0  0  0  0  0  0  0  0  0  0  0  0
   17.2276  -28.1660   -8.7047 O   0  0  0  0  0  0  0  0  0  0  0  0
   19.2060  -22.9100   -8.6842 C   0  0  0  0  0  0  0  0  0  0  0  0
   18.1687  -22.2015   -8.6909 O   0  0  0  0  0  0  0  0  0  0  0  0
   18.8653  -28.1693  -10.2971 O   0  0  0  0  0  0  0  0  0  0  0  0
   21.3268  -20.0996   -7.9347 C   0  0  0  0  0  0  0  0  0  0  0  0
   21.4544  -20.2976   -9.4126 C   0  0  1  0  0  0  0  0  0  0  0  0
   22.8007  -20.8363   -9.7598 C   0  0  0  0  0  0  0  0  0  0  0  0
   20.2992  -21.0606  -10.0178 C   0  0  2  0  0  0  0  0  0  0  0  0
   20.3495  -22.3950   -9.3979 N   0  0  0  0  0  0  0  0  0  0  0  0
   20.4013  -21.2500  -11.4748 C   0  0  0  0  0  0  0  0  0  0  0  0
   21.1947  -22.1258  -11.9676 O   0  0  0  0  0  0  0  0  0  0  0  0
   16.5994  -19.9648  -15.5059 N   0  0  0  0  0  0  0  0  0  0  0  0
   17.4056  -20.3834  -14.4163 C   0  0  0  0  0  0  0  0  0  0  0  0
   17.0640  -19.9387  -13.2927 O   0  0  0  0  0  0  0  0  0  0  0  0
   18.5616  -21.2628  -14.5090 C   0  0  0  0  0  0  0  0  0  0  0  0
   19.8152  -20.7200  -13.8732 C   0  0  2  0  0  0  0  0  0  0  0  0
   19.6662  -20.5176  -12.4451 N   0  0  0  0  0  0  0  0  0  0  0  0
   20.3163  -19.5074  -14.5557 C   0  0  0  0  0  0  0  0  0  0  0  0
   20.6818  -19.5309  -15.8840 O   0  0  0  0  0  0  0  0  0  0  0  0
   20.4113  -18.4385  -13.9177 O   0  0  0  0  0  0  0  0  0  0  0  0
  2  1  1  1
  2  3  1  0
  4  3  1  0
  5  9  1  0
  5  4  1  0
  6  5  2  0
  7  2  1  0
  7  8  2  0
 11 10  1  1
 11 13  1  0
 12 11  1  0
 13 14  1  1
 14  7  1  0
 15 16  2  0
 15 13  1  0
 18 19  2  0
 18 17  1  0
 20 18  1  0
 21 22  1  0
 21 20  1  6
 22 15  1  0
 23 21  1  0
 24 23  1  0
 25 23  2  0
M  END
$$$$
