EVN.pdb
     RDKit          3D

 25 24  0  0  1  0  0  0  0  0999 V2000
   20.0276  -13.2638  -16.9275 N   0  0  0  0  0  0  0  0  0  0  0  0
   19.7683  -11.8289  -17.1222 C   0  0  1  0  0  0  0  0  0  0  0  0
   18.2883  -11.5769  -17.1054 C   0  0  0  0  0  0  0  0  0  0  0  0
   17.5836  -12.1412  -18.3086 C   0  0  0  0  0  0  0  0  0  0  0  0
   16.1146  -11.8446  -18.2274 C   0  0  0  0  0  0  0  0  0  0  0  0
   15.6997  -10.6830  -18.4454 O   0  0  0  0  0  0  0  0  0  0  0  0
   20.4349  -11.1392  -15.9991 C   0  0  0  0  0  0  0  0  0  0  0  0
   20.1325  -11.3657  -14.8011 O   0  0  0  0  0  0  0  0  0  0  0  0
   15.2507  -12.8588  -17.9139 O   0  0  0  0  0  0  0  0  0  0  0  0
   23.8404  -11.0802  -14.7236 C   0  0  0  0  0  0  0  0  0  0  0  0
   23.5092   -9.6763  -15.1225 C   0  0  1  0  0  0  0  0  0  0  0  0
   24.2060   -9.3075  -16.3880 C   0  0  0  0  0  0  0  0  0  0  0  0
   22.0267   -9.3843  -15.1157 C   0  0  2  0  0  0  0  0  0  0  0  0
   21.4733  -10.1652  -16.2343 N   0  0  0  0  0  0  0  0  0  0  0  0
   21.6912   -7.9711  -15.3593 C   0  0  0  0  0  0  0  0  0  0  0  0
   21.6764   -7.4968  -16.5485 O   0  0  0  0  0  0  0  0  0  0  0  0
   20.4182   -2.8412  -15.1259 N   0  0  0  0  0  0  0  0  0  0  0  0
   19.4353   -3.8299  -14.8638 C   0  0  0  0  0  0  0  0  0  0  0  0
   18.2514   -3.4134  -14.8219 O   0  0  0  0  0  0  0  0  0  0  0  0
   19.6968   -5.2453  -14.6477 C   0  0  0  0  0  0  0  0  0  0  0  0
   21.1570   -5.6163  -14.6202 C   0  0  2  0  0  0  0  0  0  0  0  0
   21.3629   -7.0261  -14.3506 N   0  0  0  0  0  0  0  0  0  0  0  0
   21.9419   -4.7569  -13.7077 C   0  0  0  0  0  0  0  0  0  0  0  0
   22.4296   -3.5344  -14.1156 O   0  0  0  0  0  0  0  0  0  0  0  0
   22.1690   -5.1443  -12.5428 O   0  0  0  0  0  0  0  0  0  0  0  0
  2  1  1  1
  2  3  1  0
  4  3  1  0
  5  9  1  0
  5  4  1  0
  6  5  2  0
  7  2  1  0
  7  8  2  0
 11 10  1  6
 11 13  1  0
 12 11  1  0
 13 14  1  6
 14  7  1  0
 15 16  2  0
 15 13  1  0
 18 19  2  0
 18 17  1  0
 20 18  1  0
 21 22  1  0
 21 20  1  1
 22 15  1  0
 23 21  1  0
 24 23  1  0
 25 23  2  0
M  END
$$$$
