LVG.pdb
     RDKit          3D

 20 19  0  0  1  0  0  0  0  0999 V2000
   27.5692  -20.7500   -4.0819 C   0  0  0  0  0  0  0  0  0  0  0  0
   28.0573  -19.8326   -5.2068 C   0  0  1  0  0  0  0  0  0  0  0  0
   29.4767  -20.2338   -5.5258 C   0  0  0  0  0  0  0  0  0  0  0  0
   27.1348  -20.0787   -6.3823 C   0  0  0  0  0  0  0  0  0  0  0  0
   27.5808  -19.2908   -7.6037 C   0  0  2  0  0  0  0  0  0  0  0  0
   27.9013  -17.9373   -7.2724 N   0  0  0  0  0  0  0  0  0  0  0  0
   26.5689  -19.4155   -8.6606 C   0  0  0  0  0  0  0  0  0  0  0  0
   25.5562  -18.6684   -8.6034 O   0  0  0  0  0  0  0  0  0  0  0  0
   26.9385  -22.2317  -12.0148 C   0  0  0  0  0  0  0  0  0  0  0  0
   26.6099  -20.7834  -12.0711 C   0  0  2  0  0  0  0  0  0  0  0  0
   27.9105  -20.0232  -12.2823 C   0  0  0  0  0  0  0  0  0  0  0  0
   25.8163  -20.2373  -10.9340 C   0  0  2  0  0  0  0  0  0  0  0  0
   26.6683  -20.3314   -9.7438 N   0  0  0  0  0  0  0  0  0  0  0  0
   24.5585  -20.9241  -10.6411 C   0  0  0  0  0  0  0  0  0  0  0  0
   24.4695  -21.7141   -9.6335 O   0  0  0  0  0  0  0  0  0  0  0  0
   23.3622  -20.7980  -11.3981 N   0  0  0  0  0  0  0  0  0  0  0  0
   22.1423  -21.5274  -11.0134 C   0  0  0  0  0  0  0  0  0  0  0  0
   21.0547  -21.1387  -11.9312 C   0  0  0  0  0  0  0  0  0  0  0  0
   21.2380  -20.3020  -12.8517 O   0  0  0  0  0  0  0  0  0  0  0  0
   19.7811  -21.6954  -11.8000 O   0  0  0  0  0  0  0  0  0  0  0  0
  2  1  1  1
  3  2  1  0
  4  2  1  0
  5  7  1  0
  5  4  1  0
  5  6  1  1
  7  8  2  0
 10  9  1  1
 10 11  1  0
 10 12  1  0
 12 14  1  0
 13  7  1  0
 12 13  1  1
 14 15  2  0
 16 14  1  0
 16 17  1  0
 18 17  1  0
 18 20  1  0
 19 18  2  0
M  END
$$$$
