LVG.pdb
     RDKit          3D

 20 19  0  0  1  0  0  0  0  0999 V2000
   26.7709  -13.2562  -17.0890 C   0  0  0  0  0  0  0  0  0  0  0  0
   25.2564  -13.4103  -16.9217 C   0  0  1  0  0  0  0  0  0  0  0  0
   25.0094  -13.8877  -15.5115 C   0  0  0  0  0  0  0  0  0  0  0  0
   24.6642  -12.0359  -17.1528 C   0  0  0  0  0  0  0  0  0  0  0  0
   23.1525  -12.0559  -16.9919 C   0  0  2  0  0  0  0  0  0  0  0  0
   22.5371  -12.9837  -17.8890 N   0  0  0  0  0  0  0  0  0  0  0  0
   22.6315  -10.6879  -17.1093 C   0  0  0  0  0  0  0  0  0  0  0  0
   22.7632  -10.0957  -18.2134 O   0  0  0  0  0  0  0  0  0  0  0  0
   19.4056   -9.2876  -14.7506 C   0  0  0  0  0  0  0  0  0  0  0  0
   19.8965   -8.8772  -16.0920 C   0  0  2  0  0  0  0  0  0  0  0  0
   19.3532   -9.8723  -17.1062 C   0  0  0  0  0  0  0  0  0  0  0  0
   21.3671   -8.6786  -16.2294 C   0  0  2  0  0  0  0  0  0  0  0  0
   21.9874   -9.9952  -16.0475 N   0  0  0  0  0  0  0  0  0  0  0  0
   21.9820   -7.7568  -15.2747 C   0  0  0  0  0  0  0  0  0  0  0  0
   22.3064   -8.1597  -14.1000 O   0  0  0  0  0  0  0  0  0  0  0  0
   22.2729   -6.3892  -15.5294 N   0  0  0  0  0  0  0  0  0  0  0  0
   22.9466   -5.5572  -14.5183 C   0  0  0  0  0  0  0  0  0  0  0  0
   21.9176   -4.8594  -13.7243 C   0  0  0  0  0  0  0  0  0  0  0  0
   20.6908   -5.0447  -13.9287 O   0  0  0  0  0  0  0  0  0  0  0  0
   22.2830   -3.9662  -12.7154 O   0  0  0  0  0  0  0  0  0  0  0  0
  2  1  1  1
  3  2  1  0
  4  2  1  0
  5  7  1  0
  5  4  1  0
  5  6  1  6
  7  8  2  0
 10  9  1  1
 10 11  1  0
 10 12  1  0
 12 14  1  0
 13  7  1  0
 12 13  1  1
 14 15  2  0
 16 14  1  0
 16 17  1  0
 18 17  1  0
 18 20  1  0
 19 18  2  0
M  END
$$$$
