LVG.pdb
     RDKit          3D

 20 19  0  0  1  0  0  0  0  0999 V2000
   28.7766  -11.8888  -16.6305 C   0  0  0  0  0  0  0  0  0  0  0  0
   27.4044  -12.5662  -16.6897 C   0  0  1  0  0  0  0  0  0  0  0  0
   27.2149  -13.3053  -15.3876 C   0  0  0  0  0  0  0  0  0  0  0  0
   26.3904  -11.4525  -16.8470 C   0  0  0  0  0  0  0  0  0  0  0  0
   24.9780  -12.0067  -16.9452 C   0  0  2  0  0  0  0  0  0  0  0  0
   24.8670  -12.9933  -17.9742 N   0  0  0  0  0  0  0  0  0  0  0  0
   24.0274  -10.8964  -17.0877 C   0  0  0  0  0  0  0  0  0  0  0  0
   23.9371  -10.3333  -18.2110 O   0  0  0  0  0  0  0  0  0  0  0  0
   20.4352  -10.8355  -16.9874 C   0  0  0  0  0  0  0  0  0  0  0  0
   20.9067   -9.8353  -15.9944 C   0  0  2  0  0  0  0  0  0  0  0  0
   19.8608   -8.7334  -15.9174 C   0  0  0  0  0  0  0  0  0  0  0  0
   22.2807   -9.2948  -16.1966 C   0  0  2  0  0  0  0  0  0  0  0  0
   23.2042  -10.4221  -16.0297 N   0  0  0  0  0  0  0  0  0  0  0  0
   22.6951   -8.2352  -15.2774 C   0  0  0  0  0  0  0  0  0  0  0  0
   22.8474   -8.4830  -14.0273 O   0  0  0  0  0  0  0  0  0  0  0  0
   22.9610   -6.8890  -15.6476 N   0  0  0  0  0  0  0  0  0  0  0  0
   23.2748   -5.8718  -14.6303 C   0  0  0  0  0  0  0  0  0  0  0  0
   22.0213   -5.2018  -14.2351 C   0  0  0  0  0  0  0  0  0  0  0  0
   20.9195   -5.5051  -14.7595 O   0  0  0  0  0  0  0  0  0  0  0  0
   22.0262   -4.2038  -13.2588 O   0  0  0  0  0  0  0  0  0  0  0  0
  2  1  1  1
  3  2  1  0
  4  2  1  0
  5  7  1  0
  5  4  1  0
  5  6  1  6
  7  8  2  0
 10  9  1  6
 10 11  1  0
 10 12  1  0
 12 14  1  0
 13  7  1  0
 12 13  1  1
 14 15  2  0
 16 14  1  0
 16 17  1  0
 18 17  1  0
 18 20  1  0
 19 18  2  0
M  END
$$$$
