LVG.pdb
     RDKit          3D

 20 19  0  0  1  0  0  0  0  0999 V2000
   27.4864  -19.9290  -15.4545 C   0  0  0  0  0  0  0  0  0  0  0  0
   27.2699  -20.0839  -13.9464 C   0  0  1  0  0  0  0  0  0  0  0  0
   27.4939  -18.7284  -13.3217 C   0  0  0  0  0  0  0  0  0  0  0  0
   25.8383  -20.5449  -13.7706 C   0  0  0  0  0  0  0  0  0  0  0  0
   25.5144  -20.7814  -12.3041 C   0  0  2  0  0  0  0  0  0  0  0  0
   26.4690  -21.6468  -11.6842 N   0  0  0  0  0  0  0  0  0  0  0  0
   24.1275  -21.2480  -12.1801 C   0  0  0  0  0  0  0  0  0  0  0  0
   23.9160  -22.4898  -12.1933 O   0  0  0  0  0  0  0  0  0  0  0  0
   20.9208  -18.6100  -10.9029 C   0  0  0  0  0  0  0  0  0  0  0  0
   21.1302  -20.0572  -10.6379 C   0  0  2  0  0  0  0  0  0  0  0  0
   21.9938  -20.1777   -9.3914 C   0  0  0  0  0  0  0  0  0  0  0  0
   21.6578  -20.8706  -11.7697 C   0  0  2  0  0  0  0  0  0  0  0  0
   23.0112  -20.3773  -12.0462 N   0  0  0  0  0  0  0  0  0  0  0  0
   20.8940  -20.8080  -13.0156 C   0  0  0  0  0  0  0  0  0  0  0  0
   19.6935  -21.2593  -13.0645 O   0  0  0  0  0  0  0  0  0  0  0  0
   21.3710  -20.2692  -14.2412 N   0  0  0  0  0  0  0  0  0  0  0  0
   20.5989  -20.4198  -15.4860 C   0  0  0  0  0  0  0  0  0  0  0  0
   19.8129  -19.1902  -15.7016 C   0  0  0  0  0  0  0  0  0  0  0  0
   19.7173  -18.3059  -14.8128 O   0  0  0  0  0  0  0  0  0  0  0  0
   19.1482  -18.9744  -16.9103 O   0  0  0  0  0  0  0  0  0  0  0  0
  2  1  1  6
  3  2  1  0
  4  2  1  0
  5  7  1  0
  5  4  1  0
  5  6  1  6
  7  8  2  0
 10  9  1  6
 10 11  1  0
 10 12  1  0
 12 14  1  0
 13  7  1  0
 12 13  1  6
 14 15  2  0
 16 14  1  0
 16 17  1  0
 18 17  1  0
 18 20  1  0
 19 18  2  0
M  END
$$$$
