LVG.pdb
     RDKit          3D

 20 19  0  0  1  0  0  0  0  0999 V2000
   24.1589  -14.7136  -19.0711 C   0  0  0  0  0  0  0  0  0  0  0  0
   24.6920  -13.8021  -17.9619 C   0  0  1  0  0  0  0  0  0  0  0  0
   26.1457  -13.5330  -18.2654 C   0  0  0  0  0  0  0  0  0  0  0  0
   23.8687  -12.5328  -18.0265 C   0  0  0  0  0  0  0  0  0  0  0  0
   24.3066  -11.5402  -16.9614 C   0  0  2  0  0  0  0  0  0  0  0  0
   24.3540  -12.1417  -15.6650 N   0  0  0  0  0  0  0  0  0  0  0  0
   23.4537  -10.3466  -17.0270 C   0  0  0  0  0  0  0  0  0  0  0  0
   23.3686   -9.7380  -18.1267 O   0  0  0  0  0  0  0  0  0  0  0  0
   20.0318   -9.6040  -14.5354 C   0  0  0  0  0  0  0  0  0  0  0  0
   20.4488   -9.1557  -15.8895 C   0  0  2  0  0  0  0  0  0  0  0  0
   20.1378  -10.2814  -16.8642 C   0  0  0  0  0  0  0  0  0  0  0  0
   21.8491   -8.6639  -16.0249 C   0  0  2  0  0  0  0  0  0  0  0  0
   22.7192   -9.8400  -15.9197 N   0  0  0  0  0  0  0  0  0  0  0  0
   22.2869   -7.6907  -15.0246 C   0  0  0  0  0  0  0  0  0  0  0  0
   22.5451   -8.0648  -13.8243 O   0  0  0  0  0  0  0  0  0  0  0  0
   22.4657   -6.3004  -15.2595 N   0  0  0  0  0  0  0  0  0  0  0  0
   22.8667   -5.3940  -14.1705 C   0  0  0  0  0  0  0  0  0  0  0  0
   21.6574   -4.7401  -13.6357 C   0  0  0  0  0  0  0  0  0  0  0  0
   20.5050   -5.1594  -13.9137 O   0  0  0  0  0  0  0  0  0  0  0  0
   21.7622   -3.6277  -12.7985 O   0  0  0  0  0  0  0  0  0  0  0  0
  2  1  1  6
  3  2  1  0
  4  2  1  0
  5  7  1  0
  5  4  1  0
  5  6  1  1
  7  8  2  0
 10  9  1  1
 10 11  1  0
 10 12  1  0
 12 14  1  0
 13  7  1  0
 12 13  1  1
 14 15  2  0
 16 14  1  0
 16 17  1  0
 18 17  1  0
 18 20  1  0
 19 18  2  0
M  END
$$$$
