LVG.pdb
     RDKit          3D

 20 19  0  0  1  0  0  0  0  0999 V2000
   26.6635  -14.5585  -15.4182 C   0  0  0  0  0  0  0  0  0  0  0  0
   25.3191  -14.4621  -16.1451 C   0  0  1  0  0  0  0  0  0  0  0  0
   24.2892  -15.1334  -15.2698 C   0  0  0  0  0  0  0  0  0  0  0  0
   25.0309  -12.9841  -16.3053 C   0  0  0  0  0  0  0  0  0  0  0  0
   23.6565  -12.7561  -16.9141 C   0  0  2  0  0  0  0  0  0  0  0  0
   23.4999  -13.4633  -18.1470 N   0  0  0  0  0  0  0  0  0  0  0  0
   23.4059  -11.3135  -17.0258 C   0  0  0  0  0  0  0  0  0  0  0  0
   24.1223  -10.6466  -17.8190 O   0  0  0  0  0  0  0  0  0  0  0  0
   19.6011   -9.6946  -15.9886 C   0  0  0  0  0  0  0  0  0  0  0  0
   20.5932   -9.2735  -17.0118 C   0  0  2  0  0  0  0  0  0  0  0  0
   20.3830  -10.1420  -18.2428 C   0  0  0  0  0  0  0  0  0  0  0  0
   22.0196   -9.2421  -16.5812 C   0  0  2  0  0  0  0  0  0  0  0  0
   22.4008  -10.6281  -16.2895 N   0  0  0  0  0  0  0  0  0  0  0  0
   22.3146   -8.4366  -15.3965 C   0  0  0  0  0  0  0  0  0  0  0  0
   22.1098   -8.9108  -14.2215 O   0  0  0  0  0  0  0  0  0  0  0  0
   22.8329   -7.1133  -15.4154 N   0  0  0  0  0  0  0  0  0  0  0  0
   23.0817   -6.3796  -14.1632 C   0  0  0  0  0  0  0  0  0  0  0  0
   22.0802   -5.3030  -14.0439 C   0  0  0  0  0  0  0  0  0  0  0  0
   21.1355   -5.1891  -14.8659 O   0  0  0  0  0  0  0  0  0  0  0  0
   22.1562   -4.3737  -13.0048 O   0  0  0  0  0  0  0  0  0  0  0  0
  2  1  1  1
  3  2  1  0
  4  2  1  0
  5  7  1  0
  5  4  1  0
  5  6  1  6
  7  8  2  0
 10  9  1  1
 10 11  1  0
 10 12  1  0
 12 14  1  0
 13  7  1  0
 12 13  1  1
 14 15  2  0
 16 14  1  0
 16 17  1  0
 18 17  1  0
 18 20  1  0
 19 18  2  0
M  END
$$$$
