LVG.pdb
     RDKit          3D

 20 19  0  0  1  0  0  0  0  0999 V2000
   25.1226  -13.0625  -15.4051 C   0  0  0  0  0  0  0  0  0  0  0  0
   24.5805  -13.4900  -16.7721 C   0  0  1  0  0  0  0  0  0  0  0  0
   23.1372  -13.8851  -16.5762 C   0  0  0  0  0  0  0  0  0  0  0  0
   24.7059  -12.2796  -17.6733 C   0  0  0  0  0  0  0  0  0  0  0  0
   23.3735  -11.9374  -18.3206 C   0  0  2  0  0  0  0  0  0  0  0  0
   23.2376  -12.5477  -19.6065 N   0  0  0  0  0  0  0  0  0  0  0  0
   23.2003  -10.4792  -18.3385 C   0  0  0  0  0  0  0  0  0  0  0  0
   23.9161   -9.8065  -19.1272 O   0  0  0  0  0  0  0  0  0  0  0  0
   19.5493   -8.6471  -17.3685 C   0  0  0  0  0  0  0  0  0  0  0  0
   20.6825   -8.1613  -18.1982 C   0  0  2  0  0  0  0  0  0  0  0  0
   20.5479   -8.7906  -19.5766 C   0  0  0  0  0  0  0  0  0  0  0  0
   22.0479   -8.3396  -17.6283 C   0  0  2  0  0  0  0  0  0  0  0  0
   22.2707   -9.7851  -17.5163 N   0  0  0  0  0  0  0  0  0  0  0  0
   22.2756   -7.7469  -16.3106 C   0  0  0  0  0  0  0  0  0  0  0  0
   21.9196   -8.3715  -15.2474 O   0  0  0  0  0  0  0  0  0  0  0  0
   22.8839   -6.4840  -16.0759 N   0  0  0  0  0  0  0  0  0  0  0  0
   23.0279   -5.9552  -14.7092 C   0  0  0  0  0  0  0  0  0  0  0  0
   21.8414   -5.1365  -14.3960 C   0  0  0  0  0  0  0  0  0  0  0  0
   20.8818   -5.0331  -15.2019 O   0  0  0  0  0  0  0  0  0  0  0  0
   21.7525   -4.4484  -13.1844 O   0  0  0  0  0  0  0  0  0  0  0  0
  2  1  1  1
  3  2  1  0
  4  2  1  0
  5  7  1  0
  5  4  1  0
  5  6  1  6
  7  8  2  0
 10  9  1  1
 10 11  1  0
 10 12  1  0
 12 14  1  0
 13  7  1  0
 12 13  1  1
 14 15  2  0
 16 14  1  0
 16 17  1  0
 18 17  1  0
 18 20  1  0
 19 18  2  0
M  END
$$$$
