LVG.pdb
     RDKit          3D

 20 19  0  0  1  0  0  0  0  0999 V2000
   26.3394  -20.6175   -7.8583 C   0  0  0  0  0  0  0  0  0  0  0  0
   25.5522  -21.1132   -9.0748 C   0  0  1  0  0  0  0  0  0  0  0  0
   24.0870  -20.9270   -8.7644 C   0  0  0  0  0  0  0  0  0  0  0  0
   25.9858  -20.2479  -10.2394 C   0  0  0  0  0  0  0  0  0  0  0  0
   25.3826  -20.7423  -11.5445 C   0  0  2  0  0  0  0  0  0  0  0  0
   25.7496  -22.0970  -11.8174 N   0  0  0  0  0  0  0  0  0  0  0  0
   25.7263  -19.8091  -12.6250 C   0  0  0  0  0  0  0  0  0  0  0  0
   25.4352  -18.5928  -12.4734 O   0  0  0  0  0  0  0  0  0  0  0  0
   28.5187  -18.7439  -16.5420 C   0  0  0  0  0  0  0  0  0  0  0  0
   27.9743  -19.6307  -15.4808 C   0  0  2  0  0  0  0  0  0  0  0  0
   27.9907  -21.0544  -16.0163 C   0  0  0  0  0  0  0  0  0  0  0  0
   26.6464  -19.2556  -14.9179 C   0  0  2  0  0  0  0  0  0  0  0  0
   26.3687  -20.2012  -13.8315 N   0  0  0  0  0  0  0  0  0  0  0  0
   25.5195  -19.2983  -15.8493 C   0  0  0  0  0  0  0  0  0  0  0  0
   25.4053  -18.4128  -16.7713 O   0  0  0  0  0  0  0  0  0  0  0  0
   24.4845  -20.2724  -15.8369 N   0  0  0  0  0  0  0  0  0  0  0  0
   23.4032  -20.2411  -16.8359 C   0  0  0  0  0  0  0  0  0  0  0  0
   23.7380  -21.1854  -17.9186 C   0  0  0  0  0  0  0  0  0  0  0  0
   24.8450  -21.7806  -17.9538 O   0  0  0  0  0  0  0  0  0  0  0  0
   22.8251  -21.4453  -18.9425 O   0  0  0  0  0  0  0  0  0  0  0  0
  2  1  1  1
  3  2  1  0
  4  2  1  0
  5  7  1  0
  5  4  1  0
  5  6  1  6
  7  8  2  0
 10  9  1  6
 10 11  1  0
 10 12  1  0
 12 14  1  0
 13  7  1  0
 12 13  1  1
 14 15  2  0
 16 14  1  0
 16 17  1  0
 18 17  1  0
 18 20  1  0
 19 18  2  0
M  END
$$$$
