LVG.pdb
     RDKit          3D

 20 19  0  0  1  0  0  0  0  0999 V2000
   18.9166  -16.9734  -19.0244 C   0  0  0  0  0  0  0  0  0  0  0  0
   18.7056  -16.0843  -17.7954 C   0  0  1  0  0  0  0  0  0  0  0  0
   19.2927  -16.8130  -16.6114 C   0  0  0  0  0  0  0  0  0  0  0  0
   19.4477  -14.7943  -18.0753 C   0  0  0  0  0  0  0  0  0  0  0  0
   19.3176  -13.8234  -16.9125 C   0  0  2  0  0  0  0  0  0  0  0  0
   17.9488  -13.5542  -16.5986 N   0  0  0  0  0  0  0  0  0  0  0  0
   20.1064  -12.6171  -17.1939 C   0  0  0  0  0  0  0  0  0  0  0  0
   21.3243  -12.7589  -17.4832 O   0  0  0  0  0  0  0  0  0  0  0  0
   20.4379   -8.1204  -18.9596 C   0  0  0  0  0  0  0  0  0  0  0  0
   19.7943   -9.3984  -18.5582 C   0  0  2  0  0  0  0  0  0  0  0  0
   18.3113   -9.1250  -18.3581 C   0  0  0  0  0  0  0  0  0  0  0  0
   20.3978  -10.1103  -17.3963 C   0  0  2  0  0  0  0  0  0  0  0  0
   19.5730  -11.2995  -17.1579 N   0  0  0  0  0  0  0  0  0  0  0  0
   20.4673   -9.3541  -16.1462 C   0  0  0  0  0  0  0  0  0  0  0  0
   19.4213   -9.2076  -15.4170 O   0  0  0  0  0  0  0  0  0  0  0  0
   21.6370   -8.7336  -15.6295 N   0  0  0  0  0  0  0  0  0  0  0  0
   21.6280   -8.0815  -14.3093 C   0  0  0  0  0  0  0  0  0  0  0  0
   21.3297   -6.6489  -14.4962 C   0  0  0  0  0  0  0  0  0  0  0  0
   21.1348   -6.1609  -15.6385 O   0  0  0  0  0  0  0  0  0  0  0  0
   21.2554   -5.7894  -13.3985 O   0  0  0  0  0  0  0  0  0  0  0  0
  2  1  1  6
  3  2  1  0
  4  2  1  0
  5  7  1  0
  5  4  1  0
  5  6  1  6
  7  8  2  0
 10  9  1  1
 10 11  1  0
 10 12  1  0
 12 14  1  0
 13  7  1  0
 12 13  1  1
 14 15  2  0
 16 14  1  0
 16 17  1  0
 18 17  1  0
 18 20  1  0
 19 18  2  0
M  END
$$$$
