LVG.pdb
     RDKit          3D

 20 19  0  0  1  0  0  0  0  0999 V2000
   24.9042  -18.4950  -17.7538 C   0  0  0  0  0  0  0  0  0  0  0  0
   23.4146  -18.6281  -17.4237 C   0  0  1  0  0  0  0  0  0  0  0  0
   22.7592  -19.3245  -18.5912 C   0  0  0  0  0  0  0  0  0  0  0  0
   23.3345  -19.4645  -16.1639 C   0  0  0  0  0  0  0  0  0  0  0  0
   21.8900  -19.7575  -15.7911 C   0  0  2  0  0  0  0  0  0  0  0  0
   21.0737  -18.5867  -15.8758 N   0  0  0  0  0  0  0  0  0  0  0  0
   21.8487  -20.4115  -14.4769 C   0  0  0  0  0  0  0  0  0  0  0  0
   22.6628  -21.3466  -14.2537 O   0  0  0  0  0  0  0  0  0  0  0  0
   20.8718  -20.1906   -9.6917 C   0  0  0  0  0  0  0  0  0  0  0  0
   20.9676  -19.7131  -11.0958 C   0  0  2  0  0  0  0  0  0  0  0  0
   19.9255  -18.6210  -11.2837 C   0  0  0  0  0  0  0  0  0  0  0  0
   20.8901  -20.7548  -12.1588 C   0  0  2  0  0  0  0  0  0  0  0  0
   20.9419  -20.0486  -13.4433 N   0  0  0  0  0  0  0  0  0  0  0  0
   19.6887  -21.5890  -12.1532 C   0  0  0  0  0  0  0  0  0  0  0  0
   18.6388  -21.2195  -12.7926 O   0  0  0  0  0  0  0  0  0  0  0  0
   19.5594  -22.8325  -11.4772 N   0  0  0  0  0  0  0  0  0  0  0  0
   18.3603  -23.6689  -11.6531 C   0  0  0  0  0  0  0  0  0  0  0  0
   17.3196  -23.1985  -10.7194 C   0  0  0  0  0  0  0  0  0  0  0  0
   17.5292  -22.2455   -9.9263 O   0  0  0  0  0  0  0  0  0  0  0  0
   16.0626  -23.8054  -10.6918 O   0  0  0  0  0  0  0  0  0  0  0  0
  2  1  1  6
  3  2  1  0
  4  2  1  0
  5  7  1  0
  5  4  1  0
  5  6  1  1
  7  8  2  0
 10  9  1  1
 10 11  1  0
 10 12  1  0
 12 14  1  0
 13  7  1  0
 12 13  1  6
 14 15  2  0
 16 14  1  0
 16 17  1  0
 18 17  1  0
 18 20  1  0
 19 18  2  0
M  END
$$$$
