LVG.pdb
     RDKit          3D

 20 19  0  0  1  0  0  0  0  0999 V2000
   19.2974  -22.9839   -9.1236 C   0  0  0  0  0  0  0  0  0  0  0  0
   19.6656  -22.7758  -10.5955 C   0  0  1  0  0  0  0  0  0  0  0  0
   18.3769  -22.5686  -11.3530 C   0  0  0  0  0  0  0  0  0  0  0  0
   20.5397  -21.5400  -10.6413 C   0  0  0  0  0  0  0  0  0  0  0  0
   20.9547  -21.2144  -12.0672 C   0  0  2  0  0  0  0  0  0  0  0  0
   20.8833  -22.3638  -12.9147 N   0  0  0  0  0  0  0  0  0  0  0  0
   22.2747  -20.5710  -12.0559 C   0  0  0  0  0  0  0  0  0  0  0  0
   22.4210  -19.5292  -11.3629 O   0  0  0  0  0  0  0  0  0  0  0  0
   25.8459  -22.4749  -13.5284 C   0  0  0  0  0  0  0  0  0  0  0  0
   25.7377  -21.3553  -12.5571 C   0  0  2  0  0  0  0  0  0  0  0  0
   25.6178  -21.9610  -11.1668 C   0  0  0  0  0  0  0  0  0  0  0  0
   24.6764  -20.3438  -12.8244 C   0  0  2  0  0  0  0  0  0  0  0  0
   23.3958  -21.0577  -12.7829 N   0  0  0  0  0  0  0  0  0  0  0  0
   24.7615  -19.6487  -14.1085 C   0  0  0  0  0  0  0  0  0  0  0  0
   25.7954  -18.9460  -14.3992 O   0  0  0  0  0  0  0  0  0  0  0  0
   23.7636  -19.6746  -15.1203 N   0  0  0  0  0  0  0  0  0  0  0  0
   23.9150  -18.8843  -16.3535 C   0  0  0  0  0  0  0  0  0  0  0  0
   24.3791  -19.7798  -17.4300 C   0  0  0  0  0  0  0  0  0  0  0  0
   23.9022  -20.9338  -17.5774 O   0  0  0  0  0  0  0  0  0  0  0  0
   25.3699  -19.3648  -18.3219 O   0  0  0  0  0  0  0  0  0  0  0  0
  2  1  1  1
  3  2  1  0
  4  2  1  0
  5  7  1  0
  5  4  1  0
  5  6  1  6
  7  8  2  0
 10  9  1  6
 10 11  1  0
 10 12  1  0
 12 14  1  0
 13  7  1  0
 12 13  1  6
 14 15  2  0
 16 14  1  0
 16 17  1  0
 18 17  1  0
 18 20  1  0
 19 18  2  0
M  END
$$$$
