LVG.pdb
     RDKit          3D

 20 19  0  0  1  0  0  0  0  0999 V2000
   19.7437  -14.2052  -19.7515 C   0  0  0  0  0  0  0  0  0  0  0  0
   20.7821  -13.6824  -18.7548 C   0  0  1  0  0  0  0  0  0  0  0  0
   22.1322  -14.1723  -19.2185 C   0  0  0  0  0  0  0  0  0  0  0  0
   20.6937  -12.1715  -18.8065 C   0  0  0  0  0  0  0  0  0  0  0  0
   21.5076  -11.5359  -17.6907 C   0  0  2  0  0  0  0  0  0  0  0  0
   21.5322  -12.3566  -16.5201 N   0  0  0  0  0  0  0  0  0  0  0  0
   21.0182  -10.1733  -17.4455 C   0  0  0  0  0  0  0  0  0  0  0  0
   20.9586   -9.3797  -18.4220 O   0  0  0  0  0  0  0  0  0  0  0  0
   18.5519   -8.7438  -14.0656 C   0  0  0  0  0  0  0  0  0  0  0  0
   18.7792   -8.3559  -15.4821 C   0  0  2  0  0  0  0  0  0  0  0  0
   17.9225   -9.2634  -16.3519 C   0  0  0  0  0  0  0  0  0  0  0  0
   20.1968   -8.3110  -15.9396 C   0  0  2  0  0  0  0  0  0  0  0  0
   20.6083   -9.7001  -16.1687 N   0  0  0  0  0  0  0  0  0  0  0  0
   21.1519   -7.7072  -15.0110 C   0  0  0  0  0  0  0  0  0  0  0  0
   21.6072   -8.3815  -14.0183 O   0  0  0  0  0  0  0  0  0  0  0  0
   21.6540   -6.3807  -15.1016 N   0  0  0  0  0  0  0  0  0  0  0  0
   22.5592   -5.8417  -14.0729 C   0  0  0  0  0  0  0  0  0  0  0  0
   21.8482   -4.7833  -13.3309 C   0  0  0  0  0  0  0  0  0  0  0  0
   20.5945   -4.6908  -13.3561 O   0  0  0  0  0  0  0  0  0  0  0  0
   22.5561   -3.8478  -12.5740 O   0  0  0  0  0  0  0  0  0  0  0  0
  2  1  1  6
  3  2  1  0
  4  2  1  0
  5  7  1  0
  5  4  1  0
  5  6  1  1
  7  8  2  0
 10  9  1  1
 10 11  1  0
 10 12  1  0
 12 14  1  0
 13  7  1  0
 12 13  1  1
 14 15  2  0
 16 14  1  0
 16 17  1  0
 18 17  1  0
 18 20  1  0
 19 18  2  0
M  END
$$$$
