LVG.pdb
     RDKit          3D

 20 19  0  0  1  0  0  0  0  0999 V2000
   29.5132  -18.4524   -5.1473 C   0  0  0  0  0  0  0  0  0  0  0  0
   28.4635  -19.5258   -5.4494 C   0  0  1  0  0  0  0  0  0  0  0  0
   27.3859  -19.4042   -4.3998 C   0  0  0  0  0  0  0  0  0  0  0  0
   27.9280  -19.2154   -6.8314 C   0  0  0  0  0  0  0  0  0  0  0  0
   26.8748  -20.2282   -7.2518 C   0  0  2  0  0  0  0  0  0  0  0  0
   27.4196  -21.5462   -7.3553 N   0  0  0  0  0  0  0  0  0  0  0  0
   26.2150  -19.7647   -8.4790 C   0  0  0  0  0  0  0  0  0  0  0  0
   26.2927  -18.5412   -8.7686 O   0  0  0  0  0  0  0  0  0  0  0  0
   25.5893  -20.3303  -13.1006 C   0  0  0  0  0  0  0  0  0  0  0  0
   25.8853  -20.7116  -11.6950 C   0  0  2  0  0  0  0  0  0  0  0  0
   25.9736  -22.2292  -11.6377 C   0  0  0  0  0  0  0  0  0  0  0  0
   24.9757  -20.1603  -10.6512 C   0  0  2  0  0  0  0  0  0  0  0  0
   25.4939  -20.6190   -9.3579 N   0  0  0  0  0  0  0  0  0  0  0  0
   23.5735  -20.5663  -10.7425 C   0  0  0  0  0  0  0  0  0  0  0  0
   23.1581  -21.6100  -10.1216 O   0  0  0  0  0  0  0  0  0  0  0  0
   22.5719  -19.8864  -11.4872 N   0  0  0  0  0  0  0  0  0  0  0  0
   21.1796  -20.3656  -11.4973 C   0  0  0  0  0  0  0  0  0  0  0  0
   20.8864  -20.9256  -12.8303 C   0  0  0  0  0  0  0  0  0  0  0  0
   21.8057  -21.2630  -13.6190 O   0  0  0  0  0  0  0  0  0  0  0  0
   19.5674  -21.0970  -13.2546 O   0  0  0  0  0  0  0  0  0  0  0  0
  2  1  1  1
  3  2  1  0
  4  2  1  0
  5  7  1  0
  5  4  1  0
  5  6  1  6
  7  8  2  0
 10  9  1  6
 10 11  1  0
 10 12  1  0
 12 14  1  0
 13  7  1  0
 12 13  1  1
 14 15  2  0
 16 14  1  0
 16 17  1  0
 18 17  1  0
 18 20  1  0
 19 18  2  0
M  END
$$$$
