LVG.pdb
     RDKit          3D

 20 19  0  0  1  0  0  0  0  0999 V2000
   28.4718  -11.2986  -16.7556 C   0  0  0  0  0  0  0  0  0  0  0  0
   27.0482  -11.8130  -16.9881 C   0  0  1  0  0  0  0  0  0  0  0  0
   26.6898  -12.6833  -15.8084 C   0  0  0  0  0  0  0  0  0  0  0  0
   26.1629  -10.5866  -17.0607 C   0  0  0  0  0  0  0  0  0  0  0  0
   24.7155  -10.9699  -17.3244 C   0  0  2  0  0  0  0  0  0  0  0  0
   24.5920  -11.8128  -18.4728 N   0  0  0  0  0  0  0  0  0  0  0  0
   23.8941   -9.7546  -17.3938 C   0  0  0  0  0  0  0  0  0  0  0  0
   23.9330   -9.0719  -18.4519 O   0  0  0  0  0  0  0  0  0  0  0  0
   20.2488   -9.2363  -15.2892 C   0  0  0  0  0  0  0  0  0  0  0  0
   20.7955   -8.6219  -16.5270 C   0  0  2  0  0  0  0  0  0  0  0  0
   20.5924   -9.6135  -17.6625 C   0  0  0  0  0  0  0  0  0  0  0  0
   22.1984   -8.1238  -16.4580 C   0  0  2  0  0  0  0  0  0  0  0  0
   23.0581   -9.3058  -16.3346 N   0  0  0  0  0  0  0  0  0  0  0  0
   22.5067   -7.2263  -15.3450 C   0  0  0  0  0  0  0  0  0  0  0  0
   22.6199   -7.6865  -14.1522 O   0  0  0  0  0  0  0  0  0  0  0  0
   22.7049   -5.8234  -15.4563 N   0  0  0  0  0  0  0  0  0  0  0  0
   22.9190   -4.9916  -14.2602 C   0  0  0  0  0  0  0  0  0  0  0  0
   21.6173   -4.4491  -13.8275 C   0  0  0  0  0  0  0  0  0  0  0  0
   20.5491   -4.7521  -14.4175 O   0  0  0  0  0  0  0  0  0  0  0  0
   21.5370   -3.5763  -12.7407 O   0  0  0  0  0  0  0  0  0  0  0  0
  2  1  1  1
  3  2  1  0
  4  2  1  0
  5  7  1  0
  5  4  1  0
  5  6  1  6
  7  8  2  0
 10  9  1  1
 10 11  1  0
 10 12  1  0
 12 14  1  0
 13  7  1  0
 12 13  1  1
 14 15  2  0
 16 14  1  0
 16 17  1  0
 18 17  1  0
 18 20  1  0
 19 18  2  0
M  END
$$$$
