LNM.pdb
     RDKit          3D

 25 24  0  0  1  0  0  0  0  0999 V2000
    8.4635  -13.5773   17.7768 C   0  0  0  0  0  0  0  0  0  0  0  0
    7.6749  -13.7248   19.0621 C   0  0  2  0  0  0  0  0  0  0  0  0
    7.2282  -12.3750   19.5909 C   0  0  0  0  0  0  0  0  0  0  0  0
    8.3263  -14.5700   20.0862 C   0  0  0  0  0  0  0  0  0  0  0  0
    8.7660  -15.9281   19.6820 C   0  0  2  0  0  0  0  0  0  0  0  0
    7.9161  -16.6615   18.8389 N   0  0  0  0  0  0  0  0  0  0  0  0
    9.2055  -16.7849   20.8200 C   0  0  0  0  0  0  0  0  0  0  0  0
    9.3465  -18.0377   20.5609 O   0  0  0  0  0  0  0  0  0  0  0  0
   12.6992  -18.2203   20.2888 N   0  0  0  0  0  0  0  0  0  0  0  0
   12.4095  -17.9633   21.6912 C   0  0  0  0  0  0  0  0  0  0  0  0
   12.7820  -18.8584   22.4590 O   0  0  0  0  0  0  0  0  0  0  0  0
   11.7381  -16.7414   22.0894 C   0  0  0  0  0  0  0  0  0  0  0  0
   10.5119  -16.8620   22.9689 C   0  0  2  0  0  0  0  0  0  0  0  0
    9.4569  -16.2768   22.1033 N   0  0  0  0  0  0  0  0  0  0  0  0
   10.5826  -16.0775   24.2060 C   0  0  0  0  0  0  0  0  0  0  0  0
   11.4499  -16.4633   25.0876 O   0  0  0  0  0  0  0  0  0  0  0  0
    7.6483  -11.5303   27.3485 C   0  0  0  0  0  0  0  0  0  0  0  0
    6.2294  -12.3104   26.5346 S   0  0  0  0  0  0  0  0  0  0  0  0
    6.6493  -14.0577   26.2949 C   0  0  0  0  0  0  0  0  0  0  0  0
    7.7104  -14.2473   25.2668 C   0  0  0  0  0  0  0  0  0  0  0  0
    8.9533  -14.9541   25.7665 C   0  0  2  0  0  0  0  0  0  0  0  0
    9.8560  -14.9526   24.5954 N   0  0  0  0  0  0  0  0  0  0  0  0
    8.6056  -16.3147   26.1693 C   0  0  0  0  0  0  0  0  0  0  0  0
    8.0520  -17.1368   25.3646 O   0  0  0  0  0  0  0  0  0  0  0  0
    8.8508  -16.8061   27.4437 O   0  0  0  0  0  0  0  0  0  0  0  0
  2  1  1  6
  3  2  1  0
  4  2  1  0
  5  4  1  0
  5  6  1  1
  7  8  2  0
  7  5  1  0
 10  9  1  0
 10 12  1  0
 11 10  2  0
 13 12  1  6
 13 14  1  0
 14  7  1  0
 15 16  2  0
 15 13  1  0
 17 18  1  0
 19 20  1  0
 19 18  1  0
 21 22  1  0
 21 20  1  6
 22 15  1  0
 23 21  1  0
 24 23  2  0
 25 23  1  0
M  END
$$$$
