LNM.pdb
     RDKit          3D

 25 24  0  0  1  0  0  0  0  0999 V2000
    9.3346  -13.1241   19.1122 C   0  0  0  0  0  0  0  0  0  0  0  0
    7.8499  -13.4208   19.1688 C   0  0  2  0  0  0  0  0  0  0  0  0
    7.0295  -12.1720   18.9070 C   0  0  0  0  0  0  0  0  0  0  0  0
    7.4198  -14.1638   20.3731 C   0  0  0  0  0  0  0  0  0  0  0  0
    8.2312  -15.3347   20.7877 C   0  0  2  0  0  0  0  0  0  0  0  0
    8.3298  -16.4077   19.8876 N   0  0  0  0  0  0  0  0  0  0  0  0
    7.9000  -15.8489   22.1471 C   0  0  0  0  0  0  0  0  0  0  0  0
    7.5022  -14.9712   23.0004 O   0  0  0  0  0  0  0  0  0  0  0  0
    6.3505  -21.1411   24.6645 N   0  0  0  0  0  0  0  0  0  0  0  0
    7.2718  -20.0212   24.7821 C   0  0  0  0  0  0  0  0  0  0  0  0
    7.7516  -19.8747   25.9124 O   0  0  0  0  0  0  0  0  0  0  0  0
    7.5607  -19.1857   23.6328 C   0  0  0  0  0  0  0  0  0  0  0  0
    7.5960  -17.6863   23.8389 C   0  0  2  0  0  0  0  0  0  0  0  0
    8.0071  -17.2035   22.4963 N   0  0  0  0  0  0  0  0  0  0  0  0
    8.5938  -17.2394   24.8163 C   0  0  0  0  0  0  0  0  0  0  0  0
    9.8195  -17.1708   24.4027 O   0  0  0  0  0  0  0  0  0  0  0  0
    7.1656  -12.6924   28.3058 C   0  0  0  0  0  0  0  0  0  0  0  0
    8.8756  -12.6051   28.8998 S   0  0  0  0  0  0  0  0  0  0  0  0
    9.7073  -14.1185   28.3478 C   0  0  0  0  0  0  0  0  0  0  0  0
    8.8376  -14.9539   27.4735 C   0  0  0  0  0  0  0  0  0  0  0  0
    9.5057  -16.1960   26.9215 C   0  0  2  0  0  0  0  0  0  0  0  0
    8.4342  -16.8604   26.1489 N   0  0  0  0  0  0  0  0  0  0  0  0
    9.9603  -17.0323   28.0298 C   0  0  0  0  0  0  0  0  0  0  0  0
    9.3099  -18.0633   28.4090 O   0  0  0  0  0  0  0  0  0  0  0  0
   11.1215  -16.7682   28.7423 O   0  0  0  0  0  0  0  0  0  0  0  0
  2  1  1  1
  3  2  1  0
  4  2  1  0
  5  4  1  0
  5  6  1  6
  7  8  2  0
  7  5  1  0
 10  9  1  0
 10 12  1  0
 11 10  2  0
 13 12  1  6
 13 14  1  0
 14  7  1  0
 15 16  2  0
 15 13  1  0
 17 18  1  0
 19 20  1  0
 19 18  1  0
 21 22  1  0
 21 20  1  1
 22 15  1  0
 23 21  1  0
 24 23  2  0
 25 23  1  0
M  END
$$$$
