LNM.pdb
     RDKit          3D

 25 24  0  0  1  0  0  0  0  0999 V2000
    9.4549  -13.4782   18.4095 C   0  0  0  0  0  0  0  0  0  0  0  0
    8.0662  -13.3674   19.0052 C   0  0  2  0  0  0  0  0  0  0  0  0
    7.6714  -11.9176   19.2131 C   0  0  0  0  0  0  0  0  0  0  0  0
    7.8425  -14.2133   20.1976 C   0  0  0  0  0  0  0  0  0  0  0  0
    8.1875  -15.6528   20.0968 C   0  0  2  0  0  0  0  0  0  0  0  0
    7.4142  -16.4469   19.2350 N   0  0  0  0  0  0  0  0  0  0  0  0
    8.3295  -16.3342   21.4150 C   0  0  0  0  0  0  0  0  0  0  0  0
    7.2335  -16.7031   21.9800 O   0  0  0  0  0  0  0  0  0  0  0  0
   11.1735  -20.2721   24.4142 N   0  0  0  0  0  0  0  0  0  0  0  0
   11.3662  -18.8319   24.3386 C   0  0  0  0  0  0  0  0  0  0  0  0
   11.9422  -18.3444   25.3183 O   0  0  0  0  0  0  0  0  0  0  0  0
   10.8989  -18.0892   23.1843 C   0  0  0  0  0  0  0  0  0  0  0  0
    9.6688  -17.2227   23.3508 C   0  0  2  0  0  0  0  0  0  0  0  0
    9.5729  -16.5702   22.0205 N   0  0  0  0  0  0  0  0  0  0  0  0
    9.8062  -16.1770   24.3698 C   0  0  0  0  0  0  0  0  0  0  0  0
   10.7598  -15.3181   24.1933 O   0  0  0  0  0  0  0  0  0  0  0  0
    6.1786  -12.2393   27.6305 C   0  0  0  0  0  0  0  0  0  0  0  0
    6.5470  -12.1809   25.8570 S   0  0  0  0  0  0  0  0  0  0  0  0
    7.9897  -13.2431   25.5791 C   0  0  0  0  0  0  0  0  0  0  0  0
    8.3038  -14.0899   26.7637 C   0  0  0  0  0  0  0  0  0  0  0  0
    9.4916  -15.0120   26.5824 C   0  0  2  0  0  0  0  0  0  0  0  0
    9.0557  -15.9461   25.5224 N   0  0  0  0  0  0  0  0  0  0  0  0
    9.7531  -15.7141   27.8367 C   0  0  0  0  0  0  0  0  0  0  0  0
    9.3925  -16.9247   28.0210 O   0  0  0  0  0  0  0  0  0  0  0  0
   10.4070  -15.1203   28.9070 O   0  0  0  0  0  0  0  0  0  0  0  0
  2  1  1  1
  3  2  1  0
  4  2  1  0
  5  4  1  0
  5  6  1  6
  7  8  2  0
  7  5  1  0
 10  9  1  0
 10 12  1  0
 11 10  2  0
 13 12  1  6
 13 14  1  0
 14  7  1  0
 15 16  2  0
 15 13  1  0
 17 18  1  0
 19 20  1  0
 19 18  1  0
 21 22  1  0
 21 20  1  1
 22 15  1  0
 23 21  1  0
 24 23  2  0
 25 23  1  0
M  END
$$$$
