LNM.pdb
     RDKit          3D

 25 24  0  0  1  0  0  0  0  0999 V2000
    9.4744  -12.9533   19.2127 C   0  0  0  0  0  0  0  0  0  0  0  0
    8.0465  -13.2769   19.6027 C   0  0  2  0  0  0  0  0  0  0  0  0
    7.2221  -12.0142   19.7669 C   0  0  0  0  0  0  0  0  0  0  0  0
    7.9201  -14.2125   20.7412 C   0  0  0  0  0  0  0  0  0  0  0  0
    8.6662  -15.4928   20.6680 C   0  0  2  0  0  0  0  0  0  0  0  0
    8.4208  -16.3251   19.5642 N   0  0  0  0  0  0  0  0  0  0  0  0
    8.6142  -16.2954   21.9231 C   0  0  0  0  0  0  0  0  0  0  0  0
    7.4419  -16.6558   22.3137 O   0  0  0  0  0  0  0  0  0  0  0  0
    9.6469  -19.8611   22.3061 N   0  0  0  0  0  0  0  0  0  0  0  0
   10.8524  -19.5187   23.0453 C   0  0  0  0  0  0  0  0  0  0  0  0
   11.7660  -20.3452   22.9380 O   0  0  0  0  0  0  0  0  0  0  0  0
   10.9133  -18.2965   23.8231 C   0  0  0  0  0  0  0  0  0  0  0  0
    9.6650  -17.4436   23.9000 C   0  0  2  0  0  0  0  0  0  0  0  0
    9.7612  -16.6486   22.6496 N   0  0  0  0  0  0  0  0  0  0  0  0
    9.6417  -16.5170   25.0364 C   0  0  0  0  0  0  0  0  0  0  0  0
    8.9416  -16.8789   26.0646 O   0  0  0  0  0  0  0  0  0  0  0  0
    6.7935  -10.7492   25.7550 C   0  0  0  0  0  0  0  0  0  0  0  0
    6.4087  -12.2934   26.6222 S   0  0  0  0  0  0  0  0  0  0  0  0
    7.9886  -13.0330   27.1159 C   0  0  0  0  0  0  0  0  0  0  0  0
    8.5933  -13.8513   26.0280 C   0  0  0  0  0  0  0  0  0  0  0  0
    9.9781  -14.3828   26.3341 C   0  0  2  0  0  0  0  0  0  0  0  0
   10.2708  -15.2828   25.1981 N   0  0  0  0  0  0  0  0  0  0  0  0
    9.9456  -15.1142   27.5985 C   0  0  0  0  0  0  0  0  0  0  0  0
    9.5549  -16.3276   27.6670 O   0  0  0  0  0  0  0  0  0  0  0  0
   10.3343  -14.5471   28.8039 O   0  0  0  0  0  0  0  0  0  0  0  0
  2  1  1  1
  3  2  1  0
  4  2  1  0
  5  4  1  0
  5  6  1  6
  7  8  2  0
  7  5  1  0
 10  9  1  0
 10 12  1  0
 11 10  2  0
 13 12  1  1
 13 14  1  0
 14  7  1  0
 15 16  2  0
 15 13  1  0
 17 18  1  0
 19 20  1  0
 19 18  1  0
 21 22  1  0
 21 20  1  6
 22 15  1  0
 23 21  1  0
 24 23  2  0
 25 23  1  0
M  END
$$$$
