LNM.pdb
     RDKit          3D

 25 24  0  0  1  0  0  0  0  0999 V2000
    6.9709  -12.7821   20.3443 C   0  0  0  0  0  0  0  0  0  0  0  0
    8.2522  -13.3258   19.7456 C   0  0  2  0  0  0  0  0  0  0  0  0
    8.6431  -12.5600   18.4960 C   0  0  0  0  0  0  0  0  0  0  0  0
    8.2680  -14.7935   19.5636 C   0  0  0  0  0  0  0  0  0  0  0  0
    7.9002  -15.6370   20.7275 C   0  0  2  0  0  0  0  0  0  0  0  0
    7.1734  -15.0309   21.7646 N   0  0  0  0  0  0  0  0  0  0  0  0
    9.0400  -16.4096   21.2983 C   0  0  0  0  0  0  0  0  0  0  0  0
    9.6385  -17.2122   20.4893 O   0  0  0  0  0  0  0  0  0  0  0  0
   13.1846  -14.1543   21.6702 N   0  0  0  0  0  0  0  0  0  0  0  0
   12.9297  -15.5244   22.0883 C   0  0  0  0  0  0  0  0  0  0  0  0
   13.8890  -16.0727   22.6437 O   0  0  0  0  0  0  0  0  0  0  0  0
   11.6384  -16.1371   21.8447 C   0  0  0  0  0  0  0  0  0  0  0  0
   10.8424  -16.6103   23.0423 C   0  0  2  0  0  0  0  0  0  0  0  0
    9.4528  -16.2841   22.6333 N   0  0  0  0  0  0  0  0  0  0  0  0
   11.1407  -15.8878   24.2831 C   0  0  0  0  0  0  0  0  0  0  0  0
   12.3599  -15.9581   24.7154 O   0  0  0  0  0  0  0  0  0  0  0  0
    6.1668  -12.9623   26.2110 C   0  0  0  0  0  0  0  0  0  0  0  0
    7.5203  -12.2109   27.1533 S   0  0  0  0  0  0  0  0  0  0  0  0
    9.0310  -13.1189   26.7287 C   0  0  0  0  0  0  0  0  0  0  0  0
    8.8653  -14.5917   26.8787 C   0  0  0  0  0  0  0  0  0  0  0  0
   10.0937  -15.4036   26.5240 C   0  0  2  0  0  0  0  0  0  0  0  0
   10.3080  -15.1130   25.0902 N   0  0  0  0  0  0  0  0  0  0  0  0
    9.8154  -16.8209   26.7444 C   0  0  0  0  0  0  0  0  0  0  0  0
    9.1786  -17.5249   25.8908 O   0  0  0  0  0  0  0  0  0  0  0  0
   10.2205  -17.4965   27.8868 O   0  0  0  0  0  0  0  0  0  0  0  0
  2  1  1  6
  3  2  1  0
  4  2  1  0
  5  4  1  0
  5  6  1  1
  7  8  2  0
  7  5  1  0
 10  9  1  0
 10 12  1  0
 11 10  2  0
 13 12  1  6
 13 14  1  0
 14  7  1  0
 15 16  2  0
 15 13  1  0
 17 18  1  0
 19 20  1  0
 19 18  1  0
 21 22  1  0
 21 20  1  6
 22 15  1  0
 23 21  1  0
 24 23  2  0
 25 23  1  0
M  END
$$$$
