LNM.pdb
     RDKit          3D

 25 24  0  0  1  0  0  0  0  0999 V2000
    9.8993  -13.2294   18.6739 C   0  0  0  0  0  0  0  0  0  0  0  0
    8.3883  -13.2416   18.7846 C   0  0  2  0  0  0  0  0  0  0  0  0
    7.8479  -11.8559   19.0826 C   0  0  0  0  0  0  0  0  0  0  0  0
    7.8487  -14.2872   19.6806 C   0  0  0  0  0  0  0  0  0  0  0  0
    8.3510  -15.6723   19.5055 C   0  0  2  0  0  0  0  0  0  0  0  0
    7.7866  -16.4422   18.4760 N   0  0  0  0  0  0  0  0  0  0  0  0
    8.3843  -16.4671   20.7661 C   0  0  0  0  0  0  0  0  0  0  0  0
    7.2415  -16.8289   21.2349 O   0  0  0  0  0  0  0  0  0  0  0  0
   12.9715  -17.6427   23.7455 N   0  0  0  0  0  0  0  0  0  0  0  0
   12.1002  -17.6400   22.5803 C   0  0  0  0  0  0  0  0  0  0  0  0
   12.5317  -16.9840   21.6249 O   0  0  0  0  0  0  0  0  0  0  0  0
   10.8449  -18.3654   22.6018 C   0  0  0  0  0  0  0  0  0  0  0  0
    9.5651  -17.5627   22.6990 C   0  0  2  0  0  0  0  0  0  0  0  0
    9.5778  -16.8120   21.4180 N   0  0  0  0  0  0  0  0  0  0  0  0
    9.5470  -16.5956   23.8013 C   0  0  0  0  0  0  0  0  0  0  0  0
   10.2285  -15.5075   23.6284 O   0  0  0  0  0  0  0  0  0  0  0  0
    6.6419  -11.3230   26.3814 C   0  0  0  0  0  0  0  0  0  0  0  0
    5.9941  -12.9305   26.9114 S   0  0  0  0  0  0  0  0  0  0  0  0
    7.4226  -14.0048   27.2149 C   0  0  0  0  0  0  0  0  0  0  0  0
    7.6162  -15.0065   26.1296 C   0  0  0  0  0  0  0  0  0  0  0  0
    9.0135  -15.5853   26.0478 C   0  0  2  0  0  0  0  0  0  0  0  0
    8.8949  -16.6538   25.0327 N   0  0  0  0  0  0  0  0  0  0  0  0
    9.3879  -16.1282   27.3515 C   0  0  0  0  0  0  0  0  0  0  0  0
    9.6548  -15.3736   28.3460 O   0  0  0  0  0  0  0  0  0  0  0  0
    9.4784  -17.4906   27.5994 O   0  0  0  0  0  0  0  0  0  0  0  0
  2  1  1  1
  3  2  1  0
  4  2  1  0
  5  4  1  0
  5  6  1  6
  7  8  2  0
  7  5  1  0
 10  9  1  0
 10 12  1  0
 11 10  2  0
 13 12  1  1
 13 14  1  0
 14  7  1  0
 15 16  2  0
 15 13  1  0
 17 18  1  0
 19 20  1  0
 19 18  1  0
 21 22  1  0
 21 20  1  1
 22 15  1  0
 23 21  1  0
 24 23  2  0
 25 23  1  0
M  END
$$$$
