LNM.pdb
     RDKit          3D

 25 24  0  0  1  0  0  0  0  0999 V2000
    7.6922  -12.1105   19.6212 C   0  0  0  0  0  0  0  0  0  0  0  0
    7.6958  -13.3126   20.5434 C   0  0  2  0  0  0  0  0  0  0  0  0
    8.8215  -13.2249   21.5564 C   0  0  0  0  0  0  0  0  0  0  0  0
    7.6315  -14.6168   19.8490 C   0  0  0  0  0  0  0  0  0  0  0  0
    7.4783  -15.8351   20.6818 C   0  0  2  0  0  0  0  0  0  0  0  0
    6.9932  -15.6710   21.9891 N   0  0  0  0  0  0  0  0  0  0  0  0
    8.6848  -16.7104   20.7004 C   0  0  0  0  0  0  0  0  0  0  0  0
    9.2781  -16.8767   19.5703 O   0  0  0  0  0  0  0  0  0  0  0  0
   12.9023  -18.1048   20.4799 N   0  0  0  0  0  0  0  0  0  0  0  0
   12.5251  -16.7241   20.7413 C   0  0  0  0  0  0  0  0  0  0  0  0
   13.4440  -15.9098   20.5933 O   0  0  0  0  0  0  0  0  0  0  0  0
   11.1695  -16.3969   21.1385 C   0  0  0  0  0  0  0  0  0  0  0  0
   10.5714  -17.1543   22.3048 C   0  0  2  0  0  0  0  0  0  0  0  0
    9.1626  -17.3245   21.8678 N   0  0  0  0  0  0  0  0  0  0  0  0
   10.5768  -16.4099   23.5683 C   0  0  0  0  0  0  0  0  0  0  0  0
   11.7232  -15.9609   23.9711 O   0  0  0  0  0  0  0  0  0  0  0  0
    5.6045  -13.1314   26.5104 C   0  0  0  0  0  0  0  0  0  0  0  0
    7.1656  -12.2504   26.7777 S   0  0  0  0  0  0  0  0  0  0  0  0
    8.4688  -13.5047   26.9014 C   0  0  0  0  0  0  0  0  0  0  0  0
    8.6082  -14.2993   25.6492 C   0  0  0  0  0  0  0  0  0  0  0  0
    9.7165  -15.3312   25.6774 C   0  0  2  0  0  0  0  0  0  0  0  0
    9.5229  -16.0927   24.4249 N   0  0  0  0  0  0  0  0  0  0  0  0
    9.5507  -16.1853   26.8511 C   0  0  0  0  0  0  0  0  0  0  0  0
    9.8391  -15.7806   28.0271 O   0  0  0  0  0  0  0  0  0  0  0  0
    9.0716  -17.4852   26.7719 O   0  0  0  0  0  0  0  0  0  0  0  0
  2  1  1  6
  3  2  1  0
  4  2  1  0
  5  4  1  0
  5  6  1  1
  7  8  2  0
  7  5  1  0
 10  9  1  0
 10 12  1  0
 11 10  2  0
 13 12  1  6
 13 14  1  0
 14  7  1  0
 15 16  2  0
 15 13  1  0
 17 18  1  0
 19 20  1  0
 19 18  1  0
 21 22  1  0
 21 20  1  1
 22 15  1  0
 23 21  1  0
 24 23  2  0
 25 23  1  0
M  END
$$$$
