LNM.pdb
     RDKit          3D

 25 24  0  0  1  0  0  0  0  0999 V2000
    9.2200  -13.4665   18.2003 C   0  0  0  0  0  0  0  0  0  0  0  0
    7.9037  -13.4081   18.9485 C   0  0  2  0  0  0  0  0  0  0  0  0
    7.5224  -11.9775   19.2789 C   0  0  0  0  0  0  0  0  0  0  0  0
    7.8182  -14.3212   20.1088 C   0  0  0  0  0  0  0  0  0  0  0  0
    8.1500  -15.7503   19.8879 C   0  0  2  0  0  0  0  0  0  0  0  0
    7.2619  -16.5102   19.1099 N   0  0  0  0  0  0  0  0  0  0  0  0
    8.4854  -16.4930   21.1361 C   0  0  0  0  0  0  0  0  0  0  0  0
    7.4909  -17.0090   21.7697 O   0  0  0  0  0  0  0  0  0  0  0  0
   13.3058  -16.3986   23.8444 N   0  0  0  0  0  0  0  0  0  0  0  0
   12.5440  -16.7395   22.6526 C   0  0  0  0  0  0  0  0  0  0  0  0
   12.8593  -16.0936   21.6462 O   0  0  0  0  0  0  0  0  0  0  0  0
   11.5154  -17.7600   22.7068 C   0  0  0  0  0  0  0  0  0  0  0  0
   10.0826  -17.3112   22.8996 C   0  0  2  0  0  0  0  0  0  0  0  0
    9.7987  -16.6341   21.6090 N   0  0  0  0  0  0  0  0  0  0  0  0
    9.9002  -16.3384   23.9819 C   0  0  0  0  0  0  0  0  0  0  0  0
   10.2630  -15.1200   23.7327 O   0  0  0  0  0  0  0  0  0  0  0  0
    6.9902  -11.1985   25.5499 C   0  0  0  0  0  0  0  0  0  0  0  0
    6.4569  -12.5730   26.6038 S   0  0  0  0  0  0  0  0  0  0  0  0
    7.9375  -13.5383   27.0072 C   0  0  0  0  0  0  0  0  0  0  0  0
    8.1701  -14.6463   26.0391 C   0  0  0  0  0  0  0  0  0  0  0  0
    9.4270  -15.4522   26.2933 C   0  0  2  0  0  0  0  0  0  0  0  0
    9.3811  -16.5132   25.2645 N   0  0  0  0  0  0  0  0  0  0  0  0
    9.3756  -16.0143   27.6409 C   0  0  0  0  0  0  0  0  0  0  0  0
    9.1307  -17.2499   27.8484 O   0  0  0  0  0  0  0  0  0  0  0  0
    9.5880  -15.2520   28.7807 O   0  0  0  0  0  0  0  0  0  0  0  0
  2  1  1  1
  3  2  1  0
  4  2  1  0
  5  4  1  0
  5  6  1  1
  7  8  2  0
  7  5  1  0
 10  9  1  0
 10 12  1  0
 11 10  2  0
 13 12  1  6
 13 14  1  0
 14  7  1  0
 15 16  2  0
 15 13  1  0
 17 18  1  0
 19 20  1  0
 19 18  1  0
 21 22  1  0
 21 20  1  6
 22 15  1  0
 23 21  1  0
 24 23  2  0
 25 23  1  0
M  END
$$$$
