LNM.pdb
     RDKit          3D

 25 24  0  0  1  0  0  0  0  0999 V2000
    8.6451  -12.3657   18.5539 C   0  0  0  0  0  0  0  0  0  0  0  0
    7.6449  -13.4507   18.8978 C   0  0  2  0  0  0  0  0  0  0  0  0
    6.2455  -13.0687   18.4542 C   0  0  0  0  0  0  0  0  0  0  0  0
    7.7088  -13.9202   20.2988 C   0  0  0  0  0  0  0  0  0  0  0  0
    9.0486  -14.1956   20.8736 C   0  0  2  0  0  0  0  0  0  0  0  0
   10.0495  -14.6488   19.9994 N   0  0  0  0  0  0  0  0  0  0  0  0
    9.0190  -15.0550   22.0912 C   0  0  0  0  0  0  0  0  0  0  0  0
    8.0236  -14.8721   22.8864 O   0  0  0  0  0  0  0  0  0  0  0  0
   11.4665  -20.4132   23.6713 N   0  0  0  0  0  0  0  0  0  0  0  0
   11.0709  -19.0911   24.1321 C   0  0  0  0  0  0  0  0  0  0  0  0
   10.9230  -19.0032   25.3568 O   0  0  0  0  0  0  0  0  0  0  0  0
   10.8826  -18.0101   23.1842 C   0  0  0  0  0  0  0  0  0  0  0  0
    9.8749  -16.9342   23.5288 C   0  0  2  0  0  0  0  0  0  0  0  0
   10.0054  -16.0123   22.3722 N   0  0  0  0  0  0  0  0  0  0  0  0
   10.1894  -16.1887   24.7519 C   0  0  0  0  0  0  0  0  0  0  0  0
   11.3057  -15.5314   24.7587 O   0  0  0  0  0  0  0  0  0  0  0  0
    6.5755  -11.1868   26.3403 C   0  0  0  0  0  0  0  0  0  0  0  0
    6.9187  -12.5812   27.4459 S   0  0  0  0  0  0  0  0  0  0  0  0
    8.3668  -13.4440   26.7785 C   0  0  0  0  0  0  0  0  0  0  0  0
    8.7934  -14.5811   27.6409 C   0  0  0  0  0  0  0  0  0  0  0  0
    9.9884  -15.3530   27.1211 C   0  0  2  0  0  0  0  0  0  0  0  0
    9.4626  -16.0629   25.9355 N   0  0  0  0  0  0  0  0  0  0  0  0
   10.4403  -16.2906   28.1465 C   0  0  0  0  0  0  0  0  0  0  0  0
   10.1585  -17.5347   28.0954 O   0  0  0  0  0  0  0  0  0  0  0  0
   11.2018  -15.8991   29.2385 O   0  0  0  0  0  0  0  0  0  0  0  0
  2  1  1  1
  3  2  1  0
  4  2  1  0
  5  4  1  0
  5  6  1  6
  7  8  2  0
  7  5  1  0
 10  9  1  0
 10 12  1  0
 11 10  2  0
 13 12  1  6
 13 14  1  0
 14  7  1  0
 15 16  2  0
 15 13  1  0
 17 18  1  0
 19 20  1  0
 19 18  1  0
 21 22  1  0
 21 20  1  1
 22 15  1  0
 23 21  1  0
 24 23  2  0
 25 23  1  0
M  END
$$$$
