LNM.pdb
     RDKit          3D

 25 24  0  0  1  0  0  0  0  0999 V2000
    8.9416  -12.2805   18.5951 C   0  0  0  0  0  0  0  0  0  0  0  0
    7.8094  -13.2680   18.7916 C   0  0  2  0  0  0  0  0  0  0  0  0
    6.4631  -12.6198   18.5301 C   0  0  0  0  0  0  0  0  0  0  0  0
    7.8632  -14.0149   20.0670 C   0  0  0  0  0  0  0  0  0  0  0  0
    9.1746  -14.5659   20.4890 C   0  0  2  0  0  0  0  0  0  0  0  0
    9.9438  -15.2269   19.5180 N   0  0  0  0  0  0  0  0  0  0  0  0
    9.1127  -15.3922   21.7281 C   0  0  0  0  0  0  0  0  0  0  0  0
    8.1618  -15.1087   22.5479 O   0  0  0  0  0  0  0  0  0  0  0  0
   10.0681  -19.5638   24.9788 N   0  0  0  0  0  0  0  0  0  0  0  0
   11.1031  -19.3622   23.9762 C   0  0  0  0  0  0  0  0  0  0  0  0
   12.0323  -20.1761   24.0348 O   0  0  0  0  0  0  0  0  0  0  0  0
   10.9945  -18.2798   23.0177 C   0  0  0  0  0  0  0  0  0  0  0  0
    9.8889  -17.2652   23.2180 C   0  0  2  0  0  0  0  0  0  0  0  0
   10.0247  -16.4221   22.0033 N   0  0  0  0  0  0  0  0  0  0  0  0
   10.0667  -16.4104   24.3963 C   0  0  0  0  0  0  0  0  0  0  0  0
   11.2357  -15.8741   24.5516 O   0  0  0  0  0  0  0  0  0  0  0  0
    6.3868  -11.9831   25.5429 C   0  0  0  0  0  0  0  0  0  0  0  0
    6.9205  -12.1209   27.2694 S   0  0  0  0  0  0  0  0  0  0  0  0
    8.4711  -13.0604   27.2725 C   0  0  0  0  0  0  0  0  0  0  0  0
    8.2663  -14.4888   26.9031 C   0  0  0  0  0  0  0  0  0  0  0  0
    9.5367  -15.2410   26.5650 C   0  0  2  0  0  0  0  0  0  0  0  0
    9.1592  -16.0665   25.3979 N   0  0  0  0  0  0  0  0  0  0  0  0
    9.9226  -16.0722   27.7029 C   0  0  0  0  0  0  0  0  0  0  0  0
   10.4979  -15.5831   28.7323 O   0  0  0  0  0  0  0  0  0  0  0  0
    9.6926  -17.4400   27.7456 O   0  0  0  0  0  0  0  0  0  0  0  0
  2  1  1  1
  3  2  1  0
  4  2  1  0
  5  4  1  0
  5  6  1  6
  7  8  2  0
  7  5  1  0
 10  9  1  0
 10 12  1  0
 11 10  2  0
 13 12  1  6
 13 14  1  0
 14  7  1  0
 15 16  2  0
 15 13  1  0
 17 18  1  0
 19 20  1  0
 19 18  1  0
 21 22  1  0
 21 20  1  1
 22 15  1  0
 23 21  1  0
 24 23  2  0
 25 23  1  0
M  END
$$$$
