LNM.pdb
     RDKit          3D

 25 24  0  0  1  0  0  0  0  0999 V2000
    9.6170  -13.7532   19.7542 C   0  0  0  0  0  0  0  0  0  0  0  0
    8.1521  -13.4862   20.0347 C   0  0  2  0  0  0  0  0  0  0  0  0
    7.8394  -12.0039   19.9592 C   0  0  0  0  0  0  0  0  0  0  0  0
    7.6360  -14.1332   21.2604 C   0  0  0  0  0  0  0  0  0  0  0  0
    7.6980  -15.6136   21.3376 C   0  0  2  0  0  0  0  0  0  0  0  0
    7.0743  -16.3437   20.3132 N   0  0  0  0  0  0  0  0  0  0  0  0
    7.2991  -16.1671   22.6629 C   0  0  0  0  0  0  0  0  0  0  0  0
    6.0471  -16.0915   22.9518 O   0  0  0  0  0  0  0  0  0  0  0  0
    6.8389  -19.4560   26.8221 N   0  0  0  0  0  0  0  0  0  0  0  0
    8.1124  -19.4071   26.1204 C   0  0  0  0  0  0  0  0  0  0  0  0
    9.0167  -20.0527   26.6634 O   0  0  0  0  0  0  0  0  0  0  0  0
    8.2443  -18.6473   24.8925 C   0  0  0  0  0  0  0  0  0  0  0  0
    7.7927  -17.2024   24.9023 C   0  0  2  0  0  0  0  0  0  0  0  0
    8.2162  -16.7412   23.5560 N   0  0  0  0  0  0  0  0  0  0  0  0
    8.4638  -16.3720   25.9077 C   0  0  0  0  0  0  0  0  0  0  0  0
    8.0989  -16.5446   27.1387 O   0  0  0  0  0  0  0  0  0  0  0  0
    5.7855  -12.2317   25.6006 C   0  0  0  0  0  0  0  0  0  0  0  0
    7.2740  -11.5255   26.3557 S   0  0  0  0  0  0  0  0  0  0  0  0
    8.6384  -12.6679   26.0090 C   0  0  0  0  0  0  0  0  0  0  0  0
    8.9041  -13.5917   27.1469 C   0  0  0  0  0  0  0  0  0  0  0  0
    9.9867  -14.6183   26.8860 C   0  0  2  0  0  0  0  0  0  0  0  0
    9.4596  -15.4080   25.7526 N   0  0  0  0  0  0  0  0  0  0  0  0
   10.1628  -15.4469   28.0764 C   0  0  0  0  0  0  0  0  0  0  0  0
   10.6517  -14.9788   29.1589 O   0  0  0  0  0  0  0  0  0  0  0  0
    9.8135  -16.7893   28.1150 O   0  0  0  0  0  0  0  0  0  0  0  0
  2  1  1  1
  3  2  1  0
  4  2  1  0
  5  4  1  0
  5  6  1  6
  7  8  2  0
  7  5  1  0
 10  9  1  0
 10 12  1  0
 11 10  2  0
 13 12  1  1
 13 14  1  0
 14  7  1  0
 15 16  2  0
 15 13  1  0
 17 18  1  0
 19 20  1  0
 19 18  1  0
 21 22  1  0
 21 20  1  1
 22 15  1  0
 23 21  1  0
 24 23  2  0
 25 23  1  0
M  END
$$$$
