LNM.pdb
     RDKit          3D

 25 24  0  0  1  0  0  0  0  0999 V2000
    9.8014  -13.1335   18.5309 C   0  0  0  0  0  0  0  0  0  0  0  0
    8.3112  -13.3922   18.6208 C   0  0  2  0  0  0  0  0  0  0  0  0
    7.5465  -12.1111   18.8948 C   0  0  0  0  0  0  0  0  0  0  0  0
    7.9362  -14.5036   19.5216 C   0  0  0  0  0  0  0  0  0  0  0  0
    8.6482  -15.7949   19.3575 C   0  0  2  0  0  0  0  0  0  0  0  0
    8.2191  -16.6465   18.3269 N   0  0  0  0  0  0  0  0  0  0  0  0
    8.7925  -16.5706   20.6222 C   0  0  0  0  0  0  0  0  0  0  0  0
    7.7090  -17.0725   21.1026 O   0  0  0  0  0  0  0  0  0  0  0  0
   12.7282  -20.0701   23.4597 N   0  0  0  0  0  0  0  0  0  0  0  0
   11.9394  -18.8603   23.6357 C   0  0  0  0  0  0  0  0  0  0  0  0
   11.7292  -18.5584   24.8164 O   0  0  0  0  0  0  0  0  0  0  0  0
   11.4696  -18.1171   22.4828 C   0  0  0  0  0  0  0  0  0  0  0  0
   10.1125  -17.4524   22.5743 C   0  0  2  0  0  0  0  0  0  0  0  0
   10.0252  -16.7558   21.2659 N   0  0  0  0  0  0  0  0  0  0  0  0
   10.0071  -16.4501   23.6396 C   0  0  0  0  0  0  0  0  0  0  0  0
   10.8652  -15.4801   23.6092 O   0  0  0  0  0  0  0  0  0  0  0  0
    6.4900  -10.9625   27.4426 C   0  0  0  0  0  0  0  0  0  0  0  0
    6.4181  -12.3464   26.2746 S   0  0  0  0  0  0  0  0  0  0  0  0
    7.8811  -13.3733   26.5774 C   0  0  0  0  0  0  0  0  0  0  0  0
    8.0401  -14.4448   25.5549 C   0  0  0  0  0  0  0  0  0  0  0  0
    9.2338  -15.3514   25.7719 C   0  0  2  0  0  0  0  0  0  0  0  0
    9.1079  -16.3643   24.7022 N   0  0  0  0  0  0  0  0  0  0  0  0
    9.1421  -15.9611   27.0965 C   0  0  0  0  0  0  0  0  0  0  0  0
    8.7571  -17.1673   27.2596 O   0  0  0  0  0  0  0  0  0  0  0  0
    9.4648  -15.2787   28.2609 O   0  0  0  0  0  0  0  0  0  0  0  0
  2  1  1  1
  3  2  1  0
  4  2  1  0
  5  4  1  0
  5  6  1  6
  7  8  2  0
  7  5  1  0
 10  9  1  0
 10 12  1  0
 11 10  2  0
 13 12  1  6
 13 14  1  0
 14  7  1  0
 15 16  2  0
 15 13  1  0
 17 18  1  0
 19 20  1  0
 19 18  1  0
 21 22  1  0
 21 20  1  6
 22 15  1  0
 23 21  1  0
 24 23  2  0
 25 23  1  0
M  END
$$$$
