FFL.pdb
     RDKit          3D

 31 32  0  0  1  0  0  0  0  0999 V2000
   27.8036  -20.4351  -13.7084 N   0  0  0  0  0  0  0  0  0  0  0  0
   27.4776  -19.3982  -12.7256 C   0  0  1  0  0  0  0  0  0  0  0  0
   26.1527  -18.8098  -13.1548 C   0  0  0  0  0  0  0  0  0  0  0  0
   26.3915  -17.9692  -14.3401 C   0  0  0  0  0  0  0  0  0  0  0  0
   25.8283  -18.3176  -15.5416 C   0  0  0  0  0  0  0  0  0  0  0  0
   26.0279  -17.5524  -16.6860 C   0  0  0  0  0  0  0  0  0  0  0  0
   26.8112  -16.4308  -16.5735 C   0  0  0  0  0  0  0  0  0  0  0  0
   27.3862  -16.0582  -15.3885 C   0  0  0  0  0  0  0  0  0  0  0  0
   27.1660  -16.8434  -14.2704 C   0  0  0  0  0  0  0  0  0  0  0  0
   27.3401  -20.0390  -11.3741 C   0  0  0  0  0  0  0  0  0  0  0  0
   26.9433  -21.2251  -11.2345 O   0  0  0  0  0  0  0  0  0  0  0  0
   27.6586  -19.3143  -10.1960 N   0  0  0  0  0  0  0  0  0  0  0  0
   27.5303  -19.8668   -8.8544 C   0  0  1  0  0  0  0  0  0  0  0  0
   28.3235  -19.1019   -7.8579 C   0  0  0  0  0  0  0  0  0  0  0  0
   28.2622  -19.6443   -6.4923 C   0  0  0  0  0  0  0  0  0  0  0  0
   28.8096  -20.8363   -6.0750 C   0  0  0  0  0  0  0  0  0  0  0  0
   28.7162  -21.2865   -4.7628 C   0  0  0  0  0  0  0  0  0  0  0  0
   28.0574  -20.5319   -3.8265 C   0  0  0  0  0  0  0  0  0  0  0  0
   27.4942  -19.3280   -4.2087 C   0  0  0  0  0  0  0  0  0  0  0  0
   27.6023  -18.9067   -5.5156 C   0  0  0  0  0  0  0  0  0  0  0  0
   26.1201  -19.9582   -8.4363 C   0  0  0  0  0  0  0  0  0  0  0  0
   25.3987  -18.9410   -8.5168 O   0  0  0  0  0  0  0  0  0  0  0  0
   22.2635  -20.0189   -9.6662 C   0  0  0  0  0  0  0  0  0  0  0  0
   23.0391  -21.2844   -9.8557 C   0  0  2  0  0  0  0  0  0  0  0  0
   22.2821  -22.2120  -10.8173 C   0  0  0  0  0  0  0  0  0  0  0  0
   23.2809  -21.9674   -8.5483 C   0  0  0  0  0  0  0  0  0  0  0  0
   24.1991  -21.2691   -7.6214 C   0  0  2  0  0  0  0  0  0  0  0  0
   25.5724  -21.2002   -7.9401 N   0  0  0  0  0  0  0  0  0  0  0  0
   24.0584  -21.7666   -6.2066 C   0  0  0  0  0  0  0  0  0  0  0  0
   22.8743  -21.4952   -5.5711 O   0  0  0  0  0  0  0  0  0  0  0  0
   24.9933  -22.4000   -5.6491 O   0  0  0  0  0  0  0  0  0  0  0  0
  2  1  1  6
  2 10  1  0
  3  2  1  0
  3  4  1  0
  4  5  2  0
  5  6  1  0
  7  6  2  0
  8  7  1  0
  9  4  1  0
  9  8  2  0
 10 11  2  0
 12 13  1  0
 12 10  1  0
 13 21  1  0
 13 14  1  1
 15 14  1  0
 16 15  2  0
 17 16  1  0
 18 19  1  0
 18 17  2  0
 19 20  2  0
 20 15  1  0
 21 22  2  0
 21 28  1  0
 24 23  1  1
 24 26  1  0
 25 24  1  0
 27 26  1  6
 27 29  1  0
 28 27  1  0
 29 31  2  0
 29 30  1  0
M  END
$$$$
