FFL.pdb
     RDKit          3D

 31 32  0  0  1  0  0  0  0  0999 V2000
   28.4605  -20.5733  -13.9256 N   0  0  0  0  0  0  0  0  0  0  0  0
   27.9060  -19.5417  -13.0448 C   0  0  1  0  0  0  0  0  0  0  0  0
   26.6396  -19.0527  -13.7106 C   0  0  0  0  0  0  0  0  0  0  0  0
   27.0122  -18.0232  -14.6952 C   0  0  0  0  0  0  0  0  0  0  0  0
   27.2053  -16.7294  -14.2817 C   0  0  0  0  0  0  0  0  0  0  0  0
   27.5579  -15.7258  -15.1781 C   0  0  0  0  0  0  0  0  0  0  0  0
   27.7073  -16.0738  -16.4974 C   0  0  0  0  0  0  0  0  0  0  0  0
   27.5213  -17.3559  -16.9394 C   0  0  0  0  0  0  0  0  0  0  0  0
   27.1710  -18.3288  -16.0195 C   0  0  0  0  0  0  0  0  0  0  0  0
   27.5799  -20.1635  -11.7170 C   0  0  0  0  0  0  0  0  0  0  0  0
   27.1933  -21.3567  -11.6153 O   0  0  0  0  0  0  0  0  0  0  0  0
   27.7002  -19.4118  -10.5191 N   0  0  0  0  0  0  0  0  0  0  0  0
   27.3523  -19.9349   -9.2050 C   0  0  1  0  0  0  0  0  0  0  0  0
   27.9892  -19.1594   -8.1093 C   0  0  0  0  0  0  0  0  0  0  0  0
   27.7087  -19.6762   -6.7614 C   0  0  0  0  0  0  0  0  0  0  0  0
   26.4769  -19.6950   -6.1474 C   0  0  0  0  0  0  0  0  0  0  0  0
   26.2836  -20.2042   -4.8682 C   0  0  0  0  0  0  0  0  0  0  0  0
   27.3463  -20.7144   -4.1677 C   0  0  0  0  0  0  0  0  0  0  0  0
   28.5998  -20.7124   -4.7522 C   0  0  0  0  0  0  0  0  0  0  0  0
   28.7619  -20.2016   -6.0210 C   0  0  0  0  0  0  0  0  0  0  0  0
   25.8924  -20.0003   -9.0145 C   0  0  0  0  0  0  0  0  0  0  0  0
   25.2160  -18.9604   -9.1654 O   0  0  0  0  0  0  0  0  0  0  0  0
   22.4213  -19.9636  -11.0526 C   0  0  0  0  0  0  0  0  0  0  0  0
   23.2121  -21.2339  -11.0577 C   0  0  2  0  0  0  0  0  0  0  0  0
   22.7181  -22.1423  -12.1929 C   0  0  0  0  0  0  0  0  0  0  0  0
   23.1106  -21.9353   -9.7416 C   0  0  0  0  0  0  0  0  0  0  0  0
   23.8357  -21.2991   -8.6195 C   0  0  2  0  0  0  0  0  0  0  0  0
   25.2456  -21.2428   -8.6591 N   0  0  0  0  0  0  0  0  0  0  0  0
   23.4143  -21.8586   -7.2859 C   0  0  0  0  0  0  0  0  0  0  0  0
   22.0769  -21.8060   -6.9887 O   0  0  0  0  0  0  0  0  0  0  0  0
   24.2625  -22.3476   -6.4939 O   0  0  0  0  0  0  0  0  0  0  0  0
  2  1  1  6
  2 10  1  0
  3  2  1  0
  3  4  1  0
  4  5  2  0
  5  6  1  0
  7  6  2  0
  8  7  1  0
  9  4  1  0
  9  8  2  0
 10 11  2  0
 12 13  1  0
 12 10  1  0
 13 21  1  0
 13 14  1  1
 15 14  1  0
 16 15  2  0
 17 16  1  0
 18 19  1  0
 18 17  2  0
 19 20  2  0
 20 15  1  0
 21 22  2  0
 21 28  1  0
 24 23  1  1
 24 26  1  0
 25 24  1  0
 27 26  1  6
 27 29  1  0
 28 27  1  0
 29 31  2  0
 29 30  1  0
M  END
$$$$
