FFL.pdb
     RDKit          3D

 31 32  0  0  1  0  0  0  0  0999 V2000
   25.7783  -17.5160  -18.0026 N   0  0  0  0  0  0  0  0  0  0  0  0
   25.9286  -18.0452  -16.6444 C   0  0  1  0  0  0  0  0  0  0  0  0
   26.6555  -16.9811  -15.8536 C   0  0  0  0  0  0  0  0  0  0  0  0
   28.0555  -16.9534  -16.3091 C   0  0  0  0  0  0  0  0  0  0  0  0
   28.5707  -15.7997  -16.8436 C   0  0  0  0  0  0  0  0  0  0  0  0
   29.8876  -15.7296  -17.2862 C   0  0  0  0  0  0  0  0  0  0  0  0
   30.6595  -16.8586  -17.1701 C   0  0  0  0  0  0  0  0  0  0  0  0
   30.1733  -18.0237  -16.6412 C   0  0  0  0  0  0  0  0  0  0  0  0
   28.8583  -18.0571  -16.2110 C   0  0  0  0  0  0  0  0  0  0  0  0
   24.5637  -18.2747  -16.0610 C   0  0  0  0  0  0  0  0  0  0  0  0
   23.7358  -17.3391  -15.9104 O   0  0  0  0  0  0  0  0  0  0  0  0
   24.1612  -19.5742  -15.6561 N   0  0  0  0  0  0  0  0  0  0  0  0
   22.8384  -19.8759  -15.1261 C   0  0  1  0  0  0  0  0  0  0  0  0
   21.9373  -20.4409  -16.1636 C   0  0  0  0  0  0  0  0  0  0  0  0
   21.5565  -19.4878  -17.2168 C   0  0  0  0  0  0  0  0  0  0  0  0
   20.5505  -18.5524  -17.1296 C   0  0  0  0  0  0  0  0  0  0  0  0
   20.2471  -17.6777  -18.1669 C   0  0  0  0  0  0  0  0  0  0  0  0
   20.9633  -17.7279  -19.3350 C   0  0  0  0  0  0  0  0  0  0  0  0
   21.9819  -18.6551  -19.4596 C   0  0  0  0  0  0  0  0  0  0  0  0
   22.2607  -19.5092  -18.4157 C   0  0  0  0  0  0  0  0  0  0  0  0
   22.9116  -20.7716  -13.9580 C   0  0  0  0  0  0  0  0  0  0  0  0
   23.2162  -21.9707  -14.1341 O   0  0  0  0  0  0  0  0  0  0  0  0
   25.5838  -21.7467  -11.0693 C   0  0  0  0  0  0  0  0  0  0  0  0
   24.8528  -20.5500  -10.5473 C   0  0  2  0  0  0  0  0  0  0  0  0
   25.5076  -20.0770   -9.2413 C   0  0  0  0  0  0  0  0  0  0  0  0
   23.4063  -20.8571  -10.3285 C   0  0  0  0  0  0  0  0  0  0  0  0
   22.6304  -21.1854  -11.5450 C   0  0  2  0  0  0  0  0  0  0  0  0
   22.6373  -20.2792  -12.6273 N   0  0  0  0  0  0  0  0  0  0  0  0
   21.2020  -21.5402  -11.2245 C   0  0  0  0  0  0  0  0  0  0  0  0
   21.0031  -22.6171  -10.3996 O   0  0  0  0  0  0  0  0  0  0  0  0
   20.2480  -20.8695  -11.6997 O   0  0  0  0  0  0  0  0  0  0  0  0
  2  1  1  6
  2 10  1  0
  3  2  1  0
  3  4  1  0
  4  5  2  0
  5  6  1  0
  7  6  2  0
  8  7  1  0
  9  4  1  0
  9  8  2  0
 10 11  2  0
 12 13  1  0
 12 10  1  0
 13 21  1  0
 13 14  1  6
 15 14  1  0
 16 15  2  0
 17 16  1  0
 18 19  1  0
 18 17  2  0
 19 20  2  0
 20 15  1  0
 21 22  2  0
 21 28  1  0
 24 23  1  1
 24 26  1  0
 25 24  1  0
 27 26  1  1
 27 29  1  0
 28 27  1  0
 29 31  2  0
 29 30  1  0
M  END
$$$$
