FFL.pdb
     RDKit          3D

 31 32  0  0  1  0  0  0  0  0999 V2000
   28.8031  -20.8326  -14.2284 N   0  0  0  0  0  0  0  0  0  0  0  0
   27.7245  -19.9921  -13.7014 C   0  0  1  0  0  0  0  0  0  0  0  0
   26.8552  -19.6284  -14.8838 C   0  0  0  0  0  0  0  0  0  0  0  0
   27.2858  -18.3090  -15.3756 C   0  0  0  0  0  0  0  0  0  0  0  0
   26.8211  -17.1732  -14.7622 C   0  0  0  0  0  0  0  0  0  0  0  0
   27.2021  -15.9071  -15.1943 C   0  0  0  0  0  0  0  0  0  0  0  0
   28.0631  -15.8303  -16.2604 C   0  0  0  0  0  0  0  0  0  0  0  0
   28.5433  -16.9456  -16.8924 C   0  0  0  0  0  0  0  0  0  0  0  0
   28.1428  -18.1890  -16.4355 C   0  0  0  0  0  0  0  0  0  0  0  0
   26.9304  -20.7910  -12.7078 C   0  0  0  0  0  0  0  0  0  0  0  0
   26.8645  -22.0466  -12.7604 O   0  0  0  0  0  0  0  0  0  0  0  0
   26.2198  -20.1430  -11.6639 N   0  0  0  0  0  0  0  0  0  0  0  0
   25.3437  -20.8431  -10.7344 C   0  0  1  0  0  0  0  0  0  0  0  0
   25.3710  -20.2372   -9.3781 C   0  0  0  0  0  0  0  0  0  0  0  0
   26.6794  -20.3092   -8.7107 C   0  0  0  0  0  0  0  0  0  0  0  0
   27.6952  -21.1837   -9.0239 C   0  0  0  0  0  0  0  0  0  0  0  0
   28.9118  -21.1930   -8.3510 C   0  0  0  0  0  0  0  0  0  0  0  0
   29.1349  -20.3056   -7.3298 C   0  0  0  0  0  0  0  0  0  0  0  0
   28.1373  -19.4115   -6.9863 C   0  0  0  0  0  0  0  0  0  0  0  0
   26.9418  -19.4247   -7.6702 C   0  0  0  0  0  0  0  0  0  0  0  0
   23.9621  -20.9194  -11.2416 C   0  0  0  0  0  0  0  0  0  0  0  0
   23.0391  -21.1876  -10.4429 O   0  0  0  0  0  0  0  0  0  0  0  0
   21.1625  -18.0525  -13.4005 C   0  0  0  0  0  0  0  0  0  0  0  0
   22.0748  -18.6893  -14.4010 C   0  0  2  0  0  0  0  0  0  0  0  0
   21.7551  -18.1516  -15.8034 C   0  0  0  0  0  0  0  0  0  0  0  0
   21.9520  -20.1787  -14.3688 C   0  0  0  0  0  0  0  0  0  0  0  0
   22.3428  -20.8259  -13.0968 C   0  0  2  0  0  0  0  0  0  0  0  0
   23.6707  -20.6890  -12.6382 N   0  0  0  0  0  0  0  0  0  0  0  0
   21.9732  -22.2860  -13.0699 C   0  0  0  0  0  0  0  0  0  0  0  0
   20.6923  -22.5921  -12.6889 O   0  0  0  0  0  0  0  0  0  0  0  0
   22.8125  -23.1703  -13.3854 O   0  0  0  0  0  0  0  0  0  0  0  0
  2  1  1  6
  2 10  1  0
  3  2  1  0
  3  4  1  0
  4  5  2  0
  5  6  1  0
  7  6  2  0
  8  7  1  0
  9  4  1  0
  9  8  2  0
 10 11  2  0
 12 13  1  0
 12 10  1  0
 13 21  1  0
 13 14  1  1
 15 14  1  0
 16 15  2  0
 17 16  1  0
 18 19  1  0
 18 17  2  0
 19 20  2  0
 20 15  1  0
 21 22  2  0
 21 28  1  0
 24 23  1  1
 24 26  1  0
 25 24  1  0
 27 26  1  6
 27 29  1  0
 28 27  1  0
 29 31  2  0
 29 30  1  0
M  END
$$$$
