FFL.pdb
     RDKit          3D

 31 32  0  0  1  0  0  0  0  0999 V2000
   27.9320  -21.2811  -13.9596 N   0  0  0  0  0  0  0  0  0  0  0  0
   27.6682  -20.1154  -13.1116 C   0  0  1  0  0  0  0  0  0  0  0  0
   26.4713  -19.4155  -13.7145 C   0  0  0  0  0  0  0  0  0  0  0  0
   26.9670  -18.3917  -14.6496 C   0  0  0  0  0  0  0  0  0  0  0  0
   27.2805  -17.1412  -14.1803 C   0  0  0  0  0  0  0  0  0  0  0  0
   27.7518  -16.1446  -15.0286 C   0  0  0  0  0  0  0  0  0  0  0  0
   27.8939  -16.4545  -16.3581 C   0  0  0  0  0  0  0  0  0  0  0  0
   27.5893  -17.6929  -16.8554 C   0  0  0  0  0  0  0  0  0  0  0  0
   27.1229  -18.6601  -15.9822 C   0  0  0  0  0  0  0  0  0  0  0  0
   27.3395  -20.5905  -11.7251 C   0  0  0  0  0  0  0  0  0  0  0  0
   26.6602  -21.6295  -11.5186 O   0  0  0  0  0  0  0  0  0  0  0  0
   27.7926  -19.8702  -10.5891 N   0  0  0  0  0  0  0  0  0  0  0  0
   27.4792  -20.2524   -9.2190 C   0  0  1  0  0  0  0  0  0  0  0  0
   28.3335  -19.5423   -8.2324 C   0  0  0  0  0  0  0  0  0  0  0  0
   28.0435  -19.8777   -6.8302 C   0  0  0  0  0  0  0  0  0  0  0  0
   27.1752  -19.2005   -6.0042 C   0  0  0  0  0  0  0  0  0  0  0  0
   26.9460  -19.5772   -4.6857 C   0  0  0  0  0  0  0  0  0  0  0  0
   27.5983  -20.6635   -4.1618 C   0  0  0  0  0  0  0  0  0  0  0  0
   28.4787  -21.3690   -4.9617 C   0  0  0  0  0  0  0  0  0  0  0  0
   28.6864  -20.9733   -6.2645 C   0  0  0  0  0  0  0  0  0  0  0  0
   26.0522  -20.0507   -8.9107 C   0  0  0  0  0  0  0  0  0  0  0  0
   25.5907  -18.8893   -8.9177 O   0  0  0  0  0  0  0  0  0  0  0  0
   22.7778  -19.6131  -10.9979 C   0  0  0  0  0  0  0  0  0  0  0  0
   23.0783  -21.0686  -10.8240 C   0  0  2  0  0  0  0  0  0  0  0  0
   22.2032  -21.8920  -11.7801 C   0  0  0  0  0  0  0  0  0  0  0  0
   22.8578  -21.4975   -9.4091 C   0  0  0  0  0  0  0  0  0  0  0  0
   23.8119  -20.9515   -8.4185 C   0  0  2  0  0  0  0  0  0  0  0  0
   25.1936  -21.1721   -8.6044 N   0  0  0  0  0  0  0  0  0  0  0  0
   23.4481  -21.3423   -7.0100 C   0  0  0  0  0  0  0  0  0  0  0  0
   24.3321  -22.1529   -6.3458 O   0  0  0  0  0  0  0  0  0  0  0  0
   22.3794  -20.9351   -6.4827 O   0  0  0  0  0  0  0  0  0  0  0  0
  2  1  1  6
  2 10  1  0
  3  2  1  0
  3  4  1  0
  4  5  2  0
  5  6  1  0
  7  6  2  0
  8  7  1  0
  9  4  1  0
  9  8  2  0
 10 11  2  0
 12 13  1  0
 12 10  1  0
 13 21  1  0
 13 14  1  1
 15 14  1  0
 16 15  2  0
 17 16  1  0
 18 19  1  0
 18 17  2  0
 19 20  2  0
 20 15  1  0
 21 22  2  0
 21 28  1  0
 24 23  1  1
 24 26  1  0
 25 24  1  0
 27 26  1  6
 27 29  1  0
 28 27  1  0
 29 31  2  0
 29 30  1  0
M  END
$$$$
