FFL.pdb
     RDKit          3D

 31 32  0  0  1  0  0  0  0  0999 V2000
   25.1748  -21.4073  -14.4030 N   0  0  0  0  0  0  0  0  0  0  0  0
   25.6564  -20.5319  -13.3311 C   0  0  1  0  0  0  0  0  0  0  0  0
   24.4337  -20.1090  -12.5485 C   0  0  0  0  0  0  0  0  0  0  0  0
   23.6206  -19.2367  -13.4124 C   0  0  0  0  0  0  0  0  0  0  0  0
   22.3104  -19.5600  -13.6594 C   0  0  0  0  0  0  0  0  0  0  0  0
   21.5066  -18.7643  -14.4693 C   0  0  0  0  0  0  0  0  0  0  0  0
   22.0701  -17.6387  -15.0166 C   0  0  0  0  0  0  0  0  0  0  0  0
   23.3741  -17.2906  -14.7882 C   0  0  0  0  0  0  0  0  0  0  0  0
   24.1443  -18.1058  -13.9772 C   0  0  0  0  0  0  0  0  0  0  0  0
   26.5849  -21.3150  -12.4475 C   0  0  0  0  0  0  0  0  0  0  0  0
   26.3489  -22.5071  -12.1207 O   0  0  0  0  0  0  0  0  0  0  0  0
   27.7746  -20.7242  -11.9474 N   0  0  0  0  0  0  0  0  0  0  0  0
   28.6730  -21.3933  -11.0163 C   0  0  1  0  0  0  0  0  0  0  0  0
   29.9711  -20.6826  -10.8854 C   0  0  0  0  0  0  0  0  0  0  0  0
   30.9221  -21.3262   -9.9667 C   0  0  0  0  0  0  0  0  0  0  0  0
   31.5671  -22.5225  -10.1849 C   0  0  0  0  0  0  0  0  0  0  0  0
   32.4595  -23.0716   -9.2710 C   0  0  0  0  0  0  0  0  0  0  0  0
   32.7258  -22.4155   -8.0968 C   0  0  0  0  0  0  0  0  0  0  0  0
   32.0964  -21.2106   -7.8424 C   0  0  0  0  0  0  0  0  0  0  0  0
   31.2169  -20.6900   -8.7659 C   0  0  0  0  0  0  0  0  0  0  0  0
   28.0471  -21.5794   -9.6951 C   0  0  0  0  0  0  0  0  0  0  0  0
   28.0514  -22.7176   -9.1792 O   0  0  0  0  0  0  0  0  0  0  0  0
   28.3369  -19.4960   -4.4096 C   0  0  0  0  0  0  0  0  0  0  0  0
   28.1111  -20.4331   -5.5541 C   0  0  2  0  0  0  0  0  0  0  0  0
   29.4635  -20.8626   -6.1412 C   0  0  0  0  0  0  0  0  0  0  0  0
   27.2587  -19.8004   -6.6065 C   0  0  0  0  0  0  0  0  0  0  0  0
   26.8652  -20.6826   -7.7275 C   0  0  2  0  0  0  0  0  0  0  0  0
   27.4363  -20.4690   -9.0005 N   0  0  0  0  0  0  0  0  0  0  0  0
   25.3690  -20.7675   -7.8800 C   0  0  0  0  0  0  0  0  0  0  0  0
   24.6715  -21.3158   -6.8348 O   0  0  0  0  0  0  0  0  0  0  0  0
   24.8018  -20.3502   -8.9241 O   0  0  0  0  0  0  0  0  0  0  0  0
  2  1  1  6
  2 10  1  0
  3  2  1  0
  3  4  1  0
  4  5  2  0
  5  6  1  0
  7  6  2  0
  8  7  1  0
  9  4  1  0
  9  8  2  0
 10 11  2  0
 12 13  1  0
 12 10  1  0
 13 21  1  0
 13 14  1  1
 15 14  1  0
 16 15  2  0
 17 16  1  0
 18 19  1  0
 18 17  2  0
 19 20  2  0
 20 15  1  0
 21 22  2  0
 21 28  1  0
 24 23  1  1
 24 26  1  0
 25 24  1  0
 27 26  1  1
 27 29  1  0
 28 27  1  0
 29 31  2  0
 29 30  1  0
M  END
$$$$
