FFL.pdb
     RDKit          3D

 31 32  0  0  1  0  0  0  0  0999 V2000
   24.1312  -12.2253  -19.2609 N   0  0  0  0  0  0  0  0  0  0  0  0
   23.5493  -10.8968  -19.4705 C   0  0  1  0  0  0  0  0  0  0  0  0
   22.3202  -11.1034  -20.3264 C   0  0  0  0  0  0  0  0  0  0  0  0
   22.7637  -11.3203  -21.7137 C   0  0  0  0  0  0  0  0  0  0  0  0
   22.7564  -12.5889  -22.2361 C   0  0  0  0  0  0  0  0  0  0  0  0
   23.1671  -12.8387  -23.5415 C   0  0  0  0  0  0  0  0  0  0  0  0
   23.5824  -11.7688  -24.2943 C   0  0  0  0  0  0  0  0  0  0  0  0
   23.6007  -10.4922  -23.8004 C   0  0  0  0  0  0  0  0  0  0  0  0
   23.1851  -10.2809  -22.4974 C   0  0  0  0  0  0  0  0  0  0  0  0
   23.1561  -10.3255  -18.1382 C   0  0  0  0  0  0  0  0  0  0  0  0
   22.7460  -11.0508  -17.1952 O   0  0  0  0  0  0  0  0  0  0  0  0
   23.2366   -8.9286  -17.8999 N   0  0  0  0  0  0  0  0  0  0  0  0
   22.8314   -8.3032  -16.6484 C   0  0  1  0  0  0  0  0  0  0  0  0
   23.9815   -7.6961  -15.9300 C   0  0  0  0  0  0  0  0  0  0  0  0
   25.0431   -8.6498  -15.5746 C   0  0  0  0  0  0  0  0  0  0  0  0
   25.0287   -9.5040  -14.4952 C   0  0  0  0  0  0  0  0  0  0  0  0
   26.0689  -10.3848  -14.2212 C   0  0  0  0  0  0  0  0  0  0  0  0
   27.1655  -10.4245  -15.0434 C   0  0  0  0  0  0  0  0  0  0  0  0
   27.2158   -9.5807  -16.1381 C   0  0  0  0  0  0  0  0  0  0  0  0
   26.1707   -8.7183  -16.3854 C   0  0  0  0  0  0  0  0  0  0  0  0
   21.7656   -7.3071  -16.8580 C   0  0  0  0  0  0  0  0  0  0  0  0
   21.8821   -6.4849  -17.7919 O   0  0  0  0  0  0  0  0  0  0  0  0
   17.8763   -7.1246  -18.7630 C   0  0  0  0  0  0  0  0  0  0  0  0
   17.8973   -7.7707  -17.4135 C   0  0  2  0  0  0  0  0  0  0  0  0
   16.5524   -8.4653  -17.1551 C   0  0  0  0  0  0  0  0  0  0  0  0
   18.1854   -6.7686  -16.3424 C   0  0  0  0  0  0  0  0  0  0  0  0
   19.5921   -6.3193  -16.2476 C   0  0  2  0  0  0  0  0  0  0  0  0
   20.6014   -7.2750  -16.0023 N   0  0  0  0  0  0  0  0  0  0  0  0
   19.7572   -5.1844  -15.2710 C   0  0  0  0  0  0  0  0  0  0  0  0
   19.0090   -4.0585  -15.4999 O   0  0  0  0  0  0  0  0  0  0  0  0
   20.5488   -5.2814  -14.2963 O   0  0  0  0  0  0  0  0  0  0  0  0
  2  1  1  1
  2 10  1  0
  3  2  1  0
  3  4  1  0
  4  5  2  0
  5  6  1  0
  7  6  2  0
  8  7  1  0
  9  4  1  0
  9  8  2  0
 10 11  2  0
 12 13  1  0
 12 10  1  0
 13 21  1  0
 13 14  1  6
 15 14  1  0
 16 15  2  0
 17 16  1  0
 18 19  1  0
 18 17  2  0
 19 20  2  0
 20 15  1  0
 21 22  2  0
 21 28  1  0
 24 23  1  6
 24 26  1  0
 25 24  1  0
 27 26  1  1
 27 29  1  0
 28 27  1  0
 29 31  2  0
 29 30  1  0
M  END
$$$$
