FFL.pdb
     RDKit          3D

 31 32  0  0  1  0  0  0  0  0999 V2000
   25.9513  -18.1847  -15.2121 N   0  0  0  0  0  0  0  0  0  0  0  0
   25.2947  -19.1293  -14.3043 C   0  0  1  0  0  0  0  0  0  0  0  0
   25.2348  -20.4497  -15.0384 C   0  0  0  0  0  0  0  0  0  0  0  0
   23.9826  -20.4827  -15.8126 C   0  0  0  0  0  0  0  0  0  0  0  0
   24.0239  -20.3177  -17.1739 C   0  0  0  0  0  0  0  0  0  0  0  0
   22.8654  -20.3419  -17.9436 C   0  0  0  0  0  0  0  0  0  0  0  0
   21.6726  -20.5373  -17.2931 C   0  0  0  0  0  0  0  0  0  0  0  0
   21.6001  -20.7049  -15.9365 C   0  0  0  0  0  0  0  0  0  0  0  0
   22.7731  -20.6751  -15.2025 C   0  0  0  0  0  0  0  0  0  0  0  0
   26.1312  -19.2696  -13.0647 C   0  0  0  0  0  0  0  0  0  0  0  0
   27.3858  -19.1751  -13.0913 O   0  0  0  0  0  0  0  0  0  0  0  0
   25.5216  -19.5168  -11.8070 N   0  0  0  0  0  0  0  0  0  0  0  0
   26.2670  -19.6158  -10.5594 C   0  0  1  0  0  0  0  0  0  0  0  0
   25.3961  -19.4179   -9.3720 C   0  0  0  0  0  0  0  0  0  0  0  0
   26.1054  -19.4823   -8.0854 C   0  0  0  0  0  0  0  0  0  0  0  0
   26.8815  -18.4827   -7.5438 C   0  0  0  0  0  0  0  0  0  0  0  0
   27.5218  -18.6113   -6.3165 C   0  0  0  0  0  0  0  0  0  0  0  0
   27.3917  -19.7705   -5.5957 C   0  0  0  0  0  0  0  0  0  0  0  0
   26.6197  -20.7974   -6.1079 C   0  0  0  0  0  0  0  0  0  0  0  0
   25.9967  -20.6423   -7.3264 C   0  0  0  0  0  0  0  0  0  0  0  0
   26.9966  -20.8925  -10.4615 C   0  0  0  0  0  0  0  0  0  0  0  0
   26.3876  -21.9567  -10.7029 O   0  0  0  0  0  0  0  0  0  0  0  0
   30.4284  -22.1576  -12.7327 C   0  0  0  0  0  0  0  0  0  0  0  0
   30.9788  -21.5111  -11.5005 C   0  0  2  0  0  0  0  0  0  0  0  0
   32.5128  -21.4973  -11.5689 C   0  0  0  0  0  0  0  0  0  0  0  0
   30.5141  -22.2192  -10.2688 C   0  0  0  0  0  0  0  0  0  0  0  0
   29.0583  -22.1646  -10.0098 C   0  0  2  0  0  0  0  0  0  0  0  0
   28.3938  -20.9221  -10.0930 N   0  0  0  0  0  0  0  0  0  0  0  0
   28.6929  -22.8184   -8.7028 C   0  0  0  0  0  0  0  0  0  0  0  0
   29.3442  -23.9841   -8.3918 O   0  0  0  0  0  0  0  0  0  0  0  0
   27.8285  -22.3057   -7.9440 O   0  0  0  0  0  0  0  0  0  0  0  0
  2  1  1  6
  2 10  1  0
  3  2  1  0
  3  4  1  0
  4  5  2  0
  5  6  1  0
  7  6  2  0
  8  7  1  0
  9  4  1  0
  9  8  2  0
 10 11  2  0
 12 13  1  0
 12 10  1  0
 13 21  1  0
 13 14  1  1
 15 14  1  0
 16 15  2  0
 17 16  1  0
 18 19  1  0
 18 17  2  0
 19 20  2  0
 20 15  1  0
 21 22  2  0
 21 28  1  0
 24 23  1  6
 24 26  1  0
 25 24  1  0
 27 26  1  1
 27 29  1  0
 28 27  1  0
 29 31  2  0
 29 30  1  0
M  END
$$$$
