FFL.pdb
     RDKit          3D

 31 32  0  0  1  0  0  0  0  0999 V2000
   19.4670  -13.1624  -18.5127 N   0  0  0  0  0  0  0  0  0  0  0  0
   20.1707  -11.9053  -18.7811 C   0  0  1  0  0  0  0  0  0  0  0  0
   19.5074  -11.3004  -19.9977 C   0  0  0  0  0  0  0  0  0  0  0  0
   19.8185  -12.1542  -21.1564 C   0  0  0  0  0  0  0  0  0  0  0  0
   21.0874  -12.1517  -21.6779 C   0  0  0  0  0  0  0  0  0  0  0  0
   21.4244  -12.9425  -22.7715 C   0  0  0  0  0  0  0  0  0  0  0  0
   20.4405  -13.7301  -23.3152 C   0  0  0  0  0  0  0  0  0  0  0  0
   19.1658  -13.7536  -22.8168 C   0  0  0  0  0  0  0  0  0  0  0  0
   18.8664  -12.9537  -21.7278 C   0  0  0  0  0  0  0  0  0  0  0  0
   20.0015  -10.9943  -17.5989 C   0  0  0  0  0  0  0  0  0  0  0  0
   18.9817  -11.0379  -16.8628 O   0  0  0  0  0  0  0  0  0  0  0  0
   21.0025  -10.0427  -17.2720 N   0  0  0  0  0  0  0  0  0  0  0  0
   20.8472   -9.0419  -16.2251 C   0  0  1  0  0  0  0  0  0  0  0  0
   22.1266   -8.7679  -15.5211 C   0  0  0  0  0  0  0  0  0  0  0  0
   22.0360   -7.7257  -14.4875 C   0  0  0  0  0  0  0  0  0  0  0  0
   22.3008   -6.3873  -14.6693 C   0  0  0  0  0  0  0  0  0  0  0  0
   22.1904   -5.4543  -13.6444 C   0  0  0  0  0  0  0  0  0  0  0  0
   21.8041   -5.8572  -12.3920 C   0  0  0  0  0  0  0  0  0  0  0  0
   21.5295   -7.1946  -12.1710 C   0  0  0  0  0  0  0  0  0  0  0  0
   21.6472   -8.0968  -13.2050 C   0  0  0  0  0  0  0  0  0  0  0  0
   20.2644   -7.7934  -16.7481 C   0  0  0  0  0  0  0  0  0  0  0  0
   20.7224   -7.3090  -17.8052 O   0  0  0  0  0  0  0  0  0  0  0  0
   15.3290   -4.2653  -16.9748 C   0  0  0  0  0  0  0  0  0  0  0  0
   16.7364   -4.5321  -17.4074 C   0  0  2  0  0  0  0  0  0  0  0  0
   16.8206   -4.4854  -18.9400 C   0  0  0  0  0  0  0  0  0  0  0  0
   17.2150   -5.8522  -16.8949 C   0  0  0  0  0  0  0  0  0  0  0  0
   18.6587   -5.9315  -16.5804 C   0  0  2  0  0  0  0  0  0  0  0  0
   19.1806   -7.1337  -16.0562 N   0  0  0  0  0  0  0  0  0  0  0  0
   19.1092   -4.7905  -15.7061 C   0  0  0  0  0  0  0  0  0  0  0  0
   19.1140   -5.0132  -14.3534 O   0  0  0  0  0  0  0  0  0  0  0  0
   19.4612   -3.6913  -16.2099 O   0  0  0  0  0  0  0  0  0  0  0  0
  2  1  1  1
  2 10  1  0
  3  2  1  0
  3  4  1  0
  4  5  2  0
  5  6  1  0
  7  6  2  0
  8  7  1  0
  9  4  1  0
  9  8  2  0
 10 11  2  0
 12 13  1  0
 12 10  1  0
 13 21  1  0
 13 14  1  6
 15 14  1  0
 16 15  2  0
 17 16  1  0
 18 19  1  0
 18 17  2  0
 19 20  2  0
 20 15  1  0
 21 22  2  0
 21 28  1  0
 24 23  1  6
 24 26  1  0
 25 24  1  0
 27 26  1  1
 27 29  1  0
 28 27  1  0
 29 31  2  0
 29 30  1  0
M  END
$$$$
