FFL.pdb
     RDKit          3D

 31 32  0  0  1  0  0  0  0  0999 V2000
   28.6824  -20.5177  -14.3747 N   0  0  0  0  0  0  0  0  0  0  0  0
   27.5955  -19.6852  -13.8521 C   0  0  1  0  0  0  0  0  0  0  0  0
   26.8374  -19.1741  -15.0563 C   0  0  0  0  0  0  0  0  0  0  0  0
   27.5665  -18.0127  -15.5929 C   0  0  0  0  0  0  0  0  0  0  0  0
   27.4137  -16.7848  -15.0005 C   0  0  0  0  0  0  0  0  0  0  0  0
   28.0833  -15.6616  -15.4749 C   0  0  0  0  0  0  0  0  0  0  0  0
   28.9066  -15.8224  -16.5613 C   0  0  0  0  0  0  0  0  0  0  0  0
   29.0789  -17.0347  -17.1731 C   0  0  0  0  0  0  0  0  0  0  0  0
   28.3968  -18.1307  -16.6741 C   0  0  0  0  0  0  0  0  0  0  0  0
   26.6963  -20.5395  -13.0050 C   0  0  0  0  0  0  0  0  0  0  0  0
   26.5804  -21.7784  -13.1933 O   0  0  0  0  0  0  0  0  0  0  0  0
   25.9390  -19.9657  -11.9507 N   0  0  0  0  0  0  0  0  0  0  0  0
   24.9805  -20.7158  -11.1505 C   0  0  1  0  0  0  0  0  0  0  0  0
   24.8786  -20.1903   -9.7645 C   0  0  0  0  0  0  0  0  0  0  0  0
   26.1263  -20.2800   -8.9913 C   0  0  0  0  0  0  0  0  0  0  0  0
   26.5596  -19.3688   -8.0550 C   0  0  0  0  0  0  0  0  0  0  0  0
   27.7523  -19.5199   -7.3567 C   0  0  0  0  0  0  0  0  0  0  0  0
   28.5482  -20.6115   -7.5911 C   0  0  0  0  0  0  0  0  0  0  0  0
   28.1457  -21.5486   -8.5252 C   0  0  0  0  0  0  0  0  0  0  0  0
   26.9591  -21.3734   -9.2022 C   0  0  0  0  0  0  0  0  0  0  0  0
   23.6530  -20.7572  -11.7892 C   0  0  0  0  0  0  0  0  0  0  0  0
   23.1949  -19.7124  -12.2994 O   0  0  0  0  0  0  0  0  0  0  0  0
   19.3420  -24.5671  -14.0758 C   0  0  0  0  0  0  0  0  0  0  0  0
   19.9614  -23.2107  -13.9509 C   0  0  2  0  0  0  0  0  0  0  0  0
   20.1948  -22.6215  -15.3497 C   0  0  0  0  0  0  0  0  0  0  0  0
   21.2445  -23.2741  -13.1868 C   0  0  0  0  0  0  0  0  0  0  0  0
   21.6704  -22.0108  -12.5447 C   0  0  2  0  0  0  0  0  0  0  0  0
   22.8869  -21.9820  -11.8294 N   0  0  0  0  0  0  0  0  0  0  0  0
   20.5878  -21.4269  -11.6753 C   0  0  0  0  0  0  0  0  0  0  0  0
   19.4942  -20.9053  -12.3170 O   0  0  0  0  0  0  0  0  0  0  0  0
   20.6976  -21.4259  -10.4207 O   0  0  0  0  0  0  0  0  0  0  0  0
  2  1  1  6
  2 10  1  0
  3  2  1  0
  3  4  1  0
  4  5  2  0
  5  6  1  0
  7  6  2  0
  8  7  1  0
  9  4  1  0
  9  8  2  0
 10 11  2  0
 12 13  1  0
 12 10  1  0
 13 21  1  0
 13 14  1  1
 15 14  1  0
 16 15  2  0
 17 16  1  0
 18 19  1  0
 18 17  2  0
 19 20  2  0
 20 15  1  0
 21 22  2  0
 21 28  1  0
 24 23  1  6
 24 26  1  0
 25 24  1  0
 27 26  1  1
 27 29  1  0
 28 27  1  0
 29 31  2  0
 29 30  1  0
M  END
$$$$
