FFL.pdb
     RDKit          3D

 31 32  0  0  1  0  0  0  0  0999 V2000
   22.1061  -10.9130  -16.9953 N   0  0  0  0  0  0  0  0  0  0  0  0
   21.6604   -9.9619  -15.9733 C   0  0  1  0  0  0  0  0  0  0  0  0
   22.9144   -9.3940  -15.3481 C   0  0  0  0  0  0  0  0  0  0  0  0
   22.5105   -8.3758  -14.3640 C   0  0  0  0  0  0  0  0  0  0  0  0
   22.2208   -8.7549  -13.0777 C   0  0  0  0  0  0  0  0  0  0  0  0
   21.8354   -7.8261  -12.1166 C   0  0  0  0  0  0  0  0  0  0  0  0
   21.7538   -6.5104  -12.4989 C   0  0  0  0  0  0  0  0  0  0  0  0
   22.0365   -6.1023  -13.7746 C   0  0  0  0  0  0  0  0  0  0  0  0
   22.4168   -7.0539  -14.7047 C   0  0  0  0  0  0  0  0  0  0  0  0
   20.8788   -8.8664  -16.6403 C   0  0  0  0  0  0  0  0  0  0  0  0
   21.2076   -8.3985  -17.7613 O   0  0  0  0  0  0  0  0  0  0  0  0
   19.7281   -8.3180  -16.0160 N   0  0  0  0  0  0  0  0  0  0  0  0
   18.9531   -7.2224  -16.5823 C   0  0  1  0  0  0  0  0  0  0  0  0
   17.5190   -7.5772  -16.7408 C   0  0  0  0  0  0  0  0  0  0  0  0
   17.1933   -8.2166  -18.0244 C   0  0  0  0  0  0  0  0  0  0  0  0
   16.9929   -7.5644  -19.2199 C   0  0  0  0  0  0  0  0  0  0  0  0
   16.6908   -8.2355  -20.3995 C   0  0  0  0  0  0  0  0  0  0  0  0
   16.5820   -9.6023  -20.3997 C   0  0  0  0  0  0  0  0  0  0  0  0
   16.7766  -10.2923  -19.2170 C   0  0  0  0  0  0  0  0  0  0  0  0
   17.0749   -9.6015  -18.0633 C   0  0  0  0  0  0  0  0  0  0  0  0
   19.0983   -5.9874  -15.7913 C   0  0  0  0  0  0  0  0  0  0  0  0
   19.0609   -6.0605  -14.5443 O   0  0  0  0  0  0  0  0  0  0  0  0
   22.3482   -3.0541  -15.4672 C   0  0  0  0  0  0  0  0  0  0  0  0
   21.4840   -2.6334  -16.6141 C   0  0  2  0  0  0  0  0  0  0  0  0
   22.0841   -1.3862  -17.2793 C   0  0  0  0  0  0  0  0  0  0  0  0
   20.0844   -2.3660  -16.1625 C   0  0  0  0  0  0  0  0  0  0  0  0
   19.3415   -3.5391  -15.6512 C   0  0  2  0  0  0  0  0  0  0  0  0
   19.2816   -4.7087  -16.4393 N   0  0  0  0  0  0  0  0  0  0  0  0
   17.9440   -3.1780  -15.2202 C   0  0  0  0  0  0  0  0  0  0  0  0
   17.8262   -2.2240  -14.2426 O   0  0  0  0  0  0  0  0  0  0  0  0
   16.9429   -3.7351  -15.7429 O   0  0  0  0  0  0  0  0  0  0  0  0
  2  1  1  6
  2 10  1  0
  3  2  1  0
  3  4  1  0
  4  5  2  0
  5  6  1  0
  7  6  2  0
  8  7  1  0
  9  4  1  0
  9  8  2  0
 10 11  2  0
 12 13  1  0
 12 10  1  0
 13 21  1  0
 13 14  1  1
 15 14  1  0
 16 15  2  0
 17 16  1  0
 18 19  1  0
 18 17  2  0
 19 20  2  0
 20 15  1  0
 21 22  2  0
 21 28  1  0
 24 23  1  1
 24 26  1  0
 25 24  1  0
 27 26  1  6
 27 29  1  0
 28 27  1  0
 29 31  2  0
 29 30  1  0
M  END
$$$$
