FFL.pdb
     RDKit          3D

 31 32  0  0  1  0  0  0  0  0999 V2000
   27.6734  -22.9724  -15.3550 N   0  0  0  0  0  0  0  0  0  0  0  0
   26.8740  -21.7790  -15.0649 C   0  0  1  0  0  0  0  0  0  0  0  0
   25.7990  -21.7213  -16.1265 C   0  0  0  0  0  0  0  0  0  0  0  0
   26.2767  -20.8459  -17.2099 C   0  0  0  0  0  0  0  0  0  0  0  0
   26.2879  -19.4864  -17.0265 C   0  0  0  0  0  0  0  0  0  0  0  0
   26.7309  -18.6230  -18.0232 C   0  0  0  0  0  0  0  0  0  0  0  0
   27.1590  -19.1786  -19.2030 C   0  0  0  0  0  0  0  0  0  0  0  0
   27.1594  -20.5309  -19.4150 C   0  0  0  0  0  0  0  0  0  0  0  0
   26.7117  -21.3598  -18.4011 C   0  0  0  0  0  0  0  0  0  0  0  0
   26.2474  -21.9345  -13.7087 C   0  0  0  0  0  0  0  0  0  0  0  0
   25.9639  -23.0630  -13.2294 O   0  0  0  0  0  0  0  0  0  0  0  0
   25.9520  -20.7952  -12.9154 N   0  0  0  0  0  0  0  0  0  0  0  0
   25.3144  -20.8711  -11.6080 C   0  0  1  0  0  0  0  0  0  0  0  0
   25.8594  -19.8633  -10.6621 C   0  0  0  0  0  0  0  0  0  0  0  0
   27.0707  -20.2966   -9.9496 C   0  0  0  0  0  0  0  0  0  0  0  0
   28.1839  -20.8641  -10.5270 C   0  0  0  0  0  0  0  0  0  0  0  0
   29.2987  -21.2475   -9.7900 C   0  0  0  0  0  0  0  0  0  0  0  0
   29.3161  -21.0641   -8.4313 C   0  0  0  0  0  0  0  0  0  0  0  0
   28.2153  -20.4968   -7.8155 C   0  0  0  0  0  0  0  0  0  0  0  0
   27.1246  -20.1264   -8.5706 C   0  0  0  0  0  0  0  0  0  0  0  0
   23.8492  -20.7494  -11.7094 C   0  0  0  0  0  0  0  0  0  0  0  0
   23.1718  -20.7109  -10.6599 O   0  0  0  0  0  0  0  0  0  0  0  0
   21.2587  -21.1465  -15.7396 C   0  0  0  0  0  0  0  0  0  0  0  0
   21.6574  -19.7232  -15.5060 C   0  0  2  0  0  0  0  0  0  0  0  0
   23.1375  -19.5377  -15.8705 C   0  0  0  0  0  0  0  0  0  0  0  0
   21.4115  -19.3223  -14.0871 C   0  0  0  0  0  0  0  0  0  0  0  0
   21.8389  -20.3004  -13.0622 C   0  0  2  0  0  0  0  0  0  0  0  0
   23.1983  -20.6750  -12.9976 N   0  0  0  0  0  0  0  0  0  0  0  0
   20.9970  -21.5492  -13.0883 C   0  0  0  0  0  0  0  0  0  0  0  0
   21.6629  -22.7407  -13.2166 O   0  0  0  0  0  0  0  0  0  0  0  0
   19.7428  -21.4842  -12.9954 O   0  0  0  0  0  0  0  0  0  0  0  0
  2  1  1  6
  2 10  1  0
  3  2  1  0
  3  4  1  0
  4  5  2  0
  5  6  1  0
  7  6  2  0
  8  7  1  0
  9  4  1  0
  9  8  2  0
 10 11  2  0
 12 13  1  0
 12 10  1  0
 13 21  1  0
 13 14  1  1
 15 14  1  0
 16 15  2  0
 17 16  1  0
 18 19  1  0
 18 17  2  0
 19 20  2  0
 20 15  1  0
 21 22  2  0
 21 28  1  0
 24 23  1  1
 24 26  1  0
 25 24  1  0
 27 26  1  6
 27 29  1  0
 28 27  1  0
 29 31  2  0
 29 30  1  0
M  END
$$$$
