HET.pdb
     RDKit          3D

 27 27  0  0  1  0  0  0  0  0999 V2000
   10.0052  -14.6141   18.6455 N   0  0  0  0  0  0  0  0  0  0  0  0
    8.7155  -14.9838   19.1626 C   0  0  1  0  0  0  0  0  0  0  0  0
    7.8400  -15.6706   18.1590 C   0  0  0  0  0  0  0  0  0  0  0  0
    7.7497  -14.8237   16.9526 C   0  0  0  0  0  0  0  0  0  0  0  0
    8.5125  -13.6801   16.7137 C   0  0  0  0  0  0  0  0  0  0  0  0
    8.1435  -13.1931   15.5226 N   0  0  0  0  0  0  0  0  0  0  0  0
    7.1910  -13.9833   15.0196 C   0  0  0  0  0  0  0  0  0  0  0  0
    6.9499  -14.9723   15.8837 N   0  0  0  0  0  0  0  0  0  0  0  0
    8.9147  -15.8124   20.3853 C   0  0  0  0  0  0  0  0  0  0  0  0
    7.9426  -16.3211   21.0133 O   0  0  0  0  0  0  0  0  0  0  0  0
   10.2158  -16.0810   20.9202 N   0  0  0  0  0  0  0  0  0  0  0  0
   10.3787  -16.8561   22.1160 C   0  0  1  0  0  0  0  0  0  0  0  0
   11.7143  -17.4980   22.2851 C   0  0  0  0  0  0  0  0  0  0  0  0
   11.9434  -18.3427   23.4733 C   0  0  0  0  0  0  0  0  0  0  0  0
   13.2718  -18.9470   23.6328 C   0  0  0  0  0  0  0  0  0  0  0  0
   13.4800  -19.6899   24.6289 O   0  0  0  0  0  0  0  0  0  0  0  0
   10.0278  -16.0577   23.3361 C   0  0  0  0  0  0  0  0  0  0  0  0
   10.1297  -14.8047   23.3629 O   0  0  0  0  0  0  0  0  0  0  0  0
   14.3183  -18.7512   22.7514 O   0  0  0  0  0  0  0  0  0  0  0  0
    8.2708  -14.1332   24.1685 C   0  0  0  0  0  0  0  0  0  0  0  0
    7.9906  -15.0919   25.2923 C   0  0  1  0  0  0  0  0  0  0  0  0
    6.9399  -15.9185   24.8968 O   0  0  0  0  0  0  0  0  0  0  0  0
    9.2131  -15.9097   25.6660 C   0  0  2  0  0  0  0  0  0  0  0  0
    9.5641  -16.7080   24.5091 N   0  0  0  0  0  0  0  0  0  0  0  0
    8.8391  -16.7462   26.8280 C   0  0  0  0  0  0  0  0  0  0  0  0
    8.6127  -16.1761   28.0693 O   0  0  0  0  0  0  0  0  0  0  0  0
    8.7143  -17.9908   26.7338 O   0  0  0  0  0  0  0  0  0  0  0  0
  2  1  1  6
  2  3  1  0
  4  3  1  0
  4  8  1  0
  5  6  1  0
  5  4  2  0
  6  7  1  0
  7  8  2  0
  9  2  1  0
  9 10  2  0
 11  9  1  0
 12 11  1  0
 12 13  1  1
 14 13  1  0
 15 14  1  0
 16 15  2  0
 17 12  1  0
 17 18  2  0
 19 15  1  0
 21 20  1  6
 21 23  1  0
 22 21  1  0
 23 24  1  6
 23 25  1  0
 24 17  1  0
 25 26  1  0
 27 25  2  0
M  END
$$$$
