HET.pdb
     RDKit          3D

 27 27  0  0  1  0  0  0  0  0999 V2000
    7.2522  -16.7641   19.7164 N   0  0  0  0  0  0  0  0  0  0  0  0
    7.9481  -15.7397   20.4471 C   0  0  1  0  0  0  0  0  0  0  0  0
    7.3918  -14.3651   20.2323 C   0  0  0  0  0  0  0  0  0  0  0  0
    7.6479  -13.9647   18.8341 C   0  0  0  0  0  0  0  0  0  0  0  0
    6.6727  -13.8244   17.8462 C   0  0  0  0  0  0  0  0  0  0  0  0
    7.2930  -13.4512   16.7201 N   0  0  0  0  0  0  0  0  0  0  0  0
    8.6018  -13.3559   16.9702 C   0  0  0  0  0  0  0  0  0  0  0  0
    8.8203  -13.6665   18.2503 N   0  0  0  0  0  0  0  0  0  0  0  0
    7.9633  -16.1137   21.8897 C   0  0  0  0  0  0  0  0  0  0  0  0
    6.9524  -16.6135   22.4611 O   0  0  0  0  0  0  0  0  0  0  0  0
    9.1210  -15.9295   22.7126 N   0  0  0  0  0  0  0  0  0  0  0  0
    9.1130  -16.3075   24.0962 C   0  0  1  0  0  0  0  0  0  0  0  0
   10.1040  -17.3544   24.4789 C   0  0  0  0  0  0  0  0  0  0  0  0
   10.2051  -17.7417   25.8993 C   0  0  0  0  0  0  0  0  0  0  0  0
   11.2273  -18.7302   26.2641 C   0  0  0  0  0  0  0  0  0  0  0  0
   10.9694  -19.9524   26.0992 O   0  0  0  0  0  0  0  0  0  0  0  0
    9.2503  -15.1108   24.9898 C   0  0  0  0  0  0  0  0  0  0  0  0
   10.2664  -14.3708   24.9588 O   0  0  0  0  0  0  0  0  0  0  0  0
   12.4663  -18.4024   26.7817 O   0  0  0  0  0  0  0  0  0  0  0  0
    6.7872  -12.1299   25.6246 C   0  0  0  0  0  0  0  0  0  0  0  0
    7.0737  -12.9196   26.8717 C   0  0  1  0  0  0  0  0  0  0  0  0
    6.0227  -13.8158   27.0608 O   0  0  0  0  0  0  0  0  0  0  0  0
    8.4021  -13.6495   26.7951 C   0  0  2  0  0  0  0  0  0  0  0  0
    8.2191  -14.7791   25.9065 N   0  0  0  0  0  0  0  0  0  0  0  0
    8.7467  -14.0723   28.1707 C   0  0  0  0  0  0  0  0  0  0  0  0
    8.8814  -15.4132   28.4882 O   0  0  0  0  0  0  0  0  0  0  0  0
    8.9282  -13.2405   29.0920 O   0  0  0  0  0  0  0  0  0  0  0  0
  2  1  1  6
  2  3  1  0
  4  3  1  0
  4  8  1  0
  5  6  1  0
  5  4  2  0
  6  7  1  0
  7  8  2  0
  9  2  1  0
  9 10  2  0
 11  9  1  0
 12 11  1  0
 12 13  1  6
 14 13  1  0
 15 14  1  0
 16 15  2  0
 17 12  1  0
 17 18  2  0
 19 15  1  0
 21 20  1  6
 21 23  1  0
 22 21  1  0
 23 24  1  6
 23 25  1  0
 24 17  1  0
 25 26  1  0
 27 25  2  0
M  END
$$$$
