HET.pdb
     RDKit          3D

 27 27  0  0  1  0  0  0  0  0999 V2000
    7.3984  -16.9946   19.3647 N   0  0  0  0  0  0  0  0  0  0  0  0
    8.1118  -15.9305   20.0174 C   0  0  1  0  0  0  0  0  0  0  0  0
    7.5853  -14.5659   19.6920 C   0  0  0  0  0  0  0  0  0  0  0  0
    7.9371  -14.2445   18.2942 C   0  0  0  0  0  0  0  0  0  0  0  0
    8.6429  -15.0818   17.4297 C   0  0  0  0  0  0  0  0  0  0  0  0
    8.7628  -14.4418   16.2600 N   0  0  0  0  0  0  0  0  0  0  0  0
    8.1642  -13.2522   16.3659 C   0  0  0  0  0  0  0  0  0  0  0  0
    7.6628  -13.1294   17.5973 N   0  0  0  0  0  0  0  0  0  0  0  0
    8.1121  -16.1904   21.4850 C   0  0  0  0  0  0  0  0  0  0  0  0
    7.0472  -16.4379   22.1198 O   0  0  0  0  0  0  0  0  0  0  0  0
    9.3155  -16.1752   22.2615 N   0  0  0  0  0  0  0  0  0  0  0  0
    9.2940  -16.4686   23.6653 C   0  0  1  0  0  0  0  0  0  0  0  0
   10.3379  -17.4249   24.1347 C   0  0  0  0  0  0  0  0  0  0  0  0
   10.3680  -17.7870   25.5650 C   0  0  0  0  0  0  0  0  0  0  0  0
   11.4893  -18.6096   26.0354 C   0  0  0  0  0  0  0  0  0  0  0  0
   12.6507  -18.1224   25.9987 O   0  0  0  0  0  0  0  0  0  0  0  0
    9.3321  -15.2140   24.4859 C   0  0  0  0  0  0  0  0  0  0  0  0
   10.2551  -14.3686   24.3659 O   0  0  0  0  0  0  0  0  0  0  0  0
   11.3508  -19.8963   26.5206 O   0  0  0  0  0  0  0  0  0  0  0  0
    6.6058  -12.4912   25.0624 C   0  0  0  0  0  0  0  0  0  0  0  0
    7.0168  -13.1581   26.3458 C   0  0  1  0  0  0  0  0  0  0  0  0
    6.0683  -14.1360   26.6419 O   0  0  0  0  0  0  0  0  0  0  0  0
    8.4074  -13.7597   26.2591 C   0  0  2  0  0  0  0  0  0  0  0  0
    8.3099  -14.9459   25.4331 N   0  0  0  0  0  0  0  0  0  0  0  0
    8.8321  -14.0759   27.6410 C   0  0  0  0  0  0  0  0  0  0  0  0
    9.0913  -15.3814   28.0225 O   0  0  0  0  0  0  0  0  0  0  0  0
    8.9722  -13.1825   28.5103 O   0  0  0  0  0  0  0  0  0  0  0  0
  2  1  1  6
  2  3  1  0
  4  3  1  0
  4  8  1  0
  5  6  1  0
  5  4  2  0
  6  7  1  0
  7  8  2  0
  9  2  1  0
  9 10  2  0
 11  9  1  0
 12 11  1  0
 12 13  1  1
 14 13  1  0
 15 14  1  0
 16 15  2  0
 17 12  1  0
 17 18  2  0
 19 15  1  0
 21 20  1  6
 21 23  1  0
 22 21  1  0
 23 24  1  6
 23 25  1  0
 24 17  1  0
 25 26  1  0
 27 25  2  0
M  END
$$$$
