HET.pdb
     RDKit          3D

 27 27  0  0  1  0  0  0  0  0999 V2000
   10.2010  -16.2448   18.1584 N   0  0  0  0  0  0  0  0  0  0  0  0
    9.6347  -15.5724   19.2962 C   0  0  1  0  0  0  0  0  0  0  0  0
    8.1602  -15.3327   19.1801 C   0  0  0  0  0  0  0  0  0  0  0  0
    7.8991  -14.5899   17.9307 C   0  0  0  0  0  0  0  0  0  0  0  0
    7.9765  -13.2042   17.7877 C   0  0  0  0  0  0  0  0  0  0  0  0
    7.6722  -12.9142   16.5167 N   0  0  0  0  0  0  0  0  0  0  0  0
    7.4119  -14.0558   15.8735 C   0  0  0  0  0  0  0  0  0  0  0  0
    7.5485  -15.0732   16.7274 N   0  0  0  0  0  0  0  0  0  0  0  0
    9.9767  -16.3466   20.5230 C   0  0  0  0  0  0  0  0  0  0  0  0
    9.0953  -16.9483   21.2007 O   0  0  0  0  0  0  0  0  0  0  0  0
   11.3207  -16.4549   21.0059 N   0  0  0  0  0  0  0  0  0  0  0  0
   11.6371  -17.2814   22.1346 C   0  0  1  0  0  0  0  0  0  0  0  0
   13.0510  -17.7503   22.2076 C   0  0  0  0  0  0  0  0  0  0  0  0
   13.4434  -18.6305   23.3252 C   0  0  0  0  0  0  0  0  0  0  0  0
   14.8316  -19.1070   23.3613 C   0  0  0  0  0  0  0  0  0  0  0  0
   15.1395  -20.1180   22.6754 O   0  0  0  0  0  0  0  0  0  0  0  0
   11.2414  -16.6219   23.4222 C   0  0  0  0  0  0  0  0  0  0  0  0
   11.9052  -15.6748   23.9157 O   0  0  0  0  0  0  0  0  0  0  0  0
   15.8316  -18.5112   24.1066 O   0  0  0  0  0  0  0  0  0  0  0  0
    8.0724  -14.9080   24.6020 C   0  0  0  0  0  0  0  0  0  0  0  0
    8.3482  -16.1122   25.4591 C   0  0  1  0  0  0  0  0  0  0  0  0
    7.5438  -17.1551   25.0023 O   0  0  0  0  0  0  0  0  0  0  0  0
    9.8133  -16.5075   25.4375 C   0  0  2  0  0  0  0  0  0  0  0  0
   10.0887  -17.0577   24.1258 N   0  0  0  0  0  0  0  0  0  0  0  0
   10.0115  -17.5043   26.5131 C   0  0  0  0  0  0  0  0  0  0  0  0
    9.8847  -17.1461   27.8446 O   0  0  0  0  0  0  0  0  0  0  0  0
   10.2989  -18.6992   26.2623 O   0  0  0  0  0  0  0  0  0  0  0  0
  2  1  1  6
  2  3  1  0
  4  3  1  0
  4  8  1  0
  5  6  1  0
  5  4  2  0
  6  7  1  0
  7  8  2  0
  9  2  1  0
  9 10  2  0
 11  9  1  0
 12 11  1  0
 12 13  1  1
 14 13  1  0
 15 14  1  0
 16 15  2  0
 17 12  1  0
 17 18  2  0
 19 15  1  0
 21 20  1  6
 21 23  1  0
 22 21  1  0
 23 24  1  6
 23 25  1  0
 24 17  1  0
 25 26  1  0
 27 25  2  0
M  END
$$$$
