HET.pdb
     RDKit          3D

 27 27  0  0  1  0  0  0  0  0999 V2000
    9.7195  -15.3940   19.9910 N   0  0  0  0  0  0  0  0  0  0  0  0
    8.5239  -14.7849   20.5077 C   0  0  1  0  0  0  0  0  0  0  0  0
    7.3132  -15.0213   19.6571 C   0  0  0  0  0  0  0  0  0  0  0  0
    7.5695  -14.4770   18.3084 C   0  0  0  0  0  0  0  0  0  0  0  0
    8.6355  -13.6443   17.9664 C   0  0  0  0  0  0  0  0  0  0  0  0
    8.5249  -13.3662   16.6616 N   0  0  0  0  0  0  0  0  0  0  0  0
    7.4422  -13.9885   16.1871 C   0  0  0  0  0  0  0  0  0  0  0  0
    6.8608  -14.6625   17.1824 N   0  0  0  0  0  0  0  0  0  0  0  0
    8.3196  -15.2542   21.9074 C   0  0  0  0  0  0  0  0  0  0  0  0
    7.2758  -14.9702   22.5617 O   0  0  0  0  0  0  0  0  0  0  0  0
    9.2911  -16.0526   22.5930 N   0  0  0  0  0  0  0  0  0  0  0  0
    9.1276  -16.3901   23.9774 C   0  0  1  0  0  0  0  0  0  0  0  0
   10.0300  -17.4637   24.4848 C   0  0  0  0  0  0  0  0  0  0  0  0
    9.9143  -17.8700   25.8988 C   0  0  0  0  0  0  0  0  0  0  0  0
   10.8577  -18.8787   26.3965 C   0  0  0  0  0  0  0  0  0  0  0  0
   11.5798  -18.5909   27.3880 O   0  0  0  0  0  0  0  0  0  0  0  0
    9.2242  -15.1746   24.8507 C   0  0  0  0  0  0  0  0  0  0  0  0
   10.2686  -14.4766   24.9057 O   0  0  0  0  0  0  0  0  0  0  0  0
   11.0053  -20.1359   25.8415 O   0  0  0  0  0  0  0  0  0  0  0  0
    6.7525  -12.1683   25.1504 C   0  0  0  0  0  0  0  0  0  0  0  0
    6.9505  -12.8631   26.4691 C   0  0  1  0  0  0  0  0  0  0  0  0
    5.8660  -13.7157   26.6699 O   0  0  0  0  0  0  0  0  0  0  0  0
    8.2597  -13.6288   26.5223 C   0  0  2  0  0  0  0  0  0  0  0  0
    8.1204  -14.7760   25.6486 N   0  0  0  0  0  0  0  0  0  0  0  0
    8.4760  -14.0244   27.9318 C   0  0  0  0  0  0  0  0  0  0  0  0
    8.5164  -15.3596   28.2959 O   0  0  0  0  0  0  0  0  0  0  0  0
    8.6294  -13.1740   28.8410 O   0  0  0  0  0  0  0  0  0  0  0  0
  2  1  1  6
  2  3  1  0
  4  3  1  0
  4  8  1  0
  5  6  1  0
  5  4  2  0
  6  7  1  0
  7  8  2  0
  9  2  1  0
  9 10  2  0
 11  9  1  0
 12 11  1  0
 12 13  1  1
 14 13  1  0
 15 14  1  0
 16 15  2  0
 17 12  1  0
 17 18  2  0
 19 15  1  0
 21 20  1  6
 21 23  1  0
 22 21  1  0
 23 24  1  6
 23 25  1  0
 24 17  1  0
 25 26  1  0
 27 25  2  0
M  END
$$$$
