HET.pdb
     RDKit          3D

 27 27  0  0  1  0  0  0  0  0999 V2000
    6.7150  -16.3466   19.9923 N   0  0  0  0  0  0  0  0  0  0  0  0
    7.7004  -15.5046   20.6149 C   0  0  1  0  0  0  0  0  0  0  0  0
    7.5132  -14.0461   20.3266 C   0  0  0  0  0  0  0  0  0  0  0  0
    7.8665  -13.7943   18.9150 C   0  0  0  0  0  0  0  0  0  0  0  0
    6.9906  -13.3168   17.9396 C   0  0  0  0  0  0  0  0  0  0  0  0
    7.6781  -13.2215   16.7948 N   0  0  0  0  0  0  0  0  0  0  0  0
    8.9336  -13.6177   17.0216 C   0  0  0  0  0  0  0  0  0  0  0  0
    9.0512  -13.9655   18.3053 N   0  0  0  0  0  0  0  0  0  0  0  0
    7.7070  -15.7851   22.0786 C   0  0  0  0  0  0  0  0  0  0  0  0
    6.6439  -15.7904   22.7627 O   0  0  0  0  0  0  0  0  0  0  0  0
    8.9149  -16.0646   22.7956 N   0  0  0  0  0  0  0  0  0  0  0  0
    8.8942  -16.3304   24.2049 C   0  0  1  0  0  0  0  0  0  0  0  0
    9.8675  -17.3575   24.6764 C   0  0  0  0  0  0  0  0  0  0  0  0
    9.8587  -17.7322   26.1037 C   0  0  0  0  0  0  0  0  0  0  0  0
   10.8552  -18.7104   26.5567 C   0  0  0  0  0  0  0  0  0  0  0  0
   10.4518  -19.8059   27.0308 O   0  0  0  0  0  0  0  0  0  0  0  0
    9.0446  -15.0682   25.0008 C   0  0  0  0  0  0  0  0  0  0  0  0
   10.0538  -14.3268   24.8874 O   0  0  0  0  0  0  0  0  0  0  0  0
   12.2205  -18.5044   26.4955 O   0  0  0  0  0  0  0  0  0  0  0  0
    6.4110  -12.1610   25.4528 C   0  0  0  0  0  0  0  0  0  0  0  0
    6.8315  -12.7883   26.7530 C   0  0  1  0  0  0  0  0  0  0  0  0
    5.8586  -13.7198   27.1123 O   0  0  0  0  0  0  0  0  0  0  0  0
    8.1986  -13.4405   26.6588 C   0  0  2  0  0  0  0  0  0  0  0  0
    8.0343  -14.6734   25.9158 N   0  0  0  0  0  0  0  0  0  0  0  0
    8.6626  -13.6813   28.0432 C   0  0  0  0  0  0  0  0  0  0  0  0
    8.8846  -14.9682   28.5034 O   0  0  0  0  0  0  0  0  0  0  0  0
    8.8706  -12.7386   28.8441 O   0  0  0  0  0  0  0  0  0  0  0  0
  2  1  1  6
  2  3  1  0
  4  3  1  0
  4  8  1  0
  5  6  1  0
  5  4  2  0
  6  7  1  0
  7  8  2  0
  9  2  1  0
  9 10  2  0
 11  9  1  0
 12 11  1  0
 12 13  1  6
 14 13  1  0
 15 14  1  0
 16 15  2  0
 17 12  1  0
 17 18  2  0
 19 15  1  0
 21 20  1  6
 21 23  1  0
 22 21  1  0
 23 24  1  6
 23 25  1  0
 24 17  1  0
 25 26  1  0
 27 25  2  0
M  END
$$$$
