HET.pdb
     RDKit          3D

 27 27  0  0  1  0  0  0  0  0999 V2000
    9.7119  -15.3509   20.1076 N   0  0  0  0  0  0  0  0  0  0  0  0
    8.4796  -14.7922   20.5944 C   0  0  1  0  0  0  0  0  0  0  0  0
    7.2931  -15.1172   19.7390 C   0  0  0  0  0  0  0  0  0  0  0  0
    7.5160  -14.5594   18.3899 C   0  0  0  0  0  0  0  0  0  0  0  0
    8.6518  -13.8556   17.9883 C   0  0  0  0  0  0  0  0  0  0  0  0
    8.4810  -13.5169   16.7044 N   0  0  0  0  0  0  0  0  0  0  0  0
    7.2948  -13.9794   16.2996 C   0  0  0  0  0  0  0  0  0  0  0  0
    6.7075  -14.6116   17.3186 N   0  0  0  0  0  0  0  0  0  0  0  0
    8.2846  -15.2318   22.0051 C   0  0  0  0  0  0  0  0  0  0  0  0
    7.2651  -14.8980   22.6740 O   0  0  0  0  0  0  0  0  0  0  0  0
    9.2379  -16.0564   22.6852 N   0  0  0  0  0  0  0  0  0  0  0  0
    9.0769  -16.3836   24.0723 C   0  0  1  0  0  0  0  0  0  0  0  0
    9.9269  -17.5046   24.5678 C   0  0  0  0  0  0  0  0  0  0  0  0
    9.8338  -17.8819   25.9914 C   0  0  0  0  0  0  0  0  0  0  0  0
   10.6739  -18.9918   26.4577 C   0  0  0  0  0  0  0  0  0  0  0  0
   10.1118  -20.0464   26.8569 O   0  0  0  0  0  0  0  0  0  0  0  0
    9.2525  -15.1747   24.9424 C   0  0  0  0  0  0  0  0  0  0  0  0
   10.3325  -14.5316   24.9771 O   0  0  0  0  0  0  0  0  0  0  0  0
   12.0553  -18.9533   26.4866 O   0  0  0  0  0  0  0  0  0  0  0  0
    7.0722  -11.9745   25.3312 C   0  0  0  0  0  0  0  0  0  0  0  0
    7.1817  -12.7333   26.6246 C   0  0  1  0  0  0  0  0  0  0  0  0
    6.0218  -13.4920   26.7743 O   0  0  0  0  0  0  0  0  0  0  0  0
    8.4162  -13.6148   26.6691 C   0  0  2  0  0  0  0  0  0  0  0  0
    8.1861  -14.7196   25.7605 N   0  0  0  0  0  0  0  0  0  0  0  0
    8.5777  -14.0681   28.0685 C   0  0  0  0  0  0  0  0  0  0  0  0
    8.8451  -13.1627   29.0812 O   0  0  0  0  0  0  0  0  0  0  0  0
    8.4794  -15.2773   28.3872 O   0  0  0  0  0  0  0  0  0  0  0  0
  2  1  1  6
  2  3  1  0
  4  3  1  0
  4  8  1  0
  5  6  1  0
  5  4  2  0
  6  7  1  0
  7  8  2  0
  9  2  1  0
  9 10  2  0
 11  9  1  0
 12 11  1  0
 12 13  1  1
 14 13  1  0
 15 14  1  0
 16 15  2  0
 17 12  1  0
 17 18  2  0
 19 15  1  0
 21 20  1  6
 21 23  1  0
 22 21  1  0
 23 24  1  6
 23 25  1  0
 24 17  1  0
 25 26  1  0
 27 25  2  0
M  END
$$$$
