HET.pdb
     RDKit          3D

 27 27  0  0  1  0  0  0  0  0999 V2000
    7.9366  -16.8277   19.8002 N   0  0  0  0  0  0  0  0  0  0  0  0
    8.2264  -15.6402   20.5573 C   0  0  1  0  0  0  0  0  0  0  0  0
    7.3891  -14.4600   20.1681 C   0  0  0  0  0  0  0  0  0  0  0  0
    7.7038  -14.0973   18.7716 C   0  0  0  0  0  0  0  0  0  0  0  0
    8.4830  -13.0084   18.3796 C   0  0  0  0  0  0  0  0  0  0  0  0
    8.5368  -13.0142   17.0419 N   0  0  0  0  0  0  0  0  0  0  0  0
    7.8280  -14.0546   16.5950 C   0  0  0  0  0  0  0  0  0  0  0  0
    7.3218  -14.7130   17.6405 N   0  0  0  0  0  0  0  0  0  0  0  0
    8.0967  -15.9592   22.0074 C   0  0  0  0  0  0  0  0  0  0  0  0
    6.9695  -16.0943   22.5636 O   0  0  0  0  0  0  0  0  0  0  0  0
    9.2384  -16.1311   22.8550 N   0  0  0  0  0  0  0  0  0  0  0  0
    9.0863  -16.3930   24.2570 C   0  0  1  0  0  0  0  0  0  0  0  0
   10.0022  -17.4284   24.8171 C   0  0  0  0  0  0  0  0  0  0  0  0
   10.0053  -17.6496   26.2762 C   0  0  0  0  0  0  0  0  0  0  0  0
   10.9854  -18.5985   26.8186 C   0  0  0  0  0  0  0  0  0  0  0  0
   12.1758  -18.2145   26.9698 O   0  0  0  0  0  0  0  0  0  0  0  0
    9.1760  -15.1303   25.0611 C   0  0  0  0  0  0  0  0  0  0  0  0
   10.1857  -14.3823   25.0142 O   0  0  0  0  0  0  0  0  0  0  0  0
   10.6824  -19.8984   27.1774 O   0  0  0  0  0  0  0  0  0  0  0  0
    6.5253  -12.2262   25.4900 C   0  0  0  0  0  0  0  0  0  0  0  0
    6.8908  -12.8859   26.7907 C   0  0  1  0  0  0  0  0  0  0  0  0
    5.8916  -13.8084   27.0975 O   0  0  0  0  0  0  0  0  0  0  0  0
    8.2499  -13.5584   26.7301 C   0  0  2  0  0  0  0  0  0  0  0  0
    8.1053  -14.7424   25.9079 N   0  0  0  0  0  0  0  0  0  0  0  0
    8.6350  -13.8885   28.1203 C   0  0  0  0  0  0  0  0  0  0  0  0
    8.8742  -12.8880   29.0470 O   0  0  0  0  0  0  0  0  0  0  0  0
    8.7580  -15.0751   28.5081 O   0  0  0  0  0  0  0  0  0  0  0  0
  2  1  1  6
  2  3  1  0
  4  3  1  0
  4  8  1  0
  5  6  1  0
  5  4  2  0
  6  7  1  0
  7  8  2  0
  9  2  1  0
  9 10  2  0
 11  9  1  0
 12 11  1  0
 12 13  1  1
 14 13  1  0
 15 14  1  0
 16 15  2  0
 17 12  1  0
 17 18  2  0
 19 15  1  0
 21 20  1  6
 21 23  1  0
 22 21  1  0
 23 24  1  6
 23 25  1  0
 24 17  1  0
 25 26  1  0
 27 25  2  0
M  END
$$$$
