HET.pdb
     RDKit          3D

 27 27  0  0  1  0  0  0  0  0999 V2000
    7.7895  -16.8393   19.2648 N   0  0  0  0  0  0  0  0  0  0  0  0
    8.2452  -15.6693   19.9655 C   0  0  1  0  0  0  0  0  0  0  0  0
    7.5264  -14.4149   19.5717 C   0  0  0  0  0  0  0  0  0  0  0  0
    7.8774  -14.0878   18.1750 C   0  0  0  0  0  0  0  0  0  0  0  0
    8.8317  -14.7566   17.4078 C   0  0  0  0  0  0  0  0  0  0  0  0
    8.8616  -14.1707   16.2044 N   0  0  0  0  0  0  0  0  0  0  0  0
    7.9713  -13.1748   16.1971 C   0  0  0  0  0  0  0  0  0  0  0  0
    7.3731  -13.1217   17.3897 N   0  0  0  0  0  0  0  0  0  0  0  0
    8.1505  -15.9273   21.4304 C   0  0  0  0  0  0  0  0  0  0  0  0
    7.0468  -15.8884   22.0456 O   0  0  0  0  0  0  0  0  0  0  0  0
    9.3012  -16.2336   22.2262 N   0  0  0  0  0  0  0  0  0  0  0  0
    9.1855  -16.4608   23.6377 C   0  0  1  0  0  0  0  0  0  0  0  0
   10.1593  -17.4345   24.2106 C   0  0  0  0  0  0  0  0  0  0  0  0
   10.0588  -17.7687   25.6445 C   0  0  0  0  0  0  0  0  0  0  0  0
   11.0243  -18.7318   26.1881 C   0  0  0  0  0  0  0  0  0  0  0  0
   11.9918  -18.2966   26.8678 O   0  0  0  0  0  0  0  0  0  0  0  0
    9.2279  -15.1720   24.4034 C   0  0  0  0  0  0  0  0  0  0  0  0
   10.0767  -14.2783   24.1546 O   0  0  0  0  0  0  0  0  0  0  0  0
   10.9387  -20.0984   26.0000 O   0  0  0  0  0  0  0  0  0  0  0  0
    6.5502  -12.5788   24.8362 C   0  0  0  0  0  0  0  0  0  0  0  0
    6.9673  -13.0863   26.1887 C   0  0  1  0  0  0  0  0  0  0  0  0
    6.0310  -14.0352   26.5965 O   0  0  0  0  0  0  0  0  0  0  0  0
    8.3657  -13.6758   26.1732 C   0  0  2  0  0  0  0  0  0  0  0  0
    8.2951  -14.9258   25.4441 N   0  0  0  0  0  0  0  0  0  0  0  0
    8.7704  -13.8744   27.5827 C   0  0  0  0  0  0  0  0  0  0  0  0
    8.9478  -12.7932   28.4291 O   0  0  0  0  0  0  0  0  0  0  0  0
    8.9661  -15.0181   28.0593 O   0  0  0  0  0  0  0  0  0  0  0  0
  2  1  1  6
  2  3  1  0
  4  3  1  0
  4  8  1  0
  5  6  1  0
  5  4  2  0
  6  7  1  0
  7  8  2  0
  9  2  1  0
  9 10  2  0
 11  9  1  0
 12 11  1  0
 12 13  1  1
 14 13  1  0
 15 14  1  0
 16 15  2  0
 17 12  1  0
 17 18  2  0
 19 15  1  0
 21 20  1  6
 21 23  1  0
 22 21  1  0
 23 24  1  6
 23 25  1  0
 24 17  1  0
 25 26  1  0
 27 25  2  0
M  END
$$$$
