HET.pdb
     RDKit          3D

 27 27  0  0  1  0  0  0  0  0999 V2000
    9.6439  -15.4278   19.9960 N   0  0  0  0  0  0  0  0  0  0  0  0
    8.6146  -14.6491   20.6297 C   0  0  1  0  0  0  0  0  0  0  0  0
    7.3201  -14.6364   19.8752 C   0  0  0  0  0  0  0  0  0  0  0  0
    7.6052  -14.3624   18.4523 C   0  0  0  0  0  0  0  0  0  0  0  0
    7.9706  -13.1214   17.9298 C   0  0  0  0  0  0  0  0  0  0  0  0
    8.1411  -13.2757   16.6109 N   0  0  0  0  0  0  0  0  0  0  0  0
    7.8978  -14.5519   16.2998 C   0  0  0  0  0  0  0  0  0  0  0  0
    7.5727  -15.2132   17.4133 N   0  0  0  0  0  0  0  0  0  0  0  0
    8.4392  -15.1417   22.0254 C   0  0  0  0  0  0  0  0  0  0  0  0
    7.4465  -14.8061   22.7326 O   0  0  0  0  0  0  0  0  0  0  0  0
    9.3824  -16.0222   22.6471 N   0  0  0  0  0  0  0  0  0  0  0  0
    9.2388  -16.4099   24.0205 C   0  0  1  0  0  0  0  0  0  0  0  0
   10.1256  -17.5229   24.4668 C   0  0  0  0  0  0  0  0  0  0  0  0
   10.0536  -17.9583   25.8751 C   0  0  0  0  0  0  0  0  0  0  0  0
   10.9260  -19.0631   26.2914 C   0  0  0  0  0  0  0  0  0  0  0  0
   11.4078  -19.0446   27.4554 O   0  0  0  0  0  0  0  0  0  0  0  0
    9.3815  -15.2322   24.9380 C   0  0  0  0  0  0  0  0  0  0  0  0
   10.3692  -14.4565   24.8757 O   0  0  0  0  0  0  0  0  0  0  0  0
   11.2555  -20.1325   25.4801 O   0  0  0  0  0  0  0  0  0  0  0  0
    6.9716  -12.3588   25.4852 C   0  0  0  0  0  0  0  0  0  0  0  0
    7.2290  -13.0642   26.7879 C   0  0  1  0  0  0  0  0  0  0  0  0
    6.1646  -13.9338   27.0205 O   0  0  0  0  0  0  0  0  0  0  0  0
    8.5496  -13.8120   26.7833 C   0  0  2  0  0  0  0  0  0  0  0  0
    8.3883  -14.9600   25.9144 N   0  0  0  0  0  0  0  0  0  0  0  0
    8.8318  -14.2062   28.1814 C   0  0  0  0  0  0  0  0  0  0  0  0
    9.0780  -13.2503   29.1524 O   0  0  0  0  0  0  0  0  0  0  0  0
    8.8585  -15.4090   28.5366 O   0  0  0  0  0  0  0  0  0  0  0  0
  2  1  1  6
  2  3  1  0
  4  3  1  0
  4  8  1  0
  5  6  1  0
  5  4  2  0
  6  7  1  0
  7  8  2  0
  9  2  1  0
  9 10  2  0
 11  9  1  0
 12 11  1  0
 12 13  1  1
 14 13  1  0
 15 14  1  0
 16 15  2  0
 17 12  1  0
 17 18  2  0
 19 15  1  0
 21 20  1  6
 21 23  1  0
 22 21  1  0
 23 24  1  6
 23 25  1  0
 24 17  1  0
 25 26  1  0
 27 25  2  0
M  END
$$$$
