HET.pdb
     RDKit          3D

 27 27  0  0  1  0  0  0  0  0999 V2000
    9.7729  -16.0329   17.7235 N   0  0  0  0  0  0  0  0  0  0  0  0
   10.4592  -14.8875   18.2569 C   0  0  1  0  0  0  0  0  0  0  0  0
    9.6912  -14.1706   19.3254 C   0  0  0  0  0  0  0  0  0  0  0  0
    8.4470  -13.6368   18.7357 C   0  0  0  0  0  0  0  0  0  0  0  0
    8.0629  -13.7804   17.4021 C   0  0  0  0  0  0  0  0  0  0  0  0
    6.8837  -13.1638   17.2555 N   0  0  0  0  0  0  0  0  0  0  0  0
    6.5263  -12.6491   18.4353 C   0  0  0  0  0  0  0  0  0  0  0  0
    7.4714  -12.9339   19.3345 N   0  0  0  0  0  0  0  0  0  0  0  0
   11.8033  -15.3200   18.7341 C   0  0  0  0  0  0  0  0  0  0  0  0
   11.9745  -16.4105   19.3503 O   0  0  0  0  0  0  0  0  0  0  0  0
   12.9779  -14.5280   18.5237 N   0  0  0  0  0  0  0  0  0  0  0  0
   14.2507  -14.9403   19.0406 C   0  0  1  0  0  0  0  0  0  0  0  0
   15.4386  -14.3281   18.3784 C   0  0  0  0  0  0  0  0  0  0  0  0
   16.7819  -14.7966   18.7708 C   0  0  0  0  0  0  0  0  0  0  0  0
   17.9368  -14.2011   18.0875 C   0  0  0  0  0  0  0  0  0  0  0  0
   18.2377  -13.0048   18.3441 O   0  0  0  0  0  0  0  0  0  0  0  0
   14.3259  -14.7455   20.5257 C   0  0  0  0  0  0  0  0  0  0  0  0
   14.4744  -13.6079   21.0405 O   0  0  0  0  0  0  0  0  0  0  0  0
   18.7226  -14.8756   17.1721 O   0  0  0  0  0  0  0  0  0  0  0  0
   12.8167  -17.6784   23.0162 C   0  0  0  0  0  0  0  0  0  0  0  0
   12.9894  -16.2364   23.4058 C   0  0  1  0  0  0  0  0  0  0  0  0
   12.9905  -16.1672   24.7981 O   0  0  0  0  0  0  0  0  0  0  0  0
   14.2593  -15.6358   22.8316 C   0  0  2  0  0  0  0  0  0  0  0  0
   14.2290  -15.8588   21.4004 N   0  0  0  0  0  0  0  0  0  0  0  0
   15.3981  -16.3241   23.4791 C   0  0  0  0  0  0  0  0  0  0  0  0
   16.2133  -17.1797   22.7578 O   0  0  0  0  0  0  0  0  0  0  0  0
   15.6656  -16.1601   24.6936 O   0  0  0  0  0  0  0  0  0  0  0  0
  2  1  1  1
  2  3  1  0
  4  3  1  0
  4  8  1  0
  5  6  1  0
  5  4  2  0
  6  7  1  0
  7  8  2  0
  9  2  1  0
  9 10  2  0
 11  9  1  0
 12 11  1  0
 12 13  1  6
 14 13  1  0
 15 14  1  0
 16 15  2  0
 17 12  1  0
 17 18  2  0
 19 15  1  0
 21 20  1  1
 21 23  1  0
 22 21  1  0
 23 24  1  6
 23 25  1  0
 24 17  1  0
 25 26  1  0
 27 25  2  0
M  END
$$$$
