HET.pdb
     RDKit          3D

 27 27  0  0  1  0  0  0  0  0999 V2000
    9.0052  -17.4949   19.7253 N   0  0  0  0  0  0  0  0  0  0  0  0
    9.2298  -16.4971   20.7359 C   0  0  1  0  0  0  0  0  0  0  0  0
    8.0309  -15.6421   21.0132 C   0  0  0  0  0  0  0  0  0  0  0  0
    8.1423  -14.4008   20.2209 C   0  0  0  0  0  0  0  0  0  0  0  0
    9.1539  -14.1216   19.3014 C   0  0  0  0  0  0  0  0  0  0  0  0
    8.9097  -12.9077   18.7924 N   0  0  0  0  0  0  0  0  0  0  0  0
    7.7968  -12.4293   19.3557 C   0  0  0  0  0  0  0  0  0  0  0  0
    7.3292  -13.3316   20.2218 N   0  0  0  0  0  0  0  0  0  0  0  0
    9.7266  -17.1734   21.9676 C   0  0  0  0  0  0  0  0  0  0  0  0
    9.1452  -18.1845   22.4554 O   0  0  0  0  0  0  0  0  0  0  0  0
   10.8892  -16.7193   22.6702 N   0  0  0  0  0  0  0  0  0  0  0  0
   11.3597  -17.4016   23.8408 C   0  0  1  0  0  0  0  0  0  0  0  0
   12.8022  -17.1999   24.1621 C   0  0  0  0  0  0  0  0  0  0  0  0
   13.8114  -17.6796   23.1981 C   0  0  0  0  0  0  0  0  0  0  0  0
   15.2188  -17.3659   23.4736 C   0  0  0  0  0  0  0  0  0  0  0  0
   15.7172  -16.3300   22.9577 O   0  0  0  0  0  0  0  0  0  0  0  0
   10.5118  -17.0832   25.0361 C   0  0  0  0  0  0  0  0  0  0  0  0
    9.8955  -15.9924   25.1428 O   0  0  0  0  0  0  0  0  0  0  0  0
   16.0396  -18.1416   24.2704 O   0  0  0  0  0  0  0  0  0  0  0  0
    7.8836  -16.7150   25.6099 C   0  0  0  0  0  0  0  0  0  0  0  0
    8.1003  -17.7042   26.7214 C   0  0  1  0  0  0  0  0  0  0  0  0
    7.7429  -18.9653   26.2468 O   0  0  0  0  0  0  0  0  0  0  0  0
    9.5331  -17.6988   27.2218 C   0  0  2  0  0  0  0  0  0  0  0  0
   10.3819  -18.0214   26.0929 N   0  0  0  0  0  0  0  0  0  0  0  0
    9.6234  -18.7135   28.2952 C   0  0  0  0  0  0  0  0  0  0  0  0
    9.0221  -18.5017   29.5243 O   0  0  0  0  0  0  0  0  0  0  0  0
   10.2416  -19.7929   28.1342 O   0  0  0  0  0  0  0  0  0  0  0  0
  2  1  1  6
  2  3  1  0
  4  3  1  0
  4  8  1  0
  5  6  1  0
  5  4  2  0
  6  7  1  0
  7  8  2  0
  9  2  1  0
  9 10  2  0
 11  9  1  0
 12 11  1  0
 12 13  1  1
 14 13  1  0
 15 14  1  0
 16 15  2  0
 17 12  1  0
 17 18  2  0
 19 15  1  0
 21 20  1  6
 21 23  1  0
 22 21  1  0
 23 24  1  6
 23 25  1  0
 24 17  1  0
 25 26  1  0
 27 25  2  0
M  END
$$$$
