QPF.pdb
     RDKit          3D

 28 29  0  0  1  0  0  0  0  0999 V2000
   21.9136  -18.9335  -14.3690 N   0  0  0  0  0  0  0  0  0  0  0  0
   21.2960  -19.0569  -15.6601 C   0  0  0  0  0  0  0  0  0  0  0  0
   20.2130  -19.6909  -15.6795 O   0  0  0  0  0  0  0  0  0  0  0  0
   21.9630  -18.4497  -16.8148 C   0  0  0  0  0  0  0  0  0  0  0  0
   23.2095  -17.6954  -16.5052 C   0  0  0  0  0  0  0  0  0  0  0  0
   24.3622  -17.9463  -17.4399 C   0  0  2  0  0  0  0  0  0  0  0  0
   23.8088  -18.2460  -18.7469 N   0  0  0  0  0  0  0  0  0  0  0  0
   25.3321  -18.9343  -16.9662 C   0  0  0  0  0  0  0  0  0  0  0  0
   25.3485  -20.0353  -17.6299 O   0  0  0  0  0  0  0  0  0  0  0  0
   26.2283  -18.8223  -15.8932 N   0  0  0  0  0  0  0  0  0  0  0  0
   26.3418  -17.9039  -14.7861 C   0  0  0  0  0  0  0  0  0  0  0  0
   27.8307  -17.5258  -14.8854 C   0  0  0  0  0  0  0  0  0  0  0  0
   28.4108  -18.9447  -14.9644 C   0  0  0  0  0  0  0  0  0  0  0  0
   27.3576  -19.7465  -15.6857 C   0  0  1  0  0  0  0  0  0  0  0  0
   26.8949  -20.8642  -14.8254 C   0  0  0  0  0  0  0  0  0  0  0  0
   27.6872  -21.7744  -14.4723 O   0  0  0  0  0  0  0  0  0  0  0  0
   25.5544  -20.9478  -14.3738 N   0  0  0  0  0  0  0  0  0  0  0  0
   25.1745  -22.0020  -13.4204 C   0  0  1  0  0  0  0  0  0  0  0  0
   25.5255  -21.5424  -12.0293 C   0  0  0  0  0  0  0  0  0  0  0  0
   24.4388  -20.7821  -11.4006 C   0  0  0  0  0  0  0  0  0  0  0  0
   24.1621  -20.8394  -10.0579 C   0  0  0  0  0  0  0  0  0  0  0  0
   23.1260  -20.1070   -9.4713 C   0  0  0  0  0  0  0  0  0  0  0  0
   22.3683  -19.3049  -10.2929 C   0  0  0  0  0  0  0  0  0  0  0  0
   22.6386  -19.2433  -11.6323 C   0  0  0  0  0  0  0  0  0  0  0  0
   23.6576  -19.9662  -12.1964 C   0  0  0  0  0  0  0  0  0  0  0  0
   23.7490  -22.3330  -13.5876 C   0  0  0  0  0  0  0  0  0  0  0  0
   23.2078  -23.2289  -12.9005 O   0  0  0  0  0  0  0  0  0  0  0  0
   22.9568  -21.6616  -14.5141 O   0  0  0  0  0  0  0  0  0  0  0  0
  2  1  1  0
  2  3  2  0
  4  5  1  0
  4  2  1  0
  5  6  1  0
  6  7  1  6
  8  6  1  0
  8 10  1  0
  9  8  2  0
 10 14  1  0
 10 11  1  0
 12 11  1  0
 13 14  1  0
 13 12  1  0
 14 15  1  1
 16 15  2  0
 17 15  1  0
 18 17  1  0
 18 26  1  0
 19 20  1  0
 18 19  1  1
 20 25  2  0
 21 22  2  0
 21 20  1  0
 22 23  1  0
 23 24  2  0
 25 24  1  0
 26 28  1  0
 27 26  2  0
M  END
$$$$
