QPF.pdb
     RDKit          3D

 28 29  0  0  1  0  0  0  0  0999 V2000
   28.0046  -22.9822  -15.6396 N   0  0  0  0  0  0  0  0  0  0  0  0
   29.0015  -22.2123  -16.3304 C   0  0  0  0  0  0  0  0  0  0  0  0
   29.4830  -22.7529  -17.3556 O   0  0  0  0  0  0  0  0  0  0  0  0
   29.3635  -20.8971  -15.7957 C   0  0  0  0  0  0  0  0  0  0  0  0
   28.6433  -20.4945  -14.5555 C   0  0  0  0  0  0  0  0  0  0  0  0
   27.2619  -19.9355  -14.7665 C   0  0  2  0  0  0  0  0  0  0  0  0
   27.4004  -18.6905  -15.4980 N   0  0  0  0  0  0  0  0  0  0  0  0
   26.4539  -19.8224  -13.5517 C   0  0  0  0  0  0  0  0  0  0  0  0
   26.5159  -18.6789  -12.9672 O   0  0  0  0  0  0  0  0  0  0  0  0
   25.6359  -20.7973  -12.9622 N   0  0  0  0  0  0  0  0  0  0  0  0
   25.3274  -22.1674  -13.2937 C   0  0  0  0  0  0  0  0  0  0  0  0
   23.7901  -22.1356  -13.2197 C   0  0  0  0  0  0  0  0  0  0  0  0
   23.6522  -21.4707  -11.8432 C   0  0  0  0  0  0  0  0  0  0  0  0
   24.8465  -20.5568  -11.7408 C   0  0  1  0  0  0  0  0  0  0  0  0
   25.6738  -20.9345  -10.5676 C   0  0  0  0  0  0  0  0  0  0  0  0
   26.3808  -21.9740  -10.5872 O   0  0  0  0  0  0  0  0  0  0  0  0
   25.6977  -20.1454   -9.3909 N   0  0  0  0  0  0  0  0  0  0  0  0
   26.5016  -20.5842   -8.2394 C   0  0  1  0  0  0  0  0  0  0  0  0
   27.5038  -19.5076   -7.9135 C   0  0  0  0  0  0  0  0  0  0  0  0
   28.1625  -19.7295   -6.6209 C   0  0  0  0  0  0  0  0  0  0  0  0
   29.1805  -20.6322   -6.4427 C   0  0  0  0  0  0  0  0  0  0  0  0
   29.8019  -20.8312   -5.2065 C   0  0  0  0  0  0  0  0  0  0  0  0
   29.3577  -20.0811   -4.1422 C   0  0  0  0  0  0  0  0  0  0  0  0
   28.3432  -19.1797   -4.3128 C   0  0  0  0  0  0  0  0  0  0  0  0
   27.7414  -18.9931   -5.5302 C   0  0  0  0  0  0  0  0  0  0  0  0
   25.6140  -20.9209   -7.1132 C   0  0  0  0  0  0  0  0  0  0  0  0
   26.0032  -21.6610   -6.1814 O   0  0  0  0  0  0  0  0  0  0  0  0
   24.3142  -20.4279   -7.0472 O   0  0  0  0  0  0  0  0  0  0  0  0
  2  1  1  0
  2  3  2  0
  4  5  1  0
  4  2  1  0
  5  6  1  0
  6  7  1  1
  8  6  1  0
  8 10  1  0
  9  8  2  0
 10 14  1  0
 10 11  1  0
 12 11  1  0
 13 14  1  0
 13 12  1  0
 14 15  1  1
 16 15  2  0
 17 15  1  0
 18 17  1  0
 18 26  1  0
 19 20  1  0
 18 19  1  1
 20 25  2  0
 21 22  2  0
 21 20  1  0
 22 23  1  0
 23 24  2  0
 25 24  1  0
 26 28  1  0
 27 26  2  0
M  END
$$$$
