QPF.pdb
     RDKit          3D

 28 29  0  0  1  0  0  0  0  0999 V2000
   28.5282  -30.8210  -15.5834 N   0  0  0  0  0  0  0  0  0  0  0  0
   28.8223  -31.8469  -16.5451 C   0  0  0  0  0  0  0  0  0  0  0  0
   29.4321  -31.4619  -17.5722 O   0  0  0  0  0  0  0  0  0  0  0  0
   28.3976  -33.2189  -16.2553 C   0  0  0  0  0  0  0  0  0  0  0  0
   27.7995  -33.4283  -14.9073 C   0  0  0  0  0  0  0  0  0  0  0  0
   26.4258  -34.0433  -14.9015 C   0  0  2  0  0  0  0  0  0  0  0  0
   25.5399  -33.1429  -15.6149 N   0  0  0  0  0  0  0  0  0  0  0  0
   25.9344  -34.4344  -13.5798 C   0  0  0  0  0  0  0  0  0  0  0  0
   24.9134  -33.7716  -13.1661 O   0  0  0  0  0  0  0  0  0  0  0  0
   26.4380  -35.4286  -12.7283 N   0  0  0  0  0  0  0  0  0  0  0  0
   27.5726  -36.3172  -12.8013 C   0  0  0  0  0  0  0  0  0  0  0  0
   26.8971  -37.6630  -12.4815 C   0  0  0  0  0  0  0  0  0  0  0  0
   26.1471  -37.2341  -11.2130 C   0  0  0  0  0  0  0  0  0  0  0  0
   25.8107  -35.7827  -11.4423 C   0  0  1  0  0  0  0  0  0  0  0  0
   26.4220  -34.9472  -10.3783 C   0  0  0  0  0  0  0  0  0  0  0  0
   27.6591  -34.7233  -10.3678 O   0  0  0  0  0  0  0  0  0  0  0  0
   25.6416  -34.3759   -9.3427 N   0  0  0  0  0  0  0  0  0  0  0  0
   26.2968  -33.5684   -8.3019 C   0  0  1  0  0  0  0  0  0  0  0  0
   25.7414  -32.1691   -8.3572 C   0  0  0  0  0  0  0  0  0  0  0  0
   24.2781  -32.1433   -8.2467 C   0  0  0  0  0  0  0  0  0  0  0  0
   23.4453  -32.0480   -9.3330 C   0  0  0  0  0  0  0  0  0  0  0  0
   22.0526  -32.0282   -9.2139 C   0  0  0  0  0  0  0  0  0  0  0  0
   21.5203  -32.1084   -7.9479 C   0  0  0  0  0  0  0  0  0  0  0  0
   22.3448  -32.2034   -6.8607 C   0  0  0  0  0  0  0  0  0  0  0  0
   23.7094  -32.2220   -6.9899 C   0  0  0  0  0  0  0  0  0  0  0  0
   26.1273  -34.2164   -6.9900 C   0  0  0  0  0  0  0  0  0  0  0  0
   26.7121  -33.7802   -5.9725 O   0  0  0  0  0  0  0  0  0  0  0  0
   25.3121  -35.3340   -6.8379 O   0  0  0  0  0  0  0  0  0  0  0  0
  2  1  1  0
  2  3  2  0
  4  5  1  0
  4  2  1  0
  5  6  1  0
  6  7  1  1
  8  6  1  0
  8 10  1  0
  9  8  2  0
 10 14  1  0
 10 11  1  0
 12 11  1  0
 13 14  1  0
 13 12  1  0
 14 15  1  1
 16 15  2  0
 17 15  1  0
 18 17  1  0
 18 26  1  0
 19 20  1  0
 18 19  1  1
 20 25  2  0
 21 22  2  0
 21 20  1  0
 22 23  1  0
 23 24  2  0
 25 24  1  0
 26 28  1  0
 27 26  2  0
M  END
$$$$
