QPF.pdb
     RDKit          3D

 28 29  0  0  1  0  0  0  0  0999 V2000
   20.9261  -20.2710  -14.3366 N   0  0  0  0  0  0  0  0  0  0  0  0
   21.6096  -20.1960  -13.0753 C   0  0  0  0  0  0  0  0  0  0  0  0
   21.2647  -19.2448  -12.3329 O   0  0  0  0  0  0  0  0  0  0  0  0
   22.6242  -21.2077  -12.7690 C   0  0  0  0  0  0  0  0  0  0  0  0
   22.8888  -22.1923  -13.8549 C   0  0  0  0  0  0  0  0  0  0  0  0
   24.1648  -21.9754  -14.6231 C   0  0  2  0  0  0  0  0  0  0  0  0
   24.2311  -22.9903  -15.6575 N   0  0  0  0  0  0  0  0  0  0  0  0
   25.3704  -21.8904  -13.7981 C   0  0  0  0  0  0  0  0  0  0  0  0
   25.8211  -23.0209  -13.3834 O   0  0  0  0  0  0  0  0  0  0  0  0
   26.0776  -20.7416  -13.4143 N   0  0  0  0  0  0  0  0  0  0  0  0
   25.8436  -19.3281  -13.5856 C   0  0  0  0  0  0  0  0  0  0  0  0
   27.2106  -18.8809  -14.1341 C   0  0  0  0  0  0  0  0  0  0  0  0
   28.0986  -19.5422  -13.0711 C   0  0  0  0  0  0  0  0  0  0  0  0
   27.3502  -20.7883  -12.6719 C   0  0  1  0  0  0  0  0  0  0  0  0
   27.0456  -20.7524  -11.2195 C   0  0  0  0  0  0  0  0  0  0  0  0
   25.8643  -20.6092  -10.8136 O   0  0  0  0  0  0  0  0  0  0  0  0
   28.0656  -20.8763  -10.2437 N   0  0  0  0  0  0  0  0  0  0  0  0
   27.7084  -20.8720   -8.8164 C   0  0  1  0  0  0  0  0  0  0  0  0
   28.9553  -20.6224   -8.0086 C   0  0  0  0  0  0  0  0  0  0  0  0
   28.6571  -20.2415   -6.6230 C   0  0  0  0  0  0  0  0  0  0  0  0
   28.0984  -19.0361   -6.2799 C   0  0  0  0  0  0  0  0  0  0  0  0
   27.8161  -18.6873   -4.9560 C   0  0  0  0  0  0  0  0  0  0  0  0
   28.1195  -19.6050   -3.9769 C   0  0  0  0  0  0  0  0  0  0  0  0
   28.6767  -20.8083   -4.3120 C   0  0  0  0  0  0  0  0  0  0  0  0
   28.9490  -21.1394   -5.6140 C   0  0  0  0  0  0  0  0  0  0  0  0
   26.6435  -19.8837   -8.5737 C   0  0  0  0  0  0  0  0  0  0  0  0
   26.7094  -18.7300   -9.0553 O   0  0  0  0  0  0  0  0  0  0  0  0
   25.5293  -20.1992   -7.8017 O   0  0  0  0  0  0  0  0  0  0  0  0
  2  1  1  0
  2  3  2  0
  4  5  1  0
  4  2  1  0
  5  6  1  0
  6  7  1  6
  8  6  1  0
  8 10  1  0
  9  8  2  0
 10 14  1  0
 10 11  1  0
 12 11  1  0
 13 14  1  0
 13 12  1  0
 14 15  1  1
 16 15  2  0
 17 15  1  0
 18 17  1  0
 18 26  1  0
 19 20  1  0
 18 19  1  1
 20 25  2  0
 21 22  2  0
 21 20  1  0
 22 23  1  0
 23 24  2  0
 25 24  1  0
 26 28  1  0
 27 26  2  0
M  END
$$$$
