QPF.pdb
     RDKit          3D

 28 29  0  0  1  0  0  0  0  0999 V2000
   27.1866   -9.1652  -20.7067 N   0  0  0  0  0  0  0  0  0  0  0  0
   26.8145  -10.4187  -21.3016 C   0  0  0  0  0  0  0  0  0  0  0  0
   27.5609  -10.8160  -22.2290 O   0  0  0  0  0  0  0  0  0  0  0  0
   25.6278  -11.1098  -20.7908 C   0  0  0  0  0  0  0  0  0  0  0  0
   24.8495  -10.3628  -19.7637 C   0  0  0  0  0  0  0  0  0  0  0  0
   23.5992  -11.0472  -19.2804 C   0  0  2  0  0  0  0  0  0  0  0  0
   22.7731  -11.3206  -20.4412 N   0  0  0  0  0  0  0  0  0  0  0  0
   22.8956  -10.3501  -18.2032 C   0  0  0  0  0  0  0  0  0  0  0  0
   21.9994   -9.5159  -18.5957 O   0  0  0  0  0  0  0  0  0  0  0  0
   23.0817  -10.4832  -16.8195 N   0  0  0  0  0  0  0  0  0  0  0  0
   23.9638  -11.2877  -16.0091 C   0  0  0  0  0  0  0  0  0  0  0  0
   22.9576  -11.8939  -15.0143 C   0  0  0  0  0  0  0  0  0  0  0  0
   22.2561  -10.5946  -14.5954 C   0  0  0  0  0  0  0  0  0  0  0  0
   22.3043   -9.7230  -15.8243 C   0  0  1  0  0  0  0  0  0  0  0  0
   23.0325   -8.4648  -15.5242 C   0  0  0  0  0  0  0  0  0  0  0  0
   24.2838   -8.4048  -15.6316 O   0  0  0  0  0  0  0  0  0  0  0  0
   22.3515   -7.2938  -15.1084 N   0  0  0  0  0  0  0  0  0  0  0  0
   23.1098   -6.0516  -14.8924 C   0  0  1  0  0  0  0  0  0  0  0  0
   23.4970   -5.4844  -16.2333 C   0  0  0  0  0  0  0  0  0  0  0  0
   22.3345   -5.0288  -17.0046 C   0  0  0  0  0  0  0  0  0  0  0  0
   21.7655   -3.7907  -16.8432 C   0  0  0  0  0  0  0  0  0  0  0  0
   20.6602   -3.3678  -17.5872 C   0  0  0  0  0  0  0  0  0  0  0  0
   20.1406   -4.2451  -18.5108 C   0  0  0  0  0  0  0  0  0  0  0  0
   20.7028   -5.4809  -18.6766 C   0  0  0  0  0  0  0  0  0  0  0  0
   21.7868   -5.8846  -17.9411 C   0  0  0  0  0  0  0  0  0  0  0  0
   22.3177   -5.1228  -14.0682 C   0  0  0  0  0  0  0  0  0  0  0  0
   22.7973   -4.0343  -13.6775 O   0  0  0  0  0  0  0  0  0  0  0  0
   21.0107   -5.4237  -13.6967 O   0  0  0  0  0  0  0  0  0  0  0  0
  2  1  1  0
  2  3  2  0
  4  5  1  0
  4  2  1  0
  5  6  1  0
  6  7  1  6
  8  6  1  0
  8 10  1  0
  9  8  2  0
 10 14  1  0
 10 11  1  0
 12 11  1  0
 13 14  1  0
 13 12  1  0
 14 15  1  1
 16 15  2  0
 17 15  1  0
 18 17  1  0
 18 26  1  0
 19 20  1  0
 18 19  1  6
 20 25  2  0
 21 22  2  0
 21 20  1  0
 22 23  1  0
 23 24  2  0
 25 24  1  0
 26 28  1  0
 27 26  2  0
M  END
$$$$
