QPF.pdb
     RDKit          3D

 28 29  0  0  1  0  0  0  0  0999 V2000
   22.2714  -18.1683  -14.6833 N   0  0  0  0  0  0  0  0  0  0  0  0
   23.6563  -18.5202  -14.5345 C   0  0  0  0  0  0  0  0  0  0  0  0
   24.4457  -17.9389  -15.3180 O   0  0  0  0  0  0  0  0  0  0  0  0
   24.0218  -19.5012  -13.5094 C   0  0  0  0  0  0  0  0  0  0  0  0
   23.7301  -20.9205  -13.8544 C   0  0  0  0  0  0  0  0  0  0  0  0
   24.9123  -21.8507  -13.8043 C   0  0  2  0  0  0  0  0  0  0  0  0
   24.4570  -23.1608  -14.2294 N   0  0  0  0  0  0  0  0  0  0  0  0
   25.6333  -21.8583  -12.5310 C   0  0  0  0  0  0  0  0  0  0  0  0
   25.1656  -22.6708  -11.6511 O   0  0  0  0  0  0  0  0  0  0  0  0
   26.7531  -21.0969  -12.1656 N   0  0  0  0  0  0  0  0  0  0  0  0
   27.4313  -19.9755  -12.7695 C   0  0  0  0  0  0  0  0  0  0  0  0
   28.8881  -20.4709  -12.7260 C   0  0  0  0  0  0  0  0  0  0  0  0
   28.9335  -20.8840  -11.2485 C   0  0  0  0  0  0  0  0  0  0  0  0
   27.5322  -21.3455  -10.9393 C   0  0  1  0  0  0  0  0  0  0  0  0
   26.9579  -20.5222   -9.8457 C   0  0  0  0  0  0  0  0  0  0  0  0
   26.2202  -19.5370  -10.1020 O   0  0  0  0  0  0  0  0  0  0  0  0
   27.2175  -20.8124   -8.4832 N   0  0  0  0  0  0  0  0  0  0  0  0
   26.5467  -20.0286   -7.4341 C   0  0  1  0  0  0  0  0  0  0  0  0
   26.6436  -20.7826   -6.1335 C   0  0  0  0  0  0  0  0  0  0  0  0
   27.8962  -20.5077   -5.4196 C   0  0  0  0  0  0  0  0  0  0  0  0
   28.3612  -19.2389   -5.1817 C   0  0  0  0  0  0  0  0  0  0  0  0
   29.5545  -18.9909   -4.4971 C   0  0  0  0  0  0  0  0  0  0  0  0
   30.2728  -20.0777   -4.0548 C   0  0  0  0  0  0  0  0  0  0  0  0
   29.8151  -21.3451   -4.2888 C   0  0  0  0  0  0  0  0  0  0  0  0
   28.6431  -21.5760   -4.9614 C   0  0  0  0  0  0  0  0  0  0  0  0
   27.1293  -18.6770   -7.3746 C   0  0  0  0  0  0  0  0  0  0  0  0
   28.2652  -18.4407   -7.8450 O   0  0  0  0  0  0  0  0  0  0  0  0
   26.4371  -17.6185   -6.7940 O   0  0  0  0  0  0  0  0  0  0  0  0
  2  1  1  0
  2  3  2  0
  4  5  1  0
  4  2  1  0
  5  6  1  0
  6  7  1  1
  8  6  1  0
  8 10  1  0
  9  8  2  0
 10 14  1  0
 10 11  1  0
 12 11  1  0
 13 14  1  0
 13 12  1  0
 14 15  1  1
 16 15  2  0
 17 15  1  0
 18 17  1  0
 18 26  1  0
 19 20  1  0
 18 19  1  1
 20 25  2  0
 21 22  2  0
 21 20  1  0
 22 23  1  0
 23 24  2  0
 25 24  1  0
 26 28  1  0
 27 26  2  0
M  END
$$$$
