QPF.pdb
     RDKit          3D

 28 29  0  0  1  0  0  0  0  0999 V2000
   27.3044  -15.5991  -14.4919 N   0  0  0  0  0  0  0  0  0  0  0  0
   25.8917  -15.3390  -14.4836 C   0  0  0  0  0  0  0  0  0  0  0  0
   25.5628  -14.1666  -14.1797 O   0  0  0  0  0  0  0  0  0  0  0  0
   24.9776  -16.4333  -14.8209 C   0  0  0  0  0  0  0  0  0  0  0  0
   25.6277  -17.7485  -15.0786 C   0  0  0  0  0  0  0  0  0  0  0  0
   24.7321  -18.9490  -14.9295 C   0  0  2  0  0  0  0  0  0  0  0  0
   23.3621  -18.4936  -15.0718 N   0  0  0  0  0  0  0  0  0  0  0  0
   24.9697  -19.7457  -13.7253 C   0  0  0  0  0  0  0  0  0  0  0  0
   23.9437  -19.8926  -12.9646 O   0  0  0  0  0  0  0  0  0  0  0  0
   26.1633  -20.3556  -13.3123 N   0  0  0  0  0  0  0  0  0  0  0  0
   27.5305  -20.2703  -13.7657 C   0  0  0  0  0  0  0  0  0  0  0  0
   27.8769  -21.7644  -13.8980 C   0  0  0  0  0  0  0  0  0  0  0  0
   27.3953  -22.2228  -12.5146 C   0  0  0  0  0  0  0  0  0  0  0  0
   26.2342  -21.3158  -12.1962 C   0  0  1  0  0  0  0  0  0  0  0  0
   26.5086  -20.5615  -10.9475 C   0  0  0  0  0  0  0  0  0  0  0  0
   27.4723  -19.7567  -10.8810 O   0  0  0  0  0  0  0  0  0  0  0  0
   25.7026  -20.7188   -9.7927 N   0  0  0  0  0  0  0  0  0  0  0  0
   26.3422  -20.8546   -8.4747 C   0  0  1  0  0  0  0  0  0  0  0  0
   27.1787  -19.6286   -8.2166 C   0  0  0  0  0  0  0  0  0  0  0  0
   27.7399  -19.6097   -6.8606 C   0  0  0  0  0  0  0  0  0  0  0  0
   28.4199  -20.6693   -6.3152 C   0  0  0  0  0  0  0  0  0  0  0  0
   28.9527  -20.6368   -5.0232 C   0  0  0  0  0  0  0  0  0  0  0  0
   28.7749  -19.4866   -4.2897 C   0  0  0  0  0  0  0  0  0  0  0  0
   28.0978  -18.4267   -4.8272 C   0  0  0  0  0  0  0  0  0  0  0  0
   27.5798  -18.4702   -6.0956 C   0  0  0  0  0  0  0  0  0  0  0  0
   25.3150  -21.0922   -7.4461 C   0  0  0  0  0  0  0  0  0  0  0  0
   24.1111  -20.8223   -7.6593 O   0  0  0  0  0  0  0  0  0  0  0  0
   25.6479  -21.6243   -6.2040 O   0  0  0  0  0  0  0  0  0  0  0  0
  2  1  1  0
  2  3  2  0
  4  5  1  0
  4  2  1  0
  5  6  1  0
  6  7  1  1
  8  6  1  0
  8 10  1  0
  9  8  2  0
 10 14  1  0
 10 11  1  0
 12 11  1  0
 13 14  1  0
 13 12  1  0
 14 15  1  1
 16 15  2  0
 17 15  1  0
 18 17  1  0
 18 26  1  0
 19 20  1  0
 18 19  1  1
 20 25  2  0
 21 22  2  0
 21 20  1  0
 22 23  1  0
 23 24  2  0
 25 24  1  0
 26 28  1  0
 27 26  2  0
M  END
$$$$
