QPF.pdb
     RDKit          3D

 28 29  0  0  1  0  0  0  0  0999 V2000
   29.3849  -17.6014  -15.5976 N   0  0  0  0  0  0  0  0  0  0  0  0
   28.0435  -17.3253  -16.0312 C   0  0  0  0  0  0  0  0  0  0  0  0
   27.6674  -17.9553  -17.0494 O   0  0  0  0  0  0  0  0  0  0  0  0
   27.2482  -16.3582  -15.2703 C   0  0  0  0  0  0  0  0  0  0  0  0
   26.4641  -16.9287  -14.1398 C   0  0  0  0  0  0  0  0  0  0  0  0
   25.5932  -18.1053  -14.4900 C   0  0  2  0  0  0  0  0  0  0  0  0
   24.4002  -17.5904  -15.1351 N   0  0  0  0  0  0  0  0  0  0  0  0
   25.3194  -19.0179  -13.3794 C   0  0  0  0  0  0  0  0  0  0  0  0
   24.3049  -18.6990  -12.6568 O   0  0  0  0  0  0  0  0  0  0  0  0
   26.0214  -20.1772  -13.0184 N   0  0  0  0  0  0  0  0  0  0  0  0
   27.1642  -20.8598  -13.5751 C   0  0  0  0  0  0  0  0  0  0  0  0
   26.6271  -22.3010  -13.6405 C   0  0  0  0  0  0  0  0  0  0  0  0
   26.1075  -22.4051  -12.2000 C   0  0  0  0  0  0  0  0  0  0  0  0
   25.6637  -21.0068  -11.8537 C   0  0  1  0  0  0  0  0  0  0  0  0
   26.4216  -20.5121  -10.6770 C   0  0  0  0  0  0  0  0  0  0  0  0
   27.6086  -20.1155  -10.7972 O   0  0  0  0  0  0  0  0  0  0  0  0
   25.8416  -20.4689   -9.3849 N   0  0  0  0  0  0  0  0  0  0  0  0
   26.3494  -21.3619   -8.3316 C   0  0  1  0  0  0  0  0  0  0  0  0
   27.8047  -21.0510   -8.0968 C   0  0  0  0  0  0  0  0  0  0  0  0
   28.0223  -20.2962   -6.8571 C   0  0  0  0  0  0  0  0  0  0  0  0
   28.4541  -20.8768   -5.6912 C   0  0  0  0  0  0  0  0  0  0  0  0
   28.6609  -20.1454   -4.5180 C   0  0  0  0  0  0  0  0  0  0  0  0
   28.4148  -18.7924   -4.5591 C   0  0  0  0  0  0  0  0  0  0  0  0
   27.9840  -18.2074   -5.7179 C   0  0  0  0  0  0  0  0  0  0  0  0
   27.7849  -18.9350   -6.8625 C   0  0  0  0  0  0  0  0  0  0  0  0
   25.5177  -21.2284   -7.1233 C   0  0  0  0  0  0  0  0  0  0  0  0
   24.5520  -20.4324   -7.0872 O   0  0  0  0  0  0  0  0  0  0  0  0
   25.7772  -21.9820   -5.9825 O   0  0  0  0  0  0  0  0  0  0  0  0
  2  1  1  0
  2  3  2  0
  4  5  1  0
  4  2  1  0
  5  6  1  0
  6  7  1  1
  8  6  1  0
  8 10  1  0
  9  8  2  0
 10 14  1  0
 10 11  1  0
 12 11  1  0
 13 14  1  0
 13 12  1  0
 14 15  1  1
 16 15  2  0
 17 15  1  0
 18 17  1  0
 18 26  1  0
 19 20  1  0
 18 19  1  1
 20 25  2  0
 21 22  2  0
 21 20  1  0
 22 23  1  0
 23 24  2  0
 25 24  1  0
 26 28  1  0
 27 26  2  0
M  END
$$$$
