QPF.pdb
     RDKit          3D

 28 29  0  0  1  0  0  0  0  0999 V2000
   18.1939  -25.5851   -5.0245 N   0  0  0  0  0  0  0  0  0  0  0  0
   16.8798  -25.3678   -5.5628 C   0  0  0  0  0  0  0  0  0  0  0  0
   16.8410  -25.0663   -6.7805 O   0  0  0  0  0  0  0  0  0  0  0  0
   15.7265  -25.5118   -4.6707 C   0  0  0  0  0  0  0  0  0  0  0  0
   16.0468  -25.9443   -3.2818 C   0  0  0  0  0  0  0  0  0  0  0  0
   16.4396  -27.3895   -3.1325 C   0  0  2  0  0  0  0  0  0  0  0  0
   15.3071  -28.1961   -3.5462 N   0  0  0  0  0  0  0  0  0  0  0  0
   16.9733  -27.7474   -1.8178 C   0  0  0  0  0  0  0  0  0  0  0  0
   16.1298  -28.3123   -1.0288 O   0  0  0  0  0  0  0  0  0  0  0  0
   18.2725  -27.5496   -1.3277 N   0  0  0  0  0  0  0  0  0  0  0  0
   19.4351  -26.8680   -1.8432 C   0  0  0  0  0  0  0  0  0  0  0  0
   20.5069  -27.9565   -1.6534 C   0  0  0  0  0  0  0  0  0  0  0  0
   20.2166  -28.2939   -0.1845 C   0  0  0  0  0  0  0  0  0  0  0  0
   18.7334  -28.0742   -0.0296 C   0  0  1  0  0  0  0  0  0  0  0  0
   18.4800  -27.0431    1.0079 C   0  0  0  0  0  0  0  0  0  0  0  0
   18.5767  -25.8195    0.7354 O   0  0  0  0  0  0  0  0  0  0  0  0
   18.1234  -27.3954    2.3332 N   0  0  0  0  0  0  0  0  0  0  0  0
   17.8792  -26.3361    3.3246 C   0  0  1  0  0  0  0  0  0  0  0  0
   16.4925  -26.5125    3.8864 C   0  0  0  0  0  0  0  0  0  0  0  0
   16.3560  -27.7523    4.6599 C   0  0  0  0  0  0  0  0  0  0  0  0
   16.6940  -27.8501    5.9862 C   0  0  0  0  0  0  0  0  0  0  0  0
   16.5556  -29.0365    6.7124 C   0  0  0  0  0  0  0  0  0  0  0  0
   16.0593  -30.1350    6.0493 C   0  0  0  0  0  0  0  0  0  0  0  0
   15.7207  -30.0445    4.7273 C   0  0  0  0  0  0  0  0  0  0  0  0
   15.8607  -28.8753    4.0254 C   0  0  0  0  0  0  0  0  0  0  0  0
   18.9362  -26.3620    4.3501 C   0  0  0  0  0  0  0  0  0  0  0  0
   18.9752  -25.5041    5.2611 O   0  0  0  0  0  0  0  0  0  0  0  0
   19.9259  -27.3404    4.3408 O   0  0  0  0  0  0  0  0  0  0  0  0
  2  1  1  0
  2  3  2  0
  4  5  1  0
  4  2  1  0
  5  6  1  0
  6  7  1  1
  8  6  1  0
  8 10  1  0
  9  8  2  0
 10 14  1  0
 10 11  1  0
 12 11  1  0
 13 14  1  0
 13 12  1  0
 14 15  1  1
 16 15  2  0
 17 15  1  0
 18 17  1  0
 18 26  1  0
 19 20  1  0
 18 19  1  1
 20 25  2  0
 21 22  2  0
 21 20  1  0
 22 23  1  0
 23 24  2  0
 25 24  1  0
 26 28  1  0
 27 26  2  0
M  END
$$$$
