QPF.pdb
     RDKit          3D

 28 29  0  0  1  0  0  0  0  0999 V2000
   27.7490  -14.7489  -18.6872 N   0  0  0  0  0  0  0  0  0  0  0  0
   27.2820  -13.7051  -19.5568 C   0  0  0  0  0  0  0  0  0  0  0  0
   26.0680  -13.7685  -19.8688 O   0  0  0  0  0  0  0  0  0  0  0  0
   28.2349  -12.6820  -19.9951 C   0  0  0  0  0  0  0  0  0  0  0  0
   29.6355  -12.8749  -19.5264 C   0  0  0  0  0  0  0  0  0  0  0  0
   30.5917  -11.7690  -19.8844 C   0  0  2  0  0  0  0  0  0  0  0  0
   31.3692  -12.2146  -21.0252 N   0  0  0  0  0  0  0  0  0  0  0  0
   31.4026  -11.2750  -18.7710 C   0  0  0  0  0  0  0  0  0  0  0  0
   30.7424  -11.0035  -17.7017 O   0  0  0  0  0  0  0  0  0  0  0  0
   32.7892  -11.0670  -18.7354 N   0  0  0  0  0  0  0  0  0  0  0  0
   33.8382  -11.1965  -19.7176 C   0  0  0  0  0  0  0  0  0  0  0  0
   34.8599  -12.0359  -18.9294 C   0  0  0  0  0  0  0  0  0  0  0  0
   34.8988  -11.1872  -17.6511 C   0  0  0  0  0  0  0  0  0  0  0  0
   33.5071  -10.6214  -17.5276 C   0  0  1  0  0  0  0  0  0  0  0  0
   33.5612   -9.1379  -17.5366 C   0  0  0  0  0  0  0  0  0  0  0  0
   33.1510   -8.4856  -18.5300 O   0  0  0  0  0  0  0  0  0  0  0  0
   34.0733   -8.4070  -16.4360 N   0  0  0  0  0  0  0  0  0  0  0  0
   33.8045   -6.9639  -16.3354 C   0  0  1  0  0  0  0  0  0  0  0  0
   32.3764   -6.7695  -15.8969 C   0  0  0  0  0  0  0  0  0  0  0  0
   32.0112   -5.3517  -15.7936 C   0  0  0  0  0  0  0  0  0  0  0  0
   31.5811   -4.6079  -16.8635 C   0  0  0  0  0  0  0  0  0  0  0  0
   31.2328   -3.2588  -16.7505 C   0  0  0  0  0  0  0  0  0  0  0  0
   31.3339   -2.6767  -15.5081 C   0  0  0  0  0  0  0  0  0  0  0  0
   31.7621   -3.4123  -14.4375 C   0  0  0  0  0  0  0  0  0  0  0  0
   32.1008   -4.7349  -14.5604 C   0  0  0  0  0  0  0  0  0  0  0  0
   34.7864   -6.3373  -15.4338 C   0  0  0  0  0  0  0  0  0  0  0  0
   35.2302   -6.9483  -14.4352 O   0  0  0  0  0  0  0  0  0  0  0  0
   35.2533   -5.0462  -15.6618 O   0  0  0  0  0  0  0  0  0  0  0  0
  2  1  1  0
  2  3  2  0
  4  5  1  0
  4  2  1  0
  5  6  1  0
  6  7  1  6
  8  6  1  0
  8 10  1  0
  9  8  2  0
 10 14  1  0
 10 11  1  0
 12 11  1  0
 13 14  1  0
 13 12  1  0
 14 15  1  6
 16 15  2  0
 17 15  1  0
 18 17  1  0
 18 26  1  0
 19 20  1  0
 18 19  1  1
 20 25  2  0
 21 22  2  0
 21 20  1  0
 22 23  1  0
 23 24  2  0
 25 24  1  0
 26 28  1  0
 27 26  2  0
M  END
$$$$
