QPF.pdb
     RDKit          3D

 28 29  0  0  1  0  0  0  0  0999 V2000
   23.8478  -17.1303  -14.9856 N   0  0  0  0  0  0  0  0  0  0  0  0
   23.0204  -18.0956  -15.6544 C   0  0  0  0  0  0  0  0  0  0  0  0
   23.3446  -18.3523  -16.8393 O   0  0  0  0  0  0  0  0  0  0  0  0
   21.8982  -18.6836  -14.9184 C   0  0  0  0  0  0  0  0  0  0  0  0
   22.2497  -19.3008  -13.6092 C   0  0  0  0  0  0  0  0  0  0  0  0
   22.6144  -20.7601  -13.6631 C   0  0  2  0  0  0  0  0  0  0  0  0
   21.3824  -21.5148  -13.7934 N   0  0  0  0  0  0  0  0  0  0  0  0
   23.4772  -21.2174  -12.5733 C   0  0  0  0  0  0  0  0  0  0  0  0
   22.8535  -21.7001  -11.5579 O   0  0  0  0  0  0  0  0  0  0  0  0
   24.8780  -21.1906  -12.5085 N   0  0  0  0  0  0  0  0  0  0  0  0
   25.9022  -20.6630  -13.3772 C   0  0  0  0  0  0  0  0  0  0  0  0
   26.8370  -21.8814  -13.4828 C   0  0  0  0  0  0  0  0  0  0  0  0
   26.9706  -22.1838  -11.9839 C   0  0  0  0  0  0  0  0  0  0  0  0
   25.6451  -21.7750  -11.3938 C   0  0  1  0  0  0  0  0  0  0  0  0
   25.8512  -20.7236  -10.3664 C   0  0  0  0  0  0  0  0  0  0  0  0
   25.9393  -19.5129  -10.6940 O   0  0  0  0  0  0  0  0  0  0  0  0
   25.9563  -21.0414   -8.9894 N   0  0  0  0  0  0  0  0  0  0  0  0
   26.2458  -19.9743   -8.0187 C   0  0  1  0  0  0  0  0  0  0  0  0
   26.0398  -20.5185   -6.6291 C   0  0  0  0  0  0  0  0  0  0  0  0
   27.1958  -20.2784   -5.7574 C   0  0  0  0  0  0  0  0  0  0  0  0
   27.8014  -21.2680   -5.0248 C   0  0  0  0  0  0  0  0  0  0  0  0
   28.9045  -21.0262   -4.2008 C   0  0  0  0  0  0  0  0  0  0  0  0
   29.3830  -19.7378   -4.1387 C   0  0  0  0  0  0  0  0  0  0  0  0
   28.7839  -18.7467   -4.8662 C   0  0  0  0  0  0  0  0  0  0  0  0
   27.7025  -18.9958   -5.6710 C   0  0  0  0  0  0  0  0  0  0  0  0
   27.6023  -19.4482   -8.2485 C   0  0  0  0  0  0  0  0  0  0  0  0
   27.9198  -18.2945   -7.8804 O   0  0  0  0  0  0  0  0  0  0  0  0
   28.5755  -20.2155   -8.8819 O   0  0  0  0  0  0  0  0  0  0  0  0
  2  1  1  0
  2  3  2  0
  4  5  1  0
  4  2  1  0
  5  6  1  0
  6  7  1  1
  8  6  1  0
  8 10  1  0
  9  8  2  0
 10 14  1  0
 10 11  1  0
 12 11  1  0
 13 14  1  0
 13 12  1  0
 14 15  1  1
 16 15  2  0
 17 15  1  0
 18 17  1  0
 18 26  1  0
 19 20  1  0
 18 19  1  1
 20 25  2  0
 21 22  2  0
 21 20  1  0
 22 23  1  0
 23 24  2  0
 25 24  1  0
 26 28  1  0
 27 26  2  0
M  END
$$$$
