QPF.pdb
     RDKit          3D

 28 29  0  0  1  0  0  0  0  0999 V2000
   23.4179  -25.3052  -14.4447 N   0  0  0  0  0  0  0  0  0  0  0  0
   24.0577  -24.2394  -15.1648 C   0  0  0  0  0  0  0  0  0  0  0  0
   23.2940  -23.5266  -15.8604 O   0  0  0  0  0  0  0  0  0  0  0  0
   25.5078  -24.0777  -15.0313 C   0  0  0  0  0  0  0  0  0  0  0  0
   25.9512  -23.2379  -13.8838 C   0  0  0  0  0  0  0  0  0  0  0  0
   25.6397  -21.7702  -14.0025 C   0  0  2  0  0  0  0  0  0  0  0  0
   26.5123  -21.2184  -15.0216 N   0  0  0  0  0  0  0  0  0  0  0  0
   25.6650  -21.0336  -12.7384 C   0  0  0  0  0  0  0  0  0  0  0  0
   26.7936  -20.4867  -12.4553 O   0  0  0  0  0  0  0  0  0  0  0  0
   24.6217  -20.8583  -11.8175 N   0  0  0  0  0  0  0  0  0  0  0  0
   23.2682  -21.3529  -11.7446 C   0  0  0  0  0  0  0  0  0  0  0  0
   22.5036  -20.0431  -11.4807 C   0  0  0  0  0  0  0  0  0  0  0  0
   23.3558  -19.5249  -10.3141 C   0  0  0  0  0  0  0  0  0  0  0  0
   24.7464  -20.0283  -10.6058 C   0  0  1  0  0  0  0  0  0  0  0  0
   25.2156  -20.8924   -9.4937 C   0  0  0  0  0  0  0  0  0  0  0  0
   24.9677  -22.1249   -9.4884 O   0  0  0  0  0  0  0  0  0  0  0  0
   25.9538  -20.3656   -8.4048 N   0  0  0  0  0  0  0  0  0  0  0  0
   26.4429  -21.2718   -7.3540 C   0  0  1  0  0  0  0  0  0  0  0  0
   27.9365  -21.1127   -7.2377 C   0  0  0  0  0  0  0  0  0  0  0  0
   28.3142  -20.0393   -6.3108 C   0  0  0  0  0  0  0  0  0  0  0  0
   28.6392  -20.2628   -4.9966 C   0  0  0  0  0  0  0  0  0  0  0  0
   29.0007  -19.2313   -4.1251 C   0  0  0  0  0  0  0  0  0  0  0  0
   29.0240  -17.9511   -4.6281 C   0  0  0  0  0  0  0  0  0  0  0  0
   28.7009  -17.7213   -5.9371 C   0  0  0  0  0  0  0  0  0  0  0  0
   28.3479  -18.7410   -6.7825 C   0  0  0  0  0  0  0  0  0  0  0  0
   25.7242  -21.0074   -6.0957 C   0  0  0  0  0  0  0  0  0  0  0  0
   25.0205  -19.9814   -5.9558 O   0  0  0  0  0  0  0  0  0  0  0  0
   25.8033  -21.8885   -5.0214 O   0  0  0  0  0  0  0  0  0  0  0  0
  2  1  1  0
  2  3  2  0
  4  5  1  0
  4  2  1  0
  5  6  1  0
  6  7  1  6
  8  6  1  0
  8 10  1  0
  9  8  2  0
 10 14  1  0
 10 11  1  0
 12 11  1  0
 13 14  1  0
 13 12  1  0
 14 15  1  1
 16 15  2  0
 17 15  1  0
 18 17  1  0
 18 26  1  0
 19 20  1  0
 18 19  1  1
 20 25  2  0
 21 22  2  0
 21 20  1  0
 22 23  1  0
 23 24  2  0
 25 24  1  0
 26 28  1  0
 27 26  2  0
M  END
$$$$
