QPF.pdb
     RDKit          3D

 28 29  0  0  1  0  0  0  0  0999 V2000
   17.4488  -21.7973  -12.1588 N   0  0  0  0  0  0  0  0  0  0  0  0
   16.2071  -21.5522  -12.8383 C   0  0  0  0  0  0  0  0  0  0  0  0
   16.2678  -20.7386  -13.7920 O   0  0  0  0  0  0  0  0  0  0  0  0
   15.0065  -22.2524  -12.3745 C   0  0  0  0  0  0  0  0  0  0  0  0
   15.2206  -23.2056  -11.2501 C   0  0  0  0  0  0  0  0  0  0  0  0
   15.3482  -24.6515  -11.6478 C   0  0  2  0  0  0  0  0  0  0  0  0
   14.0379  -25.1060  -12.0733 N   0  0  0  0  0  0  0  0  0  0  0  0
   15.9763  -25.5108  -10.6436 C   0  0  0  0  0  0  0  0  0  0  0  0
   15.1539  -26.1380   -9.8799 O   0  0  0  0  0  0  0  0  0  0  0  0
   17.3444  -25.7253  -10.4213 N   0  0  0  0  0  0  0  0  0  0  0  0
   18.5423  -25.2498  -11.0701 C   0  0  0  0  0  0  0  0  0  0  0  0
   19.2962  -26.5759  -11.2763 C   0  0  0  0  0  0  0  0  0  0  0  0
   19.1806  -27.1169   -9.8446 C   0  0  0  0  0  0  0  0  0  0  0  0
   17.8608  -26.5882   -9.3436 C   0  0  1  0  0  0  0  0  0  0  0  0
   18.0762  -25.7508   -8.1370 C   0  0  0  0  0  0  0  0  0  0  0  0
   18.2078  -24.5042   -8.2346 O   0  0  0  0  0  0  0  0  0  0  0  0
   18.1419  -26.3194   -6.8407 N   0  0  0  0  0  0  0  0  0  0  0  0
   18.2790  -25.4401   -5.6691 C   0  0  1  0  0  0  0  0  0  0  0  0
   17.0385  -24.5931   -5.5548 C   0  0  0  0  0  0  0  0  0  0  0  0
   15.8593  -25.3774   -5.1693 C   0  0  0  0  0  0  0  0  0  0  0  0
   15.4712  -25.5570   -3.8655 C   0  0  0  0  0  0  0  0  0  0  0  0
   14.3435  -26.3037   -3.5122 C   0  0  0  0  0  0  0  0  0  0  0  0
   13.6108  -26.8708   -4.5292 C   0  0  0  0  0  0  0  0  0  0  0  0
   13.9923  -26.6960   -5.8309 C   0  0  0  0  0  0  0  0  0  0  0  0
   15.1003  -25.9613   -6.1653 C   0  0  0  0  0  0  0  0  0  0  0  0
   18.5501  -26.2501   -4.4690 C   0  0  0  0  0  0  0  0  0  0  0  0
   18.4480  -27.4977   -4.4938 O   0  0  0  0  0  0  0  0  0  0  0  0
   18.9285  -25.6562   -3.2686 O   0  0  0  0  0  0  0  0  0  0  0  0
  2  1  1  0
  2  3  2  0
  4  5  1  0
  4  2  1  0
  5  6  1  0
  6  7  1  1
  8  6  1  0
  8 10  1  0
  9  8  2  0
 10 14  1  0
 10 11  1  0
 12 11  1  0
 13 14  1  0
 13 12  1  0
 14 15  1  1
 16 15  2  0
 17 15  1  0
 18 17  1  0
 18 26  1  0
 19 20  1  0
 18 19  1  1
 20 25  2  0
 21 22  2  0
 21 20  1  0
 22 23  1  0
 23 24  2  0
 25 24  1  0
 26 28  1  0
 27 26  2  0
M  END
$$$$
