YCS.pdb
     RDKit          3D

 25 25  0  0  1  0  0  0  0  0999 V2000
    7.4500  -14.4322   13.3536 O   0  0  0  0  0  0  0  0  0  0  0  0
    7.8859  -14.2429   14.6553 C   0  0  0  0  0  0  0  0  0  0  0  0
    7.0988  -13.5080   15.5166 C   0  0  0  0  0  0  0  0  0  0  0  0
    7.5257  -13.3150   16.8139 C   0  0  0  0  0  0  0  0  0  0  0  0
    8.7242  -13.8383   17.2791 C   0  0  0  0  0  0  0  0  0  0  0  0
    9.1395  -13.6022   18.6857 C   0  0  0  0  0  0  0  0  0  0  0  0
    9.2474  -14.9348   19.3605 C   0  0  2  0  0  0  0  0  0  0  0  0
    7.9596  -15.5841   19.3258 N   0  0  0  0  0  0  0  0  0  0  0  0
    9.7706  -14.8233   20.7523 C   0  0  0  0  0  0  0  0  0  0  0  0
   10.8782  -14.2681   20.9665 O   0  0  0  0  0  0  0  0  0  0  0  0
    9.5098  -14.5785   16.3996 C   0  0  0  0  0  0  0  0  0  0  0  0
    9.0918  -14.7780   15.0981 C   0  0  0  0  0  0  0  0  0  0  0  0
    9.0653  -15.3248   21.8834 N   0  0  0  0  0  0  0  0  0  0  0  0
    9.6562  -15.4102   23.1959 C   0  0  1  0  0  0  0  0  0  0  0  0
    8.6552  -15.1456   24.2944 C   0  0  0  0  0  0  0  0  0  0  0  0
    7.2288  -16.2229   24.2381 S   0  0  0  0  0  0  0  0  0  0  0  0
   10.3126  -16.7153   23.4396 C   0  0  0  0  0  0  0  0  0  0  0  0
    9.8390  -17.8196   23.0655 O   0  0  0  0  0  0  0  0  0  0  0  0
   14.1877  -16.4194   24.0363 O   0  0  0  0  0  0  0  0  0  0  0  0
   13.6955  -17.6653   23.7288 C   0  0  0  0  0  0  0  0  0  0  0  0
   12.3268  -17.9043   24.3806 C   0  0  2  0  0  0  0  0  0  0  0  0
   11.5453  -16.7271   24.1335 N   0  0  0  0  0  0  0  0  0  0  0  0
   12.5793  -18.0136   25.8349 C   0  0  0  0  0  0  0  0  0  0  0  0
   13.2662  -18.9663   26.2741 O   0  0  0  0  0  0  0  0  0  0  0  0
   12.0876  -17.0993   26.7663 O   0  0  0  0  0  0  0  0  0  0  0  0
  2  3  2  0
  2  1  1  0
  4  3  1  0
  5  4  2  0
  6  7  1  0
  6  5  1  0
  7  8  1  1
  9 13  1  0
  9  7  1  0
 10  9  2  0
 11  5  1  0
 11 12  2  0
 12  2  1  0
 14 13  1  0
 14 15  1  1
 16 15  1  0
 17 14  1  0
 18 17  2  0
 19 20  1  0
 21 20  1  6
 21 23  1  0
 21 22  1  0
 22 17  1  0
 23 25  1  0
 24 23  2  0
M  END
$$$$
