YCS.pdb
     RDKit          3D

 25 25  0  0  1  0  0  0  0  0999 V2000
   10.3397  -15.2741   31.0104 O   0  0  0  0  0  0  0  0  0  0  0  0
   10.1085  -15.2203   29.6452 C   0  0  0  0  0  0  0  0  0  0  0  0
   10.5892  -14.1408   28.9345 C   0  0  0  0  0  0  0  0  0  0  0  0
   10.3632  -14.0799   27.5752 C   0  0  0  0  0  0  0  0  0  0  0  0
    9.6662  -15.0726   26.9005 C   0  0  0  0  0  0  0  0  0  0  0  0
    9.4491  -14.9604   25.4352 C   0  0  0  0  0  0  0  0  0  0  0  0
    9.9171  -16.2357   24.8047 C   0  0  2  0  0  0  0  0  0  0  0  0
   11.2998  -16.4523   25.1543 N   0  0  0  0  0  0  0  0  0  0  0  0
    9.7147  -16.2438   23.3274 C   0  0  0  0  0  0  0  0  0  0  0  0
   10.5517  -15.6848   22.5737 O   0  0  0  0  0  0  0  0  0  0  0  0
    9.1860  -16.1573   27.6294 C   0  0  0  0  0  0  0  0  0  0  0  0
    9.4067  -16.2285   28.9913 C   0  0  0  0  0  0  0  0  0  0  0  0
    8.5948  -16.8669   22.7062 N   0  0  0  0  0  0  0  0  0  0  0  0
    8.3984  -16.8720   21.2778 C   0  0  1  0  0  0  0  0  0  0  0  0
    7.6633  -18.1025   20.8038 C   0  0  0  0  0  0  0  0  0  0  0  0
    7.2982  -18.0885   19.0531 S   0  0  0  0  0  0  0  0  0  0  0  0
    7.6868  -15.6650   20.7978 C   0  0  0  0  0  0  0  0  0  0  0  0
    6.6461  -15.2040   21.3348 O   0  0  0  0  0  0  0  0  0  0  0  0
    9.5520  -12.8131   18.8571 O   0  0  0  0  0  0  0  0  0  0  0  0
    8.2003  -12.6824   19.0691 C   0  0  0  0  0  0  0  0  0  0  0  0
    7.4731  -14.0228   18.8969 C   0  0  2  0  0  0  0  0  0  0  0  0
    8.2032  -14.9860   19.6693 N   0  0  0  0  0  0  0  0  0  0  0  0
    7.5913  -14.3715   17.4632 C   0  0  0  0  0  0  0  0  0  0  0  0
    8.3731  -15.2864   17.1110 O   0  0  0  0  0  0  0  0  0  0  0  0
    6.8685  -13.7283   16.4587 O   0  0  0  0  0  0  0  0  0  0  0  0
  2  3  2  0
  2  1  1  0
  4  3  1  0
  5  4  2  0
  6  7  1  0
  6  5  1  0
  7  8  1  6
  9 13  1  0
  9  7  1  0
 10  9  2  0
 11  5  1  0
 11 12  2  0
 12  2  1  0
 14 13  1  0
 14 15  1  1
 16 15  1  0
 17 14  1  0
 18 17  2  0
 19 20  1  0
 21 20  1  6
 21 23  1  0
 21 22  1  0
 22 17  1  0
 23 25  1  0
 24 23  2  0
M  END
$$$$
