YCS.pdb
     RDKit          3D

 25 25  0  0  1  0  0  0  0  0999 V2000
    6.1092  -10.5175   27.9468 O   0  0  0  0  0  0  0  0  0  0  0  0
    6.5196  -11.6841   27.3216 C   0  0  0  0  0  0  0  0  0  0  0  0
    7.2412  -12.6065   28.0495 C   0  0  0  0  0  0  0  0  0  0  0  0
    7.6534  -13.7702   27.4344 C   0  0  0  0  0  0  0  0  0  0  0  0
    7.3637  -14.0413   26.1043 C   0  0  0  0  0  0  0  0  0  0  0  0
    7.8304  -15.3098   25.4878 C   0  0  0  0  0  0  0  0  0  0  0  0
    6.7273  -15.8282   24.6177 C   0  0  2  0  0  0  0  0  0  0  0  0
    5.8600  -16.6666   25.4089 N   0  0  0  0  0  0  0  0  0  0  0  0
    7.2438  -16.5473   23.4179 C   0  0  0  0  0  0  0  0  0  0  0  0
    6.4791  -17.2891   22.7502 O   0  0  0  0  0  0  0  0  0  0  0  0
    6.6344  -13.1019   25.3802 C   0  0  0  0  0  0  0  0  0  0  0  0
    6.2166  -11.9329   25.9864 C   0  0  0  0  0  0  0  0  0  0  0  0
    8.5928  -16.4370   22.9746 N   0  0  0  0  0  0  0  0  0  0  0  0
    9.0360  -16.9319   21.6949 C   0  0  1  0  0  0  0  0  0  0  0  0
    8.3026  -16.2861   20.5443 C   0  0  0  0  0  0  0  0  0  0  0  0
    7.4521  -14.7783   20.9933 S   0  0  0  0  0  0  0  0  0  0  0  0
   10.4944  -16.7673   21.4962 C   0  0  0  0  0  0  0  0  0  0  0  0
   11.0682  -15.6511   21.4025 O   0  0  0  0  0  0  0  0  0  0  0  0
   12.0375  -20.2190   21.8553 O   0  0  0  0  0  0  0  0  0  0  0  0
   13.1352  -19.3968   21.7654 C   0  0  0  0  0  0  0  0  0  0  0  0
   12.7257  -17.9409   21.5046 C   0  0  2  0  0  0  0  0  0  0  0  0
   11.2948  -17.9302   21.4057 N   0  0  0  0  0  0  0  0  0  0  0  0
   13.2982  -17.5843   20.1870 C   0  0  0  0  0  0  0  0  0  0  0  0
   12.5367  -17.4259   19.2035 O   0  0  0  0  0  0  0  0  0  0  0  0
   14.6649  -17.4102   19.9700 O   0  0  0  0  0  0  0  0  0  0  0  0
  2  3  2  0
  2  1  1  0
  4  3  1  0
  5  4  2  0
  6  7  1  0
  6  5  1  0
  7  8  1  1
  9 13  1  0
  9  7  1  0
 10  9  2  0
 11  5  1  0
 11 12  2  0
 12  2  1  0
 14 13  1  0
 14 15  1  6
 16 15  1  0
 17 14  1  0
 18 17  2  0
 19 20  1  0
 21 20  1  6
 21 23  1  0
 21 22  1  0
 22 17  1  0
 23 25  1  0
 24 23  2  0
M  END
$$$$
