YCS.pdb
     RDKit          3D

 25 25  0  0  1  0  0  0  0  0999 V2000
    5.3273  -10.7316   27.7818 O   0  0  0  0  0  0  0  0  0  0  0  0
    6.0623  -11.7545   27.2042 C   0  0  0  0  0  0  0  0  0  0  0  0
    6.9480  -12.4594   27.9918 C   0  0  0  0  0  0  0  0  0  0  0  0
    7.6833  -13.4790   27.4244 C   0  0  0  0  0  0  0  0  0  0  0  0
    7.5590  -13.8175   26.0840 C   0  0  0  0  0  0  0  0  0  0  0  0
    8.3739  -14.9244   25.5205 C   0  0  0  0  0  0  0  0  0  0  0  0
    7.4531  -15.8302   24.7626 C   0  0  2  0  0  0  0  0  0  0  0  0
    6.8061  -16.7252   25.6908 N   0  0  0  0  0  0  0  0  0  0  0  0
    8.1571  -16.5747   23.6794 C   0  0  0  0  0  0  0  0  0  0  0  0
    8.6666  -17.6995   23.9163 O   0  0  0  0  0  0  0  0  0  0  0  0
    6.6613  -13.0982   25.2995 C   0  0  0  0  0  0  0  0  0  0  0  0
    5.9197  -12.0749   25.8576 C   0  0  0  0  0  0  0  0  0  0  0  0
    8.2877  -16.0678   22.3548 N   0  0  0  0  0  0  0  0  0  0  0  0
    8.9982  -16.7725   21.3168 C   0  0  1  0  0  0  0  0  0  0  0  0
    8.7167  -16.2095   19.9446 C   0  0  0  0  0  0  0  0  0  0  0  0
    6.9790  -16.1872   19.5225 S   0  0  0  0  0  0  0  0  0  0  0  0
   10.4617  -16.7933   21.5435 C   0  0  0  0  0  0  0  0  0  0  0  0
   11.1366  -15.7804   21.8634 O   0  0  0  0  0  0  0  0  0  0  0  0
   12.4424  -19.3402   23.6357 O   0  0  0  0  0  0  0  0  0  0  0  0
   12.7837  -19.4853   22.3123 C   0  0  0  0  0  0  0  0  0  0  0  0
   12.5652  -18.1829   21.5305 C   0  0  2  0  0  0  0  0  0  0  0  0
   11.1466  -18.0219   21.3929 N   0  0  0  0  0  0  0  0  0  0  0  0
   13.1528  -18.4062   20.1905 C   0  0  0  0  0  0  0  0  0  0  0  0
   12.3985  -18.5277   19.1961 O   0  0  0  0  0  0  0  0  0  0  0  0
   14.5263  -18.4913   19.9633 O   0  0  0  0  0  0  0  0  0  0  0  0
  2  3  2  0
  2  1  1  0
  4  3  1  0
  5  4  2  0
  6  7  1  0
  6  5  1  0
  7  8  1  1
  9 13  1  0
  9  7  1  0
 10  9  2  0
 11  5  1  0
 11 12  2  0
 12  2  1  0
 14 13  1  0
 14 15  1  6
 16 15  1  0
 17 14  1  0
 18 17  2  0
 19 20  1  0
 21 20  1  1
 21 23  1  0
 21 22  1  0
 22 17  1  0
 23 25  1  0
 24 23  2  0
M  END
$$$$
