YCS.pdb
     RDKit          3D

 25 25  0  0  1  0  0  0  0  0999 V2000
   10.1270  -14.0384   31.0048 O   0  0  0  0  0  0  0  0  0  0  0  0
   10.0781  -14.5112   29.7031 C   0  0  0  0  0  0  0  0  0  0  0  0
   10.6801  -15.7177   29.4141 C   0  0  0  0  0  0  0  0  0  0  0  0
   10.6359  -16.1951   28.1209 C   0  0  0  0  0  0  0  0  0  0  0  0
   10.0036  -15.4978   27.1009 C   0  0  0  0  0  0  0  0  0  0  0  0
    9.9836  -16.0549   25.7239 C   0  0  0  0  0  0  0  0  0  0  0  0
    8.5572  -16.3371   25.3655 C   0  0  2  0  0  0  0  0  0  0  0  0
    8.0544  -17.3799   26.2263 N   0  0  0  0  0  0  0  0  0  0  0  0
    8.3944  -16.6859   23.9250 C   0  0  0  0  0  0  0  0  0  0  0  0
    8.3950  -17.8904   23.5643 O   0  0  0  0  0  0  0  0  0  0  0  0
    9.3996  -14.2808   27.4056 C   0  0  0  0  0  0  0  0  0  0  0  0
    9.4379  -13.7933   28.6976 C   0  0  0  0  0  0  0  0  0  0  0  0
    8.2337  -15.7026   22.9072 N   0  0  0  0  0  0  0  0  0  0  0  0
    8.4299  -15.9896   21.5078 C   0  0  1  0  0  0  0  0  0  0  0  0
    8.0211  -14.8370   20.6227 C   0  0  0  0  0  0  0  0  0  0  0  0
    6.3883  -14.2022   20.9823 S   0  0  0  0  0  0  0  0  0  0  0  0
    9.8269  -16.3707   21.1965 C   0  0  0  0  0  0  0  0  0  0  0  0
   10.8354  -15.8200   21.7097 O   0  0  0  0  0  0  0  0  0  0  0  0
   10.6858  -20.1454   20.8954 O   0  0  0  0  0  0  0  0  0  0  0  0
   11.0714  -19.4991   19.7454 C   0  0  0  0  0  0  0  0  0  0  0  0
   11.3249  -18.0068   19.9985 C   0  0  2  0  0  0  0  0  0  0  0  0
   10.0463  -17.4150   20.2678 N   0  0  0  0  0  0  0  0  0  0  0  0
   11.8468  -17.4586   18.7265 C   0  0  0  0  0  0  0  0  0  0  0  0
   11.1093  -16.7357   18.0151 O   0  0  0  0  0  0  0  0  0  0  0  0
   13.1388  -17.7039   18.2622 O   0  0  0  0  0  0  0  0  0  0  0  0
  2  3  2  0
  2  1  1  0
  4  3  1  0
  5  4  2  0
  6  7  1  0
  6  5  1  0
  7  8  1  1
  9 13  1  0
  9  7  1  0
 10  9  2  0
 11  5  1  0
 11 12  2  0
 12  2  1  0
 14 13  1  0
 14 15  1  6
 16 15  1  0
 17 14  1  0
 18 17  2  0
 19 20  1  0
 21 20  1  6
 21 23  1  0
 21 22  1  0
 22 17  1  0
 23 25  1  0
 24 23  2  0
M  END
$$$$
