YCS.pdb
     RDKit          3D

 25 25  0  0  1  0  0  0  0  0999 V2000
   10.2531  -14.2226   31.3009 O   0  0  0  0  0  0  0  0  0  0  0  0
   10.4408  -14.6494   29.9960 C   0  0  0  0  0  0  0  0  0  0  0  0
   11.0878  -15.8475   29.7782 C   0  0  0  0  0  0  0  0  0  0  0  0
   11.2785  -16.2794   28.4822 C   0  0  0  0  0  0  0  0  0  0  0  0
   10.8388  -15.5444   27.3900 C   0  0  0  0  0  0  0  0  0  0  0  0
   11.0687  -16.0531   26.0133 C   0  0  0  0  0  0  0  0  0  0  0  0
    9.7824  -16.6429   25.5230 C   0  0  2  0  0  0  0  0  0  0  0  0
    9.4476  -17.7838   26.3400 N   0  0  0  0  0  0  0  0  0  0  0  0
    9.8386  -16.9989   24.0762 C   0  0  0  0  0  0  0  0  0  0  0  0
    9.9158  -18.2042   23.7265 O   0  0  0  0  0  0  0  0  0  0  0  0
   10.1869  -14.3364   27.6233 C   0  0  0  0  0  0  0  0  0  0  0  0
    9.9906  -13.8944   28.9173 C   0  0  0  0  0  0  0  0  0  0  0  0
    9.8087  -16.0221   23.0403 N   0  0  0  0  0  0  0  0  0  0  0  0
    9.9434  -16.3606   21.6452 C   0  0  1  0  0  0  0  0  0  0  0  0
    9.3092  -15.3315   20.7409 C   0  0  0  0  0  0  0  0  0  0  0  0
    7.6376  -14.9005   21.2085 S   0  0  0  0  0  0  0  0  0  0  0  0
   11.3548  -16.5586   21.2424 C   0  0  0  0  0  0  0  0  0  0  0  0
   12.2976  -15.8029   21.5945 O   0  0  0  0  0  0  0  0  0  0  0  0
   12.8221  -20.3281   20.9067 O   0  0  0  0  0  0  0  0  0  0  0  0
   12.9246  -19.5748   19.7617 C   0  0  0  0  0  0  0  0  0  0  0  0
   13.0000  -18.0757   20.0814 C   0  0  2  0  0  0  0  0  0  0  0  0
   11.6675  -17.6609   20.4127 N   0  0  0  0  0  0  0  0  0  0  0  0
   13.4092  -17.4092   18.8247 C   0  0  0  0  0  0  0  0  0  0  0  0
   12.5388  -16.8835   18.0909 O   0  0  0  0  0  0  0  0  0  0  0  0
   14.7350  -17.3295   18.3990 O   0  0  0  0  0  0  0  0  0  0  0  0
  2  3  2  0
  2  1  1  0
  4  3  1  0
  5  4  2  0
  6  7  1  0
  6  5  1  0
  7  8  1  1
  9 13  1  0
  9  7  1  0
 10  9  2  0
 11  5  1  0
 11 12  2  0
 12  2  1  0
 14 13  1  0
 14 15  1  6
 16 15  1  0
 17 14  1  0
 18 17  2  0
 19 20  1  0
 21 20  1  6
 21 23  1  0
 21 22  1  0
 22 17  1  0
 23 25  1  0
 24 23  2  0
M  END
$$$$
