YCS.pdb
     RDKit          3D

 25 25  0  0  1  0  0  0  0  0999 V2000
   11.1153  -23.5576    9.3710 O   0  0  0  0  0  0  0  0  0  0  0  0
   11.1164  -23.0554   10.6624 C   0  0  0  0  0  0  0  0  0  0  0  0
   11.3373  -21.7069   10.8480 C   0  0  0  0  0  0  0  0  0  0  0  0
   11.3400  -21.1992   12.1304 C   0  0  0  0  0  0  0  0  0  0  0  0
   11.1271  -22.0046   13.2406 C   0  0  0  0  0  0  0  0  0  0  0  0
   11.1397  -21.4093   14.6015 C   0  0  0  0  0  0  0  0  0  0  0  0
    9.7644  -21.5532   15.1764 C   0  0  2  0  0  0  0  0  0  0  0  0
    8.8822  -20.6174   14.5227 N   0  0  0  0  0  0  0  0  0  0  0  0
    9.7496  -21.3815   16.6574 C   0  0  0  0  0  0  0  0  0  0  0  0
    9.6163  -20.2357   17.1577 O   0  0  0  0  0  0  0  0  0  0  0  0
   10.9052  -23.3645   13.0398 C   0  0  0  0  0  0  0  0  0  0  0  0
   10.9004  -23.8836   11.7596 C   0  0  0  0  0  0  0  0  0  0  0  0
    9.8818  -22.4741   17.5614 N   0  0  0  0  0  0  0  0  0  0  0  0
    9.8871  -22.3053   18.9933 C   0  0  1  0  0  0  0  0  0  0  0  0
    8.9260  -23.2414   19.6853 C   0  0  0  0  0  0  0  0  0  0  0  0
    8.7506  -22.9217   21.4362 S   0  0  0  0  0  0  0  0  0  0  0  0
   11.2367  -22.4723   19.5801 C   0  0  0  0  0  0  0  0  0  0  0  0
   12.0939  -23.2860   19.1477 O   0  0  0  0  0  0  0  0  0  0  0  0
   13.0094  -19.3368   21.4747 O   0  0  0  0  0  0  0  0  0  0  0  0
   12.9414  -20.4748   22.2424 C   0  0  0  0  0  0  0  0  0  0  0  0
   12.8506  -21.7348   21.3709 C   0  0  2  0  0  0  0  0  0  0  0  0
   11.5883  -21.6724   20.6926 N   0  0  0  0  0  0  0  0  0  0  0  0
   12.8333  -22.8804   22.3080 C   0  0  0  0  0  0  0  0  0  0  0  0
   11.7634  -23.5047   22.5028 O   0  0  0  0  0  0  0  0  0  0  0  0
   13.9616  -23.3162   23.0025 O   0  0  0  0  0  0  0  0  0  0  0  0
  2  3  2  0
  2  1  1  0
  4  3  1  0
  5  4  2  0
  6  7  1  0
  6  5  1  0
  7  8  1  6
  9 13  1  0
  9  7  1  0
 10  9  2  0
 11  5  1  0
 11 12  2  0
 12  2  1  0
 14 13  1  0
 14 15  1  1
 16 15  1  0
 17 14  1  0
 18 17  2  0
 19 20  1  0
 21 20  1  1
 21 23  1  0
 21 22  1  0
 22 17  1  0
 23 25  1  0
 24 23  2  0
M  END
$$$$
