YCS.pdb
     RDKit          3D

 25 25  0  0  1  0  0  0  0  0999 V2000
    6.5882  -19.6186   17.4770 O   0  0  0  0  0  0  0  0  0  0  0  0
    7.2076  -19.0898   18.5981 C   0  0  0  0  0  0  0  0  0  0  0  0
    8.5849  -19.0291   18.6265 C   0  0  0  0  0  0  0  0  0  0  0  0
    9.2091  -18.5041   19.7388 C   0  0  0  0  0  0  0  0  0  0  0  0
    8.4927  -18.0347   20.8310 C   0  0  0  0  0  0  0  0  0  0  0  0
    9.2121  -17.4782   22.0056 C   0  0  0  0  0  0  0  0  0  0  0  0
    9.2183  -15.9865   21.8734 C   0  0  2  0  0  0  0  0  0  0  0  0
   10.1173  -15.6134   20.8086 N   0  0  0  0  0  0  0  0  0  0  0  0
    9.5684  -15.3067   23.1534 C   0  0  0  0  0  0  0  0  0  0  0  0
   10.7607  -15.2895   23.5521 O   0  0  0  0  0  0  0  0  0  0  0  0
    7.1025  -18.1015   20.7900 C   0  0  0  0  0  0  0  0  0  0  0  0
    6.4671  -18.6255   19.6809 C   0  0  0  0  0  0  0  0  0  0  0  0
    8.5998  -14.6580   23.9717 N   0  0  0  0  0  0  0  0  0  0  0  0
    8.8535  -14.2997   25.3451 C   0  0  1  0  0  0  0  0  0  0  0  0
    7.7992  -13.3731   25.9008 C   0  0  0  0  0  0  0  0  0  0  0  0
    8.0411  -12.9654   27.6252 S   0  0  0  0  0  0  0  0  0  0  0  0
    8.9756  -15.4828   26.2276 C   0  0  0  0  0  0  0  0  0  0  0  0
    8.0729  -16.3481   26.3701 O   0  0  0  0  0  0  0  0  0  0  0  0
   11.8820  -17.6583   26.1445 O   0  0  0  0  0  0  0  0  0  0  0  0
   11.8241  -17.2950   27.4688 C   0  0  0  0  0  0  0  0  0  0  0  0
   10.4376  -16.7531   27.8417 C   0  0  2  0  0  0  0  0  0  0  0  0
   10.1759  -15.6555   26.9560 N   0  0  0  0  0  0  0  0  0  0  0  0
   10.5586  -16.2342   29.2227 C   0  0  0  0  0  0  0  0  0  0  0  0
   10.3413  -15.0201   29.4490 O   0  0  0  0  0  0  0  0  0  0  0  0
   10.9078  -17.0334   30.3110 O   0  0  0  0  0  0  0  0  0  0  0  0
  2  3  2  0
  2  1  1  0
  4  3  1  0
  5  4  2  0
  6  7  1  0
  6  5  1  0
  7  8  1  6
  9 13  1  0
  9  7  1  0
 10  9  2  0
 11  5  1  0
 11 12  2  0
 12  2  1  0
 14 13  1  0
 14 15  1  1
 16 15  1  0
 17 14  1  0
 18 17  2  0
 19 20  1  0
 21 20  1  6
 21 23  1  0
 21 22  1  0
 22 17  1  0
 23 25  1  0
 24 23  2  0
M  END
$$$$
