YCS.pdb
     RDKit          3D

 25 25  0  0  1  0  0  0  0  0999 V2000
    7.0718  -13.0784   17.3590 O   0  0  0  0  0  0  0  0  0  0  0  0
    7.3317  -13.5754   18.6261 C   0  0  0  0  0  0  0  0  0  0  0  0
    7.0030  -14.8855   18.9034 C   0  0  0  0  0  0  0  0  0  0  0  0
    7.2584  -15.3878   20.1623 C   0  0  0  0  0  0  0  0  0  0  0  0
    7.8367  -14.6142   21.1592 C   0  0  0  0  0  0  0  0  0  0  0  0
    8.0916  -15.2021   22.4994 C   0  0  0  0  0  0  0  0  0  0  0  0
    9.5639  -15.1216   22.7615 C   0  0  2  0  0  0  0  0  0  0  0  0
   10.2600  -15.9123   21.7759 N   0  0  0  0  0  0  0  0  0  0  0  0
    9.9149  -15.5380   24.1496 C   0  0  0  0  0  0  0  0  0  0  0  0
   10.5679  -16.5947   24.3443 O   0  0  0  0  0  0  0  0  0  0  0  0
    8.1640  -13.2928   20.8666 C   0  0  0  0  0  0  0  0  0  0  0  0
    7.9125  -12.7796   19.6089 C   0  0  0  0  0  0  0  0  0  0  0  0
    9.5409  -14.7839   25.2984 N   0  0  0  0  0  0  0  0  0  0  0  0
    9.9597  -15.1358   26.6325 C   0  0  1  0  0  0  0  0  0  0  0  0
    9.4738  -14.1484   27.6659 C   0  0  0  0  0  0  0  0  0  0  0  0
   10.7597  -13.5753   28.7689 S   0  0  0  0  0  0  0  0  0  0  0  0
    9.5304  -16.4987   27.0218 C   0  0  0  0  0  0  0  0  0  0  0  0
    8.3275  -16.8614   27.0949 O   0  0  0  0  0  0  0  0  0  0  0  0
   12.3409  -19.2570   26.7326 O   0  0  0  0  0  0  0  0  0  0  0  0
   11.0796  -19.7428   26.9820 C   0  0  0  0  0  0  0  0  0  0  0  0
   10.2626  -18.7679   27.8407 C   0  0  2  0  0  0  0  0  0  0  0  0
   10.5273  -17.4536   27.3309 N   0  0  0  0  0  0  0  0  0  0  0  0
   10.8133  -18.8687   29.2109 C   0  0  0  0  0  0  0  0  0  0  0  0
   11.4300  -17.8943   29.7035 O   0  0  0  0  0  0  0  0  0  0  0  0
   10.6841  -20.0087   30.0041 O   0  0  0  0  0  0  0  0  0  0  0  0
  2  3  2  0
  2  1  1  0
  4  3  1  0
  5  4  2  0
  6  7  1  0
  6  5  1  0
  7  8  1  6
  9 13  1  0
  9  7  1  0
 10  9  2  0
 11  5  1  0
 11 12  2  0
 12  2  1  0
 14 13  1  0
 14 15  1  1
 16 15  1  0
 17 14  1  0
 18 17  2  0
 19 20  1  0
 21 20  1  6
 21 23  1  0
 21 22  1  0
 22 17  1  0
 23 25  1  0
 24 23  2  0
M  END
$$$$
