YCS.pdb
     RDKit          3D

 25 25  0  0  1  0  0  0  0  0999 V2000
    5.0412  -10.7759   28.0991 O   0  0  0  0  0  0  0  0  0  0  0  0
    5.7969  -11.7477   27.4628 C   0  0  0  0  0  0  0  0  0  0  0  0
    7.1195  -11.8987   27.8228 C   0  0  0  0  0  0  0  0  0  0  0  0
    7.8784  -12.8636   27.1942 C   0  0  0  0  0  0  0  0  0  0  0  0
    7.3512  -13.6879   26.2097 C   0  0  0  0  0  0  0  0  0  0  0  0
    8.2104  -14.7125   25.5625 C   0  0  0  0  0  0  0  0  0  0  0  0
    7.3117  -15.7147   24.9064 C   0  0  2  0  0  0  0  0  0  0  0  0
    6.9022  -16.6907   25.8866 N   0  0  0  0  0  0  0  0  0  0  0  0
    7.9506  -16.3578   23.7225 C   0  0  0  0  0  0  0  0  0  0  0  0
    8.5204  -17.4722   23.8418 O   0  0  0  0  0  0  0  0  0  0  0  0
    6.0146  -13.5254   25.8552 C   0  0  0  0  0  0  0  0  0  0  0  0
    5.2453  -12.5619   26.4785 C   0  0  0  0  0  0  0  0  0  0  0  0
    7.9510  -15.7627   22.4286 N   0  0  0  0  0  0  0  0  0  0  0  0
    8.9821  -16.0174   21.4535 C   0  0  1  0  0  0  0  0  0  0  0  0
    8.8775  -15.1046   20.2556 C   0  0  0  0  0  0  0  0  0  0  0  0
    7.2516  -15.0840   19.5110 S   0  0  0  0  0  0  0  0  0  0  0  0
   10.3439  -15.9142   22.0265 C   0  0  0  0  0  0  0  0  0  0  0  0
   10.7606  -14.9161   22.6699 O   0  0  0  0  0  0  0  0  0  0  0  0
   11.9090  -19.2843   22.8820 O   0  0  0  0  0  0  0  0  0  0  0  0
   12.6470  -18.2125   23.3245 C   0  0  0  0  0  0  0  0  0  0  0  0
   12.5787  -17.0388   22.3381 C   0  0  2  0  0  0  0  0  0  0  0  0
   11.2331  -16.9990   21.8428 N   0  0  0  0  0  0  0  0  0  0  0  0
   13.4880  -17.3873   21.2234 C   0  0  0  0  0  0  0  0  0  0  0  0
   14.7232  -17.4524   21.4293 O   0  0  0  0  0  0  0  0  0  0  0  0
   13.0423  -17.6535   19.9288 O   0  0  0  0  0  0  0  0  0  0  0  0
  2  3  2  0
  2  1  1  0
  4  3  1  0
  5  4  2  0
  6  7  1  0
  6  5  1  0
  7  8  1  1
  9 13  1  0
  9  7  1  0
 10  9  2  0
 11  5  1  0
 11 12  2  0
 12  2  1  0
 14 13  1  0
 14 15  1  6
 16 15  1  0
 17 14  1  0
 18 17  2  0
 19 20  1  0
 21 20  1  1
 21 23  1  0
 21 22  1  0
 22 17  1  0
 23 25  1  0
 24 23  2  0
M  END
$$$$
