YCS.pdb
     RDKit          3D

 25 25  0  0  1  0  0  0  0  0999 V2000
   11.3402  -14.2527   29.9920 O   0  0  0  0  0  0  0  0  0  0  0  0
   10.3017  -14.6456   29.1629 C   0  0  0  0  0  0  0  0  0  0  0  0
    9.6798  -13.6926   28.3842 C   0  0  0  0  0  0  0  0  0  0  0  0
    8.6452  -14.0756   27.5563 C   0  0  0  0  0  0  0  0  0  0  0  0
    8.2108  -15.3919   27.4831 C   0  0  0  0  0  0  0  0  0  0  0  0
    7.0920  -15.7536   26.5753 C   0  0  0  0  0  0  0  0  0  0  0  0
    7.5497  -16.8920   25.7165 C   0  0  2  0  0  0  0  0  0  0  0  0
    8.8842  -17.2712   26.1120 N   0  0  0  0  0  0  0  0  0  0  0  0
    7.4771  -16.5686   24.2628 C   0  0  0  0  0  0  0  0  0  0  0  0
    6.3605  -16.3990   23.7101 O   0  0  0  0  0  0  0  0  0  0  0  0
    8.8470  -16.3446   28.2745 C   0  0  0  0  0  0  0  0  0  0  0  0
    9.8844  -15.9719   29.1072 C   0  0  0  0  0  0  0  0  0  0  0  0
    8.6346  -16.4375   23.4435 N   0  0  0  0  0  0  0  0  0  0  0  0
    8.5634  -16.2892   22.0111 C   0  0  1  0  0  0  0  0  0  0  0  0
    8.6504  -14.8456   21.5783 C   0  0  0  0  0  0  0  0  0  0  0  0
    7.3555  -13.8154   22.2568 S   0  0  0  0  0  0  0  0  0  0  0  0
    9.6046  -17.0722   21.3064 C   0  0  0  0  0  0  0  0  0  0  0  0
   10.7739  -17.2363   21.7418 O   0  0  0  0  0  0  0  0  0  0  0  0
    8.7750  -17.8082   17.4979 O   0  0  0  0  0  0  0  0  0  0  0  0
    9.3926  -18.9100   18.0398 C   0  0  0  0  0  0  0  0  0  0  0  0
   10.1306  -18.5576   19.3384 C   0  0  2  0  0  0  0  0  0  0  0  0
    9.2703  -17.6733   20.0702 N   0  0  0  0  0  0  0  0  0  0  0  0
   11.3442  -17.8146   18.9310 C   0  0  0  0  0  0  0  0  0  0  0  0
   11.3766  -16.5671   19.0536 O   0  0  0  0  0  0  0  0  0  0  0  0
   12.4789  -18.4337   18.4072 O   0  0  0  0  0  0  0  0  0  0  0  0
  2  3  2  0
  2  1  1  0
  4  3  1  0
  5  4  2  0
  6  7  1  0
  6  5  1  0
  7  8  1  1
  9 13  1  0
  9  7  1  0
 10  9  2  0
 11  5  1  0
 11 12  2  0
 12  2  1  0
 14 13  1  0
 14 15  1  1
 16 15  1  0
 17 14  1  0
 18 17  2  0
 19 20  1  0
 21 20  1  6
 21 23  1  0
 21 22  1  0
 22 17  1  0
 23 25  1  0
 24 23  2  0
M  END
$$$$
