YCS.pdb
     RDKit          3D

 25 25  0  0  1  0  0  0  0  0999 V2000
    7.7922  -11.3360   26.7602 O   0  0  0  0  0  0  0  0  0  0  0  0
    7.4621  -12.6721   26.5989 C   0  0  0  0  0  0  0  0  0  0  0  0
    8.4619  -13.5672   26.2816 C   0  0  0  0  0  0  0  0  0  0  0  0
    8.1415  -14.8989   26.1194 C   0  0  0  0  0  0  0  0  0  0  0  0
    6.8426  -15.3658   26.2658 C   0  0  0  0  0  0  0  0  0  0  0  0
    6.5490  -16.8102   26.0806 C   0  0  0  0  0  0  0  0  0  0  0  0
    6.0178  -16.9945   24.6926 C   0  0  2  0  0  0  0  0  0  0  0  0
    5.5010  -18.3350   24.5620 N   0  0  0  0  0  0  0  0  0  0  0  0
    7.0416  -16.6951   23.6508 C   0  0  0  0  0  0  0  0  0  0  0  0
    7.9785  -17.5057   23.4367 O   0  0  0  0  0  0  0  0  0  0  0  0
    5.8422  -14.4520   26.5863 C   0  0  0  0  0  0  0  0  0  0  0  0
    6.1520  -13.1158   26.7510 C   0  0  0  0  0  0  0  0  0  0  0  0
    7.0158  -15.5087   22.8633 N   0  0  0  0  0  0  0  0  0  0  0  0
    8.0268  -15.2019   21.8821 C   0  0  1  0  0  0  0  0  0  0  0  0
    7.7582  -13.8986   21.1692 C   0  0  0  0  0  0  0  0  0  0  0  0
    9.0104  -13.4689   19.9668 S   0  0  0  0  0  0  0  0  0  0  0  0
    9.3893  -15.1678   22.4618 C   0  0  0  0  0  0  0  0  0  0  0  0
    9.7155  -14.4542   23.4458 O   0  0  0  0  0  0  0  0  0  0  0  0
   11.4011  -17.8309   23.8525 O   0  0  0  0  0  0  0  0  0  0  0  0
   12.0512  -17.4780   22.6942 C   0  0  0  0  0  0  0  0  0  0  0  0
   11.7558  -16.0229   22.3060 C   0  0  2  0  0  0  0  0  0  0  0  0
   10.3871  -15.9837   21.8788 N   0  0  0  0  0  0  0  0  0  0  0  0
   12.6267  -15.7234   21.1472 C   0  0  0  0  0  0  0  0  0  0  0  0
   12.1130  -15.5365   20.0187 O   0  0  0  0  0  0  0  0  0  0  0  0
   14.0156  -15.6348   21.2384 O   0  0  0  0  0  0  0  0  0  0  0  0
  2  3  2  0
  2  1  1  0
  4  3  1  0
  5  4  2  0
  6  7  1  0
  6  5  1  0
  7  8  1  1
  9 13  1  0
  9  7  1  0
 10  9  2  0
 11  5  1  0
 11 12  2  0
 12  2  1  0
 14 13  1  0
 14 15  1  1
 16 15  1  0
 17 14  1  0
 18 17  2  0
 19 20  1  0
 21 20  1  6
 21 23  1  0
 21 22  1  0
 22 17  1  0
 23 25  1  0
 24 23  2  0
M  END
$$$$
