SFW.pdb
     RDKit          3D

 32 34  0  0  1  0  0  0  0  0999 V2000
    7.2419  -20.6607   23.0652 O   0  0  0  0  0  0  0  0  0  0  0  0
    6.4738  -20.6878   24.2345 C   0  0  0  0  0  0  0  0  0  0  0  0
    5.3687  -19.6836   24.1769 C   0  0  2  0  0  0  0  0  0  0  0  0
    4.5550  -19.8966   23.0154 N   0  0  0  0  0  0  0  0  0  0  0  0
    5.9498  -18.3129   24.2162 C   0  0  0  0  0  0  0  0  0  0  0  0
    6.0599  -17.6929   23.1239 O   0  0  0  0  0  0  0  0  0  0  0  0
    6.3816  -17.6688   25.3898 N   0  0  0  0  0  0  0  0  0  0  0  0
    7.2626  -16.5190   25.4237 C   0  0  1  0  0  0  0  0  0  0  0  0
    7.3388  -15.8907   26.7736 C   0  0  0  0  0  0  0  0  0  0  0  0
    7.1639  -14.4475   26.8225 C   0  0  0  0  0  0  0  0  0  0  0  0
    5.9243  -13.8787   26.6431 C   0  0  0  0  0  0  0  0  0  0  0  0
    5.7645  -12.4881   26.6886 C   0  0  0  0  0  0  0  0  0  0  0  0
    6.8512  -11.6700   26.9146 C   0  0  0  0  0  0  0  0  0  0  0  0
    8.0922  -12.2352   27.0943 C   0  0  0  0  0  0  0  0  0  0  0  0
    8.2373  -13.6203   27.0466 C   0  0  0  0  0  0  0  0  0  0  0  0
    8.5669  -16.7802   24.7847 C   0  0  0  0  0  0  0  0  0  0  0  0
    9.2365  -17.8229   25.0847 O   0  0  0  0  0  0  0  0  0  0  0  0
    9.1357  -15.9079   23.8208 N   0  0  0  0  0  0  0  0  0  0  0  0
   10.4050  -16.2834   23.1453 C   0  0  1  0  0  0  0  0  0  0  0  0
   10.3680  -15.6193   21.7926 C   0  0  0  0  0  0  0  0  0  0  0  0
    9.0679  -15.4254   21.1777 C   0  0  0  0  0  0  0  0  0  0  0  0
    8.0507  -16.3715   21.1767 C   0  0  0  0  0  0  0  0  0  0  0  0
    7.0304  -15.8614   20.4976 N   0  0  0  0  0  0  0  0  0  0  0  0
    7.3273  -14.6305   20.0550 C   0  0  0  0  0  0  0  0  0  0  0  0
    6.6097  -13.6843   19.3240 C   0  0  0  0  0  0  0  0  0  0  0  0
    7.1472  -12.4650   19.0111 C   0  0  0  0  0  0  0  0  0  0  0  0
    8.4268  -12.1585   19.4252 C   0  0  0  0  0  0  0  0  0  0  0  0
    9.1301  -13.0871   20.1414 C   0  0  0  0  0  0  0  0  0  0  0  0
    8.6051  -14.3230   20.4660 C   0  0  0  0  0  0  0  0  0  0  0  0
   11.5066  -15.7819   23.9531 C   0  0  0  0  0  0  0  0  0  0  0  0
   11.2763  -15.1258   24.9969 O   0  0  0  0  0  0  0  0  0  0  0  0
   12.8542  -15.9806   23.6578 O   0  0  0  0  0  0  0  0  0  0  0  0
  2  1  1  0
  3  2  1  0
  3  4  1  6
  5  3  1  0
  5  6  2  0
  7  5  1  0
  8  7  1  0
  8  9  1  1
 10  9  1  0
 10 15  1  0
 11 10  2  0
 12 11  1  0
 12 13  2  0
 13 14  1  0
 14 15  2  0
 16  8  1  0
 17 16  2  0
 18 16  1  0
 19 20  1  6
 19 18  1  0
 21 20  1  0
 22 21  2  0
 23 24  1  0
 23 22  1  0
 24 29  2  0
 25 26  2  0
 25 24  1  0
 26 27  1  0
 27 28  2  0
 29 28  1  0
 29 21  1  0
 30 32  1  0
 30 19  1  0
 31 30  2  0
M  END
$$$$
