SFW.pdb
     RDKit          3D

 32 34  0  0  1  0  0  0  0  0999 V2000
    9.9662  -19.8825   21.8447 O   0  0  0  0  0  0  0  0  0  0  0  0
    8.8697  -19.4761   21.0761 C   0  0  0  0  0  0  0  0  0  0  0  0
    9.2305  -18.3323   20.1849 C   0  0  2  0  0  0  0  0  0  0  0  0
   10.2279  -18.7300   19.2343 N   0  0  0  0  0  0  0  0  0  0  0  0
    9.6728  -17.1811   21.0199 C   0  0  0  0  0  0  0  0  0  0  0  0
   10.8850  -16.8408   20.9517 O   0  0  0  0  0  0  0  0  0  0  0  0
    8.8275  -16.4526   21.8763 N   0  0  0  0  0  0  0  0  0  0  0  0
    9.1999  -15.2302   22.5594 C   0  0  1  0  0  0  0  0  0  0  0  0
    8.1627  -14.1656   22.4425 C   0  0  0  0  0  0  0  0  0  0  0  0
    7.7708  -13.7945   21.0917 C   0  0  0  0  0  0  0  0  0  0  0  0
    8.3838  -12.7501   20.4391 C   0  0  0  0  0  0  0  0  0  0  0  0
    7.9989  -12.3968   19.1398 C   0  0  0  0  0  0  0  0  0  0  0  0
    6.9977  -13.0939   18.4971 C   0  0  0  0  0  0  0  0  0  0  0  0
    6.3824  -14.1387   19.1465 C   0  0  0  0  0  0  0  0  0  0  0  0
    6.7751  -14.4797   20.4393 C   0  0  0  0  0  0  0  0  0  0  0  0
    9.6940  -15.4695   23.9291 C   0  0  0  0  0  0  0  0  0  0  0  0
   10.3427  -14.5641   24.5497 O   0  0  0  0  0  0  0  0  0  0  0  0
    9.4782  -16.6908   24.6186 N   0  0  0  0  0  0  0  0  0  0  0  0
   10.0936  -16.9013   25.9549 C   0  0  1  0  0  0  0  0  0  0  0  0
    8.9523  -16.9220   26.9392 C   0  0  0  0  0  0  0  0  0  0  0  0
    7.8827  -15.9608   26.7442 C   0  0  0  0  0  0  0  0  0  0  0  0
    6.6250  -16.2759   26.2457 C   0  0  0  0  0  0  0  0  0  0  0  0
    5.9283  -15.1481   26.1751 N   0  0  0  0  0  0  0  0  0  0  0  0
    6.6649  -14.1118   26.6024 C   0  0  0  0  0  0  0  0  0  0  0  0
    6.3997  -12.7497   26.7406 C   0  0  0  0  0  0  0  0  0  0  0  0
    7.3399  -11.8847   27.2317 C   0  0  0  0  0  0  0  0  0  0  0  0
    8.5797  -12.3642   27.6003 C   0  0  0  0  0  0  0  0  0  0  0  0
    8.8393  -13.6997   27.4639 C   0  0  0  0  0  0  0  0  0  0  0  0
    7.9038  -14.5879   26.9696 C   0  0  0  0  0  0  0  0  0  0  0  0
   10.7952  -18.1759   25.9281 C   0  0  0  0  0  0  0  0  0  0  0  0
   11.4260  -18.5705   26.9377 O   0  0  0  0  0  0  0  0  0  0  0  0
   10.8236  -19.0364   24.8321 O   0  0  0  0  0  0  0  0  0  0  0  0
  2  1  1  0
  3  2  1  0
  3  4  1  6
  5  3  1  0
  5  6  2  0
  7  5  1  0
  8  7  1  0
  8  9  1  1
 10  9  1  0
 10 15  1  0
 11 10  2  0
 12 11  1  0
 12 13  2  0
 13 14  1  0
 14 15  2  0
 16  8  1  0
 17 16  2  0
 18 16  1  0
 19 20  1  1
 19 18  1  0
 21 20  1  0
 22 21  2  0
 23 24  1  0
 23 22  1  0
 24 29  2  0
 25 26  2  0
 25 24  1  0
 26 27  1  0
 27 28  2  0
 29 28  1  0
 29 21  1  0
 30 32  1  0
 30 19  1  0
 31 30  2  0
M  END
$$$$
