SFW.pdb
     RDKit          3D

 32 34  0  0  1  0  0  0  0  0999 V2000
   10.3406  -18.4155   21.2221 O   0  0  0  0  0  0  0  0  0  0  0  0
    9.1037  -18.3757   20.5688 C   0  0  0  0  0  0  0  0  0  0  0  0
    8.8319  -17.0160   20.0118 C   0  0  2  0  0  0  0  0  0  0  0  0
    9.7248  -16.7286   18.9271 N   0  0  0  0  0  0  0  0  0  0  0  0
    8.9293  -16.0100   21.1057 C   0  0  0  0  0  0  0  0  0  0  0  0
    9.8906  -15.1950   21.0668 O   0  0  0  0  0  0  0  0  0  0  0  0
    8.0207  -15.9118   22.1749 N   0  0  0  0  0  0  0  0  0  0  0  0
    8.1240  -14.9580   23.2608 C   0  0  1  0  0  0  0  0  0  0  0  0
    6.8164  -14.7020   23.9296 C   0  0  0  0  0  0  0  0  0  0  0  0
    6.8356  -13.7675   25.0441 C   0  0  0  0  0  0  0  0  0  0  0  0
    6.5639  -14.1887   26.3252 C   0  0  0  0  0  0  0  0  0  0  0  0
    6.5814  -13.2823   27.3926 C   0  0  0  0  0  0  0  0  0  0  0  0
    6.8723  -11.9527   27.1715 C   0  0  0  0  0  0  0  0  0  0  0  0
    7.1445  -11.5279   25.8920 C   0  0  0  0  0  0  0  0  0  0  0  0
    7.1237  -12.4403   24.8389 C   0  0  0  0  0  0  0  0  0  0  0  0
    9.2433  -15.2537   24.1758 C   0  0  0  0  0  0  0  0  0  0  0  0
    9.4608  -14.5140   25.1913 O   0  0  0  0  0  0  0  0  0  0  0  0
   10.1190  -16.3537   23.9841 N   0  0  0  0  0  0  0  0  0  0  0  0
   11.1881  -16.6266   24.9797 C   0  0  1  0  0  0  0  0  0  0  0  0
   11.0746  -18.0906   25.3203 C   0  0  0  0  0  0  0  0  0  0  0  0
    9.8499  -18.5362   25.9585 C   0  0  0  0  0  0  0  0  0  0  0  0
    9.6066  -18.4686   27.3245 C   0  0  0  0  0  0  0  0  0  0  0  0
    8.4072  -18.9936   27.5439 N   0  0  0  0  0  0  0  0  0  0  0  0
    7.8531  -19.4003   26.3922 C   0  0  0  0  0  0  0  0  0  0  0  0
    6.6273  -19.9888   26.0826 C   0  0  0  0  0  0  0  0  0  0  0  0
    6.2874  -20.2960   24.7928 C   0  0  0  0  0  0  0  0  0  0  0  0
    7.1723  -20.0198   23.7713 C   0  0  0  0  0  0  0  0  0  0  0  0
    8.3743  -19.4435   24.0756 C   0  0  0  0  0  0  0  0  0  0  0  0
    8.7355  -19.1270   25.3710 C   0  0  0  0  0  0  0  0  0  0  0  0
   12.4676  -16.3241   24.3559 C   0  0  0  0  0  0  0  0  0  0  0  0
   12.5247  -16.0505   23.1333 O   0  0  0  0  0  0  0  0  0  0  0  0
   13.6876  -16.3059   25.0295 O   0  0  0  0  0  0  0  0  0  0  0  0
  2  1  1  0
  3  2  1  0
  3  4  1  6
  5  3  1  0
  5  6  2  0
  7  5  1  0
  8  7  1  0
  8  9  1  1
 10  9  1  0
 10 15  1  0
 11 10  2  0
 12 11  1  0
 12 13  2  0
 13 14  1  0
 14 15  2  0
 16  8  1  0
 17 16  2  0
 18 16  1  0
 19 20  1  6
 19 18  1  0
 21 20  1  0
 22 21  2  0
 23 24  1  0
 23 22  1  0
 24 29  2  0
 25 26  2  0
 25 24  1  0
 26 27  1  0
 27 28  2  0
 29 28  1  0
 29 21  1  0
 30 32  1  0
 30 19  1  0
 31 30  2  0
M  END
$$$$
