SFW.pdb
     RDKit          3D

 32 34  0  0  1  0  0  0  0  0999 V2000
    9.6825  -19.0787   19.4061 O   0  0  0  0  0  0  0  0  0  0  0  0
   10.4941  -18.2929   18.5804 C   0  0  0  0  0  0  0  0  0  0  0  0
    9.9957  -16.8856   18.5164 C   0  0  2  0  0  0  0  0  0  0  0  0
   10.8480  -16.0870   17.6844 N   0  0  0  0  0  0  0  0  0  0  0  0
    9.8845  -16.3419   19.8985 C   0  0  0  0  0  0  0  0  0  0  0  0
   10.9536  -16.0500   20.4998 O   0  0  0  0  0  0  0  0  0  0  0  0
    8.6676  -16.1343   20.5726 N   0  0  0  0  0  0  0  0  0  0  0  0
    8.5509  -15.7074   21.9523 C   0  0  1  0  0  0  0  0  0  0  0  0
    7.2504  -15.0378   22.2406 C   0  0  0  0  0  0  0  0  0  0  0  0
    7.0755  -14.5256   23.5908 C   0  0  0  0  0  0  0  0  0  0  0  0
    7.4253  -13.2336   23.9081 C   0  0  0  0  0  0  0  0  0  0  0  0
    7.2568  -12.7487   25.2110 C   0  0  0  0  0  0  0  0  0  0  0  0
    6.7364  -13.5633   26.1945 C   0  0  0  0  0  0  0  0  0  0  0  0
    6.3857  -14.8557   25.8810 C   0  0  0  0  0  0  0  0  0  0  0  0
    6.5586  -15.3255   24.5805 C   0  0  0  0  0  0  0  0  0  0  0  0
    8.9331  -16.7624   22.9106 C   0  0  0  0  0  0  0  0  0  0  0  0
    8.5988  -17.9754   22.7040 O   0  0  0  0  0  0  0  0  0  0  0  0
    9.6790  -16.4942   24.0876 N   0  0  0  0  0  0  0  0  0  0  0  0
   10.3629  -17.6072   24.7962 C   0  0  1  0  0  0  0  0  0  0  0  0
   11.4640  -16.9704   25.6050 C   0  0  0  0  0  0  0  0  0  0  0  0
   11.1568  -16.5909   26.9716 C   0  0  0  0  0  0  0  0  0  0  0  0
   11.2442  -17.4462   28.0627 C   0  0  0  0  0  0  0  0  0  0  0  0
   10.8575  -16.7669   29.1357 N   0  0  0  0  0  0  0  0  0  0  0  0
   10.5226  -15.5114   28.8031 C   0  0  0  0  0  0  0  0  0  0  0  0
   10.0788  -14.4175   29.5454 C   0  0  0  0  0  0  0  0  0  0  0  0
    9.8192  -13.2105   28.9543 C   0  0  0  0  0  0  0  0  0  0  0  0
    9.9987  -13.0659   27.5942 C   0  0  0  0  0  0  0  0  0  0  0  0
   10.4332  -14.1391   26.8669 C   0  0  0  0  0  0  0  0  0  0  0  0
   10.6996  -15.3651   27.4453 C   0  0  0  0  0  0  0  0  0  0  0  0
    9.3842  -18.2600   25.6528 C   0  0  0  0  0  0  0  0  0  0  0  0
    9.7018  -19.2789   26.3114 O   0  0  0  0  0  0  0  0  0  0  0  0
    8.0688  -17.8293   25.8161 O   0  0  0  0  0  0  0  0  0  0  0  0
  2  1  1  0
  3  2  1  0
  3  4  1  6
  5  3  1  0
  5  6  2  0
  7  5  1  0
  8  7  1  0
  8  9  1  1
 10  9  1  0
 10 15  1  0
 11 10  2  0
 12 11  1  0
 12 13  2  0
 13 14  1  0
 14 15  2  0
 16  8  1  0
 17 16  2  0
 18 16  1  0
 19 20  1  1
 19 18  1  0
 21 20  1  0
 22 21  2  0
 23 24  1  0
 23 22  1  0
 24 29  2  0
 25 26  2  0
 25 24  1  0
 26 27  1  0
 27 28  2  0
 29 28  1  0
 29 21  1  0
 30 32  1  0
 30 19  1  0
 31 30  2  0
M  END
$$$$
