SFW.pdb
     RDKit          3D

 32 34  0  0  1  0  0  0  0  0999 V2000
   12.5637  -20.2542   20.8051 O   0  0  0  0  0  0  0  0  0  0  0  0
   13.4453  -19.6009   19.9366 C   0  0  0  0  0  0  0  0  0  0  0  0
   12.7357  -18.5639   19.1279 C   0  0  2  0  0  0  0  0  0  0  0  0
   13.6474  -17.9130   18.2325 N   0  0  0  0  0  0  0  0  0  0  0  0
   12.0621  -17.6034   20.0454 C   0  0  0  0  0  0  0  0  0  0  0  0
   12.7644  -16.6858   20.5497 O   0  0  0  0  0  0  0  0  0  0  0  0
   10.6976  -17.6549   20.3834 N   0  0  0  0  0  0  0  0  0  0  0  0
   10.0145  -16.6791   21.2084 C   0  0  1  0  0  0  0  0  0  0  0  0
    8.6193  -16.4155   20.7539 C   0  0  0  0  0  0  0  0  0  0  0  0
    8.0146  -15.1765   21.2177 C   0  0  0  0  0  0  0  0  0  0  0  0
    7.0464  -15.1844   22.1949 C   0  0  0  0  0  0  0  0  0  0  0  0
    6.4667  -13.9877   22.6341 C   0  0  0  0  0  0  0  0  0  0  0  0
    6.8610  -12.7833   22.0906 C   0  0  0  0  0  0  0  0  0  0  0  0
    7.8287  -12.7714   21.1133 C   0  0  0  0  0  0  0  0  0  0  0  0
    8.3973  -13.9695   20.6854 C   0  0  0  0  0  0  0  0  0  0  0  0
   10.1574  -16.9516   22.6517 C   0  0  0  0  0  0  0  0  0  0  0  0
   10.3697  -18.1380   23.0677 O   0  0  0  0  0  0  0  0  0  0  0  0
   10.0715  -15.9327   23.6355 N   0  0  0  0  0  0  0  0  0  0  0  0
   10.3298  -16.2617   25.0616 C   0  0  1  0  0  0  0  0  0  0  0  0
    9.8795  -15.0605   25.8531 C   0  0  0  0  0  0  0  0  0  0  0  0
    8.4508  -14.8431   25.9849 C   0  0  0  0  0  0  0  0  0  0  0  0
    7.4956  -15.8507   25.9404 C   0  0  0  0  0  0  0  0  0  0  0  0
    6.3040  -15.2783   26.0606 N   0  0  0  0  0  0  0  0  0  0  0  0
    6.4302  -13.9485   26.1823 C   0  0  0  0  0  0  0  0  0  0  0  0
    5.5065  -12.9171   26.3487 C   0  0  0  0  0  0  0  0  0  0  0  0
    5.9051  -11.6132   26.4700 C   0  0  0  0  0  0  0  0  0  0  0  0
    7.2491  -11.3055   26.4278 C   0  0  0  0  0  0  0  0  0  0  0  0
    8.1542  -12.3172   26.2639 C   0  0  0  0  0  0  0  0  0  0  0  0
    7.7713  -13.6387   26.1389 C   0  0  0  0  0  0  0  0  0  0  0  0
    9.5476  -17.4422   25.3967 C   0  0  0  0  0  0  0  0  0  0  0  0
    8.6484  -17.8447   24.6205 O   0  0  0  0  0  0  0  0  0  0  0  0
    9.7221  -18.2005   26.5529 O   0  0  0  0  0  0  0  0  0  0  0  0
  2  1  1  0
  3  2  1  0
  3  4  1  1
  5  3  1  0
  5  6  2  0
  7  5  1  0
  8  7  1  0
  8  9  1  6
 10  9  1  0
 10 15  1  0
 11 10  2  0
 12 11  1  0
 12 13  2  0
 13 14  1  0
 14 15  2  0
 16  8  1  0
 17 16  2  0
 18 16  1  0
 19 20  1  1
 19 18  1  0
 21 20  1  0
 22 21  2  0
 23 24  1  0
 23 22  1  0
 24 29  2  0
 25 26  2  0
 25 24  1  0
 26 27  1  0
 27 28  2  0
 29 28  1  0
 29 21  1  0
 30 32  1  0
 30 19  1  0
 31 30  2  0
M  END
$$$$
