SFW.pdb
     RDKit          3D

 32 34  0  0  1  0  0  0  0  0999 V2000
    9.9748  -19.4057   19.8680 O   0  0  0  0  0  0  0  0  0  0  0  0
    8.7681  -19.0186   19.2746 C   0  0  0  0  0  0  0  0  0  0  0  0
    8.8272  -17.5999   18.8089 C   0  0  2  0  0  0  0  0  0  0  0  0
    9.8757  -17.4296   17.8456 N   0  0  0  0  0  0  0  0  0  0  0  0
    8.9914  -16.7040   19.9873 C   0  0  0  0  0  0  0  0  0  0  0  0
   10.1343  -16.2133   20.1941 O   0  0  0  0  0  0  0  0  0  0  0  0
    7.9565  -16.3719   20.8803 N   0  0  0  0  0  0  0  0  0  0  0  0
    8.1142  -15.5324   22.0506 C   0  0  1  0  0  0  0  0  0  0  0  0
    6.8145  -15.0225   22.5737 C   0  0  0  0  0  0  0  0  0  0  0  0
    6.8762  -14.2389   23.7976 C   0  0  0  0  0  0  0  0  0  0  0  0
    7.2995  -12.9301   23.7790 C   0  0  0  0  0  0  0  0  0  0  0  0
    7.3591  -12.1830   24.9620 C   0  0  0  0  0  0  0  0  0  0  0  0
    6.9928  -12.7523   26.1634 C   0  0  0  0  0  0  0  0  0  0  0  0
    6.5691  -14.0606   26.1859 C   0  0  0  0  0  0  0  0  0  0  0  0
    6.5147  -14.7927   25.0015 C   0  0  0  0  0  0  0  0  0  0  0  0
    9.0020  -16.1301   23.0666 C   0  0  0  0  0  0  0  0  0  0  0  0
    8.7683  -17.2974   23.5232 O   0  0  0  0  0  0  0  0  0  0  0  0
   10.1412  -15.4570   23.5793 N   0  0  0  0  0  0  0  0  0  0  0  0
   10.9897  -16.1198   24.6037 C   0  0  1  0  0  0  0  0  0  0  0  0
   10.0395  -16.8292   25.5343 C   0  0  0  0  0  0  0  0  0  0  0  0
   10.2330  -16.6400   26.9600 C   0  0  0  0  0  0  0  0  0  0  0  0
   10.3743  -17.6736   27.8773 C   0  0  0  0  0  0  0  0  0  0  0  0
   10.4973  -17.1267   29.0807 N   0  0  0  0  0  0  0  0  0  0  0  0
   10.4447  -15.7890   28.9979 C   0  0  0  0  0  0  0  0  0  0  0  0
   10.5395  -14.7732   29.9486 C   0  0  0  0  0  0  0  0  0  0  0  0
   10.4725  -13.4530   29.5931 C   0  0  0  0  0  0  0  0  0  0  0  0
   10.3077  -13.1126   28.2665 C   0  0  0  0  0  0  0  0  0  0  0  0
   10.2141  -14.1092   27.3350 C   0  0  0  0  0  0  0  0  0  0  0  0
   10.2787  -15.4468   27.6744 C   0  0  0  0  0  0  0  0  0  0  0  0
   11.8641  -17.0603   23.9193 C   0  0  0  0  0  0  0  0  0  0  0  0
   11.5915  -17.4447   22.7570 O   0  0  0  0  0  0  0  0  0  0  0  0
   13.0321  -17.5900   24.4649 O   0  0  0  0  0  0  0  0  0  0  0  0
  2  1  1  0
  3  2  1  0
  3  4  1  6
  5  3  1  0
  5  6  2  0
  7  5  1  0
  8  7  1  0
  8  9  1  1
 10  9  1  0
 10 15  1  0
 11 10  2  0
 12 11  1  0
 12 13  2  0
 13 14  1  0
 14 15  2  0
 16  8  1  0
 17 16  2  0
 18 16  1  0
 19 20  1  1
 19 18  1  0
 21 20  1  0
 22 21  2  0
 23 24  1  0
 23 22  1  0
 24 29  2  0
 25 26  2  0
 25 24  1  0
 26 27  1  0
 27 28  2  0
 29 28  1  0
 29 21  1  0
 30 32  1  0
 30 19  1  0
 31 30  2  0
M  END
$$$$
