SFW.pdb
     RDKit          3D

 32 34  0  0  1  0  0  0  0  0999 V2000
    8.0275  -17.3767   17.7005 O   0  0  0  0  0  0  0  0  0  0  0  0
    9.2055  -18.0497   18.0433 C   0  0  0  0  0  0  0  0  0  0  0  0
    9.1746  -18.4985   19.4683 C   0  0  2  0  0  0  0  0  0  0  0  0
    8.0305  -19.3288   19.7099 N   0  0  0  0  0  0  0  0  0  0  0  0
    9.2047  -17.3049   20.3587 C   0  0  0  0  0  0  0  0  0  0  0  0
   10.1998  -16.5355   20.2717 O   0  0  0  0  0  0  0  0  0  0  0  0
    8.1977  -16.9831   21.2865 N   0  0  0  0  0  0  0  0  0  0  0  0
    8.2486  -15.8629   22.2041 C   0  0  1  0  0  0  0  0  0  0  0  0
    7.0578  -15.7960   23.0987 C   0  0  0  0  0  0  0  0  0  0  0  0
    7.0456  -14.7171   24.0743 C   0  0  0  0  0  0  0  0  0  0  0  0
    7.4253  -13.4422   23.7239 C   0  0  0  0  0  0  0  0  0  0  0  0
    7.4138  -12.4094   24.6695 C   0  0  0  0  0  0  0  0  0  0  0  0
    7.0202  -12.6589   25.9673 C   0  0  0  0  0  0  0  0  0  0  0  0
    6.6399  -13.9324   26.3214 C   0  0  0  0  0  0  0  0  0  0  0  0
    6.6561  -14.9509   25.3705 C   0  0  0  0  0  0  0  0  0  0  0  0
    9.5496  -15.7459   22.8906 C   0  0  0  0  0  0  0  0  0  0  0  0
   10.2549  -14.6913   22.7640 O   0  0  0  0  0  0  0  0  0  0  0  0
   10.0764  -16.7748   23.7137 N   0  0  0  0  0  0  0  0  0  0  0  0
   11.4625  -16.6622   24.2377 C   0  0  1  0  0  0  0  0  0  0  0  0
   11.4279  -15.5663   25.2720 C   0  0  0  0  0  0  0  0  0  0  0  0
   10.9555  -15.9136   26.5994 C   0  0  0  0  0  0  0  0  0  0  0  0
   10.7548  -17.2134   27.0465 C   0  0  0  0  0  0  0  0  0  0  0  0
   10.2905  -17.1424   28.2882 N   0  0  0  0  0  0  0  0  0  0  0  0
   10.1780  -15.8636   28.6767 C   0  0  0  0  0  0  0  0  0  0  0  0
    9.7645  -15.2642   29.8660 C   0  0  0  0  0  0  0  0  0  0  0  0
    9.7612  -13.9038   30.0173 C   0  0  0  0  0  0  0  0  0  0  0  0
   10.1750  -13.1017   28.9741 C   0  0  0  0  0  0  0  0  0  0  0  0
   10.5796  -13.6901   27.8080 C   0  0  0  0  0  0  0  0  0  0  0  0
   10.5892  -15.0608   27.6361 C   0  0  0  0  0  0  0  0  0  0  0  0
   11.8213  -17.9415   24.8313 C   0  0  0  0  0  0  0  0  0  0  0  0
   12.9728  -18.1217   25.2944 O   0  0  0  0  0  0  0  0  0  0  0  0
   10.9571  -19.0297   24.9394 O   0  0  0  0  0  0  0  0  0  0  0  0
  2  1  1  0
  3  2  1  0
  3  4  1  6
  5  3  1  0
  5  6  2  0
  7  5  1  0
  8  7  1  0
  8  9  1  1
 10  9  1  0
 10 15  1  0
 11 10  2  0
 12 11  1  0
 12 13  2  0
 13 14  1  0
 14 15  2  0
 16  8  1  0
 17 16  2  0
 18 16  1  0
 19 20  1  1
 19 18  1  0
 21 20  1  0
 22 21  2  0
 23 24  1  0
 23 22  1  0
 24 29  2  0
 25 26  2  0
 25 24  1  0
 26 27  1  0
 27 28  2  0
 29 28  1  0
 29 21  1  0
 30 32  1  0
 30 19  1  0
 31 30  2  0
M  END
$$$$
