SFW.pdb
     RDKit          3D

 32 34  0  0  1  0  0  0  0  0999 V2000
    7.4780  -20.6721   22.8580 O   0  0  0  0  0  0  0  0  0  0  0  0
    7.2912  -21.3208   21.6322 C   0  0  0  0  0  0  0  0  0  0  0  0
    6.5452  -20.4529   20.6714 C   0  0  2  0  0  0  0  0  0  0  0  0
    6.4945  -21.0646   19.3753 N   0  0  0  0  0  0  0  0  0  0  0  0
    7.1777  -19.1050   20.6358 C   0  0  0  0  0  0  0  0  0  0  0  0
    8.3282  -19.0122   20.1282 O   0  0  0  0  0  0  0  0  0  0  0  0
    6.5756  -17.9340   21.1305 N   0  0  0  0  0  0  0  0  0  0  0  0
    7.2216  -16.6388   21.1972 C   0  0  1  0  0  0  0  0  0  0  0  0
    6.3702  -15.5413   20.6555 C   0  0  0  0  0  0  0  0  0  0  0  0
    7.0108  -14.2440   20.5055 C   0  0  0  0  0  0  0  0  0  0  0  0
    7.7667  -13.9527   19.3937 C   0  0  0  0  0  0  0  0  0  0  0  0
    8.3829  -12.7025   19.2579 C   0  0  0  0  0  0  0  0  0  0  0  0
    8.2386  -11.7455   20.2402 C   0  0  0  0  0  0  0  0  0  0  0  0
    7.4837  -12.0332   21.3533 C   0  0  0  0  0  0  0  0  0  0  0  0
    6.8760  -13.2813   21.4758 C   0  0  0  0  0  0  0  0  0  0  0  0
    7.8207  -16.3670   22.5181 C   0  0  0  0  0  0  0  0  0  0  0  0
    7.0995  -15.9423   23.4800 O   0  0  0  0  0  0  0  0  0  0  0  0
    9.2003  -16.5606   22.7877 N   0  0  0  0  0  0  0  0  0  0  0  0
    9.8735  -15.7287   23.8188 C   0  0  1  0  0  0  0  0  0  0  0  0
    9.2456  -16.1098   25.1350 C   0  0  0  0  0  0  0  0  0  0  0  0
    8.0257  -15.4235   25.5182 C   0  0  0  0  0  0  0  0  0  0  0  0
    6.7713  -16.0185   25.5647 C   0  0  0  0  0  0  0  0  0  0  0  0
    5.8982  -15.0843   25.9213 N   0  0  0  0  0  0  0  0  0  0  0  0
    6.5165  -13.9094   26.1113 C   0  0  0  0  0  0  0  0  0  0  0  0
    6.0642  -12.6489   26.5000 C   0  0  0  0  0  0  0  0  0  0  0  0
    6.9240  -11.5934   26.6424 C   0  0  0  0  0  0  0  0  0  0  0  0
    8.2695  -11.7736   26.3976 C   0  0  0  0  0  0  0  0  0  0  0  0
    8.7123  -13.0096   26.0157 C   0  0  0  0  0  0  0  0  0  0  0  0
    7.8600  -14.0865   25.8659 C   0  0  0  0  0  0  0  0  0  0  0  0
   11.2928  -16.0491   23.7949 C   0  0  0  0  0  0  0  0  0  0  0  0
   12.0834  -15.4724   24.5794 O   0  0  0  0  0  0  0  0  0  0  0  0
   11.8746  -16.9859   22.9426 O   0  0  0  0  0  0  0  0  0  0  0  0
  2  1  1  0
  3  2  1  0
  3  4  1  6
  5  3  1  0
  5  6  2  0
  7  5  1  0
  8  7  1  0
  8  9  1  1
 10  9  1  0
 10 15  1  0
 11 10  2  0
 12 11  1  0
 12 13  2  0
 13 14  1  0
 14 15  2  0
 16  8  1  0
 17 16  2  0
 18 16  1  0
 19 20  1  1
 19 18  1  0
 21 20  1  0
 22 21  2  0
 23 24  1  0
 23 22  1  0
 24 29  2  0
 25 26  2  0
 25 24  1  0
 26 27  1  0
 27 28  2  0
 29 28  1  0
 29 21  1  0
 30 32  1  0
 30 19  1  0
 31 30  2  0
M  END
$$$$
