SFW.pdb
     RDKit          3D

 32 34  0  0  1  0  0  0  0  0999 V2000
   10.1771  -18.6866   18.7805 O   0  0  0  0  0  0  0  0  0  0  0  0
    8.9449  -18.0976   18.4756 C   0  0  0  0  0  0  0  0  0  0  0  0
    9.0569  -16.6083   18.4263 C   0  0  2  0  0  0  0  0  0  0  0  0
   10.0949  -16.2113   17.5200 N   0  0  0  0  0  0  0  0  0  0  0  0
    9.2798  -16.0879   19.8038 C   0  0  0  0  0  0  0  0  0  0  0  0
   10.4702  -15.8865   20.1674 O   0  0  0  0  0  0  0  0  0  0  0  0
    8.2508  -15.8080   20.7211 N   0  0  0  0  0  0  0  0  0  0  0  0
    8.4537  -15.5228   22.1271 C   0  0  1  0  0  0  0  0  0  0  0  0
    7.1822  -15.2152   22.8423 C   0  0  0  0  0  0  0  0  0  0  0  0
    7.3124  -14.5505   24.1296 C   0  0  0  0  0  0  0  0  0  0  0  0
    8.5507  -14.2597   24.6535 C   0  0  0  0  0  0  0  0  0  0  0  0
    8.6680  -13.6222   25.8949 C   0  0  0  0  0  0  0  0  0  0  0  0
    7.5400  -13.2773   26.6090 C   0  0  0  0  0  0  0  0  0  0  0  0
    6.3002  -13.5665   26.0884 C   0  0  0  0  0  0  0  0  0  0  0  0
    6.1977  -14.2011   24.8520 C   0  0  0  0  0  0  0  0  0  0  0  0
    9.3167  -16.5177   22.7927 C   0  0  0  0  0  0  0  0  0  0  0  0
    9.3466  -17.7247   22.3830 O   0  0  0  0  0  0  0  0  0  0  0  0
   10.1450  -16.1950   23.8988 N   0  0  0  0  0  0  0  0  0  0  0  0
   11.1111  -17.2000   24.4138 C   0  0  1  0  0  0  0  0  0  0  0  0
   11.8887  -16.5080   25.5041 C   0  0  0  0  0  0  0  0  0  0  0  0
   11.3111  -16.4987   26.8353 C   0  0  0  0  0  0  0  0  0  0  0  0
   10.9913  -17.6394   27.5607 C   0  0  0  0  0  0  0  0  0  0  0  0
   10.4568  -17.2460   28.7104 N   0  0  0  0  0  0  0  0  0  0  0  0
   10.4112  -15.9070   28.7749 C   0  0  0  0  0  0  0  0  0  0  0  0
    9.9679  -15.0169   29.7526 C   0  0  0  0  0  0  0  0  0  0  0  0
   10.0515  -13.6621   29.5766 C   0  0  0  0  0  0  0  0  0  0  0  0
   10.5853  -13.1590   28.4083 C   0  0  0  0  0  0  0  0  0  0  0  0
   11.0190  -14.0323   27.4498 C   0  0  0  0  0  0  0  0  0  0  0  0
   10.9422  -15.4025   27.6088 C   0  0  0  0  0  0  0  0  0  0  0  0
   10.3501  -18.3249   24.9363 C   0  0  0  0  0  0  0  0  0  0  0  0
   10.9397  -19.3672   25.3088 O   0  0  0  0  0  0  0  0  0  0  0  0
    8.9628  -18.3434   25.0695 O   0  0  0  0  0  0  0  0  0  0  0  0
  2  1  1  0
  3  2  1  0
  3  4  1  6
  5  3  1  0
  5  6  2  0
  7  5  1  0
  8  7  1  0
  8  9  1  1
 10  9  1  0
 10 15  1  0
 11 10  2  0
 12 11  1  0
 12 13  2  0
 13 14  1  0
 14 15  2  0
 16  8  1  0
 17 16  2  0
 18 16  1  0
 19 20  1  1
 19 18  1  0
 21 20  1  0
 22 21  2  0
 23 24  1  0
 23 22  1  0
 24 29  2  0
 25 26  2  0
 25 24  1  0
 26 27  1  0
 27 28  2  0
 29 28  1  0
 29 21  1  0
 30 32  1  0
 30 19  1  0
 31 30  2  0
M  END
$$$$
