SFW.pdb
     RDKit          3D

 32 34  0  0  1  0  0  0  0  0999 V2000
    9.0678  -22.3925   22.5092 O   0  0  0  0  0  0  0  0  0  0  0  0
    8.5201  -21.1069   22.4345 C   0  0  0  0  0  0  0  0  0  0  0  0
    8.3713  -20.6661   21.0145 C   0  0  2  0  0  0  0  0  0  0  0  0
    9.1821  -21.4727   20.1494 N   0  0  0  0  0  0  0  0  0  0  0  0
    8.7045  -19.2180   20.9135 C   0  0  0  0  0  0  0  0  0  0  0  0
    9.8649  -18.9105   20.5281 O   0  0  0  0  0  0  0  0  0  0  0  0
    7.8103  -18.1762   21.2195 N   0  0  0  0  0  0  0  0  0  0  0  0
    8.1555  -16.7690   21.2303 C   0  0  1  0  0  0  0  0  0  0  0  0
    6.9606  -15.8816   21.1447 C   0  0  0  0  0  0  0  0  0  0  0  0
    7.2241  -14.4641   20.9524 C   0  0  0  0  0  0  0  0  0  0  0  0
    7.6486  -13.9821   19.7359 C   0  0  0  0  0  0  0  0  0  0  0  0
    7.9032  -12.6164   19.5595 C   0  0  0  0  0  0  0  0  0  0  0  0
    7.7306  -11.7357   20.6064 C   0  0  0  0  0  0  0  0  0  0  0  0
    7.3063  -12.2139   21.8242 C   0  0  0  0  0  0  0  0  0  0  0  0
    7.0567  -13.5753   21.9862 C   0  0  0  0  0  0  0  0  0  0  0  0
    9.1112  -16.4238   22.3004 C   0  0  0  0  0  0  0  0  0  0  0  0
   10.0062  -15.5367   22.1064 O   0  0  0  0  0  0  0  0  0  0  0  0
    9.0876  -17.0427   23.5771 N   0  0  0  0  0  0  0  0  0  0  0  0
   10.1159  -16.6848   24.5886 C   0  0  1  0  0  0  0  0  0  0  0  0
    9.8253  -15.2615   24.9907 C   0  0  0  0  0  0  0  0  0  0  0  0
    8.5078  -14.9730   25.5263 C   0  0  0  0  0  0  0  0  0  0  0  0
    7.5209  -15.9269   25.7400 C   0  0  0  0  0  0  0  0  0  0  0  0
    6.4481  -15.2962   26.2025 N   0  0  0  0  0  0  0  0  0  0  0  0
    6.6826  -13.9795   26.3031 C   0  0  0  0  0  0  0  0  0  0  0  0
    5.9068  -12.9064   26.7405 C   0  0  0  0  0  0  0  0  0  0  0  0
    6.4004  -11.6299   26.7630 C   0  0  0  0  0  0  0  0  0  0  0  0
    7.6934  -11.3924   26.3452 C   0  0  0  0  0  0  0  0  0  0  0  0
    8.4533  -12.4449   25.9158 C   0  0  0  0  0  0  0  0  0  0  0  0
    7.9726  -13.7398   25.8850 C   0  0  0  0  0  0  0  0  0  0  0  0
    9.9709  -17.5950   25.7148 C   0  0  0  0  0  0  0  0  0  0  0  0
    8.9981  -18.3849   25.7668 O   0  0  0  0  0  0  0  0  0  0  0  0
   10.8609  -17.6724   26.7845 O   0  0  0  0  0  0  0  0  0  0  0  0
  2  1  1  0
  3  2  1  0
  3  4  1  6
  5  3  1  0
  5  6  2  0
  7  5  1  0
  8  7  1  0
  8  9  1  1
 10  9  1  0
 10 15  1  0
 11 10  2  0
 12 11  1  0
 12 13  2  0
 13 14  1  0
 14 15  2  0
 16  8  1  0
 17 16  2  0
 18 16  1  0
 19 20  1  1
 19 18  1  0
 21 20  1  0
 22 21  2  0
 23 24  1  0
 23 22  1  0
 24 29  2  0
 25 26  2  0
 25 24  1  0
 26 27  1  0
 27 28  2  0
 29 28  1  0
 29 21  1  0
 30 32  1  0
 30 19  1  0
 31 30  2  0
M  END
$$$$
