SFW.pdb
     RDKit          3D

 32 34  0  0  1  0  0  0  0  0999 V2000
    9.6399  -20.1824   19.3075 O   0  0  0  0  0  0  0  0  0  0  0  0
    9.4273  -19.1561   20.2347 C   0  0  0  0  0  0  0  0  0  0  0  0
    8.8085  -17.9617   19.5841 C   0  0  2  0  0  0  0  0  0  0  0  0
    9.4017  -17.7238   18.3003 N   0  0  0  0  0  0  0  0  0  0  0  0
    8.9365  -16.7880   20.4919 C   0  0  0  0  0  0  0  0  0  0  0  0
    9.8912  -15.9907   20.2859 O   0  0  0  0  0  0  0  0  0  0  0  0
    8.0633  -16.5138   21.5601 N   0  0  0  0  0  0  0  0  0  0  0  0
    8.1971  -15.3928   22.4684 C   0  0  1  0  0  0  0  0  0  0  0  0
    6.9751  -15.1699   23.2930 C   0  0  0  0  0  0  0  0  0  0  0  0
    6.9994  -14.0183   24.1813 C   0  0  0  0  0  0  0  0  0  0  0  0
    7.4355  -12.7915   23.7373 C   0  0  0  0  0  0  0  0  0  0  0  0
    7.4588  -11.6881   24.5994 C   0  0  0  0  0  0  0  0  0  0  0  0
    7.0433  -11.8188   25.9077 C   0  0  0  0  0  0  0  0  0  0  0  0
    6.6067  -13.0439   26.3552 C   0  0  0  0  0  0  0  0  0  0  0  0
    6.5887  -14.1336   25.4869 C   0  0  0  0  0  0  0  0  0  0  0  0
    9.4627  -15.4204   23.2268 C   0  0  0  0  0  0  0  0  0  0  0  0
   10.1065  -14.3426   23.4494 O   0  0  0  0  0  0  0  0  0  0  0  0
   10.0208  -16.6191   23.7418 N   0  0  0  0  0  0  0  0  0  0  0  0
   11.3359  -16.5821   24.4330 C   0  0  1  0  0  0  0  0  0  0  0  0
   11.1916  -17.4626   25.6478 C   0  0  0  0  0  0  0  0  0  0  0  0
   10.2989  -17.0114   26.6991 C   0  0  0  0  0  0  0  0  0  0  0  0
    9.1011  -17.6313   27.0321 C   0  0  0  0  0  0  0  0  0  0  0  0
    8.5435  -16.9262   28.0089 N   0  0  0  0  0  0  0  0  0  0  0  0
    9.3148  -15.8777   28.3326 C   0  0  0  0  0  0  0  0  0  0  0  0
    9.1914  -14.8640   29.2823 C   0  0  0  0  0  0  0  0  0  0  0  0
   10.1522  -13.8999   29.4276 C   0  0  0  0  0  0  0  0  0  0  0  0
   11.2701  -13.9255   28.6198 C   0  0  0  0  0  0  0  0  0  0  0  0
   11.3899  -14.9193   27.6883 C   0  0  0  0  0  0  0  0  0  0  0  0
   10.4308  -15.9003   27.5263 C   0  0  0  0  0  0  0  0  0  0  0  0
   12.3380  -17.1032   23.5153 C   0  0  0  0  0  0  0  0  0  0  0  0
   11.9884  -17.6349   22.4346 O   0  0  0  0  0  0  0  0  0  0  0  0
   13.7126  -17.0558   23.7404 O   0  0  0  0  0  0  0  0  0  0  0  0
  2  1  1  0
  3  2  1  0
  3  4  1  6
  5  3  1  0
  5  6  2  0
  7  5  1  0
  8  7  1  0
  8  9  1  1
 10  9  1  0
 10 15  1  0
 11 10  2  0
 12 11  1  0
 12 13  2  0
 13 14  1  0
 14 15  2  0
 16  8  1  0
 17 16  2  0
 18 16  1  0
 19 20  1  1
 19 18  1  0
 21 20  1  0
 22 21  2  0
 23 24  1  0
 23 22  1  0
 24 29  2  0
 25 26  2  0
 25 24  1  0
 26 27  1  0
 27 28  2  0
 29 28  1  0
 29 21  1  0
 30 32  1  0
 30 19  1  0
 31 30  2  0
M  END
$$$$
