AIW.pdb
     RDKit          3D

 28 29  0  0  1  0  0  0  0  0999 V2000
    9.9844  -19.4135   20.1707 C   0  0  0  0  0  0  0  0  0  0  0  0
    9.8490  -18.1884   19.2921 C   0  0  2  0  0  0  0  0  0  0  0  0
   10.7912  -18.1705   18.2152 N   0  0  0  0  0  0  0  0  0  0  0  0
    9.9836  -16.9947   20.1797 C   0  0  0  0  0  0  0  0  0  0  0  0
   11.1257  -16.6062   20.5377 O   0  0  0  0  0  0  0  0  0  0  0  0
    6.9527  -12.6260   19.4783 C   0  0  0  0  0  0  0  0  0  0  0  0
    8.0717  -13.5501   19.8385 C   0  0  0  0  0  0  0  0  0  0  0  0
    7.9663  -14.1048   21.2499 C   0  0  2  0  0  0  0  0  0  0  0  0
    7.9845  -12.9935   22.2551 C   0  0  0  0  0  0  0  0  0  0  0  0
    9.0768  -15.0757   21.5019 C   0  0  2  0  0  0  0  0  0  0  0  0
    8.8706  -16.2682   20.6448 N   0  0  0  0  0  0  0  0  0  0  0  0
    9.1098  -15.6248   22.8709 C   0  0  0  0  0  0  0  0  0  0  0  0
    8.3553  -16.6060   23.1775 O   0  0  0  0  0  0  0  0  0  0  0  0
    9.9097  -15.1889   23.9398 N   0  0  0  0  0  0  0  0  0  0  0  0
    9.9193  -15.8336   25.1975 C   0  0  1  0  0  0  0  0  0  0  0  0
    8.6786  -16.4783   25.6501 C   0  0  0  0  0  0  0  0  0  0  0  0
    7.5900  -15.4838   25.7814 C   0  0  0  0  0  0  0  0  0  0  0  0
    6.2645  -15.6770   25.4392 C   0  0  0  0  0  0  0  0  0  0  0  0
    5.5252  -14.5982   25.6580 N   0  0  0  0  0  0  0  0  0  0  0  0
    6.3555  -13.6606   26.1542 C   0  0  0  0  0  0  0  0  0  0  0  0
    6.1422  -12.3715   26.5541 C   0  0  0  0  0  0  0  0  0  0  0  0
    7.2052  -11.6215   27.0332 C   0  0  0  0  0  0  0  0  0  0  0  0
    8.4739  -12.1537   27.1132 C   0  0  0  0  0  0  0  0  0  0  0  0
    8.7078  -13.4690   26.7086 C   0  0  0  0  0  0  0  0  0  0  0  0
    7.6498  -14.1844   26.2424 C   0  0  0  0  0  0  0  0  0  0  0  0
   11.0324  -16.8094   25.2142 C   0  0  0  0  0  0  0  0  0  0  0  0
   12.1908  -16.6835   25.9663 O   0  0  0  0  0  0  0  0  0  0  0  0
   10.9529  -17.8375   24.5046 O   0  0  0  0  0  0  0  0  0  0  0  0
  2  1  1  1
  3  2  1  0
  4 11  1  0
  4  2  1  0
  5  4  2  0
  6  7  1  0
  7  8  1  0
  8  9  1  1
 10 11  1  6
 10  8  1  0
 12 10  1  0
 13 12  2  0
 14 12  1  0
 15 16  1  6
 15 14  1  0
 17 16  1  0
 18 17  2  0
 19 18  1  0
 20 19  1  0
 20 25  2  0
 21 20  1  0
 22 21  2  0
 22 23  1  0
 23 24  2  0
 24 25  1  0
 25 17  1  0
 26 15  1  0
 27 26  1  0
 28 26  2  0
M  END
$$$$
