AIW.pdb
     RDKit          3D

 28 29  0  0  1  0  0  0  0  0999 V2000
    7.2987  -18.9106   18.4127 C   0  0  0  0  0  0  0  0  0  0  0  0
    7.1087  -18.6280   19.8875 C   0  0  2  0  0  0  0  0  0  0  0  0
    5.7552  -18.3042   20.2209 N   0  0  0  0  0  0  0  0  0  0  0  0
    8.0569  -17.5324   20.2502 C   0  0  0  0  0  0  0  0  0  0  0  0
    9.2930  -17.6907   20.0754 O   0  0  0  0  0  0  0  0  0  0  0  0
    7.2346  -12.5050   18.9143 C   0  0  0  0  0  0  0  0  0  0  0  0
    7.8504  -13.8042   19.3252 C   0  0  0  0  0  0  0  0  0  0  0  0
    8.0625  -13.9240   20.8258 C   0  0  2  0  0  0  0  0  0  0  0  0
    8.9615  -12.8314   21.3194 C   0  0  0  0  0  0  0  0  0  0  0  0
    8.6227  -15.2717   21.1568 C   0  0  2  0  0  0  0  0  0  0  0  0
    7.6249  -16.3056   20.7897 N   0  0  0  0  0  0  0  0  0  0  0  0
    8.8564  -15.4998   22.5956 C   0  0  0  0  0  0  0  0  0  0  0  0
    7.8682  -15.5228   23.4014 O   0  0  0  0  0  0  0  0  0  0  0  0
   10.0910  -15.7114   23.2306 N   0  0  0  0  0  0  0  0  0  0  0  0
   10.2078  -15.9042   24.6258 C   0  0  1  0  0  0  0  0  0  0  0  0
    8.9751  -16.1183   25.3968 C   0  0  0  0  0  0  0  0  0  0  0  0
    8.7455  -14.9989   26.3379 C   0  0  0  0  0  0  0  0  0  0  0  0
    9.4858  -14.7238   27.4726 C   0  0  0  0  0  0  0  0  0  0  0  0
    9.0329  -13.6615   28.1244 N   0  0  0  0  0  0  0  0  0  0  0  0
    7.9732  -13.2086   27.4267 C   0  0  0  0  0  0  0  0  0  0  0  0
    7.1289  -12.1539   27.6309 C   0  0  0  0  0  0  0  0  0  0  0  0
    6.1007  -11.9195   26.7310 C   0  0  0  0  0  0  0  0  0  0  0  0
    5.9153  -12.7320   25.6335 C   0  0  0  0  0  0  0  0  0  0  0  0
    6.7695  -13.8134   25.4111 C   0  0  0  0  0  0  0  0  0  0  0  0
    7.7702  -14.0230   26.3074 C   0  0  0  0  0  0  0  0  0  0  0  0
   11.1552  -17.0159   24.8665 C   0  0  0  0  0  0  0  0  0  0  0  0
   11.8850  -17.2025   26.0309 O   0  0  0  0  0  0  0  0  0  0  0  0
   11.3345  -17.8696   23.9687 O   0  0  0  0  0  0  0  0  0  0  0  0
  2  1  1  6
  3  2  1  0
  4 11  1  0
  4  2  1  0
  5  4  2  0
  6  7  1  0
  7  8  1  0
  8  9  1  6
 10 11  1  1
 10  8  1  0
 12 10  1  0
 13 12  2  0
 14 12  1  0
 15 16  1  6
 15 14  1  0
 17 16  1  0
 18 17  2  0
 19 18  1  0
 20 19  1  0
 20 25  2  0
 21 20  1  0
 22 21  2  0
 22 23  1  0
 23 24  2  0
 24 25  1  0
 25 17  1  0
 26 15  1  0
 27 26  1  0
 28 26  2  0
M  END
$$$$
