AIW.pdb
     RDKit          3D

 28 29  0  0  1  0  0  0  0  0999 V2000
    8.5933  -20.1431   21.5542 C   0  0  0  0  0  0  0  0  0  0  0  0
    8.2471  -19.2230   20.4032 C   0  0  2  0  0  0  0  0  0  0  0  0
    8.6152  -19.7635   19.1303 N   0  0  0  0  0  0  0  0  0  0  0  0
    8.9112  -17.9127   20.6736 C   0  0  0  0  0  0  0  0  0  0  0  0
   10.1390  -17.7724   20.4361 O   0  0  0  0  0  0  0  0  0  0  0  0
    6.3659  -13.2737   19.6108 C   0  0  0  0  0  0  0  0  0  0  0  0
    7.4565  -14.2790   19.8006 C   0  0  0  0  0  0  0  0  0  0  0  0
    7.9210  -14.4010   21.2429 C   0  0  2  0  0  0  0  0  0  0  0  0
    8.4974  -13.1033   21.7219 C   0  0  0  0  0  0  0  0  0  0  0  0
    8.9179  -15.5102   21.3667 C   0  0  2  0  0  0  0  0  0  0  0  0
    8.2148  -16.8042   21.1922 N   0  0  0  0  0  0  0  0  0  0  0  0
    9.5437  -15.6237   22.6980 C   0  0  0  0  0  0  0  0  0  0  0  0
   10.5867  -14.9411   22.9673 O   0  0  0  0  0  0  0  0  0  0  0  0
    9.1170  -16.4250   23.7695 N   0  0  0  0  0  0  0  0  0  0  0  0
    9.8254  -16.5073   24.9896 C   0  0  1  0  0  0  0  0  0  0  0  0
    9.6864  -15.3972   25.9426 C   0  0  0  0  0  0  0  0  0  0  0  0
    8.2762  -14.9555   26.0294 C   0  0  0  0  0  0  0  0  0  0  0  0
    7.1613  -15.7398   25.7990 C   0  0  0  0  0  0  0  0  0  0  0  0
    6.0305  -15.0618   25.9399 N   0  0  0  0  0  0  0  0  0  0  0  0
    6.3786  -13.8029   26.2693 C   0  0  0  0  0  0  0  0  0  0  0  0
    5.6329  -12.6882   26.5310 C   0  0  0  0  0  0  0  0  0  0  0  0
    6.2717  -11.4999   26.8499 C   0  0  0  0  0  0  0  0  0  0  0  0
    7.6465  -11.4232   26.9076 C   0  0  0  0  0  0  0  0  0  0  0  0
    8.4221  -12.5532   26.6429 C   0  0  0  0  0  0  0  0  0  0  0  0
    7.7729  -13.7068   26.3325 C   0  0  0  0  0  0  0  0  0  0  0  0
    9.4762  -17.7865   25.6478 C   0  0  0  0  0  0  0  0  0  0  0  0
    8.6490  -18.7600   25.1081 O   0  0  0  0  0  0  0  0  0  0  0  0
    9.9468  -18.0383   26.7800 O   0  0  0  0  0  0  0  0  0  0  0  0
  2  1  1  1
  3  2  1  0
  4 11  1  0
  4  2  1  0
  5  4  2  0
  6  7  1  0
  7  8  1  0
  8  9  1  6
 10 11  1  1
 10  8  1  0
 12 10  1  0
 13 12  2  0
 14 12  1  0
 15 16  1  1
 15 14  1  0
 17 16  1  0
 18 17  2  0
 19 18  1  0
 20 19  1  0
 20 25  2  0
 21 20  1  0
 22 21  2  0
 22 23  1  0
 23 24  2  0
 24 25  1  0
 25 17  1  0
 26 15  1  0
 27 26  1  0
 28 26  2  0
M  END
$$$$
