AIW.pdb
     RDKit          3D

 28 29  0  0  1  0  0  0  0  0999 V2000
   11.5464  -18.8325   19.5595 C   0  0  0  0  0  0  0  0  0  0  0  0
   11.4956  -17.4730   18.8960 C   0  0  2  0  0  0  0  0  0  0  0  0
   12.7413  -17.1001   18.2982 N   0  0  0  0  0  0  0  0  0  0  0  0
   11.0522  -16.4944   19.9336 C   0  0  0  0  0  0  0  0  0  0  0  0
   11.9071  -15.8194   20.5637 O   0  0  0  0  0  0  0  0  0  0  0  0
    6.8584  -13.1594   19.2895 C   0  0  0  0  0  0  0  0  0  0  0  0
    8.1557  -13.7235   19.7740 C   0  0  0  0  0  0  0  0  0  0  0  0
    7.9960  -14.7011   20.9272 C   0  0  2  0  0  0  0  0  0  0  0  0
    7.3745  -14.0229   22.1101 C   0  0  0  0  0  0  0  0  0  0  0  0
    9.3235  -15.2931   21.2831 C   0  0  2  0  0  0  0  0  0  0  0  0
    9.6952  -16.2868   20.2470 N   0  0  0  0  0  0  0  0  0  0  0  0
    9.3298  -16.0698   22.5375 C   0  0  0  0  0  0  0  0  0  0  0  0
    9.3479  -17.3441   22.4926 O   0  0  0  0  0  0  0  0  0  0  0  0
    9.3227  -15.5640   23.8476 N   0  0  0  0  0  0  0  0  0  0  0  0
    9.4589  -16.3914   24.9852 C   0  0  1  0  0  0  0  0  0  0  0  0
    9.2230  -15.7908   26.3056 C   0  0  0  0  0  0  0  0  0  0  0  0
    7.9695  -15.0033   26.3058 C   0  0  0  0  0  0  0  0  0  0  0  0
    6.7030  -15.4878   26.0366 C   0  0  0  0  0  0  0  0  0  0  0  0
    5.7772  -14.5406   26.0996 N   0  0  0  0  0  0  0  0  0  0  0  0
    6.4196  -13.3992   26.4148 C   0  0  0  0  0  0  0  0  0  0  0  0
    5.9717  -12.1228   26.6078 C   0  0  0  0  0  0  0  0  0  0  0  0
    6.8773  -11.1238   26.9297 C   0  0  0  0  0  0  0  0  0  0  0  0
    8.2222  -11.3957   27.0585 C   0  0  0  0  0  0  0  0  0  0  0  0
    8.6952  -12.6946   26.8645 C   0  0  0  0  0  0  0  0  0  0  0  0
    7.7880  -13.6571   26.5496 C   0  0  0  0  0  0  0  0  0  0  0  0
    8.5922  -17.5782   24.8066 C   0  0  0  0  0  0  0  0  0  0  0  0
    7.5809  -17.6914   23.8644 O   0  0  0  0  0  0  0  0  0  0  0  0
    8.7593  -18.5726   25.5484 O   0  0  0  0  0  0  0  0  0  0  0  0
  2  1  1  1
  3  2  1  0
  4 11  1  0
  4  2  1  0
  5  4  2  0
  6  7  1  0
  7  8  1  0
  8  9  1  1
 10 11  1  6
 10  8  1  0
 12 10  1  0
 13 12  2  0
 14 12  1  0
 15 16  1  1
 15 14  1  0
 17 16  1  0
 18 17  2  0
 19 18  1  0
 20 19  1  0
 20 25  2  0
 21 20  1  0
 22 21  2  0
 22 23  1  0
 23 24  2  0
 24 25  1  0
 25 17  1  0
 26 15  1  0
 27 26  1  0
 28 26  2  0
M  END
$$$$
