AIW.pdb
     RDKit          3D

 28 29  0  0  1  0  0  0  0  0999 V2000
    7.5855  -19.3662   20.5249 C   0  0  0  0  0  0  0  0  0  0  0  0
    7.6621  -18.6005   19.2214 C   0  0  2  0  0  0  0  0  0  0  0  0
    8.1306  -19.4028   18.1329 N   0  0  0  0  0  0  0  0  0  0  0  0
    8.5328  -17.4110   19.4616 C   0  0  0  0  0  0  0  0  0  0  0  0
    9.7710  -17.4887   19.2508 O   0  0  0  0  0  0  0  0  0  0  0  0
    6.7774  -12.3033   18.5319 C   0  0  0  0  0  0  0  0  0  0  0  0
    7.7169  -13.4615   18.6399 C   0  0  0  0  0  0  0  0  0  0  0  0
    8.1373  -13.7669   20.0686 C   0  0  2  0  0  0  0  0  0  0  0  0
    8.9104  -12.6204   20.6463 C   0  0  0  0  0  0  0  0  0  0  0  0
    8.9397  -15.0295   20.1065 C   0  0  2  0  0  0  0  0  0  0  0  0
    8.0240  -16.1814   19.9221 N   0  0  0  0  0  0  0  0  0  0  0  0
    9.5929  -15.2999   21.4015 C   0  0  0  0  0  0  0  0  0  0  0  0
   10.6491  -14.6618   21.7229 O   0  0  0  0  0  0  0  0  0  0  0  0
    9.1804  -16.2146   22.3841 N   0  0  0  0  0  0  0  0  0  0  0  0
    9.0503  -15.8629   23.7467 C   0  0  1  0  0  0  0  0  0  0  0  0
    7.6965  -15.6448   24.2752 C   0  0  0  0  0  0  0  0  0  0  0  0
    7.7531  -15.0578   25.6330 C   0  0  0  0  0  0  0  0  0  0  0  0
    8.1418  -15.7115   26.7875 C   0  0  0  0  0  0  0  0  0  0  0  0
    8.0772  -14.9288   27.8559 N   0  0  0  0  0  0  0  0  0  0  0  0
    7.6398  -13.7298   27.4248 C   0  0  0  0  0  0  0  0  0  0  0  0
    7.3885  -12.5590   28.0830 C   0  0  0  0  0  0  0  0  0  0  0  0
    6.9349  -11.4599   27.3702 C   0  0  0  0  0  0  0  0  0  0  0  0
    6.7328  -11.5275   26.0086 C   0  0  0  0  0  0  0  0  0  0  0  0
    6.9851  -12.7164   25.3220 C   0  0  0  0  0  0  0  0  0  0  0  0
    7.4292  -13.7804   26.0426 C   0  0  0  0  0  0  0  0  0  0  0  0
    9.7543  -16.8791   24.5611 C   0  0  0  0  0  0  0  0  0  0  0  0
   10.8845  -16.6413   25.3288 O   0  0  0  0  0  0  0  0  0  0  0  0
    9.3214  -18.0536   24.5785 O   0  0  0  0  0  0  0  0  0  0  0  0
  2  1  1  1
  3  2  1  0
  4 11  1  0
  4  2  1  0
  5  4  2  0
  6  7  1  0
  7  8  1  0
  8  9  1  6
 10 11  1  1
 10  8  1  0
 12 10  1  0
 13 12  2  0
 14 12  1  0
 15 16  1  1
 15 14  1  0
 17 16  1  0
 18 17  2  0
 19 18  1  0
 20 19  1  0
 20 25  2  0
 21 20  1  0
 22 21  2  0
 22 23  1  0
 23 24  2  0
 24 25  1  0
 25 17  1  0
 26 15  1  0
 27 26  1  0
 28 26  2  0
M  END
$$$$
