AIW.pdb
     RDKit          3D

 28 29  0  0  1  0  0  0  0  0999 V2000
    5.3514  -18.5550   22.7534 C   0  0  0  0  0  0  0  0  0  0  0  0
    5.4034  -17.9638   21.3610 C   0  0  2  0  0  0  0  0  0  0  0  0
    5.2951  -18.9536   20.3331 N   0  0  0  0  0  0  0  0  0  0  0  0
    6.6737  -17.1843   21.2622 C   0  0  0  0  0  0  0  0  0  0  0  0
    7.7626  -17.7838   21.0661 O   0  0  0  0  0  0  0  0  0  0  0  0
    7.1030  -12.4081   18.8426 C   0  0  0  0  0  0  0  0  0  0  0  0
    7.4139  -13.7508   19.4226 C   0  0  0  0  0  0  0  0  0  0  0  0
    7.8356  -13.6953   20.8821 C   0  0  2  0  0  0  0  0  0  0  0  0
    9.0891  -12.8890   21.0376 C   0  0  0  0  0  0  0  0  0  0  0  0
    8.0189  -15.0819   21.4143 C   0  0  2  0  0  0  0  0  0  0  0  0
    6.7118  -15.7817   21.3807 N   0  0  0  0  0  0  0  0  0  0  0  0
    8.4178  -15.1441   22.8334 C   0  0  0  0  0  0  0  0  0  0  0  0
    7.9306  -14.3089   23.6648 O   0  0  0  0  0  0  0  0  0  0  0  0
    9.3090  -16.0546   23.4241 N   0  0  0  0  0  0  0  0  0  0  0  0
    9.9731  -15.7898   24.6432 C   0  0  1  0  0  0  0  0  0  0  0  0
    9.3179  -16.2105   25.8896 C   0  0  0  0  0  0  0  0  0  0  0  0
    8.0018  -15.5494   26.0379 C   0  0  0  0  0  0  0  0  0  0  0  0
    6.7671  -16.1393   25.8411 C   0  0  0  0  0  0  0  0  0  0  0  0
    5.7666  -15.2910   26.0356 N   0  0  0  0  0  0  0  0  0  0  0  0
    6.3255  -14.1113   26.3681 C   0  0  0  0  0  0  0  0  0  0  0  0
    5.7799  -12.8965   26.6742 C   0  0  0  0  0  0  0  0  0  0  0  0
    6.6137  -11.8330   26.9837 C   0  0  0  0  0  0  0  0  0  0  0  0
    7.9840  -11.9798   26.9882 C   0  0  0  0  0  0  0  0  0  0  0  0
    8.5565  -13.2145   26.6778 C   0  0  0  0  0  0  0  0  0  0  0  0
    7.7184  -14.2421   26.3776 C   0  0  0  0  0  0  0  0  0  0  0  0
   11.3353  -16.3646   24.5681 C   0  0  0  0  0  0  0  0  0  0  0  0
   12.3307  -16.1811   25.5161 O   0  0  0  0  0  0  0  0  0  0  0  0
   11.6441  -17.0750   23.5847 O   0  0  0  0  0  0  0  0  0  0  0  0
  2  1  1  1
  3  2  1  0
  4 11  1  0
  4  2  1  0
  5  4  2  0
  6  7  1  0
  7  8  1  0
  8  9  1  6
 10 11  1  1
 10  8  1  0
 12 10  1  0
 13 12  2  0
 14 12  1  0
 15 16  1  1
 15 14  1  0
 17 16  1  0
 18 17  2  0
 19 18  1  0
 20 19  1  0
 20 25  2  0
 21 20  1  0
 22 21  2  0
 22 23  1  0
 23 24  2  0
 24 25  1  0
 25 17  1  0
 26 15  1  0
 27 26  1  0
 28 26  2  0
M  END
$$$$
