AIW.pdb
     RDKit          3D

 28 29  0  0  1  0  0  0  0  0999 V2000
    8.3170  -19.7408   21.2727 C   0  0  0  0  0  0  0  0  0  0  0  0
    8.2103  -18.7595   20.1252 C   0  0  2  0  0  0  0  0  0  0  0  0
    8.7142  -19.2877   18.8943 N   0  0  0  0  0  0  0  0  0  0  0  0
    8.9273  -17.5172   20.5419 C   0  0  0  0  0  0  0  0  0  0  0  0
   10.1568  -17.3942   20.3038 O   0  0  0  0  0  0  0  0  0  0  0  0
    6.6929  -12.7691   19.7713 C   0  0  0  0  0  0  0  0  0  0  0  0
    7.7430  -13.8171   19.9580 C   0  0  0  0  0  0  0  0  0  0  0  0
    8.1129  -14.0487   21.4142 C   0  0  2  0  0  0  0  0  0  0  0  0
    8.7328  -12.8176   22.0022 C   0  0  0  0  0  0  0  0  0  0  0  0
    9.0357  -15.2214   21.5269 C   0  0  2  0  0  0  0  0  0  0  0  0
    8.2798  -16.4553   21.2021 N   0  0  0  0  0  0  0  0  0  0  0  0
    9.5476  -15.4676   22.8886 C   0  0  0  0  0  0  0  0  0  0  0  0
   10.5055  -14.7586   23.3424 O   0  0  0  0  0  0  0  0  0  0  0  0
    9.0916  -16.4299   23.8043 N   0  0  0  0  0  0  0  0  0  0  0  0
    9.6139  -16.5454   25.1124 C   0  0  1  0  0  0  0  0  0  0  0  0
    8.6619  -16.6485   26.2272 C   0  0  0  0  0  0  0  0  0  0  0  0
    7.6207  -15.6013   26.1247 C   0  0  0  0  0  0  0  0  0  0  0  0
    6.3344  -15.7752   25.6488 C   0  0  0  0  0  0  0  0  0  0  0  0
    5.6344  -14.6491   25.6655 N   0  0  0  0  0  0  0  0  0  0  0  0
    6.4522  -13.6984   26.1577 C   0  0  0  0  0  0  0  0  0  0  0  0
    6.2647  -12.3658   26.3943 C   0  0  0  0  0  0  0  0  0  0  0  0
    7.3051  -11.6130   26.9166 C   0  0  0  0  0  0  0  0  0  0  0  0
    8.5258  -12.1857   27.2016 C   0  0  0  0  0  0  0  0  0  0  0  0
    8.7329  -13.5458   26.9656 C   0  0  0  0  0  0  0  0  0  0  0  0
    7.6978  -14.2630   26.4530 C   0  0  0  0  0  0  0  0  0  0  0  0
   10.5535  -17.6891   25.1414 C   0  0  0  0  0  0  0  0  0  0  0  0
   10.8025  -18.5424   24.0770 O   0  0  0  0  0  0  0  0  0  0  0  0
   11.1866  -17.9318   26.1936 O   0  0  0  0  0  0  0  0  0  0  0  0
  2  1  1  1
  3  2  1  0
  4 11  1  0
  4  2  1  0
  5  4  2  0
  6  7  1  0
  7  8  1  0
  8  9  1  6
 10 11  1  1
 10  8  1  0
 12 10  1  0
 13 12  2  0
 14 12  1  0
 15 16  1  1
 15 14  1  0
 17 16  1  0
 18 17  2  0
 19 18  1  0
 20 19  1  0
 20 25  2  0
 21 20  1  0
 22 21  2  0
 22 23  1  0
 23 24  2  0
 24 25  1  0
 25 17  1  0
 26 15  1  0
 27 26  1  0
 28 26  2  0
M  END
$$$$
