AIW.pdb
     RDKit          3D

 28 29  0  0  1  0  0  0  0  0999 V2000
    8.5810  -19.8273   21.3051 C   0  0  0  0  0  0  0  0  0  0  0  0
    8.3378  -18.8274   20.1950 C   0  0  2  0  0  0  0  0  0  0  0  0
    8.8550  -19.2617   18.9333 N   0  0  0  0  0  0  0  0  0  0  0  0
    8.9352  -17.5306   20.6337 C   0  0  0  0  0  0  0  0  0  0  0  0
   10.1288  -17.2603   20.3410 O   0  0  0  0  0  0  0  0  0  0  0  0
    6.3024  -12.9747   19.9060 C   0  0  0  0  0  0  0  0  0  0  0  0
    7.3822  -13.9909   20.0985 C   0  0  0  0  0  0  0  0  0  0  0  0
    7.7572  -14.2047   21.5561 C   0  0  2  0  0  0  0  0  0  0  0  0
    8.2086  -12.9181   22.1779 C   0  0  0  0  0  0  0  0  0  0  0  0
    8.8187  -15.2543   21.6622 C   0  0  2  0  0  0  0  0  0  0  0  0
    8.2116  -16.5765   21.3745 N   0  0  0  0  0  0  0  0  0  0  0  0
    9.3887  -15.4127   23.0138 C   0  0  0  0  0  0  0  0  0  0  0  0
   10.2099  -14.5450   23.4599 O   0  0  0  0  0  0  0  0  0  0  0  0
    9.1292  -16.4475   23.9271 N   0  0  0  0  0  0  0  0  0  0  0  0
    9.7385  -16.5111   25.2007 C   0  0  1  0  0  0  0  0  0  0  0  0
    8.8656  -16.4979   26.3829 C   0  0  0  0  0  0  0  0  0  0  0  0
    7.7493  -15.5434   26.1985 C   0  0  0  0  0  0  0  0  0  0  0  0
    6.4646  -15.8599   25.7977 C   0  0  0  0  0  0  0  0  0  0  0  0
    5.6865  -14.7899   25.7088 N   0  0  0  0  0  0  0  0  0  0  0  0
    6.4489  -13.7338   26.0522 C   0  0  0  0  0  0  0  0  0  0  0  0
    6.1737  -12.3980   26.1366 C   0  0  0  0  0  0  0  0  0  0  0  0
    7.1732  -11.5192   26.5246 C   0  0  0  0  0  0  0  0  0  0  0  0
    8.4401  -11.9694   26.8268 C   0  0  0  0  0  0  0  0  0  0  0  0
    8.7368  -13.3310   26.7454 C   0  0  0  0  0  0  0  0  0  0  0  0
    7.7404  -14.1731   26.3627 C   0  0  0  0  0  0  0  0  0  0  0  0
   10.6227  -17.6979   25.2372 C   0  0  0  0  0  0  0  0  0  0  0  0
   11.4956  -18.0094   26.2688 O   0  0  0  0  0  0  0  0  0  0  0  0
   10.6053  -18.5012   24.2773 O   0  0  0  0  0  0  0  0  0  0  0  0
  2  1  1  1
  3  2  1  0
  4 11  1  0
  4  2  1  0
  5  4  2  0
  6  7  1  0
  7  8  1  0
  8  9  1  6
 10 11  1  1
 10  8  1  0
 12 10  1  0
 13 12  2  0
 14 12  1  0
 15 16  1  1
 15 14  1  0
 17 16  1  0
 18 17  2  0
 19 18  1  0
 20 19  1  0
 20 25  2  0
 21 20  1  0
 22 21  2  0
 22 23  1  0
 23 24  2  0
 24 25  1  0
 25 17  1  0
 26 15  1  0
 27 26  1  0
 28 26  2  0
M  END
$$$$
