AIW.pdb
     RDKit          3D

 28 29  0  0  1  0  0  0  0  0999 V2000
    7.9674  -20.1077   21.5246 C   0  0  0  0  0  0  0  0  0  0  0  0
    7.9758  -19.4125   20.1801 C   0  0  2  0  0  0  0  0  0  0  0  0
    8.5464  -20.2165   19.1428 N   0  0  0  0  0  0  0  0  0  0  0  0
    8.7045  -18.1209   20.3584 C   0  0  0  0  0  0  0  0  0  0  0  0
    9.9496  -18.0749   20.1824 O   0  0  0  0  0  0  0  0  0  0  0  0
    7.7444  -12.0454   20.0356 C   0  0  0  0  0  0  0  0  0  0  0  0
    8.6202  -13.2193   20.3370 C   0  0  0  0  0  0  0  0  0  0  0  0
    7.8567  -14.5289   20.4510 C   0  0  2  0  0  0  0  0  0  0  0  0
    6.8035  -14.4336   21.5128 C   0  0  0  0  0  0  0  0  0  0  0  0
    8.8057  -15.6508   20.7345 C   0  0  2  0  0  0  0  0  0  0  0  0
    8.0512  -16.9275   20.7216 N   0  0  0  0  0  0  0  0  0  0  0  0
    9.4139  -15.6122   22.0781 C   0  0  0  0  0  0  0  0  0  0  0  0
   10.2272  -14.6768   22.3779 O   0  0  0  0  0  0  0  0  0  0  0  0
    9.2008  -16.5166   23.1312 N   0  0  0  0  0  0  0  0  0  0  0  0
    9.8617  -16.4075   24.3756 C   0  0  1  0  0  0  0  0  0  0  0  0
    9.8184  -15.1113   25.0668 C   0  0  0  0  0  0  0  0  0  0  0  0
    8.4517  -14.8262   25.5590 C   0  0  0  0  0  0  0  0  0  0  0  0
    7.4079  -15.7296   25.6341 C   0  0  0  0  0  0  0  0  0  0  0  0
    6.2975  -15.1786   26.1050 N   0  0  0  0  0  0  0  0  0  0  0  0
    6.5878  -13.8867   26.3530 C   0  0  0  0  0  0  0  0  0  0  0  0
    5.8319  -12.8586   26.8415 C   0  0  0  0  0  0  0  0  0  0  0  0
    6.4038  -11.6052   26.9956 C   0  0  0  0  0  0  0  0  0  0  0  0
    7.7221  -11.3779   26.6645 C   0  0  0  0  0  0  0  0  0  0  0  0
    8.5073  -12.4179   26.1643 C   0  0  0  0  0  0  0  0  0  0  0  0
    7.9242  -13.6380   26.0221 C   0  0  0  0  0  0  0  0  0  0  0  0
    9.3565  -17.4747   25.2685 C   0  0  0  0  0  0  0  0  0  0  0  0
    9.8736  -17.7781   26.5191 O   0  0  0  0  0  0  0  0  0  0  0  0
    8.3895  -18.1760   24.8943 O   0  0  0  0  0  0  0  0  0  0  0  0
  2  1  1  1
  3  2  1  0
  4 11  1  0
  4  2  1  0
  5  4  2  0
  6  7  1  0
  7  8  1  0
  8  9  1  1
 10 11  1  1
 10  8  1  0
 12 10  1  0
 13 12  2  0
 14 12  1  0
 15 16  1  1
 15 14  1  0
 17 16  1  0
 18 17  2  0
 19 18  1  0
 20 19  1  0
 20 25  2  0
 21 20  1  0
 22 21  2  0
 22 23  1  0
 23 24  2  0
 24 25  1  0
 25 17  1  0
 26 15  1  0
 27 26  1  0
 28 26  2  0
M  END
$$$$
