AIW.pdb
     RDKit          3D

 28 29  0  0  1  0  0  0  0  0999 V2000
    7.3306  -20.2270   21.6239 C   0  0  0  0  0  0  0  0  0  0  0  0
    7.2774  -19.3754   20.3736 C   0  0  2  0  0  0  0  0  0  0  0  0
    7.7233  -20.0738   19.2068 N   0  0  0  0  0  0  0  0  0  0  0  0
    8.0882  -18.1501   20.6423 C   0  0  0  0  0  0  0  0  0  0  0  0
    9.3406  -18.2350   20.7306 O   0  0  0  0  0  0  0  0  0  0  0  0
    7.9639  -12.0369   19.9366 C   0  0  0  0  0  0  0  0  0  0  0  0
    8.5794  -13.2746   20.5070 C   0  0  0  0  0  0  0  0  0  0  0  0
    7.6732  -14.4924   20.4255 C   0  0  2  0  0  0  0  0  0  0  0  0
    6.3838  -14.2383   21.1456 C   0  0  0  0  0  0  0  0  0  0  0  0
    8.3746  -15.6899   20.9856 C   0  0  2  0  0  0  0  0  0  0  0  0
    7.5061  -16.8783   20.8049 N   0  0  0  0  0  0  0  0  0  0  0  0
    8.6050  -15.6376   22.4419 C   0  0  0  0  0  0  0  0  0  0  0  0
    7.7088  -15.1507   23.2074 O   0  0  0  0  0  0  0  0  0  0  0  0
    9.7419  -16.0817   23.1366 N   0  0  0  0  0  0  0  0  0  0  0  0
    9.9877  -15.7499   24.4882 C   0  0  1  0  0  0  0  0  0  0  0  0
    9.0803  -16.2960   25.5071 C   0  0  0  0  0  0  0  0  0  0  0  0
    7.9041  -15.4152   25.6864 C   0  0  0  0  0  0  0  0  0  0  0  0
    6.5801  -15.7838   25.5369 C   0  0  0  0  0  0  0  0  0  0  0  0
    5.7486  -14.7731   25.7498 N   0  0  0  0  0  0  0  0  0  0  0  0
    6.5139  -13.7051   26.0471 C   0  0  0  0  0  0  0  0  0  0  0  0
    6.1973  -12.4114   26.3519 C   0  0  0  0  0  0  0  0  0  0  0  0
    7.2124  -11.5058   26.6195 C   0  0  0  0  0  0  0  0  0  0  0  0
    8.5359  -11.8881   26.5835 C   0  0  0  0  0  0  0  0  0  0  0  0
    8.8755  -13.2061   26.2739 C   0  0  0  0  0  0  0  0  0  0  0  0
    7.8627  -14.0756   26.0152 C   0  0  0  0  0  0  0  0  0  0  0  0
   11.3869  -16.1098   24.8109 C   0  0  0  0  0  0  0  0  0  0  0  0
   11.9902  -15.9322   26.0470 O   0  0  0  0  0  0  0  0  0  0  0  0
   12.1078  -16.6144   23.9206 O   0  0  0  0  0  0  0  0  0  0  0  0
  2  1  1  1
  3  2  1  0
  4 11  1  0
  4  2  1  0
  5  4  2  0
  6  7  1  0
  7  8  1  0
  8  9  1  1
 10 11  1  1
 10  8  1  0
 12 10  1  0
 13 12  2  0
 14 12  1  0
 15 16  1  1
 15 14  1  0
 17 16  1  0
 18 17  2  0
 19 18  1  0
 20 19  1  0
 20 25  2  0
 21 20  1  0
 22 21  2  0
 22 23  1  0
 23 24  2  0
 24 25  1  0
 25 17  1  0
 26 15  1  0
 27 26  1  0
 28 26  2  0
M  END
$$$$
