AIW.pdb
     RDKit          3D

 28 29  0  0  1  0  0  0  0  0999 V2000
    9.1665  -20.0695   21.6251 C   0  0  0  0  0  0  0  0  0  0  0  0
    9.1018  -19.1730   20.4072 C   0  0  2  0  0  0  0  0  0  0  0  0
    9.8171  -19.7049   19.2876 N   0  0  0  0  0  0  0  0  0  0  0  0
    9.6161  -17.8330   20.8206 C   0  0  0  0  0  0  0  0  0  0  0  0
   10.8424  -17.5724   20.7125 O   0  0  0  0  0  0  0  0  0  0  0  0
    6.4998  -13.4591   20.1677 C   0  0  0  0  0  0  0  0  0  0  0  0
    7.6692  -14.3862   20.2613 C   0  0  0  0  0  0  0  0  0  0  0  0
    8.2506  -14.4855   21.6624 C   0  0  2  0  0  0  0  0  0  0  0  0
    8.7466  -13.1484   22.1226 C   0  0  0  0  0  0  0  0  0  0  0  0
    9.3467  -15.5040   21.6901 C   0  0  2  0  0  0  0  0  0  0  0  0
    8.7769  -16.8267   21.3363 N   0  0  0  0  0  0  0  0  0  0  0  0
    9.9461  -15.7208   23.0206 C   0  0  0  0  0  0  0  0  0  0  0  0
   11.0473  -15.1510   23.3191 O   0  0  0  0  0  0  0  0  0  0  0  0
    9.4343  -16.5118   24.0621 N   0  0  0  0  0  0  0  0  0  0  0  0
   10.0490  -16.5912   25.3322 C   0  0  1  0  0  0  0  0  0  0  0  0
    9.7218  -15.5547   26.3214 C   0  0  0  0  0  0  0  0  0  0  0  0
    8.3139  -15.1204   26.1781 C   0  0  0  0  0  0  0  0  0  0  0  0
    7.2367  -15.9343   25.8807 C   0  0  0  0  0  0  0  0  0  0  0  0
    6.0993  -15.2568   25.8045 N   0  0  0  0  0  0  0  0  0  0  0  0
    6.4049  -13.9684   26.0523 C   0  0  0  0  0  0  0  0  0  0  0  0
    5.6348  -12.8409   26.1033 C   0  0  0  0  0  0  0  0  0  0  0  0
    6.2297  -11.6211   26.3859 C   0  0  0  0  0  0  0  0  0  0  0  0
    7.5851  -11.5257   26.6163 C   0  0  0  0  0  0  0  0  0  0  0  0
    8.3853  -12.6685   26.5678 C   0  0  0  0  0  0  0  0  0  0  0  0
    7.7790  -13.8531   26.2888 C   0  0  0  0  0  0  0  0  0  0  0  0
    9.7823  -17.9331   25.8976 C   0  0  0  0  0  0  0  0  0  0  0  0
    9.0276  -18.9209   25.2828 O   0  0  0  0  0  0  0  0  0  0  0  0
   10.2598  -18.2295   27.0161 O   0  0  0  0  0  0  0  0  0  0  0  0
  2  1  1  1
  3  2  1  0
  4 11  1  0
  4  2  1  0
  5  4  2  0
  6  7  1  0
  7  8  1  0
  8  9  1  6
 10 11  1  1
 10  8  1  0
 12 10  1  0
 13 12  2  0
 14 12  1  0
 15 16  1  1
 15 14  1  0
 17 16  1  0
 18 17  2  0
 19 18  1  0
 20 19  1  0
 20 25  2  0
 21 20  1  0
 22 21  2  0
 22 23  1  0
 23 24  2  0
 24 25  1  0
 25 17  1  0
 26 15  1  0
 27 26  1  0
 28 26  2  0
M  END
$$$$
