AIW.pdb
     RDKit          3D

 28 29  0  0  1  0  0  0  0  0999 V2000
    7.2056  -19.8135   22.7239 C   0  0  0  0  0  0  0  0  0  0  0  0
    6.7433  -19.1837   21.4274 C   0  0  2  0  0  0  0  0  0  0  0  0
    6.6402  -20.1281   20.3571 N   0  0  0  0  0  0  0  0  0  0  0  0
    7.6954  -18.0765   21.1133 C   0  0  0  0  0  0  0  0  0  0  0  0
    8.8290  -18.3420   20.6360 O   0  0  0  0  0  0  0  0  0  0  0  0
    7.9702  -11.9692   20.1137 C   0  0  0  0  0  0  0  0  0  0  0  0
    8.6104  -13.3075   20.3008 C   0  0  0  0  0  0  0  0  0  0  0  0
    7.6301  -14.3933   20.7142 C   0  0  2  0  0  0  0  0  0  0  0  0
    6.8460  -13.9645   21.9171 C   0  0  0  0  0  0  0  0  0  0  0  0
    8.3637  -15.6707   20.9782 C   0  0  2  0  0  0  0  0  0  0  0  0
    7.3785  -16.7218   21.3302 N   0  0  0  0  0  0  0  0  0  0  0  0
    9.2670  -15.6271   22.1439 C   0  0  0  0  0  0  0  0  0  0  0  0
   10.3796  -15.0097   22.0596 O   0  0  0  0  0  0  0  0  0  0  0  0
    9.0502  -16.2035   23.4061 N   0  0  0  0  0  0  0  0  0  0  0  0
    9.9409  -16.0255   24.4889 C   0  0  1  0  0  0  0  0  0  0  0  0
    9.7148  -14.8834   25.3857 C   0  0  0  0  0  0  0  0  0  0  0  0
    8.2674  -14.6829   25.6229 C   0  0  0  0  0  0  0  0  0  0  0  0
    7.2826  -15.6469   25.5124 C   0  0  0  0  0  0  0  0  0  0  0  0
    6.0749  -15.1657   25.7737 N   0  0  0  0  0  0  0  0  0  0  0  0
    6.2387  -13.8607   26.0650 C   0  0  0  0  0  0  0  0  0  0  0  0
    5.3477  -12.8824   26.4056 C   0  0  0  0  0  0  0  0  0  0  0  0
    5.8071  -11.5985   26.6553 C   0  0  0  0  0  0  0  0  0  0  0  0
    7.1477  -11.2915   26.5659 C   0  0  0  0  0  0  0  0  0  0  0  0
    8.0703  -12.2799   26.2191 C   0  0  0  0  0  0  0  0  0  0  0  0
    7.5957  -13.5312   25.9790 C   0  0  0  0  0  0  0  0  0  0  0  0
    9.9841  -17.2822   25.2702 C   0  0  0  0  0  0  0  0  0  0  0  0
   10.9099  -17.5726   26.2611 O   0  0  0  0  0  0  0  0  0  0  0  0
    9.1336  -18.1718   25.0418 O   0  0  0  0  0  0  0  0  0  0  0  0
  2  1  1  1
  3  2  1  0
  4 11  1  0
  4  2  1  0
  5  4  2  0
  6  7  1  0
  7  8  1  0
  8  9  1  1
 10 11  1  1
 10  8  1  0
 12 10  1  0
 13 12  2  0
 14 12  1  0
 15 16  1  1
 15 14  1  0
 17 16  1  0
 18 17  2  0
 19 18  1  0
 20 19  1  0
 20 25  2  0
 21 20  1  0
 22 21  2  0
 22 23  1  0
 23 24  2  0
 24 25  1  0
 25 17  1  0
 26 15  1  0
 27 26  1  0
 28 26  2  0
M  END
$$$$
