AIW.pdb
     RDKit          3D

 28 29  0  0  1  0  0  0  0  0999 V2000
   13.5195  -16.5910   19.4017 C   0  0  0  0  0  0  0  0  0  0  0  0
   12.9243  -15.2837   18.9243 C   0  0  2  0  0  0  0  0  0  0  0  0
   13.9183  -14.3274   18.5430 N   0  0  0  0  0  0  0  0  0  0  0  0
   12.0438  -14.7766   20.0190 C   0  0  0  0  0  0  0  0  0  0  0  0
   12.5192  -14.0203   20.9053 O   0  0  0  0  0  0  0  0  0  0  0  0
    7.3428  -12.7487   18.7744 C   0  0  0  0  0  0  0  0  0  0  0  0
    8.6333  -13.0896   19.4484 C   0  0  0  0  0  0  0  0  0  0  0  0
    8.4909  -14.1585   20.5200 C   0  0  2  0  0  0  0  0  0  0  0  0
    7.5067  -13.7285   21.5650 C   0  0  0  0  0  0  0  0  0  0  0  0
    9.8260  -14.4536   21.1282 C   0  0  2  0  0  0  0  0  0  0  0  0
   10.6790  -15.1113   20.1087 N   0  0  0  0  0  0  0  0  0  0  0  0
    9.7905  -15.4234   22.2395 C   0  0  0  0  0  0  0  0  0  0  0  0
   10.1494  -16.6304   22.0378 O   0  0  0  0  0  0  0  0  0  0  0  0
    9.3962  -15.1793   23.5651 N   0  0  0  0  0  0  0  0  0  0  0  0
    9.6206  -16.1040   24.6100 C   0  0  1  0  0  0  0  0  0  0  0  0
    9.4355  -15.6395   25.9920 C   0  0  0  0  0  0  0  0  0  0  0  0
    8.1317  -14.9552   26.1438 C   0  0  0  0  0  0  0  0  0  0  0  0
    6.8853  -15.5372   26.0061 C   0  0  0  0  0  0  0  0  0  0  0  0
    5.9004  -14.6680   26.1874 N   0  0  0  0  0  0  0  0  0  0  0  0
    6.4819  -13.4818   26.4511 C   0  0  0  0  0  0  0  0  0  0  0  0
    5.9590  -12.2474   26.7153 C   0  0  0  0  0  0  0  0  0  0  0  0
    6.8132  -11.1820   26.9543 C   0  0  0  0  0  0  0  0  0  0  0  0
    8.1813  -11.3463   26.9301 C   0  0  0  0  0  0  0  0  0  0  0  0
    8.7307  -12.6011   26.6618 C   0  0  0  0  0  0  0  0  0  0  0  0
    7.8729  -13.6303   26.4306 C   0  0  0  0  0  0  0  0  0  0  0  0
    8.7860  -17.3013   24.3621 C   0  0  0  0  0  0  0  0  0  0  0  0
    8.9873  -18.5460   24.9394 O   0  0  0  0  0  0  0  0  0  0  0  0
    7.8166  -17.2166   23.5747 O   0  0  0  0  0  0  0  0  0  0  0  0
  2  1  1  1
  3  2  1  0
  4 11  1  0
  4  2  1  0
  5  4  2  0
  6  7  1  0
  7  8  1  0
  8  9  1  1
 10 11  1  6
 10  8  1  0
 12 10  1  0
 13 12  2  0
 14 12  1  0
 15 16  1  1
 15 14  1  0
 17 16  1  0
 18 17  2  0
 19 18  1  0
 20 19  1  0
 20 25  2  0
 21 20  1  0
 22 21  2  0
 22 23  1  0
 23 24  2  0
 24 25  1  0
 25 17  1  0
 26 15  1  0
 27 26  1  0
 28 26  2  0
M  END
$$$$
