AIW.pdb
     RDKit          3D

 28 29  0  0  1  0  0  0  0  0999 V2000
    7.2329  -19.7339   23.0299 C   0  0  0  0  0  0  0  0  0  0  0  0
    6.6992  -19.1185   21.7541 C   0  0  2  0  0  0  0  0  0  0  0  0
    6.5693  -20.0684   20.6916 N   0  0  0  0  0  0  0  0  0  0  0  0
    7.6115  -17.9916   21.3952 C   0  0  0  0  0  0  0  0  0  0  0  0
    8.7038  -18.2299   20.8178 O   0  0  0  0  0  0  0  0  0  0  0  0
    7.7152  -11.9400   20.2335 C   0  0  0  0  0  0  0  0  0  0  0  0
    8.4096  -13.2343   20.5134 C   0  0  0  0  0  0  0  0  0  0  0  0
    7.4683  -14.3395   20.9643 C   0  0  2  0  0  0  0  0  0  0  0  0
    6.6584  -13.8929   22.1434 C   0  0  0  0  0  0  0  0  0  0  0  0
    8.2480  -15.5759   21.2851 C   0  0  2  0  0  0  0  0  0  0  0  0
    7.3012  -16.6476   21.6782 N   0  0  0  0  0  0  0  0  0  0  0  0
    9.1430  -15.4487   22.4511 C   0  0  0  0  0  0  0  0  0  0  0  0
   10.1607  -14.6829   22.3871 O   0  0  0  0  0  0  0  0  0  0  0  0
    9.0134  -16.0913   23.6931 N   0  0  0  0  0  0  0  0  0  0  0  0
    9.9524  -15.9298   24.7369 C   0  0  1  0  0  0  0  0  0  0  0  0
    9.4403  -15.6661   26.0889 C   0  0  0  0  0  0  0  0  0  0  0  0
    8.1009  -15.0386   26.0280 C   0  0  0  0  0  0  0  0  0  0  0  0
    6.9090  -15.6867   25.7620 C   0  0  0  0  0  0  0  0  0  0  0  0
    5.8740  -14.8578   25.7613 N   0  0  0  0  0  0  0  0  0  0  0  0
    6.3659  -13.6326   26.0293 C   0  0  0  0  0  0  0  0  0  0  0  0
    5.7622  -12.4128   26.1499 C   0  0  0  0  0  0  0  0  0  0  0  0
    6.5324  -11.2962   26.4363 C   0  0  0  0  0  0  0  0  0  0  0  0
    7.8970  -11.3952   26.6016 C   0  0  0  0  0  0  0  0  0  0  0  0
    8.5283  -12.6343   26.4816 C   0  0  0  0  0  0  0  0  0  0  0  0
    7.7520  -13.7145   26.2003 C   0  0  0  0  0  0  0  0  0  0  0  0
   10.8408  -17.1138   24.7539 C   0  0  0  0  0  0  0  0  0  0  0  0
   10.6977  -18.2288   23.9416 O   0  0  0  0  0  0  0  0  0  0  0  0
   11.8042  -17.1420   25.5527 O   0  0  0  0  0  0  0  0  0  0  0  0
  2  1  1  1
  3  2  1  0
  4 11  1  0
  4  2  1  0
  5  4  2  0
  6  7  1  0
  7  8  1  0
  8  9  1  1
 10 11  1  1
 10  8  1  0
 12 10  1  0
 13 12  2  0
 14 12  1  0
 15 16  1  1
 15 14  1  0
 17 16  1  0
 18 17  2  0
 19 18  1  0
 20 19  1  0
 20 25  2  0
 21 20  1  0
 22 21  2  0
 22 23  1  0
 23 24  2  0
 24 25  1  0
 25 17  1  0
 26 15  1  0
 27 26  1  0
 28 26  2  0
M  END
$$$$
