CRI.pdb
     RDKit          3D

 26 25  0  0  1  0  0  0  0  0999 V2000
    6.3807  -21.0184   24.4020 N   0  0  0  0  0  0  0  0  0  0  0  0
    6.5131  -19.6394   24.7916 C   0  0  1  0  0  0  0  0  0  0  0  0
    6.9140  -19.6328   26.2731 C   0  0  0  0  0  0  0  0  0  0  0  0
    6.8534  -17.9681   26.9513 S   0  0  0  0  0  0  0  0  0  0  0  0
    7.5832  -18.9864   24.0066 C   0  0  0  0  0  0  0  0  0  0  0  0
    8.6976  -19.5039   23.7498 O   0  0  0  0  0  0  0  0  0  0  0  0
    9.8208  -13.5042   19.7271 N   0  0  0  0  0  0  0  0  0  0  0  0
    8.5385  -13.0168   19.3826 C   0  0  0  0  0  0  0  0  0  0  0  0
    8.3715  -11.7524   19.2097 N   0  0  0  0  0  0  0  0  0  0  0  0
    7.4606  -13.9479   19.2358 N   0  0  0  0  0  0  0  0  0  0  0  0
    6.8179  -14.4241   20.4273 C   0  0  0  0  0  0  0  0  0  0  0  0
    7.7766  -14.8782   21.4954 C   0  0  0  0  0  0  0  0  0  0  0  0
    7.7678  -16.3684   21.5659 C   0  0  0  0  0  0  0  0  0  0  0  0
    8.3587  -16.8986   22.8569 C   0  0  2  0  0  0  0  0  0  0  0  0
    7.3423  -17.6829   23.5041 N   0  0  0  0  0  0  0  0  0  0  0  0
    8.9183  -15.8462   23.7027 C   0  0  0  0  0  0  0  0  0  0  0  0
    9.8640  -15.0923   23.3327 O   0  0  0  0  0  0  0  0  0  0  0  0
    7.4330  -11.4077   18.9292 C   0  0  0  0  0  0  0  0  0  0  0  0
    5.9414  -12.4896   26.0905 C   0  0  0  0  0  0  0  0  0  0  0  0
    7.1237  -13.1518   25.4270 C   0  0  2  0  0  0  0  0  0  0  0  0
    7.9564  -13.8256   26.4915 C   0  0  0  0  0  0  0  0  0  0  0  0
    8.5062  -12.7213   27.3920 C   0  0  2  0  0  0  0  0  0  0  0  0
    9.0633  -14.6756   25.9298 N   0  0  0  0  0  0  0  0  0  0  0  0
    8.4073  -15.6222   25.0110 C   0  0  0  0  0  0  0  0  0  0  0  0
    9.7885  -15.4068   26.9912 O   0  0  0  0  0  0  0  0  0  0  0  0
    9.6095  -16.7633   27.1757 O   0  0  0  0  0  0  0  0  0  0  0  0
  2  1  1  6
  3  2  1  0
  3  4  1  0
  5  2  1  0
  5  6  2  0
  7  8  1  0
  8  9  2  0
  8 10  1  0
 10 11  1  0
 12 11  1  0
 13 12  1  0
 14 13  1  6
 14 15  1  0
 15  5  1  0
 16 14  1  0
 17 16  2  0
 19 18  1  0
 20 19  1  0
 20 22  1  0
 20 21  1  1
 22 23  1  6
 22 24  1  0
 23 16  1  0
 24 25  1  0
 26 24  2  0
M  END
$$$$
