CRI.pdb
     RDKit          3D

 26 25  0  0  1  0  0  0  0  0999 V2000
    7.7456  -15.2505   17.8231 N   0  0  0  0  0  0  0  0  0  0  0  0
    8.4034  -14.6077   18.9299 C   0  0  1  0  0  0  0  0  0  0  0  0
    8.3614  -13.0981   18.6558 C   0  0  0  0  0  0  0  0  0  0  0  0
    9.0993  -12.1746   20.0112 S   0  0  0  0  0  0  0  0  0  0  0  0
    7.6754  -14.8829   20.1877 C   0  0  0  0  0  0  0  0  0  0  0  0
    6.5473  -14.4146   20.4770 O   0  0  0  0  0  0  0  0  0  0  0  0
    9.6450  -19.8647   23.3220 N   0  0  0  0  0  0  0  0  0  0  0  0
    9.2128  -20.1983   24.6268 C   0  0  0  0  0  0  0  0  0  0  0  0
   10.0467  -20.7330   25.4485 N   0  0  0  0  0  0  0  0  0  0  0  0
    7.8555  -19.9303   24.9959 N   0  0  0  0  0  0  0  0  0  0  0  0
    6.9789  -19.3993   23.9913 C   0  0  0  0  0  0  0  0  0  0  0  0
    7.0028  -17.8971   23.8958 C   0  0  0  0  0  0  0  0  0  0  0  0
    7.6045  -17.4947   22.5913 C   0  0  0  0  0  0  0  0  0  0  0  0
    7.7168  -15.9913   22.4354 C   0  0  2  0  0  0  0  0  0  0  0  0
    8.2875  -15.7353   21.1408 N   0  0  0  0  0  0  0  0  0  0  0  0
    8.4412  -15.3564   23.5345 C   0  0  0  0  0  0  0  0  0  0  0  0
    9.7034  -15.3425   23.6132 O   0  0  0  0  0  0  0  0  0  0  0  0
    9.7378  -20.9163   26.4228 C   0  0  0  0  0  0  0  0  0  0  0  0
    5.6351  -12.0642   27.2532 C   0  0  0  0  0  0  0  0  0  0  0  0
    6.2583  -13.2947   26.6417 C   0  0  2  0  0  0  0  0  0  0  0  0
    7.6475  -12.9430   26.1651 C   0  0  0  0  0  0  0  0  0  0  0  0
    7.4858  -11.9499   25.0160 C   0  0  1  0  0  0  0  0  0  0  0  0
    8.4516  -14.1422   25.7430 N   0  0  0  0  0  0  0  0  0  0  0  0
    7.7359  -14.7113   24.5878 C   0  0  0  0  0  0  0  0  0  0  0  0
    8.5582  -15.1428   26.8267 O   0  0  0  0  0  0  0  0  0  0  0  0
    9.4001  -14.9447   27.9029 O   0  0  0  0  0  0  0  0  0  0  0  0
  2  1  1  6
  3  2  1  0
  3  4  1  0
  5  2  1  0
  5  6  2  0
  7  8  1  0
  8  9  2  0
  8 10  1  0
 10 11  1  0
 12 11  1  0
 13 12  1  0
 14 13  1  1
 14 15  1  0
 15  5  1  0
 16 14  1  0
 17 16  2  0
 19 18  1  0
 20 19  1  0
 20 22  1  0
 20 21  1  1
 22 23  1  6
 22 24  1  0
 23 16  1  0
 24 25  1  0
 26 24  2  0
M  END
$$$$
