CRI.pdb
     RDKit          3D

 26 25  0  0  1  0  0  0  0  0999 V2000
    7.4923  -13.2377   18.3631 N   0  0  0  0  0  0  0  0  0  0  0  0
    8.2898  -14.2039   19.0712 C   0  0  1  0  0  0  0  0  0  0  0  0
    9.6585  -13.5547   19.3184 C   0  0  0  0  0  0  0  0  0  0  0  0
    9.4788  -11.9507   20.1118 S   0  0  0  0  0  0  0  0  0  0  0  0
    7.6708  -14.5200   20.3768 C   0  0  0  0  0  0  0  0  0  0  0  0
    6.9373  -13.7365   21.0278 O   0  0  0  0  0  0  0  0  0  0  0  0
    8.4889  -20.4266   25.3946 N   0  0  0  0  0  0  0  0  0  0  0  0
    7.1613  -20.9061   25.4851 C   0  0  0  0  0  0  0  0  0  0  0  0
    6.8721  -21.7947   26.3701 N   0  0  0  0  0  0  0  0  0  0  0  0
    6.1751  -20.3868   24.5861 N   0  0  0  0  0  0  0  0  0  0  0  0
    6.6316  -19.7530   23.3821 C   0  0  0  0  0  0  0  0  0  0  0  0
    6.8071  -18.2632   23.5080 C   0  0  0  0  0  0  0  0  0  0  0  0
    7.2562  -17.7064   22.1989 C   0  0  0  0  0  0  0  0  0  0  0  0
    7.3931  -16.1971   22.2187 C   0  0  2  0  0  0  0  0  0  0  0  0
    7.9178  -15.7967   20.9414 N   0  0  0  0  0  0  0  0  0  0  0  0
    8.1729  -15.7099   23.3547 C   0  0  0  0  0  0  0  0  0  0  0  0
    9.4365  -15.7501   23.3934 O   0  0  0  0  0  0  0  0  0  0  0  0
    5.8959  -22.1444   26.4242 C   0  0  0  0  0  0  0  0  0  0  0  0
    5.8108  -11.7458   26.1128 C   0  0  0  0  0  0  0  0  0  0  0  0
    6.8621  -12.5391   25.3765 C   0  0  2  0  0  0  0  0  0  0  0  0
    7.3771  -13.6218   26.2946 C   0  0  0  0  0  0  0  0  0  0  0  0
    8.0714  -12.9228   27.4617 C   0  0  2  0  0  0  0  0  0  0  0  0
    8.3012  -14.5912   25.6094 N   0  0  0  0  0  0  0  0  0  0  0  0
    7.5238  -15.1564   24.4928 C   0  0  0  0  0  0  0  0  0  0  0  0
    8.7471  -15.6657   26.5224 O   0  0  0  0  0  0  0  0  0  0  0  0
    9.9912  -15.6263   27.1200 O   0  0  0  0  0  0  0  0  0  0  0  0
  2  1  1  1
  3  2  1  0
  3  4  1  0
  5  2  1  0
  5  6  2  0
  7  8  1  0
  8  9  2  0
  8 10  1  0
 10 11  1  0
 12 11  1  0
 13 12  1  0
 14 13  1  6
 14 15  1  0
 15  5  1  0
 16 14  1  0
 17 16  2  0
 19 18  1  0
 20 19  1  0
 20 22  1  0
 20 21  1  1
 22 23  1  6
 22 24  1  0
 23 16  1  0
 24 25  1  0
 26 24  2  0
M  END
$$$$
