CRI.pdb
     RDKit          3D

 26 25  0  0  1  0  0  0  0  0999 V2000
    6.5730  -20.7372   23.8967 N   0  0  0  0  0  0  0  0  0  0  0  0
    6.6083  -19.4179   24.4704 C   0  0  1  0  0  0  0  0  0  0  0  0
    7.1297  -19.5714   25.9057 C   0  0  0  0  0  0  0  0  0  0  0  0
    6.1650  -18.5776   27.0531 S   0  0  0  0  0  0  0  0  0  0  0  0
    7.5432  -18.5562   23.7146 C   0  0  0  0  0  0  0  0  0  0  0  0
    8.6960  -18.8976   23.3537 O   0  0  0  0  0  0  0  0  0  0  0  0
    9.5502  -13.3497   18.7620 N   0  0  0  0  0  0  0  0  0  0  0  0
    8.3337  -13.6612   18.1110 C   0  0  0  0  0  0  0  0  0  0  0  0
    8.2714  -13.5927   16.8273 N   0  0  0  0  0  0  0  0  0  0  0  0
    7.2038  -14.0448   18.9025 N   0  0  0  0  0  0  0  0  0  0  0  0
    7.1375  -13.5669   20.2541 C   0  0  0  0  0  0  0  0  0  0  0  0
    8.0043  -14.3368   21.2145 C   0  0  0  0  0  0  0  0  0  0  0  0
    7.1934  -15.4093   21.8609 C   0  0  0  0  0  0  0  0  0  0  0  0
    8.0030  -16.2612   22.8178 C   0  0  2  0  0  0  0  0  0  0  0  0
    7.1157  -17.2496   23.3684 N   0  0  0  0  0  0  0  0  0  0  0  0
    8.7064  -15.4732   23.8278 C   0  0  0  0  0  0  0  0  0  0  0  0
    9.6154  -14.6405   23.5448 O   0  0  0  0  0  0  0  0  0  0  0  0
    7.3652  -13.7923   16.3613 C   0  0  0  0  0  0  0  0  0  0  0  0
    6.0966  -12.3521   26.4286 C   0  0  0  0  0  0  0  0  0  0  0  0
    7.2642  -13.0475   25.7730 C   0  0  2  0  0  0  0  0  0  0  0  0
    7.9437  -13.9187   26.8025 C   0  0  0  0  0  0  0  0  0  0  0  0
    8.4793  -12.9885   27.8892 C   0  0  2  0  0  0  0  0  0  0  0  0
    9.0385  -14.7745   26.2264 N   0  0  0  0  0  0  0  0  0  0  0  0
    8.3877  -15.6154   25.2066 C   0  0  0  0  0  0  0  0  0  0  0  0
    9.6780  -15.6188   27.2585 O   0  0  0  0  0  0  0  0  0  0  0  0
   10.7225  -15.1428   28.0258 O   0  0  0  0  0  0  0  0  0  0  0  0
  2  1  1  6
  3  2  1  0
  3  4  1  0
  5  2  1  0
  5  6  2  0
  7  8  1  0
  8  9  2  0
  8 10  1  0
 10 11  1  0
 12 11  1  0
 13 12  1  0
 14 13  1  6
 14 15  1  0
 15  5  1  0
 16 14  1  0
 17 16  2  0
 19 18  1  0
 20 19  1  0
 20 22  1  0
 20 21  1  1
 22 23  1  6
 22 24  1  0
 23 16  1  0
 24 25  1  0
 26 24  2  0
M  END
$$$$
