CRI.pdb
     RDKit          3D

 26 25  0  0  1  0  0  0  0  0999 V2000
    6.9285  -14.1415   18.6470 N   0  0  0  0  0  0  0  0  0  0  0  0
    7.9743  -14.7420   19.4323 C   0  0  1  0  0  0  0  0  0  0  0  0
    9.1468  -13.7516   19.4422 C   0  0  0  0  0  0  0  0  0  0  0  0
    8.6124  -12.1232   19.9876 S   0  0  0  0  0  0  0  0  0  0  0  0
    7.5151  -14.9490   20.8230 C   0  0  0  0  0  0  0  0  0  0  0  0
    6.7927  -14.1468   21.4634 O   0  0  0  0  0  0  0  0  0  0  0  0
    7.2397  -21.4946   22.9178 N   0  0  0  0  0  0  0  0  0  0  0  0
    7.3554  -21.3894   24.3236 C   0  0  0  0  0  0  0  0  0  0  0  0
    8.2566  -22.0762   24.9340 N   0  0  0  0  0  0  0  0  0  0  0  0
    6.4632  -20.5189   25.0281 N   0  0  0  0  0  0  0  0  0  0  0  0
    6.2109  -19.2211   24.4697 C   0  0  0  0  0  0  0  0  0  0  0  0
    7.4115  -18.3130   24.4750 C   0  0  0  0  0  0  0  0  0  0  0  0
    7.7234  -17.8985   23.0762 C   0  0  0  0  0  0  0  0  0  0  0  0
    7.5872  -16.4042   22.8625 C   0  0  2  0  0  0  0  0  0  0  0  0
    7.9142  -16.1355   21.4885 N   0  0  0  0  0  0  0  0  0  0  0  0
    8.3652  -15.6181   23.8178 C   0  0  0  0  0  0  0  0  0  0  0  0
    9.5905  -15.3495   23.6558 O   0  0  0  0  0  0  0  0  0  0  0  0
    8.3227  -22.0040   25.9677 C   0  0  0  0  0  0  0  0  0  0  0  0
    6.3759  -11.2715   25.9023 C   0  0  0  0  0  0  0  0  0  0  0  0
    7.3677  -12.2776   25.3725 C   0  0  2  0  0  0  0  0  0  0  0  0
    7.6955  -13.2553   26.4757 C   0  0  0  0  0  0  0  0  0  0  0  0
    8.3773  -12.4602   27.5873 C   0  0  2  0  0  0  0  0  0  0  0  0
    8.5548  -14.4018   26.0170 N   0  0  0  0  0  0  0  0  0  0  0  0
    7.7585  -15.1101   24.9997 C   0  0  0  0  0  0  0  0  0  0  0  0
    8.8965  -15.3135   27.1302 O   0  0  0  0  0  0  0  0  0  0  0  0
   10.0368  -15.1243   27.8853 O   0  0  0  0  0  0  0  0  0  0  0  0
  2  1  1  6
  3  2  1  0
  3  4  1  0
  5  2  1  0
  5  6  2  0
  7  8  1  0
  8  9  2  0
  8 10  1  0
 10 11  1  0
 12 11  1  0
 13 12  1  0
 14 13  1  1
 14 15  1  0
 15  5  1  0
 16 14  1  0
 17 16  2  0
 19 18  1  0
 20 19  1  0
 20 22  1  0
 20 21  1  1
 22 23  1  6
 22 24  1  0
 23 16  1  0
 24 25  1  0
 26 24  2  0
M  END
$$$$
