CRI.pdb
     RDKit          3D

 26 25  0  0  1  0  0  0  0  0999 V2000
    7.8004  -14.9636   18.3039 N   0  0  0  0  0  0  0  0  0  0  0  0
    8.3873  -14.3420   19.4616 C   0  0  1  0  0  0  0  0  0  0  0  0
    7.6981  -12.9813   19.6326 C   0  0  0  0  0  0  0  0  0  0  0  0
    8.5347  -11.7087   18.6759 S   0  0  0  0  0  0  0  0  0  0  0  0
    8.1304  -15.1599   20.6669 C   0  0  0  0  0  0  0  0  0  0  0  0
    7.0064  -15.6096   20.9986 O   0  0  0  0  0  0  0  0  0  0  0  0
   11.1648  -18.8883   18.8914 N   0  0  0  0  0  0  0  0  0  0  0  0
   10.4082  -20.0691   19.0751 C   0  0  0  0  0  0  0  0  0  0  0  0
   10.0521  -20.7549   18.0458 N   0  0  0  0  0  0  0  0  0  0  0  0
   10.0596  -20.4678   20.4054 N   0  0  0  0  0  0  0  0  0  0  0  0
   10.3649  -19.5651   21.4785 C   0  0  0  0  0  0  0  0  0  0  0  0
    9.5581  -18.2944   21.4524 C   0  0  0  0  0  0  0  0  0  0  0  0
    9.9326  -17.4474   22.6220 C   0  0  0  0  0  0  0  0  0  0  0  0
    9.0803  -16.1998   22.7402 C   0  0  2  0  0  0  0  0  0  0  0  0
    9.2258  -15.4627   21.5144 N   0  0  0  0  0  0  0  0  0  0  0  0
    9.3786  -15.4165   23.9375 C   0  0  0  0  0  0  0  0  0  0  0  0
   10.3954  -14.6712   24.0399 O   0  0  0  0  0  0  0  0  0  0  0  0
    9.4893  -21.6154   18.1909 C   0  0  0  0  0  0  0  0  0  0  0  0
    5.7079  -12.5697   26.2113 C   0  0  0  0  0  0  0  0  0  0  0  0
    7.0291  -13.1035   25.7152 C   0  0  2  0  0  0  0  0  0  0  0  0
    7.5704  -14.0726   26.7391 C   0  0  0  0  0  0  0  0  0  0  0  0
    7.7661  -13.2880   28.0349 C   0  0  2  0  0  0  0  0  0  0  0  0
    8.8464  -14.7419   26.3067 N   0  0  0  0  0  0  0  0  0  0  0  0
    8.5137  -15.4626   25.0656 C   0  0  0  0  0  0  0  0  0  0  0  0
    9.3483  -15.6837   27.3305 O   0  0  0  0  0  0  0  0  0  0  0  0
    9.0938  -17.0379   27.2428 O   0  0  0  0  0  0  0  0  0  0  0  0
  2  1  1  6
  3  2  1  0
  3  4  1  0
  5  2  1  0
  5  6  2  0
  7  8  1  0
  8  9  2  0
  8 10  1  0
 10 11  1  0
 12 11  1  0
 13 12  1  0
 14 13  1  6
 14 15  1  0
 15  5  1  0
 16 14  1  0
 17 16  2  0
 19 18  1  0
 20 19  1  0
 20 22  1  0
 20 21  1  1
 22 23  1  6
 22 24  1  0
 23 16  1  0
 24 25  1  0
 26 24  2  0
M  END
$$$$
