CRI.pdb
     RDKit          3D

 26 25  0  0  1  0  0  0  0  0999 V2000
    7.3682  -13.8306   17.9581 N   0  0  0  0  0  0  0  0  0  0  0  0
    8.3224  -14.4627   18.8304 C   0  0  1  0  0  0  0  0  0  0  0  0
    9.4705  -13.4642   19.0312 C   0  0  0  0  0  0  0  0  0  0  0  0
    8.8709  -11.9250   19.7427 S   0  0  0  0  0  0  0  0  0  0  0  0
    7.7047  -14.7473   20.1439 C   0  0  0  0  0  0  0  0  0  0  0  0
    6.6823  -14.1730   20.5917 O   0  0  0  0  0  0  0  0  0  0  0  0
   10.5052  -20.4718   19.9825 N   0  0  0  0  0  0  0  0  0  0  0  0
   11.2425  -20.4558   21.1894 C   0  0  0  0  0  0  0  0  0  0  0  0
   12.5162  -20.6364   21.1512 N   0  0  0  0  0  0  0  0  0  0  0  0
   10.5474  -20.2383   22.4222 N   0  0  0  0  0  0  0  0  0  0  0  0
    9.2366  -19.6573   22.3604 C   0  0  0  0  0  0  0  0  0  0  0  0
    9.2377  -18.1519   22.3680 C   0  0  0  0  0  0  0  0  0  0  0  0
    7.8326  -17.6565   22.2905 C   0  0  0  0  0  0  0  0  0  0  0  0
    7.7459  -16.1449   22.2241 C   0  0  2  0  0  0  0  0  0  0  0  0
    8.3030  -15.7379   20.9627 N   0  0  0  0  0  0  0  0  0  0  0  0
    8.3568  -15.4872   23.3775 C   0  0  0  0  0  0  0  0  0  0  0  0
    9.5920  -15.2252   23.4493 O   0  0  0  0  0  0  0  0  0  0  0  0
   13.0605  -20.5331   22.0294 C   0  0  0  0  0  0  0  0  0  0  0  0
    6.5747  -11.0227   26.8472 C   0  0  0  0  0  0  0  0  0  0  0  0
    7.5618  -12.1638   26.8304 C   0  0  2  0  0  0  0  0  0  0  0  0
    7.1470  -13.1416   25.7569 C   0  0  0  0  0  0  0  0  0  0  0  0
    5.7630  -13.6622   26.1394 C   0  0  2  0  0  0  0  0  0  0  0  0
    8.1244  -14.2702   25.5721 N   0  0  0  0  0  0  0  0  0  0  0  0
    7.5645  -15.1055   24.4953 C   0  0  0  0  0  0  0  0  0  0  0  0
    8.2876  -15.0650   26.8085 O   0  0  0  0  0  0  0  0  0  0  0  0
    9.1183  -14.6415   27.8267 O   0  0  0  0  0  0  0  0  0  0  0  0
  2  1  1  6
  3  2  1  0
  3  4  1  0
  5  2  1  0
  5  6  2  0
  7  8  1  0
  8  9  2  0
  8 10  1  0
 10 11  1  0
 12 11  1  0
 13 12  1  0
 14 13  1  1
 14 15  1  0
 15  5  1  0
 16 14  1  0
 17 16  2  0
 19 18  1  0
 20 19  1  0
 20 22  1  0
 20 21  1  6
 22 23  1  1
 22 24  1  0
 23 16  1  0
 24 25  1  0
 26 24  2  0
M  END
$$$$
