CRI.pdb
     RDKit          3D

 26 25  0  0  1  0  0  0  0  0999 V2000
   13.9128  -17.6656   21.2019 N   0  0  0  0  0  0  0  0  0  0  0  0
   12.7854  -18.0839   21.9925 C   0  0  1  0  0  0  0  0  0  0  0  0
   13.3372  -18.5231   23.3557 C   0  0  0  0  0  0  0  0  0  0  0  0
   14.2011  -20.0953   23.2269 S   0  0  0  0  0  0  0  0  0  0  0  0
   11.8564  -16.9515   22.1981 C   0  0  0  0  0  0  0  0  0  0  0  0
   12.2087  -15.7546   22.3352 O   0  0  0  0  0  0  0  0  0  0  0  0
    7.6046  -12.0908   20.0026 N   0  0  0  0  0  0  0  0  0  0  0  0
    7.6424  -13.2076   19.1354 C   0  0  0  0  0  0  0  0  0  0  0  0
    8.4485  -13.1983   18.1321 N   0  0  0  0  0  0  0  0  0  0  0  0
    6.7795  -14.3191   19.4005 N   0  0  0  0  0  0  0  0  0  0  0  0
    7.3671  -15.5108   19.9429 C   0  0  0  0  0  0  0  0  0  0  0  0
    7.2900  -15.5980   21.4438 C   0  0  0  0  0  0  0  0  0  0  0  0
    8.1670  -16.7071   21.9198 C   0  0  0  0  0  0  0  0  0  0  0  0
    9.4797  -16.2124   22.4936 C   0  0  2  0  0  0  0  0  0  0  0  0
   10.4667  -17.2279   22.2450 N   0  0  0  0  0  0  0  0  0  0  0  0
    9.3771  -15.8221   23.8983 C   0  0  0  0  0  0  0  0  0  0  0  0
    9.7708  -16.5563   24.8499 O   0  0  0  0  0  0  0  0  0  0  0  0
    8.4497  -14.0117   17.4867 C   0  0  0  0  0  0  0  0  0  0  0  0
    6.8362  -11.0503   26.8874 C   0  0  0  0  0  0  0  0  0  0  0  0
    7.6608  -12.3065   27.0247 C   0  0  2  0  0  0  0  0  0  0  0  0
    7.8348  -12.9185   25.6551 C   0  0  0  0  0  0  0  0  0  0  0  0
    6.4355  -13.1256   25.0790 C   0  0  2  0  0  0  0  0  0  0  0  0
    8.6145  -14.2049   25.6744 N   0  0  0  0  0  0  0  0  0  0  0  0
    8.8152  -14.5667   24.2604 C   0  0  0  0  0  0  0  0  0  0  0  0
    7.8859  -15.2796   26.3825 O   0  0  0  0  0  0  0  0  0  0  0  0
    8.1682  -15.5884   27.6983 O   0  0  0  0  0  0  0  0  0  0  0  0
  2  1  1  6
  3  2  1  0
  3  4  1  0
  5  2  1  0
  5  6  2  0
  7  8  1  0
  8  9  2  0
  8 10  1  0
 10 11  1  0
 12 11  1  0
 13 12  1  0
 14 13  1  1
 14 15  1  0
 15  5  1  0
 16 14  1  0
 17 16  2  0
 19 18  1  0
 20 19  1  0
 20 22  1  0
 20 21  1  6
 22 23  1  1
 22 24  1  0
 23 16  1  0
 24 25  1  0
 26 24  2  0
M  END
$$$$
