CRI.pdb
     RDKit          3D

 26 25  0  0  1  0  0  0  0  0999 V2000
    7.2866  -13.4961   18.5865 N   0  0  0  0  0  0  0  0  0  0  0  0
    8.3820  -14.2108   19.1865 C   0  0  1  0  0  0  0  0  0  0  0  0
    9.5483  -13.2200   19.3031 C   0  0  0  0  0  0  0  0  0  0  0  0
    9.1074  -11.8231   20.3466 S   0  0  0  0  0  0  0  0  0  0  0  0
    8.0114  -14.6705   20.5427 C   0  0  0  0  0  0  0  0  0  0  0  0
    7.1925  -14.0883   21.2951 O   0  0  0  0  0  0  0  0  0  0  0  0
    6.2018  -21.1608   20.7377 N   0  0  0  0  0  0  0  0  0  0  0  0
    7.1147  -21.1034   19.6588 C   0  0  0  0  0  0  0  0  0  0  0  0
    6.7083  -21.4002   18.4742 N   0  0  0  0  0  0  0  0  0  0  0  0
    8.4684  -20.7153   19.9176 N   0  0  0  0  0  0  0  0  0  0  0  0
    8.7394  -19.9883   21.1249 C   0  0  0  0  0  0  0  0  0  0  0  0
    8.2225  -18.5744   21.1124 C   0  0  0  0  0  0  0  0  0  0  0  0
    8.7236  -17.8546   22.3191 C   0  0  0  0  0  0  0  0  0  0  0  0
    8.3273  -16.3919   22.3370 C   0  0  2  0  0  0  0  0  0  0  0  0
    8.6193  -15.8521   21.0367 N   0  0  0  0  0  0  0  0  0  0  0  0
    8.9412  -15.6479   23.4350 C   0  0  0  0  0  0  0  0  0  0  0  0
   10.1411  -15.2487   23.4133 O   0  0  0  0  0  0  0  0  0  0  0  0
    7.4046  -21.4435   17.7051 C   0  0  0  0  0  0  0  0  0  0  0  0
    6.1882  -11.8348   25.6577 C   0  0  0  0  0  0  0  0  0  0  0  0
    7.3045  -12.6886   25.1087 C   0  0  2  0  0  0  0  0  0  0  0  0
    7.7683  -13.6294   26.1952 C   0  0  0  0  0  0  0  0  0  0  0  0
    8.2937  -12.7640   27.3389 C   0  0  2  0  0  0  0  0  0  0  0  0
    8.8096  -14.6092   25.7274 N   0  0  0  0  0  0  0  0  0  0  0  0
    8.1929  -15.3348   24.6033 C   0  0  0  0  0  0  0  0  0  0  0  0
    9.1982  -15.5525   26.7981 O   0  0  0  0  0  0  0  0  0  0  0  0
   10.3113  -15.3251   27.5826 O   0  0  0  0  0  0  0  0  0  0  0  0
  2  1  1  1
  3  2  1  0
  3  4  1  0
  5  2  1  0
  5  6  2  0
  7  8  1  0
  8  9  2  0
  8 10  1  0
 10 11  1  0
 12 11  1  0
 13 12  1  0
 14 13  1  6
 14 15  1  0
 15  5  1  0
 16 14  1  0
 17 16  2  0
 19 18  1  0
 20 19  1  0
 20 22  1  0
 20 21  1  1
 22 23  1  6
 22 24  1  0
 23 16  1  0
 24 25  1  0
 26 24  2  0
M  END
$$$$
