CRI.pdb
     RDKit          3D

 26 25  0  0  1  0  0  0  0  0999 V2000
    7.1032  -13.6555   18.6568 N   0  0  0  0  0  0  0  0  0  0  0  0
    7.9574  -14.5714   19.3656 C   0  0  1  0  0  0  0  0  0  0  0  0
    9.3475  -13.9238   19.4290 C   0  0  0  0  0  0  0  0  0  0  0  0
    9.3956  -12.4022   18.4713 S   0  0  0  0  0  0  0  0  0  0  0  0
    7.4621  -14.7699   20.7451 C   0  0  0  0  0  0  0  0  0  0  0  0
    6.8243  -13.9134   21.4049 O   0  0  0  0  0  0  0  0  0  0  0  0
    6.9664  -19.9091   26.8738 N   0  0  0  0  0  0  0  0  0  0  0  0
    7.8802  -20.5367   25.9954 C   0  0  0  0  0  0  0  0  0  0  0  0
    8.9283  -21.1060   26.4792 N   0  0  0  0  0  0  0  0  0  0  0  0
    7.6112  -20.5200   24.5892 N   0  0  0  0  0  0  0  0  0  0  0  0
    6.4763  -19.7701   24.1316 C   0  0  0  0  0  0  0  0  0  0  0  0
    6.6848  -18.2793   24.1503 C   0  0  0  0  0  0  0  0  0  0  0  0
    7.1032  -17.8221   22.7932 C   0  0  0  0  0  0  0  0  0  0  0  0
    7.2725  -16.3185   22.7067 C   0  0  2  0  0  0  0  0  0  0  0  0
    7.7213  -16.0129   21.3753 N   0  0  0  0  0  0  0  0  0  0  0  0
    8.1346  -15.7802   23.7569 C   0  0  0  0  0  0  0  0  0  0  0  0
    9.3970  -15.7753   23.6796 O   0  0  0  0  0  0  0  0  0  0  0  0
    9.6007  -21.5504   25.8246 C   0  0  0  0  0  0  0  0  0  0  0  0
    5.9437  -11.6123   26.1907 C   0  0  0  0  0  0  0  0  0  0  0  0
    6.9601  -12.4922   25.5057 C   0  0  2  0  0  0  0  0  0  0  0  0
    7.5200  -13.4594   26.5215 C   0  0  0  0  0  0  0  0  0  0  0  0
    8.2675  -12.6286   27.5625 C   0  0  2  0  0  0  0  0  0  0  0  0
    8.4124  -14.5074   25.9143 N   0  0  0  0  0  0  0  0  0  0  0  0
    7.5725  -15.2253   24.9397 C   0  0  0  0  0  0  0  0  0  0  0  0
    8.9339  -15.4438   26.9332 O   0  0  0  0  0  0  0  0  0  0  0  0
    8.3161  -16.6547   27.1749 O   0  0  0  0  0  0  0  0  0  0  0  0
  2  1  1  6
  3  2  1  0
  3  4  1  0
  5  2  1  0
  5  6  2  0
  7  8  1  0
  8  9  2  0
  8 10  1  0
 10 11  1  0
 12 11  1  0
 13 12  1  0
 14 13  1  6
 14 15  1  0
 15  5  1  0
 16 14  1  0
 17 16  2  0
 19 18  1  0
 20 19  1  0
 20 22  1  0
 20 21  1  1
 22 23  1  6
 22 24  1  0
 23 16  1  0
 24 25  1  0
 26 24  2  0
M  END
$$$$
