CRI.pdb
     RDKit          3D

 26 25  0  0  1  0  0  0  0  0999 V2000
    8.1065  -15.4108   17.6387 N   0  0  0  0  0  0  0  0  0  0  0  0
    8.5115  -14.7135   18.8307 C   0  0  1  0  0  0  0  0  0  0  0  0
    8.0811  -13.2505   18.6575 C   0  0  0  0  0  0  0  0  0  0  0  0
    8.4482  -12.2901   20.1332 S   0  0  0  0  0  0  0  0  0  0  0  0
    7.8211  -15.2755   20.0119 C   0  0  0  0  0  0  0  0  0  0  0  0
    6.7215  -15.8800   19.9757 O   0  0  0  0  0  0  0  0  0  0  0  0
   10.3288  -20.1385   19.1613 N   0  0  0  0  0  0  0  0  0  0  0  0
   11.3181  -20.0817   20.1706 C   0  0  0  0  0  0  0  0  0  0  0  0
   12.5289  -20.4110   19.8843 N   0  0  0  0  0  0  0  0  0  0  0  0
   10.9417  -19.6579   21.4855 N   0  0  0  0  0  0  0  0  0  0  0  0
    9.6086  -19.1612   21.6749 C   0  0  0  0  0  0  0  0  0  0  0  0
    9.5434  -17.6811   21.9423 C   0  0  0  0  0  0  0  0  0  0  0  0
    8.1303  -17.2911   22.2191 C   0  0  0  0  0  0  0  0  0  0  0  0
    7.9679  -15.8033   22.4577 C   0  0  2  0  0  0  0  0  0  0  0  0
    8.4374  -15.1257   21.2797 N   0  0  0  0  0  0  0  0  0  0  0  0
    8.6068  -15.3503   23.6917 C   0  0  0  0  0  0  0  0  0  0  0  0
    9.8596  -15.2311   23.8176 O   0  0  0  0  0  0  0  0  0  0  0  0
   13.2438  -20.3836   20.6369 C   0  0  0  0  0  0  0  0  0  0  0  0
    5.5871  -11.8198   26.2553 C   0  0  0  0  0  0  0  0  0  0  0  0
    6.7410  -12.5330   25.5946 C   0  0  2  0  0  0  0  0  0  0  0  0
    7.3402  -13.4996   26.5882 C   0  0  0  0  0  0  0  0  0  0  0  0
    7.8589  -12.6689   27.7602 C   0  0  2  0  0  0  0  0  0  0  0  0
    8.4284  -14.3563   26.0007 N   0  0  0  0  0  0  0  0  0  0  0  0
    7.8234  -15.0167   24.8309 C   0  0  0  0  0  0  0  0  0  0  0  0
    8.9167  -15.3646   26.9661 O   0  0  0  0  0  0  0  0  0  0  0  0
    9.9984  -15.1066   27.7843 O   0  0  0  0  0  0  0  0  0  0  0  0
  2  1  1  6
  3  2  1  0
  3  4  1  0
  5  2  1  0
  5  6  2  0
  7  8  1  0
  8  9  2  0
  8 10  1  0
 10 11  1  0
 12 11  1  0
 13 12  1  0
 14 13  1  6
 14 15  1  0
 15  5  1  0
 16 14  1  0
 17 16  2  0
 19 18  1  0
 20 19  1  0
 20 22  1  0
 20 21  1  1
 22 23  1  6
 22 24  1  0
 23 16  1  0
 24 25  1  0
 26 24  2  0
M  END
$$$$
