CRI.pdb
     RDKit          3D

 26 25  0  0  1  0  0  0  0  0999 V2000
    8.2459  -14.9884   17.5683 N   0  0  0  0  0  0  0  0  0  0  0  0
    8.5163  -14.2987   18.8021 C   0  0  1  0  0  0  0  0  0  0  0  0
    7.8844  -12.9053   18.6798 C   0  0  0  0  0  0  0  0  0  0  0  0
    7.9951  -12.0072   20.2341 S   0  0  0  0  0  0  0  0  0  0  0  0
    7.8843  -15.0096   19.9348 C   0  0  0  0  0  0  0  0  0  0  0  0
    6.6864  -15.3836   19.9642 O   0  0  0  0  0  0  0  0  0  0  0  0
   11.2942  -20.9108   20.0210 N   0  0  0  0  0  0  0  0  0  0  0  0
   11.8469  -20.4154   21.2250 C   0  0  0  0  0  0  0  0  0  0  0  0
   13.1158  -20.5079   21.4199 N   0  0  0  0  0  0  0  0  0  0  0  0
   10.9753  -19.8236   22.1947 N   0  0  0  0  0  0  0  0  0  0  0  0
    9.7244  -19.2902   21.7361 C   0  0  0  0  0  0  0  0  0  0  0  0
    9.6555  -17.7867   21.7699 C   0  0  0  0  0  0  0  0  0  0  0  0
    8.2840  -17.3641   22.1775 C   0  0  0  0  0  0  0  0  0  0  0  0
    8.1394  -15.8589   22.2791 C   0  0  2  0  0  0  0  0  0  0  0  0
    8.6803  -15.2932   21.0730 N   0  0  0  0  0  0  0  0  0  0  0  0
    8.7248  -15.3108   23.5009 C   0  0  0  0  0  0  0  0  0  0  0  0
    9.9525  -15.0276   23.6120 O   0  0  0  0  0  0  0  0  0  0  0  0
   13.5209  -20.0800   22.2748 C   0  0  0  0  0  0  0  0  0  0  0  0
    5.7306  -11.8876   26.2032 C   0  0  0  0  0  0  0  0  0  0  0  0
    6.9008  -12.5795   25.5485 C   0  0  2  0  0  0  0  0  0  0  0  0
    7.4046  -13.6559   26.4802 C   0  0  0  0  0  0  0  0  0  0  0  0
    7.8853  -12.9565   27.7500 C   0  0  2  0  0  0  0  0  0  0  0  0
    8.4920  -14.5023   25.8766 N   0  0  0  0  0  0  0  0  0  0  0  0
    7.9149  -15.0675   24.6445 C   0  0  0  0  0  0  0  0  0  0  0  0
    8.9178  -15.5849   26.7897 O   0  0  0  0  0  0  0  0  0  0  0  0
   10.0133  -15.4339   27.6164 O   0  0  0  0  0  0  0  0  0  0  0  0
  2  1  1  6
  3  2  1  0
  3  4  1  0
  5  2  1  0
  5  6  2  0
  7  8  1  0
  8  9  2  0
  8 10  1  0
 10 11  1  0
 12 11  1  0
 13 12  1  0
 14 13  1  6
 14 15  1  0
 15  5  1  0
 16 14  1  0
 17 16  2  0
 19 18  1  0
 20 19  1  0
 20 22  1  0
 20 21  1  1
 22 23  1  6
 22 24  1  0
 23 16  1  0
 24 25  1  0
 26 24  2  0
M  END
$$$$
