CRI.pdb
     RDKit          3D

 26 25  0  0  1  0  0  0  0  0999 V2000
    7.3168  -14.8415   18.3085 N   0  0  0  0  0  0  0  0  0  0  0  0
    8.1915  -14.3312   19.3309 C   0  0  1  0  0  0  0  0  0  0  0  0
    7.7887  -12.8698   19.5715 C   0  0  0  0  0  0  0  0  0  0  0  0
    8.4075  -11.8051   18.2607 S   0  0  0  0  0  0  0  0  0  0  0  0
    8.0060  -15.0886   20.5878 C   0  0  0  0  0  0  0  0  0  0  0  0
    6.8922  -15.3778   21.0894 O   0  0  0  0  0  0  0  0  0  0  0  0
    9.3271  -21.8449   23.5088 N   0  0  0  0  0  0  0  0  0  0  0  0
   10.1919  -21.5223   24.5805 C   0  0  0  0  0  0  0  0  0  0  0  0
   10.1762  -22.2492   25.6425 N   0  0  0  0  0  0  0  0  0  0  0  0
   11.0623  -20.3927   24.4515 N   0  0  0  0  0  0  0  0  0  0  0  0
   10.8935  -19.5423   23.3079 C   0  0  0  0  0  0  0  0  0  0  0  0
    9.9961  -18.3595   23.5567 C   0  0  0  0  0  0  0  0  0  0  0  0
    9.9376  -17.5166   22.3272 C   0  0  0  0  0  0  0  0  0  0  0  0
    9.0984  -16.2680   22.5108 C   0  0  2  0  0  0  0  0  0  0  0  0
    9.1627  -15.5230   21.2827 N   0  0  0  0  0  0  0  0  0  0  0  0
    9.4790  -15.4932   23.6902 C   0  0  0  0  0  0  0  0  0  0  0  0
   10.5858  -14.8900   23.7929 O   0  0  0  0  0  0  0  0  0  0  0  0
   10.7944  -21.9872   26.4346 C   0  0  0  0  0  0  0  0  0  0  0  0
    5.8803  -12.4534   25.9654 C   0  0  0  0  0  0  0  0  0  0  0  0
    7.1986  -12.9851   25.4592 C   0  0  2  0  0  0  0  0  0  0  0  0
    7.7555  -13.9433   26.4850 C   0  0  0  0  0  0  0  0  0  0  0  0
    8.0262  -13.1325   27.7508 C   0  0  2  0  0  0  0  0  0  0  0  0
    8.9938  -14.6589   26.0183 N   0  0  0  0  0  0  0  0  0  0  0  0
    8.5953  -15.3842   24.7994 C   0  0  0  0  0  0  0  0  0  0  0  0
    9.5007  -15.6034   27.0371 O   0  0  0  0  0  0  0  0  0  0  0  0
    9.1983  -16.9492   26.9782 O   0  0  0  0  0  0  0  0  0  0  0  0
  2  1  1  6
  3  2  1  0
  3  4  1  0
  5  2  1  0
  5  6  2  0
  7  8  1  0
  8  9  2  0
  8 10  1  0
 10 11  1  0
 12 11  1  0
 13 12  1  0
 14 13  1  6
 14 15  1  0
 15  5  1  0
 16 14  1  0
 17 16  2  0
 19 18  1  0
 20 19  1  0
 20 22  1  0
 20 21  1  1
 22 23  1  6
 22 24  1  0
 23 16  1  0
 24 25  1  0
 26 24  2  0
M  END
$$$$
