CRI.pdb
     RDKit          3D

 26 25  0  0  1  0  0  0  0  0999 V2000
    7.1831  -14.7813   17.9377 N   0  0  0  0  0  0  0  0  0  0  0  0
    8.1026  -14.5111   19.0112 C   0  0  1  0  0  0  0  0  0  0  0  0
    8.2810  -12.9878   19.0707 C   0  0  0  0  0  0  0  0  0  0  0  0
    9.4573  -12.5246   20.3499 S   0  0  0  0  0  0  0  0  0  0  0  0
    7.5379  -14.9742   20.2974 C   0  0  0  0  0  0  0  0  0  0  0  0
    6.3906  -14.6871   20.7182 O   0  0  0  0  0  0  0  0  0  0  0  0
    5.7989  -21.2901   23.6008 N   0  0  0  0  0  0  0  0  0  0  0  0
    6.5856  -21.3986   24.7712 C   0  0  0  0  0  0  0  0  0  0  0  0
    6.2582  -22.2575   25.6721 N   0  0  0  0  0  0  0  0  0  0  0  0
    7.7268  -20.5466   24.9196 N   0  0  0  0  0  0  0  0  0  0  0  0
    8.1853  -19.8310   23.7631 C   0  0  0  0  0  0  0  0  0  0  0  0
    7.8597  -18.3615   23.7886 C   0  0  0  0  0  0  0  0  0  0  0  0
    8.1688  -17.7639   22.4571 C   0  0  0  0  0  0  0  0  0  0  0  0
    7.9112  -16.2711   22.4095 C   0  0  2  0  0  0  0  0  0  0  0  0
    8.3422  -15.8020   21.1206 N   0  0  0  0  0  0  0  0  0  0  0  0
    8.5143  -15.5521   23.5299 C   0  0  0  0  0  0  0  0  0  0  0  0
    9.7510  -15.2969   23.6017 O   0  0  0  0  0  0  0  0  0  0  0  0
    6.9171  -22.4338   26.4551 C   0  0  0  0  0  0  0  0  0  0  0  0
    5.2828  -12.0834   26.0884 C   0  0  0  0  0  0  0  0  0  0  0  0
    6.5222  -12.6345   25.4275 C   0  0  2  0  0  0  0  0  0  0  0  0
    7.1814  -13.6058   26.3776 C   0  0  0  0  0  0  0  0  0  0  0  0
    7.6627  -12.7955   27.5796 C   0  0  2  0  0  0  0  0  0  0  0  0
    8.3104  -14.3767   25.7499 N   0  0  0  0  0  0  0  0  0  0  0  0
    7.7122  -15.0986   24.6134 C   0  0  0  0  0  0  0  0  0  0  0  0
    8.9220  -15.3298   26.7010 O   0  0  0  0  0  0  0  0  0  0  0  0
    8.5037  -16.6440   26.7652 O   0  0  0  0  0  0  0  0  0  0  0  0
  2  1  1  6
  3  2  1  0
  3  4  1  0
  5  2  1  0
  5  6  2  0
  7  8  1  0
  8  9  2  0
  8 10  1  0
 10 11  1  0
 12 11  1  0
 13 12  1  0
 14 13  1  1
 14 15  1  0
 15  5  1  0
 16 14  1  0
 17 16  2  0
 19 18  1  0
 20 19  1  0
 20 22  1  0
 20 21  1  1
 22 23  1  6
 22 24  1  0
 23 16  1  0
 24 25  1  0
 26 24  2  0
M  END
$$$$
