RTD.pdb
     RDKit          3D

 27 26  0  0  1  0  0  0  0  0999 V2000
   23.5569  -20.2480   -8.5394 N   0  0  0  0  0  0  0  0  0  0  0  0
   23.4224  -20.5280   -9.9347 C   0  0  0  0  0  0  0  0  0  0  0  0
   22.2563  -20.3753  -10.4682 N   0  0  0  0  0  0  0  0  0  0  0  0
   24.5194  -20.9593  -10.7233 N   0  0  0  0  0  0  0  0  0  0  0  0
   25.8415  -21.1169  -10.2194 C   0  0  0  0  0  0  0  0  0  0  0  0
   26.8746  -21.4476  -11.2362 C   0  0  0  0  0  0  0  0  0  0  0  0
   27.1319  -20.4512  -12.2949 C   0  0  0  0  0  0  0  0  0  0  0  0
   26.8433  -20.8913  -13.6952 C   0  0  2  0  0  0  0  0  0  0  0  0
   28.0604  -21.3037  -14.3320 N   0  0  0  0  0  0  0  0  0  0  0  0
   26.1835  -19.8510  -14.5121 C   0  0  0  0  0  0  0  0  0  0  0  0
   26.8625  -18.8914  -14.9892 O   0  0  0  0  0  0  0  0  0  0  0  0
   22.0616  -20.6357  -11.4389 C   0  0  0  0  0  0  0  0  0  0  0  0
   26.4579  -18.6540  -16.7091 C   0  0  2  0  0  0  0  0  0  0  0  0
   24.9682  -18.7836  -16.9325 O   0  0  0  0  0  0  0  0  0  0  0  0
   24.6946  -20.0237  -17.5583 C   0  0  2  0  0  0  0  0  0  0  0  0
   24.1834  -18.7825  -15.6337 N   0  0  0  0  0  0  0  0  0  0  0  0
   24.7961  -19.8337  -14.8213 C   0  0  0  0  0  0  0  0  0  0  0  0
   22.7473  -18.9938  -15.8230 O   0  0  0  0  0  0  0  0  0  0  0  0
   22.1491  -19.8791  -15.1585 N   0  0  0  0  0  0  0  0  0  0  0  0
   21.9512  -18.2381  -16.7408 C   0  0  1  0  0  0  0  0  0  0  0  0
   20.5494  -17.9379  -16.5356 C   0  0  0  0  0  0  0  0  0  0  0  0
   20.3731  -17.2125  -15.2250 C   0  0  0  0  0  0  0  0  0  0  0  0
   18.9795  -16.9206  -14.8833 O   0  0  0  0  0  0  0  0  0  0  0  0
   18.6801  -15.7025  -14.6590 C   0  0  0  0  0  0  0  0  0  0  0  0
   19.9809  -17.1858  -17.6631 O   0  0  0  0  0  0  0  0  0  0  0  0
   18.7299  -17.5105  -18.1425 O   0  0  0  0  0  0  0  0  0  0  0  0
   17.9481  -17.8174  -14.7764 O   0  0  0  0  0  0  0  0  0  0  0  0
  2  1  1  0
  3  2  2  0
  4  2  1  0
  5  4  1  0
  6  5  1  0
  7  6  1  0
  8 10  1  0
  8  7  1  0
  8  9  1  6
 10 11  2  0
 13 12  1  6
 13 14  1  0
 15 13  1  0
 16 10  1  0
 15 16  1  6
 17 19  1  0
 17 15  1  0
 18 17  2  0
 20 21  1  6
 20 19  1  0
 21 22  1  0
 22 26  1  0
 22 23  2  0
 24 20  1  0
 24 25  1  0
 27 24  2  0
M  END
$$$$
