RTD.pdb
     RDKit          3D

 27 26  0  0  1  0  0  0  0  0999 V2000
   10.9186   -7.1869   -9.0536 N   0  0  0  0  0  0  0  0  0  0  0  0
   10.8260   -8.5071   -9.5937 C   0  0  0  0  0  0  0  0  0  0  0  0
    9.9839   -9.3209   -9.0495 N   0  0  0  0  0  0  0  0  0  0  0  0
   11.6225   -8.9280  -10.6891 N   0  0  0  0  0  0  0  0  0  0  0  0
   12.1214   -8.0456  -11.6887 C   0  0  0  0  0  0  0  0  0  0  0  0
   12.9526   -8.6839  -12.7432 C   0  0  0  0  0  0  0  0  0  0  0  0
   14.0548   -9.5622  -12.3032 C   0  0  0  0  0  0  0  0  0  0  0  0
   14.9420  -10.0943  -13.3839 C   0  0  2  0  0  0  0  0  0  0  0  0
   14.7796  -11.5157  -13.4852 N   0  0  0  0  0  0  0  0  0  0  0  0
   16.3700   -9.7710  -13.1819 C   0  0  0  0  0  0  0  0  0  0  0  0
   16.9995  -10.2607  -12.1952 O   0  0  0  0  0  0  0  0  0  0  0  0
    9.8740  -10.2873   -9.3689 C   0  0  0  0  0  0  0  0  0  0  0  0
   19.1134  -11.0491  -13.8712 C   0  0  2  0  0  0  0  0  0  0  0  0
   19.3216   -9.6837  -14.4862 O   0  0  0  0  0  0  0  0  0  0  0  0
   18.8584   -9.6969  -15.8240 C   0  0  2  0  0  0  0  0  0  0  0  0
   18.5323   -8.5997  -13.7757 N   0  0  0  0  0  0  0  0  0  0  0  0
   17.1291   -8.9235  -14.0339 C   0  0  0  0  0  0  0  0  0  0  0  0
   18.8793   -7.2469  -14.2141 O   0  0  0  0  0  0  0  0  0  0  0  0
   18.1314   -6.6362  -15.0208 N   0  0  0  0  0  0  0  0  0  0  0  0
   20.0479   -6.5485  -13.7739 C   0  0  1  0  0  0  0  0  0  0  0  0
   20.4340   -5.2382  -14.2551 C   0  0  0  0  0  0  0  0  0  0  0  0
   20.8633   -4.3778  -13.0931 C   0  0  0  0  0  0  0  0  0  0  0  0
   21.2421   -3.0130  -13.4646 O   0  0  0  0  0  0  0  0  0  0  0  0
   22.4597   -2.8156  -13.7838 C   0  0  0  0  0  0  0  0  0  0  0  0
   21.4715   -5.3211  -15.2929 O   0  0  0  0  0  0  0  0  0  0  0  0
   21.5353   -4.3579  -16.2769 O   0  0  0  0  0  0  0  0  0  0  0  0
   20.4278   -1.9111  -13.5095 O   0  0  0  0  0  0  0  0  0  0  0  0
  2  1  1  0
  3  2  2  0
  4  2  1  0
  5  4  1  0
  6  5  1  0
  7  6  1  0
  8 10  1  0
  8  7  1  0
  8  9  1  1
 10 11  2  0
 13 12  1  6
 13 14  1  0
 15 13  1  0
 16 10  1  0
 15 16  1  1
 17 19  1  0
 17 15  1  0
 18 17  2  0
 20 21  1  6
 20 19  1  0
 21 22  1  0
 22 26  1  0
 22 23  2  0
 24 20  1  0
 24 25  1  0
 27 24  2  0
M  END
$$$$
