RTD.pdb
     RDKit          3D

 27 26  0  0  1  0  0  0  0  0999 V2000
   25.4957  -25.0698  -14.7540 N   0  0  0  0  0  0  0  0  0  0  0  0
   26.2825  -23.8820  -14.8693 C   0  0  0  0  0  0  0  0  0  0  0  0
   26.9202  -23.6893  -15.9756 N   0  0  0  0  0  0  0  0  0  0  0  0
   26.3726  -22.9356  -13.8169 N   0  0  0  0  0  0  0  0  0  0  0  0
   25.7701  -23.1144  -12.5395 C   0  0  0  0  0  0  0  0  0  0  0  0
   24.6937  -22.1456  -12.2027 C   0  0  0  0  0  0  0  0  0  0  0  0
   24.1358  -21.3369  -13.3048 C   0  0  0  0  0  0  0  0  0  0  0  0
   23.1172  -20.3122  -12.9171 C   0  0  2  0  0  0  0  0  0  0  0  0
   22.4812  -20.7033  -11.6925 N   0  0  0  0  0  0  0  0  0  0  0  0
   22.0924  -20.0820  -13.9571 C   0  0  0  0  0  0  0  0  0  0  0  0
   22.4328  -19.6513  -15.1009 O   0  0  0  0  0  0  0  0  0  0  0  0
   27.5935  -22.9269  -16.0921 C   0  0  0  0  0  0  0  0  0  0  0  0
   19.3117  -22.5423  -14.9900 C   0  0  2  0  0  0  0  0  0  0  0  0
   18.7088  -21.1861  -14.7020 O   0  0  0  0  0  0  0  0  0  0  0  0
   18.2505  -21.1521  -13.3628 C   0  0  2  0  0  0  0  0  0  0  0  0
   19.7189  -20.0613  -14.8325 N   0  0  0  0  0  0  0  0  0  0  0  0
   20.7012  -20.3115  -13.7774 C   0  0  0  0  0  0  0  0  0  0  0  0
   19.1211  -18.7292  -14.7292 O   0  0  0  0  0  0  0  0  0  0  0  0
   19.0523  -18.1558  -13.6113 N   0  0  0  0  0  0  0  0  0  0  0  0
   18.5929  -18.0107  -15.8482 C   0  0  1  0  0  0  0  0  0  0  0  0
   18.0044  -16.6907  -15.7546 C   0  0  0  0  0  0  0  0  0  0  0  0
   18.6251  -15.7846  -16.7882 C   0  0  0  0  0  0  0  0  0  0  0  0
   18.0716  -14.4291  -16.8082 O   0  0  0  0  0  0  0  0  0  0  0  0
   17.2234  -14.1356  -15.9038 C   0  0  0  0  0  0  0  0  0  0  0  0
   16.5397  -16.7362  -15.8691 O   0  0  0  0  0  0  0  0  0  0  0  0
   15.7591  -16.0742  -14.9458 O   0  0  0  0  0  0  0  0  0  0  0  0
   18.3649  -13.4282  -17.6979 O   0  0  0  0  0  0  0  0  0  0  0  0
  2  1  1  0
  3  2  2  0
  4  2  1  0
  5  4  1  0
  6  5  1  0
  7  6  1  0
  8 10  1  0
  8  7  1  0
  8  9  1  1
 10 11  2  0
 13 12  1  6
 13 14  1  0
 15 13  1  0
 16 10  1  0
 15 16  1  6
 17 19  1  0
 17 15  1  0
 18 17  2  0
 20 21  1  1
 20 19  1  0
 21 22  1  0
 22 26  1  0
 22 23  2  0
 24 20  1  0
 24 25  1  0
 27 24  2  0
M  END
$$$$
