RTD.pdb
     RDKit          3D

 27 26  0  0  1  0  0  0  0  0999 V2000
   12.3441  -14.7287  -11.6197 N   0  0  0  0  0  0  0  0  0  0  0  0
   13.4364  -15.3504  -12.3007 C   0  0  0  0  0  0  0  0  0  0  0  0
   13.2377  -16.5191  -12.8128 N   0  0  0  0  0  0  0  0  0  0  0  0
   14.7021  -14.7220  -12.4208 N   0  0  0  0  0  0  0  0  0  0  0  0
   14.8824  -13.3107  -12.4696 C   0  0  0  0  0  0  0  0  0  0  0  0
   14.4146  -12.5679  -11.2696 C   0  0  0  0  0  0  0  0  0  0  0  0
   14.6753  -11.1154  -11.2230 C   0  0  0  0  0  0  0  0  0  0  0  0
   14.1713  -10.3961  -10.0119 C   0  0  2  0  0  0  0  0  0  0  0  0
   12.8279  -10.8109   -9.7287 N   0  0  0  0  0  0  0  0  0  0  0  0
   14.2195   -8.9246  -10.1421 C   0  0  0  0  0  0  0  0  0  0  0  0
   13.1905   -8.2855  -10.5193 O   0  0  0  0  0  0  0  0  0  0  0  0
   13.9491  -16.9986  -13.3714 C   0  0  0  0  0  0  0  0  0  0  0  0
   14.7018   -6.4003   -7.6590 C   0  0  2  0  0  0  0  0  0  0  0  0
   15.7499   -6.1082   -8.7087 O   0  0  0  0  0  0  0  0  0  0  0  0
   16.9712   -6.7184   -8.3338 C   0  0  2  0  0  0  0  0  0  0  0  0
   15.3889   -6.6825  -10.0661 N   0  0  0  0  0  0  0  0  0  0  0  0
   15.3676   -8.1321   -9.8693 C   0  0  0  0  0  0  0  0  0  0  0  0
   16.3102   -6.2807  -11.1302 O   0  0  0  0  0  0  0  0  0  0  0  0
   17.4830   -6.7361  -11.1517 N   0  0  0  0  0  0  0  0  0  0  0  0
   15.9576   -5.3768  -12.1819 C   0  0  1  0  0  0  0  0  0  0  0  0
   16.8819   -4.9246  -13.2010 C   0  0  0  0  0  0  0  0  0  0  0  0
   16.1799   -4.8727  -14.5349 C   0  0  0  0  0  0  0  0  0  0  0  0
   15.6612   -6.1638  -14.9908 O   0  0  0  0  0  0  0  0  0  0  0  0
   16.4194   -7.1775  -14.8457 C   0  0  0  0  0  0  0  0  0  0  0  0
   17.4947   -3.6357  -12.8496 O   0  0  0  0  0  0  0  0  0  0  0  0
   18.5224   -3.1330  -13.6186 O   0  0  0  0  0  0  0  0  0  0  0  0
   14.4393   -6.4102  -15.5617 O   0  0  0  0  0  0  0  0  0  0  0  0
  2  1  1  0
  3  2  2  0
  4  2  1  0
  5  4  1  0
  6  5  1  0
  7  6  1  0
  8 10  1  0
  8  7  1  0
  8  9  1  6
 10 11  2  0
 13 12  1  1
 13 14  1  0
 15 13  1  0
 16 10  1  0
 15 16  1  6
 17 19  1  0
 17 15  1  0
 18 17  2  0
 20 21  1  6
 20 19  1  0
 21 22  1  0
 22 26  1  0
 22 23  2  0
 24 20  1  0
 24 25  1  0
 27 24  2  0
M  END
$$$$
