RTD.pdb
     RDKit          3D

 27 26  0  0  1  0  0  0  0  0999 V2000
   16.8709  -24.4973   -8.0941 N   0  0  0  0  0  0  0  0  0  0  0  0
   18.0283  -25.2259   -8.5101 C   0  0  0  0  0  0  0  0  0  0  0  0
   18.5773  -26.0211   -7.6534 N   0  0  0  0  0  0  0  0  0  0  0  0
   18.5702  -25.0941   -9.8140 N   0  0  0  0  0  0  0  0  0  0  0  0
   17.8233  -24.6412  -10.9383 C   0  0  0  0  0  0  0  0  0  0  0  0
   17.9042  -23.1816  -11.2094 C   0  0  0  0  0  0  0  0  0  0  0  0
   18.5026  -22.7590  -12.4912 C   0  0  0  0  0  0  0  0  0  0  0  0
   19.9087  -22.2525  -12.4243 C   0  0  2  0  0  0  0  0  0  0  0  0
   20.0051  -21.2267  -11.4266 N   0  0  0  0  0  0  0  0  0  0  0  0
   20.4077  -21.7367  -13.7164 C   0  0  0  0  0  0  0  0  0  0  0  0
   20.3836  -22.4749  -14.7479 O   0  0  0  0  0  0  0  0  0  0  0  0
   19.4561  -26.5093   -7.8467 C   0  0  0  0  0  0  0  0  0  0  0  0
   19.1189  -18.8943  -15.6018 C   0  0  2  0  0  0  0  0  0  0  0  0
   20.6032  -18.6577  -15.4386 O   0  0  0  0  0  0  0  0  0  0  0  0
   20.8269  -17.8600  -14.2905 C   0  0  2  0  0  0  0  0  0  0  0  0
   21.3760  -19.9447  -15.2170 N   0  0  0  0  0  0  0  0  0  0  0  0
   20.9339  -20.4304  -13.9096 C   0  0  0  0  0  0  0  0  0  0  0  0
   22.8277  -19.7686  -15.2815 O   0  0  0  0  0  0  0  0  0  0  0  0
   23.4548  -19.3435  -14.2768 N   0  0  0  0  0  0  0  0  0  0  0  0
   23.6082  -20.0565  -16.4457 C   0  0  1  0  0  0  0  0  0  0  0  0
   25.0400  -19.8553  -16.5272 C   0  0  0  0  0  0  0  0  0  0  0  0
   25.7435  -21.1879  -16.4629 C   0  0  0  0  0  0  0  0  0  0  0  0
   26.7174  -21.3006  -15.3753 O   0  0  0  0  0  0  0  0  0  0  0  0
   26.9081  -20.2649  -14.6578 C   0  0  0  0  0  0  0  0  0  0  0  0
   25.4170  -19.0898  -17.7240 O   0  0  0  0  0  0  0  0  0  0  0  0
   26.6866  -18.5636  -17.8294 O   0  0  0  0  0  0  0  0  0  0  0  0
   27.4554  -22.4050  -15.0360 O   0  0  0  0  0  0  0  0  0  0  0  0
  2  1  1  0
  3  2  2  0
  4  2  1  0
  5  4  1  0
  6  5  1  0
  7  6  1  0
  8 10  1  0
  8  7  1  0
  8  9  1  1
 10 11  2  0
 13 12  1  6
 13 14  1  0
 15 13  1  0
 16 10  1  0
 15 16  1  6
 17 19  1  0
 17 15  1  0
 18 17  2  0
 20 21  1  6
 20 19  1  0
 21 22  1  0
 22 26  1  0
 22 23  2  0
 24 20  1  0
 24 25  1  0
 27 24  2  0
M  END
$$$$
