RTD.pdb
     RDKit          3D

 27 26  0  0  1  0  0  0  0  0999 V2000
   28.1813  -24.2971  -16.8179 N   0  0  0  0  0  0  0  0  0  0  0  0
   27.9791  -22.9732  -17.3175 C   0  0  0  0  0  0  0  0  0  0  0  0
   27.9030  -22.8195  -18.5974 N   0  0  0  0  0  0  0  0  0  0  0  0
   27.8632  -21.8541  -16.4540 N   0  0  0  0  0  0  0  0  0  0  0  0
   26.7493  -21.6296  -15.5962 C   0  0  0  0  0  0  0  0  0  0  0  0
   25.5773  -20.9741  -16.2342 C   0  0  0  0  0  0  0  0  0  0  0  0
   24.4272  -20.6435  -15.3693 C   0  0  0  0  0  0  0  0  0  0  0  0
   24.0971  -21.6420  -14.3054 C   0  0  2  0  0  0  0  0  0  0  0  0
   24.1076  -22.9631  -14.8636 N   0  0  0  0  0  0  0  0  0  0  0  0
   22.7967  -21.3907  -13.6492 C   0  0  0  0  0  0  0  0  0  0  0  0
   22.6104  -20.3188  -12.9965 O   0  0  0  0  0  0  0  0  0  0  0  0
   27.8678  -21.8947  -19.0351 C   0  0  0  0  0  0  0  0  0  0  0  0
   19.5695  -20.5298  -14.6649 C   0  0  2  0  0  0  0  0  0  0  0  0
   19.3830  -21.8290  -13.9145 O   0  0  0  0  0  0  0  0  0  0  0  0
   19.4421  -22.9097  -14.8272 C   0  0  2  0  0  0  0  0  0  0  0  0
   20.4805  -22.0747  -12.8958 N   0  0  0  0  0  0  0  0  0  0  0  0
   21.6919  -22.2842  -13.6890 C   0  0  0  0  0  0  0  0  0  0  0  0
   20.2015  -23.1995  -12.0016 O   0  0  0  0  0  0  0  0  0  0  0  0
   20.6788  -24.3361  -12.2532 N   0  0  0  0  0  0  0  0  0  0  0  0
   19.3978  -23.0918  -10.8227 C   0  0  1  0  0  0  0  0  0  0  0  0
   19.0024  -24.2232  -10.0096 C   0  0  0  0  0  0  0  0  0  0  0  0
   19.1702  -23.8817   -8.5501 C   0  0  0  0  0  0  0  0  0  0  0  0
   18.8488  -24.9795   -7.6361 O   0  0  0  0  0  0  0  0  0  0  0  0
   18.5440  -26.1002   -8.1601 C   0  0  0  0  0  0  0  0  0  0  0  0
   17.6357  -24.6670  -10.3187 O   0  0  0  0  0  0  0  0  0  0  0  0
   17.3053  -26.0002  -10.2028 O   0  0  0  0  0  0  0  0  0  0  0  0
   18.8387  -24.9396   -6.2657 O   0  0  0  0  0  0  0  0  0  0  0  0
  2  1  1  0
  3  2  2  0
  4  2  1  0
  5  4  1  0
  6  5  1  0
  7  6  1  0
  8 10  1  0
  8  7  1  0
  8  9  1  6
 10 11  2  0
 13 12  1  6
 13 14  1  0
 15 13  1  0
 16 10  1  0
 15 16  1  1
 17 19  1  0
 17 15  1  0
 18 17  2  0
 20 21  1  6
 20 19  1  0
 21 22  1  0
 22 26  1  0
 22 23  2  0
 24 20  1  0
 24 25  1  0
 27 24  2  0
M  END
$$$$
