RTD.pdb
     RDKit          3D

 27 26  0  0  1  0  0  0  0  0999 V2000
   12.5208  -16.2495  -15.4257 N   0  0  0  0  0  0  0  0  0  0  0  0
   12.5920  -15.3732  -16.5528 C   0  0  0  0  0  0  0  0  0  0  0  0
   12.0806  -15.7833  -17.6654 N   0  0  0  0  0  0  0  0  0  0  0  0
   13.1988  -14.0939  -16.4724 N   0  0  0  0  0  0  0  0  0  0  0  0
   13.7456  -13.5523  -15.2747 C   0  0  0  0  0  0  0  0  0  0  0  0
   14.3881  -12.2189  -15.4149 C   0  0  0  0  0  0  0  0  0  0  0  0
   15.8575  -12.1820  -15.5539 C   0  0  0  0  0  0  0  0  0  0  0  0
   16.5878  -11.3130  -14.5795 C   0  0  2  0  0  0  0  0  0  0  0  0
   15.8643  -11.2618  -13.3422 N   0  0  0  0  0  0  0  0  0  0  0  0
   16.8183   -9.9404  -15.0769 C   0  0  0  0  0  0  0  0  0  0  0  0
   17.4838   -9.7528  -16.1406 O   0  0  0  0  0  0  0  0  0  0  0  0
   12.0702  -15.2026  -18.5084 C   0  0  0  0  0  0  0  0  0  0  0  0
   15.4978   -5.1631  -14.9806 C   0  0  2  0  0  0  0  0  0  0  0  0
   15.3333   -6.6419  -14.7122 O   0  0  0  0  0  0  0  0  0  0  0  0
   14.3725   -7.1758  -15.6045 C   0  0  1  0  0  0  0  0  0  0  0  0
   16.6128   -7.4220  -14.9514 N   0  0  0  0  0  0  0  0  0  0  0  0
   16.3380   -8.7645  -14.4388 C   0  0  0  0  0  0  0  0  0  0  0  0
   17.7877   -6.8174  -14.3217 O   0  0  0  0  0  0  0  0  0  0  0  0
   18.1039   -7.1345  -13.1459 N   0  0  0  0  0  0  0  0  0  0  0  0
   18.6289   -5.8601  -14.9724 C   0  0  1  0  0  0  0  0  0  0  0  0
   19.7997   -5.2668  -14.3603 C   0  0  0  0  0  0  0  0  0  0  0  0
   20.9551   -6.2334  -14.4343 C   0  0  0  0  0  0  0  0  0  0  0  0
   22.1987   -5.7283  -13.8491 O   0  0  0  0  0  0  0  0  0  0  0  0
   23.0095   -5.1349  -14.6328 C   0  0  0  0  0  0  0  0  0  0  0  0
   20.1295   -3.9659  -14.9595 O   0  0  0  0  0  0  0  0  0  0  0  0
   20.7479   -2.9975  -14.1980 O   0  0  0  0  0  0  0  0  0  0  0  0
   22.5949   -5.8208  -12.5400 O   0  0  0  0  0  0  0  0  0  0  0  0
  2  1  1  0
  3  2  2  0
  4  2  1  0
  5  4  1  0
  6  5  1  0
  7  6  1  0
  8 10  1  0
  8  7  1  0
  8  9  1  1
 10 11  2  0
 13 12  1  1
 13 14  1  0
 15 13  1  0
 16 10  1  0
 15 16  1  1
 17 19  1  0
 17 15  1  0
 18 17  2  0
 20 21  1  1
 20 19  1  0
 21 22  1  0
 22 26  1  0
 22 23  2  0
 24 20  1  0
 24 25  1  0
 27 24  2  0
M  END
$$$$
