RTD.pdb
     RDKit          3D

 27 26  0  0  1  0  0  0  0  0999 V2000
   25.7401  -25.3276  -16.0953 N   0  0  0  0  0  0  0  0  0  0  0  0
   24.5539  -26.1170  -16.2090 C   0  0  0  0  0  0  0  0  0  0  0  0
   24.6478  -27.3810  -15.9618 N   0  0  0  0  0  0  0  0  0  0  0  0
   23.3074  -25.5508  -16.5791 N   0  0  0  0  0  0  0  0  0  0  0  0
   23.0272  -24.1558  -16.5296 C   0  0  0  0  0  0  0  0  0  0  0  0
   23.8550  -23.3743  -15.5733 C   0  0  0  0  0  0  0  0  0  0  0  0
   23.1938  -22.8709  -14.3530 C   0  0  0  0  0  0  0  0  0  0  0  0
   21.9795  -22.0235  -14.5659 C   0  0  2  0  0  0  0  0  0  0  0  0
   22.3566  -20.7875  -15.1880 N   0  0  0  0  0  0  0  0  0  0  0  0
   21.2336  -21.7451  -13.3206 C   0  0  0  0  0  0  0  0  0  0  0  0
   21.6619  -20.8736  -12.5041 O   0  0  0  0  0  0  0  0  0  0  0  0
   23.8364  -28.0046  -15.9896 C   0  0  0  0  0  0  0  0  0  0  0  0
   18.5124  -19.9287  -12.4415 C   0  0  2  0  0  0  0  0  0  0  0  0
   18.1520  -21.3245  -11.9857 O   0  0  0  0  0  0  0  0  0  0  0  0
   17.4797  -22.0001  -13.0327 C   0  0  2  0  0  0  0  0  0  0  0  0
   19.3737  -22.1624  -11.6571 N   0  0  0  0  0  0  0  0  0  0  0  0
   20.0279  -22.3974  -12.9445 C   0  0  0  0  0  0  0  0  0  0  0  0
   19.0523  -23.4100  -10.9622 O   0  0  0  0  0  0  0  0  0  0  0  0
   19.0982  -24.5043  -11.5814 N   0  0  0  0  0  0  0  0  0  0  0  0
   18.6780  -23.4728   -9.5827 C   0  0  1  0  0  0  0  0  0  0  0  0
   18.3000  -24.6951   -8.9041 C   0  0  0  0  0  0  0  0  0  0  0  0
   18.4332  -24.5091   -7.4132 C   0  0  0  0  0  0  0  0  0  0  0  0
   18.0019  -25.6641   -6.6234 O   0  0  0  0  0  0  0  0  0  0  0  0
   17.6496  -26.7069   -7.2653 C   0  0  0  0  0  0  0  0  0  0  0  0
   16.9515  -25.1377   -9.2864 O   0  0  0  0  0  0  0  0  0  0  0  0
   16.7443  -26.4424   -9.6800 O   0  0  0  0  0  0  0  0  0  0  0  0
   17.9334  -25.7537   -5.2571 O   0  0  0  0  0  0  0  0  0  0  0  0
  2  1  1  0
  3  2  2  0
  4  2  1  0
  5  4  1  0
  6  5  1  0
  7  6  1  0
  8 10  1  0
  8  7  1  0
  8  9  1  1
 10 11  2  0
 13 12  1  1
 13 14  1  0
 15 13  1  0
 16 10  1  0
 15 16  1  1
 17 19  1  0
 17 15  1  0
 18 17  2  0
 20 21  1  6
 20 19  1  0
 21 22  1  0
 22 26  1  0
 22 23  2  0
 24 20  1  0
 24 25  1  0
 27 24  2  0
M  END
$$$$
