RTD.pdb
     RDKit          3D

 27 26  0  0  1  0  0  0  0  0999 V2000
   19.0465  -16.4840  -18.0133 N   0  0  0  0  0  0  0  0  0  0  0  0
   19.5877  -15.5378  -17.0886 C   0  0  0  0  0  0  0  0  0  0  0  0
   20.8663  -15.3566  -17.0940 N   0  0  0  0  0  0  0  0  0  0  0  0
   18.7658  -14.8129  -16.1883 N   0  0  0  0  0  0  0  0  0  0  0  0
   17.3578  -14.9949  -16.0822 C   0  0  0  0  0  0  0  0  0  0  0  0
   16.5300  -13.9451  -16.7327 C   0  0  0  0  0  0  0  0  0  0  0  0
   16.0203  -12.8534  -15.8794 C   0  0  0  0  0  0  0  0  0  0  0  0
   15.1437  -11.8466  -16.5547 C   0  0  2  0  0  0  0  0  0  0  0  0
   14.6163  -12.4021  -17.7672 N   0  0  0  0  0  0  0  0  0  0  0  0
   15.8341  -10.5737  -16.8510 C   0  0  0  0  0  0  0  0  0  0  0  0
   16.3475  -10.3800  -17.9948 O   0  0  0  0  0  0  0  0  0  0  0  0
   21.3293  -14.7133  -16.4461 C   0  0  0  0  0  0  0  0  0  0  0  0
   14.4486   -7.3181  -16.8848 C   0  0  2  0  0  0  0  0  0  0  0  0
   15.6834   -7.1607  -16.0267 O   0  0  0  0  0  0  0  0  0  0  0  0
   15.3168   -7.2315  -14.6610 C   0  0  2  0  0  0  0  0  0  0  0  0
   16.6932   -8.2707  -16.2520 N   0  0  0  0  0  0  0  0  0  0  0  0
   15.9776   -9.5044  -15.9254 C   0  0  0  0  0  0  0  0  0  0  0  0
   17.9155   -8.1128  -15.4622 O   0  0  0  0  0  0  0  0  0  0  0  0
   18.1868   -8.9378  -14.5518 N   0  0  0  0  0  0  0  0  0  0  0  0
   18.8535   -7.0507  -15.6609 C   0  0  1  0  0  0  0  0  0  0  0  0
   20.0936   -6.9211  -14.9242 C   0  0  0  0  0  0  0  0  0  0  0  0
   20.9554   -8.1353  -15.1649 C   0  0  0  0  0  0  0  0  0  0  0  0
   22.2703   -8.0748  -14.5235 O   0  0  0  0  0  0  0  0  0  0  0  0
   22.5001   -7.0772  -13.7647 C   0  0  0  0  0  0  0  0  0  0  0  0
   20.7960   -5.6724  -15.2521 O   0  0  0  0  0  0  0  0  0  0  0  0
   21.8547   -5.2566  -14.4735 O   0  0  0  0  0  0  0  0  0  0  0  0
   23.2937   -8.9786  -14.6464 O   0  0  0  0  0  0  0  0  0  0  0  0
  2  1  1  0
  3  2  2  0
  4  2  1  0
  5  4  1  0
  6  5  1  0
  7  6  1  0
  8 10  1  0
  8  7  1  0
  8  9  1  6
 10 11  2  0
 13 12  1  1
 13 14  1  0
 15 13  1  0
 16 10  1  0
 15 16  1  6
 17 19  1  0
 17 15  1  0
 18 17  2  0
 20 21  1  1
 20 19  1  0
 21 22  1  0
 22 26  1  0
 22 23  2  0
 24 20  1  0
 24 25  1  0
 27 24  2  0
M  END
$$$$
