RTD.pdb
     RDKit          3D

 27 26  0  0  1  0  0  0  0  0999 V2000
   39.5138   -8.1502  -10.8065 N   0  0  0  0  0  0  0  0  0  0  0  0
   38.6781   -7.3931  -11.6850 C   0  0  0  0  0  0  0  0  0  0  0  0
   38.8815   -6.1199  -11.7583 N   0  0  0  0  0  0  0  0  0  0  0  0
   37.6557   -8.0003  -12.4578 N   0  0  0  0  0  0  0  0  0  0  0  0
   36.8112   -7.2848  -13.3531 C   0  0  0  0  0  0  0  0  0  0  0  0
   36.7462   -7.8265  -14.7362 C   0  0  0  0  0  0  0  0  0  0  0  0
   35.4084   -8.0895  -15.3026 C   0  0  0  0  0  0  0  0  0  0  0  0
   35.1764   -9.4722  -15.8246 C   0  0  2  0  0  0  0  0  0  0  0  0
   36.4241  -10.0493  -16.2333 N   0  0  0  0  0  0  0  0  0  0  0  0
   34.2156   -9.5213  -16.9467 C   0  0  0  0  0  0  0  0  0  0  0  0
   34.6177   -9.3416  -18.1365 O   0  0  0  0  0  0  0  0  0  0  0  0
   38.3074   -5.5082  -12.3451 C   0  0  0  0  0  0  0  0  0  0  0  0
   32.3604  -12.2262  -18.2822 C   0  0  2  0  0  0  0  0  0  0  0  0
   31.3222  -11.1760  -17.9583 O   0  0  0  0  0  0  0  0  0  0  0  0
   30.8075  -11.4108  -16.6604 C   0  0  2  0  0  0  0  0  0  0  0  0
   31.9011   -9.7735  -17.9367 N   0  0  0  0  0  0  0  0  0  0  0  0
   32.8224   -9.7627  -16.8002 C   0  0  0  0  0  0  0  0  0  0  0  0
   30.8831   -8.7266  -17.8356 O   0  0  0  0  0  0  0  0  0  0  0  0
   30.5401   -8.2901  -16.7064 N   0  0  0  0  0  0  0  0  0  0  0  0
   30.2303   -8.1464  -18.9690 C   0  0  1  0  0  0  0  0  0  0  0  0
   29.2146   -7.1182  -18.8762 C   0  0  0  0  0  0  0  0  0  0  0  0
   29.3339   -6.1806  -20.0516 C   0  0  0  0  0  0  0  0  0  0  0  0
   28.3339   -5.1112  -20.0702 O   0  0  0  0  0  0  0  0  0  0  0  0
   27.8277   -4.7708  -18.9515 C   0  0  0  0  0  0  0  0  0  0  0  0
   27.8659   -7.6911  -18.7623 O   0  0  0  0  0  0  0  0  0  0  0  0
   26.8923   -7.0173  -18.0565 O   0  0  0  0  0  0  0  0  0  0  0  0
   27.8750   -4.4258  -21.1653 O   0  0  0  0  0  0  0  0  0  0  0  0
  2  1  1  0
  3  2  2  0
  4  2  1  0
  5  4  1  0
  6  5  1  0
  7  6  1  0
  8 10  1  0
  8  7  1  0
  8  9  1  6
 10 11  2  0
 13 12  1  6
 13 14  1  0
 15 13  1  0
 16 10  1  0
 15 16  1  6
 17 19  1  0
 17 15  1  0
 18 17  2  0
 20 21  1  1
 20 19  1  0
 21 22  1  0
 22 26  1  0
 22 23  2  0
 24 20  1  0
 24 25  1  0
 27 24  2  0
M  END
$$$$
