RTD.pdb
     RDKit          3D

 27 26  0  0  1  0  0  0  0  0999 V2000
   22.6769  -20.9134   -8.8285 N   0  0  0  0  0  0  0  0  0  0  0  0
   23.5653  -21.2428   -7.7582 C   0  0  0  0  0  0  0  0  0  0  0  0
   23.0577  -21.7850   -6.7017 N   0  0  0  0  0  0  0  0  0  0  0  0
   24.9589  -20.9912   -7.8344 N   0  0  0  0  0  0  0  0  0  0  0  0
   25.5865  -20.3469   -8.9379 C   0  0  0  0  0  0  0  0  0  0  0  0
   25.0370  -20.6957  -10.2747 C   0  0  0  0  0  0  0  0  0  0  0  0
   25.7252  -20.1448  -11.4590 C   0  0  0  0  0  0  0  0  0  0  0  0
   25.1928  -20.5775  -12.7884 C   0  0  2  0  0  0  0  0  0  0  0  0
   25.8604  -21.7752  -13.2089 N   0  0  0  0  0  0  0  0  0  0  0  0
   25.3222  -19.5431  -13.8363 C   0  0  0  0  0  0  0  0  0  0  0  0
   24.8250  -18.3899  -13.6562 O   0  0  0  0  0  0  0  0  0  0  0  0
   23.6046  -21.9376   -5.8499 C   0  0  0  0  0  0  0  0  0  0  0  0
   28.5490  -18.8037  -15.6428 C   0  0  2  0  0  0  0  0  0  0  0  0
   27.4612  -18.8417  -16.6921 O   0  0  0  0  0  0  0  0  0  0  0  0
   27.4785  -20.1007  -17.3394 C   0  0  2  0  0  0  0  0  0  0  0  0
   26.0737  -18.6909  -16.0966 N   0  0  0  0  0  0  0  0  0  0  0  0
   25.9834  -19.7385  -15.0794 C   0  0  0  0  0  0  0  0  0  0  0  0
   25.0022  -18.7876  -17.0893 O   0  0  0  0  0  0  0  0  0  0  0  0
   24.2917  -19.8244  -17.1484 N   0  0  0  0  0  0  0  0  0  0  0  0
   24.6970  -17.7508  -18.0268 C   0  0  1  0  0  0  0  0  0  0  0  0
   23.3514  -17.3969  -18.4289 C   0  0  0  0  0  0  0  0  0  0  0  0
   22.5482  -16.9991  -17.2158 C   0  0  0  0  0  0  0  0  0  0  0  0
   21.1534  -16.6598  -17.5045 O   0  0  0  0  0  0  0  0  0  0  0  0
   20.8908  -15.4352  -17.7388 C   0  0  0  0  0  0  0  0  0  0  0  0
   23.3469  -16.3505  -19.4609 O   0  0  0  0  0  0  0  0  0  0  0  0
   22.3653  -16.3464  -20.4286 O   0  0  0  0  0  0  0  0  0  0  0  0
   20.0856  -17.5183  -17.5528 O   0  0  0  0  0  0  0  0  0  0  0  0
  2  1  1  0
  3  2  2  0
  4  2  1  0
  5  4  1  0
  6  5  1  0
  7  6  1  0
  8 10  1  0
  8  7  1  0
  8  9  1  6
 10 11  2  0
 13 12  1  6
 13 14  1  0
 15 13  1  0
 16 10  1  0
 15 16  1  6
 17 19  1  0
 17 15  1  0
 18 17  2  0
 20 21  1  6
 20 19  1  0
 21 22  1  0
 22 26  1  0
 22 23  2  0
 24 20  1  0
 24 25  1  0
 27 24  2  0
M  END
$$$$
