RTD.pdb
     RDKit          3D

 27 26  0  0  1  0  0  0  0  0999 V2000
   33.1189  -32.1011  -17.8641 N   0  0  0  0  0  0  0  0  0  0  0  0
   31.9611  -32.8526  -18.2353 C   0  0  0  0  0  0  0  0  0  0  0  0
   32.0915  -34.1306  -18.3670 N   0  0  0  0  0  0  0  0  0  0  0  0
   30.7036  -32.2350  -18.4557 N   0  0  0  0  0  0  0  0  0  0  0  0
   30.4003  -30.8992  -18.0674 C   0  0  0  0  0  0  0  0  0  0  0  0
   29.0661  -30.4004  -18.4936 C   0  0  0  0  0  0  0  0  0  0  0  0
   28.7357  -28.9939  -18.1894 C   0  0  0  0  0  0  0  0  0  0  0  0
   28.7330  -28.6182  -16.7414 C   0  0  2  0  0  0  0  0  0  0  0  0
   27.7504  -29.3954  -16.0431 N   0  0  0  0  0  0  0  0  0  0  0  0
   28.4844  -27.1798  -16.5098 C   0  0  0  0  0  0  0  0  0  0  0  0
   27.6680  -26.8121  -15.6109 O   0  0  0  0  0  0  0  0  0  0  0  0
   31.3087  -34.7349  -18.6320 C   0  0  0  0  0  0  0  0  0  0  0  0
   30.0990  -22.5206  -17.2236 C   0  0  1  0  0  0  0  0  0  0  0  0
   30.1609  -24.0202  -17.4060 O   0  0  0  0  0  0  0  0  0  0  0  0
   31.2310  -24.5415  -16.6395 C   0  0  1  0  0  0  0  0  0  0  0  0
   28.9072  -24.7181  -16.9124 N   0  0  0  0  0  0  0  0  0  0  0  0
   29.1079  -26.1303  -17.2381 C   0  0  0  0  0  0  0  0  0  0  0  0
   27.6765  -24.1834  -17.4972 O   0  0  0  0  0  0  0  0  0  0  0  0
   27.3554  -24.4893  -18.6747 N   0  0  0  0  0  0  0  0  0  0  0  0
   26.7845  -23.3089  -16.7994 C   0  0  1  0  0  0  0  0  0  0  0  0
   25.5542  -22.7936  -17.3635 C   0  0  0  0  0  0  0  0  0  0  0  0
   24.4887  -22.7455  -16.2970 C   0  0  0  0  0  0  0  0  0  0  0  0
   23.1800  -22.2960  -16.7758 O   0  0  0  0  0  0  0  0  0  0  0  0
   23.0861  -21.9950  -18.0104 C   0  0  0  0  0  0  0  0  0  0  0  0
   25.7526  -21.4859  -18.0044 O   0  0  0  0  0  0  0  0  0  0  0  0
   26.8814  -20.7475  -17.7203 O   0  0  0  0  0  0  0  0  0  0  0  0
   22.0310  -22.1611  -16.0402 O   0  0  0  0  0  0  0  0  0  0  0  0
  2  1  1  0
  3  2  2  0
  4  2  1  0
  5  4  1  0
  6  5  1  0
  7  6  1  0
  8 10  1  0
  8  7  1  0
  8  9  1  1
 10 11  2  0
 13 12  1  6
 13 14  1  0
 15 13  1  0
 16 10  1  0
 15 16  1  6
 17 19  1  0
 17 15  1  0
 18 17  2  0
 20 21  1  6
 20 19  1  0
 21 22  1  0
 22 26  1  0
 22 23  2  0
 24 20  1  0
 24 25  1  0
 27 24  2  0
M  END
$$$$
