VTG.pdb
     RDKit          3D

 19 18  0  0  1  0  0  0  0  0999 V2000
   16.7431  -12.2906  -18.2004 C   0  0  0  0  0  0  0  0  0  0  0  0
   17.5237  -11.5244  -17.2007 C   0  0  2  0  0  0  0  0  0  0  0  0
   17.4595  -10.0516  -17.5458 C   0  0  0  0  0  0  0  0  0  0  0  0
   18.9191  -12.0030  -16.9733 C   0  0  2  0  0  0  0  0  0  0  0  0
   18.8300  -13.4150  -16.5743 N   0  0  0  0  0  0  0  0  0  0  0  0
   19.6778  -11.2465  -15.9737 C   0  0  0  0  0  0  0  0  0  0  0  0
   19.3374  -11.3072  -14.7665 O   0  0  0  0  0  0  0  0  0  0  0  0
   23.1726  -11.5516  -15.0965 C   0  0  0  0  0  0  0  0  0  0  0  0
   22.9672  -10.1103  -15.4136 C   0  0  1  0  0  0  0  0  0  0  0  0
   23.3113   -9.9387  -16.7717 O   0  0  0  0  0  0  0  0  0  0  0  0
   21.5107   -9.6455  -15.2518 C   0  0  2  0  0  0  0  0  0  0  0  0
   20.7978  -10.4291  -16.2759 N   0  0  0  0  0  0  0  0  0  0  0  0
   21.3578   -8.2104  -15.4899 C   0  0  0  0  0  0  0  0  0  0  0  0
   20.9393   -7.7934  -16.6010 O   0  0  0  0  0  0  0  0  0  0  0  0
   21.6660   -7.2510  -14.5003 N   0  0  0  0  0  0  0  0  0  0  0  0
   21.6132   -5.8110  -14.8188 C   0  0  0  0  0  0  0  0  0  0  0  0
   21.8054   -5.0413  -13.5854 C   0  0  0  0  0  0  0  0  0  0  0  0
   21.7823   -5.6696  -12.4871 O   0  0  0  0  0  0  0  0  0  0  0  0
   22.0099   -3.6653  -13.5663 O   0  0  0  0  0  0  0  0  0  0  0  0
  2  1  1  6
  3  2  1  0
  4  5  1  1
  4  2  1  0
  6  4  1  0
  6  7  2  0
  9  8  1  6
  9 10  1  0
  9 11  1  0
 11 12  1  6
 11 13  1  0
 12  6  1  0
 13 14  2  0
 13 15  1  0
 15 16  1  0
 17 19  1  0
 17 16  1  0
 18 17  2  0
M  END
$$$$
