VTG.pdb
     RDKit          3D

 19 18  0  0  1  0  0  0  0  0999 V2000
   15.4540  -11.7305  -17.6141 C   0  0  0  0  0  0  0  0  0  0  0  0
   15.6279  -11.6907  -16.1431 C   0  0  2  0  0  0  0  0  0  0  0  0
   14.7410  -10.6061  -15.5691 C   0  0  0  0  0  0  0  0  0  0  0  0
   17.0392  -11.5933  -15.6670 C   0  0  2  0  0  0  0  0  0  0  0  0
   17.0265  -11.8721  -14.2237 N   0  0  0  0  0  0  0  0  0  0  0  0
   17.6915  -10.3064  -15.9232 C   0  0  0  0  0  0  0  0  0  0  0  0
   18.1008  -10.0430  -17.0808 O   0  0  0  0  0  0  0  0  0  0  0  0
   16.5488   -7.2148  -16.5159 C   0  0  0  0  0  0  0  0  0  0  0  0
   17.3990   -7.0375  -15.3053 C   0  0  1  0  0  0  0  0  0  0  0  0
   16.5715   -7.2778  -14.1873 O   0  0  0  0  0  0  0  0  0  0  0  0
   18.5707   -8.0298  -15.2248 C   0  0  2  0  0  0  0  0  0  0  0  0
   17.9008   -9.3097  -14.9350 N   0  0  0  0  0  0  0  0  0  0  0  0
   19.5182   -7.6829  -14.1659 C   0  0  0  0  0  0  0  0  0  0  0  0
   19.5641   -8.3638  -13.1086 O   0  0  0  0  0  0  0  0  0  0  0  0
   20.4059   -6.5908  -14.2846 N   0  0  0  0  0  0  0  0  0  0  0  0
   21.3819   -6.3062  -13.2151 C   0  0  0  0  0  0  0  0  0  0  0  0
   22.1813   -5.1372  -13.5960 C   0  0  0  0  0  0  0  0  0  0  0  0
   22.0706   -4.7062  -14.7807 O   0  0  0  0  0  0  0  0  0  0  0  0
   23.0477   -4.4857  -12.7239 O   0  0  0  0  0  0  0  0  0  0  0  0
  2  1  1  6
  3  2  1  0
  4  5  1  1
  4  2  1  0
  6  4  1  0
  6  7  2  0
  9  8  1  6
  9 10  1  0
  9 11  1  0
 11 12  1  1
 11 13  1  0
 12  6  1  0
 13 14  2  0
 13 15  1  0
 15 16  1  0
 17 19  1  0
 17 16  1  0
 18 17  2  0
M  END
$$$$
