VTG.pdb
     RDKit          3D

 19 18  0  0  1  0  0  0  0  0999 V2000
   24.3645  -13.0094  -19.9233 C   0  0  0  0  0  0  0  0  0  0  0  0
   23.6441  -13.7780  -18.8812 C   0  0  2  0  0  0  0  0  0  0  0  0
   23.0277  -15.0090  -19.5114 C   0  0  0  0  0  0  0  0  0  0  0  0
   22.6666  -12.9956  -18.0685 C   0  0  2  0  0  0  0  0  0  0  0  0
   21.5166  -12.7085  -18.9381 N   0  0  0  0  0  0  0  0  0  0  0  0
   23.1898  -11.7498  -17.5016 C   0  0  0  0  0  0  0  0  0  0  0  0
   24.1070  -11.8002  -16.6453 O   0  0  0  0  0  0  0  0  0  0  0  0
   24.8918   -9.0577  -19.1819 C   0  0  0  0  0  0  0  0  0  0  0  0
   23.7464   -8.4240  -18.4703 C   0  0  1  0  0  0  0  0  0  0  0  0
   22.6757   -8.3698  -19.3884 O   0  0  0  0  0  0  0  0  0  0  0  0
   23.2595   -9.2247  -17.2514 C   0  0  2  0  0  0  0  0  0  0  0  0
   22.7252  -10.4570  -17.8572 N   0  0  0  0  0  0  0  0  0  0  0  0
   22.2217   -8.5166  -16.5025 C   0  0  0  0  0  0  0  0  0  0  0  0
   21.0140   -8.8484  -16.6247 O   0  0  0  0  0  0  0  0  0  0  0  0
   22.5264   -7.4520  -15.6258 N   0  0  0  0  0  0  0  0  0  0  0  0
   21.4492   -6.7666  -14.8858 C   0  0  0  0  0  0  0  0  0  0  0  0
   22.0473   -5.8225  -13.9363 C   0  0  0  0  0  0  0  0  0  0  0  0
   21.2771   -5.0093  -13.3471 O   0  0  0  0  0  0  0  0  0  0  0  0
   23.4093   -5.7793  -13.6554 O   0  0  0  0  0  0  0  0  0  0  0  0
  2  1  1  6
  3  2  1  0
  4  5  1  6
  4  2  1  0
  6  4  1  0
  6  7  2  0
  9  8  1  6
  9 10  1  0
  9 11  1  0
 11 12  1  6
 11 13  1  0
 12  6  1  0
 13 14  2  0
 13 15  1  0
 15 16  1  0
 17 19  1  0
 17 16  1  0
 18 17  2  0
M  END
$$$$
