VTG.pdb
     RDKit          3D

 19 18  0  0  1  0  0  0  0  0999 V2000
   23.5400  -14.2656  -18.9655 C   0  0  0  0  0  0  0  0  0  0  0  0
   24.0929  -14.7572  -17.6816 C   0  0  2  0  0  0  0  0  0  0  0  0
   23.9092  -16.2582  -17.6060 C   0  0  0  0  0  0  0  0  0  0  0  0
   23.6005  -14.0540  -16.4605 C   0  0  2  0  0  0  0  0  0  0  0  0
   22.1858  -14.4179  -16.2956 N   0  0  0  0  0  0  0  0  0  0  0  0
   23.7434  -12.5959  -16.4860 C   0  0  0  0  0  0  0  0  0  0  0  0
   24.8877  -12.0873  -16.3920 O   0  0  0  0  0  0  0  0  0  0  0  0
   23.4213  -10.3851  -19.1622 C   0  0  0  0  0  0  0  0  0  0  0  0
   22.4323   -9.9204  -18.1493 C   0  0  1  0  0  0  0  0  0  0  0  0
   21.2312  -10.6169  -18.4030 O   0  0  0  0  0  0  0  0  0  0  0  0
   22.8413  -10.2328  -16.7006 C   0  0  2  0  0  0  0  0  0  0  0  0
   22.6567  -11.6919  -16.6122 N   0  0  0  0  0  0  0  0  0  0  0  0
   22.0003   -9.5384  -15.7259 C   0  0  0  0  0  0  0  0  0  0  0  0
   21.0560  -10.1456  -15.1571 O   0  0  0  0  0  0  0  0  0  0  0  0
   22.2102   -8.1834  -15.3875 N   0  0  0  0  0  0  0  0  0  0  0  0
   21.2947   -7.4998  -14.4535 C   0  0  0  0  0  0  0  0  0  0  0  0
   21.8118   -6.1560  -14.1749 C   0  0  0  0  0  0  0  0  0  0  0  0
   22.9412   -5.8463  -14.6545 O   0  0  0  0  0  0  0  0  0  0  0  0
   21.1251   -5.2144  -13.4149 O   0  0  0  0  0  0  0  0  0  0  0  0
  2  1  1  6
  3  2  1  0
  4  5  1  6
  4  2  1  0
  6  4  1  0
  6  7  2  0
  9  8  1  6
  9 10  1  0
  9 11  1  0
 11 12  1  1
 11 13  1  0
 12  6  1  0
 13 14  2  0
 13 15  1  0
 15 16  1  0
 17 19  1  0
 17 16  1  0
 18 17  2  0
M  END
$$$$
