VTG.pdb
     RDKit          3D

 19 18  0  0  1  0  0  0  0  0999 V2000
   19.3409  -12.9407  -14.9372 C   0  0  0  0  0  0  0  0  0  0  0  0
   18.4874  -12.3928  -16.0174 C   0  0  2  0  0  0  0  0  0  0  0  0
   17.3261  -13.3345  -16.2564 C   0  0  0  0  0  0  0  0  0  0  0  0
   19.2019  -12.0277  -17.2761 C   0  0  2  0  0  0  0  0  0  0  0  0
   19.5802  -13.2855  -17.9363 N   0  0  0  0  0  0  0  0  0  0  0  0
   20.3846  -11.1820  -17.0935 C   0  0  0  0  0  0  0  0  0  0  0  0
   21.4910  -11.7175  -16.8364 O   0  0  0  0  0  0  0  0  0  0  0  0
   21.7267   -8.7831  -19.4986 C   0  0  0  0  0  0  0  0  0  0  0  0
   21.5992   -8.0366  -18.2155 C   0  0  1  0  0  0  0  0  0  0  0  0
   20.3617   -7.3591  -18.2593 O   0  0  0  0  0  0  0  0  0  0  0  0
   21.5767   -8.9440  -16.9746 C   0  0  2  0  0  0  0  0  0  0  0  0
   20.3727   -9.7661  -17.1880 N   0  0  0  0  0  0  0  0  0  0  0  0
   21.4755   -8.1797  -15.7316 C   0  0  0  0  0  0  0  0  0  0  0  0
   20.3606   -8.0333  -15.1666 O   0  0  0  0  0  0  0  0  0  0  0  0
   22.6043   -7.5869  -15.1240 N   0  0  0  0  0  0  0  0  0  0  0  0
   22.4534   -6.7948  -13.8881 C   0  0  0  0  0  0  0  0  0  0  0  0
   22.0522   -5.4292  -14.2415 C   0  0  0  0  0  0  0  0  0  0  0  0
   22.0578   -4.5559  -13.3255 O   0  0  0  0  0  0  0  0  0  0  0  0
   21.6691   -5.0521  -15.5248 O   0  0  0  0  0  0  0  0  0  0  0  0
  2  1  1  1
  3  2  1  0
  4  5  1  1
  4  2  1  0
  6  4  1  0
  6  7  2  0
  9  8  1  6
  9 10  1  0
  9 11  1  0
 11 12  1  6
 11 13  1  0
 12  6  1  0
 13 14  2  0
 13 15  1  0
 15 16  1  0
 17 19  1  0
 17 16  1  0
 18 17  2  0
M  END
$$$$
