VTG.pdb
     RDKit          3D

 19 18  0  0  1  0  0  0  0  0999 V2000
   22.1905  -13.6660  -15.9106 C   0  0  0  0  0  0  0  0  0  0  0  0
   23.2903  -13.3811  -16.8618 C   0  0  2  0  0  0  0  0  0  0  0  0
   24.3375  -14.4686  -16.7476 C   0  0  0  0  0  0  0  0  0  0  0  0
   23.8723  -12.0092  -16.7765 C   0  0  2  0  0  0  0  0  0  0  0  0
   24.5742  -11.9190  -15.4880 N   0  0  0  0  0  0  0  0  0  0  0  0
   22.9029  -10.9170  -16.8967 C   0  0  0  0  0  0  0  0  0  0  0  0
   22.3588  -10.6957  -18.0067 O   0  0  0  0  0  0  0  0  0  0  0  0
   19.7042  -10.4933  -16.2563 C   0  0  0  0  0  0  0  0  0  0  0  0
   20.2988   -9.3785  -15.4666 C   0  0  1  0  0  0  0  0  0  0  0  0
   20.5247   -9.8761  -14.1652 O   0  0  0  0  0  0  0  0  0  0  0  0
   21.6532   -8.8936  -16.0090 C   0  0  2  0  0  0  0  0  0  0  0  0
   22.5231  -10.0685  -15.8245 N   0  0  0  0  0  0  0  0  0  0  0  0
   22.1656   -7.7410  -15.2683 C   0  0  0  0  0  0  0  0  0  0  0  0
   22.7645   -7.9063  -14.1739 O   0  0  0  0  0  0  0  0  0  0  0  0
   22.0140   -6.4194  -15.7427 N   0  0  0  0  0  0  0  0  0  0  0  0
   22.6640   -5.2974  -15.0383 C   0  0  0  0  0  0  0  0  0  0  0  0
   21.7565   -4.7932  -14.0025 C   0  0  0  0  0  0  0  0  0  0  0  0
   20.6409   -5.3736  -13.8607 O   0  0  0  0  0  0  0  0  0  0  0  0
   22.0618   -3.7166  -13.1759 O   0  0  0  0  0  0  0  0  0  0  0  0
  2  1  1  1
  3  2  1  0
  4  5  1  1
  4  2  1  0
  6  4  1  0
  6  7  2  0
  9  8  1  6
  9 10  1  0
  9 11  1  0
 11 12  1  1
 11 13  1  0
 12  6  1  0
 13 14  2  0
 13 15  1  0
 15 16  1  0
 17 19  1  0
 17 16  1  0
 18 17  2  0
M  END
$$$$
