VTG.pdb
     RDKit          3D

 19 18  0  0  1  0  0  0  0  0999 V2000
   20.4173  -12.4870  -18.0847 C   0  0  0  0  0  0  0  0  0  0  0  0
   19.9615  -12.6818  -16.6883 C   0  0  2  0  0  0  0  0  0  0  0  0
   19.7016  -14.1549  -16.4535 C   0  0  0  0  0  0  0  0  0  0  0  0
   18.8205  -11.8198  -16.2604 C   0  0  2  0  0  0  0  0  0  0  0  0
   17.6527  -12.2259  -17.0556 N   0  0  0  0  0  0  0  0  0  0  0  0
   19.0464  -10.3789  -16.4013 C   0  0  0  0  0  0  0  0  0  0  0  0
   18.8507   -9.8307  -17.5140 O   0  0  0  0  0  0  0  0  0  0  0  0
   17.4882   -8.1533  -16.7768 C   0  0  0  0  0  0  0  0  0  0  0  0
   18.2532   -7.5471  -15.6511 C   0  0  1  0  0  0  0  0  0  0  0  0
   17.5697   -7.8873  -14.4639 O   0  0  0  0  0  0  0  0  0  0  0  0
   19.6871   -8.0861  -15.5201 C   0  0  2  0  0  0  0  0  0  0  0  0
   19.4813   -9.5348  -15.3467 N   0  0  0  0  0  0  0  0  0  0  0  0
   20.3902   -7.5157  -14.3712 C   0  0  0  0  0  0  0  0  0  0  0  0
   20.4018   -8.1239  -13.2696 O   0  0  0  0  0  0  0  0  0  0  0  0
   21.0742   -6.2826  -14.4496 N   0  0  0  0  0  0  0  0  0  0  0  0
   21.7658   -5.7392  -13.2647 C   0  0  0  0  0  0  0  0  0  0  0  0
   22.4263   -4.4822  -13.6312 C   0  0  0  0  0  0  0  0  0  0  0  0
   22.4370   -4.1549  -14.8537 O   0  0  0  0  0  0  0  0  0  0  0  0
   23.0361   -3.6404  -12.7065 O   0  0  0  0  0  0  0  0  0  0  0  0
  2  1  1  6
  3  2  1  0
  4  5  1  6
  4  2  1  0
  6  4  1  0
  6  7  2  0
  9  8  1  6
  9 10  1  0
  9 11  1  0
 11 12  1  1
 11 13  1  0
 12  6  1  0
 13 14  2  0
 13 15  1  0
 15 16  1  0
 17 19  1  0
 17 16  1  0
 18 17  2  0
M  END
$$$$
