VTG.pdb
     RDKit          3D

 19 18  0  0  1  0  0  0  0  0999 V2000
   17.8420  -11.7435  -14.3427 C   0  0  0  0  0  0  0  0  0  0  0  0
   17.5263  -11.2635  -15.7086 C   0  0  2  0  0  0  0  0  0  0  0  0
   16.2537  -11.9308  -16.1858 C   0  0  0  0  0  0  0  0  0  0  0  0
   18.6387  -11.3693  -16.6982 C   0  0  2  0  0  0  0  0  0  0  0  0
   18.8700  -12.8018  -16.9341 N   0  0  0  0  0  0  0  0  0  0  0  0
   19.8889  -10.7193  -16.2961 C   0  0  0  0  0  0  0  0  0  0  0  0
   20.7591  -11.3845  -15.6819 O   0  0  0  0  0  0  0  0  0  0  0  0
   22.2103   -9.3153  -18.5571 C   0  0  0  0  0  0  0  0  0  0  0  0
   22.0217   -8.2405  -17.5426 C   0  0  1  0  0  0  0  0  0  0  0  0
   21.0532   -7.3549  -18.0623 O   0  0  0  0  0  0  0  0  0  0  0  0
   21.4912   -8.7530  -16.1936 C   0  0  2  0  0  0  0  0  0  0  0  0
   20.1977   -9.3587  -16.5556 N   0  0  0  0  0  0  0  0  0  0  0  0
   21.3109   -7.6735  -15.2234 C   0  0  0  0  0  0  0  0  0  0  0  0
   20.2165   -7.0555  -15.1590 O   0  0  0  0  0  0  0  0  0  0  0  0
   22.3377   -7.2881  -14.3336 N   0  0  0  0  0  0  0  0  0  0  0  0
   22.0857   -6.2559  -13.3095 C   0  0  0  0  0  0  0  0  0  0  0  0
   22.1829   -4.9314  -13.9315 C   0  0  0  0  0  0  0  0  0  0  0  0
   22.4624   -4.8768  -15.1646 O   0  0  0  0  0  0  0  0  0  0  0  0
   21.9841   -3.7430  -13.2360 O   0  0  0  0  0  0  0  0  0  0  0  0
  2  1  1  1
  3  2  1  0
  4  5  1  1
  4  2  1  0
  6  4  1  0
  6  7  2  0
  9  8  1  6
  9 10  1  0
  9 11  1  0
 11 12  1  6
 11 13  1  0
 12  6  1  0
 13 14  2  0
 13 15  1  0
 15 16  1  0
 17 19  1  0
 17 16  1  0
 18 17  2  0
M  END
$$$$
