VTG.pdb
     RDKit          3D

 19 18  0  0  1  0  0  0  0  0999 V2000
   18.5495  -12.7899  -17.3661 C   0  0  0  0  0  0  0  0  0  0  0  0
   19.9627  -12.8560  -17.8066 C   0  0  2  0  0  0  0  0  0  0  0  0
   20.4524  -14.2837  -17.6863 C   0  0  0  0  0  0  0  0  0  0  0  0
   20.8825  -11.8747  -17.1593 C   0  0  2  0  0  0  0  0  0  0  0  0
   21.1074  -12.3392  -15.7828 N   0  0  0  0  0  0  0  0  0  0  0  0
   20.4026  -10.4902  -17.1490 C   0  0  0  0  0  0  0  0  0  0  0  0
   20.3862   -9.8360  -18.2208 O   0  0  0  0  0  0  0  0  0  0  0  0
   17.7108   -6.9100  -15.2857 C   0  0  0  0  0  0  0  0  0  0  0  0
   18.2476   -8.2966  -15.3807 C   0  0  1  0  0  0  0  0  0  0  0  0
   17.3990   -9.0028  -16.2602 O   0  0  0  0  0  0  0  0  0  0  0  0
   19.6681   -8.3686  -15.9645 C   0  0  2  0  0  0  0  0  0  0  0  0
   19.9431   -9.8159  -15.9880 N   0  0  0  0  0  0  0  0  0  0  0  0
   20.6442   -7.6633  -15.1344 C   0  0  0  0  0  0  0  0  0  0  0  0
   20.8834   -8.0581  -13.9637 O   0  0  0  0  0  0  0  0  0  0  0  0
   21.3473   -6.5320  -15.6041 N   0  0  0  0  0  0  0  0  0  0  0  0
   22.4611   -5.9689  -14.8167 C   0  0  0  0  0  0  0  0  0  0  0  0
   21.9180   -5.0573  -13.8043 C   0  0  0  0  0  0  0  0  0  0  0  0
   22.7360   -4.4734  -13.0353 O   0  0  0  0  0  0  0  0  0  0  0  0
   20.5581   -4.8067  -13.6513 O   0  0  0  0  0  0  0  0  0  0  0  0
  2  1  1  1
  3  2  1  0
  4  5  1  1
  4  2  1  0
  6  4  1  0
  6  7  2  0
  9  8  1  6
  9 10  1  0
  9 11  1  0
 11 12  1  1
 11 13  1  0
 12  6  1  0
 13 14  2  0
 13 15  1  0
 15 16  1  0
 17 19  1  0
 17 16  1  0
 18 17  2  0
M  END
$$$$
