VTG.pdb
     RDKit          3D

 19 18  0  0  1  0  0  0  0  0999 V2000
   24.4754  -14.1355  -17.6125 C   0  0  0  0  0  0  0  0  0  0  0  0
   22.9970  -14.2231  -17.6628 C   0  0  2  0  0  0  0  0  0  0  0  0
   22.5910  -15.0542  -18.8615 C   0  0  0  0  0  0  0  0  0  0  0  0
   22.2750  -12.9185  -17.5946 C   0  0  2  0  0  0  0  0  0  0  0  0
   22.4039  -12.2859  -18.9152 N   0  0  0  0  0  0  0  0  0  0  0  0
   22.7472  -12.0035  -16.5521 C   0  0  0  0  0  0  0  0  0  0  0  0
   22.6431  -12.3374  -15.3460 O   0  0  0  0  0  0  0  0  0  0  0  0
   25.9531  -10.8005  -15.6452 C   0  0  0  0  0  0  0  0  0  0  0  0
   25.1570   -9.5658  -15.8931 C   0  0  1  0  0  0  0  0  0  0  0  0
   25.3954   -9.1890  -17.2322 O   0  0  0  0  0  0  0  0  0  0  0  0
   23.6407   -9.7699  -15.7417 C   0  0  2  0  0  0  0  0  0  0  0  0
   23.3286  -10.7350  -16.8105 N   0  0  0  0  0  0  0  0  0  0  0  0
   22.8936   -8.5258  -15.9248 C   0  0  0  0  0  0  0  0  0  0  0  0
   22.2634   -8.3165  -16.9938 O   0  0  0  0  0  0  0  0  0  0  0  0
   22.8477   -7.5270  -14.9273 N   0  0  0  0  0  0  0  0  0  0  0  0
   22.0118   -6.3256  -15.1158 C   0  0  0  0  0  0  0  0  0  0  0  0
   22.0924   -5.4932  -13.9111 C   0  0  0  0  0  0  0  0  0  0  0  0
   21.5023   -4.3737  -13.9258 O   0  0  0  0  0  0  0  0  0  0  0  0
   22.7809   -5.8730  -12.7634 O   0  0  0  0  0  0  0  0  0  0  0  0
  2  1  1  6
  3  2  1  0
  4  5  1  6
  4  2  1  0
  6  4  1  0
  6  7  2  0
  9  8  1  6
  9 10  1  0
  9 11  1  0
 11 12  1  6
 11 13  1  0
 12  6  1  0
 13 14  2  0
 13 15  1  0
 15 16  1  0
 17 19  1  0
 17 16  1  0
 18 17  2  0
M  END
$$$$
