VTG.pdb
     RDKit          3D

 19 18  0  0  1  0  0  0  0  0999 V2000
   18.3488  -14.2127  -16.9863 C   0  0  0  0  0  0  0  0  0  0  0  0
   17.6656  -12.9400  -16.6560 C   0  0  2  0  0  0  0  0  0  0  0  0
   17.5241  -12.1128  -17.9163 C   0  0  0  0  0  0  0  0  0  0  0  0
   18.2588  -12.1690  -15.5240 C   0  0  2  0  0  0  0  0  0  0  0  0
   17.2298  -11.2279  -15.0585 N   0  0  0  0  0  0  0  0  0  0  0  0
   19.4912  -11.4450  -15.8467 C   0  0  0  0  0  0  0  0  0  0  0  0
   20.5388  -12.0918  -16.0940 O   0  0  0  0  0  0  0  0  0  0  0  0
   22.1922   -8.2371  -17.8868 C   0  0  0  0  0  0  0  0  0  0  0  0
   20.9263   -8.9174  -17.4933 C   0  0  1  0  0  0  0  0  0  0  0  0
   20.8456  -10.1016  -18.2571 O   0  0  0  0  0  0  0  0  0  0  0  0
   20.8823   -9.3281  -16.0124 C   0  0  2  0  0  0  0  0  0  0  0  0
   19.5918  -10.0305  -15.9022 N   0  0  0  0  0  0  0  0  0  0  0  0
   20.9283   -8.1732  -15.1160 C   0  0  0  0  0  0  0  0  0  0  0  0
   19.9687   -7.3599  -15.0806 O   0  0  0  0  0  0  0  0  0  0  0  0
   22.0303   -7.9284  -14.2672 N   0  0  0  0  0  0  0  0  0  0  0  0
   22.0186   -6.7745  -13.3475 C   0  0  0  0  0  0  0  0  0  0  0  0
   22.3467   -5.5595  -14.1004 C   0  0  0  0  0  0  0  0  0  0  0  0
   22.6203   -5.6822  -15.3299 O   0  0  0  0  0  0  0  0  0  0  0  0
   22.3711   -4.2901  -13.5316 O   0  0  0  0  0  0  0  0  0  0  0  0
  2  1  1  6
  3  2  1  0
  4  5  1  6
  4  2  1  0
  6  4  1  0
  6  7  2  0
  9  8  1  1
  9 10  1  0
  9 11  1  0
 11 12  1  6
 11 13  1  0
 12  6  1  0
 13 14  2  0
 13 15  1  0
 15 16  1  0
 17 19  1  0
 17 16  1  0
 18 17  2  0
M  END
$$$$
