VTG.pdb
     RDKit          3D

 19 18  0  0  1  0  0  0  0  0999 V2000
   17.4185  -13.9117  -16.4929 C   0  0  0  0  0  0  0  0  0  0  0  0
   18.2806  -12.8069  -16.9745 C   0  0  2  0  0  0  0  0  0  0  0  0
   19.2532  -13.3492  -18.0003 C   0  0  0  0  0  0  0  0  0  0  0  0
   18.9534  -12.0075  -15.9084 C   0  0  2  0  0  0  0  0  0  0  0  0
   18.0085  -11.9045  -14.7870 N   0  0  0  0  0  0  0  0  0  0  0  0
   19.3907  -10.6709  -16.3199 C   0  0  0  0  0  0  0  0  0  0  0  0
   20.2728  -10.5571  -17.2064 O   0  0  0  0  0  0  0  0  0  0  0  0
   18.4005   -5.9136  -16.8191 C   0  0  0  0  0  0  0  0  0  0  0  0
   18.1327   -7.3091  -16.3709 C   0  0  1  0  0  0  0  0  0  0  0  0
   17.4050   -7.9367  -17.4048 O   0  0  0  0  0  0  0  0  0  0  0  0
   19.4072   -8.1385  -16.1443 C   0  0  2  0  0  0  0  0  0  0  0  0
   18.8783   -9.4639  -15.7772 N   0  0  0  0  0  0  0  0  0  0  0  0
   20.2403   -7.5921  -15.0733 C   0  0  0  0  0  0  0  0  0  0  0  0
   19.8312   -7.6045  -13.8833 O   0  0  0  0  0  0  0  0  0  0  0  0
   21.5154   -7.0397  -15.3254 N   0  0  0  0  0  0  0  0  0  0  0  0
   22.3798   -6.6224  -14.2045 C   0  0  0  0  0  0  0  0  0  0  0  0
   22.0359   -5.2493  -13.8210 C   0  0  0  0  0  0  0  0  0  0  0  0
   22.7035   -4.7109  -12.8904 O   0  0  0  0  0  0  0  0  0  0  0  0
   21.0194   -4.5176  -14.4268 O   0  0  0  0  0  0  0  0  0  0  0  0
  2  1  1  1
  3  2  1  0
  4  5  1  1
  4  2  1  0
  6  4  1  0
  6  7  2  0
  9  8  1  6
  9 10  1  0
  9 11  1  0
 11 12  1  1
 11 13  1  0
 12  6  1  0
 13 14  2  0
 13 15  1  0
 15 16  1  0
 17 19  1  0
 17 16  1  0
 18 17  2  0
M  END
$$$$
