YMK.pdb
     RDKit          3D

 30 30  0  0  1  0  0  0  0  0999 V2000
   29.6133  -19.6736   -3.2810 O   0  0  0  0  0  0  0  0  0  0  0  0
   28.9160  -19.9335   -4.4342 C   0  0  0  0  0  0  0  0  0  0  0  0
   29.6182  -20.2696   -5.5596 C   0  0  0  0  0  0  0  0  0  0  0  0
   28.8978  -20.5305   -6.7212 C   0  0  0  0  0  0  0  0  0  0  0  0
   27.5308  -20.4578   -6.7549 C   0  0  0  0  0  0  0  0  0  0  0  0
   26.7862  -20.7372   -7.9872 C   0  0  0  0  0  0  0  0  0  0  0  0
   26.8354  -19.5070   -8.8586 C   0  0  2  0  0  0  0  0  0  0  0  0
   26.2856  -18.3499   -8.2330 N   0  0  0  0  0  0  0  0  0  0  0  0
   26.1730  -19.8083  -10.1741 C   0  0  0  0  0  0  0  0  0  0  0  0
   24.9657  -19.4858  -10.3321 O   0  0  0  0  0  0  0  0  0  0  0  0
   26.8612  -20.1180   -5.6083 C   0  0  0  0  0  0  0  0  0  0  0  0
   27.5252  -19.8470   -4.4209 C   0  0  0  0  0  0  0  0  0  0  0  0
   28.6193  -20.4635  -17.6734 C   0  0  0  0  0  0  0  0  0  0  0  0
   28.8711  -20.5367  -15.9071 S   0  0  0  0  0  0  0  0  0  0  0  0
   27.3354  -20.5519  -14.9675 C   0  0  0  0  0  0  0  0  0  0  0  0
   27.4812  -20.4222  -13.5111 C   0  0  0  0  0  0  0  0  0  0  0  0
   26.3071  -20.4202  -12.6295 C   0  0  2  0  0  0  0  0  0  0  0  0
   26.8339  -20.4324  -11.2376 N   0  0  0  0  0  0  0  0  0  0  0  0
   25.2660  -21.4126  -12.7972 C   0  0  0  0  0  0  0  0  0  0  0  0
   25.3043  -22.6156  -12.4901 O   0  0  0  0  0  0  0  0  0  0  0  0
   24.0251  -20.9849  -13.3888 N   0  0  0  0  0  0  0  0  0  0  0  0
   22.9148  -21.9398  -13.5653 C   0  0  1  0  0  0  0  0  0  0  0  0
   21.6597  -21.0957  -13.7425 C   0  0  0  0  0  0  0  0  0  0  0  0
   20.4414  -21.8771  -14.0732 C   0  0  0  0  0  0  0  0  0  0  0  0
   19.2745  -20.9557  -14.3038 C   0  0  0  0  0  0  0  0  0  0  0  0
   18.0084  -21.7016  -14.5743 C   0  0  0  0  0  0  0  0  0  0  0  0
   16.9161  -20.7584  -14.8146 N   0  0  0  0  0  0  0  0  0  0  0  0
   23.1508  -22.7623  -14.7718 C   0  0  0  0  0  0  0  0  0  0  0  0
   22.5883  -24.0312  -14.8582 O   0  0  0  0  0  0  0  0  0  0  0  0
   23.8377  -22.3962  -15.7515 O   0  0  0  0  0  0  0  0  0  0  0  0
  2  1  1  0
  3  2  2  0
  4  3  1  0
  5  4  2  0
  5 11  1  0
  6  7  1  0
  6  5  1  0
  7  8  1  1
  9  7  1  0
 10  9  2  0
 11 12  2  0
 12  2  1  0
 14 13  1  0
 14 15  1  0
 16 15  1  0
 17 16  1  6
 17 18  1  0
 18  9  1  0
 19 21  1  0
 19 17  1  0
 20 19  2  0
 22 21  1  0
 22 28  1  0
 22 23  1  6
 24 25  1  0
 24 23  1  0
 25 26  1  0
 27 26  1  0
 28 29  1  0
 30 28  2  0
M  END
$$$$
