YMK.pdb
     RDKit          3D

 30 30  0  0  1  0  0  0  0  0999 V2000
   26.9086  -13.4954  -18.0578 O   0  0  0  0  0  0  0  0  0  0  0  0
   26.1677  -14.5218  -17.5275 C   0  0  0  0  0  0  0  0  0  0  0  0
   26.5116  -15.0052  -16.2944 C   0  0  0  0  0  0  0  0  0  0  0  0
   25.7513  -16.0457  -15.7693 C   0  0  0  0  0  0  0  0  0  0  0  0
   24.6906  -16.5803  -16.4506 C   0  0  0  0  0  0  0  0  0  0  0  0
   23.8983  -17.6761  -15.8825 C   0  0  0  0  0  0  0  0  0  0  0  0
   24.7933  -18.8819  -15.7397 C   0  0  2  0  0  0  0  0  0  0  0  0
   25.1979  -19.4356  -16.9896 N   0  0  0  0  0  0  0  0  0  0  0  0
   24.1149  -19.8977  -14.8633 C   0  0  0  0  0  0  0  0  0  0  0  0
   23.4410  -20.8127  -15.4067 O   0  0  0  0  0  0  0  0  0  0  0  0
   24.3757  -16.0706  -17.6833 C   0  0  0  0  0  0  0  0  0  0  0  0
   25.0970  -15.0341  -18.2574 C   0  0  0  0  0  0  0  0  0  0  0  0
   25.9984  -20.4330   -8.7774 C   0  0  0  0  0  0  0  0  0  0  0  0
   24.5818  -21.5131   -8.6535 S   0  0  0  0  0  0  0  0  0  0  0  0
   23.5872  -21.5603  -10.1536 C   0  0  0  0  0  0  0  0  0  0  0  0
   24.1342  -20.8231  -11.3010 C   0  0  0  0  0  0  0  0  0  0  0  0
   23.4610  -20.8446  -12.6056 C   0  0  2  0  0  0  0  0  0  0  0  0
   24.1951  -19.8778  -13.4667 N   0  0  0  0  0  0  0  0  0  0  0  0
   22.0311  -20.6334  -12.6935 C   0  0  0  0  0  0  0  0  0  0  0  0
   21.4146  -19.5573  -12.6211 O   0  0  0  0  0  0  0  0  0  0  0  0
   21.1961  -21.7900  -12.8872 N   0  0  0  0  0  0  0  0  0  0  0  0
   19.7299  -21.6472  -12.9618 C   0  0  1  0  0  0  0  0  0  0  0  0
   19.2860  -22.4928  -14.1481 C   0  0  0  0  0  0  0  0  0  0  0  0
   17.8433  -22.3713  -14.4773 C   0  0  0  0  0  0  0  0  0  0  0  0
   17.5146  -23.1838  -15.7002 C   0  0  0  0  0  0  0  0  0  0  0  0
   16.0917  -23.0185  -16.1247 C   0  0  0  0  0  0  0  0  0  0  0  0
   15.7651  -23.9951  -17.1640 N   0  0  0  0  0  0  0  0  0  0  0  0
   19.1148  -22.1541  -11.7157 C   0  0  0  0  0  0  0  0  0  0  0  0
   18.0353  -21.4772  -11.1586 O   0  0  0  0  0  0  0  0  0  0  0  0
   19.5005  -23.1750  -11.1036 O   0  0  0  0  0  0  0  0  0  0  0  0
  2  1  1  0
  3  2  2  0
  4  3  1  0
  5  4  2  0
  5 11  1  0
  6  7  1  0
  6  5  1  0
  7  8  1  6
  9  7  1  0
 10  9  2  0
 11 12  2  0
 12  2  1  0
 14 13  1  0
 14 15  1  0
 16 15  1  0
 17 16  1  1
 17 18  1  0
 18  9  1  0
 19 21  1  0
 19 17  1  0
 20 19  2  0
 22 21  1  0
 22 28  1  0
 22 23  1  6
 24 25  1  0
 24 23  1  0
 25 26  1  0
 27 26  1  0
 28 29  1  0
 30 28  2  0
M  END
$$$$
