YMK.pdb
     RDKit          3D

 30 30  0  0  1  0  0  0  0  0999 V2000
   28.2451  -16.1776  -17.8325 O   0  0  0  0  0  0  0  0  0  0  0  0
   27.7415  -16.9464  -16.8131 C   0  0  0  0  0  0  0  0  0  0  0  0
   28.0339  -16.5931  -15.5239 C   0  0  0  0  0  0  0  0  0  0  0  0
   27.5164  -17.3817  -14.5008 C   0  0  0  0  0  0  0  0  0  0  0  0
   26.7381  -18.4787  -14.7578 C   0  0  0  0  0  0  0  0  0  0  0  0
   26.1990  -19.2988  -13.6679 C   0  0  0  0  0  0  0  0  0  0  0  0
   27.3124  -20.1638  -13.1318 C   0  0  2  0  0  0  0  0  0  0  0  0
   27.8000  -21.1088  -14.0814 N   0  0  0  0  0  0  0  0  0  0  0  0
   26.8553  -20.8230  -11.8603 C   0  0  0  0  0  0  0  0  0  0  0  0
   26.2533  -21.9270  -11.9330 O   0  0  0  0  0  0  0  0  0  0  0  0
   26.4662  -18.8020  -16.0617 C   0  0  0  0  0  0  0  0  0  0  0  0
   26.9543  -18.0537  -17.1228 C   0  0  0  0  0  0  0  0  0  0  0  0
   28.5368  -20.4660   -5.0788 C   0  0  0  0  0  0  0  0  0  0  0  0
   27.2016  -19.3891   -5.5750 S   0  0  0  0  0  0  0  0  0  0  0  0
   26.2162  -20.0515   -6.9285 C   0  0  0  0  0  0  0  0  0  0  0  0
   26.8261  -19.9582   -8.2622 C   0  0  0  0  0  0  0  0  0  0  0  0
   26.1639  -20.5334   -9.4396 C   0  0  2  0  0  0  0  0  0  0  0  0
   27.0663  -20.2687  -10.5932 N   0  0  0  0  0  0  0  0  0  0  0  0
   24.7980  -20.1737   -9.7582 C   0  0  0  0  0  0  0  0  0  0  0  0
   24.3936  -19.1425  -10.3207 O   0  0  0  0  0  0  0  0  0  0  0  0
   23.7602  -21.1016   -9.3910 N   0  0  0  0  0  0  0  0  0  0  0  0
   22.3778  -20.9001   -9.8645 C   0  0  1  0  0  0  0  0  0  0  0  0
   22.2773  -21.6391  -11.1922 C   0  0  0  0  0  0  0  0  0  0  0  0
   21.6110  -20.8665  -12.2708 C   0  0  0  0  0  0  0  0  0  0  0  0
   21.5884  -21.6617  -13.5479 C   0  0  0  0  0  0  0  0  0  0  0  0
   20.9098  -20.9295  -14.6594 C   0  0  0  0  0  0  0  0  0  0  0  0
   20.9776  -21.7180  -15.8900 N   0  0  0  0  0  0  0  0  0  0  0  0
   21.4269  -21.4744   -8.8878 C   0  0  0  0  0  0  0  0  0  0  0  0
   20.1134  -21.0186   -8.8591 O   0  0  0  0  0  0  0  0  0  0  0  0
   21.7192  -22.3654   -8.0593 O   0  0  0  0  0  0  0  0  0  0  0  0
  2  1  1  0
  3  2  2  0
  4  3  1  0
  5  4  2  0
  5 11  1  0
  6  7  1  0
  6  5  1  0
  7  8  1  6
  9  7  1  0
 10  9  2  0
 11 12  2  0
 12  2  1  0
 14 13  1  0
 14 15  1  0
 16 15  1  0
 17 16  1  1
 17 18  1  0
 18  9  1  0
 19 21  1  0
 19 17  1  0
 20 19  2  0
 22 21  1  0
 22 28  1  0
 22 23  1  6
 24 25  1  0
 24 23  1  0
 25 26  1  0
 27 26  1  0
 28 29  1  0
 30 28  2  0
M  END
$$$$
