YMK.pdb
     RDKit          3D

 30 30  0  0  1  0  0  0  0  0999 V2000
   17.1915  -24.0547  -13.7392 O   0  0  0  0  0  0  0  0  0  0  0  0
   18.4499  -23.5244  -13.6022 C   0  0  0  0  0  0  0  0  0  0  0  0
   19.2446  -23.9839  -12.5874 C   0  0  0  0  0  0  0  0  0  0  0  0
   20.5180  -23.4372  -12.4609 C   0  0  0  0  0  0  0  0  0  0  0  0
   20.9770  -22.4704  -13.3152 C   0  0  0  0  0  0  0  0  0  0  0  0
   22.3225  -21.9054  -13.1691 C   0  0  0  0  0  0  0  0  0  0  0  0
   22.3159  -20.9678  -11.9876 C   0  0  2  0  0  0  0  0  0  0  0  0
   21.3335  -19.9396  -12.0884 N   0  0  0  0  0  0  0  0  0  0  0  0
   23.6991  -20.4122  -11.7919 C   0  0  0  0  0  0  0  0  0  0  0  0
   23.9940  -19.3157  -12.3372 O   0  0  0  0  0  0  0  0  0  0  0  0
   20.1529  -22.0346  -14.3199 C   0  0  0  0  0  0  0  0  0  0  0  0
   18.8739  -22.5423  -14.4952 C   0  0  0  0  0  0  0  0  0  0  0  0
   27.7943  -19.4560   -6.5354 C   0  0  0  0  0  0  0  0  0  0  0  0
   26.1884  -20.2112   -6.7336 S   0  0  0  0  0  0  0  0  0  0  0  0
   25.5468  -20.0935   -8.4117 C   0  0  0  0  0  0  0  0  0  0  0  0
   26.4038  -20.6642   -9.4602 C   0  0  0  0  0  0  0  0  0  0  0  0
   26.0611  -20.5196  -10.8805 C   0  0  2  0  0  0  0  0  0  0  0  0
   24.6807  -21.0554  -11.0303 N   0  0  0  0  0  0  0  0  0  0  0  0
   26.9374  -21.0547  -11.9016 C   0  0  0  0  0  0  0  0  0  0  0  0
   27.7222  -22.0129  -11.8056 O   0  0  0  0  0  0  0  0  0  0  0  0
   26.9207  -20.4216  -13.1944 N   0  0  0  0  0  0  0  0  0  0  0  0
   27.4757  -21.1154  -14.3719 C   0  0  1  0  0  0  0  0  0  0  0  0
   26.5938  -22.3372  -14.5930 C   0  0  0  0  0  0  0  0  0  0  0  0
   26.9363  -23.1249  -15.8040 C   0  0  0  0  0  0  0  0  0  0  0  0
   25.9289  -24.2218  -16.0179 C   0  0  0  0  0  0  0  0  0  0  0  0
   26.2588  -25.0711  -17.2020 C   0  0  0  0  0  0  0  0  0  0  0  0
   25.2883  -26.1596  -17.3204 N   0  0  0  0  0  0  0  0  0  0  0  0
   27.4165  -20.2238  -15.5506 C   0  0  0  0  0  0  0  0  0  0  0  0
   28.3132  -20.4093  -16.5972 O   0  0  0  0  0  0  0  0  0  0  0  0
   26.5987  -19.2864  -15.6854 O   0  0  0  0  0  0  0  0  0  0  0  0
  2  1  1  0
  3  2  2  0
  4  3  1  0
  5  4  2  0
  5 11  1  0
  6  7  1  0
  6  5  1  0
  7  8  1  6
  9  7  1  0
 10  9  2  0
 11 12  2  0
 12  2  1  0
 14 13  1  0
 14 15  1  0
 16 15  1  0
 17 16  1  1
 17 18  1  0
 18  9  1  0
 19 21  1  0
 19 17  1  0
 20 19  2  0
 22 21  1  0
 22 28  1  0
 22 23  1  6
 24 25  1  0
 24 23  1  0
 25 26  1  0
 27 26  1  0
 28 29  1  0
 30 28  2  0
M  END
$$$$
