YMK.pdb
     RDKit          3D

 30 30  0  0  1  0  0  0  0  0999 V2000
   28.0529  -19.5918   -4.9813 O   0  0  0  0  0  0  0  0  0  0  0  0
   27.7450  -19.6224   -6.3184 C   0  0  0  0  0  0  0  0  0  0  0  0
   26.4796  -19.9893   -6.6882 C   0  0  0  0  0  0  0  0  0  0  0  0
   26.1818  -20.0156   -8.0473 C   0  0  0  0  0  0  0  0  0  0  0  0
   27.1124  -19.6881   -8.9969 C   0  0  0  0  0  0  0  0  0  0  0  0
   26.7820  -19.7194  -10.4256 C   0  0  0  0  0  0  0  0  0  0  0  0
   26.5033  -21.1497  -10.8151 C   0  0  2  0  0  0  0  0  0  0  0  0
   27.6696  -21.9695  -10.8252 N   0  0  0  0  0  0  0  0  0  0  0  0
   25.7857  -21.1696  -12.1360 C   0  0  0  0  0  0  0  0  0  0  0  0
   26.4333  -20.8960  -13.1812 O   0  0  0  0  0  0  0  0  0  0  0  0
   28.3696  -19.3254   -8.5891 C   0  0  0  0  0  0  0  0  0  0  0  0
   28.7245  -19.2810   -7.2488 C   0  0  0  0  0  0  0  0  0  0  0  0
   22.6627  -25.9707  -14.0050 C   0  0  0  0  0  0  0  0  0  0  0  0
   24.2659  -25.4738  -14.6146 S   0  0  0  0  0  0  0  0  0  0  0  0
   24.6706  -23.7593  -14.2428 C   0  0  0  0  0  0  0  0  0  0  0  0
   23.5270  -22.8905  -13.9319 C   0  0  0  0  0  0  0  0  0  0  0  0
   23.7227  -21.4799  -13.5745 C   0  0  2  0  0  0  0  0  0  0  0  0
   24.4271  -21.4785  -12.2635 N   0  0  0  0  0  0  0  0  0  0  0  0
   22.5983  -20.5676  -13.5585 C   0  0  0  0  0  0  0  0  0  0  0  0
   21.8200  -20.3348  -12.6187 O   0  0  0  0  0  0  0  0  0  0  0  0
   22.3226  -19.8267  -14.7618 N   0  0  0  0  0  0  0  0  0  0  0  0
   21.1019  -19.0057  -14.8689 C   0  0  1  0  0  0  0  0  0  0  0  0
   21.2329  -18.2272  -16.1711 C   0  0  0  0  0  0  0  0  0  0  0  0
   20.0319  -17.4308  -16.5286 C   0  0  0  0  0  0  0  0  0  0  0  0
   20.2274  -16.7564  -17.8593 C   0  0  0  0  0  0  0  0  0  0  0  0
   19.0536  -15.9173  -18.2471 C   0  0  0  0  0  0  0  0  0  0  0  0
   19.3433  -15.1983  -19.4880 N   0  0  0  0  0  0  0  0  0  0  0  0
   19.9123  -19.8835  -14.9170 C   0  0  0  0  0  0  0  0  0  0  0  0
   18.7351  -19.4787  -14.2973 O   0  0  0  0  0  0  0  0  0  0  0  0
   19.8798  -20.9962  -15.4884 O   0  0  0  0  0  0  0  0  0  0  0  0
  2  1  1  0
  3  2  2  0
  4  3  1  0
  5  4  2  0
  5 11  1  0
  6  7  1  0
  6  5  1  0
  7  8  1  6
  9  7  1  0
 10  9  2  0
 11 12  2  0
 12  2  1  0
 14 13  1  0
 14 15  1  0
 16 15  1  0
 17 16  1  1
 17 18  1  0
 18  9  1  0
 19 21  1  0
 19 17  1  0
 20 19  2  0
 22 21  1  0
 22 28  1  0
 22 23  1  6
 24 25  1  0
 24 23  1  0
 25 26  1  0
 27 26  1  0
 28 29  1  0
 30 28  2  0
M  END
$$$$
