YMK.pdb
     RDKit          3D

 30 30  0  0  1  0  0  0  0  0999 V2000
   15.6844  -24.3198  -14.2293 O   0  0  0  0  0  0  0  0  0  0  0  0
   16.9312  -23.7474  -14.2677 C   0  0  0  0  0  0  0  0  0  0  0  0
   17.8816  -24.1944  -13.3906 C   0  0  0  0  0  0  0  0  0  0  0  0
   19.1412  -23.6049  -13.4412 C   0  0  0  0  0  0  0  0  0  0  0  0
   19.4370  -22.6089  -14.3332 C   0  0  0  0  0  0  0  0  0  0  0  0
   20.7701  -21.9988  -14.3747 C   0  0  0  0  0  0  0  0  0  0  0  0
   20.8964  -21.0584  -13.2020 C   0  0  2  0  0  0  0  0  0  0  0  0
   20.0041  -19.9487  -13.2699 N   0  0  0  0  0  0  0  0  0  0  0  0
   22.3300  -20.6253  -13.0703 C   0  0  0  0  0  0  0  0  0  0  0  0
   22.6541  -19.4752  -13.4686 O   0  0  0  0  0  0  0  0  0  0  0  0
   18.4597  -22.1868  -15.1965 C   0  0  0  0  0  0  0  0  0  0  0  0
   17.1863  -22.7367  -15.1925 C   0  0  0  0  0  0  0  0  0  0  0  0
   25.6987  -20.2119   -7.9951 C   0  0  0  0  0  0  0  0  0  0  0  0
   26.9018  -20.1235   -9.3117 S   0  0  0  0  0  0  0  0  0  0  0  0
   26.5864  -21.2904  -10.6460 C   0  0  0  0  0  0  0  0  0  0  0  0
   25.1818  -21.4185  -11.0581 C   0  0  0  0  0  0  0  0  0  0  0  0
   24.7436  -21.0000  -12.3954 C   0  0  2  0  0  0  0  0  0  0  0  0
   23.3277  -21.4400  -12.5242 N   0  0  0  0  0  0  0  0  0  0  0  0
   25.5100  -21.3742  -13.5657 C   0  0  0  0  0  0  0  0  0  0  0  0
   25.6358  -22.5052  -14.0637 O   0  0  0  0  0  0  0  0  0  0  0  0
   26.2240  -20.3327  -14.2571 N   0  0  0  0  0  0  0  0  0  0  0  0
   27.0102  -20.6433  -15.4659 C   0  0  1  0  0  0  0  0  0  0  0  0
   27.5708  -19.3143  -15.9546 C   0  0  0  0  0  0  0  0  0  0  0  0
   28.3447  -19.4071  -17.2183 C   0  0  0  0  0  0  0  0  0  0  0  0
   28.8198  -18.0441  -17.6431 C   0  0  0  0  0  0  0  0  0  0  0  0
   29.6033  -18.0880  -18.9145 C   0  0  0  0  0  0  0  0  0  0  0  0
   30.0481  -16.7409  -19.2724 N   0  0  0  0  0  0  0  0  0  0  0  0
   28.1135  -21.5660  -15.1205 C   0  0  0  0  0  0  0  0  0  0  0  0
   28.5006  -22.5439  -16.0302 O   0  0  0  0  0  0  0  0  0  0  0  0
   28.7460  -21.5361  -14.0412 O   0  0  0  0  0  0  0  0  0  0  0  0
  2  1  1  0
  3  2  2  0
  4  3  1  0
  5  4  2  0
  5 11  1  0
  6  7  1  0
  6  5  1  0
  7  8  1  6
  9  7  1  0
 10  9  2  0
 11 12  2  0
 12  2  1  0
 14 13  1  0
 14 15  1  0
 16 15  1  0
 17 16  1  1
 17 18  1  0
 18  9  1  0
 19 21  1  0
 19 17  1  0
 20 19  2  0
 22 21  1  0
 22 28  1  0
 22 23  1  1
 24 25  1  0
 24 23  1  0
 25 26  1  0
 27 26  1  0
 28 29  1  0
 30 28  2  0
M  END
$$$$
