YMK.pdb
     RDKit          3D

 30 30  0  0  1  0  0  0  0  0999 V2000
   16.3751  -24.6623  -13.1872 O   0  0  0  0  0  0  0  0  0  0  0  0
   17.5552  -23.9702  -13.2953 C   0  0  0  0  0  0  0  0  0  0  0  0
   17.5309  -22.7226  -13.8569 C   0  0  0  0  0  0  0  0  0  0  0  0
   18.7350  -22.0326  -13.9596 C   0  0  0  0  0  0  0  0  0  0  0  0
   19.9149  -22.5696  -13.5183 C   0  0  0  0  0  0  0  0  0  0  0  0
   21.1754  -21.8286  -13.6326 C   0  0  0  0  0  0  0  0  0  0  0  0
   21.5361  -21.2960  -12.2682 C   0  0  2  0  0  0  0  0  0  0  0  0
   20.6263  -20.3084  -11.7893 N   0  0  0  0  0  0  0  0  0  0  0  0
   22.9535  -20.7955  -12.2938 C   0  0  0  0  0  0  0  0  0  0  0  0
   23.1687  -19.6037  -12.6401 O   0  0  0  0  0  0  0  0  0  0  0  0
   19.9006  -23.8217  -12.9613 C   0  0  0  0  0  0  0  0  0  0  0  0
   18.7314  -24.5569  -12.8324 C   0  0  0  0  0  0  0  0  0  0  0  0
   26.9081  -19.8544   -6.8867 C   0  0  0  0  0  0  0  0  0  0  0  0
   26.9777  -21.0410   -8.2193 S   0  0  0  0  0  0  0  0  0  0  0  0
   26.0792  -20.5169   -9.6889 C   0  0  0  0  0  0  0  0  0  0  0  0
   26.1262  -21.4460  -10.8263 C   0  0  0  0  0  0  0  0  0  0  0  0
   25.4580  -21.1259  -12.0939 C   0  0  2  0  0  0  0  0  0  0  0  0
   24.0516  -21.5913  -11.9501 N   0  0  0  0  0  0  0  0  0  0  0  0
   26.0239  -21.5699  -13.3506 C   0  0  0  0  0  0  0  0  0  0  0  0
   25.9438  -22.6977  -13.8654 O   0  0  0  0  0  0  0  0  0  0  0  0
   26.7761  -20.6129  -14.1193 N   0  0  0  0  0  0  0  0  0  0  0  0
   27.1794  -20.9205  -15.5044 C   0  0  1  0  0  0  0  0  0  0  0  0
   26.8934  -19.6625  -16.3136 C   0  0  0  0  0  0  0  0  0  0  0  0
   27.2099  -19.7827  -17.7593 C   0  0  0  0  0  0  0  0  0  0  0  0
   26.8472  -18.5141  -18.4823 C   0  0  0  0  0  0  0  0  0  0  0  0
   27.1023  -18.6066  -19.9516 C   0  0  0  0  0  0  0  0  0  0  0  0
   26.6637  -17.3769  -20.6119 N   0  0  0  0  0  0  0  0  0  0  0  0
   28.6239  -21.2359  -15.5455 C   0  0  0  0  0  0  0  0  0  0  0  0
   29.4662  -20.7248  -14.5641 O   0  0  0  0  0  0  0  0  0  0  0  0
   29.1656  -21.9480  -16.4203 O   0  0  0  0  0  0  0  0  0  0  0  0
  2  1  1  0
  3  2  2  0
  4  3  1  0
  5  4  2  0
  5 11  1  0
  6  7  1  0
  6  5  1  0
  7  8  1  6
  9  7  1  0
 10  9  2  0
 11 12  2  0
 12  2  1  0
 14 13  1  0
 14 15  1  0
 16 15  1  0
 17 16  1  1
 17 18  1  0
 18  9  1  0
 19 21  1  0
 19 17  1  0
 20 19  2  0
 22 21  1  0
 22 28  1  0
 22 23  1  6
 24 25  1  0
 24 23  1  0
 25 26  1  0
 27 26  1  0
 28 29  1  0
 30 28  2  0
M  END
$$$$
