YMK.pdb
     RDKit          3D

 30 30  0  0  1  0  0  0  0  0999 V2000
   30.6214  -17.9088  -19.4087 O   0  0  0  0  0  0  0  0  0  0  0  0
   29.5989  -18.4466  -18.6678 C   0  0  0  0  0  0  0  0  0  0  0  0
   29.4945  -18.0964  -17.3491 C   0  0  0  0  0  0  0  0  0  0  0  0
   28.4527  -18.6493  -16.6105 C   0  0  0  0  0  0  0  0  0  0  0  0
   27.5526  -19.5170  -17.1690 C   0  0  0  0  0  0  0  0  0  0  0  0
   26.4592  -20.0900  -16.3771 C   0  0  0  0  0  0  0  0  0  0  0  0
   27.0190  -21.2148  -15.5424 C   0  0  2  0  0  0  0  0  0  0  0  0
   27.3530  -22.3717  -16.3056 N   0  0  0  0  0  0  0  0  0  0  0  0
   26.0576  -21.5283  -14.4300 C   0  0  0  0  0  0  0  0  0  0  0  0
   25.1511  -22.3786  -14.6346 O   0  0  0  0  0  0  0  0  0  0  0  0
   27.6887  -19.8448  -18.4929 C   0  0  0  0  0  0  0  0  0  0  0  0
   28.7068  -19.3255  -19.2790 C   0  0  0  0  0  0  0  0  0  0  0  0
   22.8306  -21.5384   -7.7529 C   0  0  0  0  0  0  0  0  0  0  0  0
   23.9616  -21.7939   -9.1109 S   0  0  0  0  0  0  0  0  0  0  0  0
   24.6475  -20.2634   -9.7658 C   0  0  0  0  0  0  0  0  0  0  0  0
   25.5118  -20.4089  -10.9453 C   0  0  0  0  0  0  0  0  0  0  0  0
   24.9918  -20.9630  -12.2016 C   0  0  2  0  0  0  0  0  0  0  0  0
   26.1196  -20.9198  -13.1717 N   0  0  0  0  0  0  0  0  0  0  0  0
   23.7820  -20.4281  -12.7906 C   0  0  0  0  0  0  0  0  0  0  0  0
   23.6237  -19.3212  -13.3319 O   0  0  0  0  0  0  0  0  0  0  0  0
   22.6031  -21.2538  -12.7604 N   0  0  0  0  0  0  0  0  0  0  0  0
   21.3102  -20.7258  -13.2354 C   0  0  1  0  0  0  0  0  0  0  0  0
   20.8214  -21.7043  -14.2950 C   0  0  0  0  0  0  0  0  0  0  0  0
   19.4385  -21.4470  -14.7705 C   0  0  0  0  0  0  0  0  0  0  0  0
   19.0169  -22.5054  -15.7532 C   0  0  0  0  0  0  0  0  0  0  0  0
   17.6906  -22.2070  -16.3730 C   0  0  0  0  0  0  0  0  0  0  0  0
   17.3009  -23.2987  -17.2658 N   0  0  0  0  0  0  0  0  0  0  0  0
   20.3505  -20.6698  -12.1113 C   0  0  0  0  0  0  0  0  0  0  0  0
   19.2697  -19.7970  -12.1744 O   0  0  0  0  0  0  0  0  0  0  0  0
   20.4362  -21.3667  -11.0755 O   0  0  0  0  0  0  0  0  0  0  0  0
  2  1  1  0
  3  2  2  0
  4  3  1  0
  5  4  2  0
  5 11  1  0
  6  7  1  0
  6  5  1  0
  7  8  1  6
  9  7  1  0
 10  9  2  0
 11 12  2  0
 12  2  1  0
 14 13  1  0
 14 15  1  0
 16 15  1  0
 17 16  1  1
 17 18  1  0
 18  9  1  0
 19 21  1  0
 19 17  1  0
 20 19  2  0
 22 21  1  0
 22 28  1  0
 22 23  1  6
 24 25  1  0
 24 23  1  0
 25 26  1  0
 27 26  1  0
 28 29  1  0
 30 28  2  0
M  END
$$$$
