YMK.pdb
     RDKit          3D

 30 30  0  0  1  0  0  0  0  0999 V2000
   25.4536  -14.8945  -20.2576 O   0  0  0  0  0  0  0  0  0  0  0  0
   25.0164  -15.8704  -19.3974 C   0  0  0  0  0  0  0  0  0  0  0  0
   24.6339  -17.0763  -19.9190 C   0  0  0  0  0  0  0  0  0  0  0  0
   24.1931  -18.0563  -19.0348 C   0  0  0  0  0  0  0  0  0  0  0  0
   24.1374  -17.8380  -17.6841 C   0  0  0  0  0  0  0  0  0  0  0  0
   23.6717  -18.8820  -16.7653 C   0  0  0  0  0  0  0  0  0  0  0  0
   24.8777  -19.6114  -16.2281 C   0  0  2  0  0  0  0  0  0  0  0  0
   25.5432  -20.4017  -17.2104 N   0  0  0  0  0  0  0  0  0  0  0  0
   24.4694  -20.4228  -15.0301 C   0  0  0  0  0  0  0  0  0  0  0  0
   24.0470  -21.5959  -15.2086 O   0  0  0  0  0  0  0  0  0  0  0  0
   24.5285  -16.6177  -17.1979 C   0  0  0  0  0  0  0  0  0  0  0  0
   24.9767  -15.6028  -18.0305 C   0  0  0  0  0  0  0  0  0  0  0  0
   25.4464  -21.1283   -7.2084 C   0  0  0  0  0  0  0  0  0  0  0  0
   25.7985  -20.4051   -8.8027 S   0  0  0  0  0  0  0  0  0  0  0  0
   24.5809  -20.8244  -10.0610 C   0  0  0  0  0  0  0  0  0  0  0  0
   24.8901  -20.3637  -11.4216 C   0  0  0  0  0  0  0  0  0  0  0  0
   24.0167  -20.7016  -12.5525 C   0  0  2  0  0  0  0  0  0  0  0  0
   24.5356  -19.9376  -13.7196 N   0  0  0  0  0  0  0  0  0  0  0  0
   22.5808  -20.5557  -12.4356 C   0  0  0  0  0  0  0  0  0  0  0  0
   21.9164  -19.5068  -12.4756 O   0  0  0  0  0  0  0  0  0  0  0  0
   21.8012  -21.7516  -12.2492 N   0  0  0  0  0  0  0  0  0  0  0  0
   20.3497  -21.6646  -12.0018 C   0  0  1  0  0  0  0  0  0  0  0  0
   19.8416  -23.1000  -11.9773 C   0  0  0  0  0  0  0  0  0  0  0  0
   18.3951  -23.2294  -11.6687 C   0  0  0  0  0  0  0  0  0  0  0  0
   17.9969  -24.6795  -11.6216 C   0  0  0  0  0  0  0  0  0  0  0  0
   16.5648  -24.8617  -11.2365 C   0  0  0  0  0  0  0  0  0  0  0  0
   16.2452  -26.2877  -11.1668 N   0  0  0  0  0  0  0  0  0  0  0  0
   20.1039  -21.0143  -10.6962 C   0  0  0  0  0  0  0  0  0  0  0  0
   21.0321  -21.1605   -9.6711 O   0  0  0  0  0  0  0  0  0  0  0  0
   19.0959  -20.3215  -10.4321 O   0  0  0  0  0  0  0  0  0  0  0  0
  2  1  1  0
  3  2  2  0
  4  3  1  0
  5  4  2  0
  5 11  1  0
  6  7  1  0
  6  5  1  0
  7  8  1  6
  9  7  1  0
 10  9  2  0
 11 12  2  0
 12  2  1  0
 14 13  1  0
 14 15  1  0
 16 15  1  0
 17 16  1  1
 17 18  1  0
 18  9  1  0
 19 21  1  0
 19 17  1  0
 20 19  2  0
 22 21  1  0
 22 28  1  0
 22 23  1  1
 24 25  1  0
 24 23  1  0
 25 26  1  0
 27 26  1  0
 28 29  1  0
 30 28  2  0
M  END
$$$$
