YMK.pdb
     RDKit          3D

 30 30  0  0  1  0  0  0  0  0999 V2000
   23.0835  -15.3554  -18.9528 O   0  0  0  0  0  0  0  0  0  0  0  0
   23.0032  -16.2633  -17.9268 C   0  0  0  0  0  0  0  0  0  0  0  0
   22.4252  -17.4786  -18.1747 C   0  0  0  0  0  0  0  0  0  0  0  0
   22.3508  -18.3890  -17.1250 C   0  0  0  0  0  0  0  0  0  0  0  0
   22.8352  -18.0950  -15.8784 C   0  0  0  0  0  0  0  0  0  0  0  0
   22.7505  -19.0664  -14.7828 C   0  0  0  0  0  0  0  0  0  0  0  0
   24.1331  -19.6127  -14.5273 C   0  0  2  0  0  0  0  0  0  0  0  0
   24.6886  -20.2909  -15.6515 N   0  0  0  0  0  0  0  0  0  0  0  0
   24.1005  -20.4816  -13.3010 C   0  0  0  0  0  0  0  0  0  0  0  0
   23.7178  -21.6763  -13.4153 O   0  0  0  0  0  0  0  0  0  0  0  0
   23.4076  -16.8677  -15.6672 C   0  0  0  0  0  0  0  0  0  0  0  0
   23.5096  -15.9198  -16.6748 C   0  0  0  0  0  0  0  0  0  0  0  0
   26.7386  -18.4778   -7.5372 C   0  0  0  0  0  0  0  0  0  0  0  0
   26.2937  -20.1867   -7.2718 S   0  0  0  0  0  0  0  0  0  0  0  0
   24.9927  -20.7647   -8.3740 C   0  0  0  0  0  0  0  0  0  0  0  0
   25.0906  -20.3060   -9.7666 C   0  0  0  0  0  0  0  0  0  0  0  0
   24.1322  -20.7591  -10.7824 C   0  0  2  0  0  0  0  0  0  0  0  0
   24.4760  -20.0277  -12.0321 N   0  0  0  0  0  0  0  0  0  0  0  0
   22.7090  -20.6986  -10.5225 C   0  0  0  0  0  0  0  0  0  0  0  0
   21.8935  -19.8603  -10.9415 O   0  0  0  0  0  0  0  0  0  0  0  0
   22.1402  -21.7181   -9.6800 N   0  0  0  0  0  0  0  0  0  0  0  0
   20.6790  -21.9127   -9.6276 C   0  0  1  0  0  0  0  0  0  0  0  0
   20.2816  -22.4737  -10.9864 C   0  0  0  0  0  0  0  0  0  0  0  0
   18.8510  -22.8564  -11.0931 C   0  0  0  0  0  0  0  0  0  0  0  0
   18.5312  -23.3038  -12.4935 C   0  0  0  0  0  0  0  0  0  0  0  0
   17.0894  -23.6586  -12.6597 C   0  0  0  0  0  0  0  0  0  0  0  0
   16.8305  -24.0569  -14.0435 N   0  0  0  0  0  0  0  0  0  0  0  0
   20.3420  -22.8782   -8.5589 C   0  0  0  0  0  0  0  0  0  0  0  0
   19.0121  -23.0664   -8.1983 O   0  0  0  0  0  0  0  0  0  0  0  0
   21.1842  -23.5604   -7.9336 O   0  0  0  0  0  0  0  0  0  0  0  0
  2  1  1  0
  3  2  2  0
  4  3  1  0
  5  4  2  0
  5 11  1  0
  6  7  1  0
  6  5  1  0
  7  8  1  6
  9  7  1  0
 10  9  2  0
 11 12  2  0
 12  2  1  0
 14 13  1  0
 14 15  1  0
 16 15  1  0
 17 16  1  1
 17 18  1  0
 18  9  1  0
 19 21  1  0
 19 17  1  0
 20 19  2  0
 22 21  1  0
 22 28  1  0
 22 23  1  6
 24 25  1  0
 24 23  1  0
 25 26  1  0
 27 26  1  0
 28 29  1  0
 30 28  2  0
M  END
$$$$
