YMK.pdb
     RDKit          3D

 30 30  0  0  1  0  0  0  0  0999 V2000
   26.9988  -17.4348  -23.6116 O   0  0  0  0  0  0  0  0  0  0  0  0
   27.0248  -16.3383  -22.7866 C   0  0  0  0  0  0  0  0  0  0  0  0
   27.9810  -15.3833  -23.0007 C   0  0  0  0  0  0  0  0  0  0  0  0
   27.9951  -14.2771  -22.1565 C   0  0  0  0  0  0  0  0  0  0  0  0
   27.0891  -14.1330  -21.1398 C   0  0  0  0  0  0  0  0  0  0  0  0
   27.1165  -12.9602  -20.2596 C   0  0  0  0  0  0  0  0  0  0  0  0
   28.2168  -13.1551  -19.2463 C   0  0  2  0  0  0  0  0  0  0  0  0
   28.0464  -14.3223  -18.4457 N   0  0  0  0  0  0  0  0  0  0  0  0
   28.3452  -11.9104  -18.4131 C   0  0  0  0  0  0  0  0  0  0  0  0
   27.7299  -11.8503  -17.3156 O   0  0  0  0  0  0  0  0  0  0  0  0
   26.1457  -15.1100  -20.9555 C   0  0  0  0  0  0  0  0  0  0  0  0
   26.0827  -16.2346  -21.7650 C   0  0  0  0  0  0  0  0  0  0  0  0
   33.6058   -7.0205  -15.6154 C   0  0  0  0  0  0  0  0  0  0  0  0
   33.0116   -8.4398  -16.5217 S   0  0  0  0  0  0  0  0  0  0  0  0
   31.2342   -8.4109  -16.8075 C   0  0  0  0  0  0  0  0  0  0  0  0
   30.6976   -9.5387  -17.5817 C   0  0  0  0  0  0  0  0  0  0  0  0
   29.2760   -9.6008  -17.9434 C   0  0  2  0  0  0  0  0  0  0  0  0
   29.1181  -10.8094  -18.7974 N   0  0  0  0  0  0  0  0  0  0  0  0
   28.6240   -8.4552  -18.5428 C   0  0  0  0  0  0  0  0  0  0  0  0
   28.7882   -7.9974  -19.6859 O   0  0  0  0  0  0  0  0  0  0  0  0
   27.6650   -7.7387  -17.7430 N   0  0  0  0  0  0  0  0  0  0  0  0
   27.0128   -6.5250  -18.2696 C   0  0  1  0  0  0  0  0  0  0  0  0
   25.9348   -6.1561  -17.2592 C   0  0  0  0  0  0  0  0  0  0  0  0
   25.2392   -4.8770  -17.5498 C   0  0  0  0  0  0  0  0  0  0  0  0
   24.1102   -4.6621  -16.5788 C   0  0  0  0  0  0  0  0  0  0  0  0
   23.2673   -3.4831  -16.9418 C   0  0  0  0  0  0  0  0  0  0  0  0
   22.2275   -3.2841  -15.9319 N   0  0  0  0  0  0  0  0  0  0  0  0
   28.0044   -5.4330  -18.3792 C   0  0  0  0  0  0  0  0  0  0  0  0
   27.9596   -4.5722  -19.4705 O   0  0  0  0  0  0  0  0  0  0  0  0
   28.9087   -5.2151  -17.5423 O   0  0  0  0  0  0  0  0  0  0  0  0
  2  1  1  0
  3  2  2  0
  4  3  1  0
  5  4  2  0
  5 11  1  0
  6  7  1  0
  6  5  1  0
  7  8  1  1
  9  7  1  0
 10  9  2  0
 11 12  2  0
 12  2  1  0
 14 13  1  0
 14 15  1  0
 16 15  1  0
 17 16  1  6
 17 18  1  0
 18  9  1  0
 19 21  1  0
 19 17  1  0
 20 19  2  0
 22 21  1  0
 22 28  1  0
 22 23  1  1
 24 25  1  0
 24 23  1  0
 25 26  1  0
 27 26  1  0
 28 29  1  0
 30 28  2  0
M  END
$$$$
