YMK.pdb
     RDKit          3D

 30 30  0  0  1  0  0  0  0  0999 V2000
   21.7690  -15.4722  -18.7203 O   0  0  0  0  0  0  0  0  0  0  0  0
   22.0944  -16.4637  -17.8288 C   0  0  0  0  0  0  0  0  0  0  0  0
   21.9911  -17.7662  -18.2352 C   0  0  0  0  0  0  0  0  0  0  0  0
   22.3245  -18.7606  -17.3207 C   0  0  0  0  0  0  0  0  0  0  0  0
   22.7441  -18.4633  -16.0516 C   0  0  0  0  0  0  0  0  0  0  0  0
   23.0933  -19.5233  -15.0999 C   0  0  0  0  0  0  0  0  0  0  0  0
   24.5616  -19.4029  -14.7759 C   0  0  2  0  0  0  0  0  0  0  0  0
   25.4063  -19.5803  -15.9105 N   0  0  0  0  0  0  0  0  0  0  0  0
   24.9001  -20.3556  -13.6633 C   0  0  0  0  0  0  0  0  0  0  0  0
   25.4523  -21.4506  -13.9507 O   0  0  0  0  0  0  0  0  0  0  0  0
   22.8354  -17.1473  -15.6798 C   0  0  0  0  0  0  0  0  0  0  0  0
   22.5165  -16.1133  -16.5478 C   0  0  0  0  0  0  0  0  0  0  0  0
   25.8226  -18.9523   -6.2516 C   0  0  0  0  0  0  0  0  0  0  0  0
   26.4769  -19.7934   -7.6844 S   0  0  0  0  0  0  0  0  0  0  0  0
   25.4524  -19.6040   -9.1528 C   0  0  0  0  0  0  0  0  0  0  0  0
   25.9210  -20.3161  -10.3496 C   0  0  0  0  0  0  0  0  0  0  0  0
   24.9811  -21.0309  -11.2222 C   0  0  2  0  0  0  0  0  0  0  0  0
   24.6313  -20.0855  -12.3172 N   0  0  0  0  0  0  0  0  0  0  0  0
   23.7918  -21.6437  -10.6684 C   0  0  0  0  0  0  0  0  0  0  0  0
   23.6482  -22.1450   -9.5409 O   0  0  0  0  0  0  0  0  0  0  0  0
   22.6177  -21.6943  -11.5001 N   0  0  0  0  0  0  0  0  0  0  0  0
   21.3057  -22.0349  -10.9183 C   0  0  1  0  0  0  0  0  0  0  0  0
   21.4298  -21.7752   -9.4229 C   0  0  0  0  0  0  0  0  0  0  0  0
   20.1729  -21.9862   -8.6612 C   0  0  0  0  0  0  0  0  0  0  0  0
   20.1301  -23.3800   -8.0965 C   0  0  0  0  0  0  0  0  0  0  0  0
   18.8125  -23.6962   -7.4671 C   0  0  0  0  0  0  0  0  0  0  0  0
   18.8282  -25.0595   -6.9361 N   0  0  0  0  0  0  0  0  0  0  0  0
   20.2602  -21.1664  -11.5018 C   0  0  0  0  0  0  0  0  0  0  0  0
   18.9351  -21.5882  -11.4949 O   0  0  0  0  0  0  0  0  0  0  0  0
   20.4797  -20.0476  -12.0173 O   0  0  0  0  0  0  0  0  0  0  0  0
  2  1  1  0
  3  2  2  0
  4  3  1  0
  5  4  2  0
  5 11  1  0
  6  7  1  0
  6  5  1  0
  7  8  1  6
  9  7  1  0
 10  9  2  0
 11 12  2  0
 12  2  1  0
 14 13  1  0
 14 15  1  0
 16 15  1  0
 17 16  1  1
 17 18  1  0
 18  9  1  0
 19 21  1  0
 19 17  1  0
 20 19  2  0
 22 21  1  0
 22 28  1  0
 22 23  1  1
 24 25  1  0
 24 23  1  0
 25 26  1  0
 27 26  1  0
 28 29  1  0
 30 28  2  0
M  END
$$$$
