YMK.pdb
     RDKit          3D

 30 30  0  0  1  0  0  0  0  0999 V2000
   29.7741  -15.0124  -18.6860 O   0  0  0  0  0  0  0  0  0  0  0  0
   28.9946  -15.9750  -18.0949 C   0  0  0  0  0  0  0  0  0  0  0  0
   28.7315  -15.8700  -16.7561 C   0  0  0  0  0  0  0  0  0  0  0  0
   27.9397  -16.8531  -16.1705 C   0  0  0  0  0  0  0  0  0  0  0  0
   27.4322  -17.8983  -16.8952 C   0  0  0  0  0  0  0  0  0  0  0  0
   26.5980  -18.9257  -16.2631 C   0  0  0  0  0  0  0  0  0  0  0  0
   27.4945  -19.8336  -15.4586 C   0  0  2  0  0  0  0  0  0  0  0  0
   28.2872  -20.7024  -16.2643 N   0  0  0  0  0  0  0  0  0  0  0  0
   26.6622  -20.5892  -14.4604 C   0  0  0  0  0  0  0  0  0  0  0  0
   26.1727  -21.6999  -14.7973 O   0  0  0  0  0  0  0  0  0  0  0  0
   27.7169  -17.9706  -18.2339 C   0  0  0  0  0  0  0  0  0  0  0  0
   28.5002  -17.0204  -18.8724 C   0  0  0  0  0  0  0  0  0  0  0  0
   25.2553  -21.0608   -6.6595 C   0  0  0  0  0  0  0  0  0  0  0  0
   26.0882  -20.4121   -8.0997 S   0  0  0  0  0  0  0  0  0  0  0  0
   25.3726  -20.9764   -9.6524 C   0  0  0  0  0  0  0  0  0  0  0  0
   26.0838  -20.5576  -10.8682 C   0  0  0  0  0  0  0  0  0  0  0  0
   25.5458  -20.8563  -12.2012 C   0  0  2  0  0  0  0  0  0  0  0  0
   26.4026  -20.1183  -13.1688 N   0  0  0  0  0  0  0  0  0  0  0  0
   24.1422  -20.6444  -12.4869 C   0  0  0  0  0  0  0  0  0  0  0  0
   23.5646  -19.5672  -12.7091 O   0  0  0  0  0  0  0  0  0  0  0  0
   23.2863  -21.8014  -12.5242 N   0  0  0  0  0  0  0  0  0  0  0  0
   21.8484  -21.6563  -12.8194 C   0  0  1  0  0  0  0  0  0  0  0  0
   21.3186  -23.0686  -13.0285 C   0  0  0  0  0  0  0  0  0  0  0  0
   19.8628  -23.1376  -13.3120 C   0  0  0  0  0  0  0  0  0  0  0  0
   19.4115  -24.5708  -13.3904 C   0  0  0  0  0  0  0  0  0  0  0  0
   17.9491  -24.6898  -13.6720 C   0  0  0  0  0  0  0  0  0  0  0  0
   17.5946  -26.0937  -13.8816 N   0  0  0  0  0  0  0  0  0  0  0  0
   21.1650  -21.0198  -11.6722 C   0  0  0  0  0  0  0  0  0  0  0  0
   20.1251  -20.1258  -11.9028 O   0  0  0  0  0  0  0  0  0  0  0  0
   21.4572  -21.2280  -10.4735 O   0  0  0  0  0  0  0  0  0  0  0  0
  2  1  1  0
  3  2  2  0
  4  3  1  0
  5  4  2  0
  5 11  1  0
  6  7  1  0
  6  5  1  0
  7  8  1  6
  9  7  1  0
 10  9  2  0
 11 12  2  0
 12  2  1  0
 14 13  1  0
 14 15  1  0
 16 15  1  0
 17 16  1  1
 17 18  1  0
 18  9  1  0
 19 21  1  0
 19 17  1  0
 20 19  2  0
 22 21  1  0
 22 28  1  0
 22 23  1  1
 24 25  1  0
 24 23  1  0
 25 26  1  0
 27 26  1  0
 28 29  1  0
 30 28  2  0
M  END
$$$$
