YMK.pdb
     RDKit          3D

 30 30  0  0  1  0  0  0  0  0999 V2000
   23.0574  -12.4764  -27.3829 O   0  0  0  0  0  0  0  0  0  0  0  0
   22.9137  -12.0416  -26.0891 C   0  0  0  0  0  0  0  0  0  0  0  0
   23.7754  -11.0868  -25.6221 C   0  0  0  0  0  0  0  0  0  0  0  0
   23.6175  -10.6555  -24.3085 C   0  0  0  0  0  0  0  0  0  0  0  0
   22.6373  -11.1595  -23.4959 C   0  0  0  0  0  0  0  0  0  0  0  0
   22.4832  -10.6933  -22.1139 C   0  0  0  0  0  0  0  0  0  0  0  0
   23.2973  -11.5931  -21.2178 C   0  0  2  0  0  0  0  0  0  0  0  0
   22.7584  -12.9076  -21.0982 N   0  0  0  0  0  0  0  0  0  0  0  0
   23.4722  -10.9289  -19.8806 C   0  0  0  0  0  0  0  0  0  0  0  0
   22.6387  -11.1745  -18.9687 O   0  0  0  0  0  0  0  0  0  0  0  0
   21.7926  -12.1149  -23.9981 C   0  0  0  0  0  0  0  0  0  0  0  0
   21.9016  -12.5834  -25.2992 C   0  0  0  0  0  0  0  0  0  0  0  0
   26.8178  -10.4432  -13.7923 C   0  0  0  0  0  0  0  0  0  0  0  0
   26.1237  -10.6455  -15.4251 S   0  0  0  0  0  0  0  0  0  0  0  0
   26.6296   -9.3599  -16.5797 C   0  0  0  0  0  0  0  0  0  0  0  0
   26.1352   -9.5120  -17.9551 C   0  0  0  0  0  0  0  0  0  0  0  0
   24.7019   -9.4184  -18.2595 C   0  0  2  0  0  0  0  0  0  0  0  0
   24.5203  -10.0467  -19.5964 N   0  0  0  0  0  0  0  0  0  0  0  0
   24.0225   -8.1415  -18.1914 C   0  0  0  0  0  0  0  0  0  0  0  0
   24.1260   -7.1814  -18.9729 O   0  0  0  0  0  0  0  0  0  0  0  0
   23.1111   -7.9277  -17.0976 N   0  0  0  0  0  0  0  0  0  0  0  0
   22.4034   -6.6411  -16.9572 C   0  0  1  0  0  0  0  0  0  0  0  0
   20.9858   -6.8855  -17.4570 C   0  0  0  0  0  0  0  0  0  0  0  0
   20.0705   -5.7294  -17.2833 C   0  0  0  0  0  0  0  0  0  0  0  0
   18.7376   -6.0160  -17.9197 C   0  0  0  0  0  0  0  0  0  0  0  0
   17.7664   -4.8968  -17.7291 C   0  0  0  0  0  0  0  0  0  0  0  0
   16.5124   -5.2025  -18.4180 N   0  0  0  0  0  0  0  0  0  0  0  0
   22.3800   -6.2369  -15.5345 C   0  0  0  0  0  0  0  0  0  0  0  0
   22.7500   -7.1520  -14.5549 O   0  0  0  0  0  0  0  0  0  0  0  0
   22.0432   -5.1020  -15.1293 O   0  0  0  0  0  0  0  0  0  0  0  0
  2  1  1  0
  3  2  2  0
  4  3  1  0
  5  4  2  0
  5 11  1  0
  6  7  1  0
  6  5  1  0
  7  8  1  1
  9  7  1  0
 10  9  2  0
 11 12  2  0
 12  2  1  0
 14 13  1  0
 14 15  1  0
 16 15  1  0
 17 16  1  6
 17 18  1  0
 18  9  1  0
 19 21  1  0
 19 17  1  0
 20 19  2  0
 22 21  1  0
 22 28  1  0
 22 23  1  1
 24 25  1  0
 24 23  1  0
 25 26  1  0
 27 26  1  0
 28 29  1  0
 30 28  2  0
M  END
$$$$
