YMK.pdb
     RDKit          3D

 30 30  0  0  1  0  0  0  0  0999 V2000
   22.8079  -13.4259  -18.2252 O   0  0  0  0  0  0  0  0  0  0  0  0
   22.4818  -14.6459  -17.6877 C   0  0  0  0  0  0  0  0  0  0  0  0
   21.8125  -15.5462  -18.4714 C   0  0  0  0  0  0  0  0  0  0  0  0
   21.4886  -16.7790  -17.9131 C   0  0  0  0  0  0  0  0  0  0  0  0
   21.8210  -17.0974  -16.6234 C   0  0  0  0  0  0  0  0  0  0  0  0
   21.4735  -18.4019  -16.0503 C   0  0  0  0  0  0  0  0  0  0  0  0
   22.7519  -19.1084  -15.6733 C   0  0  2  0  0  0  0  0  0  0  0  0
   23.5613  -19.4482  -16.7965 N   0  0  0  0  0  0  0  0  0  0  0  0
   22.4213  -20.3080  -14.8297 C   0  0  0  0  0  0  0  0  0  0  0  0
   22.3630  -21.4388  -15.3815 O   0  0  0  0  0  0  0  0  0  0  0  0
   22.4912  -16.1705  -15.8684 C   0  0  0  0  0  0  0  0  0  0  0  0
   22.8406  -14.9255  -16.3706 C   0  0  0  0  0  0  0  0  0  0  0  0
   25.5955  -19.9688   -9.6015 C   0  0  0  0  0  0  0  0  0  0  0  0
   24.6485  -21.4827   -9.6121 S   0  0  0  0  0  0  0  0  0  0  0  0
   23.8658  -21.8236  -11.1973 C   0  0  0  0  0  0  0  0  0  0  0  0
   22.5097  -21.2829  -11.3647 C   0  0  0  0  0  0  0  0  0  0  0  0
   21.7931  -21.4164  -12.6392 C   0  0  2  0  0  0  0  0  0  0  0  0
   22.1740  -20.2312  -13.4548 N   0  0  0  0  0  0  0  0  0  0  0  0
   20.3588  -21.6149  -12.6535 C   0  0  0  0  0  0  0  0  0  0  0  0
   19.4698  -20.7477  -12.6266 O   0  0  0  0  0  0  0  0  0  0  0  0
   19.8728  -22.9692  -12.7042 N   0  0  0  0  0  0  0  0  0  0  0  0
   18.4337  -23.2515  -12.5455 C   0  0  1  0  0  0  0  0  0  0  0  0
   18.2948  -24.7669  -12.6029 C   0  0  0  0  0  0  0  0  0  0  0  0
   16.9160  -25.2621  -12.3618 C   0  0  0  0  0  0  0  0  0  0  0  0
   16.8648  -26.7592  -12.5022 C   0  0  0  0  0  0  0  0  0  0  0  0
   15.4699  -27.2885  -12.4223 C   0  0  0  0  0  0  0  0  0  0  0  0
   15.4942  -28.7502  -12.3622 N   0  0  0  0  0  0  0  0  0  0  0  0
   17.9672  -22.7458  -11.2361 C   0  0  0  0  0  0  0  0  0  0  0  0
   18.7437  -22.9580  -10.1022 O   0  0  0  0  0  0  0  0  0  0  0  0
   16.8960  -22.1230  -11.0617 O   0  0  0  0  0  0  0  0  0  0  0  0
  2  1  1  0
  3  2  2  0
  4  3  1  0
  5  4  2  0
  5 11  1  0
  6  7  1  0
  6  5  1  0
  7  8  1  6
  9  7  1  0
 10  9  2  0
 11 12  2  0
 12  2  1  0
 14 13  1  0
 14 15  1  0
 16 15  1  0
 17 16  1  1
 17 18  1  0
 18  9  1  0
 19 21  1  0
 19 17  1  0
 20 19  2  0
 22 21  1  0
 22 28  1  0
 22 23  1  1
 24 25  1  0
 24 23  1  0
 25 26  1  0
 27 26  1  0
 28 29  1  0
 30 28  2  0
M  END
$$$$
