YMK.pdb
     RDKit          3D

 30 30  0  0  1  0  0  0  0  0999 V2000
   29.1141  -14.4124  -17.8160 O   0  0  0  0  0  0  0  0  0  0  0  0
   28.4302  -15.4434  -17.2220 C   0  0  0  0  0  0  0  0  0  0  0  0
   28.2209  -16.5880  -17.9422 C   0  0  0  0  0  0  0  0  0  0  0  0
   27.5262  -17.6249  -17.3269 C   0  0  0  0  0  0  0  0  0  0  0  0
   27.0603  -17.5203  -16.0435 C   0  0  0  0  0  0  0  0  0  0  0  0
   26.3310  -18.6232  -15.4088 C   0  0  0  0  0  0  0  0  0  0  0  0
   27.3374  -19.5641  -14.7948 C   0  0  2  0  0  0  0  0  0  0  0  0
   28.0763  -20.3086  -15.7603 N   0  0  0  0  0  0  0  0  0  0  0  0
   26.6390  -20.4553  -13.8058 C   0  0  0  0  0  0  0  0  0  0  0  0
   26.2678  -21.5998  -14.1787 O   0  0  0  0  0  0  0  0  0  0  0  0
   27.2887  -16.3587  -15.3529 C   0  0  0  0  0  0  0  0  0  0  0  0
   27.9748  -15.2916  -15.9138 C   0  0  0  0  0  0  0  0  0  0  0  0
   26.7834  -19.2373   -7.3562 C   0  0  0  0  0  0  0  0  0  0  0  0
   25.9437  -20.8099   -7.4590 S   0  0  0  0  0  0  0  0  0  0  0  0
   25.1895  -21.1123   -9.0656 C   0  0  0  0  0  0  0  0  0  0  0  0
   25.9406  -20.6093  -10.2240 C   0  0  0  0  0  0  0  0  0  0  0  0
   25.4642  -20.8394  -11.5936 C   0  0  2  0  0  0  0  0  0  0  0  0
   26.3794  -20.0754  -12.4846 N   0  0  0  0  0  0  0  0  0  0  0  0
   24.0799  -20.5895  -11.9372 C   0  0  0  0  0  0  0  0  0  0  0  0
   23.5153  -19.4912  -12.0724 O   0  0  0  0  0  0  0  0  0  0  0  0
   23.2293  -21.7306  -12.1539 N   0  0  0  0  0  0  0  0  0  0  0  0
   21.8119  -21.5459  -12.5181 C   0  0  1  0  0  0  0  0  0  0  0  0
   21.3939  -22.8217  -13.2370 C   0  0  0  0  0  0  0  0  0  0  0  0
   21.9364  -22.9516  -14.6129 C   0  0  0  0  0  0  0  0  0  0  0  0
   21.5945  -24.3001  -15.1859 C   0  0  0  0  0  0  0  0  0  0  0  0
   21.9896  -24.4225  -16.6216 C   0  0  0  0  0  0  0  0  0  0  0  0
   22.9997  -25.4701  -16.7728 N   0  0  0  0  0  0  0  0  0  0  0  0
   21.0020  -21.3614  -11.2942 C   0  0  0  0  0  0  0  0  0  0  0  0
   19.7120  -20.8519  -11.3952 O   0  0  0  0  0  0  0  0  0  0  0  0
   21.3972  -21.6356  -10.1390 O   0  0  0  0  0  0  0  0  0  0  0  0
  2  1  1  0
  3  2  2  0
  4  3  1  0
  5  4  2  0
  5 11  1  0
  6  7  1  0
  6  5  1  0
  7  8  1  6
  9  7  1  0
 10  9  2  0
 11 12  2  0
 12  2  1  0
 14 13  1  0
 14 15  1  0
 16 15  1  0
 17 16  1  1
 17 18  1  0
 18  9  1  0
 19 21  1  0
 19 17  1  0
 20 19  2  0
 22 21  1  0
 22 28  1  0
 22 23  1  1
 24 25  1  0
 24 23  1  0
 25 26  1  0
 27 26  1  0
 28 29  1  0
 30 28  2  0
M  END
$$$$
