EGT.pdb
     RDKit          3D

 21 20  0  0  1  0  0  0  0  0999 V2000
   10.5696  -18.6602   21.6237 N   0  0  0  0  0  0  0  0  0  0  0  0
   10.0880  -17.4470   20.9050 C   0  0  1  0  0  0  0  0  0  0  0  0
    9.5538  -17.9099   19.5919 C   0  0  0  0  0  0  0  0  0  0  0  0
   10.5692  -18.6516   18.7890 C   0  0  0  0  0  0  0  0  0  0  0  0
   10.1369  -18.7775   17.3879 C   0  0  0  0  0  0  0  0  0  0  0  0
    8.9353  -18.9290   17.1044 O   0  0  0  0  0  0  0  0  0  0  0  0
    9.0049  -16.8362   21.7110 C   0  0  0  0  0  0  0  0  0  0  0  0
    8.1090  -17.5216   22.2772 O   0  0  0  0  0  0  0  0  0  0  0  0
   11.0406  -18.7340   16.3219 O   0  0  0  0  0  0  0  0  0  0  0  0
    8.9975  -15.4035   21.8375 N   0  0  0  0  0  0  0  0  0  0  0  0
    7.9359  -14.8304   22.6143 C   0  0  0  0  0  0  0  0  0  0  0  0
    8.4125  -14.4164   23.9800 C   0  0  0  0  0  0  0  0  0  0  0  0
    9.6045  -14.6711   24.3294 O   0  0  0  0  0  0  0  0  0  0  0  0
    6.9778  -11.0024   25.8645 C   0  0  0  0  0  0  0  0  0  0  0  0
    6.8972  -12.2744   26.6643 C   0  0  1  0  0  0  0  0  0  0  0  0
    5.6196  -12.8016   26.6201 O   0  0  0  0  0  0  0  0  0  0  0  0
    7.9171  -13.2745   26.1031 C   0  0  2  0  0  0  0  0  0  0  0  0
    7.4946  -13.7520   24.8235 N   0  0  0  0  0  0  0  0  0  0  0  0
    8.0118  -14.3965   27.0830 C   0  0  0  0  0  0  0  0  0  0  0  0
    7.6277  -15.5376   26.7888 O   0  0  0  0  0  0  0  0  0  0  0  0
    8.5356  -14.1452   28.3272 O   0  0  0  0  0  0  0  0  0  0  0  0
  2  1  1  1
  3  2  1  0
  4  5  1  0
  4  3  1  0
  5  6  2  0
  7 10  1  0
  7  2  1  0
  8  7  2  0
  9  5  1  0
 11 12  1  0
 11 10  1  0
 12 18  1  0
 13 12  2  0
 15 16  1  0
 15 14  1  6
 17 15  1  0
 17 18  1  6
 19 17  1  0
 19 21  1  0
 20 19  2  0
M  END
$$$$
