EGT.pdb
     RDKit          3D

 21 20  0  0  1  0  0  0  0  0999 V2000
   10.5139  -17.1185   20.8517 N   0  0  0  0  0  0  0  0  0  0  0  0
    9.2391  -17.0768   20.0815 C   0  0  1  0  0  0  0  0  0  0  0  0
    8.9035  -18.4867   19.7305 C   0  0  0  0  0  0  0  0  0  0  0  0
    9.8270  -19.4713   20.3658 C   0  0  0  0  0  0  0  0  0  0  0  0
   10.9023  -19.8538   19.4368 C   0  0  0  0  0  0  0  0  0  0  0  0
   12.0922  -19.6127   19.7076 O   0  0  0  0  0  0  0  0  0  0  0  0
    8.1912  -16.5051   20.9596 C   0  0  0  0  0  0  0  0  0  0  0  0
    6.9585  -16.6390   20.7235 O   0  0  0  0  0  0  0  0  0  0  0  0
   10.6449  -20.4972   18.2225 O   0  0  0  0  0  0  0  0  0  0  0  0
    8.6227  -15.7736   22.1202 N   0  0  0  0  0  0  0  0  0  0  0  0
    7.5958  -15.3108   23.0091 C   0  0  0  0  0  0  0  0  0  0  0  0
    8.1645  -14.4693   24.1191 C   0  0  0  0  0  0  0  0  0  0  0  0
    9.4221  -14.3610   24.2394 O   0  0  0  0  0  0  0  0  0  0  0  0
    6.1306  -11.1812   25.8622 C   0  0  0  0  0  0  0  0  0  0  0  0
    6.5886  -12.2969   26.7620 C   0  0  1  0  0  0  0  0  0  0  0  0
    5.5470  -13.1631   27.0385 O   0  0  0  0  0  0  0  0  0  0  0  0
    7.7446  -13.0387   26.0773 C   0  0  2  0  0  0  0  0  0  0  0  0
    7.2558  -13.8283   24.9904 N   0  0  0  0  0  0  0  0  0  0  0  0
    8.3836  -13.9016   27.1142 C   0  0  0  0  0  0  0  0  0  0  0  0
    9.0167  -13.4065   28.0578 O   0  0  0  0  0  0  0  0  0  0  0  0
    8.2594  -15.2649   27.0079 O   0  0  0  0  0  0  0  0  0  0  0  0
  2  1  1  1
  3  2  1  0
  4  5  1  0
  4  3  1  0
  5  6  2  0
  7 10  1  0
  7  2  1  0
  8  7  2  0
  9  5  1  0
 11 12  1  0
 11 10  1  0
 12 18  1  0
 13 12  2  0
 15 16  1  0
 15 14  1  6
 17 15  1  0
 17 18  1  6
 19 17  1  0
 19 21  1  0
 20 19  2  0
M  END
$$$$
