EGT.pdb
     RDKit          3D

 21 20  0  0  1  0  0  0  0  0999 V2000
    9.9871  -16.9041   20.2501 N   0  0  0  0  0  0  0  0  0  0  0  0
    9.9198  -17.6940   21.5118 C   0  0  1  0  0  0  0  0  0  0  0  0
   11.2987  -17.7141   22.0794 C   0  0  0  0  0  0  0  0  0  0  0  0
   12.3533  -17.7166   21.0242 C   0  0  0  0  0  0  0  0  0  0  0  0
   13.6953  -17.6740   21.6266 C   0  0  0  0  0  0  0  0  0  0  0  0
   14.3449  -18.7194   21.8068 O   0  0  0  0  0  0  0  0  0  0  0  0
    8.9953  -16.9999   22.4388 C   0  0  0  0  0  0  0  0  0  0  0  0
    8.6550  -17.4878   23.5521 O   0  0  0  0  0  0  0  0  0  0  0  0
   14.2982  -16.4756   22.0203 O   0  0  0  0  0  0  0  0  0  0  0  0
    8.4799  -15.7210   22.0299 N   0  0  0  0  0  0  0  0  0  0  0  0
    7.4772  -15.1315   22.8701 C   0  0  0  0  0  0  0  0  0  0  0  0
    8.0848  -14.4894   24.0876 C   0  0  0  0  0  0  0  0  0  0  0  0
    9.3405  -14.5358   24.2572 O   0  0  0  0  0  0  0  0  0  0  0  0
    6.7229  -10.9943   25.8735 C   0  0  0  0  0  0  0  0  0  0  0  0
    6.7280  -12.2231   26.7418 C   0  0  1  0  0  0  0  0  0  0  0  0
    5.4660  -12.7848   26.8045 O   0  0  0  0  0  0  0  0  0  0  0  0
    7.7406  -13.2252   26.1710 C   0  0  2  0  0  0  0  0  0  0  0  0
    7.2136  -13.8542   25.0003 N   0  0  0  0  0  0  0  0  0  0  0  0
    8.0069  -14.2325   27.2399 C   0  0  0  0  0  0  0  0  0  0  0  0
    7.7036  -15.4244   27.0862 O   0  0  0  0  0  0  0  0  0  0  0  0
    8.5983  -13.8170   28.4073 O   0  0  0  0  0  0  0  0  0  0  0  0
  2  1  1  6
  3  2  1  0
  4  5  1  0
  4  3  1  0
  5  6  2  0
  7 10  1  0
  7  2  1  0
  8  7  2  0
  9  5  1  0
 11 12  1  0
 11 10  1  0
 12 18  1  0
 13 12  2  0
 15 16  1  0
 15 14  1  6
 17 15  1  0
 17 18  1  6
 19 17  1  0
 19 21  1  0
 20 19  2  0
M  END
$$$$
