EGT.pdb
     RDKit          3D

 21 20  0  0  1  0  0  0  0  0999 V2000
    9.9460  -17.4150   20.6596 N   0  0  0  0  0  0  0  0  0  0  0  0
    9.1122  -16.5360   19.7922 C   0  0  1  0  0  0  0  0  0  0  0  0
    8.3922  -17.4305   18.8407 C   0  0  0  0  0  0  0  0  0  0  0  0
    8.1135  -18.7773   19.4188 C   0  0  0  0  0  0  0  0  0  0  0  0
    8.2621  -19.8256   18.3967 C   0  0  0  0  0  0  0  0  0  0  0  0
    9.3686  -20.0543   17.8766 O   0  0  0  0  0  0  0  0  0  0  0  0
    8.1428  -15.8239   20.6576 C   0  0  0  0  0  0  0  0  0  0  0  0
    7.3112  -14.9896   20.2044 O   0  0  0  0  0  0  0  0  0  0  0  0
    7.1842  -20.6049   17.9657 O   0  0  0  0  0  0  0  0  0  0  0  0
    8.1713  -16.1135   22.0661 N   0  0  0  0  0  0  0  0  0  0  0  0
    7.2578  -15.3792   22.8939 C   0  0  0  0  0  0  0  0  0  0  0  0
    7.9711  -14.6846   24.0219 C   0  0  0  0  0  0  0  0  0  0  0  0
    9.2304  -14.7918   24.1248 O   0  0  0  0  0  0  0  0  0  0  0  0
    6.6291  -11.1141   25.9221 C   0  0  0  0  0  0  0  0  0  0  0  0
    6.8157  -12.3580   26.7478 C   0  0  1  0  0  0  0  0  0  0  0  0
    5.6089  -13.0051   26.9396 O   0  0  0  0  0  0  0  0  0  0  0  0
    7.8172  -13.2768   26.0347 C   0  0  2  0  0  0  0  0  0  0  0  0
    7.1918  -13.9328   24.9291 N   0  0  0  0  0  0  0  0  0  0  0  0
    8.2906  -14.2709   27.0425 C   0  0  0  0  0  0  0  0  0  0  0  0
    8.0813  -15.4834   26.8930 O   0  0  0  0  0  0  0  0  0  0  0  0
    8.9678  -13.8198   28.1485 O   0  0  0  0  0  0  0  0  0  0  0  0
  2  1  1  1
  3  2  1  0
  4  5  1  0
  4  3  1  0
  5  6  2  0
  7 10  1  0
  7  2  1  0
  8  7  2  0
  9  5  1  0
 11 12  1  0
 11 10  1  0
 12 18  1  0
 13 12  2  0
 15 16  1  0
 15 14  1  6
 17 15  1  0
 17 18  1  6
 19 17  1  0
 19 21  1  0
 20 19  2  0
M  END
$$$$
