EGT.pdb
     RDKit          3D

 21 20  0  0  1  0  0  0  0  0999 V2000
    7.6695  -19.2118   22.2596 N   0  0  0  0  0  0  0  0  0  0  0  0
    6.9781  -18.0972   22.9667 C   0  0  1  0  0  0  0  0  0  0  0  0
    6.8502  -18.5086   24.3943 C   0  0  0  0  0  0  0  0  0  0  0  0
    5.7528  -19.4960   24.6106 C   0  0  0  0  0  0  0  0  0  0  0  0
    6.2989  -20.8457   24.8242 C   0  0  0  0  0  0  0  0  0  0  0  0
    7.1130  -21.0648   25.7388 O   0  0  0  0  0  0  0  0  0  0  0  0
    7.8271  -16.8877   22.8572 C   0  0  0  0  0  0  0  0  0  0  0  0
    9.0824  -16.9240   22.9840 O   0  0  0  0  0  0  0  0  0  0  0  0
    5.9361  -21.9324   24.0228 O   0  0  0  0  0  0  0  0  0  0  0  0
    7.1699  -15.6355   22.5954 N   0  0  0  0  0  0  0  0  0  0  0  0
    8.0152  -14.5059   22.3342 C   0  0  0  0  0  0  0  0  0  0  0  0
    8.2808  -13.7141   23.5856 C   0  0  0  0  0  0  0  0  0  0  0  0
    9.0091  -12.6778   23.5263 O   0  0  0  0  0  0  0  0  0  0  0  0
    6.5252  -11.5877   25.8365 C   0  0  0  0  0  0  0  0  0  0  0  0
    6.7959  -12.8429   26.6209 C   0  0  1  0  0  0  0  0  0  0  0  0
    5.6992  -13.6846   26.5937 O   0  0  0  0  0  0  0  0  0  0  0  0
    8.0288  -13.5381   26.0275 C   0  0  2  0  0  0  0  0  0  0  0  0
    7.6968  -14.1695   24.7885 N   0  0  0  0  0  0  0  0  0  0  0  0
    8.4861  -14.5451   27.0300 C   0  0  0  0  0  0  0  0  0  0  0  0
    8.4813  -15.7566   26.7686 O   0  0  0  0  0  0  0  0  0  0  0  0
    8.9165  -14.1069   28.2580 O   0  0  0  0  0  0  0  0  0  0  0  0
  2  1  1  6
  3  2  1  0
  4  5  1  0
  4  3  1  0
  5  6  2  0
  7 10  1  0
  7  2  1  0
  8  7  2  0
  9  5  1  0
 11 12  1  0
 11 10  1  0
 12 18  1  0
 13 12  2  0
 15 16  1  0
 15 14  1  6
 17 15  1  0
 17 18  1  6
 19 17  1  0
 19 21  1  0
 20 19  2  0
M  END
$$$$
