EGT.pdb
     RDKit          3D

 21 20  0  0  1  0  0  0  0  0999 V2000
   10.7025  -16.1780   20.1724 N   0  0  0  0  0  0  0  0  0  0  0  0
    9.8796  -17.3834   20.4728 C   0  0  1  0  0  0  0  0  0  0  0  0
   10.7825  -18.3633   21.1426 C   0  0  0  0  0  0  0  0  0  0  0  0
   11.8340  -17.7023   21.9691 C   0  0  0  0  0  0  0  0  0  0  0  0
   12.6882  -18.7041   22.6267 C   0  0  0  0  0  0  0  0  0  0  0  0
   13.7492  -19.0805   22.0978 O   0  0  0  0  0  0  0  0  0  0  0  0
    8.7917  -16.9782   21.3937 C   0  0  0  0  0  0  0  0  0  0  0  0
    7.8435  -17.7499   21.7076 O   0  0  0  0  0  0  0  0  0  0  0  0
   12.3555  -19.2741   23.8593 O   0  0  0  0  0  0  0  0  0  0  0  0
    8.8421  -15.6477   21.9376 N   0  0  0  0  0  0  0  0  0  0  0  0
    7.8165  -15.2962   22.8775 C   0  0  0  0  0  0  0  0  0  0  0  0
    8.3819  -14.5613   24.0623 C   0  0  0  0  0  0  0  0  0  0  0  0
    9.6300  -14.3473   24.1273 O   0  0  0  0  0  0  0  0  0  0  0  0
    6.5674  -11.3395   25.6547 C   0  0  0  0  0  0  0  0  0  0  0  0
    6.8186  -12.4258   26.6652 C   0  0  1  0  0  0  0  0  0  0  0  0
    5.6693  -13.1603   26.8918 O   0  0  0  0  0  0  0  0  0  0  0  0
    7.9468  -13.3285   26.1476 C   0  0  2  0  0  0  0  0  0  0  0  0
    7.4810  -14.1366   25.0641 N   0  0  0  0  0  0  0  0  0  0  0  0
    8.3848  -14.1790   27.2934 C   0  0  0  0  0  0  0  0  0  0  0  0
    8.2092  -15.4059   27.2838 O   0  0  0  0  0  0  0  0  0  0  0  0
    8.9910  -13.5781   28.3689 O   0  0  0  0  0  0  0  0  0  0  0  0
  2  1  1  1
  3  2  1  0
  4  5  1  0
  4  3  1  0
  5  6  2  0
  7 10  1  0
  7  2  1  0
  8  7  2  0
  9  5  1  0
 11 12  1  0
 11 10  1  0
 12 18  1  0
 13 12  2  0
 15 16  1  0
 15 14  1  6
 17 15  1  0
 17 18  1  6
 19 17  1  0
 19 21  1  0
 20 19  2  0
M  END
$$$$
