EGT.pdb
     RDKit          3D

 21 20  0  0  1  0  0  0  0  0999 V2000
    8.5707  -19.9407   23.2267 N   0  0  0  0  0  0  0  0  0  0  0  0
    7.8561  -20.4658   24.4241 C   0  0  1  0  0  0  0  0  0  0  0  0
    8.8905  -20.7009   25.4723 C   0  0  0  0  0  0  0  0  0  0  0  0
    9.8939  -19.5992   25.5450 C   0  0  0  0  0  0  0  0  0  0  0  0
   10.9484  -19.9166   26.5212 C   0  0  0  0  0  0  0  0  0  0  0  0
   10.7859  -19.6812   27.7318 O   0  0  0  0  0  0  0  0  0  0  0  0
    6.8963  -19.4312   24.8759 C   0  0  0  0  0  0  0  0  0  0  0  0
    5.8197  -19.7153   25.4704 O   0  0  0  0  0  0  0  0  0  0  0  0
   12.1666  -20.4894   26.1433 O   0  0  0  0  0  0  0  0  0  0  0  0
    7.2287  -18.0565   24.6144 N   0  0  0  0  0  0  0  0  0  0  0  0
    6.2871  -17.0697   25.0598 C   0  0  0  0  0  0  0  0  0  0  0  0
    6.7187  -15.6810   24.6738 C   0  0  0  0  0  0  0  0  0  0  0  0
    7.2491  -15.4845   23.5391 O   0  0  0  0  0  0  0  0  0  0  0  0
    5.4843  -11.9154   25.9407 C   0  0  0  0  0  0  0  0  0  0  0  0
    6.7865  -12.4011   26.5172 C   0  0  1  0  0  0  0  0  0  0  0  0
    6.6047  -12.8870   27.7989 O   0  0  0  0  0  0  0  0  0  0  0  0
    7.3556  -13.4911   25.5988 C   0  0  2  0  0  0  0  0  0  0  0  0
    6.5095  -14.6433   25.6092 N   0  0  0  0  0  0  0  0  0  0  0  0
    8.7160  -13.8275   26.1129 C   0  0  0  0  0  0  0  0  0  0  0  0
    8.9465  -14.9228   26.6451 O   0  0  0  0  0  0  0  0  0  0  0  0
    9.7188  -12.8980   25.9869 O   0  0  0  0  0  0  0  0  0  0  0  0
  2  1  1  6
  3  2  1  0
  4  5  1  0
  4  3  1  0
  5  6  2  0
  7 10  1  0
  7  2  1  0
  8  7  2  0
  9  5  1  0
 11 12  1  0
 11 10  1  0
 12 18  1  0
 13 12  2  0
 15 16  1  0
 15 14  1  6
 17 15  1  0
 17 18  1  1
 19 17  1  0
 19 21  1  0
 20 19  2  0
M  END
$$$$
