EGT.pdb
     RDKit          3D

 21 20  0  0  1  0  0  0  0  0999 V2000
    6.7791  -18.3422   19.0739 N   0  0  0  0  0  0  0  0  0  0  0  0
    8.1350  -18.5305   19.6625 C   0  0  1  0  0  0  0  0  0  0  0  0
    9.0978  -18.5522   18.5239 C   0  0  0  0  0  0  0  0  0  0  0  0
    8.4224  -18.4309   17.1992 C   0  0  0  0  0  0  0  0  0  0  0  0
    9.4067  -18.4638   16.1058 C   0  0  0  0  0  0  0  0  0  0  0  0
    9.4581  -19.4312   15.3255 O   0  0  0  0  0  0  0  0  0  0  0  0
    8.4154  -17.3754   20.5473 C   0  0  0  0  0  0  0  0  0  0  0  0
    9.5180  -17.2271   21.1435 O   0  0  0  0  0  0  0  0  0  0  0  0
   10.3191  -17.4262   15.8923 O   0  0  0  0  0  0  0  0  0  0  0  0
    7.3731  -16.3988   20.7161 N   0  0  0  0  0  0  0  0  0  0  0  0
    7.6138  -15.3581   21.6741 C   0  0  0  0  0  0  0  0  0  0  0  0
    7.5687  -15.8837   23.0832 C   0  0  0  0  0  0  0  0  0  0  0  0
    6.5427  -16.5126   23.4828 O   0  0  0  0  0  0  0  0  0  0  0  0
    9.6517  -18.0847   26.5757 C   0  0  0  0  0  0  0  0  0  0  0  0
    9.6661  -17.4641   25.2051 C   0  0  1  0  0  0  0  0  0  0  0  0
    9.2518  -18.3742   24.2500 O   0  0  0  0  0  0  0  0  0  0  0  0
    8.7518  -16.2314   25.2131 C   0  0  2  0  0  0  0  0  0  0  0  0
    8.6901  -15.6482   23.9093 N   0  0  0  0  0  0  0  0  0  0  0  0
    9.3271  -15.2685   26.1980 C   0  0  0  0  0  0  0  0  0  0  0  0
    9.9550  -14.2678   25.8232 O   0  0  0  0  0  0  0  0  0  0  0  0
    9.1496  -15.5086   27.5382 O   0  0  0  0  0  0  0  0  0  0  0  0
  2  1  1  6
  3  2  1  0
  4  5  1  0
  4  3  1  0
  5  6  2  0
  7 10  1  0
  7  2  1  0
  8  7  2  0
  9  5  1  0
 11 12  1  0
 11 10  1  0
 12 18  1  0
 13 12  2  0
 15 16  1  0
 15 14  1  1
 17 15  1  0
 17 18  1  6
 19 17  1  0
 19 21  1  0
 20 19  2  0
M  END
$$$$
