EGT.pdb
     RDKit          3D

 21 20  0  0  1  0  0  0  0  0999 V2000
   10.1431  -14.6195   20.5137 N   0  0  0  0  0  0  0  0  0  0  0  0
   10.8882  -15.8895   20.2852 C   0  0  1  0  0  0  0  0  0  0  0  0
   12.0983  -15.5394   19.4871 C   0  0  0  0  0  0  0  0  0  0  0  0
   12.7171  -14.2522   19.9183 C   0  0  0  0  0  0  0  0  0  0  0  0
   13.9248  -13.9627   19.1289 C   0  0  0  0  0  0  0  0  0  0  0  0
   15.0542  -14.2418   19.5691 O   0  0  0  0  0  0  0  0  0  0  0  0
   11.2858  -16.4320   21.6055 C   0  0  0  0  0  0  0  0  0  0  0  0
   11.9370  -17.5059   21.7316 O   0  0  0  0  0  0  0  0  0  0  0  0
   13.8647  -13.3688   17.8646 O   0  0  0  0  0  0  0  0  0  0  0  0
   10.9023  -15.6858   22.7737 N   0  0  0  0  0  0  0  0  0  0  0  0
   11.2443  -16.2572   24.0447 C   0  0  0  0  0  0  0  0  0  0  0  0
   10.3720  -15.7174   25.1453 C   0  0  0  0  0  0  0  0  0  0  0  0
    9.3750  -14.9908   24.8527 O   0  0  0  0  0  0  0  0  0  0  0  0
    9.3814  -17.7375   28.5260 C   0  0  0  0  0  0  0  0  0  0  0  0
   10.0781  -16.4316   28.7963 C   0  0  1  0  0  0  0  0  0  0  0  0
   11.4111  -16.6401   29.0991 O   0  0  0  0  0  0  0  0  0  0  0  0
    9.9362  -15.5326   27.5605 C   0  0  2  0  0  0  0  0  0  0  0  0
   10.7100  -16.0507   26.4758 N   0  0  0  0  0  0  0  0  0  0  0  0
   10.4153  -14.1743   27.9524 C   0  0  0  0  0  0  0  0  0  0  0  0
   11.4680  -13.7093   27.4922 O   0  0  0  0  0  0  0  0  0  0  0  0
    9.6666  -13.4393   28.8382 O   0  0  0  0  0  0  0  0  0  0  0  0
  2  1  1  1
  3  2  1  0
  4  5  1  0
  4  3  1  0
  5  6  2  0
  7 10  1  0
  7  2  1  0
  8  7  2  0
  9  5  1  0
 11 12  1  0
 11 10  1  0
 12 18  1  0
 13 12  2  0
 15 16  1  0
 15 14  1  6
 17 15  1  0
 17 18  1  6
 19 17  1  0
 19 21  1  0
 20 19  2  0
M  END
$$$$
