EGT.pdb
     RDKit          3D

 21 20  0  0  1  0  0  0  0  0999 V2000
   10.4539  -19.7413   17.5235 N   0  0  0  0  0  0  0  0  0  0  0  0
   11.7419  -19.0030   17.6510 C   0  0  1  0  0  0  0  0  0  0  0  0
   11.9909  -18.3445   16.3363 C   0  0  0  0  0  0  0  0  0  0  0  0
   11.3476  -19.0683   15.2014 C   0  0  0  0  0  0  0  0  0  0  0  0
   11.6710  -18.4222   13.9193 C   0  0  0  0  0  0  0  0  0  0  0  0
   12.6161  -18.8314   13.2217 O   0  0  0  0  0  0  0  0  0  0  0  0
   11.5819  -17.9815   18.7124 C   0  0  0  0  0  0  0  0  0  0  0  0
   12.5328  -17.2463   19.0978 O   0  0  0  0  0  0  0  0  0  0  0  0
   10.9439  -17.3335   13.4286 O   0  0  0  0  0  0  0  0  0  0  0  0
   10.2814  -17.8423   19.3105 N   0  0  0  0  0  0  0  0  0  0  0  0
   10.1365  -16.8211   20.3080 C   0  0  0  0  0  0  0  0  0  0  0  0
   10.5709  -17.3081   21.6637 C   0  0  0  0  0  0  0  0  0  0  0  0
    9.9251  -18.2416   22.2286 O   0  0  0  0  0  0  0  0  0  0  0  0
   13.9481  -16.9408   25.2265 C   0  0  0  0  0  0  0  0  0  0  0  0
   13.4471  -16.3886   23.9195 C   0  0  1  0  0  0  0  0  0  0  0  0
   14.3991  -16.5360   22.9275 O   0  0  0  0  0  0  0  0  0  0  0  0
   12.1511  -17.1183   23.5410 C   0  0  2  0  0  0  0  0  0  0  0  0
   11.6969  -16.6923   22.2541 N   0  0  0  0  0  0  0  0  0  0  0  0
   11.1441  -16.7921   24.5935 C   0  0  0  0  0  0  0  0  0  0  0  0
   10.3436  -15.8574   24.4459 O   0  0  0  0  0  0  0  0  0  0  0  0
   11.1160  -17.5490   25.7388 O   0  0  0  0  0  0  0  0  0  0  0  0
  2  1  1  6
  3  2  1  0
  4  5  1  0
  4  3  1  0
  5  6  2  0
  7 10  1  0
  7  2  1  0
  8  7  2  0
  9  5  1  0
 11 12  1  0
 11 10  1  0
 12 18  1  0
 13 12  2  0
 15 16  1  0
 15 14  1  1
 17 15  1  0
 17 18  1  6
 19 17  1  0
 19 21  1  0
 20 19  2  0
M  END
$$$$
