EGT.pdb
     RDKit          3D

 21 20  0  0  1  0  0  0  0  0999 V2000
    7.9576  -15.9337   18.9531 N   0  0  0  0  0  0  0  0  0  0  0  0
    7.0801  -15.8883   20.1566 C   0  0  1  0  0  0  0  0  0  0  0  0
    6.7946  -17.3028   20.5330 C   0  0  0  0  0  0  0  0  0  0  0  0
    7.5824  -18.2808   19.7276 C   0  0  0  0  0  0  0  0  0  0  0  0
    8.2936  -19.2260   20.6031 C   0  0  0  0  0  0  0  0  0  0  0  0
    9.5046  -19.0794   20.8464 O   0  0  0  0  0  0  0  0  0  0  0  0
    7.8261  -15.2107   21.2429 C   0  0  0  0  0  0  0  0  0  0  0  0
    9.0530  -15.4162   21.4564 O   0  0  0  0  0  0  0  0  0  0  0  0
    7.6541  -20.3188   21.1962 O   0  0  0  0  0  0  0  0  0  0  0  0
    7.0998  -14.2869   22.0722 N   0  0  0  0  0  0  0  0  0  0  0  0
    7.8428  -13.6303   23.1094 C   0  0  0  0  0  0  0  0  0  0  0  0
    8.0635  -14.5373   24.2893 C   0  0  0  0  0  0  0  0  0  0  0  0
    7.3438  -15.5724   24.4247 O   0  0  0  0  0  0  0  0  0  0  0  0
   10.5937  -16.6971   25.0111 C   0  0  0  0  0  0  0  0  0  0  0  0
   10.6931  -15.7382   26.1663 C   0  0  1  0  0  0  0  0  0  0  0  0
   11.7067  -14.8212   25.9569 O   0  0  0  0  0  0  0  0  0  0  0  0
    9.3434  -15.0270   26.3336 C   0  0  2  0  0  0  0  0  0  0  0  0
    9.0793  -14.1879   25.2067 N   0  0  0  0  0  0  0  0  0  0  0  0
    9.4281  -14.2206   27.5869 C   0  0  0  0  0  0  0  0  0  0  0  0
    9.3428  -12.9844   27.5598 O   0  0  0  0  0  0  0  0  0  0  0  0
    9.6034  -14.8731   28.7822 O   0  0  0  0  0  0  0  0  0  0  0  0
  2  1  1  6
  3  2  1  0
  4  5  1  0
  4  3  1  0
  5  6  2  0
  7 10  1  0
  7  2  1  0
  8  7  2  0
  9  5  1  0
 11 12  1  0
 11 10  1  0
 12 18  1  0
 13 12  2  0
 15 16  1  0
 15 14  1  6
 17 15  1  0
 17 18  1  6
 19 17  1  0
 19 21  1  0
 20 19  2  0
M  END
$$$$
