EGT.pdb
     RDKit          3D

 21 20  0  0  1  0  0  0  0  0999 V2000
   11.6973  -17.4903   22.0610 N   0  0  0  0  0  0  0  0  0  0  0  0
   10.4859  -17.0815   21.2956 C   0  0  1  0  0  0  0  0  0  0  0  0
   10.0620  -18.2678   20.4976 C   0  0  0  0  0  0  0  0  0  0  0  0
   10.9901  -18.5595   19.3665 C   0  0  0  0  0  0  0  0  0  0  0  0
   10.5460  -19.7470   18.6192 C   0  0  0  0  0  0  0  0  0  0  0  0
   11.1862  -20.8118   18.6789 O   0  0  0  0  0  0  0  0  0  0  0  0
    9.4300  -16.7160   22.2689 C   0  0  0  0  0  0  0  0  0  0  0  0
    9.2004  -17.3925   23.3095 O   0  0  0  0  0  0  0  0  0  0  0  0
    9.4007  -19.7382   17.8174 O   0  0  0  0  0  0  0  0  0  0  0  0
    8.6504  -15.5392   21.9934 N   0  0  0  0  0  0  0  0  0  0  0  0
    7.6265  -15.2075   22.9423 C   0  0  0  0  0  0  0  0  0  0  0  0
    8.1890  -14.4672   24.1252 C   0  0  0  0  0  0  0  0  0  0  0  0
    9.4459  -14.3764   24.2653 O   0  0  0  0  0  0  0  0  0  0  0  0
    6.4259  -11.0942   25.7469 C   0  0  0  0  0  0  0  0  0  0  0  0
    6.6442  -12.2353   26.7031 C   0  0  1  0  0  0  0  0  0  0  0  0
    5.4771  -12.9545   26.8834 O   0  0  0  0  0  0  0  0  0  0  0  0
    7.7570  -13.1357   26.1495 C   0  0  2  0  0  0  0  0  0  0  0  0
    7.2754  -13.8981   25.0402 N   0  0  0  0  0  0  0  0  0  0  0  0
    8.1863  -14.0325   27.2629 C   0  0  0  0  0  0  0  0  0  0  0  0
    7.9999  -15.2566   27.2071 O   0  0  0  0  0  0  0  0  0  0  0  0
    8.7966  -13.4777   28.3606 O   0  0  0  0  0  0  0  0  0  0  0  0
  2  1  1  1
  3  2  1  0
  4  5  1  0
  4  3  1  0
  5  6  2  0
  7 10  1  0
  7  2  1  0
  8  7  2  0
  9  5  1  0
 11 12  1  0
 11 10  1  0
 12 18  1  0
 13 12  2  0
 15 16  1  0
 15 14  1  6
 17 15  1  0
 17 18  1  6
 19 17  1  0
 19 21  1  0
 20 19  2  0
M  END
$$$$
