EGT.pdb
     RDKit          3D

 21 20  0  0  1  0  0  0  0  0999 V2000
   10.2132  -17.8561   21.3832 N   0  0  0  0  0  0  0  0  0  0  0  0
   10.0266  -16.7246   20.4318 C   0  0  1  0  0  0  0  0  0  0  0  0
    9.4766  -17.3077   19.1742 C   0  0  0  0  0  0  0  0  0  0  0  0
    9.6998  -18.7797   19.0791 C   0  0  0  0  0  0  0  0  0  0  0  0
    9.9415  -19.1825   17.6844 C   0  0  0  0  0  0  0  0  0  0  0  0
    8.9921  -19.4429   16.9241 O   0  0  0  0  0  0  0  0  0  0  0  0
    9.0515  -15.7808   21.0269 C   0  0  0  0  0  0  0  0  0  0  0  0
    8.6445  -14.7511   20.4209 O   0  0  0  0  0  0  0  0  0  0  0  0
   11.2299  -19.2911   17.1523 O   0  0  0  0  0  0  0  0  0  0  0  0
    8.5651  -16.0730   22.3485 N   0  0  0  0  0  0  0  0  0  0  0  0
    7.6266  -15.1442   22.9100 C   0  0  0  0  0  0  0  0  0  0  0  0
    8.1735  -14.4873   24.1482 C   0  0  0  0  0  0  0  0  0  0  0  0
    9.4088  -14.5889   24.4155 O   0  0  0  0  0  0  0  0  0  0  0  0
    6.4106  -11.0412   25.9008 C   0  0  0  0  0  0  0  0  0  0  0  0
    6.6268  -12.2572   26.7602 C   0  0  1  0  0  0  0  0  0  0  0  0
    5.4606  -12.9913   26.8740 O   0  0  0  0  0  0  0  0  0  0  0  0
    7.7446  -13.1063   26.1397 C   0  0  2  0  0  0  0  0  0  0  0  0
    7.2703  -13.7760   24.9691 N   0  0  0  0  0  0  0  0  0  0  0  0
    8.1713  -14.0907   27.1776 C   0  0  0  0  0  0  0  0  0  0  0  0
    8.0169  -15.3085   27.0067 O   0  0  0  0  0  0  0  0  0  0  0  0
    8.7430  -13.6244   28.3356 O   0  0  0  0  0  0  0  0  0  0  0  0
  2  1  1  1
  3  2  1  0
  4  5  1  0
  4  3  1  0
  5  6  2  0
  7 10  1  0
  7  2  1  0
  8  7  2  0
  9  5  1  0
 11 12  1  0
 11 10  1  0
 12 18  1  0
 13 12  2  0
 15 16  1  0
 15 14  1  6
 17 15  1  0
 17 18  1  6
 19 17  1  0
 19 21  1  0
 20 19  2  0
M  END
$$$$
