WWA.pdb
     RDKit          3D

 34 37  0  0  1  0  0  0  0  0999 V2000
    7.1407  -17.3559   20.5395 N   0  0  0  0  0  0  0  0  0  0  0  0
    7.8220  -18.0495   21.5868 C   0  0  1  0  0  0  0  0  0  0  0  0
    8.5844  -19.2481   21.1677 C   0  0  0  0  0  0  0  0  0  0  0  0
    7.9678  -20.5237   21.5107 C   0  0  0  0  0  0  0  0  0  0  0  0
    7.0201  -21.2413   20.8197 C   0  0  0  0  0  0  0  0  0  0  0  0
    6.7162  -22.3684   21.4981 N   0  0  0  0  0  0  0  0  0  0  0  0
    7.4432  -22.3980   22.6108 C   0  0  0  0  0  0  0  0  0  0  0  0
    7.4832  -23.3369   23.6192 C   0  0  0  0  0  0  0  0  0  0  0  0
    8.3335  -23.1381   24.6921 C   0  0  0  0  0  0  0  0  0  0  0  0
    9.1384  -22.0177   24.7650 C   0  0  0  0  0  0  0  0  0  0  0  0
    9.0677  -21.0996   23.7317 C   0  0  0  0  0  0  0  0  0  0  0  0
    8.2323  -21.2628   22.6460 C   0  0  0  0  0  0  0  0  0  0  0  0
    8.6734  -17.0820   22.3211 C   0  0  0  0  0  0  0  0  0  0  0  0
    9.3105  -16.1884   21.6854 O   0  0  0  0  0  0  0  0  0  0  0  0
    8.8368  -17.0795   23.7266 N   0  0  0  0  0  0  0  0  0  0  0  0
    9.7156  -16.1619   24.3922 C   0  0  1  0  0  0  0  0  0  0  0  0
    9.2920  -15.7852   25.7661 C   0  0  0  0  0  0  0  0  0  0  0  0
    7.9704  -15.1496   25.8898 C   0  0  0  0  0  0  0  0  0  0  0  0
    6.7435  -15.8213   25.8402 C   0  0  0  0  0  0  0  0  0  0  0  0
    5.7461  -14.9291   25.9677 N   0  0  0  0  0  0  0  0  0  0  0  0
    6.2651  -13.6845   26.1012 C   0  0  0  0  0  0  0  0  0  0  0  0
    5.7305  -12.4369   26.2686 C   0  0  0  0  0  0  0  0  0  0  0  0
    6.5547  -11.3463   26.3866 C   0  0  0  0  0  0  0  0  0  0  0  0
    7.9107  -11.4597   26.3427 C   0  0  0  0  0  0  0  0  0  0  0  0
    8.4506  -12.7024   26.1752 C   0  0  0  0  0  0  0  0  0  0  0  0
    7.6338  -13.8260   26.0527 C   0  0  0  0  0  0  0  0  0  0  0  0
   11.1366  -16.6398   24.3471 C   0  0  0  0  0  0  0  0  0  0  0  0
   11.4824  -17.7332   24.8652 O   0  0  0  0  0  0  0  0  0  0  0  0
   14.2537  -15.5546   22.5317 C   0  0  0  0  0  0  0  0  0  0  0  0
   13.5098  -16.3470   23.6022 C   0  0  2  0  0  0  0  0  0  0  0  0
   12.1535  -15.8715   23.7123 N   0  0  0  0  0  0  0  0  0  0  0  0
   14.2433  -16.3023   24.8685 C   0  0  0  0  0  0  0  0  0  0  0  0
   13.6965  -15.8590   25.9077 O   0  0  0  0  0  0  0  0  0  0  0  0
   15.5529  -16.7422   24.9700 O   0  0  0  0  0  0  0  0  0  0  0  0
  2  3  1  0
  2  1  1  6
  3  4  1  0
  4  5  2  0
  6  5  1  0
  7  6  1  0
  8  7  2  0
  9  8  1  0
 10  9  2  0
 10 11  1  0
 11 12  2  0
 12  7  1  0
 12  4  1  0
 13 15  1  0
 13  2  1  0
 14 13  2  0
 16 17  1  1
 16 15  1  0
 17 18  1  0
 18 19  2  0
 19 20  1  0
 21 20  1  0
 22 21  2  0
 23 22  1  0
 24 25  1  0
 24 23  2  0
 25 26  2  0
 26 18  1  0
 26 21  1  0
 27 16  1  0
 28 27  2  0
 30 29  1  6
 30 31  1  0
 31 27  1  0
 32 30  1  0
 32 34  1  0
 33 32  2  0
M  END
$$$$
