WWA.pdb
     RDKit          3D

 34 37  0  0  1  0  0  0  0  0999 V2000
    6.1319  -18.1308   23.5578 N   0  0  0  0  0  0  0  0  0  0  0  0
    6.8286  -16.9273   23.8873 C   0  0  1  0  0  0  0  0  0  0  0  0
    7.0375  -16.6866   25.3337 C   0  0  0  0  0  0  0  0  0  0  0  0
    6.4616  -15.4482   25.8433 C   0  0  0  0  0  0  0  0  0  0  0  0
    5.1514  -15.1632   26.1478 C   0  0  0  0  0  0  0  0  0  0  0  0
    5.0504  -13.8891   26.5832 N   0  0  0  0  0  0  0  0  0  0  0  0
    6.2621  -13.3426   26.5678 C   0  0  0  0  0  0  0  0  0  0  0  0
    6.6663  -12.0719   26.9172 C   0  0  0  0  0  0  0  0  0  0  0  0
    8.0040  -11.7364   26.8093 C   0  0  0  0  0  0  0  0  0  0  0  0
    8.9341  -12.6530   26.3589 C   0  0  0  0  0  0  0  0  0  0  0  0
    8.4867  -13.9177   26.0184 C   0  0  0  0  0  0  0  0  0  0  0  0
    7.1614  -14.2893   26.1121 C   0  0  0  0  0  0  0  0  0  0  0  0
    8.1049  -16.8960   23.1321 C   0  0  0  0  0  0  0  0  0  0  0  0
    8.6227  -17.9769   22.7172 O   0  0  0  0  0  0  0  0  0  0  0  0
    8.8157  -15.7107   22.8286 N   0  0  0  0  0  0  0  0  0  0  0  0
   10.0895  -15.7311   22.1697 C   0  0  1  0  0  0  0  0  0  0  0  0
   10.3775  -14.5307   21.3419 C   0  0  0  0  0  0  0  0  0  0  0  0
    9.2719  -14.0332   20.5077 C   0  0  0  0  0  0  0  0  0  0  0  0
    8.2925  -13.1239   20.9235 C   0  0  0  0  0  0  0  0  0  0  0  0
    7.4321  -12.9090   19.9133 N   0  0  0  0  0  0  0  0  0  0  0  0
    7.8037  -13.6434   18.8369 C   0  0  0  0  0  0  0  0  0  0  0  0
    7.3131  -13.8020   17.5702 C   0  0  0  0  0  0  0  0  0  0  0  0
    7.9479  -14.6387   16.6872 C   0  0  0  0  0  0  0  0  0  0  0  0
    9.0691  -15.3309   17.0294 C   0  0  0  0  0  0  0  0  0  0  0  0
    9.5635  -15.1774   18.2926 C   0  0  0  0  0  0  0  0  0  0  0  0
    8.9361  -14.3331   19.2081 C   0  0  0  0  0  0  0  0  0  0  0  0
   11.1966  -16.0340   23.1351 C   0  0  0  0  0  0  0  0  0  0  0  0
   12.3964  -16.1062   22.7626 O   0  0  0  0  0  0  0  0  0  0  0  0
   11.6530  -16.1853   26.8367 C   0  0  0  0  0  0  0  0  0  0  0  0
   11.9580  -16.6892   25.4294 C   0  0  2  0  0  0  0  0  0  0  0  0
   10.9315  -16.2514   24.5171 N   0  0  0  0  0  0  0  0  0  0  0  0
   12.1426  -18.1416   25.4391 C   0  0  0  0  0  0  0  0  0  0  0  0
   13.0200  -18.6687   26.1654 O   0  0  0  0  0  0  0  0  0  0  0  0
   11.3663  -18.9818   24.6579 O   0  0  0  0  0  0  0  0  0  0  0  0
  2  3  1  0
  2  1  1  1
  3  4  1  0
  4  5  2  0
  6  5  1  0
  7  6  1  0
  8  7  2  0
  9  8  1  0
 10  9  2  0
 10 11  1  0
 11 12  2  0
 12  7  1  0
 12  4  1  0
 13 15  1  0
 13  2  1  0
 14 13  2  0
 16 17  1  1
 16 15  1  0
 17 18  1  0
 18 19  2  0
 19 20  1  0
 21 20  1  0
 22 21  2  0
 23 22  1  0
 24 25  1  0
 24 23  2  0
 25 26  2  0
 26 18  1  0
 26 21  1  0
 27 16  1  0
 28 27  2  0
 30 29  1  1
 30 31  1  0
 31 27  1  0
 32 30  1  0
 32 34  1  0
 33 32  2  0
M  END
$$$$
