WWA.pdb
     RDKit          3D

 34 37  0  0  1  0  0  0  0  0999 V2000
   11.0881  -17.1652   21.2486 N   0  0  0  0  0  0  0  0  0  0  0  0
   10.0567  -16.5871   22.0514 C   0  0  1  0  0  0  0  0  0  0  0  0
    8.7100  -17.1807   21.8845 C   0  0  0  0  0  0  0  0  0  0  0  0
    7.7122  -16.2938   21.2990 C   0  0  0  0  0  0  0  0  0  0  0  0
    6.3975  -16.5527   20.9908 C   0  0  0  0  0  0  0  0  0  0  0  0
    5.8292  -15.4524   20.4531 N   0  0  0  0  0  0  0  0  0  0  0  0
    6.7431  -14.4881   20.4054 C   0  0  0  0  0  0  0  0  0  0  0  0
    6.6437  -13.1944   19.9402 C   0  0  0  0  0  0  0  0  0  0  0  0
    7.7539  -12.3710   19.9954 C   0  0  0  0  0  0  0  0  0  0  0  0
    8.9534  -12.8259   20.5079 C   0  0  0  0  0  0  0  0  0  0  0  0
    9.0106  -14.1313   20.9643 C   0  0  0  0  0  0  0  0  0  0  0  0
    7.9254  -14.9822   20.9254 C   0  0  0  0  0  0  0  0  0  0  0  0
   10.4947  -16.6006   23.4685 C   0  0  0  0  0  0  0  0  0  0  0  0
   11.4914  -17.3030   23.8173 O   0  0  0  0  0  0  0  0  0  0  0  0
    9.8629  -15.8648   24.4988 N   0  0  0  0  0  0  0  0  0  0  0  0
   10.2898  -15.9431   25.8659 C   0  0  1  0  0  0  0  0  0  0  0  0
    9.7747  -14.8558   26.7385 C   0  0  0  0  0  0  0  0  0  0  0  0
    8.3675  -14.4727   26.5413 C   0  0  0  0  0  0  0  0  0  0  0  0
    7.3072  -15.3655   26.3467 C   0  0  0  0  0  0  0  0  0  0  0  0
    6.1687  -14.6699   26.1824 N   0  0  0  0  0  0  0  0  0  0  0  0
    6.4324  -13.3431   26.2612 C   0  0  0  0  0  0  0  0  0  0  0  0
    5.6723  -12.2091   26.1790 C   0  0  0  0  0  0  0  0  0  0  0  0
    6.2595  -10.9767   26.3169 C   0  0  0  0  0  0  0  0  0  0  0  0
    7.5956  -10.8357   26.5366 C   0  0  0  0  0  0  0  0  0  0  0  0
    8.3600  -11.9638   26.6191 C   0  0  0  0  0  0  0  0  0  0  0  0
    7.7865  -13.2275   26.4821 C   0  0  0  0  0  0  0  0  0  0  0  0
   10.0287  -17.3038   26.4403 C   0  0  0  0  0  0  0  0  0  0  0  0
   10.3668  -17.6006   27.6155 O   0  0  0  0  0  0  0  0  0  0  0  0
    7.7882  -20.1379   25.4729 C   0  0  0  0  0  0  0  0  0  0  0  0
    8.9583  -19.5612   26.2638 C   0  0  2  0  0  0  0  0  0  0  0  0
    9.3841  -18.3165   25.6746 N   0  0  0  0  0  0  0  0  0  0  0  0
   10.0341  -20.5484   26.3715 C   0  0  0  0  0  0  0  0  0  0  0  0
    9.8401  -21.6428   26.9547 O   0  0  0  0  0  0  0  0  0  0  0  0
   11.2927  -20.3183   25.8407 O   0  0  0  0  0  0  0  0  0  0  0  0
  2  3  1  0
  2  1  1  6
  3  4  1  0
  4  5  2  0
  6  5  1  0
  7  6  1  0
  8  7  2  0
  9  8  1  0
 10  9  2  0
 10 11  1  0
 11 12  2  0
 12  7  1  0
 12  4  1  0
 13 15  1  0
 13  2  1  0
 14 13  2  0
 16 17  1  1
 16 15  1  0
 17 18  1  0
 18 19  2  0
 19 20  1  0
 21 20  1  0
 22 21  2  0
 23 22  1  0
 24 25  1  0
 24 23  2  0
 25 26  2  0
 26 18  1  0
 26 21  1  0
 27 16  1  0
 28 27  2  0
 30 29  1  6
 30 31  1  0
 31 27  1  0
 32 30  1  0
 32 34  1  0
 33 32  2  0
M  END
$$$$
