WWA.pdb
     RDKit          3D

 34 37  0  0  1  0  0  0  0  0999 V2000
    9.7799  -20.8363   27.3564 N   0  0  0  0  0  0  0  0  0  0  0  0
    9.5918  -19.4269   27.2134 C   0  0  1  0  0  0  0  0  0  0  0  0
   10.8011  -18.5975   27.4216 C   0  0  0  0  0  0  0  0  0  0  0  0
   10.7268  -17.6671   28.5413 C   0  0  0  0  0  0  0  0  0  0  0  0
   10.9384  -17.9032   29.8793 C   0  0  0  0  0  0  0  0  0  0  0  0
   10.7569  -16.7628   30.5787 N   0  0  0  0  0  0  0  0  0  0  0  0
   10.4329  -15.7947   29.7271 C   0  0  0  0  0  0  0  0  0  0  0  0
   10.1497  -14.4660   29.9609 C   0  0  0  0  0  0  0  0  0  0  0  0
    9.8319  -13.6465   28.8928 C   0  0  0  0  0  0  0  0  0  0  0  0
    9.7952  -14.1395   27.6029 C   0  0  0  0  0  0  0  0  0  0  0  0
   10.0858  -15.4791   27.4117 C   0  0  0  0  0  0  0  0  0  0  0  0
   10.4066  -16.3275   28.4512 C   0  0  0  0  0  0  0  0  0  0  0  0
    8.9611  -19.1636   25.8969 C   0  0  0  0  0  0  0  0  0  0  0  0
    9.2458  -19.8943   24.9001 O   0  0  0  0  0  0  0  0  0  0  0  0
    8.0337  -18.1219   25.6582 N   0  0  0  0  0  0  0  0  0  0  0  0
    7.4750  -17.8790   24.3597 C   0  0  1  0  0  0  0  0  0  0  0  0
    6.3315  -16.9297   24.3456 C   0  0  0  0  0  0  0  0  0  0  0  0
    6.6409  -15.5416   23.9673 C   0  0  0  0  0  0  0  0  0  0  0  0
    7.0492  -15.1230   22.6956 C   0  0  0  0  0  0  0  0  0  0  0  0
    7.2619  -13.7958   22.7147 N   0  0  0  0  0  0  0  0  0  0  0  0
    7.0091  -13.3137   23.9556 C   0  0  0  0  0  0  0  0  0  0  0  0
    7.0505  -12.0720   24.5273 C   0  0  0  0  0  0  0  0  0  0  0  0
    6.7136  -11.9118   25.8477 C   0  0  0  0  0  0  0  0  0  0  0  0
    6.3323  -12.9614   26.6265 C   0  0  0  0  0  0  0  0  0  0  0  0
    6.2896  -14.2036   26.0619 C   0  0  0  0  0  0  0  0  0  0  0  0
    6.6274  -14.3918   24.7221 C   0  0  0  0  0  0  0  0  0  0  0  0
    8.5385  -17.5015   23.3717 C   0  0  0  0  0  0  0  0  0  0  0  0
    8.4399  -17.7932   22.1516 O   0  0  0  0  0  0  0  0  0  0  0  0
   11.1167  -15.0234   22.8961 C   0  0  0  0  0  0  0  0  0  0  0  0
   10.7819  -16.5114   22.8621 C   0  0  2  0  0  0  0  0  0  0  0  0
    9.7055  -16.7942   23.7782 N   0  0  0  0  0  0  0  0  0  0  0  0
   11.9834  -17.3082   23.1172 C   0  0  0  0  0  0  0  0  0  0  0  0
   13.0313  -17.1129   22.4547 O   0  0  0  0  0  0  0  0  0  0  0  0
   12.0123  -18.2963   24.0876 O   0  0  0  0  0  0  0  0  0  0  0  0
  2  3  1  0
  2  1  1  6
  3  4  1  0
  4  5  2  0
  6  5  1  0
  7  6  1  0
  8  7  2  0
  9  8  1  0
 10  9  2  0
 10 11  1  0
 11 12  2  0
 12  7  1  0
 12  4  1  0
 13 15  1  0
 13  2  1  0
 14 13  2  0
 16 17  1  1
 16 15  1  0
 17 18  1  0
 18 19  2  0
 19 20  1  0
 21 20  1  0
 22 21  2  0
 23 22  1  0
 24 25  1  0
 24 23  2  0
 25 26  2  0
 26 18  1  0
 26 21  1  0
 27 16  1  0
 28 27  2  0
 30 29  1  1
 30 31  1  0
 31 27  1  0
 32 30  1  0
 32 34  1  0
 33 32  2  0
M  END
$$$$
