WWA.pdb
     RDKit          3D

 34 37  0  0  1  0  0  0  0  0999 V2000
    7.7316  -17.8128   26.4609 N   0  0  0  0  0  0  0  0  0  0  0  0
    7.8059  -16.7989   25.4565 C   0  0  1  0  0  0  0  0  0  0  0  0
    8.8828  -15.7983   25.6383 C   0  0  0  0  0  0  0  0  0  0  0  0
    8.6115  -14.7738   26.6391 C   0  0  0  0  0  0  0  0  0  0  0  0
    9.1479  -14.6278   27.8967 C   0  0  0  0  0  0  0  0  0  0  0  0
    8.6123  -13.5446   28.4989 N   0  0  0  0  0  0  0  0  0  0  0  0
    7.7426  -12.9861   27.6627 C   0  0  0  0  0  0  0  0  0  0  0  0
    6.9487  -11.8708   27.8234 C   0  0  0  0  0  0  0  0  0  0  0  0
    6.1103  -11.4858   26.7926 C   0  0  0  0  0  0  0  0  0  0  0  0
    6.0592  -12.2005   25.6115 C   0  0  0  0  0  0  0  0  0  0  0  0
    6.8723  -13.3139   25.4910 C   0  0  0  0  0  0  0  0  0  0  0  0
    7.7208  -13.7291   26.4964 C   0  0  0  0  0  0  0  0  0  0  0  0
    7.8777  -17.4524   24.1269 C   0  0  0  0  0  0  0  0  0  0  0  0
    8.1815  -18.6807   24.0399 O   0  0  0  0  0  0  0  0  0  0  0  0
    7.6256  -16.7873   22.9037 N   0  0  0  0  0  0  0  0  0  0  0  0
    7.6749  -17.4654   21.6408 C   0  0  1  0  0  0  0  0  0  0  0  0
    6.8201  -16.8664   20.5828 C   0  0  0  0  0  0  0  0  0  0  0  0
    7.3479  -15.6618   19.9223 C   0  0  0  0  0  0  0  0  0  0  0  0
    7.7158  -15.5753   18.5747 C   0  0  0  0  0  0  0  0  0  0  0  0
    8.1717  -14.3366   18.3200 N   0  0  0  0  0  0  0  0  0  0  0  0
    8.1203  -13.5928   19.4515 C   0  0  0  0  0  0  0  0  0  0  0  0
    8.4402  -12.3001   19.7631 C   0  0  0  0  0  0  0  0  0  0  0  0
    8.2537  -11.8348   21.0403 C   0  0  0  0  0  0  0  0  0  0  0  0
    7.7528  -12.6252   22.0292 C   0  0  0  0  0  0  0  0  0  0  0  0
    7.4321  -13.9167   21.7247 C   0  0  0  0  0  0  0  0  0  0  0  0
    7.6127  -14.4129   20.4341 C   0  0  0  0  0  0  0  0  0  0  0  0
    9.0899  -17.6622   21.1839 C   0  0  0  0  0  0  0  0  0  0  0  0
    9.3752  -18.4347   20.2324 O   0  0  0  0  0  0  0  0  0  0  0  0
   12.1833  -15.7928   21.1442 C   0  0  0  0  0  0  0  0  0  0  0  0
   11.5341  -17.1530   21.3808 C   0  0  2  0  0  0  0  0  0  0  0  0
   10.1697  -16.9783   21.8113 N   0  0  0  0  0  0  0  0  0  0  0  0
   12.3386  -17.9441   22.3138 C   0  0  0  0  0  0  0  0  0  0  0  0
   11.8291  -18.4048   23.3642 O   0  0  0  0  0  0  0  0  0  0  0  0
   13.6768  -18.2133   22.0780 O   0  0  0  0  0  0  0  0  0  0  0  0
  2  3  1  0
  2  1  1  1
  3  4  1  0
  4  5  2  0
  6  5  1  0
  7  6  1  0
  8  7  2  0
  9  8  1  0
 10  9  2  0
 10 11  1  0
 11 12  2  0
 12  7  1  0
 12  4  1  0
 13 15  1  0
 13  2  1  0
 14 13  2  0
 16 17  1  6
 16 15  1  0
 17 18  1  0
 18 19  2  0
 19 20  1  0
 21 20  1  0
 22 21  2  0
 23 22  1  0
 24 25  1  0
 24 23  2  0
 25 26  2  0
 26 18  1  0
 26 21  1  0
 27 16  1  0
 28 27  2  0
 30 29  1  1
 30 31  1  0
 31 27  1  0
 32 30  1  0
 32 34  1  0
 33 32  2  0
M  END
$$$$
