WWA.pdb
     RDKit          3D

 34 37  0  0  1  0  0  0  0  0999 V2000
    8.7542  -17.3490   22.0683 N   0  0  0  0  0  0  0  0  0  0  0  0
    9.0427  -15.9795   22.3571 C   0  0  1  0  0  0  0  0  0  0  0  0
    7.9251  -15.0323   22.1394 C   0  0  0  0  0  0  0  0  0  0  0  0
    7.4999  -14.8867   20.7527 C   0  0  0  0  0  0  0  0  0  0  0  0
    6.5497  -15.5980   20.0587 C   0  0  0  0  0  0  0  0  0  0  0  0
    6.4762  -15.1443   18.7892 N   0  0  0  0  0  0  0  0  0  0  0  0
    7.3551  -14.1575   18.6442 C   0  0  0  0  0  0  0  0  0  0  0  0
    7.6507  -13.3886   17.5390 C   0  0  0  0  0  0  0  0  0  0  0  0
    8.6232  -12.4099   17.6392 C   0  0  0  0  0  0  0  0  0  0  0  0
    9.2974  -12.1945   18.8255 C   0  0  0  0  0  0  0  0  0  0  0  0
    8.9704  -12.9883   19.9111 C   0  0  0  0  0  0  0  0  0  0  0  0
    8.0072  -13.9741   19.8499 C   0  0  0  0  0  0  0  0  0  0  0  0
    9.5832  -15.8890   23.7354 C   0  0  0  0  0  0  0  0  0  0  0  0
   10.2630  -14.8767   24.0846 O   0  0  0  0  0  0  0  0  0  0  0  0
    9.3933  -16.8809   24.7265 N   0  0  0  0  0  0  0  0  0  0  0  0
    9.9845  -16.7823   26.0295 C   0  0  1  0  0  0  0  0  0  0  0  0
    9.0129  -16.5855   27.1369 C   0  0  0  0  0  0  0  0  0  0  0  0
    7.8486  -15.7359   26.8396 C   0  0  0  0  0  0  0  0  0  0  0  0
    6.5758  -16.2029   26.4919 C   0  0  0  0  0  0  0  0  0  0  0  0
    5.7651  -15.1533   26.2722 N   0  0  0  0  0  0  0  0  0  0  0  0
    6.4530  -14.0013   26.4618 C   0  0  0  0  0  0  0  0  0  0  0  0
    6.1357  -12.6731   26.3867 C   0  0  0  0  0  0  0  0  0  0  0  0
    7.0877  -11.7229   26.6579 C   0  0  0  0  0  0  0  0  0  0  0  0
    8.3607  -12.0570   27.0058 C   0  0  0  0  0  0  0  0  0  0  0  0
    8.6839  -13.3812   27.0819 C   0  0  0  0  0  0  0  0  0  0  0  0
    7.7341  -14.3655   26.8108 C   0  0  0  0  0  0  0  0  0  0  0  0
   10.9193  -17.9258   26.2908 C   0  0  0  0  0  0  0  0  0  0  0  0
   11.5058  -18.0600   27.3960 O   0  0  0  0  0  0  0  0  0  0  0  0
   11.8880  -21.0910   24.4937 C   0  0  0  0  0  0  0  0  0  0  0  0
   12.1280  -19.9733   25.5039 C   0  0  2  0  0  0  0  0  0  0  0  0
   11.1791  -18.9088   25.2940 N   0  0  0  0  0  0  0  0  0  0  0  0
   13.5211  -19.5267   25.4456 C   0  0  0  0  0  0  0  0  0  0  0  0
   14.4506  -20.2854   25.8140 O   0  0  0  0  0  0  0  0  0  0  0  0
   13.8654  -18.2657   24.9869 O   0  0  0  0  0  0  0  0  0  0  0  0
  2  3  1  0
  2  1  1  1
  3  4  1  0
  4  5  2  0
  6  5  1  0
  7  6  1  0
  8  7  2  0
  9  8  1  0
 10  9  2  0
 10 11  1  0
 11 12  2  0
 12  7  1  0
 12  4  1  0
 13 15  1  0
 13  2  1  0
 14 13  2  0
 16 17  1  1
 16 15  1  0
 17 18  1  0
 18 19  2  0
 19 20  1  0
 21 20  1  0
 22 21  2  0
 23 22  1  0
 24 25  1  0
 24 23  2  0
 25 26  2  0
 26 18  1  0
 26 21  1  0
 27 16  1  0
 28 27  2  0
 30 29  1  6
 30 31  1  0
 31 27  1  0
 32 30  1  0
 32 34  1  0
 33 32  2  0
M  END
$$$$
