WWA.pdb
     RDKit          3D

 34 37  0  0  1  0  0  0  0  0999 V2000
    6.3856  -18.5211   25.1282 N   0  0  0  0  0  0  0  0  0  0  0  0
    7.0264  -17.2670   24.8856 C   0  0  1  0  0  0  0  0  0  0  0  0
    7.2987  -16.4464   26.0882 C   0  0  0  0  0  0  0  0  0  0  0  0
    6.4496  -15.2712   26.2394 C   0  0  0  0  0  0  0  0  0  0  0  0
    5.0807  -15.1995   26.3458 C   0  0  0  0  0  0  0  0  0  0  0  0
    4.6983  -13.9098   26.4610 N   0  0  0  0  0  0  0  0  0  0  0  0
    5.7854  -13.1451   26.4317 C   0  0  0  0  0  0  0  0  0  0  0  0
    5.9078  -11.7745   26.5115 C   0  0  0  0  0  0  0  0  0  0  0  0
    7.1675  -11.2056   26.4534 C   0  0  0  0  0  0  0  0  0  0  0  0
    8.2972  -11.9890   26.3175 C   0  0  0  0  0  0  0  0  0  0  0  0
    8.1303  -13.3608   26.2409 C   0  0  0  0  0  0  0  0  0  0  0  0
    6.8910  -13.9645   26.2948 C   0  0  0  0  0  0  0  0  0  0  0  0
    8.2557  -17.5080   24.0913 C   0  0  0  0  0  0  0  0  0  0  0  0
    8.7515  -18.6737   24.0286 O   0  0  0  0  0  0  0  0  0  0  0  0
    8.9436  -16.5015   23.3730 N   0  0  0  0  0  0  0  0  0  0  0  0
   10.1815  -16.7571   22.6951 C   0  0  1  0  0  0  0  0  0  0  0  0
   10.4207  -15.9050   21.5011 C   0  0  0  0  0  0  0  0  0  0  0  0
    9.2311  -15.5230   20.7236 C   0  0  0  0  0  0  0  0  0  0  0  0
    8.3990  -16.4109   20.0320 C   0  0  0  0  0  0  0  0  0  0  0  0
    7.4242  -15.7167   19.4198 N   0  0  0  0  0  0  0  0  0  0  0  0
    7.5766  -14.3955   19.6793 C   0  0  0  0  0  0  0  0  0  0  0  0
    6.8886  -13.2657   19.3318 C   0  0  0  0  0  0  0  0  0  0  0  0
    7.3087  -12.0396   19.7821 C   0  0  0  0  0  0  0  0  0  0  0  0
    8.4052  -11.9008   20.5770 C   0  0  0  0  0  0  0  0  0  0  0  0
    9.0966  -13.0248   20.9270 C   0  0  0  0  0  0  0  0  0  0  0  0
    8.6896  -14.2820   20.4818 C   0  0  0  0  0  0  0  0  0  0  0  0
   11.3387  -16.7356   23.6491 C   0  0  0  0  0  0  0  0  0  0  0  0
   12.5154  -16.9628   23.2652 O   0  0  0  0  0  0  0  0  0  0  0  0
   11.9889  -15.5350   27.1190 C   0  0  0  0  0  0  0  0  0  0  0  0
   12.2367  -16.5154   25.9767 C   0  0  2  0  0  0  0  0  0  0  0  0
   11.1497  -16.4545   25.0321 N   0  0  0  0  0  0  0  0  0  0  0  0
   12.4703  -17.8610   26.5042 C   0  0  0  0  0  0  0  0  0  0  0  0
   11.7519  -18.8234   26.1393 O   0  0  0  0  0  0  0  0  0  0  0  0
   13.4807  -18.1235   27.4148 O   0  0  0  0  0  0  0  0  0  0  0  0
  2  3  1  0
  2  1  1  1
  3  4  1  0
  4  5  2  0
  6  5  1  0
  7  6  1  0
  8  7  2  0
  9  8  1  0
 10  9  2  0
 10 11  1  0
 11 12  2  0
 12  7  1  0
 12  4  1  0
 13 15  1  0
 13  2  1  0
 14 13  2  0
 16 17  1  6
 16 15  1  0
 17 18  1  0
 18 19  2  0
 19 20  1  0
 21 20  1  0
 22 21  2  0
 23 22  1  0
 24 25  1  0
 24 23  2  0
 25 26  2  0
 26 18  1  0
 26 21  1  0
 27 16  1  0
 28 27  2  0
 30 29  1  1
 30 31  1  0
 31 27  1  0
 32 30  1  0
 32 34  1  0
 33 32  2  0
M  END
$$$$
