WWA.pdb
     RDKit          3D

 34 37  0  0  1  0  0  0  0  0999 V2000
    8.7549  -17.1804   22.0961 N   0  0  0  0  0  0  0  0  0  0  0  0
    9.0906  -15.8192   22.3731 C   0  0  1  0  0  0  0  0  0  0  0  0
    8.0311  -14.8276   22.0766 C   0  0  0  0  0  0  0  0  0  0  0  0
    7.5926  -14.7889   20.6869 C   0  0  0  0  0  0  0  0  0  0  0  0
    6.6914  -15.6013   20.0400 C   0  0  0  0  0  0  0  0  0  0  0  0
    6.5829  -15.2252   18.7479 N   0  0  0  0  0  0  0  0  0  0  0  0
    7.3914  -14.1900   18.5423 C   0  0  0  0  0  0  0  0  0  0  0  0
    7.6299  -13.4654   17.3942 C   0  0  0  0  0  0  0  0  0  0  0  0
    8.5330  -12.4183   17.4333 C   0  0  0  0  0  0  0  0  0  0  0  0
    9.1945  -12.0914   18.6012 C   0  0  0  0  0  0  0  0  0  0  0  0
    8.9263  -12.8441   19.7313 C   0  0  0  0  0  0  0  0  0  0  0  0
    8.0330  -13.8954   19.7315 C   0  0  0  0  0  0  0  0  0  0  0  0
    9.5606  -15.7226   23.7766 C   0  0  0  0  0  0  0  0  0  0  0  0
   10.1258  -14.6630   24.1844 O   0  0  0  0  0  0  0  0  0  0  0  0
    9.4233  -16.7591   24.7300 N   0  0  0  0  0  0  0  0  0  0  0  0
    9.9649  -16.6562   26.0541 C   0  0  1  0  0  0  0  0  0  0  0  0
    8.9479  -16.5412   27.1318 C   0  0  0  0  0  0  0  0  0  0  0  0
    7.7472  -15.7518   26.8138 C   0  0  0  0  0  0  0  0  0  0  0  0
    6.5126  -16.2820   26.4219 C   0  0  0  0  0  0  0  0  0  0  0  0
    5.6516  -15.2750   26.1948 N   0  0  0  0  0  0  0  0  0  0  0  0
    6.2689  -14.0903   26.4223 C   0  0  0  0  0  0  0  0  0  0  0  0
    5.8808  -12.7805   26.3584 C   0  0  0  0  0  0  0  0  0  0  0  0
    6.7705  -11.7841   26.6720 C   0  0  0  0  0  0  0  0  0  0  0  0
    8.0498  -12.0537   27.0518 C   0  0  0  0  0  0  0  0  0  0  0  0
    8.4436  -13.3593   27.1168 C   0  0  0  0  0  0  0  0  0  0  0  0
    7.5578  -14.3895   26.8028 C   0  0  0  0  0  0  0  0  0  0  0  0
   10.9560  -17.7494   26.3230 C   0  0  0  0  0  0  0  0  0  0  0  0
   11.4587  -17.9190   27.4641 O   0  0  0  0  0  0  0  0  0  0  0  0
   12.0189  -20.9050   24.6925 C   0  0  0  0  0  0  0  0  0  0  0  0
   12.3510  -19.6699   25.5242 C   0  0  2  0  0  0  0  0  0  0  0  0
   11.3670  -18.6423   25.2929 N   0  0  0  0  0  0  0  0  0  0  0  0
   13.7213  -19.2302   25.2553 C   0  0  0  0  0  0  0  0  0  0  0  0
   14.6961  -19.9664   25.5433 O   0  0  0  0  0  0  0  0  0  0  0  0
   13.9941  -18.0003   24.6792 O   0  0  0  0  0  0  0  0  0  0  0  0
  2  3  1  0
  2  1  1  1
  3  4  1  0
  4  5  2  0
  6  5  1  0
  7  6  1  0
  8  7  2  0
  9  8  1  0
 10  9  2  0
 10 11  1  0
 11 12  2  0
 12  7  1  0
 12  4  1  0
 13 15  1  0
 13  2  1  0
 14 13  2  0
 16 17  1  1
 16 15  1  0
 17 18  1  0
 18 19  2  0
 19 20  1  0
 21 20  1  0
 22 21  2  0
 23 22  1  0
 24 25  1  0
 24 23  2  0
 25 26  2  0
 26 18  1  0
 26 21  1  0
 27 16  1  0
 28 27  2  0
 30 29  1  6
 30 31  1  0
 31 27  1  0
 32 30  1  0
 32 34  1  0
 33 32  2  0
M  END
$$$$
