WWA.pdb
     RDKit          3D

 34 37  0  0  1  0  0  0  0  0999 V2000
   10.4944  -17.1513   21.5335 N   0  0  0  0  0  0  0  0  0  0  0  0
    9.9235  -16.3054   22.5339 C   0  0  1  0  0  0  0  0  0  0  0  0
    8.4442  -16.3117   22.6066 C   0  0  0  0  0  0  0  0  0  0  0  0
    7.7655  -15.7842   21.4293 C   0  0  0  0  0  0  0  0  0  0  0  0
    7.0077  -16.4502   20.4952 C   0  0  0  0  0  0  0  0  0  0  0  0
    6.5706  -15.5818   19.5583 N   0  0  0  0  0  0  0  0  0  0  0  0
    7.0269  -14.3708   19.8624 C   0  0  0  0  0  0  0  0  0  0  0  0
    6.8532  -13.1684   19.2112 C   0  0  0  0  0  0  0  0  0  0  0  0
    7.4405  -12.0290   19.7314 C   0  0  0  0  0  0  0  0  0  0  0  0
    8.1939  -12.0806   20.8881 C   0  0  0  0  0  0  0  0  0  0  0  0
    8.3435  -13.3076   21.5108 C   0  0  0  0  0  0  0  0  0  0  0  0
    7.7738  -14.4652   21.0225 C   0  0  0  0  0  0  0  0  0  0  0  0
   10.5424  -16.6327   23.8416 C   0  0  0  0  0  0  0  0  0  0  0  0
   11.0393  -17.7830   24.0375 O   0  0  0  0  0  0  0  0  0  0  0  0
   10.6231  -15.7286   24.9270 N   0  0  0  0  0  0  0  0  0  0  0  0
    9.8019  -15.8620   26.0954 C   0  0  1  0  0  0  0  0  0  0  0  0
    8.3935  -16.2493   25.8211 C   0  0  0  0  0  0  0  0  0  0  0  0
    7.4144  -15.1520   25.7661 C   0  0  0  0  0  0  0  0  0  0  0  0
    6.0905  -15.2722   25.3281 C   0  0  0  0  0  0  0  0  0  0  0  0
    5.4926  -14.0701   25.3942 N   0  0  0  0  0  0  0  0  0  0  0  0
    6.3718  -13.1512   25.8618 C   0  0  0  0  0  0  0  0  0  0  0  0
    6.3046  -11.8122   26.1319 C   0  0  0  0  0  0  0  0  0  0  0  0
    7.4039  -11.1544   26.6234 C   0  0  0  0  0  0  0  0  0  0  0  0
    8.5821  -11.7950   26.8574 C   0  0  0  0  0  0  0  0  0  0  0  0
    8.6558  -13.1316   26.5892 C   0  0  0  0  0  0  0  0  0  0  0  0
    7.5524  -13.8221   26.0890 C   0  0  0  0  0  0  0  0  0  0  0  0
   10.4474  -16.7526   27.1152 C   0  0  0  0  0  0  0  0  0  0  0  0
    9.9949  -16.8530   28.2851 O   0  0  0  0  0  0  0  0  0  0  0  0
   12.6487  -17.5587   28.9895 C   0  0  0  0  0  0  0  0  0  0  0  0
   12.2390  -18.3762   27.7683 C   0  0  2  0  0  0  0  0  0  0  0  0
   11.6017  -17.5231   26.7969 N   0  0  0  0  0  0  0  0  0  0  0  0
   11.4096  -19.5127   28.1731 C   0  0  0  0  0  0  0  0  0  0  0  0
   10.2391  -19.6362   27.7371 O   0  0  0  0  0  0  0  0  0  0  0  0
   11.8768  -20.4854   29.0417 O   0  0  0  0  0  0  0  0  0  0  0  0
  2  3  1  0
  2  1  1  6
  3  4  1  0
  4  5  2  0
  6  5  1  0
  7  6  1  0
  8  7  2  0
  9  8  1  0
 10  9  2  0
 10 11  1  0
 11 12  2  0
 12  7  1  0
 12  4  1  0
 13 15  1  0
 13  2  1  0
 14 13  2  0
 16 17  1  6
 16 15  1  0
 17 18  1  0
 18 19  2  0
 19 20  1  0
 21 20  1  0
 22 21  2  0
 23 22  1  0
 24 25  1  0
 24 23  2  0
 25 26  2  0
 26 18  1  0
 26 21  1  0
 27 16  1  0
 28 27  2  0
 30 29  1  1
 30 31  1  0
 31 27  1  0
 32 30  1  0
 32 34  1  0
 33 32  2  0
M  END
$$$$
