WWA.pdb
     RDKit          3D

 34 37  0  0  1  0  0  0  0  0999 V2000
    7.6900  -19.0362   27.1669 N   0  0  0  0  0  0  0  0  0  0  0  0
    7.9431  -17.7552   26.5862 C   0  0  1  0  0  0  0  0  0  0  0  0
    9.2871  -17.1903   26.8477 C   0  0  0  0  0  0  0  0  0  0  0  0
    9.3002  -15.9721   27.6481 C   0  0  0  0  0  0  0  0  0  0  0  0
    9.8489  -15.7578   28.8905 C   0  0  0  0  0  0  0  0  0  0  0  0
    9.6259  -14.4828   29.2746 N   0  0  0  0  0  0  0  0  0  0  0  0
    8.9466  -13.8668   28.3121 C   0  0  0  0  0  0  0  0  0  0  0  0
    8.4865  -12.5693   28.2425 C   0  0  0  0  0  0  0  0  0  0  0  0
    7.7910  -12.1600   27.1189 C   0  0  0  0  0  0  0  0  0  0  0  0
    7.5534  -13.0297   26.0722 C   0  0  0  0  0  0  0  0  0  0  0  0
    8.0323  -14.3236   26.1822 C   0  0  0  0  0  0  0  0  0  0  0  0
    8.7294  -14.7686   27.2864 C   0  0  0  0  0  0  0  0  0  0  0  0
    7.6460  -17.8251   25.1346 C   0  0  0  0  0  0  0  0  0  0  0  0
    7.8408  -18.9053   24.4991 O   0  0  0  0  0  0  0  0  0  0  0  0
    7.1451  -16.7406   24.3764 N   0  0  0  0  0  0  0  0  0  0  0  0
    7.1346  -16.7511   22.9422 C   0  0  1  0  0  0  0  0  0  0  0  0
    6.3063  -15.6846   22.3213 C   0  0  0  0  0  0  0  0  0  0  0  0
    6.5948  -15.3719   20.9125 C   0  0  0  0  0  0  0  0  0  0  0  0
    6.2490  -16.1753   19.8198 C   0  0  0  0  0  0  0  0  0  0  0  0
    6.6833  -15.5930   18.6887 N   0  0  0  0  0  0  0  0  0  0  0  0
    7.3068  -14.4280   18.9887 C   0  0  0  0  0  0  0  0  0  0  0  0
    7.9148  -13.4497   18.2513 C   0  0  0  0  0  0  0  0  0  0  0  0
    8.4569  -12.3550   18.8761 C   0  0  0  0  0  0  0  0  0  0  0  0
    8.4126  -12.2015   20.2281 C   0  0  0  0  0  0  0  0  0  0  0  0
    7.8076  -13.1749   20.9699 C   0  0  0  0  0  0  0  0  0  0  0  0
    7.2495  -14.2968   20.3580 C   0  0  0  0  0  0  0  0  0  0  0  0
    8.5280  -16.7827   22.3882 C   0  0  0  0  0  0  0  0  0  0  0  0
    8.8240  -17.4816   21.3846 O   0  0  0  0  0  0  0  0  0  0  0  0
   11.6357  -14.7485   22.7707 C   0  0  0  0  0  0  0  0  0  0  0  0
   10.9266  -16.0682   22.4826 C   0  0  2  0  0  0  0  0  0  0  0  0
    9.5742  -16.0183   22.9787 N   0  0  0  0  0  0  0  0  0  0  0  0
   11.7000  -17.1883   23.0218 C   0  0  0  0  0  0  0  0  0  0  0  0
   12.8839  -17.3827   22.6534 O   0  0  0  0  0  0  0  0  0  0  0  0
   11.1638  -18.0671   23.9488 O   0  0  0  0  0  0  0  0  0  0  0  0
  2  3  1  0
  2  1  1  6
  3  4  1  0
  4  5  2  0
  6  5  1  0
  7  6  1  0
  8  7  2  0
  9  8  1  0
 10  9  2  0
 10 11  1  0
 11 12  2  0
 12  7  1  0
 12  4  1  0
 13 15  1  0
 13  2  1  0
 14 13  2  0
 16 17  1  6
 16 15  1  0
 17 18  1  0
 18 19  2  0
 19 20  1  0
 21 20  1  0
 22 21  2  0
 23 22  1  0
 24 25  1  0
 24 23  2  0
 25 26  2  0
 26 18  1  0
 26 21  1  0
 27 16  1  0
 28 27  2  0
 30 29  1  1
 30 31  1  0
 31 27  1  0
 32 30  1  0
 32 34  1  0
 33 32  2  0
M  END
$$$$
