WWA.pdb
     RDKit          3D

 34 37  0  0  1  0  0  0  0  0999 V2000
    9.3980  -17.8505   20.8456 N   0  0  0  0  0  0  0  0  0  0  0  0
    9.7905  -16.8484   21.7858 C   0  0  1  0  0  0  0  0  0  0  0  0
    8.6805  -16.1275   22.4507 C   0  0  0  0  0  0  0  0  0  0  0  0
    7.7660  -15.4361   21.5504 C   0  0  0  0  0  0  0  0  0  0  0  0
    6.4530  -15.7239   21.2607 C   0  0  0  0  0  0  0  0  0  0  0  0
    5.9776  -14.8338   20.3637 N   0  0  0  0  0  0  0  0  0  0  0  0
    6.9498  -13.9775   20.0655 C   0  0  0  0  0  0  0  0  0  0  0  0
    6.9505  -12.9015   19.2041 C   0  0  0  0  0  0  0  0  0  0  0  0
    8.1053  -12.1534   19.0607 C   0  0  0  0  0  0  0  0  0  0  0  0
    9.2505  -12.4690   19.7658 C   0  0  0  0  0  0  0  0  0  0  0  0
    9.2075  -13.5571   20.6201 C   0  0  0  0  0  0  0  0  0  0  0  0
    8.0753  -14.3270   20.7893 C   0  0  0  0  0  0  0  0  0  0  0  0
   10.7205  -17.4574   22.7679 C   0  0  0  0  0  0  0  0  0  0  0  0
   10.9509  -18.7042   22.7340 O   0  0  0  0  0  0  0  0  0  0  0  0
   11.3939  -16.7290   23.7768 N   0  0  0  0  0  0  0  0  0  0  0  0
   10.7035  -16.1567   24.8962 C   0  0  1  0  0  0  0  0  0  0  0  0
    9.4857  -15.3817   24.5420 C   0  0  0  0  0  0  0  0  0  0  0  0
    8.7450  -14.7825   25.6636 C   0  0  0  0  0  0  0  0  0  0  0  0
    8.7511  -15.2565   26.9805 C   0  0  0  0  0  0  0  0  0  0  0  0
    7.9515  -14.4809   27.7328 N   0  0  0  0  0  0  0  0  0  0  0  0
    7.4120  -13.5046   26.9634 C   0  0  0  0  0  0  0  0  0  0  0  0
    6.5595  -12.4613   27.1984 C   0  0  0  0  0  0  0  0  0  0  0  0
    6.2047  -11.6198   26.1743 C   0  0  0  0  0  0  0  0  0  0  0  0
    6.6775  -11.7859   24.9085 C   0  0  0  0  0  0  0  0  0  0  0  0
    7.5284  -12.8259   24.6673 C   0  0  0  0  0  0  0  0  0  0  0  0
    7.9035  -13.6948   25.6914 C   0  0  0  0  0  0  0  0  0  0  0  0
   10.4339  -17.1861   25.9533 C   0  0  0  0  0  0  0  0  0  0  0  0
    9.9068  -16.8798   27.0541 O   0  0  0  0  0  0  0  0  0  0  0  0
   10.5495  -20.9458   26.1350 C   0  0  0  0  0  0  0  0  0  0  0  0
   10.5240  -19.5549   26.7613 C   0  0  2  0  0  0  0  0  0  0  0  0
   10.7644  -18.5561   25.7503 N   0  0  0  0  0  0  0  0  0  0  0  0
   11.4659  -19.4845   27.8800 C   0  0  0  0  0  0  0  0  0  0  0  0
   12.5912  -18.9481   27.7342 O   0  0  0  0  0  0  0  0  0  0  0  0
   11.1573  -19.9997   29.1283 O   0  0  0  0  0  0  0  0  0  0  0  0
  2  3  1  0
  2  1  1  6
  3  4  1  0
  4  5  2  0
  6  5  1  0
  7  6  1  0
  8  7  2  0
  9  8  1  0
 10  9  2  0
 10 11  1  0
 11 12  2  0
 12  7  1  0
 12  4  1  0
 13 15  1  0
 13  2  1  0
 14 13  2  0
 16 17  1  6
 16 15  1  0
 17 18  1  0
 18 19  2  0
 19 20  1  0
 21 20  1  0
 22 21  2  0
 23 22  1  0
 24 25  1  0
 24 23  2  0
 25 26  2  0
 26 18  1  0
 26 21  1  0
 27 16  1  0
 28 27  2  0
 30 29  1  6
 30 31  1  0
 31 27  1  0
 32 30  1  0
 32 34  1  0
 33 32  2  0
M  END
$$$$
