WWA.pdb
     RDKit          3D

 34 37  0  0  1  0  0  0  0  0999 V2000
    8.2249  -18.3671   20.2480 N   0  0  0  0  0  0  0  0  0  0  0  0
    8.3629  -17.2457   21.1229 C   0  0  1  0  0  0  0  0  0  0  0  0
    7.1134  -16.5051   21.4129 C   0  0  0  0  0  0  0  0  0  0  0  0
    7.2983  -15.2077   22.0512 C   0  0  0  0  0  0  0  0  0  0  0  0
    7.7910  -14.0411   21.5156 C   0  0  0  0  0  0  0  0  0  0  0  0
    7.8022  -13.0747   22.4583 N   0  0  0  0  0  0  0  0  0  0  0  0
    7.3293  -13.5865   23.5904 C   0  0  0  0  0  0  0  0  0  0  0  0
    7.1512  -12.9972   24.8237 C   0  0  0  0  0  0  0  0  0  0  0  0
    6.6373  -13.7513   25.8633 C   0  0  0  0  0  0  0  0  0  0  0  0
    6.3021  -15.0792   25.6822 C   0  0  0  0  0  0  0  0  0  0  0  0
    6.4966  -15.6323   24.4284 C   0  0  0  0  0  0  0  0  0  0  0  0
    7.0069  -14.9128   23.3678 C   0  0  0  0  0  0  0  0  0  0  0  0
    9.0407  -17.6930   22.3642 C   0  0  0  0  0  0  0  0  0  0  0  0
    9.4074  -18.9009   22.4862 O   0  0  0  0  0  0  0  0  0  0  0  0
    9.3190  -16.8459   23.4629 N   0  0  0  0  0  0  0  0  0  0  0  0
   10.6458  -16.6771   23.9809 C   0  0  1  0  0  0  0  0  0  0  0  0
   10.8027  -15.5375   24.9219 C   0  0  0  0  0  0  0  0  0  0  0  0
   10.4727  -15.8050   26.3309 C   0  0  0  0  0  0  0  0  0  0  0  0
   10.1709  -17.0632   26.8648 C   0  0  0  0  0  0  0  0  0  0  0  0
    9.9016  -16.9337   28.1754 N   0  0  0  0  0  0  0  0  0  0  0  0
   10.0138  -15.6321   28.5351 C   0  0  0  0  0  0  0  0  0  0  0  0
    9.8655  -14.9470   29.7095 C   0  0  0  0  0  0  0  0  0  0  0  0
   10.0672  -13.5902   29.7436 C   0  0  0  0  0  0  0  0  0  0  0  0
   10.4160  -12.8854   28.6323 C   0  0  0  0  0  0  0  0  0  0  0  0
   10.5650  -13.5634   27.4568 C   0  0  0  0  0  0  0  0  0  0  0  0
   10.3653  -14.9422   27.3967 C   0  0  0  0  0  0  0  0  0  0  0  0
   11.1750  -17.9601   24.5497 C   0  0  0  0  0  0  0  0  0  0  0  0
   12.3174  -18.0290   25.0729 O   0  0  0  0  0  0  0  0  0  0  0  0
    9.8150  -21.4645   24.9971 C   0  0  0  0  0  0  0  0  0  0  0  0
   10.9138  -20.4064   25.0187 C   0  0  2  0  0  0  0  0  0  0  0  0
   10.4009  -19.1549   24.5205 N   0  0  0  0  0  0  0  0  0  0  0  0
   12.0905  -20.8815   24.2885 C   0  0  0  0  0  0  0  0  0  0  0  0
   12.7114  -21.9021   24.6733 O   0  0  0  0  0  0  0  0  0  0  0  0
   12.5597  -20.2329   23.1580 O   0  0  0  0  0  0  0  0  0  0  0  0
  2  3  1  0
  2  1  1  6
  3  4  1  0
  4  5  2  0
  6  5  1  0
  7  6  1  0
  8  7  2  0
  9  8  1  0
 10  9  2  0
 10 11  1  0
 11 12  2  0
 12  7  1  0
 12  4  1  0
 13 15  1  0
 13  2  1  0
 14 13  2  0
 16 17  1  1
 16 15  1  0
 17 18  1  0
 18 19  2  0
 19 20  1  0
 21 20  1  0
 22 21  2  0
 23 22  1  0
 24 25  1  0
 24 23  2  0
 25 26  2  0
 26 18  1  0
 26 21  1  0
 27 16  1  0
 28 27  2  0
 30 29  1  6
 30 31  1  0
 31 27  1  0
 32 30  1  0
 32 34  1  0
 33 32  2  0
M  END
$$$$
