WWA.pdb
     RDKit          3D

 34 37  0  0  1  0  0  0  0  0999 V2000
   10.8789  -15.7967   21.3985 N   0  0  0  0  0  0  0  0  0  0  0  0
    9.8191  -15.6421   22.3446 C   0  0  1  0  0  0  0  0  0  0  0  0
    8.5892  -16.4157   22.0573 C   0  0  0  0  0  0  0  0  0  0  0  0
    7.8320  -15.9636   20.8966 C   0  0  0  0  0  0  0  0  0  0  0  0
    7.1013  -16.7035   19.9972 C   0  0  0  0  0  0  0  0  0  0  0  0
    6.5647  -15.8884   19.0642 N   0  0  0  0  0  0  0  0  0  0  0  0
    6.9299  -14.6396   19.3372 C   0  0  0  0  0  0  0  0  0  0  0  0
    6.6375  -13.4656   18.6767 C   0  0  0  0  0  0  0  0  0  0  0  0
    7.1462  -12.2743   19.1621 C   0  0  0  0  0  0  0  0  0  0  0  0
    7.9382  -12.2464   20.2935 C   0  0  0  0  0  0  0  0  0  0  0  0
    8.2078  -13.4472   20.9267 C   0  0  0  0  0  0  0  0  0  0  0  0
    7.7192  -14.6548   20.4727 C   0  0  0  0  0  0  0  0  0  0  0  0
   10.3479  -15.9286   23.7005 C   0  0  0  0  0  0  0  0  0  0  0  0
   11.5900  -16.1225   23.8686 O   0  0  0  0  0  0  0  0  0  0  0  0
    9.5448  -16.0065   24.8628 N   0  0  0  0  0  0  0  0  0  0  0  0
   10.1080  -16.1760   26.1709 C   0  0  1  0  0  0  0  0  0  0  0  0
    9.2337  -15.7245   27.2847 C   0  0  0  0  0  0  0  0  0  0  0  0
    7.9615  -15.0925   26.9000 C   0  0  0  0  0  0  0  0  0  0  0  0
    6.8173  -15.7756   26.4722 C   0  0  0  0  0  0  0  0  0  0  0  0
    5.8520  -14.8847   26.1865 N   0  0  0  0  0  0  0  0  0  0  0  0
    6.3124  -13.6299   26.4095 C   0  0  0  0  0  0  0  0  0  0  0  0
    5.7729  -12.3781   26.2983 C   0  0  0  0  0  0  0  0  0  0  0  0
    6.5225  -11.2756   26.6228 C   0  0  0  0  0  0  0  0  0  0  0  0
    7.8075  -11.3810   27.0597 C   0  0  0  0  0  0  0  0  0  0  0  0
    8.3521  -12.6278   27.1722 C   0  0  0  0  0  0  0  0  0  0  0  0
    7.6106  -13.7635   26.8483 C   0  0  0  0  0  0  0  0  0  0  0  0
   10.6055  -17.5767   26.3717 C   0  0  0  0  0  0  0  0  0  0  0  0
   11.1382  -17.9398   27.4524 O   0  0  0  0  0  0  0  0  0  0  0  0
   10.4335  -20.7699   24.3461 C   0  0  0  0  0  0  0  0  0  0  0  0
   10.7965  -19.9439   25.5763 C   0  0  2  0  0  0  0  0  0  0  0  0
   10.4925  -18.5544   25.3427 N   0  0  0  0  0  0  0  0  0  0  0  0
   12.1930  -20.1760   25.9496 C   0  0  0  0  0  0  0  0  0  0  0  0
   13.1022  -19.4259   25.5183 O   0  0  0  0  0  0  0  0  0  0  0  0
   12.5626  -21.2185   26.7836 O   0  0  0  0  0  0  0  0  0  0  0  0
  2  3  1  0
  2  1  1  6
  3  4  1  0
  4  5  2  0
  6  5  1  0
  7  6  1  0
  8  7  2  0
  9  8  1  0
 10  9  2  0
 10 11  1  0
 11 12  2  0
 12  7  1  0
 12  4  1  0
 13 15  1  0
 13  2  1  0
 14 13  2  0
 16 17  1  1
 16 15  1  0
 17 18  1  0
 18 19  2  0
 19 20  1  0
 21 20  1  0
 22 21  2  0
 23 22  1  0
 24 25  1  0
 24 23  2  0
 25 26  2  0
 26 18  1  0
 26 21  1  0
 27 16  1  0
 28 27  2  0
 30 29  1  6
 30 31  1  0
 31 27  1  0
 32 30  1  0
 32 34  1  0
 33 32  2  0
M  END
$$$$
