WWA.pdb
     RDKit          3D

 34 37  0  0  1  0  0  0  0  0999 V2000
    8.7772  -17.8358   22.1242 N   0  0  0  0  0  0  0  0  0  0  0  0
    8.8037  -16.4133   22.2588 C   0  0  1  0  0  0  0  0  0  0  0  0
    7.5064  -15.7288   22.0537 C   0  0  0  0  0  0  0  0  0  0  0  0
    7.2748  -15.2361   20.7014 C   0  0  0  0  0  0  0  0  0  0  0  0
    6.5117  -15.7855   19.6982 C   0  0  0  0  0  0  0  0  0  0  0  0
    6.5784  -15.0086   18.5960 N   0  0  0  0  0  0  0  0  0  0  0  0
    7.3656  -13.9705   18.8607 C   0  0  0  0  0  0  0  0  0  0  0  0
    7.7401  -12.9142   18.0581 C   0  0  0  0  0  0  0  0  0  0  0  0
    8.5846  -11.9453   18.5696 C   0  0  0  0  0  0  0  0  0  0  0  0
    9.0542  -12.0222   19.8665 C   0  0  0  0  0  0  0  0  0  0  0  0
    8.6541  -13.0989   20.6387 C   0  0  0  0  0  0  0  0  0  0  0  0
    7.8138  -14.0847   20.1640 C   0  0  0  0  0  0  0  0  0  0  0  0
    9.4073  -16.0720   23.5701 C   0  0  0  0  0  0  0  0  0  0  0  0
   10.0707  -14.9992   23.7024 O   0  0  0  0  0  0  0  0  0  0  0  0
    9.2971  -16.8803   24.7262 N   0  0  0  0  0  0  0  0  0  0  0  0
    9.9794  -16.5641   25.9475 C   0  0  1  0  0  0  0  0  0  0  0  0
    9.0853  -16.2737   27.0987 C   0  0  0  0  0  0  0  0  0  0  0  0
    7.8356  -15.5603   26.7902 C   0  0  0  0  0  0  0  0  0  0  0  0
    6.6093  -16.1688   26.4985 C   0  0  0  0  0  0  0  0  0  0  0  0
    5.6929  -15.2177   26.2484 N   0  0  0  0  0  0  0  0  0  0  0  0
    6.2651  -13.9948   26.3637 C   0  0  0  0  0  0  0  0  0  0  0  0
    5.8144  -12.7103   26.2318 C   0  0  0  0  0  0  0  0  0  0  0  0
    6.6713  -11.6575   26.4317 C   0  0  0  0  0  0  0  0  0  0  0  0
    7.9784  -11.8451   26.7628 C   0  0  0  0  0  0  0  0  0  0  0  0
    8.4347  -13.1250   26.8954 C   0  0  0  0  0  0  0  0  0  0  0  0
    7.5833  -14.2114   26.6972 C   0  0  0  0  0  0  0  0  0  0  0  0
   11.0120  -17.6004   26.2779 C   0  0  0  0  0  0  0  0  0  0  0  0
   11.6599  -17.5669   27.3562 O   0  0  0  0  0  0  0  0  0  0  0  0
   12.1592  -20.8362   24.6990 C   0  0  0  0  0  0  0  0  0  0  0  0
   12.2711  -19.6853   25.6942 C   0  0  2  0  0  0  0  0  0  0  0  0
   11.2995  -18.6679   25.3805 N   0  0  0  0  0  0  0  0  0  0  0  0
   13.6450  -19.1807   25.7345 C   0  0  0  0  0  0  0  0  0  0  0  0
   13.9000  -17.9966   25.4058 O   0  0  0  0  0  0  0  0  0  0  0  0
   14.7049  -19.9789   26.1323 O   0  0  0  0  0  0  0  0  0  0  0  0
  2  3  1  0
  2  1  1  1
  3  4  1  0
  4  5  2  0
  6  5  1  0
  7  6  1  0
  8  7  2  0
  9  8  1  0
 10  9  2  0
 10 11  1  0
 11 12  2  0
 12  7  1  0
 12  4  1  0
 13 15  1  0
 13  2  1  0
 14 13  2  0
 16 17  1  1
 16 15  1  0
 17 18  1  0
 18 19  2  0
 19 20  1  0
 21 20  1  0
 22 21  2  0
 23 22  1  0
 24 25  1  0
 24 23  2  0
 25 26  2  0
 26 18  1  0
 26 21  1  0
 27 16  1  0
 28 27  2  0
 30 29  1  6
 30 31  1  0
 31 27  1  0
 32 30  1  0
 32 34  1  0
 33 32  2  0
M  END
$$$$
