WWA.pdb
     RDKit          3D

 34 37  0  0  1  0  0  0  0  0999 V2000
    8.7619  -17.5521   21.7846 N   0  0  0  0  0  0  0  0  0  0  0  0
    8.7745  -16.1698   22.1469 C   0  0  1  0  0  0  0  0  0  0  0  0
    7.5065  -15.4390   21.9195 C   0  0  0  0  0  0  0  0  0  0  0  0
    7.2814  -15.0045   20.5464 C   0  0  0  0  0  0  0  0  0  0  0  0
    6.5241  -15.5968   19.5635 C   0  0  0  0  0  0  0  0  0  0  0  0
    6.5957  -14.8673   18.4297 N   0  0  0  0  0  0  0  0  0  0  0  0
    7.3806  -13.8180   18.6541 C   0  0  0  0  0  0  0  0  0  0  0  0
    7.7582  -12.7963   17.8093 C   0  0  0  0  0  0  0  0  0  0  0  0
    8.5991  -11.8055   18.2836 C   0  0  0  0  0  0  0  0  0  0  0  0
    9.0620  -11.8268   19.5849 C   0  0  0  0  0  0  0  0  0  0  0  0
    8.6590  -12.8702   20.4001 C   0  0  0  0  0  0  0  0  0  0  0  0
    7.8221  -13.8762   19.9634 C   0  0  0  0  0  0  0  0  0  0  0  0
    9.2361  -16.0516   23.5516 C   0  0  0  0  0  0  0  0  0  0  0  0
    9.6623  -14.9393   23.9873 O   0  0  0  0  0  0  0  0  0  0  0  0
    9.2390  -17.1227   24.4761 N   0  0  0  0  0  0  0  0  0  0  0  0
    9.8025  -16.9973   25.7891 C   0  0  1  0  0  0  0  0  0  0  0  0
    8.8115  -16.7383   26.8660 C   0  0  0  0  0  0  0  0  0  0  0  0
    7.7359  -15.7858   26.5471 C   0  0  0  0  0  0  0  0  0  0  0  0
    6.4426  -16.1345   26.1412 C   0  0  0  0  0  0  0  0  0  0  0  0
    5.7330  -15.0148   25.9178 N   0  0  0  0  0  0  0  0  0  0  0  0
    6.5081  -13.9304   26.1612 C   0  0  0  0  0  0  0  0  0  0  0  0
    6.3078  -12.5786   26.1073 C   0  0  0  0  0  0  0  0  0  0  0  0
    7.3255  -11.7194   26.4370 C   0  0  0  0  0  0  0  0  0  0  0  0
    8.5512  -12.1688   26.8233 C   0  0  0  0  0  0  0  0  0  0  0  0
    8.7577  -13.5171   26.8785 C   0  0  0  0  0  0  0  0  0  0  0  0
    7.7392  -14.4104   26.5480 C   0  0  0  0  0  0  0  0  0  0  0  0
   10.6991  -18.1563   26.1093 C   0  0  0  0  0  0  0  0  0  0  0  0
   10.2543  -19.2101   26.6338 O   0  0  0  0  0  0  0  0  0  0  0  0
   14.3265  -19.0088   25.4933 C   0  0  0  0  0  0  0  0  0  0  0  0
   12.9791  -19.1898   26.1855 C   0  0  2  0  0  0  0  0  0  0  0  0
   12.0944  -18.1089   25.8297 N   0  0  0  0  0  0  0  0  0  0  0  0
   13.1660  -19.3329   27.6306 C   0  0  0  0  0  0  0  0  0  0  0  0
   12.6774  -18.4918   28.4238 O   0  0  0  0  0  0  0  0  0  0  0  0
   13.8794  -20.3887   28.1739 O   0  0  0  0  0  0  0  0  0  0  0  0
  2  3  1  0
  2  1  1  1
  3  4  1  0
  4  5  2  0
  6  5  1  0
  7  6  1  0
  8  7  2  0
  9  8  1  0
 10  9  2  0
 10 11  1  0
 11 12  2  0
 12  7  1  0
 12  4  1  0
 13 15  1  0
 13  2  1  0
 14 13  2  0
 16 17  1  1
 16 15  1  0
 17 18  1  0
 18 19  2  0
 19 20  1  0
 21 20  1  0
 22 21  2  0
 23 22  1  0
 24 25  1  0
 24 23  2  0
 25 26  2  0
 26 18  1  0
 26 21  1  0
 27 16  1  0
 28 27  2  0
 30 29  1  6
 30 31  1  0
 31 27  1  0
 32 30  1  0
 32 34  1  0
 33 32  2  0
M  END
$$$$
