HNT.pdb
     RDKit          3D

 26 26  0  0  1  0  0  0  0  0999 V2000
    7.9002  -16.4079   20.1169 N   0  0  0  0  0  0  0  0  0  0  0  0
    7.7165  -15.4521   21.1631 C   0  0  1  0  0  0  0  0  0  0  0  0
    6.7612  -14.3354   20.8144 C   0  0  0  0  0  0  0  0  0  0  0  0
    7.2487  -13.6889   19.5812 C   0  0  0  0  0  0  0  0  0  0  0  0
    8.1314  -12.6375   19.5074 C   0  0  0  0  0  0  0  0  0  0  0  0
    8.3152  -12.3461   18.2194 N   0  0  0  0  0  0  0  0  0  0  0  0
    7.5728  -13.1853   17.4882 C   0  0  0  0  0  0  0  0  0  0  0  0
    6.9160  -14.0121   18.3238 N   0  0  0  0  0  0  0  0  0  0  0  0
    7.2912  -16.0862   22.4692 C   0  0  0  0  0  0  0  0  0  0  0  0
    6.1256  -16.4980   22.5089 O   0  0  0  0  0  0  0  0  0  0  0  0
    7.9511  -18.6485   27.0032 N   0  0  0  0  0  0  0  0  0  0  0  0
    7.6830  -19.2566   25.7616 C   0  0  0  0  0  0  0  0  0  0  0  0
    7.3573  -20.4884   25.7649 O   0  0  0  0  0  0  0  0  0  0  0  0
    7.7876  -18.4635   24.5451 C   0  0  0  0  0  0  0  0  0  0  0  0
    8.0616  -16.9856   24.7486 C   0  0  2  0  0  0  0  0  0  0  0  0
    8.1565  -16.1988   23.5573 N   0  0  0  0  0  0  0  0  0  0  0  0
    9.1385  -16.8095   25.7231 C   0  0  0  0  0  0  0  0  0  0  0  0
   10.3201  -17.2203   25.4706 O   0  0  0  0  0  0  0  0  0  0  0  0
    8.5624  -14.2130   29.0045 C   0  0  0  0  0  0  0  0  0  0  0  0
    9.8116  -14.2327   28.1447 C   0  0  1  0  0  0  0  0  0  0  0  0
   10.8655  -13.6864   28.8633 O   0  0  0  0  0  0  0  0  0  0  0  0
   10.1027  -15.6600   27.7225 C   0  0  2  0  0  0  0  0  0  0  0  0
    8.9577  -16.1834   26.9904 N   0  0  0  0  0  0  0  0  0  0  0  0
   10.3416  -16.4499   28.9494 C   0  0  0  0  0  0  0  0  0  0  0  0
   11.4642  -16.2978   29.7452 O   0  0  0  0  0  0  0  0  0  0  0  0
    9.4843  -17.3017   29.2879 O   0  0  0  0  0  0  0  0  0  0  0  0
  2  3  1  0
  2  9  1  0
  2  1  1  6
  4  5  2  0
  4  3  1  0
  6  5  1  0
  7  8  2  0
  7  6  1  0
  8  4  1  0
  9 16  1  0
 10  9  2  0
 12 14  1  0
 12 11  1  0
 13 12  2  0
 15 14  1  6
 16 15  1  0
 17 23  1  0
 17 15  1  0
 18 17  2  0
 20 19  1  1
 20 22  1  0
 21 20  1  0
 22 24  1  0
 22 23  1  1
 24 25  1  0
 26 24  2  0
M  END
$$$$
