HNT.pdb
     RDKit          3D

 26 26  0  0  1  0  0  0  0  0999 V2000
    8.8156  -17.2747   18.3152 N   0  0  0  0  0  0  0  0  0  0  0  0
    9.2256  -16.4999   19.4437 C   0  0  1  0  0  0  0  0  0  0  0  0
    8.1438  -15.6052   20.0006 C   0  0  0  0  0  0  0  0  0  0  0  0
    8.0657  -14.4028   19.1494 C   0  0  0  0  0  0  0  0  0  0  0  0
    8.8303  -14.1415   18.0372 C   0  0  0  0  0  0  0  0  0  0  0  0
    8.4573  -12.9570   17.5522 N   0  0  0  0  0  0  0  0  0  0  0  0
    7.4822  -12.4723   18.3296 C   0  0  0  0  0  0  0  0  0  0  0  0
    7.2397  -13.3600   19.3127 N   0  0  0  0  0  0  0  0  0  0  0  0
    9.8000  -17.3458   20.5587 C   0  0  0  0  0  0  0  0  0  0  0  0
    9.0397  -18.2023   21.0259 O   0  0  0  0  0  0  0  0  0  0  0  0
   14.4422  -18.4702   19.8102 N   0  0  0  0  0  0  0  0  0  0  0  0
   13.5936  -18.9311   20.8353 C   0  0  0  0  0  0  0  0  0  0  0  0
   13.1530  -20.1234   20.7464 O   0  0  0  0  0  0  0  0  0  0  0  0
   13.2610  -18.0389   21.9367 C   0  0  0  0  0  0  0  0  0  0  0  0
   11.7820  -17.7689   22.1370 C   0  0  2  0  0  0  0  0  0  0  0  0
   11.1013  -17.1712   21.0295 N   0  0  0  0  0  0  0  0  0  0  0  0
   11.5635  -17.1419   23.4406 C   0  0  0  0  0  0  0  0  0  0  0  0
   12.1934  -16.0814   23.7679 O   0  0  0  0  0  0  0  0  0  0  0  0
    9.0719  -15.1318   25.0170 C   0  0  0  0  0  0  0  0  0  0  0  0
    9.1430  -16.4048   25.8385 C   0  0  1  0  0  0  0  0  0  0  0  0
    8.1662  -17.2854   25.3960 O   0  0  0  0  0  0  0  0  0  0  0  0
   10.5320  -17.0008   25.7132 C   0  0  2  0  0  0  0  0  0  0  0  0
   10.6568  -17.6500   24.4156 N   0  0  0  0  0  0  0  0  0  0  0  0
   10.6976  -17.9837   26.8053 C   0  0  0  0  0  0  0  0  0  0  0  0
   10.7941  -17.6286   28.1400 O   0  0  0  0  0  0  0  0  0  0  0  0
   10.7534  -19.2021   26.5092 O   0  0  0  0  0  0  0  0  0  0  0  0
  2  3  1  0
  2  9  1  0
  2  1  1  6
  4  5  2  0
  4  3  1  0
  6  5  1  0
  7  8  2  0
  7  6  1  0
  8  4  1  0
  9 16  1  0
 10  9  2  0
 12 14  1  0
 12 11  1  0
 13 12  2  0
 15 14  1  6
 16 15  1  0
 17 23  1  0
 17 15  1  0
 18 17  2  0
 20 19  1  6
 20 22  1  0
 21 20  1  0
 22 24  1  0
 22 23  1  6
 24 25  1  0
 26 24  2  0
M  END
$$$$
