HNT.pdb
     RDKit          3D

 26 26  0  0  1  0  0  0  0  0999 V2000
    9.1489  -15.7583   20.1124 N   0  0  0  0  0  0  0  0  0  0  0  0
    8.1515  -14.8751   20.6290 C   0  0  1  0  0  0  0  0  0  0  0  0
    6.9795  -14.6615   19.7007 C   0  0  0  0  0  0  0  0  0  0  0  0
    7.5106  -14.2769   18.3792 C   0  0  0  0  0  0  0  0  0  0  0  0
    8.1286  -13.0901   18.0641 C   0  0  0  0  0  0  0  0  0  0  0  0
    8.4594  -13.1301   16.7732 N   0  0  0  0  0  0  0  0  0  0  0  0
    8.0657  -14.3075   16.2744 C   0  0  0  0  0  0  0  0  0  0  0  0
    7.4817  -15.0145   17.2605 N   0  0  0  0  0  0  0  0  0  0  0  0
    7.6429  -15.2963   21.9902 C   0  0  0  0  0  0  0  0  0  0  0  0
    6.5118  -14.8929   22.2864 O   0  0  0  0  0  0  0  0  0  0  0  0
    7.5567  -17.4339   26.7749 N   0  0  0  0  0  0  0  0  0  0  0  0
    8.2244  -18.3286   25.9164 C   0  0  0  0  0  0  0  0  0  0  0  0
    8.5396  -19.4716   26.3831 O   0  0  0  0  0  0  0  0  0  0  0  0
    8.5215  -17.9157   24.5522 C   0  0  0  0  0  0  0  0  0  0  0  0
    8.1609  -16.4830   24.2085 C   0  0  2  0  0  0  0  0  0  0  0  0
    8.3997  -16.0872   22.8545 N   0  0  0  0  0  0  0  0  0  0  0  0
    8.6702  -15.5810   25.2417 C   0  0  0  0  0  0  0  0  0  0  0  0
    9.9250  -15.4583   25.4394 O   0  0  0  0  0  0  0  0  0  0  0  0
    7.3901  -11.8371   25.9862 C   0  0  0  0  0  0  0  0  0  0  0  0
    7.4350  -12.6991   27.2333 C   0  0  1  0  0  0  0  0  0  0  0  0
    6.1574  -13.1653   27.5087 O   0  0  0  0  0  0  0  0  0  0  0  0
    8.4117  -13.8388   27.0155 C   0  0  2  0  0  0  0  0  0  0  0  0
    7.8306  -14.7924   26.0807 N   0  0  0  0  0  0  0  0  0  0  0  0
    8.6544  -14.4772   28.3270 C   0  0  0  0  0  0  0  0  0  0  0  0
    9.1419  -13.7928   29.4273 O   0  0  0  0  0  0  0  0  0  0  0  0
    8.4063  -15.7012   28.4506 O   0  0  0  0  0  0  0  0  0  0  0  0
  2  3  1  0
  2  9  1  0
  2  1  1  6
  4  5  2  0
  4  3  1  0
  6  5  1  0
  7  8  2  0
  7  6  1  0
  8  4  1  0
  9 16  1  0
 10  9  2  0
 12 14  1  0
 12 11  1  0
 13 12  2  0
 15 14  1  1
 16 15  1  0
 17 23  1  0
 17 15  1  0
 18 17  2  0
 20 19  1  6
 20 22  1  0
 21 20  1  0
 22 24  1  0
 22 23  1  6
 24 25  1  0
 26 24  2  0
M  END
$$$$
