HNT.pdb
     RDKit          3D

 26 26  0  0  1  0  0  0  0  0999 V2000
    9.2817  -16.8984   18.1823 N   0  0  0  0  0  0  0  0  0  0  0  0
    8.6461  -15.9349   19.0245 C   0  0  1  0  0  0  0  0  0  0  0  0
    7.4067  -15.3156   18.4233 C   0  0  0  0  0  0  0  0  0  0  0  0
    7.7682  -14.7656   17.1030 C   0  0  0  0  0  0  0  0  0  0  0  0
    8.4264  -13.5821   16.8665 C   0  0  0  0  0  0  0  0  0  0  0  0
    8.5609  -13.4442   15.5473 N   0  0  0  0  0  0  0  0  0  0  0  0
    8.0059  -14.5074   14.9545 C   0  0  0  0  0  0  0  0  0  0  0  0
    7.5176  -15.3216   15.9095 N   0  0  0  0  0  0  0  0  0  0  0  0
    8.3187  -16.4805   20.3971 C   0  0  0  0  0  0  0  0  0  0  0  0
    7.7269  -17.5666   20.4134 O   0  0  0  0  0  0  0  0  0  0  0  0
   10.7706  -19.1469   21.3909 N   0  0  0  0  0  0  0  0  0  0  0  0
    9.9646  -18.5964   22.4060 C   0  0  0  0  0  0  0  0  0  0  0  0
    9.0270  -19.3210   22.8745 O   0  0  0  0  0  0  0  0  0  0  0  0
   10.2331  -17.2428   22.8703 C   0  0  0  0  0  0  0  0  0  0  0  0
    9.0471  -16.2975   22.8535 C   0  0  2  0  0  0  0  0  0  0  0  0
    8.6611  -15.8034   21.5674 N   0  0  0  0  0  0  0  0  0  0  0  0
    9.1953  -15.2956   23.9093 C   0  0  0  0  0  0  0  0  0  0  0  0
   10.2093  -14.5213   23.9358 O   0  0  0  0  0  0  0  0  0  0  0  0
    6.8919  -12.3980   25.0351 C   0  0  0  0  0  0  0  0  0  0  0  0
    7.1447  -13.3440   26.1934 C   0  0  1  0  0  0  0  0  0  0  0  0
    6.0772  -14.2239   26.3017 O   0  0  0  0  0  0  0  0  0  0  0  0
    8.4523  -14.0765   25.9612 C   0  0  2  0  0  0  0  0  0  0  0  0
    8.2472  -15.1112   24.9571 N   0  0  0  0  0  0  0  0  0  0  0  0
    8.8649  -14.6749   27.2488 C   0  0  0  0  0  0  0  0  0  0  0  0
    9.2061  -13.9249   28.3614 O   0  0  0  0  0  0  0  0  0  0  0  0
    8.9085  -15.9259   27.3395 O   0  0  0  0  0  0  0  0  0  0  0  0
  2  3  1  0
  2  9  1  0
  2  1  1  6
  4  5  2  0
  4  3  1  0
  6  5  1  0
  7  8  2  0
  7  6  1  0
  8  4  1  0
  9 16  1  0
 10  9  2  0
 12 14  1  0
 12 11  1  0
 13 12  2  0
 15 14  1  6
 16 15  1  0
 17 23  1  0
 17 15  1  0
 18 17  2  0
 20 19  1  6
 20 22  1  0
 21 20  1  0
 22 24  1  0
 22 23  1  6
 24 25  1  0
 26 24  2  0
M  END
$$$$
