HNT.pdb
     RDKit          3D

 26 26  0  0  1  0  0  0  0  0999 V2000
    9.5761  -15.3675   20.1582 N   0  0  0  0  0  0  0  0  0  0  0  0
    8.4570  -14.8148   20.8538 C   0  0  1  0  0  0  0  0  0  0  0  0
    7.1415  -14.9791   20.1302 C   0  0  0  0  0  0  0  0  0  0  0  0
    7.3069  -14.4538   18.7616 C   0  0  0  0  0  0  0  0  0  0  0  0
    8.0734  -13.3744   18.3909 C   0  0  0  0  0  0  0  0  0  0  0  0
    7.9576  -13.2231   17.0714 N   0  0  0  0  0  0  0  0  0  0  0  0
    7.1413  -14.1768   16.6087 C   0  0  0  0  0  0  0  0  0  0  0  0
    6.7399  -14.9350   17.6466 N   0  0  0  0  0  0  0  0  0  0  0  0
    8.3230  -15.3446   22.2645 C   0  0  0  0  0  0  0  0  0  0  0  0
    7.3481  -14.9279   22.9016 O   0  0  0  0  0  0  0  0  0  0  0  0
   11.3333  -19.1520   26.0645 N   0  0  0  0  0  0  0  0  0  0  0  0
   10.0905  -18.6911   25.5890 C   0  0  0  0  0  0  0  0  0  0  0  0
    9.0887  -18.7791   26.3715 O   0  0  0  0  0  0  0  0  0  0  0  0
   10.0045  -18.1415   24.2435 C   0  0  0  0  0  0  0  0  0  0  0  0
    9.3456  -16.7798   24.1333 C   0  0  2  0  0  0  0  0  0  0  0  0
    9.2386  -16.2436   22.8111 N   0  0  0  0  0  0  0  0  0  0  0  0
    9.8911  -15.8802   25.1499 C   0  0  0  0  0  0  0  0  0  0  0  0
   11.0942  -15.4618   25.0726 O   0  0  0  0  0  0  0  0  0  0  0  0
    8.6089  -12.4413   26.1808 C   0  0  0  0  0  0  0  0  0  0  0  0
    8.6879  -13.3261   27.4101 C   0  0  1  0  0  0  0  0  0  0  0  0
    7.4302  -13.8500   27.6735 O   0  0  0  0  0  0  0  0  0  0  0  0
    9.7108  -14.4200   27.1709 C   0  0  2  0  0  0  0  0  0  0  0  0
    9.1437  -15.4141   26.2703 N   0  0  0  0  0  0  0  0  0  0  0  0
   10.0320  -15.0268   28.4805 C   0  0  0  0  0  0  0  0  0  0  0  0
   10.6415  -14.3323   29.5114 O   0  0  0  0  0  0  0  0  0  0  0  0
    9.7376  -16.2322   28.6687 O   0  0  0  0  0  0  0  0  0  0  0  0
  2  3  1  0
  2  9  1  0
  2  1  1  6
  4  5  2  0
  4  3  1  0
  6  5  1  0
  7  8  2  0
  7  6  1  0
  8  4  1  0
  9 16  1  0
 10  9  2  0
 12 14  1  0
 12 11  1  0
 13 12  2  0
 15 14  1  6
 16 15  1  0
 17 23  1  0
 17 15  1  0
 18 17  2  0
 20 19  1  6
 20 22  1  0
 21 20  1  0
 22 24  1  0
 22 23  1  6
 24 25  1  0
 26 24  2  0
M  END
$$$$
