HNT.pdb
     RDKit          3D

 26 26  0  0  1  0  0  0  0  0999 V2000
    8.8895  -17.3000   16.8769 N   0  0  0  0  0  0  0  0  0  0  0  0
    8.8715  -16.3192   17.9158 C   0  0  1  0  0  0  0  0  0  0  0  0
    7.6826  -15.3894   17.8626 C   0  0  0  0  0  0  0  0  0  0  0  0
    7.7411  -14.6493   16.5878 C   0  0  0  0  0  0  0  0  0  0  0  0
    8.3106  -13.4139   16.3890 C   0  0  0  0  0  0  0  0  0  0  0  0
    8.1555  -13.0928   15.1044 N   0  0  0  0  0  0  0  0  0  0  0  0
    7.5061  -14.0922   14.4965 C   0  0  0  0  0  0  0  0  0  0  0  0
    7.2502  -15.0506   15.4071 N   0  0  0  0  0  0  0  0  0  0  0  0
    8.9718  -16.9265   19.2979 C   0  0  0  0  0  0  0  0  0  0  0  0
    8.0251  -17.6478   19.6347 O   0  0  0  0  0  0  0  0  0  0  0  0
   11.2479  -19.4430   23.5508 N   0  0  0  0  0  0  0  0  0  0  0  0
   11.9547  -18.3757   22.9636 C   0  0  0  0  0  0  0  0  0  0  0  0
   12.8610  -17.8128   23.6602 O   0  0  0  0  0  0  0  0  0  0  0  0
   11.6247  -17.9674   21.6056 C   0  0  0  0  0  0  0  0  0  0  0  0
   10.3451  -17.1671   21.4552 C   0  0  2  0  0  0  0  0  0  0  0  0
   10.0598  -16.6884   20.1374 N   0  0  0  0  0  0  0  0  0  0  0  0
   10.2453  -16.1826   22.5327 C   0  0  0  0  0  0  0  0  0  0  0  0
   11.0666  -15.2084   22.6041 O   0  0  0  0  0  0  0  0  0  0  0  0
    7.5378  -13.7397   23.4767 C   0  0  0  0  0  0  0  0  0  0  0  0
    7.7873  -14.6534   24.6613 C   0  0  1  0  0  0  0  0  0  0  0  0
    6.8438  -15.6708   24.6560 O   0  0  0  0  0  0  0  0  0  0  0  0
    9.1997  -15.1996   24.5795 C   0  0  2  0  0  0  0  0  0  0  0  0
    9.2527  -16.2324   23.5541 N   0  0  0  0  0  0  0  0  0  0  0  0
    9.5394  -15.7628   25.9038 C   0  0  0  0  0  0  0  0  0  0  0  0
    9.6444  -14.9964   27.0519 O   0  0  0  0  0  0  0  0  0  0  0  0
    9.7428  -16.9980   25.9933 O   0  0  0  0  0  0  0  0  0  0  0  0
  2  3  1  0
  2  9  1  0
  2  1  1  6
  4  5  2  0
  4  3  1  0
  6  5  1  0
  7  8  2  0
  7  6  1  0
  8  4  1  0
  9 16  1  0
 10  9  2  0
 12 14  1  0
 12 11  1  0
 13 12  2  0
 15 14  1  6
 16 15  1  0
 17 23  1  0
 17 15  1  0
 18 17  2  0
 20 19  1  6
 20 22  1  0
 21 20  1  0
 22 24  1  0
 22 23  1  6
 24 25  1  0
 26 24  2  0
M  END
$$$$
