HNT.pdb
     RDKit          3D

 26 26  0  0  1  0  0  0  0  0999 V2000
    6.5151  -16.4069   19.9560 N   0  0  0  0  0  0  0  0  0  0  0  0
    7.6395  -15.7862   20.5824 C   0  0  1  0  0  0  0  0  0  0  0  0
    7.7531  -14.3046   20.3122 C   0  0  0  0  0  0  0  0  0  0  0  0
    7.9085  -14.1186   18.8570 C   0  0  0  0  0  0  0  0  0  0  0  0
    7.1539  -13.2944   18.0563 C   0  0  0  0  0  0  0  0  0  0  0  0
    7.6057  -13.4101   16.8073 N   0  0  0  0  0  0  0  0  0  0  0  0
    8.6201  -14.2824   16.8061 C   0  0  0  0  0  0  0  0  0  0  0  0
    8.8081  -14.7195   18.0658 N   0  0  0  0  0  0  0  0  0  0  0  0
    7.6878  -16.0290   22.0749 C   0  0  0  0  0  0  0  0  0  0  0  0
    6.5999  -15.9737   22.6608 O   0  0  0  0  0  0  0  0  0  0  0  0
    9.4212  -18.3774   26.6471 N   0  0  0  0  0  0  0  0  0  0  0  0
   10.4494  -17.8848   25.8203 C   0  0  0  0  0  0  0  0  0  0  0  0
   11.5880  -17.6773   26.3531 O   0  0  0  0  0  0  0  0  0  0  0  0
   10.1716  -17.6375   24.4126 C   0  0  0  0  0  0  0  0  0  0  0  0
    9.1341  -16.5683   24.1280 C   0  0  2  0  0  0  0  0  0  0  0  0
    8.8806  -16.2970   22.7462 N   0  0  0  0  0  0  0  0  0  0  0  0
    9.3757  -15.4027   24.9785 C   0  0  0  0  0  0  0  0  0  0  0  0
   10.4086  -14.6732   24.8071 O   0  0  0  0  0  0  0  0  0  0  0  0
    7.2593  -12.2639   25.5998 C   0  0  0  0  0  0  0  0  0  0  0  0
    7.5106  -12.9770   26.9145 C   0  0  1  0  0  0  0  0  0  0  0  0
    6.4134  -13.7709   27.2169 O   0  0  0  0  0  0  0  0  0  0  0  0
    8.7807  -13.7979   26.8005 C   0  0  2  0  0  0  0  0  0  0  0  0
    8.5022  -15.0026   26.0311 N   0  0  0  0  0  0  0  0  0  0  0  0
    9.2147  -14.1440   28.1709 C   0  0  0  0  0  0  0  0  0  0  0  0
    9.6380  -13.2038   29.0948 O   0  0  0  0  0  0  0  0  0  0  0  0
    9.1990  -15.3506   28.5158 O   0  0  0  0  0  0  0  0  0  0  0  0
  2  3  1  0
  2  9  1  0
  2  1  1  1
  4  5  2  0
  4  3  1  0
  6  5  1  0
  7  8  2  0
  7  6  1  0
  8  4  1  0
  9 16  1  0
 10  9  2  0
 12 14  1  0
 12 11  1  0
 13 12  2  0
 15 14  1  6
 16 15  1  0
 17 23  1  0
 17 15  1  0
 18 17  2  0
 20 19  1  6
 20 22  1  0
 21 20  1  0
 22 24  1  0
 22 23  1  6
 24 25  1  0
 26 24  2  0
M  END
$$$$
