HNT.pdb
     RDKit          3D

 26 26  0  0  1  0  0  0  0  0999 V2000
    8.5435  -16.7744   19.6364 N   0  0  0  0  0  0  0  0  0  0  0  0
    8.4652  -15.7318   20.6103 C   0  0  1  0  0  0  0  0  0  0  0  0
    7.3906  -14.7083   20.3298 C   0  0  0  0  0  0  0  0  0  0  0  0
    7.6817  -14.0906   19.0220 C   0  0  0  0  0  0  0  0  0  0  0  0
    8.5083  -13.0158   18.7952 C   0  0  0  0  0  0  0  0  0  0  0  0
    8.5038  -12.7641   17.4860 N   0  0  0  0  0  0  0  0  0  0  0  0
    7.6985  -13.6509   16.8900 C   0  0  0  0  0  0  0  0  0  0  0  0
    7.1917  -14.4678   17.8330 N   0  0  0  0  0  0  0  0  0  0  0  0
    8.3020  -16.2566   22.0199 C   0  0  0  0  0  0  0  0  0  0  0  0
    7.2052  -16.7675   22.2764 O   0  0  0  0  0  0  0  0  0  0  0  0
    9.3900  -18.7211   26.7969 N   0  0  0  0  0  0  0  0  0  0  0  0
   10.3734  -17.9433   26.1556 C   0  0  0  0  0  0  0  0  0  0  0  0
   11.3359  -17.5044   26.8660 O   0  0  0  0  0  0  0  0  0  0  0  0
   10.2504  -17.6780   24.7294 C   0  0  0  0  0  0  0  0  0  0  0  0
    9.3401  -16.5243   24.3541 C   0  0  2  0  0  0  0  0  0  0  0  0
    9.3212  -16.1697   22.9681 N   0  0  0  0  0  0  0  0  0  0  0  0
    9.5215  -15.4210   25.2977 C   0  0  0  0  0  0  0  0  0  0  0  0
   10.6400  -14.8123   25.3821 O   0  0  0  0  0  0  0  0  0  0  0  0
    7.2091  -12.2240   26.1301 C   0  0  0  0  0  0  0  0  0  0  0  0
    7.4869  -13.0907   27.3433 C   0  0  1  0  0  0  0  0  0  0  0  0
    6.4019  -13.9280   27.5606 O   0  0  0  0  0  0  0  0  0  0  0  0
    8.7628  -13.8771   27.1114 C   0  0  2  0  0  0  0  0  0  0  0  0
    8.4944  -14.9537   26.1681 N   0  0  0  0  0  0  0  0  0  0  0  0
    9.1954  -14.4232   28.4155 C   0  0  0  0  0  0  0  0  0  0  0  0
    9.6007  -13.6302   29.4755 O   0  0  0  0  0  0  0  0  0  0  0  0
    9.1957  -15.6686   28.5713 O   0  0  0  0  0  0  0  0  0  0  0  0
  2  3  1  0
  2  9  1  0
  2  1  1  6
  4  5  2  0
  4  3  1  0
  6  5  1  0
  7  8  2  0
  7  6  1  0
  8  4  1  0
  9 16  1  0
 10  9  2  0
 12 14  1  0
 12 11  1  0
 13 12  2  0
 15 14  1  6
 16 15  1  0
 17 23  1  0
 17 15  1  0
 18 17  2  0
 20 19  1  6
 20 22  1  0
 21 20  1  0
 22 24  1  0
 22 23  1  6
 24 25  1  0
 26 24  2  0
M  END
$$$$
