HNT.pdb
     RDKit          3D

 26 26  0  0  1  0  0  0  0  0999 V2000
    9.6204  -17.1136   15.5950 N   0  0  0  0  0  0  0  0  0  0  0  0
    9.9181  -16.2635   16.7042 C   0  0  1  0  0  0  0  0  0  0  0  0
    8.7407  -15.4516   17.1896 C   0  0  0  0  0  0  0  0  0  0  0  0
    8.2651  -14.6237   16.0650 C   0  0  0  0  0  0  0  0  0  0  0  0
    8.6570  -13.3376   15.7780 C   0  0  0  0  0  0  0  0  0  0  0  0
    7.9994  -12.9422   14.6877 N   0  0  0  0  0  0  0  0  0  0  0  0
    7.2090  -13.9444   14.2867 C   0  0  0  0  0  0  0  0  0  0  0  0
    7.3708  -14.9797   15.1324 N   0  0  0  0  0  0  0  0  0  0  0  0
   10.5263  -17.0115   17.8701 C   0  0  0  0  0  0  0  0  0  0  0  0
    9.8130  -17.8875   18.3738 O   0  0  0  0  0  0  0  0  0  0  0  0
   13.6448  -19.6914   17.7373 N   0  0  0  0  0  0  0  0  0  0  0  0
   14.2737  -18.4359   17.8445 C   0  0  0  0  0  0  0  0  0  0  0  0
   15.0278  -18.0688   16.8853 O   0  0  0  0  0  0  0  0  0  0  0  0
   14.0386  -17.6228   19.0291 C   0  0  0  0  0  0  0  0  0  0  0  0
   12.5828  -17.3650   19.3680 C   0  0  2  0  0  0  0  0  0  0  0  0
   11.8070  -16.7316   18.3463 N   0  0  0  0  0  0  0  0  0  0  0  0
   12.4797  -16.7844   20.7069 C   0  0  0  0  0  0  0  0  0  0  0  0
   13.1141  -15.7183   21.0060 O   0  0  0  0  0  0  0  0  0  0  0  0
    9.3027  -15.8289   22.7762 C   0  0  0  0  0  0  0  0  0  0  0  0
   10.1804  -16.7849   23.5611 C   0  0  1  0  0  0  0  0  0  0  0  0
    9.6752  -18.0712   23.4359 O   0  0  0  0  0  0  0  0  0  0  0  0
   11.6038  -16.6902   23.0463 C   0  0  2  0  0  0  0  0  0  0  0  0
   11.6859  -17.3462   21.7487 N   0  0  0  0  0  0  0  0  0  0  0  0
   12.4806  -17.3648   24.0273 C   0  0  0  0  0  0  0  0  0  0  0  0
   13.2348  -18.4866   23.7280 O   0  0  0  0  0  0  0  0  0  0  0  0
   12.5457  -16.8981   25.1905 O   0  0  0  0  0  0  0  0  0  0  0  0
  2  3  1  0
  2  9  1  0
  2  1  1  6
  4  5  2  0
  4  3  1  0
  6  5  1  0
  7  8  2  0
  7  6  1  0
  8  4  1  0
  9 16  1  0
 10  9  2  0
 12 14  1  0
 12 11  1  0
 13 12  2  0
 15 14  1  6
 16 15  1  0
 17 23  1  0
 17 15  1  0
 18 17  2  0
 20 19  1  6
 20 22  1  0
 21 20  1  0
 22 24  1  0
 22 23  1  6
 24 25  1  0
 26 24  2  0
M  END
$$$$
