HNT.pdb
     RDKit          3D

 26 26  0  0  1  0  0  0  0  0999 V2000
    8.9587  -16.8601   19.7603 N   0  0  0  0  0  0  0  0  0  0  0  0
    8.4495  -15.6999   20.4207 C   0  0  1  0  0  0  0  0  0  0  0  0
    7.2251  -15.1070   19.7645 C   0  0  0  0  0  0  0  0  0  0  0  0
    7.6514  -14.4567   18.5108 C   0  0  0  0  0  0  0  0  0  0  0  0
    8.9427  -14.3341   18.0554 C   0  0  0  0  0  0  0  0  0  0  0  0
    8.9070  -13.6855   16.8911 N   0  0  0  0  0  0  0  0  0  0  0  0
    7.6310  -13.4004   16.6073 C   0  0  0  0  0  0  0  0  0  0  0  0
    6.8569  -13.8738   17.6023 N   0  0  0  0  0  0  0  0  0  0  0  0
    8.1670  -15.9364   21.8881 C   0  0  0  0  0  0  0  0  0  0  0  0
    6.9764  -15.8828   22.2186 O   0  0  0  0  0  0  0  0  0  0  0  0
   11.1038  -18.0541   26.8577 N   0  0  0  0  0  0  0  0  0  0  0  0
    9.9271  -17.9601   26.0896 C   0  0  0  0  0  0  0  0  0  0  0  0
    8.8181  -18.1764   26.6785 O   0  0  0  0  0  0  0  0  0  0  0  0
   10.0266  -17.6246   24.6763 C   0  0  0  0  0  0  0  0  0  0  0  0
    9.1219  -16.5024   24.2045 C   0  0  2  0  0  0  0  0  0  0  0  0
    9.1824  -16.1975   22.8079 N   0  0  0  0  0  0  0  0  0  0  0  0
    9.2263  -15.3633   25.1166 C   0  0  0  0  0  0  0  0  0  0  0  0
   10.2992  -14.6753   25.1806 O   0  0  0  0  0  0  0  0  0  0  0  0
    6.5640  -12.4212   25.7548 C   0  0  0  0  0  0  0  0  0  0  0  0
    6.9809  -13.1195   27.0350 C   0  0  1  0  0  0  0  0  0  0  0  0
    6.0102  -14.0485   27.3817 O   0  0  0  0  0  0  0  0  0  0  0  0
    8.3330  -13.7742   26.8270 C   0  0  2  0  0  0  0  0  0  0  0  0
    8.1698  -14.9453   25.9769 N   0  0  0  0  0  0  0  0  0  0  0  0
    8.8510  -14.1636   28.1560 C   0  0  0  0  0  0  0  0  0  0  0  0
    9.1849  -13.2488   29.1400 O   0  0  0  0  0  0  0  0  0  0  0  0
    8.9958  -15.3849   28.4064 O   0  0  0  0  0  0  0  0  0  0  0  0
  2  3  1  0
  2  9  1  0
  2  1  1  6
  4  5  2  0
  4  3  1  0
  6  5  1  0
  7  8  2  0
  7  6  1  0
  8  4  1  0
  9 16  1  0
 10  9  2  0
 12 14  1  0
 12 11  1  0
 13 12  2  0
 15 14  1  1
 16 15  1  0
 17 23  1  0
 17 15  1  0
 18 17  2  0
 20 19  1  6
 20 22  1  0
 21 20  1  0
 22 24  1  0
 22 23  1  6
 24 25  1  0
 26 24  2  0
M  END
$$$$
