HNT.pdb
     RDKit          3D

 26 26  0  0  1  0  0  0  0  0999 V2000
    9.5888  -15.6026   19.7617 N   0  0  0  0  0  0  0  0  0  0  0  0
    8.5621  -14.8584   20.4203 C   0  0  1  0  0  0  0  0  0  0  0  0
    7.2470  -14.8359   19.6781 C   0  0  0  0  0  0  0  0  0  0  0  0
    7.5150  -14.4098   18.2914 C   0  0  0  0  0  0  0  0  0  0  0  0
    7.9936  -13.1837   17.8944 C   0  0  0  0  0  0  0  0  0  0  0  0
    8.0965  -13.1944   16.5652 N   0  0  0  0  0  0  0  0  0  0  0  0
    7.6961  -14.3916   16.1220 C   0  0  0  0  0  0  0  0  0  0  0  0
    7.3379  -15.1408   17.1820 N   0  0  0  0  0  0  0  0  0  0  0  0
    8.3271  -15.3153   21.8433 C   0  0  0  0  0  0  0  0  0  0  0  0
    7.2152  -15.0471   22.3140 O   0  0  0  0  0  0  0  0  0  0  0  0
   11.3462  -19.1389   22.8514 N   0  0  0  0  0  0  0  0  0  0  0  0
   10.2428  -18.6798   23.5964 C   0  0  0  0  0  0  0  0  0  0  0  0
    9.1876  -19.3940   23.5909 O   0  0  0  0  0  0  0  0  0  0  0  0
   10.3533  -17.4274   24.3306 C   0  0  0  0  0  0  0  0  0  0  0  0
    9.3424  -16.3593   23.9592 C   0  0  2  0  0  0  0  0  0  0  0  0
    9.3003  -15.9939   22.5765 N   0  0  0  0  0  0  0  0  0  0  0  0
    9.4140  -15.2538   24.9147 C   0  0  0  0  0  0  0  0  0  0  0  0
   10.4088  -14.4545   24.9139 O   0  0  0  0  0  0  0  0  0  0  0  0
    7.1783  -12.2471   25.5948 C   0  0  0  0  0  0  0  0  0  0  0  0
    7.2764  -13.0808   26.8580 C   0  0  1  0  0  0  0  0  0  0  0  0
    6.1612  -13.9017   26.9474 O   0  0  0  0  0  0  0  0  0  0  0  0
    8.5619  -13.8849   26.8249 C   0  0  2  0  0  0  0  0  0  0  0  0
    8.4084  -14.9907   25.8897 N   0  0  0  0  0  0  0  0  0  0  0  0
    8.8094  -14.3900   28.1924 C   0  0  0  0  0  0  0  0  0  0  0  0
    9.0218  -13.5626   29.2819 O   0  0  0  0  0  0  0  0  0  0  0  0
    8.8279  -15.6313   28.3765 O   0  0  0  0  0  0  0  0  0  0  0  0
  2  3  1  0
  2  9  1  0
  2  1  1  6
  4  5  2  0
  4  3  1  0
  6  5  1  0
  7  8  2  0
  7  6  1  0
  8  4  1  0
  9 16  1  0
 10  9  2  0
 12 14  1  0
 12 11  1  0
 13 12  2  0
 15 14  1  6
 16 15  1  0
 17 23  1  0
 17 15  1  0
 18 17  2  0
 20 19  1  6
 20 22  1  0
 21 20  1  0
 22 24  1  0
 22 23  1  6
 24 25  1  0
 26 24  2  0
M  END
$$$$
