HNT.pdb
     RDKit          3D

 26 26  0  0  1  0  0  0  0  0999 V2000
   10.3832  -15.4857   20.4766 N   0  0  0  0  0  0  0  0  0  0  0  0
    9.3004  -15.0918   21.3217 C   0  0  1  0  0  0  0  0  0  0  0  0
    7.9445  -15.1736   20.6616 C   0  0  0  0  0  0  0  0  0  0  0  0
    7.9498  -14.2659   19.4985 C   0  0  0  0  0  0  0  0  0  0  0  0
    9.0308  -13.5671   19.0160 C   0  0  0  0  0  0  0  0  0  0  0  0
    8.6254  -12.8630   17.9590 N   0  0  0  0  0  0  0  0  0  0  0  0
    7.3230  -13.1026   17.7685 C   0  0  0  0  0  0  0  0  0  0  0  0
    6.9053  -13.9653   18.7144 N   0  0  0  0  0  0  0  0  0  0  0  0
    9.2687  -15.8536   22.6284 C   0  0  0  0  0  0  0  0  0  0  0  0
    8.3137  -15.5995   23.3722 O   0  0  0  0  0  0  0  0  0  0  0  0
   11.6408  -20.0749   22.0451 N   0  0  0  0  0  0  0  0  0  0  0  0
   10.8342  -19.7258   23.1455 C   0  0  0  0  0  0  0  0  0  0  0  0
    9.7021  -20.3003   23.2543 O   0  0  0  0  0  0  0  0  0  0  0  0
   11.3213  -18.7381   24.0979 C   0  0  0  0  0  0  0  0  0  0  0  0
   10.4985  -17.4683   24.2027 C   0  0  2  0  0  0  0  0  0  0  0  0
   10.2519  -16.7812   22.9722 N   0  0  0  0  0  0  0  0  0  0  0  0
   10.9897  -16.6480   25.3101 C   0  0  0  0  0  0  0  0  0  0  0  0
   12.0308  -15.9228   25.1727 O   0  0  0  0  0  0  0  0  0  0  0  0
    8.7174  -14.6191   27.6699 C   0  0  0  0  0  0  0  0  0  0  0  0
   10.2183  -14.4076   27.6178 C   0  0  1  0  0  0  0  0  0  0  0  0
   10.6020  -13.6137   28.6893 O   0  0  0  0  0  0  0  0  0  0  0  0
   10.9120  -15.7561   27.6440 C   0  0  2  0  0  0  0  0  0  0  0  0
   10.3622  -16.5954   26.5885 N   0  0  0  0  0  0  0  0  0  0  0  0
   10.6663  -16.3603   28.9709 C   0  0  0  0  0  0  0  0  0  0  0  0
   11.2420  -15.8903   30.1390 O   0  0  0  0  0  0  0  0  0  0  0  0
    9.8969  -17.3492   29.0439 O   0  0  0  0  0  0  0  0  0  0  0  0
  2  3  1  0
  2  9  1  0
  2  1  1  6
  4  5  2  0
  4  3  1  0
  6  5  1  0
  7  8  2  0
  7  6  1  0
  8  4  1  0
  9 16  1  0
 10  9  2  0
 12 14  1  0
 12 11  1  0
 13 12  2  0
 15 14  1  6
 16 15  1  0
 17 23  1  0
 17 15  1  0
 18 17  2  0
 20 19  1  1
 20 22  1  0
 21 20  1  0
 22 24  1  0
 22 23  1  6
 24 25  1  0
 26 24  2  0
M  END
$$$$
