HNT.pdb
     RDKit          3D

 26 26  0  0  1  0  0  0  0  0999 V2000
    9.3852  -15.5520   20.4410 N   0  0  0  0  0  0  0  0  0  0  0  0
    8.2224  -14.8689   20.9132 C   0  0  1  0  0  0  0  0  0  0  0  0
    7.0408  -14.9469   19.9757 C   0  0  0  0  0  0  0  0  0  0  0  0
    7.4649  -14.4190   18.6650 C   0  0  0  0  0  0  0  0  0  0  0  0
    7.8130  -15.1620   17.5619 C   0  0  0  0  0  0  0  0  0  0  0  0
    8.1347  -14.3163   16.5828 N   0  0  0  0  0  0  0  0  0  0  0  0
    7.9972  -13.0677   17.0433 C   0  0  0  0  0  0  0  0  0  0  0  0
    7.5853  -13.1285   18.3240 N   0  0  0  0  0  0  0  0  0  0  0  0
    7.7976  -15.3187   22.2938 C   0  0  0  0  0  0  0  0  0  0  0  0
    6.8082  -14.7433   22.7626 O   0  0  0  0  0  0  0  0  0  0  0  0
    6.5683  -18.9433   26.2988 N   0  0  0  0  0  0  0  0  0  0  0  0
    7.8721  -18.8260   25.7797 C   0  0  0  0  0  0  0  0  0  0  0  0
    8.8407  -19.1768   26.5297 O   0  0  0  0  0  0  0  0  0  0  0  0
    8.0551  -18.3167   24.4280 C   0  0  0  0  0  0  0  0  0  0  0  0
    8.2893  -16.8223   24.3175 C   0  0  2  0  0  0  0  0  0  0  0  0
    8.4772  -16.3164   22.9924 N   0  0  0  0  0  0  0  0  0  0  0  0
    9.2740  -16.3987   25.3132 C   0  0  0  0  0  0  0  0  0  0  0  0
   10.5241  -16.4812   25.0702 O   0  0  0  0  0  0  0  0  0  0  0  0
    9.2254  -12.9984   27.1713 C   0  0  0  0  0  0  0  0  0  0  0  0
    9.4105  -14.1142   28.1818 C   0  0  1  0  0  0  0  0  0  0  0  0
    8.1948  -14.3738   28.7984 O   0  0  0  0  0  0  0  0  0  0  0  0
    9.9524  -15.3414   27.4744 C   0  0  2  0  0  0  0  0  0  0  0  0
    8.9244  -15.8757   26.5920 N   0  0  0  0  0  0  0  0  0  0  0  0
   10.3154  -16.3317   28.5106 C   0  0  0  0  0  0  0  0  0  0  0  0
   11.3222  -16.1270   29.4387 O   0  0  0  0  0  0  0  0  0  0  0  0
    9.6797  -17.4130   28.5524 O   0  0  0  0  0  0  0  0  0  0  0  0
  2  3  1  0
  2  9  1  0
  2  1  1  6
  4  5  2  0
  4  3  1  0
  6  5  1  0
  7  8  2  0
  7  6  1  0
  8  4  1  0
  9 16  1  0
 10  9  2  0
 12 14  1  0
 12 11  1  0
 13 12  2  0
 15 14  1  6
 16 15  1  0
 17 23  1  0
 17 15  1  0
 18 17  2  0
 20 19  1  6
 20 22  1  0
 21 20  1  0
 22 24  1  0
 22 23  1  6
 24 25  1  0
 26 24  2  0
M  END
$$$$
