PLP.pdb
     RDKit          3D

 23 24  0  0  1  0  0  0  0  0999 V2000
   28.9156  -19.8688  -16.7083 N   0  0  0  0  0  0  0  0  0  0  0  0
   29.3173  -18.7654  -17.5653 C   0  0  0  0  0  0  0  0  0  0  0  0
   28.2726  -17.6873  -17.3900 C   0  0  0  0  0  0  0  0  0  0  0  0
   27.3701  -18.2228  -16.2932 C   0  0  0  0  0  0  0  0  0  0  0  0
   28.2788  -19.2060  -15.6123 C   0  0  1  0  0  0  0  0  0  0  0  0
   27.5517  -20.1356  -14.7139 C   0  0  0  0  0  0  0  0  0  0  0  0
   27.1709  -21.2431  -15.1739 O   0  0  0  0  0  0  0  0  0  0  0  0
   26.0811  -20.9305   -8.6963 C   0  0  0  0  0  0  0  0  0  0  0  0
   25.7309  -21.0798  -10.1212 C   0  0  1  0  0  0  0  0  0  0  0  0
   24.2380  -20.7122  -10.2398 C   0  0  0  0  0  0  0  0  0  0  0  0
   26.5319  -20.4437  -11.1655 C   0  0  0  0  0  0  0  0  0  0  0  0
   26.2545  -20.6202  -12.6127 C   0  0  2  0  0  0  0  0  0  0  0  0
   27.2667  -19.8386  -13.3708 N   0  0  0  0  0  0  0  0  0  0  0  0
   24.9018  -20.3885  -13.0679 C   0  0  0  0  0  0  0  0  0  0  0  0
   24.4135  -19.1964  -13.0194 O   0  0  0  0  0  0  0  0  0  0  0  0
   23.9729  -21.3411  -13.5949 N   0  0  0  0  0  0  0  0  0  0  0  0
   24.1574  -22.7412  -13.7172 C   0  0  0  0  0  0  0  0  0  0  0  0
   22.7718  -23.2918  -14.0409 C   0  0  0  0  0  0  0  0  0  0  0  0
   22.1680  -22.1782  -14.8732 C   0  0  0  0  0  0  0  0  0  0  0  0
   22.6484  -20.9589  -14.1114 C   0  0  1  0  0  0  0  0  0  0  0  0
   21.7070  -20.7116  -13.0065 C   0  0  0  0  0  0  0  0  0  0  0  0
   20.5251  -20.0553  -13.2530 O   0  0  0  0  0  0  0  0  0  0  0  0
   21.9768  -21.0933  -11.8547 O   0  0  0  0  0  0  0  0  0  0  0  0
  2  3  1  0
  2  1  1  0
  3  4  1  0
  5  4  1  0
  5  1  1  0
  5  6  1  6
  6  7  2  0
  9  8  1  1
  9 10  1  0
 11  9  1  0
 12 11  1  1
 12 14  1  0
 13  6  1  0
 13 12  1  0
 14 15  2  0
 16 14  1  0
 16 17  1  0
 17 18  1  0
 19 18  1  0
 20 16  1  0
 20 19  1  0
 21 22  1  0
 20 21  1  1
 23 21  2  0
M  END
$$$$
