PLP.pdb
     RDKit          3D

 23 24  0  0  1  0  0  0  0  0999 V2000
   25.9451  -19.6419  -11.6391 N   0  0  0  0  0  0  0  0  0  0  0  0
   25.9323  -19.6215  -13.0926 C   0  0  0  0  0  0  0  0  0  0  0  0
   27.0517  -20.5325  -13.5416 C   0  0  0  0  0  0  0  0  0  0  0  0
   27.5710  -21.1422  -12.2521 C   0  0  0  0  0  0  0  0  0  0  0  0
   26.3883  -20.9691  -11.3425 C   0  0  1  0  0  0  0  0  0  0  0  0
   26.7288  -21.1622   -9.9119 C   0  0  0  0  0  0  0  0  0  0  0  0
   26.9646  -22.3279   -9.5011 O   0  0  0  0  0  0  0  0  0  0  0  0
   29.6895  -18.3073   -5.4032 C   0  0  0  0  0  0  0  0  0  0  0  0
   28.7910  -19.3933   -5.8374 C   0  0  1  0  0  0  0  0  0  0  0  0
   27.8126  -19.6369   -4.6707 C   0  0  0  0  0  0  0  0  0  0  0  0
   28.0986  -19.3306   -7.1233 C   0  0  0  0  0  0  0  0  0  0  0  0
   27.1179  -20.3553   -7.5603 C   0  0  2  0  0  0  0  0  0  0  0  0
   26.8011  -20.1040   -8.9909 N   0  0  0  0  0  0  0  0  0  0  0  0
   25.9399  -20.5454   -6.7436 C   0  0  0  0  0  0  0  0  0  0  0  0
   24.9830  -19.6838   -6.8034 O   0  0  0  0  0  0  0  0  0  0  0  0
   25.6639  -21.6097   -5.8276 N   0  0  0  0  0  0  0  0  0  0  0  0
   26.5734  -22.5853   -5.3477 C   0  0  0  0  0  0  0  0  0  0  0  0
   25.8459  -23.2629   -4.1903 C   0  0  0  0  0  0  0  0  0  0  0  0
   24.4023  -23.2273   -4.6511 C   0  0  0  0  0  0  0  0  0  0  0  0
   24.3281  -21.8379   -5.2525 C   0  0  1  0  0  0  0  0  0  0  0  0
   24.0567  -20.8840   -4.1641 C   0  0  0  0  0  0  0  0  0  0  0  0
   22.7928  -20.8003   -3.6315 O   0  0  0  0  0  0  0  0  0  0  0  0
   24.9644  -20.1561   -3.7267 O   0  0  0  0  0  0  0  0  0  0  0  0
  2  3  1  0
  2  1  1  0
  3  4  1  0
  5  4  1  0
  5  1  1  0
  5  6  1  1
  6  7  2  0
  9  8  1  1
  9 10  1  0
 11  9  1  0
 12 11  1  1
 12 14  1  0
 13  6  1  0
 13 12  1  0
 14 15  2  0
 16 14  1  0
 16 17  1  0
 17 18  1  0
 19 18  1  0
 20 16  1  0
 20 19  1  0
 21 22  1  0
 20 21  1  1
 23 21  2  0
M  END
$$$$
