PLP.pdb
     RDKit          3D

 23 24  0  0  1  0  0  0  0  0999 V2000
   25.8896  -19.3677  -11.7315 N   0  0  0  0  0  0  0  0  0  0  0  0
   25.9082  -19.2870  -13.1828 C   0  0  0  0  0  0  0  0  0  0  0  0
   26.5942  -20.5423  -13.6709 C   0  0  0  0  0  0  0  0  0  0  0  0
   26.8166  -21.3557  -12.4087 C   0  0  0  0  0  0  0  0  0  0  0  0
   25.7794  -20.7735  -11.4916 C   0  0  1  0  0  0  0  0  0  0  0  0
   25.9963  -21.1396  -10.0707 C   0  0  0  0  0  0  0  0  0  0  0  0
   25.7205  -22.3104   -9.7016 O   0  0  0  0  0  0  0  0  0  0  0  0
   28.1236  -20.2807   -4.6582 C   0  0  0  0  0  0  0  0  0  0  0  0
   28.0194  -19.4264   -5.8560 C   0  0  1  0  0  0  0  0  0  0  0  0
   29.1730  -18.4075   -5.7615 C   0  0  0  0  0  0  0  0  0  0  0  0
   27.9180  -20.0102   -7.1923 C   0  0  0  0  0  0  0  0  0  0  0  0
   26.6797  -20.6530   -7.6981 C   0  0  2  0  0  0  0  0  0  0  0  0
   26.4961  -20.2400   -9.1145 N   0  0  0  0  0  0  0  0  0  0  0  0
   25.4791  -20.5091   -6.9053 C   0  0  0  0  0  0  0  0  0  0  0  0
   24.8137  -19.4064   -6.9595 O   0  0  0  0  0  0  0  0  0  0  0  0
   24.8868  -21.4647   -6.0198 N   0  0  0  0  0  0  0  0  0  0  0  0
   25.4197  -22.7197   -5.6322 C   0  0  0  0  0  0  0  0  0  0  0  0
   24.5475  -23.1716   -4.4648 C   0  0  0  0  0  0  0  0  0  0  0  0
   23.1890  -22.6149   -4.8420 C   0  0  0  0  0  0  0  0  0  0  0  0
   23.5779  -21.2523   -5.3807 C   0  0  1  0  0  0  0  0  0  0  0  0
   23.6957  -20.3282   -4.2404 C   0  0  0  0  0  0  0  0  0  0  0  0
   22.5605  -19.8342   -3.6441 O   0  0  0  0  0  0  0  0  0  0  0  0
   24.8155  -19.9941   -3.8165 O   0  0  0  0  0  0  0  0  0  0  0  0
  2  3  1  0
  2  1  1  0
  3  4  1  0
  5  4  1  0
  5  1  1  0
  5  6  1  1
  6  7  2  0
  9  8  1  1
  9 10  1  0
 11  9  1  0
 12 11  1  1
 12 14  1  0
 13  6  1  0
 13 12  1  0
 14 15  2  0
 16 14  1  0
 16 17  1  0
 17 18  1  0
 19 18  1  0
 20 16  1  0
 20 19  1  0
 21 22  1  0
 20 21  1  1
 23 21  2  0
M  END
$$$$
