PLP.pdb
     RDKit          3D

 23 24  0  0  1  0  0  0  0  0999 V2000
   26.3528  -21.0579  -11.8173 N   0  0  0  0  0  0  0  0  0  0  0  0
   25.3965  -20.6919  -12.8491 C   0  0  0  0  0  0  0  0  0  0  0  0
   24.1083  -20.3518  -12.1352 C   0  0  0  0  0  0  0  0  0  0  0  0
   24.4717  -20.4256  -10.6632 C   0  0  0  0  0  0  0  0  0  0  0  0
   25.9610  -20.2369  -10.7135 C   0  0  1  0  0  0  0  0  0  0  0  0
   26.6320  -20.6101   -9.4444 C   0  0  0  0  0  0  0  0  0  0  0  0
   26.9205  -21.8191   -9.2487 O   0  0  0  0  0  0  0  0  0  0  0  0
   30.2784  -18.4575   -5.0071 C   0  0  0  0  0  0  0  0  0  0  0  0
   29.1206  -19.3079   -5.3412 C   0  0  1  0  0  0  0  0  0  0  0  0
   28.1783  -19.2532   -4.1218 C   0  0  0  0  0  0  0  0  0  0  0  0
   28.3941  -19.1335   -6.5977 C   0  0  0  0  0  0  0  0  0  0  0  0
   27.4073  -20.1213   -7.1008 C   0  0  2  0  0  0  0  0  0  0  0  0
   26.9618  -19.6768   -8.4477 N   0  0  0  0  0  0  0  0  0  0  0  0
   26.3097  -20.4746   -6.2284 C   0  0  0  0  0  0  0  0  0  0  0  0
   25.2694  -19.7147   -6.1811 O   0  0  0  0  0  0  0  0  0  0  0  0
   26.2015  -21.6079   -5.3613 N   0  0  0  0  0  0  0  0  0  0  0  0
   27.2286  -22.5191   -5.0093 C   0  0  0  0  0  0  0  0  0  0  0  0
   26.6567  -23.3230   -3.8455 C   0  0  0  0  0  0  0  0  0  0  0  0
   25.1840  -23.3971   -4.1968 C   0  0  0  0  0  0  0  0  0  0  0  0
   24.9402  -21.9901   -4.7054 C   0  0  1  0  0  0  0  0  0  0  0  0
   24.6711  -21.1258   -3.5441 C   0  0  0  0  0  0  0  0  0  0  0  0
   23.4149  -21.1047   -2.9876 O   0  0  0  0  0  0  0  0  0  0  0  0
   25.5739  -20.4172   -3.0665 O   0  0  0  0  0  0  0  0  0  0  0  0
  2  3  1  0
  2  1  1  0
  3  4  1  0
  5  4  1  0
  5  1  1  0
  5  6  1  1
  6  7  2  0
  9  8  1  1
  9 10  1  0
 11  9  1  0
 12 11  1  1
 12 14  1  0
 13  6  1  0
 13 12  1  0
 14 15  2  0
 16 14  1  0
 16 17  1  0
 17 18  1  0
 19 18  1  0
 20 16  1  0
 20 19  1  0
 21 22  1  0
 20 21  1  1
 23 21  2  0
M  END
$$$$
