PLP.pdb
     RDKit          3D

 23 24  0  0  1  0  0  0  0  0999 V2000
   26.1541  -20.1350  -10.6189 N   0  0  0  0  0  0  0  0  0  0  0  0
   25.9754  -20.2730  -12.0549 C   0  0  0  0  0  0  0  0  0  0  0  0
   27.2240  -20.9459  -12.5772 C   0  0  0  0  0  0  0  0  0  0  0  0
   28.0145  -21.2797  -11.3250 C   0  0  0  0  0  0  0  0  0  0  0  0
   26.9334  -21.2862  -10.2823 C   0  0  1  0  0  0  0  0  0  0  0  0
   27.4671  -21.2428   -8.8991 C   0  0  0  0  0  0  0  0  0  0  0  0
   27.9419  -22.2974   -8.4035 O   0  0  0  0  0  0  0  0  0  0  0  0
   28.8556  -18.2400   -4.0828 C   0  0  0  0  0  0  0  0  0  0  0  0
   29.5806  -18.6131   -5.3118 C   0  0  1  0  0  0  0  0  0  0  0  0
   30.5321  -19.7616   -4.9203 C   0  0  0  0  0  0  0  0  0  0  0  0
   28.8635  -18.9006   -6.5528 C   0  0  0  0  0  0  0  0  0  0  0  0
   27.9972  -20.0933   -6.7241 C   0  0  2  0  0  0  0  0  0  0  0  0
   27.4683  -20.0782   -8.1135 N   0  0  0  0  0  0  0  0  0  0  0  0
   26.9731  -20.3250   -5.7300 C   0  0  0  0  0  0  0  0  0  0  0  0
   25.8318  -19.7377   -5.8489 O   0  0  0  0  0  0  0  0  0  0  0  0
   27.0436  -21.1579   -4.5684 N   0  0  0  0  0  0  0  0  0  0  0  0
   28.2010  -21.7592   -4.0136 C   0  0  0  0  0  0  0  0  0  0  0  0
   27.7609  -22.2647   -2.6430 C   0  0  0  0  0  0  0  0  0  0  0  0
   26.3193  -22.6610   -2.8926 C   0  0  0  0  0  0  0  0  0  0  0  0
   25.8572  -21.5184   -3.7750 C   0  0  1  0  0  0  0  0  0  0  0  0
   25.4521  -20.4036   -2.9024 C   0  0  0  0  0  0  0  0  0  0  0  0
   26.3120  -19.3513   -2.6987 O   0  0  0  0  0  0  0  0  0  0  0  0
   24.3381  -20.4111   -2.3509 O   0  0  0  0  0  0  0  0  0  0  0  0
  2  3  1  0
  2  1  1  0
  3  4  1  0
  5  4  1  0
  5  1  1  0
  5  6  1  1
  6  7  2  0
  9  8  1  1
  9 10  1  0
 11  9  1  0
 12 11  1  1
 12 14  1  0
 13  6  1  0
 13 12  1  0
 14 15  2  0
 16 14  1  0
 16 17  1  0
 17 18  1  0
 19 18  1  0
 20 16  1  0
 20 19  1  0
 21 22  1  0
 20 21  1  1
 23 21  2  0
M  END
$$$$
