PLP.pdb
     RDKit          3D

 23 24  0  0  1  0  0  0  0  0999 V2000
   26.4447  -19.7798  -12.2481 N   0  0  0  0  0  0  0  0  0  0  0  0
   26.8564  -19.8724  -13.6392 C   0  0  0  0  0  0  0  0  0  0  0  0
   28.0189  -20.8378  -13.6764 C   0  0  0  0  0  0  0  0  0  0  0  0
   28.1141  -21.3557  -12.2527 C   0  0  0  0  0  0  0  0  0  0  0  0
   26.7262  -21.0886  -11.7443 C   0  0  1  0  0  0  0  0  0  0  0  0
   26.6271  -21.1766  -10.2670 C   0  0  0  0  0  0  0  0  0  0  0  0
   26.6502  -22.3136   -9.7287 O   0  0  0  0  0  0  0  0  0  0  0  0
   28.5575  -18.4692   -5.2889 C   0  0  0  0  0  0  0  0  0  0  0  0
   28.3441  -19.2664   -6.5113 C   0  0  1  0  0  0  0  0  0  0  0  0
   28.5156  -20.7426   -6.0996 C   0  0  0  0  0  0  0  0  0  0  0  0
   27.1589  -19.0685   -7.3436 C   0  0  0  0  0  0  0  0  0  0  0  0
   26.4119  -20.1925   -7.9610 C   0  0  2  0  0  0  0  0  0  0  0  0
   26.5085  -20.0491   -9.4376 N   0  0  0  0  0  0  0  0  0  0  0  0
   25.0619  -20.4312   -7.5016 C   0  0  0  0  0  0  0  0  0  0  0  0
   24.1228  -19.6188   -7.8481 O   0  0  0  0  0  0  0  0  0  0  0  0
   24.5875  -21.4969   -6.6726 N   0  0  0  0  0  0  0  0  0  0  0  0
   25.3540  -22.5400   -6.0951 C   0  0  0  0  0  0  0  0  0  0  0  0
   24.4211  -23.1967   -5.0821 C   0  0  0  0  0  0  0  0  0  0  0  0
   23.0682  -23.0575   -5.7513 C   0  0  0  0  0  0  0  0  0  0  0  0
   23.1691  -21.6523   -6.3108 C   0  0  1  0  0  0  0  0  0  0  0  0
   22.7943  -20.7090   -5.2441 C   0  0  0  0  0  0  0  0  0  0  0  0
   21.4692  -20.5313   -4.9268 O   0  0  0  0  0  0  0  0  0  0  0  0
   23.6702  -20.0746   -4.6312 O   0  0  0  0  0  0  0  0  0  0  0  0
  2  3  1  0
  2  1  1  0
  3  4  1  0
  5  4  1  0
  5  1  1  0
  5  6  1  1
  6  7  2  0
  9  8  1  1
  9 10  1  0
 11  9  1  0
 12 11  1  1
 12 14  1  0
 13  6  1  0
 13 12  1  0
 14 15  2  0
 16 14  1  0
 16 17  1  0
 17 18  1  0
 19 18  1  0
 20 16  1  0
 20 19  1  0
 21 22  1  0
 20 21  1  1
 23 21  2  0
M  END
$$$$
