PLP.pdb
     RDKit          3D

 23 24  0  0  1  0  0  0  0  0999 V2000
   28.1083  -17.3571  -16.7272 N   0  0  0  0  0  0  0  0  0  0  0  0
   27.9055  -16.1703  -17.5417 C   0  0  0  0  0  0  0  0  0  0  0  0
   26.4230  -15.8777  -17.5072 C   0  0  0  0  0  0  0  0  0  0  0  0
   25.8697  -16.8914  -16.5221 C   0  0  0  0  0  0  0  0  0  0  0  0
   27.0958  -17.2327  -15.7245 C   0  0  1  0  0  0  0  0  0  0  0  0
   26.9297  -18.4614  -14.9104 C   0  0  0  0  0  0  0  0  0  0  0  0
   27.2168  -19.5710  -15.4295 O   0  0  0  0  0  0  0  0  0  0  0  0
   25.1849  -20.4140   -9.3003 C   0  0  0  0  0  0  0  0  0  0  0  0
   26.0993  -20.5602  -10.4483 C   0  0  1  0  0  0  0  0  0  0  0  0
   25.7433  -21.9041  -11.1156 C   0  0  0  0  0  0  0  0  0  0  0  0
   26.2531  -19.4893  -11.4313 C   0  0  0  0  0  0  0  0  0  0  0  0
   26.0919  -19.7067  -12.8905 C   0  0  2  0  0  0  0  0  0  0  0  0
   26.4661  -18.4462  -13.5845 N   0  0  0  0  0  0  0  0  0  0  0  0
   24.8359  -20.2559  -13.3505 C   0  0  0  0  0  0  0  0  0  0  0  0
   23.7751  -19.5243  -13.3158 O   0  0  0  0  0  0  0  0  0  0  0  0
   24.5828  -21.5656  -13.8687 N   0  0  0  0  0  0  0  0  0  0  0  0
   25.5058  -22.6351  -13.9839 C   0  0  0  0  0  0  0  0  0  0  0  0
   24.6503  -23.8584  -14.2993 C   0  0  0  0  0  0  0  0  0  0  0  0
   23.5340  -23.2649  -15.1356 C   0  0  0  0  0  0  0  0  0  0  0  0
   23.2660  -21.9770  -14.3824 C   0  0  1  0  0  0  0  0  0  0  0  0
   22.3434  -22.2799  -13.2754 C   0  0  0  0  0  0  0  0  0  0  0  0
   22.8295  -22.3915  -11.9950 O   0  0  0  0  0  0  0  0  0  0  0  0
   21.1297  -22.4347  -13.4946 O   0  0  0  0  0  0  0  0  0  0  0  0
  2  3  1  0
  2  1  1  0
  3  4  1  0
  5  4  1  0
  5  1  1  0
  5  6  1  6
  6  7  2  0
  9  8  1  1
  9 10  1  0
 11  9  1  0
 12 11  1  1
 12 14  1  0
 13  6  1  0
 13 12  1  0
 14 15  2  0
 16 14  1  0
 16 17  1  0
 17 18  1  0
 19 18  1  0
 20 16  1  0
 20 19  1  0
 21 22  1  0
 20 21  1  1
 23 21  2  0
M  END
$$$$
