PLP.pdb
     RDKit          3D

 23 24  0  0  1  0  0  0  0  0999 V2000
   27.7237  -19.5833  -16.1280 N   0  0  0  0  0  0  0  0  0  0  0  0
   28.9814  -19.5792  -16.8570 C   0  0  0  0  0  0  0  0  0  0  0  0
   29.7207  -20.8295  -16.4387 C   0  0  0  0  0  0  0  0  0  0  0  0
   28.7306  -21.5648  -15.5536 C   0  0  0  0  0  0  0  0  0  0  0  0
   27.4265  -20.9777  -16.0124 C   0  0  1  0  0  0  0  0  0  0  0  0
   26.3085  -21.2584  -15.0791 C   0  0  0  0  0  0  0  0  0  0  0  0
   25.8483  -22.4283  -15.0253 O   0  0  0  0  0  0  0  0  0  0  0  0
   26.1258  -19.8528   -9.8288 C   0  0  0  0  0  0  0  0  0  0  0  0
   25.8783  -20.4995  -11.1311 C   0  0  1  0  0  0  0  0  0  0  0  0
   25.7071  -22.0042  -10.8405 C   0  0  0  0  0  0  0  0  0  0  0  0
   24.8457  -20.0000  -12.0371 C   0  0  0  0  0  0  0  0  0  0  0  0
   24.5838  -20.6009  -13.3686 C   0  0  2  0  0  0  0  0  0  0  0  0
   25.7369  -20.2789  -14.2501 N   0  0  0  0  0  0  0  0  0  0  0  0
   23.3049  -20.3286  -13.9859 C   0  0  0  0  0  0  0  0  0  0  0  0
   23.1119  -19.1945  -14.5676 O   0  0  0  0  0  0  0  0  0  0  0  0
   22.1571  -21.1810  -14.0505 N   0  0  0  0  0  0  0  0  0  0  0  0
   22.0286  -22.4876  -13.5163 C   0  0  0  0  0  0  0  0  0  0  0  0
   20.5371  -22.7987  -13.5973 C   0  0  0  0  0  0  0  0  0  0  0  0
   20.1246  -22.0752  -14.8638 C   0  0  0  0  0  0  0  0  0  0  0  0
   20.9101  -20.7861  -14.7256 C   0  0  1  0  0  0  0  0  0  0  0  0
   20.1285  -19.8641  -13.8847 C   0  0  0  0  0  0  0  0  0  0  0  0
   19.0460  -19.2074  -14.4184 O   0  0  0  0  0  0  0  0  0  0  0  0
   20.4438  -19.6782  -12.6967 O   0  0  0  0  0  0  0  0  0  0  0  0
  2  3  1  0
  2  1  1  0
  3  4  1  0
  5  4  1  0
  5  1  1  0
  5  6  1  1
  6  7  2  0
  9  8  1  1
  9 10  1  0
 11  9  1  0
 12 11  1  1
 12 14  1  0
 13  6  1  0
 13 12  1  0
 14 15  2  0
 16 14  1  0
 16 17  1  0
 17 18  1  0
 19 18  1  0
 20 16  1  0
 20 19  1  0
 21 22  1  0
 20 21  1  1
 23 21  2  0
M  END
$$$$
