PLP.pdb
     RDKit          3D

 23 24  0  0  1  0  0  0  0  0999 V2000
   28.2124  -18.9084  -16.4530 N   0  0  0  0  0  0  0  0  0  0  0  0
   28.5777  -17.6876  -17.1527 C   0  0  0  0  0  0  0  0  0  0  0  0
   27.3722  -16.7785  -17.0814 C   0  0  0  0  0  0  0  0  0  0  0  0
   26.3974  -17.5274  -16.1909 C   0  0  0  0  0  0  0  0  0  0  0  0
   27.3222  -18.4393  -15.4364 C   0  0  1  0  0  0  0  0  0  0  0  0
   26.6073  -19.5356  -14.7386 C   0  0  0  0  0  0  0  0  0  0  0  0
   26.5910  -20.6768  -15.2683 O   0  0  0  0  0  0  0  0  0  0  0  0
   26.1420  -20.0543   -9.1950 C   0  0  0  0  0  0  0  0  0  0  0  0
   26.2186  -20.3106  -10.6455 C   0  0  1  0  0  0  0  0  0  0  0  0
   26.9782  -21.6426  -10.8093 C   0  0  0  0  0  0  0  0  0  0  0  0
   25.0227  -20.2601  -11.4846 C   0  0  0  0  0  0  0  0  0  0  0  0
   25.0663  -20.4248  -12.9589 C   0  0  2  0  0  0  0  0  0  0  0  0
   25.9457  -19.3612  -13.5117 N   0  0  0  0  0  0  0  0  0  0  0  0
   23.8052  -20.5376  -13.6572 C   0  0  0  0  0  0  0  0  0  0  0  0
   23.0939  -19.4805  -13.8533 O   0  0  0  0  0  0  0  0  0  0  0  0
   23.1962  -21.7163  -14.1937 N   0  0  0  0  0  0  0  0  0  0  0  0
   23.7044  -23.0388  -14.1516 C   0  0  0  0  0  0  0  0  0  0  0  0
   22.5365  -23.9209  -14.5826 C   0  0  0  0  0  0  0  0  0  0  0  0
   21.8218  -23.0414  -15.5893 C   0  0  0  0  0  0  0  0  0  0  0  0
   21.9057  -21.6931  -14.9016 C   0  0  1  0  0  0  0  0  0  0  0  0
   20.7873  -21.5971  -13.9486 C   0  0  0  0  0  0  0  0  0  0  0  0
   19.5199  -21.3348  -14.4102 O   0  0  0  0  0  0  0  0  0  0  0  0
   20.9851  -21.7521  -12.7312 O   0  0  0  0  0  0  0  0  0  0  0  0
  2  3  1  0
  2  1  1  0
  3  4  1  0
  5  4  1  0
  5  1  1  0
  5  6  1  6
  6  7  2  0
  9  8  1  1
  9 10  1  0
 11  9  1  0
 12 11  1  1
 12 14  1  0
 13  6  1  0
 13 12  1  0
 14 15  2  0
 16 14  1  0
 16 17  1  0
 17 18  1  0
 19 18  1  0
 20 16  1  0
 20 19  1  0
 21 22  1  0
 20 21  1  1
 23 21  2  0
M  END
$$$$
