PLP.pdb
     RDKit          3D

 23 24  0  0  1  0  0  0  0  0999 V2000
   25.7616  -19.9899  -11.7542 N   0  0  0  0  0  0  0  0  0  0  0  0
   24.4787  -20.3739  -12.3197 C   0  0  0  0  0  0  0  0  0  0  0  0
   23.9138  -21.4405  -11.4098 C   0  0  0  0  0  0  0  0  0  0  0  0
   24.9014  -21.5044  -10.2587 C   0  0  0  0  0  0  0  0  0  0  0  0
   25.5527  -20.1539  -10.3487 C   0  0  1  0  0  0  0  0  0  0  0  0
   26.8059  -20.0653   -9.5604 C   0  0  0  0  0  0  0  0  0  0  0  0
   27.8981  -20.3065  -10.1366 O   0  0  0  0  0  0  0  0  0  0  0  0
   29.5140  -17.1863   -4.9943 C   0  0  0  0  0  0  0  0  0  0  0  0
   29.0366  -18.5394   -5.3359 C   0  0  1  0  0  0  0  0  0  0  0  0
   28.6870  -19.2243   -3.9993 C   0  0  0  0  0  0  0  0  0  0  0  0
   27.9923  -18.7400   -6.3389 C   0  0  0  0  0  0  0  0  0  0  0  0
   28.1059  -19.7390   -7.4305 C   0  0  2  0  0  0  0  0  0  0  0  0
   26.8326  -19.7241   -8.1979 N   0  0  0  0  0  0  0  0  0  0  0  0
   28.5382  -21.0723   -7.0752 C   0  0  0  0  0  0  0  0  0  0  0  0
   27.6657  -21.9370   -6.6842 O   0  0  0  0  0  0  0  0  0  0  0  0
   29.8668  -21.6037   -7.0956 N   0  0  0  0  0  0  0  0  0  0  0  0
   31.0587  -20.9190   -7.4417 C   0  0  0  0  0  0  0  0  0  0  0  0
   32.1859  -21.8478   -7.0005 C   0  0  0  0  0  0  0  0  0  0  0  0
   31.5874  -23.2194   -7.2420 C   0  0  0  0  0  0  0  0  0  0  0  0
   30.1692  -23.0029   -6.7525 C   0  0  1  0  0  0  0  0  0  0  0  0
   30.1559  -23.1988   -5.2931 C   0  0  0  0  0  0  0  0  0  0  0  0
   30.2450  -24.4687   -4.7758 O   0  0  0  0  0  0  0  0  0  0  0  0
   30.0645  -22.2222   -4.5296 O   0  0  0  0  0  0  0  0  0  0  0  0
  2  3  1  0
  2  1  1  0
  3  4  1  0
  5  4  1  0
  5  1  1  0
  5  6  1  1
  6  7  2  0
  9  8  1  1
  9 10  1  0
 11  9  1  0
 12 11  1  1
 12 14  1  0
 13  6  1  0
 13 12  1  0
 14 15  2  0
 16 14  1  0
 16 17  1  0
 17 18  1  0
 19 18  1  0
 20 16  1  0
 20 19  1  0
 21 22  1  0
 20 21  1  1
 23 21  2  0
M  END
$$$$
