PLP.pdb
     RDKit          3D

 23 24  0  0  1  0  0  0  0  0999 V2000
   20.7717  -22.0226  -14.6569 N   0  0  0  0  0  0  0  0  0  0  0  0
   19.3401  -22.2567  -14.7509 C   0  0  0  0  0  0  0  0  0  0  0  0
   18.6821  -21.2463  -13.8395 C   0  0  0  0  0  0  0  0  0  0  0  0
   19.8310  -20.3765  -13.3624 C   0  0  0  0  0  0  0  0  0  0  0  0
   20.8505  -20.6109  -14.4402 C   0  0  1  0  0  0  0  0  0  0  0  0
   22.2093  -20.1566  -14.0563 C   0  0  0  0  0  0  0  0  0  0  0  0
   22.4677  -18.9260  -14.1007 O   0  0  0  0  0  0  0  0  0  0  0  0
   25.8548  -20.4873   -9.5610 C   0  0  0  0  0  0  0  0  0  0  0  0
   25.9213  -20.4772  -11.0343 C   0  0  1  0  0  0  0  0  0  0  0  0
   27.2565  -21.1504  -11.4111 C   0  0  0  0  0  0  0  0  0  0  0  0
   24.8121  -20.9798  -11.8429 C   0  0  0  0  0  0  0  0  0  0  0  0
   24.5585  -20.5253  -13.2328 C   0  0  2  0  0  0  0  0  0  0  0  0
   23.2243  -21.0361  -13.6444 N   0  0  0  0  0  0  0  0  0  0  0  0
   25.5888  -20.7732  -14.2165 C   0  0  0  0  0  0  0  0  0  0  0  0
   25.7710  -21.9723  -14.6531 O   0  0  0  0  0  0  0  0  0  0  0  0
   26.4862  -19.8302  -14.8110 N   0  0  0  0  0  0  0  0  0  0  0  0
   26.8238  -18.5429  -14.3231 C   0  0  0  0  0  0  0  0  0  0  0  0
   28.0259  -18.1109  -15.1573 C   0  0  0  0  0  0  0  0  0  0  0  0
   27.7284  -18.7414  -16.5033 C   0  0  0  0  0  0  0  0  0  0  0  0
   27.1949  -20.0938  -16.0740 C   0  0  1  0  0  0  0  0  0  0  0  0
   28.3439  -20.9878  -15.8530 C   0  0  0  0  0  0  0  0  0  0  0  0
   29.0249  -21.5005  -16.9308 O   0  0  0  0  0  0  0  0  0  0  0  0
   28.6990  -21.2795  -14.6981 O   0  0  0  0  0  0  0  0  0  0  0  0
  2  3  1  0
  2  1  1  0
  3  4  1  0
  5  4  1  0
  5  1  1  0
  5  6  1  1
  6  7  2  0
  9  8  1  1
  9 10  1  0
 11  9  1  0
 12 11  1  1
 12 14  1  0
 13  6  1  0
 13 12  1  0
 14 15  2  0
 16 14  1  0
 16 17  1  0
 17 18  1  0
 19 18  1  0
 20 16  1  0
 20 19  1  0
 21 22  1  0
 20 21  1  1
 23 21  2  0
M  END
$$$$
