HWF.pdb
     RDKit          3D

 36 39  0  0  1  0  0  0  0  0999 V2000
   27.8394  -20.9353  -15.1502 N   0  0  0  0  0  0  0  0  0  0  0  0
   27.8428  -20.1004  -13.9236 C   0  0  1  0  0  0  0  0  0  0  0  0
   27.1349  -18.8262  -14.3034 C   0  0  0  0  0  0  0  0  0  0  0  0
   27.8740  -18.0121  -15.2760 C   0  0  0  0  0  0  0  0  0  0  0  0
   29.1891  -18.2835  -15.6180 C   0  0  0  0  0  0  0  0  0  0  0  0
   29.6068  -17.3834  -16.5246 N   0  0  0  0  0  0  0  0  0  0  0  0
   28.5734  -16.5694  -16.7420 C   0  0  0  0  0  0  0  0  0  0  0  0
   27.5154  -16.9390  -15.9910 N   0  0  0  0  0  0  0  0  0  0  0  0
   27.1211  -20.8491  -12.8490 C   0  0  0  0  0  0  0  0  0  0  0  0
   26.1221  -21.5395  -13.0675 O   0  0  0  0  0  0  0  0  0  0  0  0
   27.5567  -20.8066  -11.4694 N   0  0  0  0  0  0  0  0  0  0  0  0
   26.8077  -21.4212  -10.4202 C   0  0  1  0  0  0  0  0  0  0  0  0
   27.6329  -21.7019   -9.2198 C   0  0  0  0  0  0  0  0  0  0  0  0
   27.5409  -20.7030   -8.1324 C   0  0  0  0  0  0  0  0  0  0  0  0
   26.5998  -19.6616   -8.0811 C   0  0  0  0  0  0  0  0  0  0  0  0
   26.7801  -18.9623   -6.9525 N   0  0  0  0  0  0  0  0  0  0  0  0
   27.8010  -19.4782   -6.2321 C   0  0  0  0  0  0  0  0  0  0  0  0
   28.3735  -19.1174   -5.0215 C   0  0  0  0  0  0  0  0  0  0  0  0
   29.4359  -19.8230   -4.5051 C   0  0  0  0  0  0  0  0  0  0  0  0
   29.8933  -20.8913   -5.2448 C   0  0  0  0  0  0  0  0  0  0  0  0
   29.3208  -21.2549   -6.4581 C   0  0  0  0  0  0  0  0  0  0  0  0
   28.2669  -20.5559   -6.9703 C   0  0  0  0  0  0  0  0  0  0  0  0
   25.5669  -20.6581  -10.0902 C   0  0  0  0  0  0  0  0  0  0  0  0
   25.6339  -19.4695   -9.6952 O   0  0  0  0  0  0  0  0  0  0  0  0
   24.2769  -21.2407  -10.2096 N   0  0  0  0  0  0  0  0  0  0  0  0
   23.1457  -20.5829  -10.7821 C   0  0  1  0  0  0  0  0  0  0  0  0
   23.4765  -19.7644  -12.0419 C   0  0  0  0  0  0  0  0  0  0  0  0
   22.3090  -18.9910  -12.4834 C   0  0  0  0  0  0  0  0  0  0  0  0
   21.6910  -18.1047  -11.6531 C   0  0  0  0  0  0  0  0  0  0  0  0
   20.5653  -17.3723  -12.0581 C   0  0  0  0  0  0  0  0  0  0  0  0
   20.0669  -17.5488  -13.3289 C   0  0  0  0  0  0  0  0  0  0  0  0
   20.6624  -18.4292  -14.1887 C   0  0  0  0  0  0  0  0  0  0  0  0
   21.7644  -19.1318  -13.7590 C   0  0  0  0  0  0  0  0  0  0  0  0
   21.9700  -21.4293  -10.9451 C   0  0  0  0  0  0  0  0  0  0  0  0
   21.9857  -22.4417  -11.7161 O   0  0  0  0  0  0  0  0  0  0  0  0
   20.7825  -21.1807  -10.2766 O   0  0  0  0  0  0  0  0  0  0  0  0
  2  1  1  6
  3  2  1  0
  4  5  2  0
  4  3  1  0
  6  5  1  0
  7  8  2  0
  7  6  1  0
  8  4  1  0
  9  2  1  0
 10  9  2  0
 11  9  1  0
 12 13  1  1
 12 11  1  0
 13 14  1  0
 14 22  1  0
 14 15  2  0
 15 16  1  0
 17 16  1  0
 17 18  2  0
 19 18  1  0
 20 19  2  0
 21 20  1  0
 21 22  2  0
 22 17  1  0
 23 12  1  0
 24 23  2  0
 25 23  1  0
 26 25  1  0
 26 27  1  6
 27 28  1  0
 28 33  1  0
 29 28  2  0
 29 30  1  0
 30 31  2  0
 31 32  1  0
 33 32  2  0
 34 36  1  0
 34 26  1  0
 35 34  2  0
M  END
$$$$
