HWF.pdb
     RDKit          3D

 36 39  0  0  1  0  0  0  0  0999 V2000
   15.8696  -12.0794  -16.8168 N   0  0  0  0  0  0  0  0  0  0  0  0
   16.4191  -11.8247  -15.4623 C   0  0  1  0  0  0  0  0  0  0  0  0
   17.5490  -12.8069  -15.2962 C   0  0  0  0  0  0  0  0  0  0  0  0
   17.0994  -14.1916  -15.1073 C   0  0  0  0  0  0  0  0  0  0  0  0
   16.7684  -15.0123  -16.1737 C   0  0  0  0  0  0  0  0  0  0  0  0
   16.3954  -16.2166  -15.7079 N   0  0  0  0  0  0  0  0  0  0  0  0
   16.4923  -16.1467  -14.3799 C   0  0  0  0  0  0  0  0  0  0  0  0
   16.9183  -14.9237  -14.0016 N   0  0  0  0  0  0  0  0  0  0  0  0
   16.8910  -10.4067  -15.4107 C   0  0  0  0  0  0  0  0  0  0  0  0
   17.1965   -9.7641  -16.4187 O   0  0  0  0  0  0  0  0  0  0  0  0
   17.0208   -9.6942  -14.1575 N   0  0  0  0  0  0  0  0  0  0  0  0
   17.1209   -8.2707  -14.1033 C   0  0  1  0  0  0  0  0  0  0  0  0
   16.0305   -7.5938  -14.8474 C   0  0  0  0  0  0  0  0  0  0  0  0
   16.0963   -6.1162  -14.8753 C   0  0  0  0  0  0  0  0  0  0  0  0
   17.2824   -5.3706  -14.9762 C   0  0  0  0  0  0  0  0  0  0  0  0
   16.9798   -4.0656  -15.0004 N   0  0  0  0  0  0  0  0  0  0  0  0
   15.6423   -3.8866  -14.9200 C   0  0  0  0  0  0  0  0  0  0  0  0
   14.8456   -2.7515  -14.8984 C   0  0  0  0  0  0  0  0  0  0  0  0
   13.4770   -2.8518  -14.7973 C   0  0  0  0  0  0  0  0  0  0  0  0
   12.9490   -4.1218  -14.7198 C   0  0  0  0  0  0  0  0  0  0  0  0
   13.7456   -5.2606  -14.7416 C   0  0  0  0  0  0  0  0  0  0  0  0
   15.1027   -5.1618  -14.8424 C   0  0  0  0  0  0  0  0  0  0  0  0
   17.2505   -7.7665  -12.7034 C   0  0  0  0  0  0  0  0  0  0  0  0
   16.3803   -8.0404  -11.8425 O   0  0  0  0  0  0  0  0  0  0  0  0
   18.3514   -6.9669  -12.2956 N   0  0  0  0  0  0  0  0  0  0  0  0
   18.5904   -6.5508  -10.9503 C   0  0  1  0  0  0  0  0  0  0  0  0
   20.0820   -6.4497  -10.5883 C   0  0  0  0  0  0  0  0  0  0  0  0
   20.8547   -5.8970  -11.7080 C   0  0  0  0  0  0  0  0  0  0  0  0
   20.8756   -4.5584  -11.9620 C   0  0  0  0  0  0  0  0  0  0  0  0
   21.5968   -4.0205  -13.0382 C   0  0  0  0  0  0  0  0  0  0  0  0
   22.3058   -4.8633  -13.8638 C   0  0  0  0  0  0  0  0  0  0  0  0
   22.3077   -6.2116  -13.6380 C   0  0  0  0  0  0  0  0  0  0  0  0
   21.5892   -6.7059  -12.5739 C   0  0  0  0  0  0  0  0  0  0  0  0
   17.8219   -5.3854  -10.5301 C   0  0  0  0  0  0  0  0  0  0  0  0
   17.3146   -4.5859  -11.3806 O   0  0  0  0  0  0  0  0  0  0  0  0
   17.6036   -5.0866   -9.1952 O   0  0  0  0  0  0  0  0  0  0  0  0
  2  1  1  6
  3  2  1  0
  4  5  2  0
  4  3  1  0
  6  5  1  0
  7  8  2  0
  7  6  1  0
  8  4  1  0
  9  2  1  0
 10  9  2  0
 11  9  1  0
 12 13  1  1
 12 11  1  0
 13 14  1  0
 14 22  1  0
 14 15  2  0
 15 16  1  0
 17 16  1  0
 17 18  2  0
 19 18  1  0
 20 19  2  0
 21 20  1  0
 21 22  2  0
 22 17  1  0
 23 12  1  0
 24 23  2  0
 25 23  1  0
 26 25  1  0
 26 27  1  6
 27 28  1  0
 28 33  1  0
 29 28  2  0
 29 30  1  0
 30 31  2  0
 31 32  1  0
 33 32  2  0
 34 36  1  0
 34 26  1  0
 35 34  2  0
M  END
$$$$
