HWF.pdb
     RDKit          3D

 36 39  0  0  1  0  0  0  0  0999 V2000
   30.5259  -22.4584  -18.0206 N   0  0  0  0  0  0  0  0  0  0  0  0
   29.0537  -22.6389  -18.0618 C   0  0  1  0  0  0  0  0  0  0  0  0
   28.8213  -24.1035  -17.7973 C   0  0  0  0  0  0  0  0  0  0  0  0
   28.7196  -24.9112  -19.0189 C   0  0  0  0  0  0  0  0  0  0  0  0
   29.3528  -24.5502  -20.1975 C   0  0  0  0  0  0  0  0  0  0  0  0
   29.0880  -25.4681  -21.1429 N   0  0  0  0  0  0  0  0  0  0  0  0
   28.3067  -26.3808  -20.5648 C   0  0  0  0  0  0  0  0  0  0  0  0
   28.0750  -26.0556  -19.2761 N   0  0  0  0  0  0  0  0  0  0  0  0
   28.4487  -21.7710  -17.0050 C   0  0  0  0  0  0  0  0  0  0  0  0
   28.9132  -21.6786  -15.8657 O   0  0  0  0  0  0  0  0  0  0  0  0
   27.2650  -20.9778  -17.2589 N   0  0  0  0  0  0  0  0  0  0  0  0
   26.7234  -20.0915  -16.2787 C   0  0  1  0  0  0  0  0  0  0  0  0
   26.1142  -18.8800  -16.8802 C   0  0  0  0  0  0  0  0  0  0  0  0
   25.4933  -17.9351  -15.9261 C   0  0  0  0  0  0  0  0  0  0  0  0
   26.2061  -17.0748  -15.0749 C   0  0  0  0  0  0  0  0  0  0  0  0
   25.3381  -16.3406  -14.3659 N   0  0  0  0  0  0  0  0  0  0  0  0
   24.0663  -16.6609  -14.6937 C   0  0  0  0  0  0  0  0  0  0  0  0
   22.8364  -16.2016  -14.2466 C   0  0  0  0  0  0  0  0  0  0  0  0
   21.6647  -16.7170  -14.7513 C   0  0  0  0  0  0  0  0  0  0  0  0
   21.7778  -17.6993  -15.7104 C   0  0  0  0  0  0  0  0  0  0  0  0
   23.0094  -18.1608  -16.1602 C   0  0  0  0  0  0  0  0  0  0  0  0
   24.1715  -17.6496  -15.6605 C   0  0  0  0  0  0  0  0  0  0  0  0
   25.7936  -20.7879  -15.3400 C   0  0  0  0  0  0  0  0  0  0  0  0
   25.0184  -21.6825  -15.7549 O   0  0  0  0  0  0  0  0  0  0  0  0
   25.7509  -20.4693  -13.9564 N   0  0  0  0  0  0  0  0  0  0  0  0
   24.9445  -21.1538  -12.9966 C   0  0  1  0  0  0  0  0  0  0  0  0
   25.7412  -21.7207  -11.8090 C   0  0  0  0  0  0  0  0  0  0  0  0
   25.9641  -20.6881  -10.7893 C   0  0  0  0  0  0  0  0  0  0  0  0
   25.3002  -20.7122   -9.5995 C   0  0  0  0  0  0  0  0  0  0  0  0
   25.4928  -19.7224   -8.6243 C   0  0  0  0  0  0  0  0  0  0  0  0
   26.3763  -18.6960   -8.8700 C   0  0  0  0  0  0  0  0  0  0  0  0
   27.0600  -18.6407  -10.0526 C   0  0  0  0  0  0  0  0  0  0  0  0
   26.8470  -19.6274  -10.9874 C   0  0  0  0  0  0  0  0  0  0  0  0
   23.7460  -20.4324  -12.5861 C   0  0  0  0  0  0  0  0  0  0  0  0
   23.6501  -19.1718  -12.7330 O   0  0  0  0  0  0  0  0  0  0  0  0
   22.6563  -21.0726  -12.0190 O   0  0  0  0  0  0  0  0  0  0  0  0
  2  1  1  1
  3  2  1  0
  4  5  2  0
  4  3  1  0
  6  5  1  0
  7  8  2  0
  7  6  1  0
  8  4  1  0
  9  2  1  0
 10  9  2  0
 11  9  1  0
 12 13  1  6
 12 11  1  0
 13 14  1  0
 14 22  1  0
 14 15  2  0
 15 16  1  0
 17 16  1  0
 17 18  2  0
 19 18  1  0
 20 19  2  0
 21 20  1  0
 21 22  2  0
 22 17  1  0
 23 12  1  0
 24 23  2  0
 25 23  1  0
 26 25  1  0
 26 27  1  1
 27 28  1  0
 28 33  1  0
 29 28  2  0
 29 30  1  0
 30 31  2  0
 31 32  1  0
 33 32  2  0
 34 36  1  0
 34 26  1  0
 35 34  2  0
M  END
$$$$
