HWF.pdb
     RDKit          3D

 36 39  0  0  1  0  0  0  0  0999 V2000
   26.4106  -27.2805  -16.7957 N   0  0  0  0  0  0  0  0  0  0  0  0
   26.0487  -25.9194  -17.2628 C   0  0  1  0  0  0  0  0  0  0  0  0
   24.7866  -26.0933  -18.0664 C   0  0  0  0  0  0  0  0  0  0  0  0
   25.0133  -26.6699  -19.3973 C   0  0  0  0  0  0  0  0  0  0  0  0
   25.2480  -25.8821  -20.5129 C   0  0  0  0  0  0  0  0  0  0  0  0
   25.4208  -26.6726  -21.5861 N   0  0  0  0  0  0  0  0  0  0  0  0
   25.2964  -27.9255  -21.1474 C   0  0  0  0  0  0  0  0  0  0  0  0
   25.0489  -27.9389  -19.8213 N   0  0  0  0  0  0  0  0  0  0  0  0
   25.8385  -25.0555  -16.0605 C   0  0  0  0  0  0  0  0  0  0  0  0
   25.3409  -25.4744  -15.0120 O   0  0  0  0  0  0  0  0  0  0  0  0
   26.2101  -23.6566  -16.0557 N   0  0  0  0  0  0  0  0  0  0  0  0
   26.1081  -22.8507  -14.8812 C   0  0  1  0  0  0  0  0  0  0  0  0
   27.2375  -21.8988  -14.7432 C   0  0  0  0  0  0  0  0  0  0  0  0
   27.0393  -20.8086  -13.7630 C   0  0  0  0  0  0  0  0  0  0  0  0
   26.8668  -20.9971  -12.3818 C   0  0  0  0  0  0  0  0  0  0  0  0
   26.7406  -19.8026  -11.7882 N   0  0  0  0  0  0  0  0  0  0  0  0
   26.8184  -18.8082  -12.7007 C   0  0  0  0  0  0  0  0  0  0  0  0
   26.7398  -17.4275  -12.5951 C   0  0  0  0  0  0  0  0  0  0  0  0
   26.8424  -16.6276  -13.7100 C   0  0  0  0  0  0  0  0  0  0  0  0
   27.0248  -17.2630  -14.9185 C   0  0  0  0  0  0  0  0  0  0  0  0
   27.1041  -18.6465  -15.0265 C   0  0  0  0  0  0  0  0  0  0  0  0
   27.0030  -19.4401  -13.9213 C   0  0  0  0  0  0  0  0  0  0  0  0
   24.7803  -22.1754  -14.7732 C   0  0  0  0  0  0  0  0  0  0  0  0
   24.2885  -21.5721  -15.7568 O   0  0  0  0  0  0  0  0  0  0  0  0
   24.0302  -22.1895  -13.5671 N   0  0  0  0  0  0  0  0  0  0  0  0
   22.8433  -21.4258  -13.3474 C   0  0  1  0  0  0  0  0  0  0  0  0
   22.2967  -21.5284  -11.9132 C   0  0  0  0  0  0  0  0  0  0  0  0
   20.9575  -20.9334  -11.8212 C   0  0  0  0  0  0  0  0  0  0  0  0
   19.8435  -21.6389  -12.1650 C   0  0  0  0  0  0  0  0  0  0  0  0
   18.5605  -21.0759  -12.0966 C   0  0  0  0  0  0  0  0  0  0  0  0
   18.4163  -19.7751  -11.6704 C   0  0  0  0  0  0  0  0  0  0  0  0
   19.5121  -19.0381  -11.3169 C   0  0  0  0  0  0  0  0  0  0  0  0
   20.7558  -19.6209  -11.3963 C   0  0  0  0  0  0  0  0  0  0  0  0
   22.9053  -20.0540  -13.8367 C   0  0  0  0  0  0  0  0  0  0  0  0
   23.8427  -19.2682  -13.4852 O   0  0  0  0  0  0  0  0  0  0  0  0
   21.9567  -19.5349  -14.7026 O   0  0  0  0  0  0  0  0  0  0  0  0
  2  1  1  1
  3  2  1  0
  4  5  2  0
  4  3  1  0
  6  5  1  0
  7  8  2  0
  7  6  1  0
  8  4  1  0
  9  2  1  0
 10  9  2  0
 11  9  1  0
 12 13  1  6
 12 11  1  0
 13 14  1  0
 14 22  1  0
 14 15  2  0
 15 16  1  0
 17 16  1  0
 17 18  2  0
 19 18  1  0
 20 19  2  0
 21 20  1  0
 21 22  2  0
 22 17  1  0
 23 12  1  0
 24 23  2  0
 25 23  1  0
 26 25  1  0
 26 27  1  1
 27 28  1  0
 28 33  1  0
 29 28  2  0
 29 30  1  0
 30 31  2  0
 31 32  1  0
 33 32  2  0
 34 36  1  0
 34 26  1  0
 35 34  2  0
M  END
$$$$
