HWF.pdb
     RDKit          3D

 36 39  0  0  1  0  0  0  0  0999 V2000
   26.4951  -18.6217  -19.2493 N   0  0  0  0  0  0  0  0  0  0  0  0
   26.1019  -17.8720  -18.0307 C   0  0  1  0  0  0  0  0  0  0  0  0
   24.8859  -17.0751  -18.4246 C   0  0  0  0  0  0  0  0  0  0  0  0
   25.1978  -15.8896  -19.2323 C   0  0  0  0  0  0  0  0  0  0  0  0
   25.9113  -14.8163  -18.7232 C   0  0  0  0  0  0  0  0  0  0  0  0
   26.0484  -13.8811  -19.6787 N   0  0  0  0  0  0  0  0  0  0  0  0
   25.4333  -14.3623  -20.7594 C   0  0  0  0  0  0  0  0  0  0  0  0
   24.9125  -15.5802  -20.5028 N   0  0  0  0  0  0  0  0  0  0  0  0
   25.8030  -18.8626  -16.9511 C   0  0  0  0  0  0  0  0  0  0  0  0
   25.0473  -19.8243  -17.1135 O   0  0  0  0  0  0  0  0  0  0  0  0
   26.3894  -18.7496  -15.6327 N   0  0  0  0  0  0  0  0  0  0  0  0
   26.0345  -19.6335  -14.5686 C   0  0  1  0  0  0  0  0  0  0  0  0
   27.0769  -19.7050  -13.5154 C   0  0  0  0  0  0  0  0  0  0  0  0
   26.7865  -20.6190  -12.3889 C   0  0  0  0  0  0  0  0  0  0  0  0
   26.7321  -22.0189  -12.4889 C   0  0  0  0  0  0  0  0  0  0  0  0
   26.4729  -22.5356  -11.2802 N   0  0  0  0  0  0  0  0  0  0  0  0
   26.3474  -21.5527  -10.3605 C   0  0  0  0  0  0  0  0  0  0  0  0
   26.0770  -21.5674   -9.0003 C   0  0  0  0  0  0  0  0  0  0  0  0
   25.9911  -20.3949   -8.2852 C   0  0  0  0  0  0  0  0  0  0  0  0
   26.1854  -19.2234   -8.9833 C   0  0  0  0  0  0  0  0  0  0  0  0
   26.4568  -19.2065  -10.3464 C   0  0  0  0  0  0  0  0  0  0  0  0
   26.5426  -20.3687  -11.0558 C   0  0  0  0  0  0  0  0  0  0  0  0
   24.6830  -19.3305  -14.0097 C   0  0  0  0  0  0  0  0  0  0  0  0
   24.3833  -18.1639  -13.6593 O   0  0  0  0  0  0  0  0  0  0  0  0
   23.6947  -20.3388  -13.8549 N   0  0  0  0  0  0  0  0  0  0  0  0
   22.4808  -20.1714  -13.1210 C   0  0  1  0  0  0  0  0  0  0  0  0
   21.2174  -20.1977  -13.9981 C   0  0  0  0  0  0  0  0  0  0  0  0
   20.0181  -19.9301  -13.1943 C   0  0  0  0  0  0  0  0  0  0  0  0
   19.3179  -20.9415  -12.6081 C   0  0  0  0  0  0  0  0  0  0  0  0
   18.1617  -20.6997  -11.8515 C   0  0  0  0  0  0  0  0  0  0  0  0
   17.7176  -19.4066  -11.6925 C   0  0  0  0  0  0  0  0  0  0  0  0
   18.3959  -18.3675  -12.2659 C   0  0  0  0  0  0  0  0  0  0  0  0
   19.5258  -18.6400  -13.0021 C   0  0  0  0  0  0  0  0  0  0  0  0
   22.3683  -21.0111  -11.9346 C   0  0  0  0  0  0  0  0  0  0  0  0
   22.5537  -22.2688  -11.9946 O   0  0  0  0  0  0  0  0  0  0  0  0
   22.0562  -20.4917  -10.6889 O   0  0  0  0  0  0  0  0  0  0  0  0
  2  1  1  6
  3  2  1  0
  4  5  2  0
  4  3  1  0
  6  5  1  0
  7  8  2  0
  7  6  1  0
  8  4  1  0
  9  2  1  0
 10  9  2  0
 11  9  1  0
 12 13  1  1
 12 11  1  0
 13 14  1  0
 14 22  1  0
 14 15  2  0
 15 16  1  0
 17 16  1  0
 17 18  2  0
 19 18  1  0
 20 19  2  0
 21 20  1  0
 21 22  2  0
 22 17  1  0
 23 12  1  0
 24 23  2  0
 25 23  1  0
 26 25  1  0
 26 27  1  6
 27 28  1  0
 28 33  1  0
 29 28  2  0
 29 30  1  0
 30 31  2  0
 31 32  1  0
 33 32  2  0
 34 36  1  0
 34 26  1  0
 35 34  2  0
M  END
$$$$
