HWF.pdb
     RDKit          3D

 36 39  0  0  1  0  0  0  0  0999 V2000
   27.4680  -21.9608  -15.3581 N   0  0  0  0  0  0  0  0  0  0  0  0
   27.6279  -20.8682  -14.3669 C   0  0  1  0  0  0  0  0  0  0  0  0
   26.9325  -19.6753  -14.9687 C   0  0  0  0  0  0  0  0  0  0  0  0
   27.7404  -18.9689  -15.9704 C   0  0  0  0  0  0  0  0  0  0  0  0
   29.0422  -19.3415  -16.2650 C   0  0  0  0  0  0  0  0  0  0  0  0
   29.5336  -18.5256  -17.2133 N   0  0  0  0  0  0  0  0  0  0  0  0
   28.5583  -17.6638  -17.5026 C   0  0  0  0  0  0  0  0  0  0  0  0
   27.4645  -17.9209  -16.7559 N   0  0  0  0  0  0  0  0  0  0  0  0
   26.9929  -21.3056  -13.0857 C   0  0  0  0  0  0  0  0  0  0  0  0
   25.9193  -21.9121  -13.0419 O   0  0  0  0  0  0  0  0  0  0  0  0
   27.6076  -21.0383  -11.8029 N   0  0  0  0  0  0  0  0  0  0  0  0
   26.8765  -21.1306  -10.5796 C   0  0  1  0  0  0  0  0  0  0  0  0
   27.7216  -20.8670   -9.3892 C   0  0  0  0  0  0  0  0  0  0  0  0
   26.9932  -20.6927   -8.1134 C   0  0  0  0  0  0  0  0  0  0  0  0
   25.6251  -20.9536   -7.9319 C   0  0  0  0  0  0  0  0  0  0  0  0
   25.2986  -20.7163   -6.6543 N   0  0  0  0  0  0  0  0  0  0  0  0
   26.3807  -20.3051   -5.9562 C   0  0  0  0  0  0  0  0  0  0  0  0
   26.5595  -19.9350   -4.6316 C   0  0  0  0  0  0  0  0  0  0  0  0
   27.7935  -19.5375   -4.1703 C   0  0  0  0  0  0  0  0  0  0  0  0
   28.8261  -19.5273   -5.0820 C   0  0  0  0  0  0  0  0  0  0  0  0
   28.6492  -19.8981   -6.4098 C   0  0  0  0  0  0  0  0  0  0  0  0
   27.4260  -20.2929   -6.8676 C   0  0  0  0  0  0  0  0  0  0  0  0
   25.6410  -20.2915  -10.5954 C   0  0  0  0  0  0  0  0  0  0  0  0
   25.7186  -19.0397  -10.5836 O   0  0  0  0  0  0  0  0  0  0  0  0
   24.3443  -20.8706  -10.6248 N   0  0  0  0  0  0  0  0  0  0  0  0
   23.1296  -20.1230  -10.7006 C   0  0  1  0  0  0  0  0  0  0  0  0
   23.1472  -19.0184  -11.7710 C   0  0  0  0  0  0  0  0  0  0  0  0
   22.9931  -19.5908  -13.1144 C   0  0  0  0  0  0  0  0  0  0  0  0
   21.9915  -20.4696  -13.3996 C   0  0  0  0  0  0  0  0  0  0  0  0
   21.8439  -21.0353  -14.6747 C   0  0  0  0  0  0  0  0  0  0  0  0
   22.7322  -20.6965  -15.6700 C   0  0  0  0  0  0  0  0  0  0  0  0
   23.7487  -19.8174  -15.4194 C   0  0  0  0  0  0  0  0  0  0  0  0
   23.8648  -19.2816  -14.1576 C   0  0  0  0  0  0  0  0  0  0  0  0
   21.9191  -20.9345  -10.7392 C   0  0  0  0  0  0  0  0  0  0  0  0
   20.7660  -20.4079  -10.6259 O   0  0  0  0  0  0  0  0  0  0  0  0
   21.9566  -22.3099  -10.8995 O   0  0  0  0  0  0  0  0  0  0  0  0
  2  1  1  6
  3  2  1  0
  4  5  2  0
  4  3  1  0
  6  5  1  0
  7  8  2  0
  7  6  1  0
  8  4  1  0
  9  2  1  0
 10  9  2  0
 11  9  1  0
 12 13  1  1
 12 11  1  0
 13 14  1  0
 14 22  1  0
 14 15  2  0
 15 16  1  0
 17 16  1  0
 17 18  2  0
 19 18  1  0
 20 19  2  0
 21 20  1  0
 21 22  2  0
 22 17  1  0
 23 12  1  0
 24 23  2  0
 25 23  1  0
 26 25  1  0
 26 27  1  6
 27 28  1  0
 28 33  1  0
 29 28  2  0
 29 30  1  0
 30 31  2  0
 31 32  1  0
 33 32  2  0
 34 36  1  0
 34 26  1  0
 35 34  2  0
M  END
$$$$
