HWF.pdb
     RDKit          3D

 36 39  0  0  1  0  0  0  0  0999 V2000
   16.9469  -14.1518  -17.8080 N   0  0  0  0  0  0  0  0  0  0  0  0
   17.6591  -13.4138  -16.7357 C   0  0  1  0  0  0  0  0  0  0  0  0
   19.0835  -13.9005  -16.7915 C   0  0  0  0  0  0  0  0  0  0  0  0
   19.2391  -15.3057  -16.3960 C   0  0  0  0  0  0  0  0  0  0  0  0
   18.7672  -15.7886  -15.1859 C   0  0  0  0  0  0  0  0  0  0  0  0
   19.0458  -17.1002  -15.0925 N   0  0  0  0  0  0  0  0  0  0  0  0
   19.6774  -17.4263  -16.2204 C   0  0  0  0  0  0  0  0  0  0  0  0
   19.8018  -16.3472  -17.0206 N   0  0  0  0  0  0  0  0  0  0  0  0
   17.5501  -11.9510  -17.0261 C   0  0  0  0  0  0  0  0  0  0  0  0
   18.0033  -11.4348  -18.0511 O   0  0  0  0  0  0  0  0  0  0  0  0
   16.8987  -11.0407  -16.1086 N   0  0  0  0  0  0  0  0  0  0  0  0
   16.8017   -9.6406  -16.3729 C   0  0  1  0  0  0  0  0  0  0  0  0
   15.4023   -9.1493  -16.3370 C   0  0  0  0  0  0  0  0  0  0  0  0
   14.6193   -9.3574  -17.5748 C   0  0  0  0  0  0  0  0  0  0  0  0
   14.2224  -10.6110  -18.0684 C   0  0  0  0  0  0  0  0  0  0  0  0
   13.5086  -10.4358  -19.1887 N   0  0  0  0  0  0  0  0  0  0  0  0
   13.4008   -9.1206  -19.4823 C   0  0  0  0  0  0  0  0  0  0  0  0
   12.7828   -8.4365  -20.5184 C   0  0  0  0  0  0  0  0  0  0  0  0
   12.8350   -7.0633  -20.5875 C   0  0  0  0  0  0  0  0  0  0  0  0
   13.5241   -6.4145  -19.5866 C   0  0  0  0  0  0  0  0  0  0  0  0
   14.1439   -7.0981  -18.5471 C   0  0  0  0  0  0  0  0  0  0  0  0
   14.0920   -8.4597  -18.4778 C   0  0  0  0  0  0  0  0  0  0  0  0
   17.7079   -8.8368  -15.4992 C   0  0  0  0  0  0  0  0  0  0  0  0
   17.8232   -9.1054  -14.2794 O   0  0  0  0  0  0  0  0  0  0  0  0
   18.4668   -7.7494  -16.0085 N   0  0  0  0  0  0  0  0  0  0  0  0
   19.2833   -6.8924  -15.2092 C   0  0  1  0  0  0  0  0  0  0  0  0
   20.7577   -6.8564  -15.6462 C   0  0  0  0  0  0  0  0  0  0  0  0
   21.4728   -5.7600  -14.9809 C   0  0  0  0  0  0  0  0  0  0  0  0
   21.7760   -4.6076  -15.6419 C   0  0  0  0  0  0  0  0  0  0  0  0
   22.4728   -3.5600  -15.0218 C   0  0  0  0  0  0  0  0  0  0  0  0
   22.8633   -3.6936  -13.7087 C   0  0  0  0  0  0  0  0  0  0  0  0
   22.5754   -4.8357  -13.0148 C   0  0  0  0  0  0  0  0  0  0  0  0
   21.8909   -5.8439  -13.6535 C   0  0  0  0  0  0  0  0  0  0  0  0
   18.7252   -5.5657  -14.9774 C   0  0  0  0  0  0  0  0  0  0  0  0
   18.8381   -4.9888  -13.8486 O   0  0  0  0  0  0  0  0  0  0  0  0
   18.0479   -4.8667  -15.9630 O   0  0  0  0  0  0  0  0  0  0  0  0
  2  1  1  6
  3  2  1  0
  4  5  2  0
  4  3  1  0
  6  5  1  0
  7  8  2  0
  7  6  1  0
  8  4  1  0
  9  2  1  0
 10  9  2  0
 11  9  1  0
 12 13  1  1
 12 11  1  0
 13 14  1  0
 14 22  1  0
 14 15  2  0
 15 16  1  0
 17 16  1  0
 17 18  2  0
 19 18  1  0
 20 19  2  0
 21 20  1  0
 21 22  2  0
 22 17  1  0
 23 12  1  0
 24 23  2  0
 25 23  1  0
 26 25  1  0
 26 27  1  6
 27 28  1  0
 28 33  1  0
 29 28  2  0
 29 30  1  0
 30 31  2  0
 31 32  1  0
 33 32  2  0
 34 36  1  0
 34 26  1  0
 35 34  2  0
M  END
$$$$
