HWF.pdb
     RDKit          3D

 36 39  0  0  1  0  0  0  0  0999 V2000
   27.0583  -22.2689  -18.1411 N   0  0  0  0  0  0  0  0  0  0  0  0
   26.1089  -22.0699  -17.0182 C   0  0  1  0  0  0  0  0  0  0  0  0
   25.2244  -23.2891  -17.0195 C   0  0  0  0  0  0  0  0  0  0  0  0
   24.2204  -23.2844  -18.0904 C   0  0  0  0  0  0  0  0  0  0  0  0
   23.2870  -22.2687  -18.2227 C   0  0  0  0  0  0  0  0  0  0  0  0
   22.5015  -22.5231  -19.2833 N   0  0  0  0  0  0  0  0  0  0  0  0
   22.9371  -23.6725  -19.7999 C   0  0  0  0  0  0  0  0  0  0  0  0
   23.9795  -24.1457  -19.0861 N   0  0  0  0  0  0  0  0  0  0  0  0
   26.9007  -21.9475  -15.7556 C   0  0  0  0  0  0  0  0  0  0  0  0
   27.8493  -22.6883  -15.4841 O   0  0  0  0  0  0  0  0  0  0  0  0
   26.5961  -20.9397  -14.7624 N   0  0  0  0  0  0  0  0  0  0  0  0
   27.3574  -20.8064  -13.5615 C   0  0  1  0  0  0  0  0  0  0  0  0
   28.2309  -19.6074  -13.5705 C   0  0  0  0  0  0  0  0  0  0  0  0
   27.6641  -18.4078  -14.2249 C   0  0  0  0  0  0  0  0  0  0  0  0
   26.6825  -17.5773  -13.6595 C   0  0  0  0  0  0  0  0  0  0  0  0
   26.4172  -16.5726  -14.5053 N   0  0  0  0  0  0  0  0  0  0  0  0
   27.1720  -16.6798  -15.6217 C   0  0  0  0  0  0  0  0  0  0  0  0
   27.2616  -15.9115  -16.7729 C   0  0  0  0  0  0  0  0  0  0  0  0
   28.1255  -16.2573  -17.7865 C   0  0  0  0  0  0  0  0  0  0  0  0
   28.8852  -17.3909  -17.5987 C   0  0  0  0  0  0  0  0  0  0  0  0
   28.7972  -18.1621  -16.4456 C   0  0  0  0  0  0  0  0  0  0  0  0
   27.9412  -17.8194  -15.4399 C   0  0  0  0  0  0  0  0  0  0  0  0
   26.5015  -20.8759  -12.3396 C   0  0  0  0  0  0  0  0  0  0  0  0
   25.2944  -20.5379  -12.3849 O   0  0  0  0  0  0  0  0  0  0  0  0
   27.0137  -21.3227  -11.0923 N   0  0  0  0  0  0  0  0  0  0  0  0
   26.2687  -21.3364   -9.8738 C   0  0  1  0  0  0  0  0  0  0  0  0
   27.0293  -21.9563   -8.6891 C   0  0  0  0  0  0  0  0  0  0  0  0
   27.5946  -20.9107   -7.8270 C   0  0  0  0  0  0  0  0  0  0  0  0
   28.9407  -20.7207   -7.7332 C   0  0  0  0  0  0  0  0  0  0  0  0
   29.4929  -19.7359   -6.9008 C   0  0  0  0  0  0  0  0  0  0  0  0
   28.6568  -18.9354   -6.1561 C   0  0  0  0  0  0  0  0  0  0  0  0
   27.3012  -19.0977   -6.2262 C   0  0  0  0  0  0  0  0  0  0  0  0
   26.7929  -20.0735   -7.0523 C   0  0  0  0  0  0  0  0  0  0  0  0
   25.6283  -20.0701   -9.5398 C   0  0  0  0  0  0  0  0  0  0  0  0
   26.1755  -18.9569   -9.8247 O   0  0  0  0  0  0  0  0  0  0  0  0
   24.4012  -20.0090   -8.9000 O   0  0  0  0  0  0  0  0  0  0  0  0
  2  1  1  6
  3  2  1  0
  4  5  2  0
  4  3  1  0
  6  5  1  0
  7  8  2  0
  7  6  1  0
  8  4  1  0
  9  2  1  0
 10  9  2  0
 11  9  1  0
 12 13  1  6
 12 11  1  0
 13 14  1  0
 14 22  1  0
 14 15  2  0
 15 16  1  0
 17 16  1  0
 17 18  2  0
 19 18  1  0
 20 19  2  0
 21 20  1  0
 21 22  2  0
 22 17  1  0
 23 12  1  0
 24 23  2  0
 25 23  1  0
 26 25  1  0
 26 27  1  1
 27 28  1  0
 28 33  1  0
 29 28  2  0
 29 30  1  0
 30 31  2  0
 31 32  1  0
 33 32  2  0
 34 36  1  0
 34 26  1  0
 35 34  2  0
M  END
$$$$
