HWF.pdb
     RDKit          3D

 36 39  0  0  1  0  0  0  0  0999 V2000
   28.1039  -21.1787  -15.1676 N   0  0  0  0  0  0  0  0  0  0  0  0
   27.9976  -20.3645  -13.9317 C   0  0  1  0  0  0  0  0  0  0  0  0
   27.3945  -19.0540  -14.3650 C   0  0  0  0  0  0  0  0  0  0  0  0
   28.2768  -18.2589  -15.2279 C   0  0  0  0  0  0  0  0  0  0  0  0
   27.9976  -18.0397  -16.5674 C   0  0  0  0  0  0  0  0  0  0  0  0
   28.9694  -17.2829  -17.1052 N   0  0  0  0  0  0  0  0  0  0  0  0
   29.8347  -17.0364  -16.1213 C   0  0  0  0  0  0  0  0  0  0  0  0
   29.4271  -17.6226  -14.9766 N   0  0  0  0  0  0  0  0  0  0  0  0
   27.1225  -21.0972  -12.9656 C   0  0  0  0  0  0  0  0  0  0  0  0
   26.1638  -21.7883  -13.3198 O   0  0  0  0  0  0  0  0  0  0  0  0
   27.3505  -21.0371  -11.5376 N   0  0  0  0  0  0  0  0  0  0  0  0
   26.3936  -21.5270  -10.5974 C   0  0  1  0  0  0  0  0  0  0  0  0
   26.9972  -21.8347   -9.2776 C   0  0  0  0  0  0  0  0  0  0  0  0
   27.1765  -20.6795   -8.3711 C   0  0  0  0  0  0  0  0  0  0  0  0
   26.5646  -19.4268   -8.5419 C   0  0  0  0  0  0  0  0  0  0  0  0
   26.9208  -18.6228   -7.5310 N   0  0  0  0  0  0  0  0  0  0  0  0
   27.7478  -19.2689   -6.6790 C   0  0  0  0  0  0  0  0  0  0  0  0
   28.3846  -18.8790   -5.5103 C   0  0  0  0  0  0  0  0  0  0  0  0
   29.2006  -19.7508   -4.8266 C   0  0  0  0  0  0  0  0  0  0  0  0
   29.3485  -21.0130   -5.3580 C   0  0  0  0  0  0  0  0  0  0  0  0
   28.7110  -21.4060   -6.5290 C   0  0  0  0  0  0  0  0  0  0  0  0
   27.9013  -20.5421   -7.2070 C   0  0  0  0  0  0  0  0  0  0  0  0
   25.2046  -20.6304  -10.4824 C   0  0  0  0  0  0  0  0  0  0  0  0
   25.3479  -19.3874  -10.3950 O   0  0  0  0  0  0  0  0  0  0  0  0
   23.8801  -21.1432  -10.4683 N   0  0  0  0  0  0  0  0  0  0  0  0
   22.8205  -20.6610  -11.2958 C   0  0  1  0  0  0  0  0  0  0  0  0
   23.2028  -20.5325  -12.7803 C   0  0  0  0  0  0  0  0  0  0  0  0
   22.9617  -19.1677  -13.2653 C   0  0  0  0  0  0  0  0  0  0  0  0
   21.7347  -18.5845  -13.1594 C   0  0  0  0  0  0  0  0  0  0  0  0
   21.4881  -17.2876  -13.6336 C   0  0  0  0  0  0  0  0  0  0  0  0
   22.5106  -16.5789  -14.2227 C   0  0  0  0  0  0  0  0  0  0  0  0
   23.7544  -17.1327  -14.3450 C   0  0  0  0  0  0  0  0  0  0  0  0
   23.9616  -18.4071  -13.8696 C   0  0  0  0  0  0  0  0  0  0  0  0
   21.5404  -21.3283  -11.0929 C   0  0  0  0  0  0  0  0  0  0  0  0
   20.4801  -20.9115  -11.6603 O   0  0  0  0  0  0  0  0  0  0  0  0
   21.4085  -22.4415  -10.2792 O   0  0  0  0  0  0  0  0  0  0  0  0
  2  1  1  6
  3  2  1  0
  4  5  2  0
  4  3  1  0
  6  5  1  0
  7  8  2  0
  7  6  1  0
  8  4  1  0
  9  2  1  0
 10  9  2  0
 11  9  1  0
 12 13  1  1
 12 11  1  0
 13 14  1  0
 14 22  1  0
 14 15  2  0
 15 16  1  0
 17 16  1  0
 17 18  2  0
 19 18  1  0
 20 19  2  0
 21 20  1  0
 21 22  2  0
 22 17  1  0
 23 12  1  0
 24 23  2  0
 25 23  1  0
 26 25  1  0
 26 27  1  6
 27 28  1  0
 28 33  1  0
 29 28  2  0
 29 30  1  0
 30 31  2  0
 31 32  1  0
 33 32  2  0
 34 36  1  0
 34 26  1  0
 35 34  2  0
M  END
$$$$
