HWF.pdb
     RDKit          3D

 36 39  0  0  1  0  0  0  0  0999 V2000
   20.1007  -11.8856  -18.2126 N   0  0  0  0  0  0  0  0  0  0  0  0
   19.5069  -11.0106  -17.1718 C   0  0  1  0  0  0  0  0  0  0  0  0
   20.0690  -11.5039  -15.8642 C   0  0  0  0  0  0  0  0  0  0  0  0
   19.5157  -12.7950  -15.4377 C   0  0  0  0  0  0  0  0  0  0  0  0
   20.2990  -13.9325  -15.3243 C   0  0  0  0  0  0  0  0  0  0  0  0
   19.5338  -14.9595  -14.9165 N   0  0  0  0  0  0  0  0  0  0  0  0
   18.3007  -14.4712  -14.7790 C   0  0  0  0  0  0  0  0  0  0  0  0
   18.2750  -13.1592  -15.0920 N   0  0  0  0  0  0  0  0  0  0  0  0
   19.9098   -9.6005  -17.4640 C   0  0  0  0  0  0  0  0  0  0  0  0
   21.0366   -9.2935  -17.8620 O   0  0  0  0  0  0  0  0  0  0  0  0
   18.9896   -8.4965  -17.2933 N   0  0  0  0  0  0  0  0  0  0  0  0
   19.3906   -7.1400  -17.4896 C   0  0  1  0  0  0  0  0  0  0  0  0
   18.4314   -6.3772  -18.3256 C   0  0  0  0  0  0  0  0  0  0  0  0
   18.4539   -6.6894  -19.7715 C   0  0  0  0  0  0  0  0  0  0  0  0
   18.4698   -7.9870  -20.3090 C   0  0  0  0  0  0  0  0  0  0  0  0
   18.4617   -7.9081  -21.6465 N   0  0  0  0  0  0  0  0  0  0  0  0
   18.4415   -6.6169  -22.0460 C   0  0  0  0  0  0  0  0  0  0  0  0
   18.4347   -6.0206  -23.2982 C   0  0  0  0  0  0  0  0  0  0  0  0
   18.4242   -4.6507  -23.4274 C   0  0  0  0  0  0  0  0  0  0  0  0
   18.4210   -3.9147  -22.2630 C   0  0  0  0  0  0  0  0  0  0  0  0
   18.4275   -4.5103  -21.0070 C   0  0  0  0  0  0  0  0  0  0  0  0
   18.4373   -5.8686  -20.8784 C   0  0  0  0  0  0  0  0  0  0  0  0
   19.6947   -6.4488  -16.2009 C   0  0  0  0  0  0  0  0  0  0  0  0
   18.9396   -6.5860  -15.2087 O   0  0  0  0  0  0  0  0  0  0  0  0
   20.8375   -5.6191  -16.0489 N   0  0  0  0  0  0  0  0  0  0  0  0
   21.2329   -5.0097  -14.8192 C   0  0  1  0  0  0  0  0  0  0  0  0
   22.5742   -5.5287  -14.2732 C   0  0  0  0  0  0  0  0  0  0  0  0
   22.6048   -6.9968  -14.2732 C   0  0  0  0  0  0  0  0  0  0  0  0
   21.9558   -7.7190  -13.3172 C   0  0  0  0  0  0  0  0  0  0  0  0
   21.9913   -9.1212  -13.2974 C   0  0  0  0  0  0  0  0  0  0  0  0
   22.6992   -9.7919  -14.2687 C   0  0  0  0  0  0  0  0  0  0  0  0
   23.3617   -9.0994  -15.2436 C   0  0  0  0  0  0  0  0  0  0  0  0
   23.3066   -7.7247  -15.2331 C   0  0  0  0  0  0  0  0  0  0  0  0
   21.1363   -3.5552  -14.8041 C   0  0  0  0  0  0  0  0  0  0  0  0
   20.8853   -2.8981  -15.8648 O   0  0  0  0  0  0  0  0  0  0  0  0
   21.3107   -2.8152  -13.6461 O   0  0  0  0  0  0  0  0  0  0  0  0
  2  1  1  6
  3  2  1  0
  4  5  2  0
  4  3  1  0
  6  5  1  0
  7  8  2  0
  7  6  1  0
  8  4  1  0
  9  2  1  0
 10  9  2  0
 11  9  1  0
 12 13  1  1
 12 11  1  0
 13 14  1  0
 14 22  1  0
 14 15  2  0
 15 16  1  0
 17 16  1  0
 17 18  2  0
 19 18  1  0
 20 19  2  0
 21 20  1  0
 21 22  2  0
 22 17  1  0
 23 12  1  0
 24 23  2  0
 25 23  1  0
 26 25  1  0
 26 27  1  6
 27 28  1  0
 28 33  1  0
 29 28  2  0
 29 30  1  0
 30 31  2  0
 31 32  1  0
 33 32  2  0
 34 36  1  0
 34 26  1  0
 35 34  2  0
M  END
$$$$
