HFI.pdb
     RDKit          3D

 30 31  0  0  1  0  0  0  0  0999 V2000
   17.2919  -11.6960  -14.9316 N   0  0  0  0  0  0  0  0  0  0  0  0
   16.7868  -10.3452  -14.8139 C   0  0  1  0  0  0  0  0  0  0  0  0
   15.2957  -10.3893  -14.9417 C   0  0  0  0  0  0  0  0  0  0  0  0
   14.9521  -10.6257  -16.3656 C   0  0  0  0  0  0  0  0  0  0  0  0
   14.6433  -11.8029  -17.0114 C   0  0  0  0  0  0  0  0  0  0  0  0
   14.3912  -11.5872  -18.3124 N   0  0  0  0  0  0  0  0  0  0  0  0
   14.5372  -10.2639  -18.5109 C   0  0  0  0  0  0  0  0  0  0  0  0
   14.8757   -9.6754  -17.3410 N   0  0  0  0  0  0  0  0  0  0  0  0
   17.2360   -9.7753  -13.5232 C   0  0  0  0  0  0  0  0  0  0  0  0
   17.2619  -10.4929  -12.4800 O   0  0  0  0  0  0  0  0  0  0  0  0
   17.6525   -8.4240  -13.3888 N   0  0  0  0  0  0  0  0  0  0  0  0
   18.2086   -7.9687  -12.1314 C   0  0  1  0  0  0  0  0  0  0  0  0
   19.5076   -7.2650  -12.4314 C   0  0  0  0  0  0  0  0  0  0  0  0
   20.5918   -8.1561  -12.8190 C   0  0  0  0  0  0  0  0  0  0  0  0
   21.3294   -8.8552  -11.8913 C   0  0  0  0  0  0  0  0  0  0  0  0
   22.3410   -9.6794  -12.3447 C   0  0  0  0  0  0  0  0  0  0  0  0
   22.6342   -9.8243  -13.6826 C   0  0  0  0  0  0  0  0  0  0  0  0
   21.8976   -9.1273  -14.5940 C   0  0  0  0  0  0  0  0  0  0  0  0
   20.8827   -8.2988  -14.1596 C   0  0  0  0  0  0  0  0  0  0  0  0
   17.2755   -6.9221  -11.5856 C   0  0  0  0  0  0  0  0  0  0  0  0
   16.6664   -6.1167  -12.3457 O   0  0  0  0  0  0  0  0  0  0  0  0
   12.7787   -5.9319   -7.9440 C   0  0  0  0  0  0  0  0  0  0  0  0
   14.0363   -5.2603   -8.4503 C   0  0  0  0  0  0  0  0  0  0  0  0
   14.9148   -6.3409   -9.0447 C   0  0  2  0  0  0  0  0  0  0  0  0
   15.3567   -7.2947   -7.9766 C   0  0  0  0  0  0  0  0  0  0  0  0
   16.1473   -5.7578   -9.6991 C   0  0  2  0  0  0  0  0  0  0  0  0
   17.0333   -6.7874  -10.1951 N   0  0  0  0  0  0  0  0  0  0  0  0
   16.8731   -5.0044   -8.6511 C   0  0  0  0  0  0  0  0  0  0  0  0
   17.8432   -5.4903   -8.0110 O   0  0  0  0  0  0  0  0  0  0  0  0
   16.4698   -3.7107   -8.3612 O   0  0  0  0  0  0  0  0  0  0  0  0
  2  3  1  0
  2  1  1  1
  3  4  1  0
  4  8  1  0
  5  6  1  0
  5  4  2  0
  6  7  1  0
  7  8  2  0
  9  2  1  0
  9 10  2  0
 11  9  1  0
 12 11  1  0
 12 20  1  0
 12 13  1  6
 14 19  1  0
 14 13  1  0
 15 14  2  0
 16 17  2  0
 16 15  1  0
 17 18  1  0
 18 19  2  0
 20 27  1  0
 21 20  2  0
 23 22  1  0
 24 23  1  0
 24 26  1  0
 24 25  1  1
 26 28  1  0
 26 27  1  1
 28 29  2  0
 28 30  1  0
M  END
$$$$
