HFI.pdb
     RDKit          3D

 30 31  0  0  1  0  0  0  0  0999 V2000
   28.1713  -21.6898  -16.8967 N   0  0  0  0  0  0  0  0  0  0  0  0
   27.4905  -20.5461  -16.3294 C   0  0  1  0  0  0  0  0  0  0  0  0
   26.7549  -19.8452  -17.4290 C   0  0  0  0  0  0  0  0  0  0  0  0
   27.7395  -19.1078  -18.2586 C   0  0  0  0  0  0  0  0  0  0  0  0
   28.4926  -19.5458  -19.3260 C   0  0  0  0  0  0  0  0  0  0  0  0
   29.2687  -18.5606  -19.8050 N   0  0  0  0  0  0  0  0  0  0  0  0
   29.0176  -17.4786  -19.0445 C   0  0  0  0  0  0  0  0  0  0  0  0
   28.0956  -17.7998  -18.1083 N   0  0  0  0  0  0  0  0  0  0  0  0
   26.5958  -21.0095  -15.2442 C   0  0  0  0  0  0  0  0  0  0  0  0
   26.0107  -22.1292  -15.3302 O   0  0  0  0  0  0  0  0  0  0  0  0
   26.3515  -20.2404  -14.0753 N   0  0  0  0  0  0  0  0  0  0  0  0
   25.5217  -20.7857  -13.0210 C   0  0  1  0  0  0  0  0  0  0  0  0
   25.8526  -20.0487  -11.7482 C   0  0  0  0  0  0  0  0  0  0  0  0
   25.0603  -20.4609  -10.5983 C   0  0  0  0  0  0  0  0  0  0  0  0
   23.7664  -20.0317  -10.4115 C   0  0  0  0  0  0  0  0  0  0  0  0
   23.0853  -20.4710   -9.2928 C   0  0  0  0  0  0  0  0  0  0  0  0
   23.6525  -21.3169   -8.3656 C   0  0  0  0  0  0  0  0  0  0  0  0
   24.9351  -21.7366   -8.5597 C   0  0  0  0  0  0  0  0  0  0  0  0
   25.6313  -21.3080   -9.6718 C   0  0  0  0  0  0  0  0  0  0  0  0
   24.0958  -20.4390  -13.3533 C   0  0  0  0  0  0  0  0  0  0  0  0
   23.7509  -19.2571  -13.6390 O   0  0  0  0  0  0  0  0  0  0  0  0
   21.5282  -22.1396  -17.3664 C   0  0  0  0  0  0  0  0  0  0  0  0
   22.0354  -21.3350  -16.1899 C   0  0  0  0  0  0  0  0  0  0  0  0
   21.2557  -21.7810  -14.9708 C   0  0  2  0  0  0  0  0  0  0  0  0
   19.7950  -21.5046  -15.1608 C   0  0  0  0  0  0  0  0  0  0  0  0
   21.7160  -21.0615  -13.7227 C   0  0  2  0  0  0  0  0  0  0  0  0
   23.0704  -21.4182  -13.3627 N   0  0  0  0  0  0  0  0  0  0  0  0
   20.8265  -21.4995  -12.6229 C   0  0  0  0  0  0  0  0  0  0  0  0
   20.9721  -22.5993  -12.0259 O   0  0  0  0  0  0  0  0  0  0  0  0
   19.7903  -20.6662  -12.2327 O   0  0  0  0  0  0  0  0  0  0  0  0
  2  3  1  0
  2  1  1  6
  3  4  1  0
  4  8  1  0
  5  6  1  0
  5  4  2  0
  6  7  1  0
  7  8  2  0
  9  2  1  0
  9 10  2  0
 11  9  1  0
 12 11  1  0
 12 20  1  0
 12 13  1  1
 14 19  1  0
 14 13  1  0
 15 14  2  0
 16 17  2  0
 16 15  1  0
 17 18  1  0
 18 19  2  0
 20 27  1  0
 21 20  2  0
 23 22  1  0
 24 23  1  0
 24 26  1  0
 24 25  1  6
 26 28  1  0
 26 27  1  1
 28 29  2  0
 28 30  1  0
M  END
$$$$
