HFI.pdb
     RDKit          3D

 30 31  0  0  1  0  0  0  0  0999 V2000
   27.9846  -20.5176  -18.0928 N   0  0  0  0  0  0  0  0  0  0  0  0
   27.0223  -19.6796  -17.4106 C   0  0  1  0  0  0  0  0  0  0  0  0
   25.8430  -19.4893  -18.3132 C   0  0  0  0  0  0  0  0  0  0  0  0
   26.1980  -18.4851  -19.3461 C   0  0  0  0  0  0  0  0  0  0  0  0
   26.4388  -17.1351  -19.2133 C   0  0  0  0  0  0  0  0  0  0  0  0
   26.7308  -16.5784  -20.3996 N   0  0  0  0  0  0  0  0  0  0  0  0
   26.6791  -17.5724  -21.3059 C   0  0  0  0  0  0  0  0  0  0  0  0
   26.3581  -18.7271  -20.6788 N   0  0  0  0  0  0  0  0  0  0  0  0
   26.6626  -20.3130  -16.1214 C   0  0  0  0  0  0  0  0  0  0  0  0
   25.9835  -21.3817  -16.0998 O   0  0  0  0  0  0  0  0  0  0  0  0
   27.0511  -19.7684  -14.8684 N   0  0  0  0  0  0  0  0  0  0  0  0
   26.5970  -20.3954  -13.6444 C   0  0  1  0  0  0  0  0  0  0  0  0
   27.3959  -19.8134  -12.5061 C   0  0  0  0  0  0  0  0  0  0  0  0
   26.9298  -20.2132  -11.1860 C   0  0  0  0  0  0  0  0  0  0  0  0
   27.2723  -21.4226  -10.6261 C   0  0  0  0  0  0  0  0  0  0  0  0
   26.7867  -21.7235   -9.3684 C   0  0  0  0  0  0  0  0  0  0  0  0
   25.9781  -20.8615   -8.6614 C   0  0  0  0  0  0  0  0  0  0  0  0
   25.6443  -19.6656   -9.2248 C   0  0  0  0  0  0  0  0  0  0  0  0
   26.1202  -19.3477  -10.4808 C   0  0  0  0  0  0  0  0  0  0  0  0
   25.1720  -19.9644  -13.4263 C   0  0  0  0  0  0  0  0  0  0  0  0
   24.8057  -18.7691  -13.6127 O   0  0  0  0  0  0  0  0  0  0  0  0
   19.7024  -20.7089  -14.9688 C   0  0  0  0  0  0  0  0  0  0  0  0
   20.4960  -20.3213  -13.7404 C   0  0  0  0  0  0  0  0  0  0  0  0
   21.8998  -20.8585  -13.9242 C   0  0  2  0  0  0  0  0  0  0  0  0
   21.8793  -22.3563  -13.9680 C   0  0  0  0  0  0  0  0  0  0  0  0
   22.8111  -20.4296  -12.7960 C   0  0  2  0  0  0  0  0  0  0  0  0
   24.1714  -20.8749  -13.0021 N   0  0  0  0  0  0  0  0  0  0  0  0
   22.3050  -21.0796  -11.5655 C   0  0  0  0  0  0  0  0  0  0  0  0
   22.8440  -22.1018  -11.0640 O   0  0  0  0  0  0  0  0  0  0  0  0
   21.1923  -20.5423  -10.9382 O   0  0  0  0  0  0  0  0  0  0  0  0
  2  3  1  0
  2  1  1  6
  3  4  1  0
  4  8  1  0
  5  6  1  0
  5  4  2  0
  6  7  1  0
  7  8  2  0
  9  2  1  0
  9 10  2  0
 11  9  1  0
 12 11  1  0
 12 20  1  0
 12 13  1  1
 14 19  1  0
 14 13  1  0
 15 14  2  0
 16 17  2  0
 16 15  1  0
 17 18  1  0
 18 19  2  0
 20 27  1  0
 21 20  2  0
 23 22  1  0
 24 23  1  0
 24 26  1  0
 24 25  1  1
 26 28  1  0
 26 27  1  6
 28 29  2  0
 28 30  1  0
M  END
$$$$
