HFI.pdb
     RDKit          3D

 30 31  0  0  1  0  0  0  0  0999 V2000
   26.1881  -21.5839  -13.0199 N   0  0  0  0  0  0  0  0  0  0  0  0
   25.5882  -20.6304  -12.1119 C   0  0  1  0  0  0  0  0  0  0  0  0
   24.1012  -20.7031  -12.2705 C   0  0  0  0  0  0  0  0  0  0  0  0
   23.7376  -20.1046  -13.5786 C   0  0  0  0  0  0  0  0  0  0  0  0
   24.0844  -18.8830  -14.1129 C   0  0  0  0  0  0  0  0  0  0  0  0
   23.5457  -18.7194  -15.3317 N   0  0  0  0  0  0  0  0  0  0  0  0
   22.8461  -19.8403  -15.5887 C   0  0  0  0  0  0  0  0  0  0  0  0
   22.9563  -20.6822  -14.5358 N   0  0  0  0  0  0  0  0  0  0  0  0
   26.0342  -20.9342  -10.7329 C   0  0  0  0  0  0  0  0  0  0  0  0
   25.8075  -22.0704  -10.2216 O   0  0  0  0  0  0  0  0  0  0  0  0
   26.7244  -19.9891   -9.9280 N   0  0  0  0  0  0  0  0  0  0  0  0
   27.0840  -20.3350   -8.5683 C   0  0  1  0  0  0  0  0  0  0  0  0
   28.0802  -19.3131   -8.0824 C   0  0  0  0  0  0  0  0  0  0  0  0
   28.5168  -19.5139   -6.7080 C   0  0  0  0  0  0  0  0  0  0  0  0
   29.2734  -20.6005   -6.3335 C   0  0  0  0  0  0  0  0  0  0  0  0
   29.6452  -20.7146   -5.0081 C   0  0  0  0  0  0  0  0  0  0  0  0
   29.2876  -19.7856   -4.0563 C   0  0  0  0  0  0  0  0  0  0  0  0
   28.5379  -18.7124   -4.4374 C   0  0  0  0  0  0  0  0  0  0  0  0
   28.1569  -18.5817   -5.7575 C   0  0  0  0  0  0  0  0  0  0  0  0
   25.8509  -20.1599   -7.7241 C   0  0  0  0  0  0  0  0  0  0  0  0
   25.1028  -19.1485   -7.8463 O   0  0  0  0  0  0  0  0  0  0  0  0
   21.2151  -23.2566   -5.6481 C   0  0  0  0  0  0  0  0  0  0  0  0
   22.0238  -21.9954   -5.4380 C   0  0  0  0  0  0  0  0  0  0  0  0
   23.3622  -22.2015   -6.1156 C   0  0  2  0  0  0  0  0  0  0  0  0
   24.0950  -23.3428   -5.4780 C   0  0  0  0  0  0  0  0  0  0  0  0
   24.2305  -20.9670   -6.0182 C   0  0  2  0  0  0  0  0  0  0  0  0
   25.4674  -21.1180   -6.7519 N   0  0  0  0  0  0  0  0  0  0  0  0
   24.5725  -20.7953   -4.5877 C   0  0  0  0  0  0  0  0  0  0  0  0
   25.6118  -21.2861   -4.0721 O   0  0  0  0  0  0  0  0  0  0  0  0
   23.7146  -20.0647   -3.7811 O   0  0  0  0  0  0  0  0  0  0  0  0
  2  3  1  0
  2  1  1  6
  3  4  1  0
  4  8  1  0
  5  6  1  0
  5  4  2  0
  6  7  1  0
  7  8  2  0
  9  2  1  0
  9 10  2  0
 11  9  1  0
 12 11  1  0
 12 20  1  0
 12 13  1  1
 14 19  1  0
 14 13  1  0
 15 14  2  0
 16 17  2  0
 16 15  1  0
 17 18  1  0
 18 19  2  0
 20 27  1  0
 21 20  2  0
 23 22  1  0
 24 23  1  0
 24 26  1  0
 24 25  1  1
 26 28  1  0
 26 27  1  6
 28 29  2  0
 28 30  1  0
M  END
$$$$
