HFI.pdb
     RDKit          3D

 30 31  0  0  1  0  0  0  0  0999 V2000
   26.7438  -21.7647  -13.6414 N   0  0  0  0  0  0  0  0  0  0  0  0
   25.9459  -20.7131  -13.0491 C   0  0  1  0  0  0  0  0  0  0  0  0
   24.6458  -20.6382  -13.7878 C   0  0  0  0  0  0  0  0  0  0  0  0
   24.7791  -19.6375  -14.8751 C   0  0  0  0  0  0  0  0  0  0  0  0
   25.7654  -18.6998  -15.0904 C   0  0  0  0  0  0  0  0  0  0  0  0
   25.5137  -17.9806  -16.1958 N   0  0  0  0  0  0  0  0  0  0  0  0
   24.3588  -18.4543  -16.6996 C   0  0  0  0  0  0  0  0  0  0  0  0
   23.9082  -19.4548  -15.9086 N   0  0  0  0  0  0  0  0  0  0  0  0
   25.7713  -20.9974  -11.6064 C   0  0  0  0  0  0  0  0  0  0  0  0
   25.5680  -22.1817  -11.2066 O   0  0  0  0  0  0  0  0  0  0  0  0
   25.8213  -19.9804  -10.6162 N   0  0  0  0  0  0  0  0  0  0  0  0
   25.6245  -20.3275   -9.2239 C   0  0  1  0  0  0  0  0  0  0  0  0
   26.1683  -19.1974   -8.3873 C   0  0  0  0  0  0  0  0  0  0  0  0
   27.2653  -19.5806   -7.5099 C   0  0  0  0  0  0  0  0  0  0  0  0
   27.6580  -18.7987   -6.4479 C   0  0  0  0  0  0  0  0  0  0  0  0
   28.7086  -19.2365   -5.6651 C   0  0  0  0  0  0  0  0  0  0  0  0
   29.3711  -20.4191   -5.9093 C   0  0  0  0  0  0  0  0  0  0  0  0
   28.9744  -21.1867   -6.9640 C   0  0  0  0  0  0  0  0  0  0  0  0
   27.9264  -20.7653   -7.7572 C   0  0  0  0  0  0  0  0  0  0  0  0
   24.1402  -20.3601   -8.9793 C   0  0  0  0  0  0  0  0  0  0  0  0
   23.4162  -19.3406   -9.1633 O   0  0  0  0  0  0  0  0  0  0  0  0
   20.8378  -22.4588  -11.7784 C   0  0  0  0  0  0  0  0  0  0  0  0
   21.4544  -21.5596  -10.7296 C   0  0  0  0  0  0  0  0  0  0  0  0
   21.3039  -22.2577   -9.3943 C   0  0  2  0  0  0  0  0  0  0  0  0
   19.8579  -22.3273   -9.0065 C   0  0  0  0  0  0  0  0  0  0  0  0
   22.0538  -21.5317   -8.2999 C   0  0  2  0  0  0  0  0  0  0  0  0
   23.4812  -21.5329   -8.5315 N   0  0  0  0  0  0  0  0  0  0  0  0
   21.8001  -22.2719   -7.0427 C   0  0  0  0  0  0  0  0  0  0  0  0
   20.7284  -22.1593   -6.3903 O   0  0  0  0  0  0  0  0  0  0  0  0
   22.7814  -23.1244   -6.5625 O   0  0  0  0  0  0  0  0  0  0  0  0
  2  3  1  0
  2  1  1  6
  3  4  1  0
  4  8  1  0
  5  6  1  0
  5  4  2  0
  6  7  1  0
  7  8  2  0
  9  2  1  0
  9 10  2  0
 11  9  1  0
 12 11  1  0
 12 20  1  0
 12 13  1  1
 14 19  1  0
 14 13  1  0
 15 14  2  0
 16 17  2  0
 16 15  1  0
 17 18  1  0
 18 19  2  0
 20 27  1  0
 21 20  2  0
 23 22  1  0
 24 23  1  0
 24 26  1  0
 24 25  1  1
 26 28  1  0
 26 27  1  6
 28 29  2  0
 28 30  1  0
M  END
$$$$
