HFI.pdb
     RDKit          3D

 30 31  0  0  1  0  0  0  0  0999 V2000
   24.9844  -22.6527  -18.2086 N   0  0  0  0  0  0  0  0  0  0  0  0
   25.7714  -23.6714  -17.5482 C   0  0  1  0  0  0  0  0  0  0  0  0
   26.7419  -24.2316  -18.5412 C   0  0  0  0  0  0  0  0  0  0  0  0
   25.9853  -24.6863  -19.7338 C   0  0  0  0  0  0  0  0  0  0  0  0
   25.3580  -25.8899  -19.9704 C   0  0  0  0  0  0  0  0  0  0  0  0
   24.7815  -25.9029  -21.1828 N   0  0  0  0  0  0  0  0  0  0  0  0
   25.0362  -24.7019  -21.7349 C   0  0  0  0  0  0  0  0  0  0  0  0
   25.7624  -23.9609  -20.8671 N   0  0  0  0  0  0  0  0  0  0  0  0
   26.4375  -23.0740  -16.3683 C   0  0  0  0  0  0  0  0  0  0  0  0
   27.2644  -23.7504  -15.6882 O   0  0  0  0  0  0  0  0  0  0  0  0
   26.1905  -21.7407  -15.9457 N   0  0  0  0  0  0  0  0  0  0  0  0
   26.8612  -21.2275  -14.7691 C   0  0  1  0  0  0  0  0  0  0  0  0
   27.1929  -19.7792  -15.0242 C   0  0  0  0  0  0  0  0  0  0  0  0
   27.8873  -19.1248  -13.9245 C   0  0  0  0  0  0  0  0  0  0  0  0
   29.2066  -19.3871  -13.6347 C   0  0  0  0  0  0  0  0  0  0  0  0
   29.7892  -18.7220  -12.5734 C   0  0  0  0  0  0  0  0  0  0  0  0
   29.1004  -17.8127  -11.8016 C   0  0  0  0  0  0  0  0  0  0  0  0
   27.7935  -17.5597  -12.0968 C   0  0  0  0  0  0  0  0  0  0  0  0
   27.1946  -18.2148  -13.1537 C   0  0  0  0  0  0  0  0  0  0  0  0
   25.8607  -21.2418  -13.6453 C   0  0  0  0  0  0  0  0  0  0  0  0
   24.6164  -21.2303  -13.8663 O   0  0  0  0  0  0  0  0  0  0  0  0
   27.6467  -20.7608   -8.2950 C   0  0  0  0  0  0  0  0  0  0  0  0
   27.0503  -21.4925   -9.4772 C   0  0  0  0  0  0  0  0  0  0  0  0
   25.8476  -20.6964   -9.9384 C   0  0  2  0  0  0  0  0  0  0  0  0
   24.7717  -20.7330   -8.8958 C   0  0  0  0  0  0  0  0  0  0  0  0
   25.2781  -21.2461  -11.2271 C   0  0  2  0  0  0  0  0  0  0  0  0
   26.2627  -21.2689  -12.2859 N   0  0  0  0  0  0  0  0  0  0  0  0
   24.1915  -20.3293  -11.6410 C   0  0  0  0  0  0  0  0  0  0  0  0
   22.9901  -20.5002  -11.3028 O   0  0  0  0  0  0  0  0  0  0  0  0
   24.5075  -19.2372  -12.4333 O   0  0  0  0  0  0  0  0  0  0  0  0
  2  3  1  0
  2  1  1  6
  3  4  1  0
  4  8  1  0
  5  6  1  0
  5  4  2  0
  6  7  1  0
  7  8  2  0
  9  2  1  0
  9 10  2  0
 11  9  1  0
 12 11  1  0
 12 20  1  0
 12 13  1  6
 14 19  1  0
 14 13  1  0
 15 14  2  0
 16 17  2  0
 16 15  1  0
 17 18  1  0
 18 19  2  0
 20 27  1  0
 21 20  2  0
 23 22  1  0
 24 23  1  0
 24 26  1  0
 24 25  1  1
 26 28  1  0
 26 27  1  6
 28 29  2  0
 28 30  1  0
M  END
$$$$
