HFI.pdb
     RDKit          3D

 30 31  0  0  1  0  0  0  0  0999 V2000
   27.5308  -23.0077  -17.2623 N   0  0  0  0  0  0  0  0  0  0  0  0
   27.2316  -21.6897  -16.7459 C   0  0  1  0  0  0  0  0  0  0  0  0
   26.3516  -20.9878  -17.7330 C   0  0  0  0  0  0  0  0  0  0  0  0
   27.1893  -20.5316  -18.8695 C   0  0  0  0  0  0  0  0  0  0  0  0
   28.1268  -19.5233  -18.9211 C   0  0  0  0  0  0  0  0  0  0  0  0
   28.6672  -19.4298  -20.1465 N   0  0  0  0  0  0  0  0  0  0  0  0
   28.0772  -20.3820  -20.8930 C   0  0  0  0  0  0  0  0  0  0  0  0
   27.1836  -21.0521  -20.1301 N   0  0  0  0  0  0  0  0  0  0  0  0
   26.6029  -21.8277  -15.4123 C   0  0  0  0  0  0  0  0  0  0  0  0
   25.7866  -22.7682  -15.1829 O   0  0  0  0  0  0  0  0  0  0  0  0
   26.8754  -20.9330  -14.3434 N   0  0  0  0  0  0  0  0  0  0  0  0
   26.1716  -21.0847  -13.0867 C   0  0  1  0  0  0  0  0  0  0  0  0
   26.8815  -20.2421  -12.0578 C   0  0  0  0  0  0  0  0  0  0  0  0
   26.2683  -20.2724  -10.7375 C   0  0  0  0  0  0  0  0  0  0  0  0
   25.3631  -19.3192  -10.3309 C   0  0  0  0  0  0  0  0  0  0  0  0
   24.8286  -19.4225   -9.0613 C   0  0  0  0  0  0  0  0  0  0  0  0
   25.1680  -20.4386   -8.1956 C   0  0  0  0  0  0  0  0  0  0  0  0
   26.0658  -21.3782   -8.6080 C   0  0  0  0  0  0  0  0  0  0  0  0
   26.6104  -21.2912   -9.8733 C   0  0  0  0  0  0  0  0  0  0  0  0
   24.8071  -20.4761  -13.2650 C   0  0  0  0  0  0  0  0  0  0  0  0
   24.6572  -19.3127  -13.7356 O   0  0  0  0  0  0  0  0  0  0  0  0
   22.1325  -20.0341  -15.9232 C   0  0  0  0  0  0  0  0  0  0  0  0
   22.0088  -21.4453  -15.3923 C   0  0  0  0  0  0  0  0  0  0  0  0
   21.4307  -21.3512  -13.9959 C   0  0  2  0  0  0  0  0  0  0  0  0
   20.0885  -20.6858  -14.0350 C   0  0  0  0  0  0  0  0  0  0  0  0
   22.3281  -20.5546  -13.0753 C   0  0  2  0  0  0  0  0  0  0  0  0
   23.6243  -21.1754  -12.9152 N   0  0  0  0  0  0  0  0  0  0  0  0
   21.6709  -20.5337  -11.7486 C   0  0  0  0  0  0  0  0  0  0  0  0
   20.9791  -19.5607  -11.3463 O   0  0  0  0  0  0  0  0  0  0  0  0
   21.8219  -21.6291  -10.9134 O   0  0  0  0  0  0  0  0  0  0  0  0
  2  3  1  0
  2  1  1  6
  3  4  1  0
  4  8  1  0
  5  6  1  0
  5  4  2  0
  6  7  1  0
  7  8  2  0
  9  2  1  0
  9 10  2  0
 11  9  1  0
 12 11  1  0
 12 20  1  0
 12 13  1  1
 14 19  1  0
 14 13  1  0
 15 14  2  0
 16 17  2  0
 16 15  1  0
 17 18  1  0
 18 19  2  0
 20 27  1  0
 21 20  2  0
 23 22  1  0
 24 23  1  0
 24 26  1  0
 24 25  1  6
 26 28  1  0
 26 27  1  1
 28 29  2  0
 28 30  1  0
M  END
$$$$
