HFI.pdb
     RDKit          3D

 30 31  0  0  1  0  0  0  0  0999 V2000
   27.9684  -20.7130  -17.5471 N   0  0  0  0  0  0  0  0  0  0  0  0
   27.5614  -19.6701  -16.6304 C   0  0  1  0  0  0  0  0  0  0  0  0
   26.3248  -19.0243  -17.1739 C   0  0  0  0  0  0  0  0  0  0  0  0
   26.6929  -18.2443  -18.3812 C   0  0  0  0  0  0  0  0  0  0  0  0
   27.3367  -17.0303  -18.4807 C   0  0  0  0  0  0  0  0  0  0  0  0
   27.4805  -16.6646  -19.7645 N   0  0  0  0  0  0  0  0  0  0  0  0
   26.9273  -17.6463  -20.5008 C   0  0  0  0  0  0  0  0  0  0  0  0
   26.4493  -18.6041  -19.6740 N   0  0  0  0  0  0  0  0  0  0  0  0
   27.3577  -20.2626  -15.2888 C   0  0  0  0  0  0  0  0  0  0  0  0
   26.6215  -21.2827  -15.1437 O   0  0  0  0  0  0  0  0  0  0  0  0
   27.9633  -19.7307  -14.1192 N   0  0  0  0  0  0  0  0  0  0  0  0
   27.6640  -20.3170  -12.8291 C   0  0  1  0  0  0  0  0  0  0  0  0
   28.5904  -19.6947  -11.8156 C   0  0  0  0  0  0  0  0  0  0  0  0
   28.2450  -19.9908  -10.4325 C   0  0  0  0  0  0  0  0  0  0  0  0
   28.6772  -21.1342   -9.8007 C   0  0  0  0  0  0  0  0  0  0  0  0
   28.3035  -21.3379   -8.4865 C   0  0  0  0  0  0  0  0  0  0  0  0
   27.5197  -20.4429   -7.7926 C   0  0  0  0  0  0  0  0  0  0  0  0
   27.0966  -19.3129   -8.4274 C   0  0  0  0  0  0  0  0  0  0  0  0
   27.4600  -19.0924   -9.7406 C   0  0  0  0  0  0  0  0  0  0  0  0
   26.2729  -19.8824  -12.4552 C   0  0  0  0  0  0  0  0  0  0  0  0
   25.8944  -18.6843  -12.5911 O   0  0  0  0  0  0  0  0  0  0  0  0
   20.7020  -20.7516  -13.5359 C   0  0  0  0  0  0  0  0  0  0  0  0
   21.5859  -20.3227  -12.3854 C   0  0  0  0  0  0  0  0  0  0  0  0
   22.9885  -20.8035  -12.6926 C   0  0  2  0  0  0  0  0  0  0  0  0
   23.0191  -22.3003  -12.7618 C   0  0  0  0  0  0  0  0  0  0  0  0
   23.9731  -20.3575  -11.6349 C   0  0  2  0  0  0  0  0  0  0  0  0
   25.3195  -20.7928  -11.9331 N   0  0  0  0  0  0  0  0  0  0  0  0
   23.5611  -21.0017  -10.3669 C   0  0  0  0  0  0  0  0  0  0  0  0
   22.5296  -20.6568   -9.7313 O   0  0  0  0  0  0  0  0  0  0  0  0
   24.3415  -22.0269   -9.8566 O   0  0  0  0  0  0  0  0  0  0  0  0
  2  3  1  0
  2  1  1  6
  3  4  1  0
  4  8  1  0
  5  6  1  0
  5  4  2  0
  6  7  1  0
  7  8  2  0
  9  2  1  0
  9 10  2  0
 11  9  1  0
 12 11  1  0
 12 20  1  0
 12 13  1  1
 14 19  1  0
 14 13  1  0
 15 14  2  0
 16 17  2  0
 16 15  1  0
 17 18  1  0
 18 19  2  0
 20 27  1  0
 21 20  2  0
 23 22  1  0
 24 23  1  0
 24 26  1  0
 24 25  1  1
 26 28  1  0
 26 27  1  6
 28 29  2  0
 28 30  1  0
M  END
$$$$
