HFI.pdb
     RDKit          3D

 30 31  0  0  1  0  0  0  0  0999 V2000
   26.4692  -20.2495  -15.9722 N   0  0  0  0  0  0  0  0  0  0  0  0
   27.1134  -20.8248  -14.8114 C   0  0  1  0  0  0  0  0  0  0  0  0
   28.5706  -20.4856  -14.8675 C   0  0  0  0  0  0  0  0  0  0  0  0
   29.1945  -21.2694  -15.9620 C   0  0  0  0  0  0  0  0  0  0  0  0
   29.7019  -20.8426  -17.1697 C   0  0  0  0  0  0  0  0  0  0  0  0
   30.1813  -21.8742  -17.8828 N   0  0  0  0  0  0  0  0  0  0  0  0
   29.9838  -22.9751  -17.1337 C   0  0  0  0  0  0  0  0  0  0  0  0
   29.3885  -22.6194  -15.9724 N   0  0  0  0  0  0  0  0  0  0  0  0
   26.4508  -20.3116  -13.5907 C   0  0  0  0  0  0  0  0  0  0  0  0
   26.2316  -19.0720  -13.4533 O   0  0  0  0  0  0  0  0  0  0  0  0
   26.0349  -21.1628  -12.5323 N   0  0  0  0  0  0  0  0  0  0  0  0
   25.3560  -20.5975  -11.3846 C   0  0  1  0  0  0  0  0  0  0  0  0
   23.9220  -21.0609  -11.4248 C   0  0  0  0  0  0  0  0  0  0  0  0
   23.1511  -20.5159  -12.5332 C   0  0  0  0  0  0  0  0  0  0  0  0
   23.0564  -21.1622  -13.7443 C   0  0  0  0  0  0  0  0  0  0  0  0
   22.3040  -20.5754  -14.7431 C   0  0  0  0  0  0  0  0  0  0  0  0
   21.6507  -19.3753  -14.5698 C   0  0  0  0  0  0  0  0  0  0  0  0
   21.7507  -18.7427  -13.3661 C   0  0  0  0  0  0  0  0  0  0  0  0
   22.4982  -19.3140  -12.3562 C   0  0  0  0  0  0  0  0  0  0  0  0
   25.9675  -21.2165  -10.1571 C   0  0  0  0  0  0  0  0  0  0  0  0
   26.1465  -22.4642  -10.0636 O   0  0  0  0  0  0  0  0  0  0  0  0
   28.2151  -18.1331   -5.8953 C   0  0  0  0  0  0  0  0  0  0  0  0
   27.1767  -18.8340   -6.7435 C   0  0  0  0  0  0  0  0  0  0  0  0
   27.6627  -20.2501   -6.9701 C   0  0  2  0  0  0  0  0  0  0  0  0
   28.9668  -20.2380   -7.7085 C   0  0  0  0  0  0  0  0  0  0  0  0
   26.6690  -21.0565   -7.7759 C   0  0  2  0  0  0  0  0  0  0  0  0
   26.3725  -20.4333   -9.0467 N   0  0  0  0  0  0  0  0  0  0  0  0
   25.4143  -21.0990   -6.9906 C   0  0  0  0  0  0  0  0  0  0  0  0
   25.3280  -21.6783   -5.8753 O   0  0  0  0  0  0  0  0  0  0  0  0
   24.2872  -20.4760   -7.5023 O   0  0  0  0  0  0  0  0  0  0  0  0
  2  3  1  0
  2  1  1  6
  3  4  1  0
  4  8  1  0
  5  6  1  0
  5  4  2  0
  6  7  1  0
  7  8  2  0
  9  2  1  0
  9 10  2  0
 11  9  1  0
 12 11  1  0
 12 20  1  0
 12 13  1  6
 14 19  1  0
 14 13  1  0
 15 14  2  0
 16 17  2  0
 16 15  1  0
 17 18  1  0
 18 19  2  0
 20 27  1  0
 21 20  2  0
 23 22  1  0
 24 23  1  0
 24 26  1  0
 24 25  1  6
 26 28  1  0
 26 27  1  6
 28 29  2  0
 28 30  1  0
M  END
$$$$
