HFI.pdb
     RDKit          3D

 30 31  0  0  1  0  0  0  0  0999 V2000
   26.1383  -21.8974  -13.1608 N   0  0  0  0  0  0  0  0  0  0  0  0
   25.7003  -20.7948  -12.3326 C   0  0  1  0  0  0  0  0  0  0  0  0
   24.2295  -20.6076  -12.5403 C   0  0  0  0  0  0  0  0  0  0  0  0
   24.0222  -19.9002  -13.8280 C   0  0  0  0  0  0  0  0  0  0  0  0
   24.9457  -19.3254  -14.6735 C   0  0  0  0  0  0  0  0  0  0  0  0
   24.3459  -18.7815  -15.7444 N   0  0  0  0  0  0  0  0  0  0  0  0
   23.0272  -19.0048  -15.5925 C   0  0  0  0  0  0  0  0  0  0  0  0
   22.8226  -19.6796  -14.4382 N   0  0  0  0  0  0  0  0  0  0  0  0
   26.0490  -21.0850  -10.9230 C   0  0  0  0  0  0  0  0  0  0  0  0
   25.8281  -22.2307  -10.4309 O   0  0  0  0  0  0  0  0  0  0  0  0
   26.6364  -20.1158  -10.0667 N   0  0  0  0  0  0  0  0  0  0  0  0
   26.8862  -20.4455   -8.6787 C   0  0  1  0  0  0  0  0  0  0  0  0
   27.8764  -19.4447   -8.1397 C   0  0  0  0  0  0  0  0  0  0  0  0
   28.1264  -19.5649   -6.7104 C   0  0  0  0  0  0  0  0  0  0  0  0
   27.6594  -18.6379   -5.8070 C   0  0  0  0  0  0  0  0  0  0  0  0
   27.9417  -18.8277   -4.4682 C   0  0  0  0  0  0  0  0  0  0  0  0
   28.6686  -19.9043   -4.0103 C   0  0  0  0  0  0  0  0  0  0  0  0
   29.1269  -20.8172   -4.9134 C   0  0  0  0  0  0  0  0  0  0  0  0
   28.8546  -20.6441   -6.2554 C   0  0  0  0  0  0  0  0  0  0  0  0
   25.6016  -20.2170   -7.9293 C   0  0  0  0  0  0  0  0  0  0  0  0
   24.8969  -19.1858   -8.1222 O   0  0  0  0  0  0  0  0  0  0  0  0
   20.5719  -22.8007   -6.2797 C   0  0  0  0  0  0  0  0  0  0  0  0
   21.5729  -21.7759   -5.7935 C   0  0  0  0  0  0  0  0  0  0  0  0
   22.8499  -21.9866   -6.5796 C   0  0  2  0  0  0  0  0  0  0  0  0
   23.4565  -23.3132   -6.2357 C   0  0  0  0  0  0  0  0  0  0  0  0
   23.8687  -20.9086   -6.2843 C   0  0  2  0  0  0  0  0  0  0  0  0
   25.1188  -21.1447   -6.9719 N   0  0  0  0  0  0  0  0  0  0  0  0
   24.1374  -20.9599   -4.8291 C   0  0  0  0  0  0  0  0  0  0  0  0
   25.1794  -21.4779   -4.3465 O   0  0  0  0  0  0  0  0  0  0  0  0
   23.2050  -20.4158   -3.9603 O   0  0  0  0  0  0  0  0  0  0  0  0
  2  3  1  0
  2  1  1  6
  3  4  1  0
  4  8  1  0
  5  6  1  0
  5  4  2  0
  6  7  1  0
  7  8  2  0
  9  2  1  0
  9 10  2  0
 11  9  1  0
 12 11  1  0
 12 20  1  0
 12 13  1  1
 14 19  1  0
 14 13  1  0
 15 14  2  0
 16 17  2  0
 16 15  1  0
 17 18  1  0
 18 19  2  0
 20 27  1  0
 21 20  2  0
 23 22  1  0
 24 23  1  0
 24 26  1  0
 24 25  1  1
 26 28  1  0
 26 27  1  6
 28 29  2  0
 28 30  1  0
M  END
$$$$
