HFI.pdb
     RDKit          3D

 30 31  0  0  1  0  0  0  0  0999 V2000
   17.2673  -13.3524    5.8087 N   0  0  0  0  0  0  0  0  0  0  0  0
   18.3274  -14.3214    5.9837 C   0  0  1  0  0  0  0  0  0  0  0  0
   18.8354  -14.2123    7.3878 C   0  0  0  0  0  0  0  0  0  0  0  0
   19.8706  -13.1503    7.4327 C   0  0  0  0  0  0  0  0  0  0  0  0
   20.3494  -12.3464    6.4214 C   0  0  0  0  0  0  0  0  0  0  0  0
   21.2915  -11.5062    6.8784 N   0  0  0  0  0  0  0  0  0  0  0  0
   21.4242  -11.7666    8.1925 C   0  0  0  0  0  0  0  0  0  0  0  0
   20.5702  -12.7578    8.5357 N   0  0  0  0  0  0  0  0  0  0  0  0
   17.8032  -15.6693    5.6656 C   0  0  0  0  0  0  0  0  0  0  0  0
   16.6155  -15.9839    5.9722 O   0  0  0  0  0  0  0  0  0  0  0  0
   18.5866  -16.6591    5.0145 N   0  0  0  0  0  0  0  0  0  0  0  0
   17.9853  -17.9281    4.6600 C   0  0  1  0  0  0  0  0  0  0  0  0
   18.1612  -18.1211    3.1753 C   0  0  0  0  0  0  0  0  0  0  0  0
   17.3883  -17.1959    2.3589 C   0  0  0  0  0  0  0  0  0  0  0  0
   16.0900  -17.4596    1.9869 C   0  0  0  0  0  0  0  0  0  0  0  0
   15.4284  -16.5276    1.2112 C   0  0  0  0  0  0  0  0  0  0  0  0
   16.0189  -15.3530    0.8006 C   0  0  0  0  0  0  0  0  0  0  0  0
   17.3057  -15.1009    1.1744 C   0  0  0  0  0  0  0  0  0  0  0  0
   17.9827  -16.0207    1.9495 C   0  0  0  0  0  0  0  0  0  0  0  0
   18.7962  -19.0060    5.3268 C   0  0  0  0  0  0  0  0  0  0  0  0
   20.0454  -18.8942    5.4827 O   0  0  0  0  0  0  0  0  0  0  0  0
   18.5167  -20.6598   10.1444 C   0  0  0  0  0  0  0  0  0  0  0  0
   18.9470  -20.3028    8.7386 C   0  0  0  0  0  0  0  0  0  0  0  0
   18.6215  -21.4880    7.8542 C   0  0  2  0  0  0  0  0  0  0  0  0
   19.3539  -22.7058    8.3303 C   0  0  0  0  0  0  0  0  0  0  0  0
   19.0120  -21.2320    6.4158 C   0  0  2  0  0  0  0  0  0  0  0  0
   18.2011  -20.1978    5.8123 N   0  0  0  0  0  0  0  0  0  0  0  0
   18.7646  -22.4896    5.6742 C   0  0  0  0  0  0  0  0  0  0  0  0
   17.6580  -22.7556    5.1341 O   0  0  0  0  0  0  0  0  0  0  0  0
   19.7921  -23.4134    5.5688 O   0  0  0  0  0  0  0  0  0  0  0  0
  2  3  1  0
  2  1  1  1
  3  4  1  0
  4  8  1  0
  5  6  1  0
  5  4  2  0
  6  7  1  0
  7  8  2  0
  9  2  1  0
  9 10  2  0
 11  9  1  0
 12 11  1  0
 12 20  1  0
 12 13  1  6
 14 19  1  0
 14 13  1  0
 15 14  2  0
 16 17  2  0
 16 15  1  0
 17 18  1  0
 18 19  2  0
 20 27  1  0
 21 20  2  0
 23 22  1  0
 24 23  1  0
 24 26  1  0
 24 25  1  1
 26 28  1  0
 26 27  1  6
 28 29  2  0
 28 30  1  0
M  END
$$$$
