HFI.pdb
     RDKit          3D

 30 31  0  0  1  0  0  0  0  0999 V2000
   27.9723  -23.3900  -17.3885 N   0  0  0  0  0  0  0  0  0  0  0  0
   27.3881  -22.0894  -17.1418 C   0  0  1  0  0  0  0  0  0  0  0  0
   26.5974  -21.6937  -18.3500 C   0  0  0  0  0  0  0  0  0  0  0  0
   27.4525  -20.8434  -19.2145 C   0  0  0  0  0  0  0  0  0  0  0  0
   28.5902  -21.1705  -19.9193 C   0  0  0  0  0  0  0  0  0  0  0  0
   29.0690  -20.1061  -20.5828 N   0  0  0  0  0  0  0  0  0  0  0  0
   28.2377  -19.0840  -20.3068 C   0  0  0  0  0  0  0  0  0  0  0  0
   27.2588  -19.5200  -19.4814 N   0  0  0  0  0  0  0  0  0  0  0  0
   26.5642  -22.1582  -15.9134 C   0  0  0  0  0  0  0  0  0  0  0  0
   25.8879  -23.1966  -15.6526 O   0  0  0  0  0  0  0  0  0  0  0  0
   26.4899  -21.0877  -14.9829 N   0  0  0  0  0  0  0  0  0  0  0  0
   25.8022  -21.2816  -13.7231 C   0  0  1  0  0  0  0  0  0  0  0  0
   26.4310  -20.3595  -12.7096 C   0  0  0  0  0  0  0  0  0  0  0  0
   25.8176  -20.4177  -11.3904 C   0  0  0  0  0  0  0  0  0  0  0  0
   24.6205  -19.7982  -11.1138 C   0  0  0  0  0  0  0  0  0  0  0  0
   24.1083  -19.9033   -9.8353 C   0  0  0  0  0  0  0  0  0  0  0  0
   24.7496  -20.6012   -8.8360 C   0  0  0  0  0  0  0  0  0  0  0  0
   25.9352  -21.2116   -9.1200 C   0  0  0  0  0  0  0  0  0  0  0  0
   26.4624  -21.1174  -10.3921 C   0  0  0  0  0  0  0  0  0  0  0  0
   24.3877  -20.8041  -13.9107 C   0  0  0  0  0  0  0  0  0  0  0  0
   24.1304  -19.6946  -14.4586 O   0  0  0  0  0  0  0  0  0  0  0  0
   20.9681  -22.6524  -16.9828 C   0  0  0  0  0  0  0  0  0  0  0  0
   21.8021  -21.8060  -16.0464 C   0  0  0  0  0  0  0  0  0  0  0  0
   21.1570  -21.8804  -14.6784 C   0  0  2  0  0  0  0  0  0  0  0  0
   19.7575  -21.3476  -14.7364 C   0  0  0  0  0  0  0  0  0  0  0  0
   21.9284  -21.0765  -13.6557 C   0  0  2  0  0  0  0  0  0  0  0  0
   23.2756  -21.5729  -13.4835 N   0  0  0  0  0  0  0  0  0  0  0  0
   21.2209  -21.2341  -12.3644 C   0  0  0  0  0  0  0  0  0  0  0  0
   21.2606  -22.2983  -11.6914 O   0  0  0  0  0  0  0  0  0  0  0  0
   20.4840  -20.1677  -11.8745 O   0  0  0  0  0  0  0  0  0  0  0  0
  2  3  1  0
  2  1  1  6
  3  4  1  0
  4  8  1  0
  5  6  1  0
  5  4  2  0
  6  7  1  0
  7  8  2  0
  9  2  1  0
  9 10  2  0
 11  9  1  0
 12 11  1  0
 12 20  1  0
 12 13  1  1
 14 19  1  0
 14 13  1  0
 15 14  2  0
 16 17  2  0
 16 15  1  0
 17 18  1  0
 18 19  2  0
 20 27  1  0
 21 20  2  0
 23 22  1  0
 24 23  1  0
 24 26  1  0
 24 25  1  6
 26 28  1  0
 26 27  1  1
 28 29  2  0
 28 30  1  0
M  END
$$$$
