HFI.pdb
     RDKit          3D

 30 31  0  0  1  0  0  0  0  0999 V2000
   33.8867  -27.7073  -18.2221 N   0  0  0  0  0  0  0  0  0  0  0  0
   32.7853  -28.5032  -18.7191 C   0  0  1  0  0  0  0  0  0  0  0  0
   33.2980  -29.8773  -19.0202 C   0  0  0  0  0  0  0  0  0  0  0  0
   33.7208  -29.9209  -20.4418 C   0  0  0  0  0  0  0  0  0  0  0  0
   33.4042  -29.0714  -21.4792 C   0  0  0  0  0  0  0  0  0  0  0  0
   33.9955  -29.4619  -22.6196 N   0  0  0  0  0  0  0  0  0  0  0  0
   34.6988  -30.5698  -22.3199 C   0  0  0  0  0  0  0  0  0  0  0  0
   34.5388  -30.8543  -21.0073 N   0  0  0  0  0  0  0  0  0  0  0  0
   31.6999  -28.5031  -17.7118 C   0  0  0  0  0  0  0  0  0  0  0  0
   31.9183  -28.9148  -16.5343 O   0  0  0  0  0  0  0  0  0  0  0  0
   30.3857  -28.0516  -18.0055 N   0  0  0  0  0  0  0  0  0  0  0  0
   29.3686  -28.0918  -16.9751 C   0  0  1  0  0  0  0  0  0  0  0  0
   28.9106  -26.6773  -16.7262 C   0  0  0  0  0  0  0  0  0  0  0  0
   29.9748  -25.7690  -16.3233 C   0  0  0  0  0  0  0  0  0  0  0  0
   30.5995  -25.8724  -15.1017 C   0  0  0  0  0  0  0  0  0  0  0  0
   31.6001  -24.9695  -14.7988 C   0  0  0  0  0  0  0  0  0  0  0  0
   31.9906  -23.9773  -15.6706 C   0  0  0  0  0  0  0  0  0  0  0  0
   31.3654  -23.8831  -16.8786 C   0  0  0  0  0  0  0  0  0  0  0  0
   30.3633  -24.7767  -17.1987 C   0  0  0  0  0  0  0  0  0  0  0  0
   28.1861  -28.8263  -17.5461 C   0  0  0  0  0  0  0  0  0  0  0  0
   27.8817  -28.7416  -18.7699 O   0  0  0  0  0  0  0  0  0  0  0  0
   27.3726  -33.9952  -16.8171 C   0  0  0  0  0  0  0  0  0  0  0  0
   27.5205  -32.5565  -17.2611 C   0  0  0  0  0  0  0  0  0  0  0  0
   26.2498  -31.8322  -16.8690 C   0  0  2  0  0  0  0  0  0  0  0  0
   25.0593  -32.5085  -17.4783 C   0  0  0  0  0  0  0  0  0  0  0  0
   26.2655  -30.3924  -17.3315 C   0  0  2  0  0  0  0  0  0  0  0  0
   27.3562  -29.6481  -16.7421 N   0  0  0  0  0  0  0  0  0  0  0  0
   24.9992  -29.7798  -16.8688 C   0  0  0  0  0  0  0  0  0  0  0  0
   24.8451  -29.3340  -15.7007 O   0  0  0  0  0  0  0  0  0  0  0  0
   23.9386  -29.6925  -17.7563 O   0  0  0  0  0  0  0  0  0  0  0  0
  2  3  1  0
  2  1  1  1
  3  4  1  0
  4  8  1  0
  5  6  1  0
  5  4  2  0
  6  7  1  0
  7  8  2  0
  9  2  1  0
  9 10  2  0
 11  9  1  0
 12 11  1  0
 12 20  1  0
 12 13  1  6
 14 19  1  0
 14 13  1  0
 15 14  2  0
 16 17  2  0
 16 15  1  0
 17 18  1  0
 18 19  2  0
 20 27  1  0
 21 20  2  0
 23 22  1  0
 24 23  1  0
 24 26  1  0
 24 25  1  6
 26 28  1  0
 26 27  1  1
 28 29  2  0
 28 30  1  0
M  END
$$$$
