CAD.pdb
     RDKit          3D

 20 19  0  0  1  0  0  0  0  0999 V2000
   -0.6752  -20.6911   21.2573 N   0  0  0  0  0  0  0  0  0  0  0  0
    0.2297  -20.0681   22.1505 C   0  0  1  0  0  0  0  0  0  0  0  0
    0.0247  -20.6935   23.5270 C   0  0  0  0  0  0  0  0  0  0  0  0
   -1.0841  -19.6365   24.4965 S   0  0  0  0  0  0  0  0  0  0  0  0
    1.6342  -20.0160   21.7694 C   0  0  0  0  0  0  0  0  0  0  0  0
    2.0723  -20.9316   20.9914 O   0  0  0  0  0  0  0  0  0  0  0  0
    4.6817  -17.8313   22.0408 C   0  0  0  0  0  0  0  0  0  0  0  0
    3.9706  -19.1367   21.7079 C   0  0  2  0  0  0  0  0  0  0  0  0
    2.6034  -19.0588   22.1583 N   0  0  0  0  0  0  0  0  0  0  0  0
    4.6851  -20.3011   22.2891 C   0  0  0  0  0  0  0  0  0  0  0  0
    5.8526  -20.5332   21.8901 O   0  0  0  0  0  0  0  0  0  0  0  0
    4.1268  -21.1606   23.2631 N   0  0  0  0  0  0  0  0  0  0  0  0
    4.7690  -22.2903   23.8465 C   0  0  1  0  0  0  0  0  0  0  0  0
    4.8704  -22.2662   25.3442 C   0  0  0  0  0  0  0  0  0  0  0  0
    5.5849  -23.4387   25.8991 C   0  0  0  0  0  0  0  0  0  0  0  0
    6.7536  -23.6653   25.4917 O   0  0  0  0  0  0  0  0  0  0  0  0
    4.1832  -23.5838   23.4246 C   0  0  0  0  0  0  0  0  0  0  0  0
    3.0042  -23.7026   23.0396 O   0  0  0  0  0  0  0  0  0  0  0  0
    5.0277  -24.2894   26.8391 O   0  0  0  0  0  0  0  0  0  0  0  0
    5.0186  -24.7167   23.4697 O   0  0  0  0  0  0  0  0  0  0  0  0
  2  5  1  0
  2  1  1  6
  3  2  1  0
  4  3  1  0
  5  6  2  0
  8  7  1  1
  8 10  1  0
  9  8  1  0
  9  5  1  0
 10 11  2  0
 12 13  1  0
 12 10  1  0
 13 17  1  0
 13 14  1  1
 15 14  1  0
 16 15  2  0
 17 18  2  0
 17 20  1  0
 19 15  1  0
M  END
$$$$
