CAD.pdb
     RDKit          3D

 20 19  0  0  1  0  0  0  0  0999 V2000
    7.4602  -15.8280   19.0852 N   0  0  0  0  0  0  0  0  0  0  0  0
    6.8703  -15.9168   20.3693 C   0  0  1  0  0  0  0  0  0  0  0  0
    6.3504  -17.3409   20.5415 C   0  0  0  0  0  0  0  0  0  0  0  0
    4.8690  -17.5563   19.5190 S   0  0  0  0  0  0  0  0  0  0  0  0
    7.6568  -15.4724   21.5114 C   0  0  0  0  0  0  0  0  0  0  0  0
    8.9246  -15.6321   21.4570 O   0  0  0  0  0  0  0  0  0  0  0  0
    7.3260  -13.7373   24.8353 C   0  0  0  0  0  0  0  0  0  0  0  0
    8.0759  -14.5662   23.8003 C   0  0  2  0  0  0  0  0  0  0  0  0
    7.1888  -14.8711   22.7056 N   0  0  0  0  0  0  0  0  0  0  0  0
    8.6540  -15.7907   24.4090 C   0  0  0  0  0  0  0  0  0  0  0  0
    7.9027  -16.7861   24.5535 O   0  0  0  0  0  0  0  0  0  0  0  0
    9.9981  -15.8987   24.8341 N   0  0  0  0  0  0  0  0  0  0  0  0
   10.5805  -17.0243   25.4843 C   0  0  1  0  0  0  0  0  0  0  0  0
   12.0374  -17.2461   25.1976 C   0  0  0  0  0  0  0  0  0  0  0  0
   12.3938  -17.0171   23.7785 C   0  0  0  0  0  0  0  0  0  0  0  0
   11.9583  -17.8292   22.9218 O   0  0  0  0  0  0  0  0  0  0  0  0
   10.3722  -17.0302   26.9509 C   0  0  0  0  0  0  0  0  0  0  0  0
    9.9037  -16.0587   27.5746 O   0  0  0  0  0  0  0  0  0  0  0  0
   13.1788  -15.9571   23.3568 O   0  0  0  0  0  0  0  0  0  0  0  0
   10.7282  -18.2001   27.6493 O   0  0  0  0  0  0  0  0  0  0  0  0
  2  5  1  0
  2  1  1  6
  3  2  1  0
  4  3  1  0
  5  6  2  0
  8  7  1  1
  8 10  1  0
  9  8  1  0
  9  5  1  0
 10 11  2  0
 12 13  1  0
 12 10  1  0
 13 17  1  0
 13 14  1  1
 15 14  1  0
 16 15  2  0
 17 18  2  0
 17 20  1  0
 19 15  1  0
M  END
$$$$
