CAD.pdb
     RDKit          3D

 20 19  0  0  1  0  0  0  0  0999 V2000
    6.4077  -15.5164   26.5110 N   0  0  0  0  0  0  0  0  0  0  0  0
    6.9593  -14.5622   25.6223 C   0  0  1  0  0  0  0  0  0  0  0  0
    8.2026  -13.9773   26.2857 C   0  0  0  0  0  0  0  0  0  0  0  0
    7.8496  -12.2769   26.8058 S   0  0  0  0  0  0  0  0  0  0  0  0
    7.2076  -14.9761   24.2484 C   0  0  0  0  0  0  0  0  0  0  0  0
    7.4108  -16.2199   24.0309 O   0  0  0  0  0  0  0  0  0  0  0  0
    7.1126  -13.6384   20.7362 C   0  0  0  0  0  0  0  0  0  0  0  0
    7.3901  -14.7214   21.7709 C   0  0  2  0  0  0  0  0  0  0  0  0
    7.2547  -14.1597   23.0917 N   0  0  0  0  0  0  0  0  0  0  0  0
    8.7243  -15.3373   21.5595 C   0  0  0  0  0  0  0  0  0  0  0  0
    8.9679  -15.8403   20.4353 O   0  0  0  0  0  0  0  0  0  0  0  0
    9.7324  -15.3896   22.5494 N   0  0  0  0  0  0  0  0  0  0  0  0
   11.0103  -16.0029   22.4084 C   0  0  1  0  0  0  0  0  0  0  0  0
   12.0027  -15.6691   23.4842 C   0  0  0  0  0  0  0  0  0  0  0  0
   11.4852  -15.9117   24.8504 C   0  0  0  0  0  0  0  0  0  0  0  0
   10.3065  -16.3355   24.9689 O   0  0  0  0  0  0  0  0  0  0  0  0
   10.9434  -17.4748   22.2551 C   0  0  0  0  0  0  0  0  0  0  0  0
   10.9881  -18.2612   23.2205 O   0  0  0  0  0  0  0  0  0  0  0  0
   12.2357  -15.6943   25.9938 O   0  0  0  0  0  0  0  0  0  0  0  0
   10.8238  -17.9835   20.9474 O   0  0  0  0  0  0  0  0  0  0  0  0
  2  5  1  0
  2  1  1  1
  3  2  1  0
  4  3  1  0
  5  6  2  0
  8  7  1  6
  8 10  1  0
  9  8  1  0
  9  5  1  0
 10 11  2  0
 12 13  1  0
 12 10  1  0
 13 17  1  0
 13 14  1  1
 15 14  1  0
 16 15  2  0
 17 18  2  0
 17 20  1  0
 19 15  1  0
M  END
$$$$
