CAD.pdb
     RDKit          3D

 20 19  0  0  1  0  0  0  0  0999 V2000
    5.4104  -13.4677   26.3918 N   0  0  0  0  0  0  0  0  0  0  0  0
    6.5197  -13.1433   25.5740 C   0  0  1  0  0  0  0  0  0  0  0  0
    7.6308  -12.6296   26.4848 C   0  0  0  0  0  0  0  0  0  0  0  0
    7.1288  -11.0354   27.1871 S   0  0  0  0  0  0  0  0  0  0  0  0
    6.9934  -14.1534   24.6381 C   0  0  0  0  0  0  0  0  0  0  0  0
    7.0884  -15.3565   25.0615 O   0  0  0  0  0  0  0  0  0  0  0  0
    7.5880  -14.6973   20.9900 C   0  0  0  0  0  0  0  0  0  0  0  0
    7.7687  -15.0810   22.4531 C   0  0  2  0  0  0  0  0  0  0  0  0
    7.3725  -13.9725   23.2853 N   0  0  0  0  0  0  0  0  0  0  0  0
    9.1618  -15.5153   22.7266 C   0  0  0  0  0  0  0  0  0  0  0  0
   10.0961  -14.7733   22.3357 O   0  0  0  0  0  0  0  0  0  0  0  0
    9.4947  -16.7133   23.3996 N   0  0  0  0  0  0  0  0  0  0  0  0
   10.8116  -17.1586   23.7100 C   0  0  1  0  0  0  0  0  0  0  0  0
   11.7640  -16.0839   24.1481 C   0  0  0  0  0  0  0  0  0  0  0  0
   12.8409  -15.8232   23.1655 C   0  0  0  0  0  0  0  0  0  0  0  0
   13.9320  -15.3647   23.5927 O   0  0  0  0  0  0  0  0  0  0  0  0
   10.8428  -18.2614   24.6984 C   0  0  0  0  0  0  0  0  0  0  0  0
    9.8812  -18.5352   25.4418 O   0  0  0  0  0  0  0  0  0  0  0  0
   12.7008  -16.0599   21.8083 O   0  0  0  0  0  0  0  0  0  0  0  0
   12.0259  -19.0208   24.7820 O   0  0  0  0  0  0  0  0  0  0  0  0
  2  5  1  0
  2  1  1  1
  3  2  1  0
  4  3  1  0
  5  6  2  0
  8  7  1  6
  8 10  1  0
  9  8  1  0
  9  5  1  0
 10 11  2  0
 12 13  1  0
 12 10  1  0
 13 17  1  0
 13 14  1  1
 15 14  1  0
 16 15  2  0
 17 18  2  0
 17 20  1  0
 19 15  1  0
M  END
$$$$
