CAD.pdb
     RDKit          3D

 20 19  0  0  1  0  0  0  0  0999 V2000
    9.0826  -15.0075   15.0007 N   0  0  0  0  0  0  0  0  0  0  0  0
    8.3067  -15.2955   16.1494 C   0  0  1  0  0  0  0  0  0  0  0  0
    8.0439  -16.7984   16.1647 C   0  0  0  0  0  0  0  0  0  0  0  0
    7.0176  -17.2327   14.7347 S   0  0  0  0  0  0  0  0  0  0  0  0
    8.7848  -14.8039   17.4340 C   0  0  0  0  0  0  0  0  0  0  0  0
   10.0213  -14.9759   17.7123 O   0  0  0  0  0  0  0  0  0  0  0  0
    7.6801  -12.8191   20.4310 C   0  0  0  0  0  0  0  0  0  0  0  0
    8.6408  -13.7387   19.6880 C   0  0  2  0  0  0  0  0  0  0  0  0
    8.0399  -14.1431   18.4416 N   0  0  0  0  0  0  0  0  0  0  0  0
    9.0270  -14.9020   20.5257 C   0  0  0  0  0  0  0  0  0  0  0  0
    8.3708  -15.9643   20.3947 O   0  0  0  0  0  0  0  0  0  0  0  0
   10.0882  -14.8812   21.4598 N   0  0  0  0  0  0  0  0  0  0  0  0
   10.5092  -15.9745   22.2700 C   0  0  1  0  0  0  0  0  0  0  0  0
   11.9199  -15.8897   22.7766 C   0  0  0  0  0  0  0  0  0  0  0  0
   12.9255  -15.8156   21.6919 C   0  0  0  0  0  0  0  0  0  0  0  0
   12.6756  -16.4131   20.6131 O   0  0  0  0  0  0  0  0  0  0  0  0
    9.6037  -16.2453   23.4106 C   0  0  0  0  0  0  0  0  0  0  0  0
    8.6715  -15.4845   23.7337 O   0  0  0  0  0  0  0  0  0  0  0  0
   14.1187  -15.1232   21.8120 O   0  0  0  0  0  0  0  0  0  0  0  0
    9.8278  -17.4242   24.1477 O   0  0  0  0  0  0  0  0  0  0  0  0
  2  5  1  0
  2  1  1  6
  3  2  1  0
  4  3  1  0
  5  6  2  0
  8  7  1  1
  8 10  1  0
  9  8  1  0
  9  5  1  0
 10 11  2  0
 12 13  1  0
 12 10  1  0
 13 17  1  0
 13 14  1  1
 15 14  1  0
 16 15  2  0
 17 18  2  0
 17 20  1  0
 19 15  1  0
M  END
$$$$
