CAD.pdb
     RDKit          3D

 20 19  0  0  1  0  0  0  0  0999 V2000
    6.3790  -18.1223   17.8164 N   0  0  0  0  0  0  0  0  0  0  0  0
    6.1961  -17.2070   18.8810 C   0  0  1  0  0  0  0  0  0  0  0  0
    6.1015  -18.0135   20.1727 C   0  0  0  0  0  0  0  0  0  0  0  0
    6.1527  -19.7805   19.7706 S   0  0  0  0  0  0  0  0  0  0  0  0
    7.1297  -16.0948   18.9897 C   0  0  0  0  0  0  0  0  0  0  0  0
    8.3235  -16.2789   18.5692 O   0  0  0  0  0  0  0  0  0  0  0  0
    7.3012  -12.4774   20.0225 C   0  0  0  0  0  0  0  0  0  0  0  0
    7.9162  -13.8008   19.5853 C   0  0  2  0  0  0  0  0  0  0  0  0
    6.8818  -14.8024   19.5140 N   0  0  0  0  0  0  0  0  0  0  0  0
    9.0229  -14.2036   20.4893 C   0  0  0  0  0  0  0  0  0  0  0  0
   10.0250  -13.4510   20.5630 O   0  0  0  0  0  0  0  0  0  0  0  0
    9.0123  -15.3831   21.2688 N   0  0  0  0  0  0  0  0  0  0  0  0
   10.0666  -15.8357   22.1130 C   0  0  1  0  0  0  0  0  0  0  0  0
    9.7903  -15.7463   23.5859 C   0  0  0  0  0  0  0  0  0  0  0  0
   10.9465  -16.1448   24.4212 C   0  0  0  0  0  0  0  0  0  0  0  0
   12.0282  -16.4192   23.8401 O   0  0  0  0  0  0  0  0  0  0  0  0
   10.5308  -17.2054   21.7926 C   0  0  0  0  0  0  0  0  0  0  0  0
    9.8053  -18.0585   21.2465 O   0  0  0  0  0  0  0  0  0  0  0  0
   10.8896  -16.2278   25.8024 O   0  0  0  0  0  0  0  0  0  0  0  0
   11.8579  -17.5335   22.1310 O   0  0  0  0  0  0  0  0  0  0  0  0
  2  5  1  0
  2  1  1  6
  3  2  1  0
  4  3  1  0
  5  6  2  0
  8  7  1  1
  8 10  1  0
  9  8  1  0
  9  5  1  0
 10 11  2  0
 12 13  1  0
 12 10  1  0
 13 17  1  0
 13 14  1  1
 15 14  1  0
 16 15  2  0
 17 18  2  0
 17 20  1  0
 19 15  1  0
M  END
$$$$
