CAD.pdb
     RDKit          3D

 20 19  0  0  1  0  0  0  0  0999 V2000
    8.9404  -15.4402   13.5644 N   0  0  0  0  0  0  0  0  0  0  0  0
    7.9832  -15.1284   14.5600 C   0  0  1  0  0  0  0  0  0  0  0  0
    7.1651  -16.3887   14.8254 C   0  0  0  0  0  0  0  0  0  0  0  0
    8.0704  -17.4467   15.9862 S   0  0  0  0  0  0  0  0  0  0  0  0
    8.4575  -14.5072   15.7887 C   0  0  0  0  0  0  0  0  0  0  0  0
    9.7220  -14.4100   15.9547 O   0  0  0  0  0  0  0  0  0  0  0  0
    7.2259  -12.7943   18.9055 C   0  0  0  0  0  0  0  0  0  0  0  0
    8.2871  -13.4908   18.0633 C   0  0  2  0  0  0  0  0  0  0  0  0
    7.6811  -13.9832   16.8514 N   0  0  0  0  0  0  0  0  0  0  0  0
    8.9591  -14.5697   18.8305 C   0  0  0  0  0  0  0  0  0  0  0  0
    9.4833  -14.2693   19.9310 O   0  0  0  0  0  0  0  0  0  0  0  0
    9.0422  -15.9116   18.3931 N   0  0  0  0  0  0  0  0  0  0  0  0
    9.6214  -16.9921   19.1185 C   0  0  1  0  0  0  0  0  0  0  0  0
    8.8041  -18.2510   19.1527 C   0  0  0  0  0  0  0  0  0  0  0  0
    9.4289  -19.3302   19.9515 C   0  0  0  0  0  0  0  0  0  0  0  0
   10.6841  -19.4183   19.9456 O   0  0  0  0  0  0  0  0  0  0  0  0
   10.9977  -17.3235   18.6824 C   0  0  0  0  0  0  0  0  0  0  0  0
   11.6971  -18.1906   19.2404 O   0  0  0  0  0  0  0  0  0  0  0  0
    8.6984  -20.2390   20.6985 O   0  0  0  0  0  0  0  0  0  0  0  0
   11.5165  -16.6114   17.5838 O   0  0  0  0  0  0  0  0  0  0  0  0
  2  5  1  0
  2  1  1  6
  3  2  1  0
  4  3  1  0
  5  6  2  0
  8  7  1  1
  8 10  1  0
  9  8  1  0
  9  5  1  0
 10 11  2  0
 12 13  1  0
 12 10  1  0
 13 17  1  0
 13 14  1  6
 15 14  1  0
 16 15  2  0
 17 18  2  0
 17 20  1  0
 19 15  1  0
M  END
$$$$
