CAD.pdb
     RDKit          3D

 20 19  0  0  1  0  0  0  0  0999 V2000
    0.7681  -27.2770   30.5849 N   0  0  0  0  0  0  0  0  0  0  0  0
   -0.5316  -27.0795   31.1108 C   0  0  1  0  0  0  0  0  0  0  0  0
   -0.3828  -26.3896   32.4635 C   0  0  0  0  0  0  0  0  0  0  0  0
    0.2276  -27.5917   33.6755 S   0  0  0  0  0  0  0  0  0  0  0  0
   -1.5171  -26.4259   30.2612 C   0  0  0  0  0  0  0  0  0  0  0  0
   -1.1520  -25.3761   29.6283 O   0  0  0  0  0  0  0  0  0  0  0  0
   -4.2654  -27.1355   28.0982 C   0  0  0  0  0  0  0  0  0  0  0  0
   -3.7008  -26.1245   29.0880 C   0  0  2  0  0  0  0  0  0  0  0  0
   -2.8620  -26.8109   30.0386 N   0  0  0  0  0  0  0  0  0  0  0  0
   -4.7858  -25.3581   29.7510 C   0  0  0  0  0  0  0  0  0  0  0  0
   -5.2143  -25.7797   30.8531 O   0  0  0  0  0  0  0  0  0  0  0  0
   -5.3621  -24.1845   29.2129 N   0  0  0  0  0  0  0  0  0  0  0  0
   -6.3772  -23.3956   29.8263 C   0  0  1  0  0  0  0  0  0  0  0  0
   -6.6511  -22.0768   29.1633 C   0  0  0  0  0  0  0  0  0  0  0  0
   -7.5710  -21.2140   29.9395 C   0  0  0  0  0  0  0  0  0  0  0  0
   -8.7786  -21.1723   29.5888 O   0  0  0  0  0  0  0  0  0  0  0  0
   -7.6573  -24.1190   30.0061 C   0  0  0  0  0  0  0  0  0  0  0  0
   -8.1409  -24.8705   29.1379 O   0  0  0  0  0  0  0  0  0  0  0  0
   -7.1635  -20.4573   31.0254 O   0  0  0  0  0  0  0  0  0  0  0  0
   -8.3397  -23.9319   31.2237 O   0  0  0  0  0  0  0  0  0  0  0  0
  2  5  1  0
  2  1  1  6
  3  2  1  0
  4  3  1  0
  5  6  2  0
  8  7  1  6
  8 10  1  0
  9  8  1  0
  9  5  1  0
 10 11  2  0
 12 13  1  0
 12 10  1  0
 13 17  1  0
 13 14  1  6
 15 14  1  0
 16 15  2  0
 17 18  2  0
 17 20  1  0
 19 15  1  0
M  END
$$$$
