CAD.pdb
     RDKit          3D

 20 19  0  0  1  0  0  0  0  0999 V2000
    0.7023  -20.8296   21.0480 N   0  0  0  0  0  0  0  0  0  0  0  0
    1.2473  -19.5869   21.4520 C   0  0  1  0  0  0  0  0  0  0  0  0
    0.5158  -19.1513   22.7182 C   0  0  0  0  0  0  0  0  0  0  0  0
    1.0502  -20.1981   24.0985 S   0  0  0  0  0  0  0  0  0  0  0  0
    2.6940  -19.4904   21.5873 C   0  0  0  0  0  0  0  0  0  0  0  0
    3.3458  -20.5742   21.7776 O   0  0  0  0  0  0  0  0  0  0  0  0
    5.5184  -17.0195   21.3251 C   0  0  0  0  0  0  0  0  0  0  0  0
    4.9268  -18.3764   21.6846 C   0  0  2  0  0  0  0  0  0  0  0  0
    3.4940  -18.3226   21.5344 N   0  0  0  0  0  0  0  0  0  0  0  0
    5.3302  -18.7934   23.0511 C   0  0  0  0  0  0  0  0  0  0  0  0
    4.6841  -18.3289   24.0221 O   0  0  0  0  0  0  0  0  0  0  0  0
    6.3976  -19.6809   23.3199 N   0  0  0  0  0  0  0  0  0  0  0  0
    6.8176  -20.1155   24.6097 C   0  0  1  0  0  0  0  0  0  0  0  0
    6.0960  -21.3177   25.1465 C   0  0  0  0  0  0  0  0  0  0  0  0
    6.6242  -21.7807   26.4502 C   0  0  0  0  0  0  0  0  0  0  0  0
    6.7596  -20.9307   27.3681 O   0  0  0  0  0  0  0  0  0  0  0  0
    8.2775  -20.3475   24.7066 C   0  0  0  0  0  0  0  0  0  0  0  0
    9.0127  -20.4764   23.7091 O   0  0  0  0  0  0  0  0  0  0  0  0
    6.9726  -23.0972   26.7014 O   0  0  0  0  0  0  0  0  0  0  0  0
    8.8356  -20.4214   25.9975 O   0  0  0  0  0  0  0  0  0  0  0  0
  2  5  1  0
  2  1  1  1
  3  2  1  0
  4  3  1  0
  5  6  2  0
  8  7  1  1
  8 10  1  0
  9  8  1  0
  9  5  1  0
 10 11  2  0
 12 13  1  0
 12 10  1  0
 13 17  1  0
 13 14  1  6
 15 14  1  0
 16 15  2  0
 17 18  2  0
 17 20  1  0
 19 15  1  0
M  END
$$$$
