CAD.pdb
     RDKit          3D

 20 19  0  0  1  0  0  0  0  0999 V2000
    5.5672  -13.6792   26.3828 N   0  0  0  0  0  0  0  0  0  0  0  0
    6.6823  -13.3262   25.5850 C   0  0  1  0  0  0  0  0  0  0  0  0
    7.8718  -13.1211   26.5182 C   0  0  0  0  0  0  0  0  0  0  0  0
    7.6128  -11.6068   27.4808 S   0  0  0  0  0  0  0  0  0  0  0  0
    7.0075  -14.1830   24.4533 C   0  0  0  0  0  0  0  0  0  0  0  0
    6.6722  -15.4150   24.5262 O   0  0  0  0  0  0  0  0  0  0  0  0
    8.0769  -14.0041   20.8775 C   0  0  0  0  0  0  0  0  0  0  0  0
    7.8616  -14.7644   22.1799 C   0  0  2  0  0  0  0  0  0  0  0  0
    7.6640  -13.8205   23.2515 N   0  0  0  0  0  0  0  0  0  0  0  0
    8.9880  -15.6922   22.4529 C   0  0  0  0  0  0  0  0  0  0  0  0
    9.2144  -16.6031   21.6192 O   0  0  0  0  0  0  0  0  0  0  0  0
    9.8170  -15.6085   23.5952 N   0  0  0  0  0  0  0  0  0  0  0  0
   10.8498  -16.5244   23.9463 C   0  0  1  0  0  0  0  0  0  0  0  0
   12.2313  -15.9394   24.0051 C   0  0  0  0  0  0  0  0  0  0  0  0
   12.9354  -15.9751   22.7028 C   0  0  0  0  0  0  0  0  0  0  0  0
   13.6497  -14.9875   22.3904 O   0  0  0  0  0  0  0  0  0  0  0  0
   10.5837  -17.2577   25.2056 C   0  0  0  0  0  0  0  0  0  0  0  0
   11.2981  -18.1948   25.6103 O   0  0  0  0  0  0  0  0  0  0  0  0
   12.8429  -17.0390   21.8211 O   0  0  0  0  0  0  0  0  0  0  0  0
    9.4654  -16.8576   25.9623 O   0  0  0  0  0  0  0  0  0  0  0  0
  2  5  1  0
  2  1  1  1
  3  2  1  0
  4  3  1  0
  5  6  2  0
  8  7  1  6
  8 10  1  0
  9  8  1  0
  9  5  1  0
 10 11  2  0
 12 13  1  0
 12 10  1  0
 13 17  1  0
 13 14  1  1
 15 14  1  0
 16 15  2  0
 17 18  2  0
 17 20  1  0
 19 15  1  0
M  END
$$$$
