CAD.pdb
     RDKit          3D

 20 19  0  0  1  0  0  0  0  0999 V2000
    6.7413  -17.5023   16.6255 N   0  0  0  0  0  0  0  0  0  0  0  0
    6.9134  -16.9426   17.9146 C   0  0  1  0  0  0  0  0  0  0  0  0
    6.9920  -18.0947   18.9118 C   0  0  0  0  0  0  0  0  0  0  0  0
    7.2122  -17.4183   20.5793 S   0  0  0  0  0  0  0  0  0  0  0  0
    7.9872  -15.9765   18.0989 C   0  0  0  0  0  0  0  0  0  0  0  0
    9.1613  -16.3150   17.7211 O   0  0  0  0  0  0  0  0  0  0  0  0
    8.6405  -12.5112   19.4298 C   0  0  0  0  0  0  0  0  0  0  0  0
    9.0690  -13.8652   18.8786 C   0  0  2  0  0  0  0  0  0  0  0  0
    7.8988  -14.6773   18.6565 N   0  0  0  0  0  0  0  0  0  0  0  0
   10.0460  -14.5271   19.7795 C   0  0  0  0  0  0  0  0  0  0  0  0
    9.6651  -14.8339   20.9357 O   0  0  0  0  0  0  0  0  0  0  0  0
   11.3767  -14.8302   19.4101 N   0  0  0  0  0  0  0  0  0  0  0  0
   12.3674  -15.4067   20.2558 C   0  0  1  0  0  0  0  0  0  0  0  0
   12.6179  -16.8714   20.0419 C   0  0  0  0  0  0  0  0  0  0  0  0
   13.6576  -17.4225   20.9411 C   0  0  0  0  0  0  0  0  0  0  0  0
   14.6409  -18.0079   20.4180 O   0  0  0  0  0  0  0  0  0  0  0  0
   13.6617  -14.6871   20.2221 C   0  0  0  0  0  0  0  0  0  0  0  0
   14.6122  -14.9625   20.9791 O   0  0  0  0  0  0  0  0  0  0  0  0
   13.5954  -17.3226   22.3209 O   0  0  0  0  0  0  0  0  0  0  0  0
   13.7989  -13.6479   19.2817 O   0  0  0  0  0  0  0  0  0  0  0  0
  2  5  1  0
  2  1  1  6
  3  2  1  0
  4  3  1  0
  5  6  2  0
  8  7  1  1
  8 10  1  0
  9  8  1  0
  9  5  1  0
 10 11  2  0
 12 13  1  0
 12 10  1  0
 13 17  1  0
 13 14  1  6
 15 14  1  0
 16 15  2  0
 17 18  2  0
 17 20  1  0
 19 15  1  0
M  END
$$$$
