CAD.pdb
     RDKit          3D

 20 19  0  0  1  0  0  0  0  0999 V2000
    9.0870  -15.5892   16.1748 N   0  0  0  0  0  0  0  0  0  0  0  0
    8.7443  -16.1414   17.4328 C   0  0  1  0  0  0  0  0  0  0  0  0
    9.6267  -17.3659   17.6558 C   0  0  0  0  0  0  0  0  0  0  0  0
    9.0412  -18.7163   16.5974 S   0  0  0  0  0  0  0  0  0  0  0  0
    8.7305  -15.2513   18.5852 C   0  0  0  0  0  0  0  0  0  0  0  0
    9.7536  -14.5069   18.7723 O   0  0  0  0  0  0  0  0  0  0  0  0
    6.4774  -14.0137   21.3271 C   0  0  0  0  0  0  0  0  0  0  0  0
    7.8351  -14.1836   20.6574 C   0  0  2  0  0  0  0  0  0  0  0  0
    7.7056  -15.0988   19.5510 N   0  0  0  0  0  0  0  0  0  0  0  0
    8.8633  -14.6271   21.6323 C   0  0  0  0  0  0  0  0  0  0  0  0
    9.0597  -13.9122   22.6454 O   0  0  0  0  0  0  0  0  0  0  0  0
    9.6314  -15.8049   21.4844 N   0  0  0  0  0  0  0  0  0  0  0  0
   10.6333  -16.2670   22.3853 C   0  0  1  0  0  0  0  0  0  0  0  0
   10.3060  -17.5420   23.1074 C   0  0  0  0  0  0  0  0  0  0  0  0
   10.7346  -17.5357   24.5249 C   0  0  0  0  0  0  0  0  0  0  0  0
    9.9790  -18.0772   25.3728 O   0  0  0  0  0  0  0  0  0  0  0  0
   11.9710  -16.3966   21.7623 C   0  0  0  0  0  0  0  0  0  0  0  0
   13.0058  -15.9235   22.2700 O   0  0  0  0  0  0  0  0  0  0  0  0
   11.9208  -16.9647   24.9545 O   0  0  0  0  0  0  0  0  0  0  0  0
   12.0499  -17.0914   20.5399 O   0  0  0  0  0  0  0  0  0  0  0  0
  2  5  1  0
  2  1  1  6
  3  2  1  0
  4  3  1  0
  5  6  2  0
  8  7  1  1
  8 10  1  0
  9  8  1  0
  9  5  1  0
 10 11  2  0
 12 13  1  0
 12 10  1  0
 13 17  1  0
 13 14  1  6
 15 14  1  0
 16 15  2  0
 17 18  2  0
 17 20  1  0
 19 15  1  0
M  END
$$$$
