CAD.pdb
     RDKit          3D

 20 19  0  0  1  0  0  0  0  0999 V2000
    8.4586  -14.8498   13.9253 N   0  0  0  0  0  0  0  0  0  0  0  0
    8.3401  -15.3283   15.2526 C   0  0  1  0  0  0  0  0  0  0  0  0
    9.1421  -16.6227   15.3505 C   0  0  0  0  0  0  0  0  0  0  0  0
    8.0595  -17.9433   15.9593 S   0  0  0  0  0  0  0  0  0  0  0  0
    8.6431  -14.4058   16.3378 C   0  0  0  0  0  0  0  0  0  0  0  0
    9.6850  -13.6733   16.2206 O   0  0  0  0  0  0  0  0  0  0  0  0
    7.1769  -13.0276   19.5119 C   0  0  0  0  0  0  0  0  0  0  0  0
    8.3076  -13.2188   18.5091 C   0  0  2  0  0  0  0  0  0  0  0  0
    7.9156  -14.2089   17.5373 N   0  0  0  0  0  0  0  0  0  0  0  0
    9.5763  -13.5774   19.1918 C   0  0  0  0  0  0  0  0  0  0  0  0
   10.0061  -12.8003   20.0792 O   0  0  0  0  0  0  0  0  0  0  0  0
   10.3254  -14.7404   18.8998 N   0  0  0  0  0  0  0  0  0  0  0  0
   11.5375  -15.1346   19.5356 C   0  0  1  0  0  0  0  0  0  0  0  0
   12.4845  -14.0151   19.8582 C   0  0  0  0  0  0  0  0  0  0  0  0
   13.7945  -14.4867   20.3627 C   0  0  0  0  0  0  0  0  0  0  0  0
   13.8289  -15.0338   21.4952 O   0  0  0  0  0  0  0  0  0  0  0  0
   11.3254  -15.9513   20.7531 C   0  0  0  0  0  0  0  0  0  0  0  0
   12.2554  -16.5036   21.3714 O   0  0  0  0  0  0  0  0  0  0  0  0
   14.9734  -14.3530   19.6486 O   0  0  0  0  0  0  0  0  0  0  0  0
   10.0019  -16.0947   21.2124 O   0  0  0  0  0  0  0  0  0  0  0  0
  2  5  1  0
  2  1  1  6
  3  2  1  0
  4  3  1  0
  5  6  2  0
  8  7  1  1
  8 10  1  0
  9  8  1  0
  9  5  1  0
 10 11  2  0
 12 13  1  0
 12 10  1  0
 13 17  1  0
 13 14  1  1
 15 14  1  0
 16 15  2  0
 17 18  2  0
 17 20  1  0
 19 15  1  0
M  END
$$$$
