CAD.pdb
     RDKit          3D

 20 19  0  0  1  0  0  0  0  0999 V2000
    7.6167  -16.1175   15.7460 N   0  0  0  0  0  0  0  0  0  0  0  0
    7.0799  -16.1313   17.0561 C   0  0  1  0  0  0  0  0  0  0  0  0
    6.6852  -17.5694   17.3786 C   0  0  0  0  0  0  0  0  0  0  0  0
    6.0841  -17.6476   19.0872 S   0  0  0  0  0  0  0  0  0  0  0  0
    7.8654  -15.5209   18.1195 C   0  0  0  0  0  0  0  0  0  0  0  0
    9.0863  -15.8832   18.2383 O   0  0  0  0  0  0  0  0  0  0  0  0
    7.6332  -12.9425   20.8554 C   0  0  0  0  0  0  0  0  0  0  0  0
    8.3139  -14.0854   20.1130 C   0  0  2  0  0  0  0  0  0  0  0  0
    7.4428  -14.5534   19.0640 N   0  0  0  0  0  0  0  0  0  0  0  0
    8.7030  -15.1745   21.0439 C   0  0  0  0  0  0  0  0  0  0  0  0
    7.7950  -15.9159   21.4933 O   0  0  0  0  0  0  0  0  0  0  0  0
   10.0338  -15.4228   21.4519 N   0  0  0  0  0  0  0  0  0  0  0  0
   10.4481  -16.4048   22.3968 C   0  0  1  0  0  0  0  0  0  0  0  0
   11.6377  -17.2246   21.9880 C   0  0  0  0  0  0  0  0  0  0  0  0
   11.2809  -18.3920   21.1496 C   0  0  0  0  0  0  0  0  0  0  0  0
   10.0627  -18.5980   20.9117 O   0  0  0  0  0  0  0  0  0  0  0  0
   10.6849  -15.8554   23.7519 C   0  0  0  0  0  0  0  0  0  0  0  0
   11.1715  -14.7260   23.9518 O   0  0  0  0  0  0  0  0  0  0  0  0
   12.2216  -19.2596   20.6204 O   0  0  0  0  0  0  0  0  0  0  0  0
   10.3352  -16.6671   24.8483 O   0  0  0  0  0  0  0  0  0  0  0  0
  2  5  1  0
  2  1  1  6
  3  2  1  0
  4  3  1  0
  5  6  2  0
  8  7  1  1
  8 10  1  0
  9  8  1  0
  9  5  1  0
 10 11  2  0
 12 13  1  0
 12 10  1  0
 13 17  1  0
 13 14  1  6
 15 14  1  0
 16 15  2  0
 17 18  2  0
 17 20  1  0
 19 15  1  0
M  END
$$$$
