EPV.pdb
     RDKit          3D

 24 24  0  0  1  0  0  0  0  0999 V2000
   11.3976  -17.2070   19.7957 N   0  0  0  0  0  0  0  0  0  0  0  0
   10.0478  -17.1084   20.2553 C   0  0  1  0  0  0  0  0  0  0  0  0
    9.6730  -18.4962   20.7472 C   0  0  0  0  0  0  0  0  0  0  0  0
   10.0030  -19.5299   19.7110 C   0  0  0  0  0  0  0  0  0  0  0  0
   10.6975  -20.7068   20.3129 C   0  0  0  0  0  0  0  0  0  0  0  0
   10.9972  -20.7266   21.5199 O   0  0  0  0  0  0  0  0  0  0  0  0
    9.7522  -16.0457   21.2177 C   0  0  0  0  0  0  0  0  0  0  0  0
   10.6158  -15.9504   22.1711 O   0  0  0  0  0  0  0  0  0  0  0  0
   10.9905  -21.7675   19.4717 O   0  0  0  0  0  0  0  0  0  0  0  0
    8.6921  -15.1403   21.2496 N   0  0  0  0  0  0  0  0  0  0  0  0
    8.2458  -14.3255   20.1110 C   0  0  0  0  0  0  0  0  0  0  0  0
    6.7759  -14.7804   20.0914 C   0  0  0  0  0  0  0  0  0  0  0  0
    6.4485  -15.1214   21.5555 C   0  0  0  0  0  0  0  0  0  0  0  0
    7.7468  -14.6908   22.2256 C   0  0  1  0  0  0  0  0  0  0  0  0
    7.8610  -15.0516   23.5994 C   0  0  0  0  0  0  0  0  0  0  0  0
    8.1334  -16.1343   24.1489 O   0  0  0  0  0  0  0  0  0  0  0  0
    8.0580  -11.8242   26.3737 C   0  0  0  0  0  0  0  0  0  0  0  0
    7.1680  -12.9923   26.7417 C   0  0  1  0  0  0  0  0  0  0  0  0
    5.7429  -12.5937   26.4466 C   0  0  0  0  0  0  0  0  0  0  0  0
    7.5735  -14.2281   25.9719 C   0  0  2  0  0  0  0  0  0  0  0  0
    7.6197  -13.9767   24.5474 N   0  0  0  0  0  0  0  0  0  0  0  0
    6.6266  -15.3256   26.3029 C   0  0  0  0  0  0  0  0  0  0  0  0
    5.7183  -15.5842   25.4786 O   0  0  0  0  0  0  0  0  0  0  0  0
    6.6869  -16.0744   27.4590 O   0  0  0  0  0  0  0  0  0  0  0  0
  2  1  1  1
  2  3  1  0
  3  4  1  0
  4  5  1  0
  5  9  1  0
  5  6  2  0
  7  2  1  0
  8  7  2  0
 10  7  1  0
 10 14  1  0
 11 12  1  0
 11 10  1  0
 12 13  1  0
 13 14  1  0
 14 15  1  1
 15 16  2  0
 18 17  1  6
 18 20  1  0
 19 18  1  0
 20 21  1  6
 20 22  1  0
 21 15  1  0
 22 23  2  0
 22 24  1  0
M  END
$$$$
