EPV.pdb
     RDKit          3D

 24 24  0  0  1  0  0  0  0  0999 V2000
   11.1136  -16.0653   19.2773 N   0  0  0  0  0  0  0  0  0  0  0  0
   10.4747  -16.8116   20.3155 C   0  0  1  0  0  0  0  0  0  0  0  0
   11.2217  -18.1319   20.3993 C   0  0  0  0  0  0  0  0  0  0  0  0
   10.2822  -19.2482   20.7488 C   0  0  0  0  0  0  0  0  0  0  0  0
   11.0192  -20.4536   21.2320 C   0  0  0  0  0  0  0  0  0  0  0  0
   12.0862  -20.8089   20.7008 O   0  0  0  0  0  0  0  0  0  0  0  0
   10.3163  -16.1446   21.6088 C   0  0  0  0  0  0  0  0  0  0  0  0
   11.3701  -16.1891   22.3512 O   0  0  0  0  0  0  0  0  0  0  0  0
   10.4641  -21.1528   22.2910 O   0  0  0  0  0  0  0  0  0  0  0  0
    9.2112  -15.4813   22.1413 N   0  0  0  0  0  0  0  0  0  0  0  0
    8.2340  -14.7110   21.3595 C   0  0  0  0  0  0  0  0  0  0  0  0
    6.9674  -15.4579   21.8131 C   0  0  0  0  0  0  0  0  0  0  0  0
    7.2848  -15.9446   23.2377 C   0  0  0  0  0  0  0  0  0  0  0  0
    8.6472  -15.2950   23.4433 C   0  0  1  0  0  0  0  0  0  0  0  0
    9.3349  -15.7043   24.6222 C   0  0  0  0  0  0  0  0  0  0  0  0
    9.8955  -16.7742   24.9217 O   0  0  0  0  0  0  0  0  0  0  0  0
    8.6923  -13.5172   28.2702 C   0  0  0  0  0  0  0  0  0  0  0  0
   10.1170  -13.7608   27.8198 C   0  0  1  0  0  0  0  0  0  0  0  0
   10.9559  -13.9847   29.0539 C   0  0  0  0  0  0  0  0  0  0  0  0
   10.1790  -14.9427   26.8799 C   0  0  2  0  0  0  0  0  0  0  0  0
    9.4066  -14.7086   25.6785 N   0  0  0  0  0  0  0  0  0  0  0  0
    9.7079  -16.1517   27.6058 C   0  0  0  0  0  0  0  0  0  0  0  0
   10.4459  -16.6202   28.5043 O   0  0  0  0  0  0  0  0  0  0  0  0
    8.5112  -16.7873   27.3513 O   0  0  0  0  0  0  0  0  0  0  0  0
  2  1  1  6
  2  3  1  0
  3  4  1  0
  4  5  1  0
  5  9  1  0
  5  6  2  0
  7  2  1  0
  8  7  2  0
 10  7  1  0
 10 14  1  0
 11 12  1  0
 11 10  1  0
 12 13  1  0
 13 14  1  0
 14 15  1  1
 15 16  2  0
 18 17  1  1
 18 20  1  0
 19 18  1  0
 20 21  1  6
 20 22  1  0
 21 15  1  0
 22 23  2  0
 22 24  1  0
M  END
$$$$
