EPV.pdb
     RDKit          3D

 24 24  0  0  1  0  0  0  0  0999 V2000
    9.5858  -17.1887   19.4079 N   0  0  0  0  0  0  0  0  0  0  0  0
   10.4115  -17.7195   20.4469 C   0  0  1  0  0  0  0  0  0  0  0  0
   11.8396  -17.6117   19.9398 C   0  0  0  0  0  0  0  0  0  0  0  0
   12.7986  -18.1921   20.9371 C   0  0  0  0  0  0  0  0  0  0  0  0
   14.1807  -18.2834   20.3793 C   0  0  0  0  0  0  0  0  0  0  0  0
   14.7067  -17.3127   19.8064 O   0  0  0  0  0  0  0  0  0  0  0  0
   10.2228  -17.1675   21.7895 C   0  0  0  0  0  0  0  0  0  0  0  0
   11.0979  -17.5709   22.6469 O   0  0  0  0  0  0  0  0  0  0  0  0
   14.8452  -19.4896   20.5280 O   0  0  0  0  0  0  0  0  0  0  0  0
    9.2521  -16.2857   22.2634 N   0  0  0  0  0  0  0  0  0  0  0  0
    8.2458  -15.6135   21.4298 C   0  0  0  0  0  0  0  0  0  0  0  0
    6.9936  -16.0971   22.1822 C   0  0  0  0  0  0  0  0  0  0  0  0
    7.4536  -16.2774   23.6393 C   0  0  0  0  0  0  0  0  0  0  0  0
    8.8782  -15.7481   23.5359 C   0  0  1  0  0  0  0  0  0  0  0  0
    9.6785  -15.9494   24.6976 C   0  0  0  0  0  0  0  0  0  0  0  0
   10.5317  -16.8122   24.9731 O   0  0  0  0  0  0  0  0  0  0  0  0
    8.5954  -13.5288   28.1049 C   0  0  0  0  0  0  0  0  0  0  0  0
   10.0551  -13.8395   27.8504 C   0  0  1  0  0  0  0  0  0  0  0  0
   10.7343  -13.9796   29.1905 C   0  0  0  0  0  0  0  0  0  0  0  0
   10.1908  -15.0957   27.0211 C   0  0  2  0  0  0  0  0  0  0  0  0
    9.4784  -14.9847   25.7661 N   0  0  0  0  0  0  0  0  0  0  0  0
    9.7068  -16.2495   27.8243 C   0  0  0  0  0  0  0  0  0  0  0  0
    8.5564  -16.6871   27.5868 O   0  0  0  0  0  0  0  0  0  0  0  0
   10.4451  -16.8660   28.8121 O   0  0  0  0  0  0  0  0  0  0  0  0
  2  1  1  6
  2  3  1  0
  3  4  1  0
  4  5  1  0
  5  9  1  0
  5  6  2  0
  7  2  1  0
  8  7  2  0
 10  7  1  0
 10 14  1  0
 11 12  1  0
 11 10  1  0
 12 13  1  0
 13 14  1  0
 14 15  1  1
 15 16  2  0
 18 17  1  1
 18 20  1  0
 19 18  1  0
 20 21  1  6
 20 22  1  0
 21 15  1  0
 22 23  2  0
 22 24  1  0
M  END
$$$$
