EPV.pdb
     RDKit          3D

 24 24  0  0  1  0  0  0  0  0999 V2000
   10.8678  -15.9548   19.8167 N   0  0  0  0  0  0  0  0  0  0  0  0
   10.5546  -16.8534   20.8833 C   0  0  1  0  0  0  0  0  0  0  0  0
   11.6104  -17.9446   20.8319 C   0  0  0  0  0  0  0  0  0  0  0  0
   11.0785  -19.2209   21.4145 C   0  0  0  0  0  0  0  0  0  0  0  0
   12.0111  -20.3625   21.1762 C   0  0  0  0  0  0  0  0  0  0  0  0
   11.6640  -21.3426   20.4937 O   0  0  0  0  0  0  0  0  0  0  0  0
   10.3816  -16.2671   22.2134 C   0  0  0  0  0  0  0  0  0  0  0  0
   11.4912  -15.9772   22.8039 O   0  0  0  0  0  0  0  0  0  0  0  0
   13.2710  -20.2805   21.7458 O   0  0  0  0  0  0  0  0  0  0  0  0
    9.2124  -15.9831   22.9182 N   0  0  0  0  0  0  0  0  0  0  0  0
    7.9749  -15.4616   22.3214 C   0  0  0  0  0  0  0  0  0  0  0  0
    7.0233  -16.5662   22.8137 C   0  0  0  0  0  0  0  0  0  0  0  0
    7.6330  -17.0501   24.1408 C   0  0  0  0  0  0  0  0  0  0  0  0
    8.7832  -16.0615   24.2812 C   0  0  1  0  0  0  0  0  0  0  0  0
    9.6954  -16.3488   25.3375 C   0  0  0  0  0  0  0  0  0  0  0  0
   10.5817  -17.2150   25.4503 O   0  0  0  0  0  0  0  0  0  0  0  0
   10.7315  -13.2046   27.8084 C   0  0  0  0  0  0  0  0  0  0  0  0
   10.4092  -14.4710   28.5727 C   0  0  1  0  0  0  0  0  0  0  0  0
    9.0471  -14.2951   29.1978 C   0  0  0  0  0  0  0  0  0  0  0  0
   10.4510  -15.6687   27.6518 C   0  0  2  0  0  0  0  0  0  0  0  0
    9.5891  -15.4876   26.5034 N   0  0  0  0  0  0  0  0  0  0  0  0
   10.0776  -16.8792   28.4301 C   0  0  0  0  0  0  0  0  0  0  0  0
    8.9620  -17.4026   28.1999 O   0  0  0  0  0  0  0  0  0  0  0  0
   10.8821  -17.4598   29.3875 O   0  0  0  0  0  0  0  0  0  0  0  0
  2  1  1  6
  2  3  1  0
  3  4  1  0
  4  5  1  0
  5  9  1  0
  5  6  2  0
  7  2  1  0
  8  7  2  0
 10  7  1  0
 10 14  1  0
 11 12  1  0
 11 10  1  0
 12 13  1  0
 13 14  1  0
 14 15  1  1
 15 16  2  0
 18 17  1  6
 18 20  1  0
 19 18  1  0
 20 21  1  6
 20 22  1  0
 21 15  1  0
 22 23  2  0
 22 24  1  0
M  END
$$$$
