EPV.pdb
     RDKit          3D

 24 24  0  0  1  0  0  0  0  0999 V2000
    9.0686  -12.9880   18.5233 N   0  0  0  0  0  0  0  0  0  0  0  0
    9.2508  -14.0742   19.4344 C   0  0  1  0  0  0  0  0  0  0  0  0
   10.7530  -14.2485   19.5795 C   0  0  0  0  0  0  0  0  0  0  0  0
   11.3790  -14.5571   18.2514 C   0  0  0  0  0  0  0  0  0  0  0  0
   12.8476  -14.7943   18.3797 C   0  0  0  0  0  0  0  0  0  0  0  0
   13.2894  -15.8953   18.7535 O   0  0  0  0  0  0  0  0  0  0  0  0
    8.5439  -13.9908   20.7135 C   0  0  0  0  0  0  0  0  0  0  0  0
    8.9305  -13.0127   21.4602 O   0  0  0  0  0  0  0  0  0  0  0  0
   13.6892  -13.7399   18.0658 O   0  0  0  0  0  0  0  0  0  0  0  0
    7.5329  -14.8013   21.2288 N   0  0  0  0  0  0  0  0  0  0  0  0
    6.3799  -15.2978   20.4649 C   0  0  0  0  0  0  0  0  0  0  0  0
    6.5851  -16.7999   20.7286 C   0  0  0  0  0  0  0  0  0  0  0  0
    7.2607  -16.8698   22.1091 C   0  0  0  0  0  0  0  0  0  0  0  0
    7.2308  -15.3965   22.4948 C   0  0  1  0  0  0  0  0  0  0  0  0
    7.9669  -15.0692   23.6701 C   0  0  0  0  0  0  0  0  0  0  0  0
    9.1710  -15.2028   23.9543 O   0  0  0  0  0  0  0  0  0  0  0  0
    7.3291  -11.7445   25.7472 C   0  0  0  0  0  0  0  0  0  0  0  0
    7.1713  -12.9445   26.6566 C   0  0  1  0  0  0  0  0  0  0  0  0
    5.6965  -13.1346   26.9130 C   0  0  0  0  0  0  0  0  0  0  0  0
    7.7914  -14.1701   26.0261 C   0  0  2  0  0  0  0  0  0  0  0  0
    7.1915  -14.4704   24.7437 N   0  0  0  0  0  0  0  0  0  0  0  0
    7.6586  -15.3095   26.9721 C   0  0  0  0  0  0  0  0  0  0  0  0
    6.8330  -16.2103   26.6919 O   0  0  0  0  0  0  0  0  0  0  0  0
    8.3868  -15.4351   28.1360 O   0  0  0  0  0  0  0  0  0  0  0  0
  2  1  1  6
  2  3  1  0
  3  4  1  0
  4  5  1  0
  5  9  1  0
  5  6  2  0
  7  2  1  0
  8  7  2  0
 10  7  1  0
 10 14  1  0
 11 12  1  0
 11 10  1  0
 12 13  1  0
 13 14  1  0
 14 15  1  1
 15 16  2  0
 18 17  1  6
 18 20  1  0
 19 18  1  0
 20 21  1  6
 20 22  1  0
 21 15  1  0
 22 23  2  0
 22 24  1  0
M  END
$$$$
