EPV.pdb
     RDKit          3D

 24 24  0  0  1  0  0  0  0  0999 V2000
   11.6775  -16.7075   19.6535 N   0  0  0  0  0  0  0  0  0  0  0  0
   10.6490  -17.0914   20.5689 C   0  0  1  0  0  0  0  0  0  0  0  0
   11.3245  -17.9666   21.6110 C   0  0  0  0  0  0  0  0  0  0  0  0
   12.0588  -19.0979   20.9538 C   0  0  0  0  0  0  0  0  0  0  0  0
   12.7946  -19.9278   21.9536 C   0  0  0  0  0  0  0  0  0  0  0  0
   12.7794  -19.6383   23.1631 O   0  0  0  0  0  0  0  0  0  0  0  0
    9.8386  -16.0159   21.1428 C   0  0  0  0  0  0  0  0  0  0  0  0
   10.5318  -15.0396   21.6225 O   0  0  0  0  0  0  0  0  0  0  0  0
   13.4896  -21.0265   21.4758 O   0  0  0  0  0  0  0  0  0  0  0  0
    8.4526  -15.8989   21.2423 N   0  0  0  0  0  0  0  0  0  0  0  0
    7.5165  -15.9886   20.1130 C   0  0  0  0  0  0  0  0  0  0  0  0
    6.6335  -17.1227   20.6624 C   0  0  0  0  0  0  0  0  0  0  0  0
    6.6952  -16.9658   22.1917 C   0  0  0  0  0  0  0  0  0  0  0  0
    7.5074  -15.6812   22.2946 C   0  0  1  0  0  0  0  0  0  0  0  0
    7.9224  -15.3382   23.6139 C   0  0  0  0  0  0  0  0  0  0  0  0
    8.7515  -15.8607   24.3808 O   0  0  0  0  0  0  0  0  0  0  0  0
    6.9021  -12.1945   27.3769 C   0  0  0  0  0  0  0  0  0  0  0  0
    6.5498  -12.6787   25.9865 C   0  0  1  0  0  0  0  0  0  0  0  0
    6.6732  -11.5043   25.0471 C   0  0  0  0  0  0  0  0  0  0  0  0
    7.4554  -13.8180   25.5788 C   0  0  2  0  0  0  0  0  0  0  0  0
    7.2731  -14.1711   24.1871 N   0  0  0  0  0  0  0  0  0  0  0  0
    7.1952  -14.9754   26.4750 C   0  0  0  0  0  0  0  0  0  0  0  0
    6.1790  -15.6740   26.2497 O   0  0  0  0  0  0  0  0  0  0  0  0
    8.0021  -15.3262   27.5364 O   0  0  0  0  0  0  0  0  0  0  0  0
  2  1  1  6
  2  3  1  0
  3  4  1  0
  4  5  1  0
  5  9  1  0
  5  6  2  0
  7  2  1  0
  8  7  2  0
 10  7  1  0
 10 14  1  0
 11 12  1  0
 11 10  1  0
 12 13  1  0
 13 14  1  0
 14 15  1  1
 15 16  2  0
 18 17  1  1
 18 20  1  0
 19 18  1  0
 20 21  1  6
 20 22  1  0
 21 15  1  0
 22 23  2  0
 22 24  1  0
M  END
$$$$
