EPV.pdb
     RDKit          3D

 24 24  0  0  1  0  0  0  0  0999 V2000
   11.4010  -16.5603   19.5903 N   0  0  0  0  0  0  0  0  0  0  0  0
   10.5382  -17.0022   20.6407 C   0  0  1  0  0  0  0  0  0  0  0  0
   11.3793  -17.9190   21.5126 C   0  0  0  0  0  0  0  0  0  0  0  0
   12.0189  -18.9941   20.6842 C   0  0  0  0  0  0  0  0  0  0  0  0
   12.9331  -19.8453   21.5023 C   0  0  0  0  0  0  0  0  0  0  0  0
   13.7143  -20.6494   20.9636 O   0  0  0  0  0  0  0  0  0  0  0  0
    9.8275  -15.9671   21.3932 C   0  0  0  0  0  0  0  0  0  0  0  0
   10.6051  -15.1122   21.9661 O   0  0  0  0  0  0  0  0  0  0  0  0
   12.8716  -19.6995   22.8783 O   0  0  0  0  0  0  0  0  0  0  0  0
    8.4579  -15.7774   21.5746 N   0  0  0  0  0  0  0  0  0  0  0  0
    7.4594  -15.7638   20.4966 C   0  0  0  0  0  0  0  0  0  0  0  0
    6.5424  -16.8704   21.0465 C   0  0  0  0  0  0  0  0  0  0  0  0
    6.6946  -16.7859   22.5752 C   0  0  0  0  0  0  0  0  0  0  0  0
    7.5845  -15.5547   22.6862 C   0  0  1  0  0  0  0  0  0  0  0  0
    8.0885  -15.2950   23.9935 C   0  0  0  0  0  0  0  0  0  0  0  0
    8.9065  -15.9110   24.7005 O   0  0  0  0  0  0  0  0  0  0  0  0
    7.2264  -11.5307   25.2064 C   0  0  0  0  0  0  0  0  0  0  0  0
    7.3448  -12.4348   26.4149 C   0  0  1  0  0  0  0  0  0  0  0  0
    5.9758  -12.5465   27.0397 C   0  0  0  0  0  0  0  0  0  0  0  0
    7.8871  -13.7867   26.0120 C   0  0  2  0  0  0  0  0  0  0  0  0
    7.5666  -14.1003   24.6359 N   0  0  0  0  0  0  0  0  0  0  0  0
    7.3496  -14.8114   26.9456 C   0  0  0  0  0  0  0  0  0  0  0  0
    6.4125  -15.5388   26.5407 O   0  0  0  0  0  0  0  0  0  0  0  0
    7.8185  -15.0096   28.2269 O   0  0  0  0  0  0  0  0  0  0  0  0
  2  1  1  6
  2  3  1  0
  3  4  1  0
  4  5  1  0
  5  9  1  0
  5  6  2  0
  7  2  1  0
  8  7  2  0
 10  7  1  0
 10 14  1  0
 11 12  1  0
 11 10  1  0
 12 13  1  0
 13 14  1  0
 14 15  1  1
 15 16  2  0
 18 17  1  6
 18 20  1  0
 19 18  1  0
 20 21  1  6
 20 22  1  0
 21 15  1  0
 22 23  2  0
 22 24  1  0
M  END
$$$$
