EPV.pdb
     RDKit          3D

 24 24  0  0  1  0  0  0  0  0999 V2000
   10.9972  -16.2277   19.3316 N   0  0  0  0  0  0  0  0  0  0  0  0
   10.2675  -16.8701   20.3793 C   0  0  1  0  0  0  0  0  0  0  0  0
   10.8545  -18.2661   20.5003 C   0  0  0  0  0  0  0  0  0  0  0  0
   10.1198  -19.0589   21.5409 C   0  0  0  0  0  0  0  0  0  0  0  0
   10.6642  -20.4441   21.6601 C   0  0  0  0  0  0  0  0  0  0  0  0
   10.6096  -21.2392   20.7051 O   0  0  0  0  0  0  0  0  0  0  0  0
   10.1779  -16.1591   21.6558 C   0  0  0  0  0  0  0  0  0  0  0  0
   11.2887  -16.1205   22.3104 O   0  0  0  0  0  0  0  0  0  0  0  0
   11.2286  -20.8005   22.8737 O   0  0  0  0  0  0  0  0  0  0  0  0
    9.0854  -15.5304   22.2523 N   0  0  0  0  0  0  0  0  0  0  0  0
    8.0537  -14.7715   21.5318 C   0  0  0  0  0  0  0  0  0  0  0  0
    6.8283  -15.5550   22.0342 C   0  0  0  0  0  0  0  0  0  0  0  0
    7.2262  -16.0559   23.4334 C   0  0  0  0  0  0  0  0  0  0  0  0
    8.5818  -15.3775   23.5832 C   0  0  1  0  0  0  0  0  0  0  0  0
    9.3357  -15.7885   24.7203 C   0  0  0  0  0  0  0  0  0  0  0  0
    9.8885  -16.8682   24.9982 O   0  0  0  0  0  0  0  0  0  0  0  0
    8.9498  -13.2765   28.1731 C   0  0  0  0  0  0  0  0  0  0  0  0
   10.3143  -13.8581   27.8702 C   0  0  1  0  0  0  0  0  0  0  0  0
   10.9774  -14.1811   29.1866 C   0  0  0  0  0  0  0  0  0  0  0  0
   10.1837  -15.0831   26.9947 C   0  0  2  0  0  0  0  0  0  0  0  0
    9.5015  -14.7810   25.7546 N   0  0  0  0  0  0  0  0  0  0  0  0
    9.4778  -16.1425   27.7629 C   0  0  0  0  0  0  0  0  0  0  0  0
    8.2706  -16.3523   27.4982 O   0  0  0  0  0  0  0  0  0  0  0  0
   10.0693  -16.9065   28.7464 O   0  0  0  0  0  0  0  0  0  0  0  0
  2  1  1  6
  2  3  1  0
  3  4  1  0
  4  5  1  0
  5  9  1  0
  5  6  2  0
  7  2  1  0
  8  7  2  0
 10  7  1  0
 10 14  1  0
 11 12  1  0
 11 10  1  0
 12 13  1  0
 13 14  1  0
 14 15  1  1
 15 16  2  0
 18 17  1  1
 18 20  1  0
 19 18  1  0
 20 21  1  6
 20 22  1  0
 21 15  1  0
 22 23  2  0
 22 24  1  0
M  END
$$$$
