PMW.pdb
     RDKit          3D

 30 32  0  0  1  0  0  0  0  0999 V2000
    7.4281  -14.8063   19.5340 N   0  0  0  0  0  0  0  0  0  0  0  0
    7.2389  -14.3967   18.1503 C   0  0  0  0  0  0  0  0  0  0  0  0
    7.4225  -12.8840   18.2979 C   0  0  0  0  0  0  0  0  0  0  0  0
    8.3743  -12.7198   19.4654 C   0  0  0  0  0  0  0  0  0  0  0  0
    8.6737  -14.1301   19.8445 C   0  0  1  0  0  0  0  0  0  0  0  0
    9.0867  -14.3162   21.2412 C   0  0  0  0  0  0  0  0  0  0  0  0
   10.2100  -13.9657   21.6714 O   0  0  0  0  0  0  0  0  0  0  0  0
    7.1181  -12.8792   27.1002 C   0  0  0  0  0  0  0  0  0  0  0  0
    5.8406  -13.1684   25.8498 S   0  0  0  0  0  0  0  0  0  0  0  0
    6.7185  -13.4745   24.2647 C   0  0  0  0  0  0  0  0  0  0  0  0
    7.3348  -14.8224   24.3782 C   0  0  0  0  0  0  0  0  0  0  0  0
    8.5846  -15.0354   23.5706 C   0  0  2  0  0  0  0  0  0  0  0  0
    8.2271  -14.9107   22.1947 N   0  0  0  0  0  0  0  0  0  0  0  0
    9.3163  -16.2662   23.9015 C   0  0  0  0  0  0  0  0  0  0  0  0
    9.0296  -17.3352   23.3054 O   0  0  0  0  0  0  0  0  0  0  0  0
   10.3543  -16.3594   24.8679 N   0  0  0  0  0  0  0  0  0  0  0  0
   11.1179  -17.5919   25.0984 C   0  0  1  0  0  0  0  0  0  0  0  0
   12.1968  -17.3489   26.1081 C   0  0  0  0  0  0  0  0  0  0  0  0
   11.6828  -16.9801   27.4288 C   0  0  0  0  0  0  0  0  0  0  0  0
   11.4438  -17.8695   28.4901 C   0  0  0  0  0  0  0  0  0  0  0  0
   10.9357  -17.1964   29.5336 N   0  0  0  0  0  0  0  0  0  0  0  0
   10.8245  -15.8971   29.2199 C   0  0  0  0  0  0  0  0  0  0  0  0
   10.3875  -14.7819   29.9206 C   0  0  0  0  0  0  0  0  0  0  0  0
   10.4037  -13.5404   29.3525 C   0  0  0  0  0  0  0  0  0  0  0  0
   10.8639  -13.3881   28.0535 C   0  0  0  0  0  0  0  0  0  0  0  0
   11.2869  -14.4916   27.3821 C   0  0  0  0  0  0  0  0  0  0  0  0
   11.2882  -15.7545   27.9102 C   0  0  0  0  0  0  0  0  0  0  0  0
   10.2572  -18.7273   25.4016 C   0  0  0  0  0  0  0  0  0  0  0  0
    8.9131  -18.5397   25.7840 O   0  0  0  0  0  0  0  0  0  0  0  0
   10.6305  -19.9198   25.3485 O   0  0  0  0  0  0  0  0  0  0  0  0
  1  2  1  0
  3  2  1  0
  4  3  1  0
  5  6  1  1
  5  4  1  0
  5  1  1  0
  6  7  2  0
  9  8  1  0
 10 11  1  0
 10  9  1  0
 12 11  1  1
 12 14  1  0
 13 12  1  0
 13  6  1  0
 14 15  2  0
 14 16  1  0
 16 17  1  0
 17 28  1  0
 17 18  1  1
 19 18  1  0
 20 19  2  0
 21 20  1  0
 22 21  1  0
 22 27  2  0
 23 22  1  0
 24 23  2  0
 24 25  1  0
 25 26  2  0
 26 27  1  0
 27 19  1  0
 28 30  2  0
 28 29  1  0
M  END
$$$$
