PMW.pdb
     RDKit          3D

 30 32  0  0  1  0  0  0  0  0999 V2000
    8.3343  -15.0013   18.1585 N   0  0  0  0  0  0  0  0  0  0  0  0
    8.6645  -14.1493   17.0257 C   0  0  0  0  0  0  0  0  0  0  0  0
    7.8108  -12.9239   17.3625 C   0  0  0  0  0  0  0  0  0  0  0  0
    7.7307  -12.9097   18.8755 C   0  0  0  0  0  0  0  0  0  0  0  0
    8.5653  -14.0840   19.2586 C   0  0  1  0  0  0  0  0  0  0  0  0
    8.2375  -14.6707   20.5641 C   0  0  0  0  0  0  0  0  0  0  0  0
    8.3937  -14.0566   21.6450 O   0  0  0  0  0  0  0  0  0  0  0  0
    3.4976  -18.7244   21.5506 C   0  0  0  0  0  0  0  0  0  0  0  0
    4.8042  -19.6867   22.3545 S   0  0  0  0  0  0  0  0  0  0  0  0
    6.0786  -18.4826   22.9049 C   0  0  0  0  0  0  0  0  0  0  0  0
    6.4393  -17.6755   21.7100 C   0  0  0  0  0  0  0  0  0  0  0  0
    7.4539  -16.5906   21.9408 C   0  0  2  0  0  0  0  0  0  0  0  0
    7.7191  -15.9822   20.6775 N   0  0  0  0  0  0  0  0  0  0  0  0
    8.6521  -17.0281   22.6706 C   0  0  0  0  0  0  0  0  0  0  0  0
    9.7538  -17.0922   22.0687 O   0  0  0  0  0  0  0  0  0  0  0  0
    8.6777  -17.3978   24.0428 N   0  0  0  0  0  0  0  0  0  0  0  0
    9.5705  -16.7637   25.0206 C   0  0  1  0  0  0  0  0  0  0  0  0
    9.4358  -15.2739   24.9518 C   0  0  0  0  0  0  0  0  0  0  0  0
    8.1418  -14.7856   25.4332 C   0  0  0  0  0  0  0  0  0  0  0  0
    6.9559  -15.5369   25.4928 C   0  0  0  0  0  0  0  0  0  0  0  0
    5.9570  -14.7631   25.9443 N   0  0  0  0  0  0  0  0  0  0  0  0
    6.4202  -13.5287   26.1905 C   0  0  0  0  0  0  0  0  0  0  0  0
    5.8320  -12.3702   26.6778 C   0  0  0  0  0  0  0  0  0  0  0  0
    6.5614  -11.2300   26.8576 C   0  0  0  0  0  0  0  0  0  0  0  0
    7.9131  -11.2265   26.5487 C   0  0  0  0  0  0  0  0  0  0  0  0
    8.4720  -12.3700   26.0715 C   0  0  0  0  0  0  0  0  0  0  0  0
    7.7806  -13.5349   25.8747 C   0  0  0  0  0  0  0  0  0  0  0  0
    9.4103  -17.3194   26.3575 C   0  0  0  0  0  0  0  0  0  0  0  0
    8.3534  -18.2037   26.6561 O   0  0  0  0  0  0  0  0  0  0  0  0
   10.1729  -17.0641   27.3155 O   0  0  0  0  0  0  0  0  0  0  0  0
  1  2  1  0
  3  2  1  0
  4  3  1  0
  5  6  1  1
  5  4  1  0
  5  1  1  0
  6  7  2  0
  9  8  1  0
 10 11  1  0
 10  9  1  0
 12 11  1  6
 12 14  1  0
 13 12  1  0
 13  6  1  0
 14 15  2  0
 14 16  1  0
 16 17  1  0
 17 28  1  0
 17 18  1  1
 19 18  1  0
 20 19  2  0
 21 20  1  0
 22 21  1  0
 22 27  2  0
 23 22  1  0
 24 23  2  0
 24 25  1  0
 25 26  2  0
 26 27  1  0
 27 19  1  0
 28 30  2  0
 28 29  1  0
M  END
$$$$
