PMW.pdb
     RDKit          3D

 30 32  0  0  1  0  0  0  0  0999 V2000
    8.7877  -20.1902   20.1074 N   0  0  0  0  0  0  0  0  0  0  0  0
    8.6471  -21.2584   19.1290 C   0  0  0  0  0  0  0  0  0  0  0  0
    8.2051  -20.4417   17.9118 C   0  0  0  0  0  0  0  0  0  0  0  0
    8.8468  -19.0823   18.1018 C   0  0  0  0  0  0  0  0  0  0  0  0
    9.6160  -19.2573   19.3667 C   0  0  1  0  0  0  0  0  0  0  0  0
    9.8716  -18.0152   20.1069 C   0  0  0  0  0  0  0  0  0  0  0  0
   11.0256  -17.6101   20.3790 O   0  0  0  0  0  0  0  0  0  0  0  0
    8.2540  -11.1780   20.7054 C   0  0  0  0  0  0  0  0  0  0  0  0
    8.3383  -12.9406   20.2990 S   0  0  0  0  0  0  0  0  0  0  0  0
    7.7544  -13.8496   21.7855 C   0  0  0  0  0  0  0  0  0  0  0  0
    7.7096  -15.2870   21.4095 C   0  0  0  0  0  0  0  0  0  0  0  0
    9.0449  -15.9538   21.2305 C   0  0  2  0  0  0  0  0  0  0  0  0
    8.8139  -17.1931   20.5617 N   0  0  0  0  0  0  0  0  0  0  0  0
    9.8359  -16.0646   22.4641 C   0  0  0  0  0  0  0  0  0  0  0  0
   10.9555  -15.4972   22.5338 O   0  0  0  0  0  0  0  0  0  0  0  0
    9.4349  -16.7801   23.6248 N   0  0  0  0  0  0  0  0  0  0  0  0
   10.0165  -16.5353   24.9503 C   0  0  1  0  0  0  0  0  0  0  0  0
    9.7330  -15.1311   25.3866 C   0  0  0  0  0  0  0  0  0  0  0  0
    8.3197  -14.8908   25.6856 C   0  0  0  0  0  0  0  0  0  0  0  0
    7.2818  -15.8255   25.5327 C   0  0  0  0  0  0  0  0  0  0  0  0
    6.1123  -15.2546   25.8591 N   0  0  0  0  0  0  0  0  0  0  0  0
    6.3199  -13.9808   26.2243 C   0  0  0  0  0  0  0  0  0  0  0  0
    5.4806  -12.9672   26.6646 C   0  0  0  0  0  0  0  0  0  0  0  0
    5.9733  -11.7390   27.0007 C   0  0  0  0  0  0  0  0  0  0  0  0
    7.3350  -11.4972   26.9014 C   0  0  0  0  0  0  0  0  0  0  0  0
    8.1417  -12.5014   26.4673 C   0  0  0  0  0  0  0  0  0  0  0  0
    7.6928  -13.7468   26.1191 C   0  0  0  0  0  0  0  0  0  0  0  0
    9.6332  -17.5533   25.9191 C   0  0  0  0  0  0  0  0  0  0  0  0
   10.2188  -17.5949   27.2011 O   0  0  0  0  0  0  0  0  0  0  0  0
    8.7819  -18.4424   25.6974 O   0  0  0  0  0  0  0  0  0  0  0  0
  1  2  1  0
  3  2  1  0
  4  3  1  0
  5  6  1  1
  5  4  1  0
  5  1  1  0
  6  7  2  0
  9  8  1  0
 10 11  1  0
 10  9  1  0
 12 11  1  1
 12 14  1  0
 13 12  1  0
 13  6  1  0
 14 15  2  0
 14 16  1  0
 16 17  1  0
 17 28  1  0
 17 18  1  1
 19 18  1  0
 20 19  2  0
 21 20  1  0
 22 21  1  0
 22 27  2  0
 23 22  1  0
 24 23  2  0
 24 25  1  0
 25 26  2  0
 26 27  1  0
 27 19  1  0
 28 30  2  0
 28 29  1  0
M  END
$$$$
