PMW.pdb
     RDKit          3D

 30 32  0  0  1  0  0  0  0  0999 V2000
    9.4388  -16.9586   18.2077 N   0  0  0  0  0  0  0  0  0  0  0  0
    8.9359  -16.3299   16.9952 C   0  0  0  0  0  0  0  0  0  0  0  0
    7.4313  -16.3986   17.2697 C   0  0  0  0  0  0  0  0  0  0  0  0
    7.3081  -16.3364   18.7786 C   0  0  0  0  0  0  0  0  0  0  0  0
    8.7261  -16.1989   19.2175 C   0  0  1  0  0  0  0  0  0  0  0  0
    8.9960  -16.6746   20.5802 C   0  0  0  0  0  0  0  0  0  0  0  0
    8.4248  -16.2041   21.5912 O   0  0  0  0  0  0  0  0  0  0  0  0
   13.5937  -21.7771   24.4488 C   0  0  0  0  0  0  0  0  0  0  0  0
   13.0677  -21.0151   22.8925 S   0  0  0  0  0  0  0  0  0  0  0  0
   11.7082  -19.8519   23.3118 C   0  0  0  0  0  0  0  0  0  0  0  0
   11.2946  -19.2104   22.0363 C   0  0  0  0  0  0  0  0  0  0  0  0
   10.2111  -18.1749   22.1513 C   0  0  2  0  0  0  0  0  0  0  0  0
    9.9304  -17.7064   20.8328 N   0  0  0  0  0  0  0  0  0  0  0  0
   10.4895  -17.1139   23.1292 C   0  0  0  0  0  0  0  0  0  0  0  0
   11.1239  -16.0906   22.7676 O   0  0  0  0  0  0  0  0  0  0  0  0
   10.0921  -17.1419   24.4935 N   0  0  0  0  0  0  0  0  0  0  0  0
   10.3377  -16.0268   25.4163 C   0  0  1  0  0  0  0  0  0  0  0  0
    9.7265  -14.7693   24.8801 C   0  0  0  0  0  0  0  0  0  0  0  0
    8.3282  -14.5894   25.2761 C   0  0  0  0  0  0  0  0  0  0  0  0
    7.3385  -15.5866   25.2558 C   0  0  0  0  0  0  0  0  0  0  0  0
    6.1654  -15.0623   25.6420 N   0  0  0  0  0  0  0  0  0  0  0  0
    6.3247  -13.7600   25.9209 C   0  0  0  0  0  0  0  0  0  0  0  0
    5.4630  -12.7698   26.3707 C   0  0  0  0  0  0  0  0  0  0  0  0
    5.9066  -11.4991   26.6006 C   0  0  0  0  0  0  0  0  0  0  0  0
    7.2403  -11.1897   26.3816 C   0  0  0  0  0  0  0  0  0  0  0  0
    8.0695  -12.1719   25.9399 C   0  0  0  0  0  0  0  0  0  0  0  0
    7.6696  -13.4580   25.6955 C   0  0  0  0  0  0  0  0  0  0  0  0
    9.9514  -16.3456   26.7841 C   0  0  0  0  0  0  0  0  0  0  0  0
    9.4181  -17.6084   27.1141 O   0  0  0  0  0  0  0  0  0  0  0  0
   10.0588  -15.5499   27.7432 O   0  0  0  0  0  0  0  0  0  0  0  0
  1  2  1  0
  3  2  1  0
  4  3  1  0
  5  6  1  1
  5  4  1  0
  5  1  1  0
  6  7  2  0
  9  8  1  0
 10 11  1  0
 10  9  1  0
 12 11  1  6
 12 14  1  0
 13 12  1  0
 13  6  1  0
 14 15  2  0
 14 16  1  0
 16 17  1  0
 17 28  1  0
 17 18  1  6
 19 18  1  0
 20 19  2  0
 21 20  1  0
 22 21  1  0
 22 27  2  0
 23 22  1  0
 24 23  2  0
 24 25  1  0
 25 26  2  0
 26 27  1  0
 27 19  1  0
 28 30  2  0
 28 29  1  0
M  END
$$$$
