PMW.pdb
     RDKit          3D

 30 32  0  0  1  0  0  0  0  0999 V2000
    7.3434  -19.1654   20.9042 N   0  0  0  0  0  0  0  0  0  0  0  0
    6.6037  -20.1902   20.1824 C   0  0  0  0  0  0  0  0  0  0  0  0
    6.4603  -19.5007   18.8231 C   0  0  0  0  0  0  0  0  0  0  0  0
    7.6836  -18.6144   18.7056 C   0  0  0  0  0  0  0  0  0  0  0  0
    8.4209  -18.9051   19.9682 C   0  0  1  0  0  0  0  0  0  0  0  0
    9.3153  -17.8310   20.4182 C   0  0  0  0  0  0  0  0  0  0  0  0
   10.5255  -17.7741   20.0985 O   0  0  0  0  0  0  0  0  0  0  0  0
    8.3218  -11.7625   20.0154 C   0  0  0  0  0  0  0  0  0  0  0  0
    6.9954  -12.8830   20.5293 S   0  0  0  0  0  0  0  0  0  0  0  0
    7.7296  -14.5661   20.6011 C   0  0  0  0  0  0  0  0  0  0  0  0
    9.0239  -14.4306   21.3194 C   0  0  0  0  0  0  0  0  0  0  0  0
    9.7051  -15.7211   21.6800 C   0  0  2  0  0  0  0  0  0  0  0  0
    8.8549  -16.7839   21.2508 N   0  0  0  0  0  0  0  0  0  0  0  0
   10.1300  -15.8092   23.0841 C   0  0  0  0  0  0  0  0  0  0  0  0
   10.9814  -14.9960   23.5246 O   0  0  0  0  0  0  0  0  0  0  0  0
    9.6482  -16.7639   24.0203 N   0  0  0  0  0  0  0  0  0  0  0  0
   10.1434  -16.8447   25.3999 C   0  0  1  0  0  0  0  0  0  0  0  0
    9.8288  -15.5789   26.1357 C   0  0  0  0  0  0  0  0  0  0  0  0
    8.3995  -15.2609   26.1580 C   0  0  0  0  0  0  0  0  0  0  0  0
    7.3549  -16.1795   25.9596 C   0  0  0  0  0  0  0  0  0  0  0  0
    6.1779  -15.5370   26.0053 N   0  0  0  0  0  0  0  0  0  0  0  0
    6.3867  -14.2306   26.2261 C   0  0  0  0  0  0  0  0  0  0  0  0
    5.5387  -13.1429   26.3791 C   0  0  0  0  0  0  0  0  0  0  0  0
    6.0310  -11.8934   26.6255 C   0  0  0  0  0  0  0  0  0  0  0  0
    7.4011  -11.7049   26.7249 C   0  0  0  0  0  0  0  0  0  0  0  0
    8.2163  -12.7814   26.5711 C   0  0  0  0  0  0  0  0  0  0  0  0
    7.7684  -14.0508   26.3226 C   0  0  0  0  0  0  0  0  0  0  0  0
    9.7018  -18.0570   26.0760 C   0  0  0  0  0  0  0  0  0  0  0  0
    8.8613  -18.9859   25.4289 O   0  0  0  0  0  0  0  0  0  0  0  0
   10.0229  -18.3600   27.2462 O   0  0  0  0  0  0  0  0  0  0  0  0
  1  2  1  0
  3  2  1  0
  4  3  1  0
  5  6  1  1
  5  4  1  0
  5  1  1  0
  6  7  2  0
  9  8  1  0
 10 11  1  0
 10  9  1  0
 12 11  1  1
 12 14  1  0
 13 12  1  0
 13  6  1  0
 14 15  2  0
 14 16  1  0
 16 17  1  0
 17 28  1  0
 17 18  1  1
 19 18  1  0
 20 19  2  0
 21 20  1  0
 22 21  1  0
 22 27  2  0
 23 22  1  0
 24 23  2  0
 24 25  1  0
 25 26  2  0
 26 27  1  0
 27 19  1  0
 28 30  2  0
 28 29  1  0
M  END
$$$$
