PMW.pdb
     RDKit          3D

 30 32  0  0  1  0  0  0  0  0999 V2000
    8.3701  -15.0218   18.0651 N   0  0  0  0  0  0  0  0  0  0  0  0
    8.6081  -14.0802   16.9812 C   0  0  0  0  0  0  0  0  0  0  0  0
    7.7516  -12.9059   17.4619 C   0  0  0  0  0  0  0  0  0  0  0  0
    7.7688  -13.0053   18.9737 C   0  0  0  0  0  0  0  0  0  0  0  0
    8.6515  -14.1822   19.2144 C   0  0  1  0  0  0  0  0  0  0  0  0
    8.4213  -14.8719   20.4901 C   0  0  0  0  0  0  0  0  0  0  0  0
    8.5400  -14.3056   21.6014 O   0  0  0  0  0  0  0  0  0  0  0  0
    6.5951  -21.9982   23.3054 C   0  0  0  0  0  0  0  0  0  0  0  0
    6.8086  -20.8860   21.8923 S   0  0  0  0  0  0  0  0  0  0  0  0
    7.1326  -19.2150   22.5848 C   0  0  0  0  0  0  0  0  0  0  0  0
    7.3864  -18.3205   21.4251 C   0  0  0  0  0  0  0  0  0  0  0  0
    7.7735  -16.9087   21.7660 C   0  0  2  0  0  0  0  0  0  0  0  0
    8.0469  -16.2355   20.5377 N   0  0  0  0  0  0  0  0  0  0  0  0
    8.8396  -16.7997   22.7716 C   0  0  0  0  0  0  0  0  0  0  0  0
   10.0295  -17.0311   22.4390 O   0  0  0  0  0  0  0  0  0  0  0  0
    8.6389  -16.4438   24.1329 N   0  0  0  0  0  0  0  0  0  0  0  0
    9.7478  -16.2346   25.0719 C   0  0  1  0  0  0  0  0  0  0  0  0
    9.6693  -14.8618   25.6651 C   0  0  0  0  0  0  0  0  0  0  0  0
    8.2975  -14.4199   25.9252 C   0  0  0  0  0  0  0  0  0  0  0  0
    7.1776  -15.2598   26.0458 C   0  0  0  0  0  0  0  0  0  0  0  0
    6.0780  -14.5160   26.2404 N   0  0  0  0  0  0  0  0  0  0  0  0
    6.4106  -13.2168   26.2564 C   0  0  0  0  0  0  0  0  0  0  0  0
    5.6829  -12.0492   26.4377 C   0  0  0  0  0  0  0  0  0  0  0  0
    6.2941  -10.8283   26.4306 C   0  0  0  0  0  0  0  0  0  0  0  0
    7.6651  -10.7504   26.2390 C   0  0  0  0  0  0  0  0  0  0  0  0
    8.3615  -11.9041   26.0620 C   0  0  0  0  0  0  0  0  0  0  0  0
    7.7919  -13.1488   26.0608 C   0  0  0  0  0  0  0  0  0  0  0  0
    9.8519  -17.3066   26.0526 C   0  0  0  0  0  0  0  0  0  0  0  0
   10.9674  -17.4028   26.9097 O   0  0  0  0  0  0  0  0  0  0  0  0
    8.9881  -18.1979   26.2068 O   0  0  0  0  0  0  0  0  0  0  0  0
  1  2  1  0
  3  2  1  0
  4  3  1  0
  5  6  1  1
  5  4  1  0
  5  1  1  0
  6  7  2  0
  9  8  1  0
 10 11  1  0
 10  9  1  0
 12 11  1  6
 12 14  1  0
 13 12  1  0
 13  6  1  0
 14 15  2  0
 14 16  1  0
 16 17  1  0
 17 28  1  0
 17 18  1  1
 19 18  1  0
 20 19  2  0
 21 20  1  0
 22 21  1  0
 22 27  2  0
 23 22  1  0
 24 23  2  0
 24 25  1  0
 25 26  2  0
 26 27  1  0
 27 19  1  0
 28 30  2  0
 28 29  1  0
M  END
$$$$
