PMW.pdb
     RDKit          3D

 30 32  0  0  1  0  0  0  0  0999 V2000
    9.2737  -13.7671   17.5809 N   0  0  0  0  0  0  0  0  0  0  0  0
    8.2538  -13.1632   16.7365 C   0  0  0  0  0  0  0  0  0  0  0  0
    7.4667  -14.4152   16.3409 C   0  0  0  0  0  0  0  0  0  0  0  0
    7.6307  -15.3636   17.5112 C   0  0  0  0  0  0  0  0  0  0  0  0
    8.4477  -14.5643   18.4682 C   0  0  1  0  0  0  0  0  0  0  0  0
    9.2382  -15.3608   19.4151 C   0  0  0  0  0  0  0  0  0  0  0  0
    8.7216  -16.1620   20.2282 O   0  0  0  0  0  0  0  0  0  0  0  0
   15.1543  -13.6665   19.4596 C   0  0  0  0  0  0  0  0  0  0  0  0
   15.0791  -15.3158   18.7158 S   0  0  0  0  0  0  0  0  0  0  0  0
   13.3191  -15.8404   18.7813 C   0  0  0  0  0  0  0  0  0  0  0  0
   12.8685  -15.6288   20.1818 C   0  0  0  0  0  0  0  0  0  0  0  0
   11.4240  -15.9429   20.4541 C   0  0  2  0  0  0  0  0  0  0  0  0
   10.6491  -15.2676   19.4641 N   0  0  0  0  0  0  0  0  0  0  0  0
   11.0001  -15.6892   21.8382 C   0  0  0  0  0  0  0  0  0  0  0  0
   11.7215  -14.9818   22.5860 O   0  0  0  0  0  0  0  0  0  0  0  0
    9.8069  -16.1889   22.4269 N   0  0  0  0  0  0  0  0  0  0  0  0
    9.4221  -15.8983   23.8135 C   0  0  1  0  0  0  0  0  0  0  0  0
    8.1535  -15.1031   23.8409 C   0  0  0  0  0  0  0  0  0  0  0  0
    7.7061  -14.7713   25.1953 C   0  0  0  0  0  0  0  0  0  0  0  0
    7.3457  -15.6992   26.1870 C   0  0  0  0  0  0  0  0  0  0  0  0
    6.9471  -15.0458   27.2890 N   0  0  0  0  0  0  0  0  0  0  0  0
    7.0250  -13.7231   27.0808 C   0  0  0  0  0  0  0  0  0  0  0  0
    6.7594  -12.6165   27.8748 C   0  0  0  0  0  0  0  0  0  0  0  0
    6.9535  -11.3488   27.4063 C   0  0  0  0  0  0  0  0  0  0  0  0
    7.4238  -11.1606   26.1156 C   0  0  0  0  0  0  0  0  0  0  0  0
    7.6775  -12.2560   25.3520 C   0  0  0  0  0  0  0  0  0  0  0  0
    7.4974  -13.5442   25.7787 C   0  0  0  0  0  0  0  0  0  0  0  0
    9.3977  -17.0953   24.6432 C   0  0  0  0  0  0  0  0  0  0  0  0
    9.8759  -17.0712   25.9694 O   0  0  0  0  0  0  0  0  0  0  0  0
    8.9647  -18.2034   24.2572 O   0  0  0  0  0  0  0  0  0  0  0  0
  1  2  1  0
  3  2  1  0
  4  3  1  0
  5  6  1  1
  5  4  1  0
  5  1  1  0
  6  7  2  0
  9  8  1  0
 10 11  1  0
 10  9  1  0
 12 11  1  1
 12 14  1  0
 13 12  1  0
 13  6  1  0
 14 15  2  0
 14 16  1  0
 16 17  1  0
 17 28  1  0
 17 18  1  6
 19 18  1  0
 20 19  2  0
 21 20  1  0
 22 21  1  0
 22 27  2  0
 23 22  1  0
 24 23  2  0
 24 25  1  0
 25 26  2  0
 26 27  1  0
 27 19  1  0
 28 30  2  0
 28 29  1  0
M  END
$$$$
