PMW.pdb
     RDKit          3D

 30 32  0  0  1  0  0  0  0  0999 V2000
    7.8933  -15.9333   18.7365 N   0  0  0  0  0  0  0  0  0  0  0  0
    7.6856  -15.7664   17.3057 C   0  0  0  0  0  0  0  0  0  0  0  0
    7.4189  -14.2598   17.2540 C   0  0  0  0  0  0  0  0  0  0  0  0
    8.2056  -13.6855   18.4148 C   0  0  0  0  0  0  0  0  0  0  0  0
    8.8704  -14.8906   18.9877 C   0  0  1  0  0  0  0  0  0  0  0  0
    9.2272  -14.7784   20.4076 C   0  0  0  0  0  0  0  0  0  0  0  0
   10.2370  -14.1543   20.8086 O   0  0  0  0  0  0  0  0  0  0  0  0
    7.0735  -12.3631   26.8322 C   0  0  0  0  0  0  0  0  0  0  0  0
    7.2135  -12.6366   25.0476 S   0  0  0  0  0  0  0  0  0  0  0  0
    7.1468  -14.4547   24.7892 C   0  0  0  0  0  0  0  0  0  0  0  0
    7.2326  -14.6749   23.3216 C   0  0  0  0  0  0  0  0  0  0  0  0
    8.5916  -15.0484   22.7990 C   0  0  2  0  0  0  0  0  0  0  0  0
    8.4395  -15.3774   21.4187 N   0  0  0  0  0  0  0  0  0  0  0  0
    9.2870  -16.0686   23.5961 C   0  0  0  0  0  0  0  0  0  0  0  0
    8.8128  -17.2310   23.6622 O   0  0  0  0  0  0  0  0  0  0  0  0
   10.4884  -15.8514   24.3237 N   0  0  0  0  0  0  0  0  0  0  0  0
   11.3226  -16.9494   24.8274 C   0  0  1  0  0  0  0  0  0  0  0  0
   10.7508  -17.4886   26.1021 C   0  0  0  0  0  0  0  0  0  0  0  0
    9.8175  -16.5677   26.7544 C   0  0  0  0  0  0  0  0  0  0  0  0
    8.4160  -16.6369   26.6811 C   0  0  0  0  0  0  0  0  0  0  0  0
    7.8801  -15.6125   27.3619 N   0  0  0  0  0  0  0  0  0  0  0  0
    8.8586  -14.8613   27.8884 C   0  0  0  0  0  0  0  0  0  0  0  0
    8.8635  -13.7220   28.6807 C   0  0  0  0  0  0  0  0  0  0  0  0
   10.0344  -13.1631   29.1060 C   0  0  0  0  0  0  0  0  0  0  0  0
   11.2408  -13.7413   28.7416 C   0  0  0  0  0  0  0  0  0  0  0  0
   11.2168  -14.8560   27.9644 C   0  0  0  0  0  0  0  0  0  0  0  0
   10.0686  -15.4502   27.5145 C   0  0  0  0  0  0  0  0  0  0  0  0
   11.5796  -17.9602   23.8105 C   0  0  0  0  0  0  0  0  0  0  0  0
   11.0700  -17.8229   22.5030 O   0  0  0  0  0  0  0  0  0  0  0  0
   12.2510  -18.9964   24.0104 O   0  0  0  0  0  0  0  0  0  0  0  0
  1  2  1  0
  3  2  1  0
  4  3  1  0
  5  6  1  1
  5  4  1  0
  5  1  1  0
  6  7  2  0
  9  8  1  0
 10 11  1  0
 10  9  1  0
 12 11  1  1
 12 14  1  0
 13 12  1  0
 13  6  1  0
 14 15  2  0
 14 16  1  0
 16 17  1  0
 17 28  1  0
 17 18  1  1
 19 18  1  0
 20 19  2  0
 21 20  1  0
 22 21  1  0
 22 27  2  0
 23 22  1  0
 24 23  2  0
 24 25  1  0
 25 26  2  0
 26 27  1  0
 27 19  1  0
 28 30  2  0
 28 29  1  0
M  END
$$$$
