PMW.pdb
     RDKit          3D

 30 32  0  0  1  0  0  0  0  0999 V2000
    8.1383  -16.7461   17.5968 N   0  0  0  0  0  0  0  0  0  0  0  0
    7.3366  -17.7041   16.8499 C   0  0  0  0  0  0  0  0  0  0  0  0
    7.6957  -18.9883   17.6020 C   0  0  0  0  0  0  0  0  0  0  0  0
    7.9958  -18.5390   19.0176 C   0  0  0  0  0  0  0  0  0  0  0  0
    7.7451  -17.0708   18.9551 C   0  0  1  0  0  0  0  0  0  0  0  0
    8.4693  -16.2809   19.9589 C   0  0  0  0  0  0  0  0  0  0  0  0
    9.6918  -16.0218   19.8689 O   0  0  0  0  0  0  0  0  0  0  0  0
    7.3966  -12.6737   26.8766 C   0  0  0  0  0  0  0  0  0  0  0  0
    6.7057  -13.3827   25.3603 S   0  0  0  0  0  0  0  0  0  0  0  0
    8.1144  -14.1145   24.4347 C   0  0  0  0  0  0  0  0  0  0  0  0
    7.5449  -14.6940   23.1901 C   0  0  0  0  0  0  0  0  0  0  0  0
    8.5343  -15.3451   22.2645 C   0  0  2  0  0  0  0  0  0  0  0  0
    7.8183  -15.7598   21.1018 N   0  0  0  0  0  0  0  0  0  0  0  0
    9.3447  -16.3995   22.8900 C   0  0  0  0  0  0  0  0  0  0  0  0
    8.7777  -17.4171   23.3623 O   0  0  0  0  0  0  0  0  0  0  0  0
   10.7604  -16.3707   23.0128 N   0  0  0  0  0  0  0  0  0  0  0  0
   11.4465  -16.3851   24.3106 C   0  0  1  0  0  0  0  0  0  0  0  0
   10.8575  -15.3486   25.2169 C   0  0  0  0  0  0  0  0  0  0  0  0
   10.5986  -15.8418   26.5712 C   0  0  0  0  0  0  0  0  0  0  0  0
   10.1367  -17.1280   26.8979 C   0  0  0  0  0  0  0  0  0  0  0  0
    9.9710  -17.2211   28.2261 N   0  0  0  0  0  0  0  0  0  0  0  0
   10.3017  -16.0565   28.8035 C   0  0  0  0  0  0  0  0  0  0  0  0
   10.3338  -15.6216   30.1209 C   0  0  0  0  0  0  0  0  0  0  0  0
   10.7455  -14.3589   30.4375 C   0  0  0  0  0  0  0  0  0  0  0  0
   11.1386  -13.4939   29.4276 C   0  0  0  0  0  0  0  0  0  0  0  0
   11.0996  -13.9366   28.1432 C   0  0  0  0  0  0  0  0  0  0  0  0
   10.6939  -15.1922   27.7789 C   0  0  0  0  0  0  0  0  0  0  0  0
   11.5095  -17.7208   24.8882 C   0  0  0  0  0  0  0  0  0  0  0  0
   12.6829  -18.1878   25.5151 O   0  0  0  0  0  0  0  0  0  0  0  0
   10.5583  -18.5329   24.8742 O   0  0  0  0  0  0  0  0  0  0  0  0
  1  2  1  0
  3  2  1  0
  4  3  1  0
  5  6  1  1
  5  4  1  0
  5  1  1  0
  6  7  2  0
  9  8  1  0
 10 11  1  0
 10  9  1  0
 12 11  1  1
 12 14  1  0
 13 12  1  0
 13  6  1  0
 14 15  2  0
 14 16  1  0
 16 17  1  0
 17 28  1  0
 17 18  1  1
 19 18  1  0
 20 19  2  0
 21 20  1  0
 22 21  1  0
 22 27  2  0
 23 22  1  0
 24 23  2  0
 24 25  1  0
 25 26  2  0
 26 27  1  0
 27 19  1  0
 28 30  2  0
 28 29  1  0
M  END
$$$$
