PMW.pdb
     RDKit          3D

 30 32  0  0  1  0  0  0  0  0999 V2000
    8.5171  -15.1268   21.2799 N   0  0  0  0  0  0  0  0  0  0  0  0
    8.1578  -14.7105   19.9324 C   0  0  0  0  0  0  0  0  0  0  0  0
    9.5079  -14.1664   19.4580 C   0  0  0  0  0  0  0  0  0  0  0  0
   10.5411  -14.9757   20.2151 C   0  0  0  0  0  0  0  0  0  0  0  0
    9.7016  -15.9190   21.0075 C   0  0  1  0  0  0  0  0  0  0  0  0
   10.3366  -16.4277   22.2298 C   0  0  0  0  0  0  0  0  0  0  0  0
   10.8312  -17.5759   22.3128 O   0  0  0  0  0  0  0  0  0  0  0  0
   10.6398  -13.2185   28.3784 C   0  0  0  0  0  0  0  0  0  0  0  0
   12.2076  -13.8131   27.6947 S   0  0  0  0  0  0  0  0  0  0  0  0
   11.8400  -15.3998   26.8437 C   0  0  0  0  0  0  0  0  0  0  0  0
   11.4026  -15.0480   25.4674 C   0  0  0  0  0  0  0  0  0  0  0  0
   10.8395  -16.1805   24.6551 C   0  0  2  0  0  0  0  0  0  0  0  0
   10.4272  -15.6388   23.4008 N   0  0  0  0  0  0  0  0  0  0  0  0
    9.8099  -16.9681   25.3473 C   0  0  0  0  0  0  0  0  0  0  0  0
   10.0803  -17.5052   26.4512 O   0  0  0  0  0  0  0  0  0  0  0  0
    8.4909  -17.1843   24.8640 N   0  0  0  0  0  0  0  0  0  0  0  0
    7.4302  -17.7790   25.6864 C   0  0  1  0  0  0  0  0  0  0  0  0
    6.1200  -17.1133   25.3989 C   0  0  0  0  0  0  0  0  0  0  0  0
    6.2595  -15.7215   24.9652 C   0  0  0  0  0  0  0  0  0  0  0  0
    6.5249  -15.2975   23.6521 C   0  0  0  0  0  0  0  0  0  0  0  0
    6.6292  -13.9601   23.6250 N   0  0  0  0  0  0  0  0  0  0  0  0
    6.4448  -13.4694   24.8596 C   0  0  0  0  0  0  0  0  0  0  0  0
    6.4276  -12.1834   25.3808 C   0  0  0  0  0  0  0  0  0  0  0  0
    6.1859  -11.9622   26.7062 C   0  0  0  0  0  0  0  0  0  0  0  0
    5.9536  -13.0389   27.5485 C   0  0  0  0  0  0  0  0  0  0  0  0
    5.9753  -14.2912   27.0208 C   0  0  0  0  0  0  0  0  0  0  0  0
    6.2137  -14.5606   25.7000 C   0  0  0  0  0  0  0  0  0  0  0  0
    7.3999  -19.2318   25.5842 C   0  0  0  0  0  0  0  0  0  0  0  0
    8.2549  -19.9166   24.6964 O   0  0  0  0  0  0  0  0  0  0  0  0
    6.6377  -19.9629   26.2541 O   0  0  0  0  0  0  0  0  0  0  0  0
  1  2  1  0
  3  2  1  0
  4  3  1  0
  5  6  1  1
  5  4  1  0
  5  1  1  0
  6  7  2  0
  9  8  1  0
 10 11  1  0
 10  9  1  0
 12 11  1  1
 12 14  1  0
 13 12  1  0
 13  6  1  0
 14 15  2  0
 14 16  1  0
 16 17  1  0
 17 28  1  0
 17 18  1  6
 19 18  1  0
 20 19  2  0
 21 20  1  0
 22 21  1  0
 22 27  2  0
 23 22  1  0
 24 23  2  0
 24 25  1  0
 25 26  2  0
 26 27  1  0
 27 19  1  0
 28 30  2  0
 28 29  1  0
M  END
$$$$
