PMW.pdb
     RDKit          3D

 30 32  0  0  1  0  0  0  0  0999 V2000
    7.0446  -17.9780   20.4456 N   0  0  0  0  0  0  0  0  0  0  0  0
    6.4081  -18.6995   19.3535 C   0  0  0  0  0  0  0  0  0  0  0  0
    6.3616  -17.5904   18.2992 C   0  0  0  0  0  0  0  0  0  0  0  0
    7.5587  -16.7132   18.6046 C   0  0  0  0  0  0  0  0  0  0  0  0
    8.1910  -17.4125   19.7593 C   0  0  1  0  0  0  0  0  0  0  0  0
    9.0039  -16.5521   20.6281 C   0  0  0  0  0  0  0  0  0  0  0  0
   10.2284  -16.3610   20.4438 O   0  0  0  0  0  0  0  0  0  0  0  0
    6.9920  -12.3328   26.0747 C   0  0  0  0  0  0  0  0  0  0  0  0
    7.3609  -11.7774   24.3911 S   0  0  0  0  0  0  0  0  0  0  0  0
    8.7759  -12.7916   23.8029 C   0  0  0  0  0  0  0  0  0  0  0  0
    8.1938  -13.9109   23.0170 C   0  0  0  0  0  0  0  0  0  0  0  0
    9.1775  -14.9251   22.5039 C   0  0  2  0  0  0  0  0  0  0  0  0
    8.4425  -15.8800   21.7393 N   0  0  0  0  0  0  0  0  0  0  0  0
   10.0413  -15.5082   23.5401 C   0  0  0  0  0  0  0  0  0  0  0  0
   10.8423  -14.7685   24.1656 O   0  0  0  0  0  0  0  0  0  0  0  0
   10.0524  -16.8802   23.9109 N   0  0  0  0  0  0  0  0  0  0  0  0
   10.9053  -17.4072   24.9832 C   0  0  1  0  0  0  0  0  0  0  0  0
   10.0607  -17.9598   26.0895 C   0  0  0  0  0  0  0  0  0  0  0  0
    9.1258  -16.9815   26.6496 C   0  0  0  0  0  0  0  0  0  0  0  0
    7.7456  -16.9297   26.3916 C   0  0  0  0  0  0  0  0  0  0  0  0
    7.2079  -15.8827   27.0357 N   0  0  0  0  0  0  0  0  0  0  0  0
    8.1647  -15.2319   27.7139 C   0  0  0  0  0  0  0  0  0  0  0  0
    8.1556  -14.1194   28.5433 C   0  0  0  0  0  0  0  0  0  0  0  0
    9.3006  -13.6737   29.1388 C   0  0  0  0  0  0  0  0  0  0  0  0
   10.4944  -14.3417   28.9127 C   0  0  0  0  0  0  0  0  0  0  0  0
   10.4845  -15.4286   28.0967 C   0  0  0  0  0  0  0  0  0  0  0  0
    9.3625  -15.9106   27.4784 C   0  0  0  0  0  0  0  0  0  0  0  0
   11.9166  -18.3287   24.4833 C   0  0  0  0  0  0  0  0  0  0  0  0
   11.9371  -18.7217   23.1293 O   0  0  0  0  0  0  0  0  0  0  0  0
   12.8177  -18.8280   25.1926 O   0  0  0  0  0  0  0  0  0  0  0  0
  1  2  1  0
  3  2  1  0
  4  3  1  0
  5  6  1  1
  5  4  1  0
  5  1  1  0
  6  7  2  0
  9  8  1  0
 10 11  1  0
 10  9  1  0
 12 11  1  1
 12 14  1  0
 13 12  1  0
 13  6  1  0
 14 15  2  0
 14 16  1  0
 16 17  1  0
 17 28  1  0
 17 18  1  1
 19 18  1  0
 20 19  2  0
 21 20  1  0
 22 21  1  0
 22 27  2  0
 23 22  1  0
 24 23  2  0
 24 25  1  0
 25 26  2  0
 26 27  1  0
 27 19  1  0
 28 30  2  0
 28 29  1  0
M  END
$$$$
