PMW.pdb
     RDKit          3D

 30 32  0  0  1  0  0  0  0  0999 V2000
    8.9987  -14.7124   18.4351 N   0  0  0  0  0  0  0  0  0  0  0  0
    9.0778  -13.6329   17.4622 C   0  0  0  0  0  0  0  0  0  0  0  0
    7.7983  -12.8695   17.8138 C   0  0  0  0  0  0  0  0  0  0  0  0
    7.5888  -13.1220   19.2931 C   0  0  0  0  0  0  0  0  0  0  0  0
    8.7696  -13.9578   19.6529 C   0  0  1  0  0  0  0  0  0  0  0  0
    8.5774  -14.8196   20.8260 C   0  0  0  0  0  0  0  0  0  0  0  0
    8.2467  -14.3758   21.9501 O   0  0  0  0  0  0  0  0  0  0  0  0
    9.8981  -20.7349   19.7272 C   0  0  0  0  0  0  0  0  0  0  0  0
    8.1073  -20.6528   19.9829 S   0  0  0  0  0  0  0  0  0  0  0  0
    7.7192  -18.9097   20.4164 C   0  0  0  0  0  0  0  0  0  0  0  0
    8.7375  -18.4870   21.4133 C   0  0  0  0  0  0  0  0  0  0  0  0
    8.6256  -17.0673   21.8944 C   0  0  2  0  0  0  0  0  0  0  0  0
    8.7573  -16.2210   20.7529 N   0  0  0  0  0  0  0  0  0  0  0  0
    9.5244  -16.7333   23.0081 C   0  0  0  0  0  0  0  0  0  0  0  0
   10.7330  -16.4800   22.7729 O   0  0  0  0  0  0  0  0  0  0  0  0
    9.1363  -16.6688   24.3739 N   0  0  0  0  0  0  0  0  0  0  0  0
   10.0811  -16.3647   25.4555 C   0  0  1  0  0  0  0  0  0  0  0  0
    9.8090  -15.0004   26.0096 C   0  0  0  0  0  0  0  0  0  0  0  0
    8.3829  -14.6737   26.0725 C   0  0  0  0  0  0  0  0  0  0  0  0
    7.3275  -15.5848   25.8981 C   0  0  0  0  0  0  0  0  0  0  0  0
    6.1563  -14.9353   25.9791 N   0  0  0  0  0  0  0  0  0  0  0  0
    6.3792  -13.6313   26.2006 C   0  0  0  0  0  0  0  0  0  0  0  0
    5.5426  -12.5392   26.3821 C   0  0  0  0  0  0  0  0  0  0  0  0
    6.0492  -11.2941   26.6212 C   0  0  0  0  0  0  0  0  0  0  0  0
    7.4227  -11.1145   26.6840 C   0  0  0  0  0  0  0  0  0  0  0  0
    8.2267  -12.1953   26.5028 C   0  0  0  0  0  0  0  0  0  0  0  0
    7.7641  -13.4606   26.2602 C   0  0  0  0  0  0  0  0  0  0  0  0
   10.1322  -17.4201   26.4583 C   0  0  0  0  0  0  0  0  0  0  0  0
   11.0956  -17.3996   27.4876 O   0  0  0  0  0  0  0  0  0  0  0  0
    9.3508  -18.3964   26.4845 O   0  0  0  0  0  0  0  0  0  0  0  0
  1  2  1  0
  3  2  1  0
  4  3  1  0
  5  6  1  1
  5  4  1  0
  5  1  1  0
  6  7  2  0
  9  8  1  0
 10 11  1  0
 10  9  1  0
 12 11  1  6
 12 14  1  0
 13 12  1  0
 13  6  1  0
 14 15  2  0
 14 16  1  0
 16 17  1  0
 17 28  1  0
 17 18  1  1
 19 18  1  0
 20 19  2  0
 21 20  1  0
 22 21  1  0
 22 27  2  0
 23 22  1  0
 24 23  2  0
 24 25  1  0
 25 26  2  0
 26 27  1  0
 27 19  1  0
 28 30  2  0
 28 29  1  0
M  END
$$$$
