PMW.pdb
     RDKit          3D

 30 32  0  0  1  0  0  0  0  0999 V2000
   11.6736  -18.2225   17.9526 N   0  0  0  0  0  0  0  0  0  0  0  0
   11.9229  -19.4766   17.2576 C   0  0  0  0  0  0  0  0  0  0  0  0
   12.3240  -20.3578   18.4435 C   0  0  0  0  0  0  0  0  0  0  0  0
   11.5695  -19.7851   19.6262 C   0  0  0  0  0  0  0  0  0  0  0  0
   10.7889  -18.6746   19.0099 C   0  0  1  0  0  0  0  0  0  0  0  0
   10.4163  -17.5980   19.9362 C   0  0  0  0  0  0  0  0  0  0  0  0
   11.1063  -16.5637   20.0908 O   0  0  0  0  0  0  0  0  0  0  0  0
    6.9516  -12.2943   22.2254 C   0  0  0  0  0  0  0  0  0  0  0  0
    7.6754  -13.7656   21.4569 S   0  0  0  0  0  0  0  0  0  0  0  0
    6.9453  -15.2176   22.3144 C   0  0  0  0  0  0  0  0  0  0  0  0
    7.4369  -16.4222   21.5956 C   0  0  0  0  0  0  0  0  0  0  0  0
    8.9141  -16.6815   21.6967 C   0  0  2  0  0  0  0  0  0  0  0  0
    9.2395  -17.6683   20.7184 N   0  0  0  0  0  0  0  0  0  0  0  0
    9.3825  -16.9913   23.0547 C   0  0  0  0  0  0  0  0  0  0  0  0
    9.4721  -18.1910   23.4193 O   0  0  0  0  0  0  0  0  0  0  0  0
    9.7561  -16.0231   24.0258 N   0  0  0  0  0  0  0  0  0  0  0  0
   10.2772  -16.3847   25.3498 C   0  0  1  0  0  0  0  0  0  0  0  0
    9.9363  -15.3205   26.3466 C   0  0  0  0  0  0  0  0  0  0  0  0
    8.5346  -14.9004   26.2900 C   0  0  0  0  0  0  0  0  0  0  0  0
    7.4329  -15.7530   26.1069 C   0  0  0  0  0  0  0  0  0  0  0  0
    6.3057  -15.0264   26.0636 N   0  0  0  0  0  0  0  0  0  0  0  0
    6.6023  -13.7266   26.2103 C   0  0  0  0  0  0  0  0  0  0  0  0
    5.8321  -12.5734   26.2597 C   0  0  0  0  0  0  0  0  0  0  0  0
    6.4061  -11.3488   26.4472 C   0  0  0  0  0  0  0  0  0  0  0  0
    7.7818  -11.2525   26.5908 C   0  0  0  0  0  0  0  0  0  0  0  0
    8.5203  -12.3924   26.5387 C   0  0  0  0  0  0  0  0  0  0  0  0
    7.9891  -13.6401   26.3521 C   0  0  0  0  0  0  0  0  0  0  0  0
    9.8852  -17.7293   25.7501 C   0  0  0  0  0  0  0  0  0  0  0  0
    8.9783  -18.4832   24.9773 O   0  0  0  0  0  0  0  0  0  0  0  0
   10.3083  -18.3028   26.7780 O   0  0  0  0  0  0  0  0  0  0  0  0
  1  2  1  0
  3  2  1  0
  4  3  1  0
  5  6  1  1
  5  4  1  0
  5  1  1  0
  6  7  2  0
  9  8  1  0
 10 11  1  0
 10  9  1  0
 12 11  1  1
 12 14  1  0
 13 12  1  0
 13  6  1  0
 14 15  2  0
 14 16  1  0
 16 17  1  0
 17 28  1  0
 17 18  1  1
 19 18  1  0
 20 19  2  0
 21 20  1  0
 22 21  1  0
 22 27  2  0
 23 22  1  0
 24 23  2  0
 24 25  1  0
 25 26  2  0
 26 27  1  0
 27 19  1  0
 28 30  2  0
 28 29  1  0
M  END
$$$$
