FVN.pdb
     RDKit          3D

 27 27  0  0  1  0  0  0  0  0999 V2000
   41.1344  -32.5823    0.0465 N   0  0  0  0  0  0  0  0  0  0  0  0
   39.7085  -32.3312    0.1072 C   0  0  1  0  0  0  0  0  0  0  0  0
   39.1051  -32.7869   -1.2087 C   0  0  0  0  0  0  0  0  0  0  0  0
   37.6361  -32.7427   -1.1494 C   0  0  0  0  0  0  0  0  0  0  0  0
   36.8908  -33.8991   -1.3229 C   0  0  0  0  0  0  0  0  0  0  0  0
   35.5163  -33.8306   -1.2614 C   0  0  0  0  0  0  0  0  0  0  0  0
   34.8889  -32.6278   -1.0302 C   0  0  0  0  0  0  0  0  0  0  0  0
   35.6483  -31.4840   -0.8595 C   0  0  0  0  0  0  0  0  0  0  0  0
   37.0260  -31.5071   -0.9134 C   0  0  0  0  0  0  0  0  0  0  0  0
   39.1002  -33.0833    1.2489 C   0  0  0  0  0  0  0  0  0  0  0  0
   39.3709  -34.2943    1.4111 O   0  0  0  0  0  0  0  0  0  0  0  0
   39.1770  -32.4029    5.0219 C   0  0  0  0  0  0  0  0  0  0  0  0
   37.7620  -32.4638    4.5190 C   0  0  1  0  0  0  0  0  0  0  0  0
   37.0992  -31.1231    4.4297 C   0  0  0  0  0  0  0  0  0  0  0  0
   37.6444  -33.2467    3.2286 C   0  0  2  0  0  0  0  0  0  0  0  0
   38.2131  -32.4708    2.1717 N   0  0  0  0  0  0  0  0  0  0  0  0
   36.1679  -33.4517    3.0047 C   0  0  0  0  0  0  0  0  0  0  0  0
   35.4618  -32.5800    2.4225 O   0  0  0  0  0  0  0  0  0  0  0  0
   31.6786  -36.5493    1.2524 N   0  0  0  0  0  0  0  0  0  0  0  0
   32.4239  -36.4802    2.4455 C   0  0  0  0  0  0  0  0  0  0  0  0
   31.8005  -36.7128    3.5216 O   0  0  0  0  0  0  0  0  0  0  0  0
   33.8650  -36.1539    2.4673 C   0  0  0  0  0  0  0  0  0  0  0  0
   34.0892  -34.8725    3.1897 C   0  0  2  0  0  0  0  0  0  0  0  0
   35.5080  -34.6247    3.4343 N   0  0  0  0  0  0  0  0  0  0  0  0
   33.3960  -34.8846    4.4916 C   0  0  0  0  0  0  0  0  0  0  0  0
   32.0705  -34.5851    4.6604 O   0  0  0  0  0  0  0  0  0  0  0  0
   34.0605  -35.1909    5.5408 O   0  0  0  0  0  0  0  0  0  0  0  0
  2  1  1  6
  2 10  1  0
  2  3  1  0
  3  4  1  0
  4  9  2  0
  4  5  1  0
  5  6  2  0
  6  7  1  0
  8  7  2  0
  9  8  1  0
 10 11  2  0
 13 12  1  6
 13 15  1  0
 14 13  1  0
 15 17  1  0
 16 10  1  0
 15 16  1  6
 17 24  1  0
 17 18  2  0
 19 20  1  0
 20 22  1  0
 21 20  2  0
 23 22  1  1
 23 25  1  0
 24 23  1  0
 25 27  2  0
 25 26  1  0
M  END
$$$$
