FVN.pdb
     RDKit          3D

 27 27  0  0  1  0  0  0  0  0999 V2000
   28.4486  -21.2331  -10.6636 N   0  0  0  0  0  0  0  0  0  0  0  0
   27.0287  -20.9483  -10.7184 C   0  0  1  0  0  0  0  0  0  0  0  0
   26.7854  -19.6716   -9.9348 C   0  0  0  0  0  0  0  0  0  0  0  0
   27.0643  -19.8781   -8.5055 C   0  0  0  0  0  0  0  0  0  0  0  0
   28.0404  -19.1301   -7.8649 C   0  0  0  0  0  0  0  0  0  0  0  0
   28.2811  -19.3422   -6.5252 C   0  0  0  0  0  0  0  0  0  0  0  0
   27.5609  -20.2861   -5.8295 C   0  0  0  0  0  0  0  0  0  0  0  0
   26.5908  -21.0235   -6.4847 C   0  0  0  0  0  0  0  0  0  0  0  0
   26.3174  -20.8438   -7.8243 C   0  0  0  0  0  0  0  0  0  0  0  0
   26.5905  -20.7805  -12.1393 C   0  0  0  0  0  0  0  0  0  0  0  0
   27.2662  -20.0731  -12.9196 O   0  0  0  0  0  0  0  0  0  0  0  0
   24.2738  -23.5009  -13.9286 C   0  0  0  0  0  0  0  0  0  0  0  0
   24.8625  -22.3898  -14.7519 C   0  0  1  0  0  0  0  0  0  0  0  0
   24.1815  -22.1964  -16.0723 C   0  0  0  0  0  0  0  0  0  0  0  0
   24.9771  -21.0967  -13.9729 C   0  0  2  0  0  0  0  0  0  0  0  0
   25.4200  -21.4005  -12.6485 N   0  0  0  0  0  0  0  0  0  0  0  0
   23.5903  -20.5064  -13.9492 C   0  0  0  0  0  0  0  0  0  0  0  0
   22.7541  -20.8223  -13.0556 O   0  0  0  0  0  0  0  0  0  0  0  0
   19.8520  -16.4105  -16.4318 N   0  0  0  0  0  0  0  0  0  0  0  0
   20.4675  -17.0141  -15.3181 C   0  0  0  0  0  0  0  0  0  0  0  0
   19.7924  -17.0610  -14.2491 O   0  0  0  0  0  0  0  0  0  0  0  0
   21.8344  -17.5734  -15.3688 C   0  0  0  0  0  0  0  0  0  0  0  0
   21.8223  -18.9959  -14.9322 C   0  0  2  0  0  0  0  0  0  0  0  0
   23.1633  -19.5754  -14.9222 N   0  0  0  0  0  0  0  0  0  0  0  0
   20.9808  -19.8062  -15.8329 C   0  0  0  0  0  0  0  0  0  0  0  0
   19.6738  -20.1284  -15.5821 O   0  0  0  0  0  0  0  0  0  0  0  0
   21.4887  -20.2452  -16.9217 O   0  0  0  0  0  0  0  0  0  0  0  0
  2  1  1  6
  2 10  1  0
  2  3  1  0
  3  4  1  0
  4  9  2  0
  4  5  1  0
  5  6  2  0
  6  7  1  0
  8  7  2  0
  9  8  1  0
 10 11  2  0
 13 12  1  1
 13 15  1  0
 14 13  1  0
 15 17  1  0
 16 10  1  0
 15 16  1  1
 17 24  1  0
 17 18  2  0
 19 20  1  0
 20 22  1  0
 21 20  2  0
 23 22  1  6
 23 25  1  0
 24 23  1  0
 25 27  2  0
 25 26  1  0
M  END
$$$$
