FVN.pdb
     RDKit          3D

 27 27  0  0  1  0  0  0  0  0999 V2000
   27.8453  -18.7325   -8.4837 N   0  0  0  0  0  0  0  0  0  0  0  0
   27.1114  -19.9808   -8.5389 C   0  0  1  0  0  0  0  0  0  0  0  0
   26.5797  -20.2635   -7.1458 C   0  0  0  0  0  0  0  0  0  0  0  0
   27.6670  -20.2199   -6.1561 C   0  0  0  0  0  0  0  0  0  0  0  0
   27.4125  -20.4920   -4.8205 C   0  0  0  0  0  0  0  0  0  0  0  0
   28.4489  -20.4457   -3.9140 C   0  0  0  0  0  0  0  0  0  0  0  0
   29.7232  -20.1329   -4.3289 C   0  0  0  0  0  0  0  0  0  0  0  0
   29.9588  -19.8642   -5.6654 C   0  0  0  0  0  0  0  0  0  0  0  0
   28.9512  -19.8991   -6.6061 C   0  0  0  0  0  0  0  0  0  0  0  0
   25.9834  -19.8734   -9.5164 C   0  0  0  0  0  0  0  0  0  0  0  0
   25.2469  -18.8618   -9.5082 O   0  0  0  0  0  0  0  0  0  0  0  0
   27.1190  -20.9423  -13.0665 C   0  0  0  0  0  0  0  0  0  0  0  0
   25.6941  -21.3487  -12.8146 C   0  0  1  0  0  0  0  0  0  0  0  0
   25.5154  -22.8246  -12.6286 C   0  0  0  0  0  0  0  0  0  0  0  0
   25.0586  -20.5504  -11.6962 C   0  0  2  0  0  0  0  0  0  0  0  0
   25.7084  -20.8885  -10.4690 N   0  0  0  0  0  0  0  0  0  0  0  0
   23.6102  -20.9668  -11.6650 C   0  0  0  0  0  0  0  0  0  0  0  0
   23.2237  -21.9592  -10.9843 O   0  0  0  0  0  0  0  0  0  0  0  0
   17.9499  -19.3325  -13.2446 N   0  0  0  0  0  0  0  0  0  0  0  0
   18.9185  -19.7512  -12.3117 C   0  0  0  0  0  0  0  0  0  0  0  0
   18.5138  -20.4723  -11.3542 O   0  0  0  0  0  0  0  0  0  0  0  0
   20.3446  -19.3803  -12.4227 C   0  0  0  0  0  0  0  0  0  0  0  0
   21.1993  -20.5936  -12.3146 C   0  0  2  0  0  0  0  0  0  0  0  0
   22.6214  -20.2684  -12.3932 N   0  0  0  0  0  0  0  0  0  0  0  0
   20.8871  -21.5443  -13.3983 C   0  0  0  0  0  0  0  0  0  0  0  0
   19.8729  -22.4631  -13.3475 O   0  0  0  0  0  0  0  0  0  0  0  0
   21.5998  -21.5241  -14.4603 O   0  0  0  0  0  0  0  0  0  0  0  0
  2  1  1  1
  2 10  1  0
  2  3  1  0
  3  4  1  0
  4  9  2  0
  4  5  1  0
  5  6  2  0
  6  7  1  0
  8  7  2  0
  9  8  1  0
 10 11  2  0
 13 12  1  1
 13 15  1  0
 14 13  1  0
 15 17  1  0
 16 10  1  0
 15 16  1  1
 17 24  1  0
 17 18  2  0
 19 20  1  0
 20 22  1  0
 21 20  2  0
 23 22  1  6
 23 25  1  0
 24 23  1  0
 25 27  2  0
 25 26  1  0
M  END
$$$$
