FVN.pdb
     RDKit          3D

 27 27  0  0  1  0  0  0  0  0999 V2000
   27.9964  -19.9232  -15.8473 N   0  0  0  0  0  0  0  0  0  0  0  0
   27.1320  -19.2926  -14.8700 C   0  0  1  0  0  0  0  0  0  0  0  0
   26.2041  -18.3517  -15.6161 C   0  0  0  0  0  0  0  0  0  0  0  0
   26.9345  -17.1633  -16.0826 C   0  0  0  0  0  0  0  0  0  0  0  0
   27.4075  -17.0955  -17.3843 C   0  0  0  0  0  0  0  0  0  0  0  0
   28.0875  -15.9705  -17.7965 C   0  0  0  0  0  0  0  0  0  0  0  0
   28.2953  -14.9249  -16.9263 C   0  0  0  0  0  0  0  0  0  0  0  0
   27.8164  -15.0096  -15.6312 C   0  0  0  0  0  0  0  0  0  0  0  0
   27.1310  -16.1166  -15.1769 C   0  0  0  0  0  0  0  0  0  0  0  0
   26.3430  -20.3292  -14.1338 C   0  0  0  0  0  0  0  0  0  0  0  0
   25.8021  -21.2644  -14.7653 O   0  0  0  0  0  0  0  0  0  0  0  0
   27.0205  -21.4837  -10.3557 C   0  0  0  0  0  0  0  0  0  0  0  0
   25.5604  -21.2448  -10.6196 C   0  0  1  0  0  0  0  0  0  0  0  0
   24.9998  -20.0735   -9.8722 C   0  0  0  0  0  0  0  0  0  0  0  0
   25.2473  -21.1815  -12.0995 C   0  0  2  0  0  0  0  0  0  0  0  0
   26.1788  -20.2961  -12.7247 N   0  0  0  0  0  0  0  0  0  0  0  0
   23.8449  -20.6382  -12.2005 C   0  0  0  0  0  0  0  0  0  0  0  0
   23.5454  -19.4970  -11.7471 O   0  0  0  0  0  0  0  0  0  0  0  0
   19.0414  -20.4032  -15.6720 N   0  0  0  0  0  0  0  0  0  0  0  0
   19.9355  -19.9090  -14.7023 C   0  0  0  0  0  0  0  0  0  0  0  0
   19.5349  -18.9354  -14.0007 O   0  0  0  0  0  0  0  0  0  0  0  0
   21.2817  -20.4818  -14.4941 C   0  0  0  0  0  0  0  0  0  0  0  0
   21.4776  -20.8210  -13.0585 C   0  0  2  0  0  0  0  0  0  0  0  0
   22.8042  -21.3779  -12.8052 N   0  0  0  0  0  0  0  0  0  0  0  0
   20.4751  -21.8098  -12.6193 C   0  0  0  0  0  0  0  0  0  0  0  0
   19.1664  -21.5108  -12.3490 O   0  0  0  0  0  0  0  0  0  0  0  0
   20.8340  -23.0291  -12.4752 O   0  0  0  0  0  0  0  0  0  0  0  0
  2  1  1  6
  2 10  1  0
  2  3  1  0
  3  4  1  0
  4  9  2  0
  4  5  1  0
  5  6  2  0
  6  7  1  0
  8  7  2  0
  9  8  1  0
 10 11  2  0
 13 12  1  6
 13 15  1  0
 14 13  1  0
 15 17  1  0
 16 10  1  0
 15 16  1  6
 17 24  1  0
 17 18  2  0
 19 20  1  0
 20 22  1  0
 21 20  2  0
 23 22  1  6
 23 25  1  0
 24 23  1  0
 25 27  2  0
 25 26  1  0
M  END
$$$$
