FVN.pdb
     RDKit          3D

 27 27  0  0  1  0  0  0  0  0999 V2000
   21.7180  -12.7864  -18.7065 N   0  0  0  0  0  0  0  0  0  0  0  0
   22.0402  -11.3736  -18.7179 C   0  0  1  0  0  0  0  0  0  0  0  0
   21.5864  -10.8093  -20.0516 C   0  0  0  0  0  0  0  0  0  0  0  0
   22.4004  -11.3527  -21.1495 C   0  0  0  0  0  0  0  0  0  0  0  0
   23.7409  -11.0166  -21.2632 C   0  0  0  0  0  0  0  0  0  0  0  0
   24.4814  -11.5404  -22.3001 C   0  0  0  0  0  0  0  0  0  0  0  0
   23.8977  -12.3881  -23.2136 C   0  0  0  0  0  0  0  0  0  0  0  0
   22.5590  -12.7125  -23.0849 C   0  0  0  0  0  0  0  0  0  0  0  0
   21.7809  -12.2111  -22.0628 C   0  0  0  0  0  0  0  0  0  0  0  0
   21.3438  -10.6764  -17.5917 C   0  0  0  0  0  0  0  0  0  0  0  0
   20.1483  -10.9451  -17.3376 O   0  0  0  0  0  0  0  0  0  0  0  0
   22.3492  -10.5439  -13.9480 C   0  0  0  0  0  0  0  0  0  0  0  0
   22.1676   -9.1457  -14.4683 C   0  0  1  0  0  0  0  0  0  0  0  0
   23.4563   -8.4076  -14.6667 C   0  0  0  0  0  0  0  0  0  0  0  0
   21.2878   -9.1010  -15.6996 C   0  0  2  0  0  0  0  0  0  0  0  0
   21.9931   -9.7057  -16.7856 N   0  0  0  0  0  0  0  0  0  0  0  0
   21.0377   -7.6400  -15.9737 C   0  0  0  0  0  0  0  0  0  0  0  0
   21.8704   -6.9370  -16.6139 O   0  0  0  0  0  0  0  0  0  0  0  0
   19.0515   -3.1693  -17.9996 N   0  0  0  0  0  0  0  0  0  0  0  0
   18.3030   -4.0046  -17.1478 C   0  0  0  0  0  0  0  0  0  0  0  0
   17.3224   -3.4760  -16.5481 O   0  0  0  0  0  0  0  0  0  0  0  0
   18.6259   -5.4325  -16.9465 C   0  0  0  0  0  0  0  0  0  0  0  0
   19.5762   -5.5878  -15.8120 C   0  0  2  0  0  0  0  0  0  0  0  0
   19.8638   -6.9919  -15.5289 N   0  0  0  0  0  0  0  0  0  0  0  0
   19.0238   -4.9783  -14.5876 C   0  0  0  0  0  0  0  0  0  0  0  0
   19.1217   -3.6479  -14.2786 O   0  0  0  0  0  0  0  0  0  0  0  0
   18.4122   -5.7259  -13.7489 O   0  0  0  0  0  0  0  0  0  0  0  0
  2  1  1  6
  2 10  1  0
  2  3  1  0
  3  4  1  0
  4  9  2  0
  4  5  1  0
  5  6  2  0
  6  7  1  0
  8  7  2  0
  9  8  1  0
 10 11  2  0
 13 12  1  6
 13 15  1  0
 14 13  1  0
 15 17  1  0
 16 10  1  0
 15 16  1  6
 17 24  1  0
 17 18  2  0
 19 20  1  0
 20 22  1  0
 21 20  2  0
 23 22  1  6
 23 25  1  0
 24 23  1  0
 25 27  2  0
 25 26  1  0
M  END
$$$$
