FVN.pdb
     RDKit          3D

 27 27  0  0  1  0  0  0  0  0999 V2000
   22.4913  -20.5226  -13.4566 N   0  0  0  0  0  0  0  0  0  0  0  0
   21.3565  -20.2973  -12.5840 C   0  0  1  0  0  0  0  0  0  0  0  0
   20.0987  -20.4223  -13.4240 C   0  0  0  0  0  0  0  0  0  0  0  0
   20.0098  -19.3198  -14.3934 C   0  0  0  0  0  0  0  0  0  0  0  0
   20.1562  -19.5639  -15.7505 C   0  0  0  0  0  0  0  0  0  0  0  0
   20.0671  -18.5137  -16.6377 C   0  0  0  0  0  0  0  0  0  0  0  0
   19.8353  -17.2359  -16.1826 C   0  0  0  0  0  0  0  0  0  0  0  0
   19.6919  -17.0106  -14.8252 C   0  0  0  0  0  0  0  0  0  0  0  0
   19.7738  -18.0321  -13.9026 C   0  0  0  0  0  0  0  0  0  0  0  0
   21.3480  -21.3051  -11.4779 C   0  0  0  0  0  0  0  0  0  0  0  0
   21.6076  -22.5039  -11.7261 O   0  0  0  0  0  0  0  0  0  0  0  0
   23.3371  -21.1237   -8.1883 C   0  0  0  0  0  0  0  0  0  0  0  0
   21.8723  -21.3290   -7.9218 C   0  0  1  0  0  0  0  0  0  0  0  0
   21.1787  -20.1041   -7.4087 C   0  0  0  0  0  0  0  0  0  0  0  0
   21.1533  -21.9393   -9.1061 C   0  0  2  0  0  0  0  0  0  0  0  0
   21.0524  -20.9530  -10.1354 N   0  0  0  0  0  0  0  0  0  0  0  0
   19.7863  -22.3265   -8.6027 C   0  0  0  0  0  0  0  0  0  0  0  0
   18.8141  -21.5201   -8.6474 O   0  0  0  0  0  0  0  0  0  0  0  0
   18.6266  -26.6748   -9.8944 N   0  0  0  0  0  0  0  0  0  0  0  0
   17.8926  -25.6427   -9.2780 C   0  0  0  0  0  0  0  0  0  0  0  0
   17.2051  -24.9000  -10.0372 O   0  0  0  0  0  0  0  0  0  0  0  0
   17.9074  -25.4167   -7.8178 C   0  0  0  0  0  0  0  0  0  0  0  0
   18.2281  -23.9939   -7.5229 C   0  0  2  0  0  0  0  0  0  0  0  0
   19.5302  -23.6053   -8.0595 N   0  0  0  0  0  0  0  0  0  0  0  0
   18.2449  -23.7586   -6.0669 C   0  0  0  0  0  0  0  0  0  0  0  0
   17.1210  -23.6458   -5.2927 O   0  0  0  0  0  0  0  0  0  0  0  0
   19.3726  -23.6490   -5.4732 O   0  0  0  0  0  0  0  0  0  0  0  0
  2  1  1  6
  2 10  1  0
  2  3  1  0
  3  4  1  0
  4  9  2  0
  4  5  1  0
  5  6  2  0
  6  7  1  0
  8  7  2  0
  9  8  1  0
 10 11  2  0
 13 12  1  6
 13 15  1  0
 14 13  1  0
 15 17  1  0
 16 10  1  0
 15 16  1  6
 17 24  1  0
 17 18  2  0
 19 20  1  0
 20 22  1  0
 21 20  2  0
 23 22  1  1
 23 25  1  0
 24 23  1  0
 25 27  2  0
 25 26  1  0
M  END
$$$$
