FVN.pdb
     RDKit          3D

 27 27  0  0  1  0  0  0  0  0999 V2000
   23.6738  -20.3908  -14.7047 N   0  0  0  0  0  0  0  0  0  0  0  0
   23.0379  -19.3734  -15.5175 C   0  0  1  0  0  0  0  0  0  0  0  0
   21.5387  -19.5980  -15.4454 C   0  0  0  0  0  0  0  0  0  0  0  0
   20.9100  -19.3292  -16.7476 C   0  0  0  0  0  0  0  0  0  0  0  0
   20.2349  -18.1385  -16.9694 C   0  0  0  0  0  0  0  0  0  0  0  0
   19.6560  -17.9109  -18.1986 C   0  0  0  0  0  0  0  0  0  0  0  0
   19.7464  -18.8546  -19.1961 C   0  0  0  0  0  0  0  0  0  0  0  0
   20.4238  -20.0370  -18.9572 C   0  0  0  0  0  0  0  0  0  0  0  0
   21.0177  -20.3059  -17.7421 C   0  0  0  0  0  0  0  0  0  0  0  0
   23.3871  -18.0113  -15.0057 C   0  0  0  0  0  0  0  0  0  0  0  0
   23.2142  -17.7374  -13.7969 O   0  0  0  0  0  0  0  0  0  0  0  0
   26.4341  -16.0917  -14.5132 C   0  0  0  0  0  0  0  0  0  0  0  0
   25.5677  -15.3149  -15.4644 C   0  0  1  0  0  0  0  0  0  0  0  0
   26.0402  -15.3678  -16.8853 C   0  0  0  0  0  0  0  0  0  0  0  0
   24.1038  -15.6783  -15.3350 C   0  0  2  0  0  0  0  0  0  0  0  0
   23.9151  -16.9987  -15.8480 N   0  0  0  0  0  0  0  0  0  0  0  0
   23.3544  -14.6702  -16.1683 C   0  0  0  0  0  0  0  0  0  0  0  0
   23.0960  -14.8834  -17.3870 O   0  0  0  0  0  0  0  0  0  0  0  0
   19.4991  -10.4283  -16.4750 N   0  0  0  0  0  0  0  0  0  0  0  0
   20.9014  -10.3742  -16.3555 C   0  0  0  0  0  0  0  0  0  0  0  0
   21.4921   -9.4490  -16.9846 O   0  0  0  0  0  0  0  0  0  0  0  0
   21.6698  -11.3388  -15.5413 C   0  0  0  0  0  0  0  0  0  0  0  0
   22.0965  -12.4915  -16.3800 C   0  0  2  0  0  0  0  0  0  0  0  0
   22.9077  -13.4444  -15.6262 N   0  0  0  0  0  0  0  0  0  0  0  0
   22.8907  -12.0263  -17.5327 C   0  0  0  0  0  0  0  0  0  0  0  0
   24.2588  -11.9711  -17.5526 O   0  0  0  0  0  0  0  0  0  0  0  0
   22.2786  -11.6452  -18.5893 O   0  0  0  0  0  0  0  0  0  0  0  0
  2  1  1  1
  2 10  1  0
  2  3  1  0
  3  4  1  0
  4  9  2  0
  4  5  1  0
  5  6  2  0
  6  7  1  0
  8  7  2  0
  9  8  1  0
 10 11  2  0
 13 12  1  1
 13 15  1  0
 14 13  1  0
 15 17  1  0
 16 10  1  0
 15 16  1  6
 17 24  1  0
 17 18  2  0
 19 20  1  0
 20 22  1  0
 21 20  2  0
 23 22  1  1
 23 25  1  0
 24 23  1  0
 25 27  2  0
 25 26  1  0
M  END
$$$$
