FVN.pdb
     RDKit          3D

 27 27  0  0  1  0  0  0  0  0999 V2000
   22.3632  -14.2216  -19.3370 N   0  0  0  0  0  0  0  0  0  0  0  0
   21.4014  -13.1424  -19.2353 C   0  0  1  0  0  0  0  0  0  0  0  0
   20.0883  -13.7398  -18.7638 C   0  0  0  0  0  0  0  0  0  0  0  0
   19.5108  -14.6085  -19.8006 C   0  0  0  0  0  0  0  0  0  0  0  0
   19.4533  -15.9815  -19.6149 C   0  0  0  0  0  0  0  0  0  0  0  0
   18.9062  -16.7727  -20.6011 C   0  0  0  0  0  0  0  0  0  0  0  0
   18.4216  -16.2072  -21.7583 C   0  0  0  0  0  0  0  0  0  0  0  0
   18.4871  -14.8356  -21.9268 C   0  0  0  0  0  0  0  0  0  0  0  0
   19.0265  -14.0066  -20.9658 C   0  0  0  0  0  0  0  0  0  0  0  0
   21.8840  -12.1107  -18.2649 C   0  0  0  0  0  0  0  0  0  0  0  0
   22.5560  -12.4595  -17.2686 O   0  0  0  0  0  0  0  0  0  0  0  0
   24.1239   -9.2803  -19.0542 C   0  0  0  0  0  0  0  0  0  0  0  0
   22.9126   -8.7279  -18.3568 C   0  0  1  0  0  0  0  0  0  0  0  0
   21.9828   -7.9857  -19.2675 C   0  0  0  0  0  0  0  0  0  0  0  0
   22.1930   -9.7782  -17.5375 C   0  0  2  0  0  0  0  0  0  0  0  0
   21.6068  -10.7287  -18.4292 N   0  0  0  0  0  0  0  0  0  0  0  0
   21.1270   -9.0407  -16.7682 C   0  0  0  0  0  0  0  0  0  0  0  0
   20.0722   -8.6303  -17.3307 O   0  0  0  0  0  0  0  0  0  0  0  0
   18.2158   -6.9700  -13.0885 N   0  0  0  0  0  0  0  0  0  0  0  0
   18.7785   -8.1850  -12.6516 C   0  0  0  0  0  0  0  0  0  0  0  0
   18.2851   -8.6986  -11.6059 O   0  0  0  0  0  0  0  0  0  0  0  0
   19.8915   -8.8488  -13.3617 C   0  0  0  0  0  0  0  0  0  0  0  0
   20.2230   -8.1025  -14.6056 C   0  0  2  0  0  0  0  0  0  0  0  0
   21.2580   -8.7756  -15.3867 N   0  0  0  0  0  0  0  0  0  0  0  0
   20.7038   -6.7460  -14.2822 C   0  0  0  0  0  0  0  0  0  0  0  0
   22.0006   -6.3329  -14.4334 O   0  0  0  0  0  0  0  0  0  0  0  0
   19.8700   -5.8883  -13.8292 O   0  0  0  0  0  0  0  0  0  0  0  0
  2  1  1  1
  2 10  1  0
  2  3  1  0
  3  4  1  0
  4  9  2  0
  4  5  1  0
  5  6  2  0
  6  7  1  0
  8  7  2  0
  9  8  1  0
 10 11  2  0
 13 12  1  6
 13 15  1  0
 14 13  1  0
 15 17  1  0
 16 10  1  0
 15 16  1  6
 17 24  1  0
 17 18  2  0
 19 20  1  0
 20 22  1  0
 21 20  2  0
 23 22  1  1
 23 25  1  0
 24 23  1  0
 25 27  2  0
 25 26  1  0
M  END
$$$$
