FVN.pdb
     RDKit          3D

 27 27  0  0  1  0  0  0  0  0999 V2000
   28.2696  -20.8258   -8.8071 N   0  0  0  0  0  0  0  0  0  0  0  0
   26.8477  -20.5945   -8.6499 C   0  0  1  0  0  0  0  0  0  0  0  0
   26.6745  -19.4245   -7.6990 C   0  0  0  0  0  0  0  0  0  0  0  0
   27.3371  -19.6967   -6.4144 C   0  0  0  0  0  0  0  0  0  0  0  0
   28.5114  -19.0412   -6.0768 C   0  0  0  0  0  0  0  0  0  0  0  0
   29.1113  -19.3133   -4.8668 C   0  0  0  0  0  0  0  0  0  0  0  0
   28.5516  -20.2258   -4.0020 C   0  0  0  0  0  0  0  0  0  0  0  0
   27.3796  -20.8706   -4.3552 C   0  0  0  0  0  0  0  0  0  0  0  0
   26.7461  -20.6285   -5.5559 C   0  0  0  0  0  0  0  0  0  0  0  0
   26.2254  -20.2865   -9.9755 C   0  0  0  0  0  0  0  0  0  0  0  0
   26.5628  -19.2539  -10.5966 O   0  0  0  0  0  0  0  0  0  0  0  0
   26.6568  -21.5079  -13.1318 C   0  0  0  0  0  0  0  0  0  0  0  0
   25.1841  -21.6886  -12.8920 C   0  0  1  0  0  0  0  0  0  0  0  0
   24.7857  -23.1133  -12.6546 C   0  0  0  0  0  0  0  0  0  0  0  0
   24.6596  -20.7615  -11.8161 C   0  0  2  0  0  0  0  0  0  0  0  0
   25.2511  -21.1307  -10.5686 N   0  0  0  0  0  0  0  0  0  0  0  0
   23.1676  -20.9731  -11.7823 C   0  0  0  0  0  0  0  0  0  0  0  0
   22.5816  -21.3732  -10.7363 O   0  0  0  0  0  0  0  0  0  0  0  0
   18.5880  -18.9038  -12.4541 N   0  0  0  0  0  0  0  0  0  0  0  0
   19.6663  -18.1391  -12.9400 C   0  0  0  0  0  0  0  0  0  0  0  0
   19.4242  -16.9316  -13.2300 O   0  0  0  0  0  0  0  0  0  0  0  0
   21.0243  -18.6956  -13.1121 C   0  0  0  0  0  0  0  0  0  0  0  0
   21.0194  -20.1560  -12.8271 C   0  0  2  0  0  0  0  0  0  0  0  0
   22.3582  -20.7340  -12.9153 N   0  0  0  0  0  0  0  0  0  0  0  0
   20.1506  -20.8667  -13.7842 C   0  0  0  0  0  0  0  0  0  0  0  0
   19.0416  -21.5870  -13.4285 O   0  0  0  0  0  0  0  0  0  0  0  0
   20.4373  -20.8189  -15.0298 O   0  0  0  0  0  0  0  0  0  0  0  0
  2  1  1  6
  2 10  1  0
  2  3  1  0
  3  4  1  0
  4  9  2  0
  4  5  1  0
  5  6  2  0
  6  7  1  0
  8  7  2  0
  9  8  1  0
 10 11  2  0
 13 12  1  1
 13 15  1  0
 14 13  1  0
 15 17  1  0
 16 10  1  0
 15 16  1  1
 17 24  1  0
 17 18  2  0
 19 20  1  0
 20 22  1  0
 21 20  2  0
 23 22  1  6
 23 25  1  0
 24 23  1  0
 25 27  2  0
 25 26  1  0
M  END
$$$$
