FVN.pdb
     RDKit          3D

 27 27  0  0  1  0  0  0  0  0999 V2000
   21.4820  -13.1366  -17.5589 N   0  0  0  0  0  0  0  0  0  0  0  0
   20.6287  -11.9861  -17.3397 C   0  0  1  0  0  0  0  0  0  0  0  0
   19.8045  -12.2556  -16.0943 C   0  0  0  0  0  0  0  0  0  0  0  0
   18.7658  -13.2609  -16.3662 C   0  0  0  0  0  0  0  0  0  0  0  0
   17.7188  -12.9738  -17.2288 C   0  0  0  0  0  0  0  0  0  0  0  0
   16.7597  -13.9335  -17.4675 C   0  0  0  0  0  0  0  0  0  0  0  0
   16.8393  -15.1641  -16.8568 C   0  0  0  0  0  0  0  0  0  0  0  0
   17.8908  -15.4334  -15.9990 C   0  0  0  0  0  0  0  0  0  0  0  0
   18.8722  -14.5022  -15.7317 C   0  0  0  0  0  0  0  0  0  0  0  0
   21.4592  -10.7544  -17.1599 C   0  0  0  0  0  0  0  0  0  0  0  0
   22.5332  -10.8158  -16.5206 O   0  0  0  0  0  0  0  0  0  0  0  0
   22.9911   -8.7357  -19.8435 C   0  0  0  0  0  0  0  0  0  0  0  0
   22.1865   -7.8125  -18.9723 C   0  0  1  0  0  0  0  0  0  0  0  0
   20.9118   -7.3476  -19.6078 C   0  0  0  0  0  0  0  0  0  0  0  0
   21.9606   -8.3815  -17.5876 C   0  0  2  0  0  0  0  0  0  0  0  0
   21.0735   -9.4970  -17.6927 N   0  0  0  0  0  0  0  0  0  0  0  0
   21.3299   -7.2723  -16.7850 C   0  0  0  0  0  0  0  0  0  0  0  0
   20.0820   -7.0724  -16.8031 O   0  0  0  0  0  0  0  0  0  0  0  0
   20.5908   -3.0530  -13.9075 N   0  0  0  0  0  0  0  0  0  0  0  0
   21.9343   -3.4317  -13.7201 C   0  0  0  0  0  0  0  0  0  0  0  0
   22.6004   -2.7699  -12.8721 O   0  0  0  0  0  0  0  0  0  0  0  0
   22.5601   -4.5442  -14.4647 C   0  0  0  0  0  0  0  0  0  0  0  0
   21.5299   -5.2820  -15.2447 C   0  0  2  0  0  0  0  0  0  0  0  0
   22.1030   -6.4083  -15.9777 N   0  0  0  0  0  0  0  0  0  0  0  0
   20.8791   -4.3860  -16.2191 C   0  0  0  0  0  0  0  0  0  0  0  0
   19.6155   -3.8787  -16.0734 O   0  0  0  0  0  0  0  0  0  0  0  0
   21.5210   -4.0522  -17.2739 O   0  0  0  0  0  0  0  0  0  0  0  0
  2  1  1  1
  2 10  1  0
  2  3  1  0
  3  4  1  0
  4  9  2  0
  4  5  1  0
  5  6  2  0
  6  7  1  0
  8  7  2  0
  9  8  1  0
 10 11  2  0
 13 12  1  6
 13 15  1  0
 14 13  1  0
 15 17  1  0
 16 10  1  0
 15 16  1  6
 17 24  1  0
 17 18  2  0
 19 20  1  0
 20 22  1  0
 21 20  2  0
 23 22  1  6
 23 25  1  0
 24 23  1  0
 25 27  2  0
 25 26  1  0
M  END
$$$$
