FVN.pdb
     RDKit          3D

 27 27  0  0  1  0  0  0  0  0999 V2000
   27.0139  -21.1306  -16.6844 N   0  0  0  0  0  0  0  0  0  0  0  0
   26.0159  -20.3639  -15.9660 C   0  0  1  0  0  0  0  0  0  0  0  0
   25.0111  -19.8514  -16.9813 C   0  0  0  0  0  0  0  0  0  0  0  0
   25.6453  -18.8975  -17.9039 C   0  0  0  0  0  0  0  0  0  0  0  0
   25.7825  -19.2061  -19.2488 C   0  0  0  0  0  0  0  0  0  0  0  0
   26.3790  -18.2945  -20.0920 C   0  0  0  0  0  0  0  0  0  0  0  0
   26.8340  -17.0904  -19.6055 C   0  0  0  0  0  0  0  0  0  0  0  0
   26.6890  -16.7991  -18.2609 C   0  0  0  0  0  0  0  0  0  0  0  0
   26.0982  -17.6822  -17.3819 C   0  0  0  0  0  0  0  0  0  0  0  0
   25.3368  -21.2258  -14.9485 C   0  0  0  0  0  0  0  0  0  0  0  0
   25.1159  -22.4313  -15.2018 O   0  0  0  0  0  0  0  0  0  0  0  0
   26.0889  -21.4934  -11.1375 C   0  0  0  0  0  0  0  0  0  0  0  0
   24.6257  -21.2429  -11.3719 C   0  0  1  0  0  0  0  0  0  0  0  0
   24.1768  -19.8760  -10.9536 C   0  0  0  0  0  0  0  0  0  0  0  0
   24.2062  -21.5737  -12.7885 C   0  0  2  0  0  0  0  0  0  0  0  0
   24.9250  -20.7252  -13.6862 N   0  0  0  0  0  0  0  0  0  0  0  0
   22.7272  -21.2909  -12.8563 C   0  0  0  0  0  0  0  0  0  0  0  0
   22.2840  -20.1091  -12.9238 O   0  0  0  0  0  0  0  0  0  0  0  0
   17.6552  -21.6977  -13.4718 N   0  0  0  0  0  0  0  0  0  0  0  0
   18.1442  -23.0178  -13.4284 C   0  0  0  0  0  0  0  0  0  0  0  0
   17.2963  -23.9452  -13.5754 O   0  0  0  0  0  0  0  0  0  0  0  0
   19.5734  -23.3319  -13.2224 C   0  0  0  0  0  0  0  0  0  0  0  0
   20.3327  -22.0885  -12.9198 C   0  0  2  0  0  0  0  0  0  0  0  0
   21.7715  -22.3313  -12.8478 N   0  0  0  0  0  0  0  0  0  0  0  0
   19.8999  -21.5193  -11.6297 C   0  0  0  0  0  0  0  0  0  0  0  0
   19.0661  -20.4402  -11.5057 O   0  0  0  0  0  0  0  0  0  0  0  0
   20.3219  -22.0546  -10.5473 O   0  0  0  0  0  0  0  0  0  0  0  0
  2  1  1  6
  2 10  1  0
  2  3  1  0
  3  4  1  0
  4  9  2  0
  4  5  1  0
  5  6  2  0
  6  7  1  0
  8  7  2  0
  9  8  1  0
 10 11  2  0
 13 12  1  6
 13 15  1  0
 14 13  1  0
 15 17  1  0
 16 10  1  0
 15 16  1  6
 17 24  1  0
 17 18  2  0
 19 20  1  0
 20 22  1  0
 21 20  2  0
 23 22  1  1
 23 25  1  0
 24 23  1  0
 25 27  2  0
 25 26  1  0
M  END
$$$$
