FVN.pdb
     RDKit          3D

 27 27  0  0  1  0  0  0  0  0999 V2000
   28.4891  -21.0537   -9.1732 N   0  0  0  0  0  0  0  0  0  0  0  0
   27.0807  -20.7260   -9.0771 C   0  0  1  0  0  0  0  0  0  0  0  0
   26.9555  -19.4844   -8.2134 C   0  0  0  0  0  0  0  0  0  0  0  0
   27.4239  -19.7539   -6.8454 C   0  0  0  0  0  0  0  0  0  0  0  0
   26.7764  -20.6892   -6.0526 C   0  0  0  0  0  0  0  0  0  0  0  0
   27.2360  -20.9238   -4.7752 C   0  0  0  0  0  0  0  0  0  0  0  0
   28.3261  -20.2376   -4.2907 C   0  0  0  0  0  0  0  0  0  0  0  0
   28.9598  -19.3078   -5.0956 C   0  0  0  0  0  0  0  0  0  0  0  0
   28.5333  -19.0419   -6.3797 C   0  0  0  0  0  0  0  0  0  0  0  0
   26.5154  -20.4736  -10.4394 C   0  0  0  0  0  0  0  0  0  0  0  0
   26.9974  -19.5673  -11.1551 O   0  0  0  0  0  0  0  0  0  0  0  0
   24.3381  -23.3762  -12.4198 C   0  0  0  0  0  0  0  0  0  0  0  0
   25.0127  -22.2177  -13.0993 C   0  0  1  0  0  0  0  0  0  0  0  0
   24.5560  -22.0012  -14.5097 C   0  0  0  0  0  0  0  0  0  0  0  0
   24.9442  -20.9496  -12.2751 C   0  0  2  0  0  0  0  0  0  0  0  0
   25.4364  -21.2317  -10.9634 N   0  0  0  0  0  0  0  0  0  0  0  0
   23.4867  -20.5682  -12.2273 C   0  0  0  0  0  0  0  0  0  0  0  0
   22.7288  -20.9737  -11.3006 O   0  0  0  0  0  0  0  0  0  0  0  0
   19.1140  -17.0971  -14.9439 N   0  0  0  0  0  0  0  0  0  0  0  0
   19.8500  -17.7022  -13.9066 C   0  0  0  0  0  0  0  0  0  0  0  0
   19.2693  -17.8196  -12.7888 O   0  0  0  0  0  0  0  0  0  0  0  0
   21.2346  -18.1851  -14.0887 C   0  0  0  0  0  0  0  0  0  0  0  0
   21.5019  -19.3301  -13.1766 C   0  0  2  0  0  0  0  0  0  0  0  0
   22.9030  -19.7420  -13.2134 N   0  0  0  0  0  0  0  0  0  0  0  0
   20.6736  -20.4924  -13.5494 C   0  0  0  0  0  0  0  0  0  0  0  0
   19.5626  -20.8984  -12.8596 O   0  0  0  0  0  0  0  0  0  0  0  0
   21.0003  -21.1770  -14.5792 O   0  0  0  0  0  0  0  0  0  0  0  0
  2  1  1  6
  2 10  1  0
  2  3  1  0
  3  4  1  0
  4  9  2  0
  4  5  1  0
  5  6  2  0
  6  7  1  0
  8  7  2  0
  9  8  1  0
 10 11  2  0
 13 12  1  1
 13 15  1  0
 14 13  1  0
 15 17  1  0
 16 10  1  0
 15 16  1  1
 17 24  1  0
 17 18  2  0
 19 20  1  0
 20 22  1  0
 21 20  2  0
 23 22  1  6
 23 25  1  0
 24 23  1  0
 25 27  2  0
 25 26  1  0
M  END
$$$$
