FVN.pdb
     RDKit          3D

 27 27  0  0  1  0  0  0  0  0999 V2000
   25.0917  -19.6508   -8.0176 N   0  0  0  0  0  0  0  0  0  0  0  0
   26.3142  -19.8841   -8.7599 C   0  0  1  0  0  0  0  0  0  0  0  0
   27.0570  -21.0183   -8.0780 C   0  0  0  0  0  0  0  0  0  0  0  0
   27.5925  -20.5819   -6.7795 C   0  0  0  0  0  0  0  0  0  0  0  0
   26.9147  -20.8744   -5.6058 C   0  0  0  0  0  0  0  0  0  0  0  0
   27.4386  -20.4553   -4.4025 C   0  0  0  0  0  0  0  0  0  0  0  0
   28.6220  -19.7538   -4.3652 C   0  0  0  0  0  0  0  0  0  0  0  0
   29.2848  -19.4707   -5.5461 C   0  0  0  0  0  0  0  0  0  0  0  0
   28.7963  -19.8709   -6.7719 C   0  0  0  0  0  0  0  0  0  0  0  0
   25.9965  -20.2454  -10.1769 C   0  0  0  0  0  0  0  0  0  0  0  0
   24.9338  -20.8508  -10.4415 O   0  0  0  0  0  0  0  0  0  0  0  0
   28.5776  -19.8524  -13.5471 C   0  0  0  0  0  0  0  0  0  0  0  0
   27.4161  -18.9192  -13.3496 C   0  0  1  0  0  0  0  0  0  0  0  0
   26.8948  -18.3324  -14.6258 C   0  0  0  0  0  0  0  0  0  0  0  0
   26.3164  -19.5401  -12.5147 C   0  0  2  0  0  0  0  0  0  0  0  0
   26.8649  -19.9253  -11.2525 N   0  0  0  0  0  0  0  0  0  0  0  0
   25.8485  -20.7490  -13.2840 C   0  0  0  0  0  0  0  0  0  0  0  0
   26.2412  -21.9129  -12.9864 O   0  0  0  0  0  0  0  0  0  0  0  0
   20.9054  -22.9814  -13.5694 N   0  0  0  0  0  0  0  0  0  0  0  0
   22.2913  -23.1821  -13.7196 C   0  0  0  0  0  0  0  0  0  0  0  0
   22.6605  -24.3132  -14.1497 O   0  0  0  0  0  0  0  0  0  0  0  0
   23.2872  -22.1388  -13.3978 C   0  0  0  0  0  0  0  0  0  0  0  0
   23.9116  -21.6242  -14.6466 C   0  0  2  0  0  0  0  0  0  0  0  0
   24.9517  -20.6363  -14.3699 N   0  0  0  0  0  0  0  0  0  0  0  0
   22.8967  -20.9902  -15.5090 C   0  0  0  0  0  0  0  0  0  0  0  0
   22.0682  -21.6776  -16.3554 O   0  0  0  0  0  0  0  0  0  0  0  0
   22.7695  -19.7178  -15.4782 O   0  0  0  0  0  0  0  0  0  0  0  0
  2  1  1  1
  2 10  1  0
  2  3  1  0
  3  4  1  0
  4  9  2  0
  4  5  1  0
  5  6  2  0
  6  7  1  0
  8  7  2  0
  9  8  1  0
 10 11  2  0
 13 12  1  6
 13 15  1  0
 14 13  1  0
 15 17  1  0
 16 10  1  0
 15 16  1  1
 17 24  1  0
 17 18  2  0
 19 20  1  0
 20 22  1  0
 21 20  2  0
 23 22  1  1
 23 25  1  0
 24 23  1  0
 25 27  2  0
 25 26  1  0
M  END
$$$$
