FVN.pdb
     RDKit          3D

 27 27  0  0  1  0  0  0  0  0999 V2000
   28.3955  -21.4945   -9.8808 N   0  0  0  0  0  0  0  0  0  0  0  0
   27.0480  -20.9964   -9.6910 C   0  0  1  0  0  0  0  0  0  0  0  0
   27.1468  -19.6696   -8.9608 C   0  0  0  0  0  0  0  0  0  0  0  0
   27.4799  -19.8802   -7.5437 C   0  0  0  0  0  0  0  0  0  0  0  0
   26.5725  -20.4919   -6.6921 C   0  0  0  0  0  0  0  0  0  0  0  0
   26.9097  -20.6785   -5.3695 C   0  0  0  0  0  0  0  0  0  0  0  0
   28.1337  -20.2624   -4.8979 C   0  0  0  0  0  0  0  0  0  0  0  0
   29.0267  -19.6537   -5.7617 C   0  0  0  0  0  0  0  0  0  0  0  0
   28.7303  -19.4473   -7.0924 C   0  0  0  0  0  0  0  0  0  0  0  0
   26.3736  -20.8150  -11.0145 C   0  0  0  0  0  0  0  0  0  0  0  0
   26.9617  -20.2028  -11.9340 O   0  0  0  0  0  0  0  0  0  0  0  0
   23.2129  -22.4748  -14.2931 C   0  0  0  0  0  0  0  0  0  0  0  0
   24.0694  -22.5506  -13.0605 C   0  0  1  0  0  0  0  0  0  0  0  0
   25.2178  -23.5047  -13.1860 C   0  0  0  0  0  0  0  0  0  0  0  0
   24.5116  -21.1834  -12.5836 C   0  0  2  0  0  0  0  0  0  0  0  0
   25.0721  -21.3165  -11.2758 N   0  0  0  0  0  0  0  0  0  0  0  0
   23.2644  -20.3377  -12.5459 C   0  0  0  0  0  0  0  0  0  0  0  0
   22.5313  -20.2890  -11.5174 O   0  0  0  0  0  0  0  0  0  0  0  0
   20.0570  -15.9983  -15.5176 N   0  0  0  0  0  0  0  0  0  0  0  0
   20.6230  -16.6642  -14.4132 C   0  0  0  0  0  0  0  0  0  0  0  0
   20.0657  -16.4841  -13.2917 O   0  0  0  0  0  0  0  0  0  0  0  0
   21.8100  -17.5365  -14.5311 C   0  0  0  0  0  0  0  0  0  0  0  0
   21.6649  -18.7216  -13.6431 C   0  0  2  0  0  0  0  0  0  0  0  0
   22.8595  -19.5626  -13.6554 N   0  0  0  0  0  0  0  0  0  0  0  0
   20.5193  -19.5484  -14.0671 C   0  0  0  0  0  0  0  0  0  0  0  0
   19.2999  -19.5511  -13.4441 O   0  0  0  0  0  0  0  0  0  0  0  0
   20.6563  -20.3190  -15.0788 O   0  0  0  0  0  0  0  0  0  0  0  0
  2  1  1  6
  2 10  1  0
  2  3  1  0
  3  4  1  0
  4  9  2  0
  4  5  1  0
  5  6  2  0
  6  7  1  0
  8  7  2  0
  9  8  1  0
 10 11  2  0
 13 12  1  6
 13 15  1  0
 14 13  1  0
 15 17  1  0
 16 10  1  0
 15 16  1  1
 17 24  1  0
 17 18  2  0
 19 20  1  0
 20 22  1  0
 21 20  2  0
 23 22  1  6
 23 25  1  0
 24 23  1  0
 25 27  2  0
 25 26  1  0
M  END
$$$$
