FVN.pdb
     RDKit          3D

 27 27  0  0  1  0  0  0  0  0999 V2000
   27.2002  -18.3871   -8.2176 N   0  0  0  0  0  0  0  0  0  0  0  0
   26.8781  -19.7662   -8.5246 C   0  0  1  0  0  0  0  0  0  0  0  0
   26.3368  -20.4046   -7.2586 C   0  0  0  0  0  0  0  0  0  0  0  0
   27.3051  -20.2794   -6.1586 C   0  0  0  0  0  0  0  0  0  0  0  0
   28.5404  -19.6874   -6.3741 C   0  0  0  0  0  0  0  0  0  0  0  0
   29.4287  -19.5813   -5.3264 C   0  0  0  0  0  0  0  0  0  0  0  0
   29.0944  -20.0574   -4.0793 C   0  0  0  0  0  0  0  0  0  0  0  0
   27.8575  -20.6451   -3.8825 C   0  0  0  0  0  0  0  0  0  0  0  0
   26.9385  -20.7720   -4.9026 C   0  0  0  0  0  0  0  0  0  0  0  0
   25.8578  -19.8270   -9.6175 C   0  0  0  0  0  0  0  0  0  0  0  0
   24.8311  -19.1146   -9.5508 O   0  0  0  0  0  0  0  0  0  0  0  0
   26.2467  -22.4549  -13.0063 C   0  0  0  0  0  0  0  0  0  0  0  0
   25.8399  -21.0115  -13.1069 C   0  0  1  0  0  0  0  0  0  0  0  0
   25.0791  -20.6886  -14.3566 C   0  0  0  0  0  0  0  0  0  0  0  0
   25.1264  -20.5281  -11.8622 C   0  0  2  0  0  0  0  0  0  0  0  0
   26.0076  -20.6735  -10.7465 N   0  0  0  0  0  0  0  0  0  0  0  0
   23.9195  -21.4179  -11.7080 C   0  0  0  0  0  0  0  0  0  0  0  0
   23.6086  -21.9200  -10.5906 O   0  0  0  0  0  0  0  0  0  0  0  0
   19.1065  -22.3025  -10.8026 N   0  0  0  0  0  0  0  0  0  0  0  0
   19.6635  -21.1588  -11.4071 C   0  0  0  0  0  0  0  0  0  0  0  0
   18.8525  -20.2814  -11.8231 O   0  0  0  0  0  0  0  0  0  0  0  0
   21.1208  -20.9682  -11.5606 C   0  0  0  0  0  0  0  0  0  0  0  0
   21.6264  -21.7806  -12.7002 C   0  0  2  0  0  0  0  0  0  0  0  0
   23.0829  -21.7301  -12.8029 N   0  0  0  0  0  0  0  0  0  0  0  0
   21.0612  -21.2943  -13.9729 C   0  0  0  0  0  0  0  0  0  0  0  0
   21.5447  -20.2182  -14.6683 O   0  0  0  0  0  0  0  0  0  0  0  0
   20.0540  -21.9039  -14.4728 O   0  0  0  0  0  0  0  0  0  0  0  0
  2  1  1  1
  2 10  1  0
  2  3  1  0
  3  4  1  0
  4  9  2  0
  4  5  1  0
  5  6  2  0
  6  7  1  0
  8  7  2  0
  9  8  1  0
 10 11  2  0
 13 12  1  1
 13 15  1  0
 14 13  1  0
 15 17  1  0
 16 10  1  0
 15 16  1  1
 17 24  1  0
 17 18  2  0
 19 20  1  0
 20 22  1  0
 21 20  2  0
 23 22  1  1
 23 25  1  0
 24 23  1  0
 25 27  2  0
 25 26  1  0
M  END
$$$$
