FVN.pdb
     RDKit          3D

 27 27  0  0  1  0  0  0  0  0999 V2000
   28.3076  -21.0082   -9.2248 N   0  0  0  0  0  0  0  0  0  0  0  0
   26.8912  -20.7623   -9.0425 C   0  0  1  0  0  0  0  0  0  0  0  0
   26.7466  -19.6062   -8.0700 C   0  0  0  0  0  0  0  0  0  0  0  0
   27.3578  -19.9381   -6.7740 C   0  0  0  0  0  0  0  0  0  0  0  0
   28.5816  -19.3941   -6.4145 C   0  0  0  0  0  0  0  0  0  0  0  0
   29.1317  -19.7201   -5.1942 C   0  0  0  0  0  0  0  0  0  0  0  0
   28.4742  -20.5764   -4.3408 C   0  0  0  0  0  0  0  0  0  0  0  0
   27.2541  -21.1099   -4.7159 C   0  0  0  0  0  0  0  0  0  0  0  0
   26.6675  -20.8107   -5.9274 C   0  0  0  0  0  0  0  0  0  0  0  0
   26.2532  -20.4248  -10.3534 C   0  0  0  0  0  0  0  0  0  0  0  0
   26.7583  -19.5421  -11.0825 O   0  0  0  0  0  0  0  0  0  0  0  0
   26.1874  -22.1134  -13.3838 C   0  0  0  0  0  0  0  0  0  0  0  0
   24.7415  -21.9136  -13.0257 C   0  0  1  0  0  0  0  0  0  0  0  0
   24.0704  -23.1563  -12.5254 C   0  0  0  0  0  0  0  0  0  0  0  0
   24.5381  -20.7389  -12.0926 C   0  0  2  0  0  0  0  0  0  0  0  0
   25.0784  -21.0748  -10.8129 N   0  0  0  0  0  0  0  0  0  0  0  0
   23.0469  -20.5362  -12.0053 C   0  0  0  0  0  0  0  0  0  0  0  0
   22.3889  -20.9081  -10.9923 O   0  0  0  0  0  0  0  0  0  0  0  0
   21.7087  -16.8808  -14.9245 N   0  0  0  0  0  0  0  0  0  0  0  0
   20.9060  -17.5092  -13.9527 C   0  0  0  0  0  0  0  0  0  0  0  0
   20.6434  -16.8410  -12.9110 O   0  0  0  0  0  0  0  0  0  0  0  0
   20.3829  -18.8814  -14.1171 C   0  0  0  0  0  0  0  0  0  0  0  0
   20.8687  -19.7507  -13.0115 C   0  0  2  0  0  0  0  0  0  0  0  0
   22.3191  -19.9225  -13.0491 N   0  0  0  0  0  0  0  0  0  0  0  0
   20.2479  -21.0862  -13.0927 C   0  0  0  0  0  0  0  0  0  0  0  0
   20.7328  -22.1152  -13.8552 O   0  0  0  0  0  0  0  0  0  0  0  0
   19.1873  -21.3151  -12.4152 O   0  0  0  0  0  0  0  0  0  0  0  0
  2  1  1  6
  2 10  1  0
  2  3  1  0
  3  4  1  0
  4  9  2  0
  4  5  1  0
  5  6  2  0
  6  7  1  0
  8  7  2  0
  9  8  1  0
 10 11  2  0
 13 12  1  1
 13 15  1  0
 14 13  1  0
 15 17  1  0
 16 10  1  0
 15 16  1  1
 17 24  1  0
 17 18  2  0
 19 20  1  0
 20 22  1  0
 21 20  2  0
 23 22  1  6
 23 25  1  0
 24 23  1  0
 25 27  2  0
 25 26  1  0
M  END
$$$$
