GAL.pdb
     RDKit          3D

 18 17  0  0  1  0  0  0  0  0999 V2000
   23.0420  -16.5431  -17.6801 N   0  0  0  0  0  0  0  0  0  0  0  0
   23.3751  -15.2138  -18.1012 C   0  0  0  0  0  0  0  0  0  0  0  0
   23.2291  -14.2263  -17.0020 C   0  0  0  0  0  0  0  0  0  0  0  0
   22.1202  -14.1583  -16.4221 O   0  0  0  0  0  0  0  0  0  0  0  0
   25.2793  -11.7050  -15.0957 C   0  0  0  0  0  0  0  0  0  0  0  0
   24.0131  -12.3544  -15.6045 C   0  0  2  0  0  0  0  0  0  0  0  0
   24.2659  -13.3685  -16.5809 N   0  0  0  0  0  0  0  0  0  0  0  0
   23.1836  -11.2465  -16.1993 C   0  0  0  0  0  0  0  0  0  0  0  0
   23.3263  -10.9106  -17.4075 O   0  0  0  0  0  0  0  0  0  0  0  0
   19.2484   -8.4298  -17.9692 C   0  0  0  0  0  0  0  0  0  0  0  0
   19.0911   -8.8026  -16.5182 C   0  0  1  0  0  0  0  0  0  0  0  0
   17.7102   -9.4625  -16.4024 C   0  0  0  0  0  0  0  0  0  0  0  0
   20.0681   -9.8462  -16.0822 C   0  0  0  0  0  0  0  0  0  0  0  0
   21.4688   -9.4115  -15.9065 C   0  0  2  0  0  0  0  0  0  0  0  0
   22.2304  -10.5533  -15.4393 N   0  0  0  0  0  0  0  0  0  0  0  0
   21.7318   -8.2769  -15.0601 C   0  0  0  0  0  0  0  0  0  0  0  0
   21.6133   -7.0010  -15.5899 O   0  0  0  0  0  0  0  0  0  0  0  0
   22.0712   -8.3064  -13.8438 O   0  0  0  0  0  0  0  0  0  0  0  0
  2  3  1  0
  2  1  1  0
  3  4  2  0
  6  5  1  6
  6  8  1  0
  7  6  1  0
  7  3  1  0
  8  9  2  0
 11 10  1  6
 11 12  1  0
 11 13  1  0
 14 13  1  1
 14 16  1  0
 15 14  1  0
 15  8  1  0
 16 18  2  0
 16 17  1  0
M  END
$$$$
