GAL.pdb
     RDKit          3D

 18 17  0  0  1  0  0  0  0  0999 V2000
   16.9550  -14.8435  -18.0485 N   0  0  0  0  0  0  0  0  0  0  0  0
   16.8197  -13.4730  -18.4470 C   0  0  0  0  0  0  0  0  0  0  0  0
   17.5273  -12.5501  -17.5239 C   0  0  0  0  0  0  0  0  0  0  0  0
   17.4563  -12.7860  -16.2951 O   0  0  0  0  0  0  0  0  0  0  0  0
   19.7531   -9.5061  -17.6545 C   0  0  0  0  0  0  0  0  0  0  0  0
   18.9088  -10.5772  -17.0035 C   0  0  2  0  0  0  0  0  0  0  0  0
   18.2686  -11.4312  -17.9557 N   0  0  0  0  0  0  0  0  0  0  0  0
   17.8823   -9.8539  -16.1716 C   0  0  0  0  0  0  0  0  0  0  0  0
   16.7358   -9.6025  -16.6360 O   0  0  0  0  0  0  0  0  0  0  0  0
   14.9236   -9.2896  -11.7074 C   0  0  0  0  0  0  0  0  0  0  0  0
   16.3759   -8.9029  -11.6049 C   0  0  1  0  0  0  0  0  0  0  0  0
   16.8904   -9.5465  -10.3100 C   0  0  0  0  0  0  0  0  0  0  0  0
   17.2074   -9.4911  -12.6986 C   0  0  0  0  0  0  0  0  0  0  0  0
   17.2157   -8.7689  -13.9871 C   0  0  2  0  0  0  0  0  0  0  0  0
   18.1597   -9.4366  -14.8618 N   0  0  0  0  0  0  0  0  0  0  0  0
   17.4846   -7.3544  -13.9767 C   0  0  0  0  0  0  0  0  0  0  0  0
   16.4302   -6.4710  -13.8026 O   0  0  0  0  0  0  0  0  0  0  0  0
   18.6115   -6.8004  -14.1127 O   0  0  0  0  0  0  0  0  0  0  0  0
  2  3  1  0
  2  1  1  0
  3  4  2  0
  6  5  1  6
  6  8  1  0
  7  6  1  0
  7  3  1  0
  8  9  2  0
 11 10  1  6
 11 12  1  0
 11 13  1  0
 14 13  1  1
 14 16  1  0
 15 14  1  0
 15  8  1  0
 16 18  2  0
 16 17  1  0
M  END
$$$$
