GAL.pdb
     RDKit          3D

 18 17  0  0  1  0  0  0  0  0999 V2000
   24.9370  -18.7306  -18.3878 N   0  0  0  0  0  0  0  0  0  0  0  0
   23.7319  -17.9548  -18.3540 C   0  0  0  0  0  0  0  0  0  0  0  0
   23.9582  -16.5518  -18.7842 C   0  0  0  0  0  0  0  0  0  0  0  0
   25.1348  -16.1203  -18.7721 O   0  0  0  0  0  0  0  0  0  0  0  0
   22.0579  -13.7293  -20.3907 C   0  0  0  0  0  0  0  0  0  0  0  0
   23.2326  -14.3822  -19.6996 C   0  0  2  0  0  0  0  0  0  0  0  0
   22.9255  -15.6876  -19.2022 N   0  0  0  0  0  0  0  0  0  0  0  0
   23.6161  -13.4648  -18.5681 C   0  0  0  0  0  0  0  0  0  0  0  0
   22.9234  -13.4150  -17.5142 O   0  0  0  0  0  0  0  0  0  0  0  0
   28.6140  -13.0556  -16.3639 C   0  0  0  0  0  0  0  0  0  0  0  0
   27.6383  -12.3510  -17.2698 C   0  0  1  0  0  0  0  0  0  0  0  0
   27.6954  -13.0982  -18.6093 C   0  0  0  0  0  0  0  0  0  0  0  0
   26.2240  -12.4784  -16.8038 C   0  0  0  0  0  0  0  0  0  0  0  0
   25.2002  -11.7560  -17.5860 C   0  0  2  0  0  0  0  0  0  0  0  0
   24.7472  -12.6390  -18.6429 N   0  0  0  0  0  0  0  0  0  0  0  0
   25.5438  -10.4734  -18.1429 C   0  0  0  0  0  0  0  0  0  0  0  0
   25.6179  -10.3367  -19.5207 O   0  0  0  0  0  0  0  0  0  0  0  0
   25.7959   -9.4157  -17.5000 O   0  0  0  0  0  0  0  0  0  0  0  0
  2  3  1  0
  2  1  1  0
  3  4  2  0
  6  5  1  1
  6  8  1  0
  7  6  1  0
  7  3  1  0
  8  9  2  0
 11 10  1  1
 11 12  1  0
 11 13  1  0
 14 13  1  6
 14 16  1  0
 15 14  1  0
 15  8  1  0
 16 18  2  0
 16 17  1  0
M  END
$$$$
