GAL.pdb
     RDKit          3D

 18 17  0  0  1  0  0  0  0  0999 V2000
   25.5838  -21.0276  -10.8535 N   0  0  0  0  0  0  0  0  0  0  0  0
   24.2311  -20.8006  -11.2707 C   0  0  0  0  0  0  0  0  0  0  0  0
   24.1431  -20.4357  -12.7072 C   0  0  0  0  0  0  0  0  0  0  0  0
   25.2142  -20.2204  -13.3213 O   0  0  0  0  0  0  0  0  0  0  0  0
   21.7013  -20.5593  -15.5175 C   0  0  0  0  0  0  0  0  0  0  0  0
   22.9248  -20.0252  -14.8094 C   0  0  2  0  0  0  0  0  0  0  0  0
   22.9261  -20.3199  -13.4097 N   0  0  0  0  0  0  0  0  0  0  0  0
   22.9220  -18.5356  -15.0334 C   0  0  0  0  0  0  0  0  0  0  0  0
   22.2941  -17.7667  -14.2539 O   0  0  0  0  0  0  0  0  0  0  0  0
   27.4864  -16.1984  -16.5612 C   0  0  0  0  0  0  0  0  0  0  0  0
   26.1441  -16.5186  -15.9573 C   0  0  1  0  0  0  0  0  0  0  0  0
   25.9787  -15.5590  -14.7709 C   0  0  0  0  0  0  0  0  0  0  0  0
   25.0090  -16.2100  -16.8792 C   0  0  0  0  0  0  0  0  0  0  0  0
   23.6523  -16.5319  -16.3919 C   0  0  2  0  0  0  0  0  0  0  0  0
   23.6107  -17.9529  -16.1071 N   0  0  0  0  0  0  0  0  0  0  0  0
   22.5267  -16.1714  -17.2143 C   0  0  0  0  0  0  0  0  0  0  0  0
   22.1238  -14.8454  -17.2587 O   0  0  0  0  0  0  0  0  0  0  0  0
   21.8349  -16.9503  -17.9285 O   0  0  0  0  0  0  0  0  0  0  0  0
  2  3  1  0
  2  1  1  0
  3  4  2  0
  6  5  1  1
  6  8  1  0
  7  6  1  0
  7  3  1  0
  8  9  2  0
 11 10  1  6
 11 12  1  0
 11 13  1  0
 14 13  1  6
 14 16  1  0
 15 14  1  0
 15  8  1  0
 16 18  2  0
 16 17  1  0
M  END
$$$$
