GAL.pdb
     RDKit          3D

 18 17  0  0  1  0  0  0  0  0999 V2000
   26.9755  -24.4701  -16.2109 N   0  0  0  0  0  0  0  0  0  0  0  0
   25.8247  -23.8817  -15.5906 C   0  0  0  0  0  0  0  0  0  0  0  0
   26.1903  -22.7761  -14.6694 C   0  0  0  0  0  0  0  0  0  0  0  0
   27.3108  -22.8286  -14.1106 O   0  0  0  0  0  0  0  0  0  0  0  0
   24.9475  -19.3778  -13.6571 C   0  0  0  0  0  0  0  0  0  0  0  0
   25.7923  -20.6250  -13.5354 C   0  0  2  0  0  0  0  0  0  0  0  0
   25.3481  -21.6794  -14.3937 N   0  0  0  0  0  0  0  0  0  0  0  0
   25.7072  -21.0498  -12.0927 C   0  0  0  0  0  0  0  0  0  0  0  0
   24.9268  -21.9759  -11.7374 O   0  0  0  0  0  0  0  0  0  0  0  0
   29.0374  -19.8655   -7.0096 C   0  0  0  0  0  0  0  0  0  0  0  0
   27.6978  -20.2903   -7.5521 C   0  0  1  0  0  0  0  0  0  0  0  0
   26.6836  -19.2762   -7.0055 C   0  0  0  0  0  0  0  0  0  0  0  0
   27.6149  -20.1728   -9.0397 C   0  0  0  0  0  0  0  0  0  0  0  0
   26.4163  -20.7465   -9.6846 C   0  0  2  0  0  0  0  0  0  0  0  0
   26.4852  -20.4374  -11.0994 N   0  0  0  0  0  0  0  0  0  0  0  0
   25.1218  -20.3785   -9.1727 C   0  0  0  0  0  0  0  0  0  0  0  0
   24.4752  -21.2387   -8.2984 O   0  0  0  0  0  0  0  0  0  0  0  0
   24.4795  -19.3232   -9.4357 O   0  0  0  0  0  0  0  0  0  0  0  0
  2  3  1  0
  2  1  1  0
  3  4  2  0
  6  5  1  1
  6  8  1  0
  7  6  1  0
  7  3  1  0
  8  9  2  0
 11 10  1  1
 11 12  1  0
 11 13  1  0
 14 13  1  1
 14 16  1  0
 15 14  1  0
 15  8  1  0
 16 18  2  0
 16 17  1  0
M  END
$$$$
