GAL.pdb
     RDKit          3D

 18 17  0  0  1  0  0  0  0  0999 V2000
   20.2048  -12.6515  -17.7970 N   0  0  0  0  0  0  0  0  0  0  0  0
   21.0223  -11.4908  -17.9963 C   0  0  0  0  0  0  0  0  0  0  0  0
   21.0601  -10.6206  -16.7938 C   0  0  0  0  0  0  0  0  0  0  0  0
   20.0137  -10.0024  -16.4878 O   0  0  0  0  0  0  0  0  0  0  0  0
   23.2933   -9.9336  -13.8548 C   0  0  0  0  0  0  0  0  0  0  0  0
   22.1379   -9.6697  -14.7924 C   0  0  2  0  0  0  0  0  0  0  0  0
   22.2035  -10.4559  -15.9855 N   0  0  0  0  0  0  0  0  0  0  0  0
   22.1953   -8.2018  -15.1257 C   0  0  0  0  0  0  0  0  0  0  0  0
   22.8980   -7.7853  -16.0880 O   0  0  0  0  0  0  0  0  0  0  0  0
   18.1405   -5.4482  -16.4463 C   0  0  0  0  0  0  0  0  0  0  0  0
   19.5798   -5.8491  -16.2537 C   0  0  1  0  0  0  0  0  0  0  0  0
   20.3732   -5.0907  -17.3266 C   0  0  0  0  0  0  0  0  0  0  0  0
   20.1368   -5.3863  -14.9463 C   0  0  0  0  0  0  0  0  0  0  0  0
   21.5100   -5.8212  -14.6192 C   0  0  2  0  0  0  0  0  0  0  0  0
   21.4766   -7.2517  -14.3858 N   0  0  0  0  0  0  0  0  0  0  0  0
   22.1926   -5.1705  -13.5311 C   0  0  0  0  0  0  0  0  0  0  0  0
   22.6073   -3.8567  -13.6874 O   0  0  0  0  0  0  0  0  0  0  0  0
   22.4698   -5.6741  -12.4064 O   0  0  0  0  0  0  0  0  0  0  0  0
  2  3  1  0
  2  1  1  0
  3  4  2  0
  6  5  1  1
  6  8  1  0
  7  6  1  0
  7  3  1  0
  8  9  2  0
 11 10  1  1
 11 12  1  0
 11 13  1  0
 14 13  1  1
 14 16  1  0
 15 14  1  0
 15  8  1  0
 16 18  2  0
 16 17  1  0
M  END
$$$$
