GAL.pdb
     RDKit          3D

 18 17  0  0  1  0  0  0  0  0999 V2000
   29.2129  -21.3978  -16.0659 N   0  0  0  0  0  0  0  0  0  0  0  0
   27.8905  -21.8175  -15.7045 C   0  0  0  0  0  0  0  0  0  0  0  0
   27.3757  -21.0847  -14.5202 C   0  0  0  0  0  0  0  0  0  0  0  0
   28.2073  -20.4910  -13.7945 O   0  0  0  0  0  0  0  0  0  0  0  0
   24.1653  -19.6344  -13.3569 C   0  0  0  0  0  0  0  0  0  0  0  0
   25.5681  -20.1491  -13.1313 C   0  0  2  0  0  0  0  0  0  0  0  0
   26.0104  -21.0233  -14.1734 N   0  0  0  0  0  0  0  0  0  0  0  0
   25.5412  -20.8750  -11.8117 C   0  0  0  0  0  0  0  0  0  0  0  0
   25.3481  -22.1214  -11.7643 O   0  0  0  0  0  0  0  0  0  0  0  0
   28.2580  -18.5932   -7.5769 C   0  0  0  0  0  0  0  0  0  0  0  0
   27.7052  -19.5921   -8.5597 C   0  0  1  0  0  0  0  0  0  0  0  0
   28.4595  -20.9023   -8.2945 C   0  0  0  0  0  0  0  0  0  0  0  0
   26.2648  -19.9060   -8.3136 C   0  0  0  0  0  0  0  0  0  0  0  0
   25.6061  -20.8030   -9.2850 C   0  0  2  0  0  0  0  0  0  0  0  0
   25.7281  -20.1989  -10.5973 N   0  0  0  0  0  0  0  0  0  0  0  0
   24.2353  -21.1762   -9.0509 C   0  0  0  0  0  0  0  0  0  0  0  0
   23.9610  -22.2065   -8.1645 O   0  0  0  0  0  0  0  0  0  0  0  0
   23.2121  -20.6560   -9.5779 O   0  0  0  0  0  0  0  0  0  0  0  0
  2  3  1  0
  2  1  1  0
  3  4  2  0
  6  5  1  6
  6  8  1  0
  7  6  1  0
  7  3  1  0
  8  9  2  0
 11 10  1  1
 11 12  1  0
 11 13  1  0
 14 13  1  1
 14 16  1  0
 15 14  1  0
 15  8  1  0
 16 18  2  0
 16 17  1  0
M  END
$$$$
