GAL.pdb
     RDKit          3D

 18 17  0  0  1  0  0  0  0  0999 V2000
   13.7653  -11.3249  -15.8463 N   0  0  0  0  0  0  0  0  0  0  0  0
   14.1044   -9.9365  -15.9590 C   0  0  0  0  0  0  0  0  0  0  0  0
   15.4981   -9.7381  -16.4312 C   0  0  0  0  0  0  0  0  0  0  0  0
   16.2803  -10.7153  -16.3678 O   0  0  0  0  0  0  0  0  0  0  0  0
   17.5702   -7.1720  -18.2352 C   0  0  0  0  0  0  0  0  0  0  0  0
   17.3327   -8.4101  -17.4019 C   0  0  2  0  0  0  0  0  0  0  0  0
   15.9822   -8.5167  -16.9428 N   0  0  0  0  0  0  0  0  0  0  0  0
   18.2796   -8.3173  -16.2340 C   0  0  0  0  0  0  0  0  0  0  0  0
   17.8942   -7.8519  -15.1259 O   0  0  0  0  0  0  0  0  0  0  0  0
   22.5228   -9.9462  -13.2025 C   0  0  0  0  0  0  0  0  0  0  0  0
   22.8554   -9.4880  -14.5984 C   0  0  1  0  0  0  0  0  0  0  0  0
   23.8579  -10.5122  -15.1479 C   0  0  0  0  0  0  0  0  0  0  0  0
   21.6804   -9.5482  -15.5200 C   0  0  0  0  0  0  0  0  0  0  0  0
   20.6267   -8.5328  -15.3185 C   0  0  2  0  0  0  0  0  0  0  0  0
   19.6128   -8.7408  -16.3337 N   0  0  0  0  0  0  0  0  0  0  0  0
   21.0095   -7.1450  -15.2959 C   0  0  0  0  0  0  0  0  0  0  0  0
   21.2635   -6.5374  -14.0757 O   0  0  0  0  0  0  0  0  0  0  0  0
   21.1470   -6.3847  -16.2951 O   0  0  0  0  0  0  0  0  0  0  0  0
  2  3  1  0
  2  1  1  0
  3  4  2  0
  6  5  1  6
  6  8  1  0
  7  6  1  0
  7  3  1  0
  8  9  2  0
 11 10  1  1
 11 12  1  0
 11 13  1  0
 14 13  1  6
 14 16  1  0
 15 14  1  0
 15  8  1  0
 16 18  2  0
 16 17  1  0
M  END
$$$$
