GAL.pdb
     RDKit          3D

 18 17  0  0  1  0  0  0  0  0999 V2000
   16.1511  -13.1856  -16.0781 N   0  0  0  0  0  0  0  0  0  0  0  0
   17.2363  -12.2493  -16.0427 C   0  0  0  0  0  0  0  0  0  0  0  0
   16.7978  -10.9021  -15.5984 C   0  0  0  0  0  0  0  0  0  0  0  0
   16.1734  -10.1912  -16.4202 O   0  0  0  0  0  0  0  0  0  0  0  0
   16.7225   -8.7911  -12.4793 C   0  0  0  0  0  0  0  0  0  0  0  0
   16.6006   -9.0732  -13.9589 C   0  0  2  0  0  0  0  0  0  0  0  0
   17.0459  -10.3863  -14.3098 N   0  0  0  0  0  0  0  0  0  0  0  0
   17.4364   -8.0308  -14.6546 C   0  0  0  0  0  0  0  0  0  0  0  0
   18.6556   -8.2417  -14.9038 O   0  0  0  0  0  0  0  0  0  0  0  0
   15.3569   -5.0294  -18.6419 C   0  0  0  0  0  0  0  0  0  0  0  0
   16.3400   -5.7849  -17.7864 C   0  0  1  0  0  0  0  0  0  0  0  0
   17.6010   -5.9521  -18.6455 C   0  0  0  0  0  0  0  0  0  0  0  0
   16.7767   -5.0075  -16.5869 C   0  0  0  0  0  0  0  0  0  0  0  0
   17.6546   -5.7068  -15.6268 C   0  0  2  0  0  0  0  0  0  0  0  0
   16.8956   -6.7980  -15.0479 N   0  0  0  0  0  0  0  0  0  0  0  0
   18.2706   -4.9372  -14.5772 C   0  0  0  0  0  0  0  0  0  0  0  0
   19.3905   -4.1746  -14.8714 O   0  0  0  0  0  0  0  0  0  0  0  0
   17.8973   -4.8715  -13.3724 O   0  0  0  0  0  0  0  0  0  0  0  0
  2  3  1  0
  2  1  1  0
  3  4  2  0
  6  5  1  1
  6  8  1  0
  7  6  1  0
  7  3  1  0
  8  9  2  0
 11 10  1  6
 11 12  1  0
 11 13  1  0
 14 13  1  1
 14 16  1  0
 15 14  1  0
 15  8  1  0
 16 18  2  0
 16 17  1  0
M  END
$$$$
