GAL.pdb
     RDKit          3D

 18 17  0  0  1  0  0  0  0  0999 V2000
   25.1939  -20.5494   -8.8062 N   0  0  0  0  0  0  0  0  0  0  0  0
   25.9740  -21.1949   -9.8212 C   0  0  0  0  0  0  0  0  0  0  0  0
   25.9325  -20.4592  -11.1102 C   0  0  0  0  0  0  0  0  0  0  0  0
   25.0658  -19.5638  -11.2434 O   0  0  0  0  0  0  0  0  0  0  0  0
   28.0278  -20.0322  -14.1966 C   0  0  0  0  0  0  0  0  0  0  0  0
   26.7823  -19.8914  -13.3523 C   0  0  2  0  0  0  0  0  0  0  0  0
   26.8112  -20.7145  -12.1830 N   0  0  0  0  0  0  0  0  0  0  0  0
   25.6284  -20.2785  -14.2398 C   0  0  0  0  0  0  0  0  0  0  0  0
   25.2762  -21.4854  -14.3513 O   0  0  0  0  0  0  0  0  0  0  0  0
   20.5792  -19.1977  -15.8308 C   0  0  0  0  0  0  0  0  0  0  0  0
   21.6397  -18.4440  -16.5901 C   0  0  1  0  0  0  0  0  0  0  0  0
   21.1352  -16.9979  -16.6905 C   0  0  0  0  0  0  0  0  0  0  0  0
   22.9333  -18.3628  -15.8460 C   0  0  0  0  0  0  0  0  0  0  0  0
   23.7357  -19.6008  -15.7735 C   0  0  2  0  0  0  0  0  0  0  0  0
   24.9087  -19.3206  -14.9688 N   0  0  0  0  0  0  0  0  0  0  0  0
   24.1347  -20.2304  -17.0055 C   0  0  0  0  0  0  0  0  0  0  0  0
   25.2937  -19.8023  -17.6346 O   0  0  0  0  0  0  0  0  0  0  0  0
   23.5305  -21.1635  -17.6053 O   0  0  0  0  0  0  0  0  0  0  0  0
  2  3  1  0
  2  1  1  0
  3  4  2  0
  6  5  1  6
  6  8  1  0
  7  6  1  0
  7  3  1  0
  8  9  2  0
 11 10  1  1
 11 12  1  0
 11 13  1  0
 14 13  1  6
 14 16  1  0
 15 14  1  0
 15  8  1  0
 16 18  2  0
 16 17  1  0
M  END
$$$$
