GAL.pdb
     RDKit          3D

 18 17  0  0  1  0  0  0  0  0999 V2000
   29.2506  -23.2020  -16.1669 N   0  0  0  0  0  0  0  0  0  0  0  0
   28.1568  -22.5432  -16.8187 C   0  0  0  0  0  0  0  0  0  0  0  0
   27.4603  -21.5913  -15.9169 C   0  0  0  0  0  0  0  0  0  0  0  0
   27.8527  -21.5195  -14.7288 O   0  0  0  0  0  0  0  0  0  0  0  0
   24.8461  -18.8862  -16.0646 C   0  0  0  0  0  0  0  0  0  0  0  0
   25.7605  -19.8855  -15.3945 C   0  0  2  0  0  0  0  0  0  0  0  0
   26.3889  -20.7708  -16.3257 N   0  0  0  0  0  0  0  0  0  0  0  0
   24.9003  -20.6601  -14.4305 C   0  0  0  0  0  0  0  0  0  0  0  0
   24.3170  -21.7190  -14.7930 O   0  0  0  0  0  0  0  0  0  0  0  0
   26.1595  -20.2379   -9.1254 C   0  0  0  0  0  0  0  0  0  0  0  0
   25.7726  -20.6995  -10.5062 C   0  0  1  0  0  0  0  0  0  0  0  0
   25.9934  -22.2184  -10.5174 C   0  0  0  0  0  0  0  0  0  0  0  0
   24.3182  -20.5074  -10.7916 C   0  0  0  0  0  0  0  0  0  0  0  0
   23.8513  -20.8857  -12.1409 C   0  0  2  0  0  0  0  0  0  0  0  0
   24.7173  -20.2371  -13.1060 N   0  0  0  0  0  0  0  0  0  0  0  0
   22.4752  -20.6367  -12.4834 C   0  0  0  0  0  0  0  0  0  0  0  0
   21.5372  -21.6346  -12.2666 O   0  0  0  0  0  0  0  0  0  0  0  0
   22.0016  -19.5751  -12.9775 O   0  0  0  0  0  0  0  0  0  0  0  0
  2  3  1  0
  2  1  1  0
  3  4  2  0
  6  5  1  6
  6  8  1  0
  7  6  1  0
  7  3  1  0
  8  9  2  0
 11 10  1  1
 11 12  1  0
 11 13  1  0
 14 13  1  1
 14 16  1  0
 15 14  1  0
 15  8  1  0
 16 18  2  0
 16 17  1  0
M  END
$$$$
