AFG.pdb
     RDKit          3D

 21 21  0  0  1  0  0  0  0  0999 V2000
   27.5228  -18.6976  -14.9644 C   0  0  0  0  0  0  0  0  0  0  0  0
   28.2658  -19.6818  -14.0617 C   0  0  2  0  0  0  0  0  0  0  0  0
   29.0980  -20.4898  -14.8986 N   0  0  0  0  0  0  0  0  0  0  0  0
   27.2303  -20.4957  -13.3453 C   0  0  0  0  0  0  0  0  0  0  0  0
   26.9118  -21.6037  -13.8482 O   0  0  0  0  0  0  0  0  0  0  0  0
   26.6085  -20.0923  -12.1629 N   0  0  0  0  0  0  0  0  0  0  0  0
   25.6450  -20.9494  -11.4651 C   0  0  1  0  0  0  0  0  0  0  0  0
   25.5096  -20.5318  -10.0393 C   0  0  0  0  0  0  0  0  0  0  0  0
   26.7041  -20.6091   -9.2157 C   0  0  0  0  0  0  0  0  0  0  0  0
   27.8274  -21.3592   -9.5591 C   0  0  0  0  0  0  0  0  0  0  0  0
   28.9615  -21.4183   -8.7800 C   0  0  0  0  0  0  0  0  0  0  0  0
   29.0026  -20.7109   -7.6078 C   0  0  0  0  0  0  0  0  0  0  0  0
   27.9125  -19.9692   -7.2525 C   0  0  0  0  0  0  0  0  0  0  0  0
   26.7649  -19.9036   -8.0316 C   0  0  0  0  0  0  0  0  0  0  0  0
   24.3290  -20.9014  -12.1214 C   0  0  0  0  0  0  0  0  0  0  0  0
   23.8708  -19.8449  -12.6227 O   0  0  0  0  0  0  0  0  0  0  0  0
   23.4831  -22.0557  -12.2323 N   0  0  0  0  0  0  0  0  0  0  0  0
   22.2447  -21.9862  -12.9834 C   0  0  0  0  0  0  0  0  0  0  0  0
   21.2195  -21.1890  -12.2897 C   0  0  0  0  0  0  0  0  0  0  0  0
   21.1752  -21.1582  -11.0352 O   0  0  0  0  0  0  0  0  0  0  0  0
   20.3051  -20.4740  -13.0726 O   0  0  0  0  0  0  0  0  0  0  0  0
  2  1  1  6
  3  2  1  0
  4  5  2  0
  4  2  1  0
  6  4  1  0
  7  6  1  0
  7 15  1  0
  7  8  1  1
  9  8  1  0
 10  9  2  0
 11 10  1  0
 12 11  2  0
 12 13  1  0
 13 14  2  0
 14  9  1  0
 15 17  1  0
 16 15  2  0
 17 18  1  0
 19 21  1  0
 19 18  1  0
 20 19  2  0
M  END
$$$$
