AFG.pdb
     RDKit          3D

 21 21  0  0  1  0  0  0  0  0999 V2000
   20.3639  -14.2062  -17.4726 C   0  0  0  0  0  0  0  0  0  0  0  0
   21.8814  -14.2730  -17.3043 C   0  0  2  0  0  0  0  0  0  0  0  0
   22.1864  -15.4964  -16.6291 N   0  0  0  0  0  0  0  0  0  0  0  0
   22.2926  -13.0727  -16.5053 C   0  0  0  0  0  0  0  0  0  0  0  0
   22.1392  -13.1244  -15.2580 O   0  0  0  0  0  0  0  0  0  0  0  0
   22.8306  -11.9142  -17.0675 N   0  0  0  0  0  0  0  0  0  0  0  0
   23.3122  -10.8048  -16.2386 C   0  0  1  0  0  0  0  0  0  0  0  0
   24.7006  -10.4238  -16.6294 C   0  0  0  0  0  0  0  0  0  0  0  0
   25.7480  -11.3951  -16.3636 C   0  0  0  0  0  0  0  0  0  0  0  0
   25.8998  -12.5786  -17.0838 C   0  0  0  0  0  0  0  0  0  0  0  0
   26.9025  -13.4892  -16.8350 C   0  0  0  0  0  0  0  0  0  0  0  0
   27.8021  -13.2334  -15.8342 C   0  0  0  0  0  0  0  0  0  0  0  0
   27.6715  -12.0793  -15.1162 C   0  0  0  0  0  0  0  0  0  0  0  0
   26.6639  -11.1554  -15.3599 C   0  0  0  0  0  0  0  0  0  0  0  0
   22.4262   -9.6364  -16.3600 C   0  0  0  0  0  0  0  0  0  0  0  0
   21.8779   -9.3240  -17.4459 O   0  0  0  0  0  0  0  0  0  0  0  0
   22.1300   -8.7779  -15.2484 N   0  0  0  0  0  0  0  0  0  0  0  0
   21.2197   -7.6607  -15.4088 C   0  0  0  0  0  0  0  0  0  0  0  0
   21.0943   -6.8661  -14.1756 C   0  0  0  0  0  0  0  0  0  0  0  0
   21.0571   -7.4294  -13.0540 O   0  0  0  0  0  0  0  0  0  0  0  0
   21.0190   -5.4735  -14.2986 O   0  0  0  0  0  0  0  0  0  0  0  0
  2  1  1  1
  3  2  1  0
  4  5  2  0
  4  2  1  0
  6  4  1  0
  7  6  1  0
  7 15  1  0
  7  8  1  6
  9  8  1  0
 10  9  2  0
 11 10  1  0
 12 11  2  0
 12 13  1  0
 13 14  2  0
 14  9  1  0
 15 17  1  0
 16 15  2  0
 17 18  1  0
 19 21  1  0
 19 18  1  0
 20 19  2  0
M  END
$$$$
