AFG.pdb
     RDKit          3D

 21 21  0  0  1  0  0  0  0  0999 V2000
   25.8969  -21.9152  -18.7857 C   0  0  0  0  0  0  0  0  0  0  0  0
   26.9721  -22.0477  -17.7077 C   0  0  2  0  0  0  0  0  0  0  0  0
   27.7865  -23.1733  -18.0479 N   0  0  0  0  0  0  0  0  0  0  0  0
   26.2668  -22.2396  -16.3986 C   0  0  0  0  0  0  0  0  0  0  0  0
   26.1123  -23.4188  -15.9891 O   0  0  0  0  0  0  0  0  0  0  0  0
   25.7785  -21.1897  -15.6197 N   0  0  0  0  0  0  0  0  0  0  0  0
   25.1345  -21.4238  -14.3234 C   0  0  1  0  0  0  0  0  0  0  0  0
   25.6248  -20.4442  -13.3108 C   0  0  0  0  0  0  0  0  0  0  0  0
   25.1463  -20.6115  -11.9492 C   0  0  0  0  0  0  0  0  0  0  0  0
   25.8884  -21.2291  -10.9440 C   0  0  0  0  0  0  0  0  0  0  0  0
   25.4340  -21.3733   -9.6519 C   0  0  0  0  0  0  0  0  0  0  0  0
   24.1945  -20.8915   -9.3235 C   0  0  0  0  0  0  0  0  0  0  0  0
   23.4509  -20.2828  -10.2934 C   0  0  0  0  0  0  0  0  0  0  0  0
   23.9007  -20.1328  -11.5986 C   0  0  0  0  0  0  0  0  0  0  0  0
   23.6711  -21.3243  -14.4395 C   0  0  0  0  0  0  0  0  0  0  0  0
   23.1114  -20.3663  -15.0281 O   0  0  0  0  0  0  0  0  0  0  0  0
   22.7876  -22.3127  -13.8891 N   0  0  0  0  0  0  0  0  0  0  0  0
   21.3509  -22.1585  -14.0096 C   0  0  0  0  0  0  0  0  0  0  0  0
   20.7497  -21.5933  -12.7902 C   0  0  0  0  0  0  0  0  0  0  0  0
   20.3161  -20.4149  -12.7791 O   0  0  0  0  0  0  0  0  0  0  0  0
   20.6801  -22.4099  -11.6551 O   0  0  0  0  0  0  0  0  0  0  0  0
  2  1  1  6
  3  2  1  0
  4  5  2  0
  4  2  1  0
  6  4  1  0
  7  6  1  0
  7 15  1  0
  7  8  1  1
  9  8  1  0
 10  9  2  0
 11 10  1  0
 12 11  2  0
 12 13  1  0
 13 14  2  0
 14  9  1  0
 15 17  1  0
 16 15  2  0
 17 18  1  0
 19 21  1  0
 19 18  1  0
 20 19  2  0
M  END
$$$$
