AFG.pdb
     RDKit          3D

 21 21  0  0  1  0  0  0  0  0999 V2000
   18.3876   -8.6330  -18.5098 C   0  0  0  0  0  0  0  0  0  0  0  0
   19.4975   -9.0968  -17.5671 C   0  0  2  0  0  0  0  0  0  0  0  0
   19.3475  -10.5078  -17.3867 N   0  0  0  0  0  0  0  0  0  0  0  0
   19.3304   -8.3450  -16.2807 C   0  0  0  0  0  0  0  0  0  0  0  0
   18.4875   -8.7835  -15.4566 O   0  0  0  0  0  0  0  0  0  0  0  0
   20.0533   -7.1969  -15.9541 N   0  0  0  0  0  0  0  0  0  0  0  0
   20.0100   -6.6128  -14.6099 C   0  0  1  0  0  0  0  0  0  0  0  0
   21.2784   -6.8931  -13.8764 C   0  0  0  0  0  0  0  0  0  0  0  0
   22.5192   -6.6205  -14.5814 C   0  0  0  0  0  0  0  0  0  0  0  0
   23.0307   -5.3377  -14.7696 C   0  0  0  0  0  0  0  0  0  0  0  0
   24.2140   -5.0870  -15.4280 C   0  0  0  0  0  0  0  0  0  0  0  0
   24.9347   -6.1393  -15.9279 C   0  0  0  0  0  0  0  0  0  0  0  0
   24.4515   -7.4046  -15.7544 C   0  0  0  0  0  0  0  0  0  0  0  0
   23.2596   -7.6669  -15.0919 C   0  0  0  0  0  0  0  0  0  0  0  0
   19.7882   -5.1597  -14.6765 C   0  0  0  0  0  0  0  0  0  0  0  0
   20.2883   -4.4486  -15.5829 O   0  0  0  0  0  0  0  0  0  0  0  0
   18.9875   -4.4597  -13.7124 N   0  0  0  0  0  0  0  0  0  0  0  0
   18.7388   -3.0390  -13.8609 C   0  0  0  0  0  0  0  0  0  0  0  0
   17.6643   -2.7624  -14.8289 C   0  0  0  0  0  0  0  0  0  0  0  0
   17.0726   -3.7036  -15.4123 O   0  0  0  0  0  0  0  0  0  0  0  0
   17.3303   -1.4246  -15.0720 O   0  0  0  0  0  0  0  0  0  0  0  0
  2  1  1  6
  3  2  1  0
  4  5  2  0
  4  2  1  0
  6  4  1  0
  7  6  1  0
  7 15  1  0
  7  8  1  6
  9  8  1  0
 10  9  2  0
 11 10  1  0
 12 11  2  0
 12 13  1  0
 13 14  2  0
 14  9  1  0
 15 17  1  0
 16 15  2  0
 17 18  1  0
 19 21  1  0
 19 18  1  0
 20 19  2  0
M  END
$$$$
