AFG.pdb
     RDKit          3D

 21 21  0  0  1  0  0  0  0  0999 V2000
   23.6347  -22.5119  -20.0191 C   0  0  0  0  0  0  0  0  0  0  0  0
   23.3139  -22.1426  -18.5711 C   0  0  2  0  0  0  0  0  0  0  0  0
   22.0389  -22.7084  -18.2548 N   0  0  0  0  0  0  0  0  0  0  0  0
   23.3007  -20.6457  -18.4874 C   0  0  0  0  0  0  0  0  0  0  0  0
   22.3029  -20.0458  -18.9633 O   0  0  0  0  0  0  0  0  0  0  0  0
   24.3264  -19.8920  -17.9153 N   0  0  0  0  0  0  0  0  0  0  0  0
   24.3003  -18.4260  -17.9148 C   0  0  1  0  0  0  0  0  0  0  0  0
   24.3481  -17.9022  -16.5187 C   0  0  0  0  0  0  0  0  0  0  0  0
   23.3056  -18.3520  -15.6121 C   0  0  0  0  0  0  0  0  0  0  0  0
   23.4147  -19.4947  -14.8216 C   0  0  0  0  0  0  0  0  0  0  0  0
   22.4279  -19.9088  -13.9548 C   0  0  0  0  0  0  0  0  0  0  0  0
   21.2774  -19.1723  -13.8535 C   0  0  0  0  0  0  0  0  0  0  0  0
   21.1500  -18.0489  -14.6192 C   0  0  0  0  0  0  0  0  0  0  0  0
   22.1396  -17.6237  -15.4958 C   0  0  0  0  0  0  0  0  0  0  0  0
   25.4286  -17.8811  -18.6861 C   0  0  0  0  0  0  0  0  0  0  0  0
   26.6020  -18.3055  -18.5434 O   0  0  0  0  0  0  0  0  0  0  0  0
   25.2640  -16.8310  -19.6508 N   0  0  0  0  0  0  0  0  0  0  0  0
   26.4018  -16.3496  -20.4099 C   0  0  0  0  0  0  0  0  0  0  0  0
   26.9272  -15.0815  -19.8774 C   0  0  0  0  0  0  0  0  0  0  0  0
   26.4183  -14.5582  -18.8557 O   0  0  0  0  0  0  0  0  0  0  0  0
   28.0042  -14.4867  -20.5456 O   0  0  0  0  0  0  0  0  0  0  0  0
  2  1  1  6
  3  2  1  0
  4  5  2  0
  4  2  1  0
  6  4  1  0
  7  6  1  0
  7 15  1  0
  7  8  1  1
  9  8  1  0
 10  9  2  0
 11 10  1  0
 12 11  2  0
 12 13  1  0
 13 14  2  0
 14  9  1  0
 15 17  1  0
 16 15  2  0
 17 18  1  0
 19 21  1  0
 19 18  1  0
 20 19  2  0
M  END
$$$$
