AFG.pdb
     RDKit          3D

 21 21  0  0  1  0  0  0  0  0999 V2000
   23.1871   -7.4363  -19.9650 C   0  0  0  0  0  0  0  0  0  0  0  0
   21.9829   -6.6366  -19.4688 C   0  0  2  0  0  0  0  0  0  0  0  0
   22.3902   -5.2702  -19.3562 N   0  0  0  0  0  0  0  0  0  0  0  0
   21.5816   -7.2144  -18.1447 C   0  0  0  0  0  0  0  0  0  0  0  0
   21.1762   -8.4049  -18.1289 O   0  0  0  0  0  0  0  0  0  0  0  0
   21.6341   -6.5076  -16.9425 N   0  0  0  0  0  0  0  0  0  0  0  0
   21.1318   -7.0777  -15.6885 C   0  0  1  0  0  0  0  0  0  0  0  0
   22.1967   -7.0641  -14.6438 C   0  0  0  0  0  0  0  0  0  0  0  0
   23.2359   -8.0738  -14.7516 C   0  0  0  0  0  0  0  0  0  0  0  0
   24.3732   -7.9251  -15.5433 C   0  0  0  0  0  0  0  0  0  0  0  0
   25.3608   -8.8809  -15.6313 C   0  0  0  0  0  0  0  0  0  0  0  0
   25.2333  -10.0394  -14.9116 C   0  0  0  0  0  0  0  0  0  0  0  0
   24.1265  -10.2054  -14.1293 C   0  0  0  0  0  0  0  0  0  0  0  0
   23.1258   -9.2473  -14.0343 C   0  0  0  0  0  0  0  0  0  0  0  0
   19.9575   -6.3332  -15.2072 C   0  0  0  0  0  0  0  0  0  0  0  0
   19.9322   -5.0781  -15.1687 O   0  0  0  0  0  0  0  0  0  0  0  0
   18.7655   -6.9898  -14.7507 N   0  0  0  0  0  0  0  0  0  0  0  0
   17.6471   -6.2130  -14.2526 C   0  0  0  0  0  0  0  0  0  0  0  0
   16.9864   -5.4443  -15.3205 C   0  0  0  0  0  0  0  0  0  0  0  0
   17.0810   -4.1928  -15.3587 O   0  0  0  0  0  0  0  0  0  0  0  0
   16.2562   -6.1533  -16.2821 O   0  0  0  0  0  0  0  0  0  0  0  0
  2  1  1  1
  3  2  1  0
  4  5  2  0
  4  2  1  0
  6  4  1  0
  7  6  1  0
  7 15  1  0
  7  8  1  1
  9  8  1  0
 10  9  2  0
 11 10  1  0
 12 11  2  0
 12 13  1  0
 13 14  2  0
 14  9  1  0
 15 17  1  0
 16 15  2  0
 17 18  1  0
 19 21  1  0
 19 18  1  0
 20 19  2  0
M  END
$$$$
