AFG.pdb
     RDKit          3D

 21 21  0  0  1  0  0  0  0  0999 V2000
   24.5413   -7.0918  -20.9313 C   0  0  0  0  0  0  0  0  0  0  0  0
   25.3775   -7.9974  -20.0277 C   0  0  2  0  0  0  0  0  0  0  0  0
   25.7139   -9.1655  -20.7815 N   0  0  0  0  0  0  0  0  0  0  0  0
   24.5389   -8.3246  -18.8287 C   0  0  0  0  0  0  0  0  0  0  0  0
   23.6995   -9.2543  -18.9428 O   0  0  0  0  0  0  0  0  0  0  0  0
   24.6401   -7.6586  -17.6066 N   0  0  0  0  0  0  0  0  0  0  0  0
   23.8093   -8.0255  -16.4554 C   0  0  1  0  0  0  0  0  0  0  0  0
   24.6639   -8.3925  -15.2891 C   0  0  0  0  0  0  0  0  0  0  0  0
   25.5300   -9.5484  -15.4469 C   0  0  0  0  0  0  0  0  0  0  0  0
   26.8173   -9.4779  -15.9763 C   0  0  0  0  0  0  0  0  0  0  0  0
   27.6380  -10.5756  -16.1116 C   0  0  0  0  0  0  0  0  0  0  0  0
   27.1808  -11.8032  -15.7109 C   0  0  0  0  0  0  0  0  0  0  0  0
   25.9222  -11.8945  -15.1894 C   0  0  0  0  0  0  0  0  0  0  0  0
   25.0878  -10.7934  -15.0490 C   0  0  0  0  0  0  0  0  0  0  0  0
   22.9122   -6.9205  -16.0827 C   0  0  0  0  0  0  0  0  0  0  0  0
   23.2989   -5.7259  -16.0571 O   0  0  0  0  0  0  0  0  0  0  0  0
   21.5386   -7.1334  -15.7244 N   0  0  0  0  0  0  0  0  0  0  0  0
   20.7084   -6.0183  -15.3122 C   0  0  0  0  0  0  0  0  0  0  0  0
   19.9516   -5.4448  -16.4375 C   0  0  0  0  0  0  0  0  0  0  0  0
   19.1306   -4.5141  -16.2465 O   0  0  0  0  0  0  0  0  0  0  0  0
   20.1788   -5.9702  -17.7152 O   0  0  0  0  0  0  0  0  0  0  0  0
  2  1  1  6
  3  2  1  0
  4  5  2  0
  4  2  1  0
  6  4  1  0
  7  6  1  0
  7 15  1  0
  7  8  1  1
  9  8  1  0
 10  9  2  0
 11 10  1  0
 12 11  2  0
 12 13  1  0
 13 14  2  0
 14  9  1  0
 15 17  1  0
 16 15  2  0
 17 18  1  0
 19 21  1  0
 19 18  1  0
 20 19  2  0
M  END
$$$$
