AFG.pdb
     RDKit          3D

 21 21  0  0  1  0  0  0  0  0999 V2000
   21.9821   -9.9223  -20.4280 C   0  0  0  0  0  0  0  0  0  0  0  0
   23.2690  -10.1930  -19.6493 C   0  0  2  0  0  0  0  0  0  0  0  0
   23.5084  -11.6026  -19.6901 N   0  0  0  0  0  0  0  0  0  0  0  0
   23.0529   -9.7001  -18.2499 C   0  0  0  0  0  0  0  0  0  0  0  0
   22.5025  -10.4850  -17.4357 O   0  0  0  0  0  0  0  0  0  0  0  0
   23.4266   -8.4300  -17.8089 N   0  0  0  0  0  0  0  0  0  0  0  0
   23.2927   -8.0290  -16.4049 C   0  0  1  0  0  0  0  0  0  0  0  0
   24.6139   -7.6126  -15.8511 C   0  0  0  0  0  0  0  0  0  0  0  0
   25.6916   -8.5845  -15.9215 C   0  0  0  0  0  0  0  0  0  0  0  0
   26.6884   -8.5580  -16.8952 C   0  0  0  0  0  0  0  0  0  0  0  0
   27.7145   -9.4751  -16.9488 C   0  0  0  0  0  0  0  0  0  0  0  0
   27.7717  -10.4673  -16.0062 C   0  0  0  0  0  0  0  0  0  0  0  0
   26.8048  -10.5115  -15.0430 C   0  0  0  0  0  0  0  0  0  0  0  0
   25.7667   -9.5913  -14.9810 C   0  0  0  0  0  0  0  0  0  0  0  0
   22.3281   -6.9269  -16.2640 C   0  0  0  0  0  0  0  0  0  0  0  0
   22.3291   -5.9357  -17.0353 O   0  0  0  0  0  0  0  0  0  0  0  0
   21.3240   -6.9111  -15.2384 N   0  0  0  0  0  0  0  0  0  0  0  0
   20.4146   -5.7877  -15.1217 C   0  0  0  0  0  0  0  0  0  0  0  0
   19.1477   -6.0236  -15.8338 C   0  0  0  0  0  0  0  0  0  0  0  0
   18.9835   -7.0639  -16.5175 O   0  0  0  0  0  0  0  0  0  0  0  0
   18.1431   -5.0548  -15.7216 O   0  0  0  0  0  0  0  0  0  0  0  0
  2  1  1  6
  3  2  1  0
  4  5  2  0
  4  2  1  0
  6  4  1  0
  7  6  1  0
  7 15  1  0
  7  8  1  6
  9  8  1  0
 10  9  2  0
 11 10  1  0
 12 11  2  0
 12 13  1  0
 13 14  2  0
 14  9  1  0
 15 17  1  0
 16 15  2  0
 17 18  1  0
 19 21  1  0
 19 18  1  0
 20 19  2  0
M  END
$$$$
