AFG.pdb
     RDKit          3D

 21 21  0  0  1  0  0  0  0  0999 V2000
   24.9641  -20.7055  -16.5479 C   0  0  0  0  0  0  0  0  0  0  0  0
   25.7030  -21.8605  -15.8730 C   0  0  2  0  0  0  0  0  0  0  0  0
   25.3156  -23.0664  -16.5374 N   0  0  0  0  0  0  0  0  0  0  0  0
   25.3010  -21.8609  -14.4285 C   0  0  0  0  0  0  0  0  0  0  0  0
   24.3137  -22.5676  -14.1002 O   0  0  0  0  0  0  0  0  0  0  0  0
   25.9579  -21.1260  -13.4407 N   0  0  0  0  0  0  0  0  0  0  0  0
   25.4839  -21.0996  -12.0534 C   0  0  1  0  0  0  0  0  0  0  0  0
   26.5683  -20.6388  -11.1384 C   0  0  0  0  0  0  0  0  0  0  0  0
   26.2133  -20.4483   -9.7424 C   0  0  0  0  0  0  0  0  0  0  0  0
   25.5092  -21.3889   -8.9929 C   0  0  0  0  0  0  0  0  0  0  0  0
   25.1868  -21.2076   -7.6663 C   0  0  0  0  0  0  0  0  0  0  0  0
   25.5700  -20.0516   -7.0392 C   0  0  0  0  0  0  0  0  0  0  0  0
   26.2610  -19.1167   -7.7553 C   0  0  0  0  0  0  0  0  0  0  0  0
   26.5905  -19.2909   -9.0930 C   0  0  0  0  0  0  0  0  0  0  0  0
   24.3134  -20.2187  -11.9159 C   0  0  0  0  0  0  0  0  0  0  0  0
   24.2687  -19.0802  -12.4444 O   0  0  0  0  0  0  0  0  0  0  0  0
   23.1476  -20.6005  -11.1706 N   0  0  0  0  0  0  0  0  0  0  0  0
   22.0322  -19.6838  -11.0362 C   0  0  0  0  0  0  0  0  0  0  0  0
   20.9035  -20.0523  -11.9069 C   0  0  0  0  0  0  0  0  0  0  0  0
   21.1078  -20.5003  -13.0620 O   0  0  0  0  0  0  0  0  0  0  0  0
   19.6073  -19.8864  -11.4044 O   0  0  0  0  0  0  0  0  0  0  0  0
  2  1  1  6
  3  2  1  0
  4  5  2  0
  4  2  1  0
  6  4  1  0
  7  6  1  0
  7 15  1  0
  7  8  1  1
  9  8  1  0
 10  9  2  0
 11 10  1  0
 12 11  2  0
 12 13  1  0
 13 14  2  0
 14  9  1  0
 15 17  1  0
 16 15  2  0
 17 18  1  0
 19 21  1  0
 19 18  1  0
 20 19  2  0
M  END
$$$$
