AFG.pdb
     RDKit          3D

 21 21  0  0  1  0  0  0  0  0999 V2000
   26.3328  -21.1547  -17.7083 C   0  0  0  0  0  0  0  0  0  0  0  0
   27.5873  -21.3383  -16.8550 C   0  0  2  0  0  0  0  0  0  0  0  0
   28.3428  -22.4106  -17.4253 N   0  0  0  0  0  0  0  0  0  0  0  0
   27.1337  -21.6501  -15.4603 C   0  0  0  0  0  0  0  0  0  0  0  0
   26.8169  -22.8402  -15.2047 O   0  0  0  0  0  0  0  0  0  0  0  0
   27.0458  -20.6992  -14.4428 N   0  0  0  0  0  0  0  0  0  0  0  0
   26.6241  -21.0573  -13.0849 C   0  0  1  0  0  0  0  0  0  0  0  0
   27.4170  -20.2995  -12.0737 C   0  0  0  0  0  0  0  0  0  0  0  0
   27.0008  -20.4210  -10.6869 C   0  0  0  0  0  0  0  0  0  0  0  0
   25.8529  -19.8203  -10.1732 C   0  0  0  0  0  0  0  0  0  0  0  0
   25.4573  -19.9498   -8.8605 C   0  0  0  0  0  0  0  0  0  0  0  0
   26.2186  -20.7024   -8.0059 C   0  0  0  0  0  0  0  0  0  0  0  0
   27.3474  -21.2999   -8.4888 C   0  0  0  0  0  0  0  0  0  0  0  0
   27.7541  -21.1751   -9.8107 C   0  0  0  0  0  0  0  0  0  0  0  0
   25.1905  -20.7872  -12.8926 C   0  0  0  0  0  0  0  0  0  0  0  0
   24.6147  -19.8149  -13.4408 O   0  0  0  0  0  0  0  0  0  0  0  0
   24.3566  -21.6146  -12.0678 N   0  0  0  0  0  0  0  0  0  0  0  0
   23.0155  -21.9605  -12.4972 C   0  0  0  0  0  0  0  0  0  0  0  0
   22.0624  -20.8595  -12.2800 C   0  0  0  0  0  0  0  0  0  0  0  0
   21.7090  -20.5407  -11.1180 O   0  0  0  0  0  0  0  0  0  0  0  0
   21.5698  -20.1881  -13.4055 O   0  0  0  0  0  0  0  0  0  0  0  0
  2  1  1  6
  3  2  1  0
  4  5  2  0
  4  2  1  0
  6  4  1  0
  7  6  1  0
  7 15  1  0
  7  8  1  1
  9  8  1  0
 10  9  2  0
 11 10  1  0
 12 11  2  0
 12 13  1  0
 13 14  2  0
 14  9  1  0
 15 17  1  0
 16 15  2  0
 17 18  1  0
 19 21  1  0
 19 18  1  0
 20 19  2  0
M  END
$$$$
