AFG.pdb
     RDKit          3D

 21 21  0  0  1  0  0  0  0  0999 V2000
   25.5005  -16.7621  -16.1491 C   0  0  0  0  0  0  0  0  0  0  0  0
   26.8790  -17.2638  -15.7204 C   0  0  2  0  0  0  0  0  0  0  0  0
   27.7785  -17.0336  -16.8084 N   0  0  0  0  0  0  0  0  0  0  0  0
   26.7417  -18.7230  -15.4041 C   0  0  0  0  0  0  0  0  0  0  0  0
   26.7637  -19.5311  -16.3677 O   0  0  0  0  0  0  0  0  0  0  0  0
   26.5923  -19.2253  -14.1107 N   0  0  0  0  0  0  0  0  0  0  0  0
   26.6218  -20.6646  -13.8325 C   0  0  1  0  0  0  0  0  0  0  0  0
   27.3288  -20.9349  -12.5470 C   0  0  0  0  0  0  0  0  0  0  0  0
   26.5739  -20.7206  -11.3242 C   0  0  0  0  0  0  0  0  0  0  0  0
   25.7378  -21.6815  -10.7585 C   0  0  0  0  0  0  0  0  0  0  0  0
   25.0346  -21.4765   -9.5923 C   0  0  0  0  0  0  0  0  0  0  0  0
   25.1524  -20.2748   -8.9453 C   0  0  0  0  0  0  0  0  0  0  0  0
   25.9666  -19.3193   -9.4825 C   0  0  0  0  0  0  0  0  0  0  0  0
   26.6794  -19.5171  -10.6577 C   0  0  0  0  0  0  0  0  0  0  0  0
   25.2586  -21.2150  -13.7722 C   0  0  0  0  0  0  0  0  0  0  0  0
   25.0394  -22.4359  -13.5752 O   0  0  0  0  0  0  0  0  0  0  0  0
   24.0912  -20.3957  -13.9342 N   0  0  0  0  0  0  0  0  0  0  0  0
   22.7687  -20.9883  -13.8865 C   0  0  0  0  0  0  0  0  0  0  0  0
   22.1854  -20.9345  -12.5357 C   0  0  0  0  0  0  0  0  0  0  0  0
   22.5454  -21.7503  -11.6516 O   0  0  0  0  0  0  0  0  0  0  0  0
   21.2242  -19.9501  -12.2761 O   0  0  0  0  0  0  0  0  0  0  0  0
  2  1  1  6
  3  2  1  0
  4  5  2  0
  4  2  1  0
  6  4  1  0
  7  6  1  0
  7 15  1  0
  7  8  1  1
  9  8  1  0
 10  9  2  0
 11 10  1  0
 12 11  2  0
 12 13  1  0
 13 14  2  0
 14  9  1  0
 15 17  1  0
 16 15  2  0
 17 18  1  0
 19 21  1  0
 19 18  1  0
 20 19  2  0
M  END
$$$$
