AFG.pdb
     RDKit          3D

 21 21  0  0  1  0  0  0  0  0999 V2000
   22.2947  -23.1212   -7.1285 C   0  0  0  0  0  0  0  0  0  0  0  0
   22.8433  -21.9799   -6.2727 C   0  0  2  0  0  0  0  0  0  0  0  0
   21.7247  -21.2664   -5.7383 N   0  0  0  0  0  0  0  0  0  0  0  0
   23.6836  -21.1187   -7.1673 C   0  0  0  0  0  0  0  0  0  0  0  0
   23.1609  -20.0688   -7.6217 O   0  0  0  0  0  0  0  0  0  0  0  0
   25.0007  -21.4182   -7.5178 N   0  0  0  0  0  0  0  0  0  0  0  0
   25.7827  -20.5467   -8.4004 C   0  0  1  0  0  0  0  0  0  0  0  0
   27.2226  -20.5635   -8.0107 C   0  0  0  0  0  0  0  0  0  0  0  0
   27.5546  -20.0333   -6.6992 C   0  0  0  0  0  0  0  0  0  0  0  0
   27.5036  -18.6770   -6.3829 C   0  0  0  0  0  0  0  0  0  0  0  0
   27.8074  -18.1821   -5.1341 C   0  0  0  0  0  0  0  0  0  0  0  0
   28.1795  -19.0530   -4.1444 C   0  0  0  0  0  0  0  0  0  0  0  0
   28.2359  -20.3864   -4.4331 C   0  0  0  0  0  0  0  0  0  0  0  0
   27.9313  -20.8944   -5.6891 C   0  0  0  0  0  0  0  0  0  0  0  0
   25.6458  -20.9639   -9.8048 C   0  0  0  0  0  0  0  0  0  0  0  0
   26.0256  -22.0916  -10.2066 O   0  0  0  0  0  0  0  0  0  0  0  0
   25.0706  -20.1121  -10.8068 N   0  0  0  0  0  0  0  0  0  0  0  0
   24.9836  -20.5575  -12.1839 C   0  0  0  0  0  0  0  0  0  0  0  0
   24.3611  -19.5470  -13.0553 C   0  0  0  0  0  0  0  0  0  0  0  0
   23.6735  -18.6176  -12.5653 O   0  0  0  0  0  0  0  0  0  0  0  0
   24.5623  -19.6596  -14.4362 O   0  0  0  0  0  0  0  0  0  0  0  0
  2  1  1  6
  3  2  1  0
  4  5  2  0
  4  2  1  0
  6  4  1  0
  7  6  1  0
  7 15  1  0
  7  8  1  1
  9  8  1  0
 10  9  2  0
 11 10  1  0
 12 11  2  0
 12 13  1  0
 13 14  2  0
 14  9  1  0
 15 17  1  0
 16 15  2  0
 17 18  1  0
 19 21  1  0
 19 18  1  0
 20 19  2  0
M  END
$$$$
