ASW.pdb
     RDKit          3D

 26 27  0  0  1  0  0  0  0  0999 V2000
    8.4905  -12.2532   19.6148 C   0  0  0  0  0  0  0  0  0  0  0  0
    8.1951  -13.6181   19.0549 C   0  0  2  0  0  0  0  0  0  0  0  0
    6.9323  -13.5661   18.3725 N   0  0  0  0  0  0  0  0  0  0  0  0
    8.1945  -14.5979   20.1709 C   0  0  0  0  0  0  0  0  0  0  0  0
    7.2083  -14.6547   20.9464 O   0  0  0  0  0  0  0  0  0  0  0  0
   11.0485  -17.6079   20.4900 O   0  0  0  0  0  0  0  0  0  0  0  0
    9.7570  -17.7793   20.9444 C   0  0  0  0  0  0  0  0  0  0  0  0
    9.1456  -16.4763   21.4257 C   0  0  2  0  0  0  0  0  0  0  0  0
    9.2711  -15.4893   20.4100 N   0  0  0  0  0  0  0  0  0  0  0  0
    9.8415  -16.1238   22.6880 C   0  0  0  0  0  0  0  0  0  0  0  0
   10.9645  -15.5646   22.5640 O   0  0  0  0  0  0  0  0  0  0  0  0
    9.2934  -16.3915   23.9712 N   0  0  0  0  0  0  0  0  0  0  0  0
   10.1683  -16.1895   25.1174 C   0  0  1  0  0  0  0  0  0  0  0  0
    9.8720  -14.8844   25.8150 C   0  0  0  0  0  0  0  0  0  0  0  0
    8.4023  -14.6880   25.8202 C   0  0  0  0  0  0  0  0  0  0  0  0
    7.4119  -15.6398   25.5867 C   0  0  0  0  0  0  0  0  0  0  0  0
    6.2062  -15.0535   25.6765 N   0  0  0  0  0  0  0  0  0  0  0  0
    6.3583  -13.7408   25.9626 C   0  0  0  0  0  0  0  0  0  0  0  0
    5.4346  -12.7224   26.1535 C   0  0  0  0  0  0  0  0  0  0  0  0
    5.9220  -11.4656   26.4373 C   0  0  0  0  0  0  0  0  0  0  0  0
    7.2867  -11.2342   26.5273 C   0  0  0  0  0  0  0  0  0  0  0  0
    8.2060  -12.2586   26.3350 C   0  0  0  0  0  0  0  0  0  0  0  0
    7.7113  -13.5065   26.0531 C   0  0  0  0  0  0  0  0  0  0  0  0
    9.8870  -17.2828   26.0777 C   0  0  0  0  0  0  0  0  0  0  0  0
   10.4970  -17.3903   27.1784 O   0  0  0  0  0  0  0  0  0  0  0  0
    8.9144  -18.2207   25.7477 O   0  0  0  0  0  0  0  0  0  0  0  0
  2  1  1  1
  3  2  1  0
  4  2  1  0
  4  9  1  0
  5  4  2  0
  6  7  1  0
  8  7  1  6
  8  9  1  0
 10 11  2  0
 10  8  1  0
 12 10  1  0
 13 12  1  0
 13 14  1  1
 15 14  1  0
 15 16  2  0
 17 16  1  0
 18 17  1  0
 19 18  2  0
 20 19  1  0
 21 20  2  0
 21 22  1  0
 22 23  2  0
 23 18  1  0
 23 15  1  0
 24 13  1  0
 25 24  2  0
 26 24  1  0
M  END
$$$$
