ASW.pdb
     RDKit          3D

 26 27  0  0  1  0  0  0  0  0999 V2000
    7.9981  -12.1830   19.9270 C   0  0  0  0  0  0  0  0  0  0  0  0
    8.1842  -13.5368   19.2975 C   0  0  2  0  0  0  0  0  0  0  0  0
    7.2134  -13.6886   18.2500 N   0  0  0  0  0  0  0  0  0  0  0  0
    8.0442  -14.5728   20.3523 C   0  0  0  0  0  0  0  0  0  0  0  0
    6.8987  -14.9308   20.7223 O   0  0  0  0  0  0  0  0  0  0  0  0
   10.8552  -17.3153   21.0018 O   0  0  0  0  0  0  0  0  0  0  0  0
    9.5695  -17.5042   21.4659 C   0  0  0  0  0  0  0  0  0  0  0  0
    8.9408  -16.2080   21.9429 C   0  0  2  0  0  0  0  0  0  0  0  0
    9.1590  -15.1899   20.9745 N   0  0  0  0  0  0  0  0  0  0  0  0
    9.5409  -15.9092   23.2667 C   0  0  0  0  0  0  0  0  0  0  0  0
   10.4853  -15.0743   23.2712 O   0  0  0  0  0  0  0  0  0  0  0  0
    9.0934  -16.5166   24.4707 N   0  0  0  0  0  0  0  0  0  0  0  0
    9.9241  -16.3299   25.6520 C   0  0  1  0  0  0  0  0  0  0  0  0
    9.0882  -16.0363   26.8739 C   0  0  0  0  0  0  0  0  0  0  0  0
    7.8493  -15.3523   26.4311 C   0  0  0  0  0  0  0  0  0  0  0  0
    6.7021  -15.9281   25.8890 C   0  0  0  0  0  0  0  0  0  0  0  0
    5.8104  -14.9611   25.6144 N   0  0  0  0  0  0  0  0  0  0  0  0
    6.3240  -13.7578   25.9553 C   0  0  0  0  0  0  0  0  0  0  0  0
    5.8056  -12.4729   25.8706 C   0  0  0  0  0  0  0  0  0  0  0  0
    6.5983  -11.4361   26.3113 C   0  0  0  0  0  0  0  0  0  0  0  0
    7.8665  -11.6752   26.8196 C   0  0  0  0  0  0  0  0  0  0  0  0
    8.3794  -12.9642   26.9016 C   0  0  0  0  0  0  0  0  0  0  0  0
    7.5829  -13.9901   26.4605 C   0  0  0  0  0  0  0  0  0  0  0  0
   10.6324  -17.6093   25.8926 C   0  0  0  0  0  0  0  0  0  0  0  0
   10.3793  -18.6570   25.2341 O   0  0  0  0  0  0  0  0  0  0  0  0
   11.6101  -17.6499   26.8809 O   0  0  0  0  0  0  0  0  0  0  0  0
  2  1  1  1
  3  2  1  0
  4  2  1  0
  4  9  1  0
  5  4  2  0
  6  7  1  0
  8  7  1  6
  8  9  1  0
 10 11  2  0
 10  8  1  0
 12 10  1  0
 13 12  1  0
 13 14  1  1
 15 14  1  0
 15 16  2  0
 17 16  1  0
 18 17  1  0
 19 18  2  0
 20 19  1  0
 21 20  2  0
 21 22  1  0
 22 23  2  0
 23 18  1  0
 23 15  1  0
 24 13  1  0
 25 24  2  0
 26 24  1  0
M  END
$$$$
