ASW.pdb
     RDKit          3D

 26 27  0  0  1  0  0  0  0  0999 V2000
    8.3309  -12.2211   19.6545 C   0  0  0  0  0  0  0  0  0  0  0  0
    8.3848  -13.6302   19.1297 C   0  0  2  0  0  0  0  0  0  0  0  0
    7.4215  -13.7588   18.0722 N   0  0  0  0  0  0  0  0  0  0  0  0
    8.1190  -14.5644   20.2531 C   0  0  0  0  0  0  0  0  0  0  0  0
    6.9351  -14.8732   20.5365 O   0  0  0  0  0  0  0  0  0  0  0  0
   10.4705  -17.5603   21.0490 O   0  0  0  0  0  0  0  0  0  0  0  0
    9.1717  -17.4903   21.5096 C   0  0  0  0  0  0  0  0  0  0  0  0
    8.8244  -16.1054   22.0238 C   0  0  2  0  0  0  0  0  0  0  0  0
    9.1532  -15.1362   21.0367 N   0  0  0  0  0  0  0  0  0  0  0  0
    9.5624  -15.9307   23.2992 C   0  0  0  0  0  0  0  0  0  0  0  0
   10.6558  -15.3076   23.2257 O   0  0  0  0  0  0  0  0  0  0  0  0
    9.0838  -16.4280   24.5411 N   0  0  0  0  0  0  0  0  0  0  0  0
    9.9662  -16.2896   25.6912 C   0  0  1  0  0  0  0  0  0  0  0  0
    9.2083  -15.8451   26.9182 C   0  0  0  0  0  0  0  0  0  0  0  0
    7.9222  -15.2538   26.4764 C   0  0  0  0  0  0  0  0  0  0  0  0
    6.7941  -15.9191   26.0010 C   0  0  0  0  0  0  0  0  0  0  0  0
    5.8437  -15.0177   25.7012 N   0  0  0  0  0  0  0  0  0  0  0  0
    6.2998  -13.7716   25.9607 C   0  0  0  0  0  0  0  0  0  0  0  0
    5.7097  -12.5228   25.8220 C   0  0  0  0  0  0  0  0  0  0  0  0
    6.4562  -11.4223   26.1818 C   0  0  0  0  0  0  0  0  0  0  0  0
    7.7489  -11.5649   26.6640 C   0  0  0  0  0  0  0  0  0  0  0  0
    8.3335  -12.8183   26.8004 C   0  0  0  0  0  0  0  0  0  0  0  0
    7.5826  -13.9081   26.4398 C   0  0  0  0  0  0  0  0  0  0  0  0
   10.5260  -17.6324   25.9742 C   0  0  0  0  0  0  0  0  0  0  0  0
   10.1461  -18.6674   25.3582 O   0  0  0  0  0  0  0  0  0  0  0  0
   11.5051  -17.7489   26.9552 O   0  0  0  0  0  0  0  0  0  0  0  0
  2  1  1  1
  3  2  1  0
  4  2  1  0
  4  9  1  0
  5  4  2  0
  6  7  1  0
  8  7  1  6
  8  9  1  0
 10 11  2  0
 10  8  1  0
 12 10  1  0
 13 12  1  0
 13 14  1  1
 15 14  1  0
 15 16  2  0
 17 16  1  0
 18 17  1  0
 19 18  2  0
 20 19  1  0
 21 20  2  0
 21 22  1  0
 22 23  2  0
 23 18  1  0
 23 15  1  0
 24 13  1  0
 25 24  2  0
 26 24  1  0
M  END
$$$$
