ASW.pdb
     RDKit          3D

 26 27  0  0  1  0  0  0  0  0999 V2000
    7.4101  -12.6613   18.6753 C   0  0  0  0  0  0  0  0  0  0  0  0
    8.6280  -13.4802   19.0068 C   0  0  2  0  0  0  0  0  0  0  0  0
    9.0301  -14.1950   17.8277 N   0  0  0  0  0  0  0  0  0  0  0  0
    8.2951  -14.3894   20.1329 C   0  0  0  0  0  0  0  0  0  0  0  0
    7.9015  -13.9077   21.2239 O   0  0  0  0  0  0  0  0  0  0  0  0
    9.4761  -18.3482   20.2042 O   0  0  0  0  0  0  0  0  0  0  0  0
    8.2769  -18.0650   20.8253 C   0  0  0  0  0  0  0  0  0  0  0  0
    8.1579  -16.5967   21.1897 C   0  0  2  0  0  0  0  0  0  0  0  0
    8.4011  -15.8002   20.0372 N   0  0  0  0  0  0  0  0  0  0  0  0
    9.1196  -16.3559   22.2938 C   0  0  0  0  0  0  0  0  0  0  0  0
   10.2725  -15.9780   21.9518 O   0  0  0  0  0  0  0  0  0  0  0  0
    8.7824  -16.5346   23.6624 N   0  0  0  0  0  0  0  0  0  0  0  0
    9.8539  -16.3634   24.6335 C   0  0  1  0  0  0  0  0  0  0  0  0
    9.7476  -15.0365   25.3446 C   0  0  0  0  0  0  0  0  0  0  0  0
    8.3144  -14.7756   25.6216 C   0  0  0  0  0  0  0  0  0  0  0  0
    7.2526  -15.6751   25.5510 C   0  0  0  0  0  0  0  0  0  0  0  0
    6.1133  -15.0391   25.8718 N   0  0  0  0  0  0  0  0  0  0  0  0
    6.3788  -13.7439   26.1547 C   0  0  0  0  0  0  0  0  0  0  0  0
    5.5559  -12.6920   26.5332 C   0  0  0  0  0  0  0  0  0  0  0  0
    6.1477  -11.4673   26.7516 C   0  0  0  0  0  0  0  0  0  0  0  0
    7.5158  -11.2994   26.5969 C   0  0  0  0  0  0  0  0  0  0  0  0
    8.3339  -12.3569   26.2177 C   0  0  0  0  0  0  0  0  0  0  0  0
    7.7358  -13.5725   26.0027 C   0  0  0  0  0  0  0  0  0  0  0  0
    9.6937  -17.4292   25.6508 C   0  0  0  0  0  0  0  0  0  0  0  0
    8.6694  -18.1664   25.7028 O   0  0  0  0  0  0  0  0  0  0  0  0
   10.7125  -17.6185   26.5784 O   0  0  0  0  0  0  0  0  0  0  0  0
  2  1  1  6
  3  2  1  0
  4  2  1  0
  4  9  1  0
  5  4  2  0
  6  7  1  0
  8  7  1  6
  8  9  1  0
 10 11  2  0
 10  8  1  0
 12 10  1  0
 13 12  1  0
 13 14  1  1
 15 14  1  0
 15 16  2  0
 17 16  1  0
 18 17  1  0
 19 18  2  0
 20 19  1  0
 21 20  2  0
 21 22  1  0
 22 23  2  0
 23 18  1  0
 23 15  1  0
 24 13  1  0
 25 24  2  0
 26 24  1  0
M  END
$$$$
