ASW.pdb
     RDKit          3D

 26 27  0  0  1  0  0  0  0  0999 V2000
    7.2347  -12.6361   18.7877 C   0  0  0  0  0  0  0  0  0  0  0  0
    8.5128  -13.3565   19.1211 C   0  0  2  0  0  0  0  0  0  0  0  0
    8.9810  -14.0231   17.9382 N   0  0  0  0  0  0  0  0  0  0  0  0
    8.2467  -14.3022   20.2349 C   0  0  0  0  0  0  0  0  0  0  0  0
    7.8191  -13.8646   21.3316 O   0  0  0  0  0  0  0  0  0  0  0  0
    9.6252  -18.1842   20.1726 O   0  0  0  0  0  0  0  0  0  0  0  0
    8.4512  -17.9819   20.8688 C   0  0  0  0  0  0  0  0  0  0  0  0
    8.2660  -16.5278   21.2615 C   0  0  2  0  0  0  0  0  0  0  0  0
    8.4548  -15.7002   20.1208 N   0  0  0  0  0  0  0  0  0  0  0  0
    9.2297  -16.2600   22.3576 C   0  0  0  0  0  0  0  0  0  0  0  0
   10.3739  -15.8654   22.0053 O   0  0  0  0  0  0  0  0  0  0  0  0
    8.9036  -16.4316   23.7298 N   0  0  0  0  0  0  0  0  0  0  0  0
    9.9908  -16.2928   24.6885 C   0  0  1  0  0  0  0  0  0  0  0  0
    9.8324  -15.0474   25.5262 C   0  0  0  0  0  0  0  0  0  0  0  0
    8.3832  -14.8152   25.7373 C   0  0  0  0  0  0  0  0  0  0  0  0
    7.3457  -15.7397   25.6358 C   0  0  0  0  0  0  0  0  0  0  0  0
    6.1797  -15.1251   25.8971 N   0  0  0  0  0  0  0  0  0  0  0  0
    6.4039  -13.8200   26.1700 C   0  0  0  0  0  0  0  0  0  0  0  0
    5.5423  -12.7816   26.4957 C   0  0  0  0  0  0  0  0  0  0  0  0
    6.0967  -11.5405   26.7193 C   0  0  0  0  0  0  0  0  0  0  0  0
    7.4662  -11.3437   26.6207 C   0  0  0  0  0  0  0  0  0  0  0  0
    8.3231  -12.3879   26.2942 C   0  0  0  0  0  0  0  0  0  0  0  0
    7.7620  -13.6200   26.0735 C   0  0  0  0  0  0  0  0  0  0  0  0
    9.9170  -17.4576   25.6019 C   0  0  0  0  0  0  0  0  0  0  0  0
    8.9247  -18.2387   25.6235 O   0  0  0  0  0  0  0  0  0  0  0  0
   10.9832  -17.6928   26.4635 O   0  0  0  0  0  0  0  0  0  0  0  0
  2  1  1  6
  3  2  1  0
  4  2  1  0
  4  9  1  0
  5  4  2  0
  6  7  1  0
  8  7  1  6
  8  9  1  0
 10 11  2  0
 10  8  1  0
 12 10  1  0
 13 12  1  0
 13 14  1  1
 15 14  1  0
 15 16  2  0
 17 16  1  0
 18 17  1  0
 19 18  2  0
 20 19  1  0
 21 20  2  0
 21 22  1  0
 22 23  2  0
 23 18  1  0
 23 15  1  0
 24 13  1  0
 25 24  2  0
 26 24  1  0
M  END
$$$$
