ASW.pdb
     RDKit          3D

 26 27  0  0  1  0  0  0  0  0999 V2000
    8.6192  -12.1588   19.5107 C   0  0  0  0  0  0  0  0  0  0  0  0
    8.3809  -13.5324   18.9447 C   0  0  2  0  0  0  0  0  0  0  0  0
    7.2981  -13.4551   18.0043 N   0  0  0  0  0  0  0  0  0  0  0  0
    8.0908  -14.4626   20.0655 C   0  0  0  0  0  0  0  0  0  0  0  0
    6.9531  -14.4577   20.5974 O   0  0  0  0  0  0  0  0  0  0  0  0
   10.1913  -17.8720   20.7269 O   0  0  0  0  0  0  0  0  0  0  0  0
    8.9254  -17.6769   21.2400 C   0  0  0  0  0  0  0  0  0  0  0  0
    8.6934  -16.2340   21.6487 C   0  0  2  0  0  0  0  0  0  0  0  0
    9.0511  -15.3730   20.5751 N   0  0  0  0  0  0  0  0  0  0  0  0
    9.4887  -16.0108   22.8814 C   0  0  0  0  0  0  0  0  0  0  0  0
   10.6127  -15.4625   22.7239 O   0  0  0  0  0  0  0  0  0  0  0  0
    9.0300  -16.3851   24.1730 N   0  0  0  0  0  0  0  0  0  0  0  0
   10.0083  -16.3669   25.2514 C   0  0  1  0  0  0  0  0  0  0  0  0
    9.6968  -15.2895   26.2613 C   0  0  0  0  0  0  0  0  0  0  0  0
    8.2497  -14.9783   26.1715 C   0  0  0  0  0  0  0  0  0  0  0  0
    7.1935  -15.8688   25.9909 C   0  0  0  0  0  0  0  0  0  0  0  0
    6.0386  -15.1828   25.9570 N   0  0  0  0  0  0  0  0  0  0  0  0
    6.2884  -13.8627   26.1091 C   0  0  0  0  0  0  0  0  0  0  0  0
    5.4464  -12.7597   26.1438 C   0  0  0  0  0  0  0  0  0  0  0  0
    6.0254  -11.5217   26.3165 C   0  0  0  0  0  0  0  0  0  0  0  0
    7.3998  -11.3904   26.4501 C   0  0  0  0  0  0  0  0  0  0  0  0
    8.2370  -12.4991   26.4145 C   0  0  0  0  0  0  0  0  0  0  0  0
    7.6514  -13.7275   26.2423 C   0  0  0  0  0  0  0  0  0  0  0  0
    9.9135  -17.6720   25.9471 C   0  0  0  0  0  0  0  0  0  0  0  0
    8.9859  -18.4970   25.7144 O   0  0  0  0  0  0  0  0  0  0  0  0
   10.8851  -17.9929   26.8892 O   0  0  0  0  0  0  0  0  0  0  0  0
  2  1  1  1
  3  2  1  0
  4  2  1  0
  4  9  1  0
  5  4  2  0
  6  7  1  0
  8  7  1  6
  8  9  1  0
 10 11  2  0
 10  8  1  0
 12 10  1  0
 13 12  1  0
 13 14  1  1
 15 14  1  0
 15 16  2  0
 17 16  1  0
 18 17  1  0
 19 18  2  0
 20 19  1  0
 21 20  2  0
 21 22  1  0
 22 23  2  0
 23 18  1  0
 23 15  1  0
 24 13  1  0
 25 24  2  0
 26 24  1  0
M  END
$$$$
