ASW.pdb
     RDKit          3D

 26 27  0  0  1  0  0  0  0  0999 V2000
    8.6321  -12.3434   19.5670 C   0  0  0  0  0  0  0  0  0  0  0  0
    8.4916  -13.7443   19.0363 C   0  0  2  0  0  0  0  0  0  0  0  0
    7.3705  -13.7805   18.1393 N   0  0  0  0  0  0  0  0  0  0  0  0
    8.3267  -14.6714   20.1848 C   0  0  0  0  0  0  0  0  0  0  0  0
    7.1729  -14.9656   20.5840 O   0  0  0  0  0  0  0  0  0  0  0  0
   11.2415  -17.3094   21.0980 O   0  0  0  0  0  0  0  0  0  0  0  0
    9.9127  -17.5456   21.3852 C   0  0  0  0  0  0  0  0  0  0  0  0
    9.1909  -16.2825   21.8173 C   0  0  2  0  0  0  0  0  0  0  0  0
    9.4264  -15.2522   20.8661 N   0  0  0  0  0  0  0  0  0  0  0  0
    9.6830  -15.9594   23.1794 C   0  0  0  0  0  0  0  0  0  0  0  0
   10.5864  -15.0831   23.2487 O   0  0  0  0  0  0  0  0  0  0  0  0
    9.1800  -16.5883   24.3500 N   0  0  0  0  0  0  0  0  0  0  0  0
    9.7895  -16.2082   25.6166 C   0  0  1  0  0  0  0  0  0  0  0  0
    8.7958  -16.2784   26.7504 C   0  0  0  0  0  0  0  0  0  0  0  0
    7.6349  -15.4253   26.3993 C   0  0  0  0  0  0  0  0  0  0  0  0
    6.4032  -15.8267   25.8864 C   0  0  0  0  0  0  0  0  0  0  0  0
    5.6290  -14.7445   25.6996 N   0  0  0  0  0  0  0  0  0  0  0  0
    6.3029  -13.6328   26.0710 C   0  0  0  0  0  0  0  0  0  0  0  0
    5.9463  -12.2912   26.0706 C   0  0  0  0  0  0  0  0  0  0  0  0
    6.8802  -11.3840   26.5205 C   0  0  0  0  0  0  0  0  0  0  0  0
    8.1286  -11.8032   26.9562 C   0  0  0  0  0  0  0  0  0  0  0  0
    8.4789  -13.1481   26.9539 C   0  0  0  0  0  0  0  0  0  0  0  0
    7.5426  -14.0440   26.5044 C   0  0  0  0  0  0  0  0  0  0  0  0
   10.8589  -17.1947   25.8985 C   0  0  0  0  0  0  0  0  0  0  0  0
   11.0615  -18.2016   25.1633 O   0  0  0  0  0  0  0  0  0  0  0  0
   11.6648  -16.9978   27.0148 O   0  0  0  0  0  0  0  0  0  0  0  0
  2  1  1  1
  3  2  1  0
  4  2  1  0
  4  9  1  0
  5  4  2  0
  6  7  1  0
  8  7  1  6
  8  9  1  0
 10 11  2  0
 10  8  1  0
 12 10  1  0
 13 12  1  0
 13 14  1  1
 15 14  1  0
 15 16  2  0
 17 16  1  0
 18 17  1  0
 19 18  2  0
 20 19  1  0
 21 20  2  0
 21 22  1  0
 22 23  2  0
 23 18  1  0
 23 15  1  0
 24 13  1  0
 25 24  2  0
 26 24  1  0
M  END
$$$$
