ASW.pdb
     RDKit          3D

 26 27  0  0  1  0  0  0  0  0999 V2000
    8.3779  -12.1441   19.6430 C   0  0  0  0  0  0  0  0  0  0  0  0
    8.2757  -13.5301   19.0666 C   0  0  2  0  0  0  0  0  0  0  0  0
    7.1925  -13.5518   18.1238 N   0  0  0  0  0  0  0  0  0  0  0  0
    8.0753  -14.4924   20.1800 C   0  0  0  0  0  0  0  0  0  0  0  0
    6.9534  -14.5698   20.7389 O   0  0  0  0  0  0  0  0  0  0  0  0
   10.4475  -17.7371   20.7169 O   0  0  0  0  0  0  0  0  0  0  0  0
    9.1768  -17.6688   21.2504 C   0  0  0  0  0  0  0  0  0  0  0  0
    8.8236  -16.2632   21.7005 C   0  0  2  0  0  0  0  0  0  0  0  0
    9.1057  -15.3442   20.6527 N   0  0  0  0  0  0  0  0  0  0  0  0
    9.5986  -16.0091   22.9402 C   0  0  0  0  0  0  0  0  0  0  0  0
   10.7238  -15.4616   22.7878 O   0  0  0  0  0  0  0  0  0  0  0  0
    9.1201  -16.3544   24.2327 N   0  0  0  0  0  0  0  0  0  0  0  0
   10.0863  -16.3302   25.3219 C   0  0  1  0  0  0  0  0  0  0  0  0
    9.7434  -15.2709   26.3406 C   0  0  0  0  0  0  0  0  0  0  0  0
    8.2926  -14.9830   26.2356 C   0  0  0  0  0  0  0  0  0  0  0  0
    7.2549  -15.8879   26.0219 C   0  0  0  0  0  0  0  0  0  0  0  0
    6.0887  -15.2214   25.9845 N   0  0  0  0  0  0  0  0  0  0  0  0
    6.3130  -13.9006   26.1662 C   0  0  0  0  0  0  0  0  0  0  0  0
    5.4513  -12.8132   26.2101 C   0  0  0  0  0  0  0  0  0  0  0  0
    6.0059  -11.5691   26.4156 C   0  0  0  0  0  0  0  0  0  0  0  0
    7.3756  -11.4166   26.5720 C   0  0  0  0  0  0  0  0  0  0  0  0
    8.2327  -12.5097   26.5270 C   0  0  0  0  0  0  0  0  0  0  0  0
    7.6714  -13.7444   26.3221 C   0  0  0  0  0  0  0  0  0  0  0  0
   10.0089  -17.6450   26.0015 C   0  0  0  0  0  0  0  0  0  0  0  0
    9.1030  -18.4868   25.7452 O   0  0  0  0  0  0  0  0  0  0  0  0
   10.9727  -17.9559   26.9549 O   0  0  0  0  0  0  0  0  0  0  0  0
  2  1  1  1
  3  2  1  0
  4  2  1  0
  4  9  1  0
  5  4  2  0
  6  7  1  0
  8  7  1  6
  8  9  1  0
 10 11  2  0
 10  8  1  0
 12 10  1  0
 13 12  1  0
 13 14  1  1
 15 14  1  0
 15 16  2  0
 17 16  1  0
 18 17  1  0
 19 18  2  0
 20 19  1  0
 21 20  2  0
 21 22  1  0
 22 23  2  0
 23 18  1  0
 23 15  1  0
 24 13  1  0
 25 24  2  0
 26 24  1  0
M  END
$$$$
