ASW.pdb
     RDKit          3D

 26 27  0  0  1  0  0  0  0  0999 V2000
    8.6369  -12.2680   19.7133 C   0  0  0  0  0  0  0  0  0  0  0  0
    8.5017  -13.6497   19.1335 C   0  0  2  0  0  0  0  0  0  0  0  0
    7.3609  -13.6673   18.2611 N   0  0  0  0  0  0  0  0  0  0  0  0
    8.3747  -14.6213   20.2496 C   0  0  0  0  0  0  0  0  0  0  0  0
    7.2389  -14.8866   20.7151 O   0  0  0  0  0  0  0  0  0  0  0  0
   11.3171  -17.3181   20.9992 O   0  0  0  0  0  0  0  0  0  0  0  0
   10.0007  -17.5694   21.3278 C   0  0  0  0  0  0  0  0  0  0  0  0
    9.2766  -16.3134   21.7763 C   0  0  2  0  0  0  0  0  0  0  0  0
    9.4916  -15.2769   20.8270 N   0  0  0  0  0  0  0  0  0  0  0  0
    9.7858  -15.9936   23.1329 C   0  0  0  0  0  0  0  0  0  0  0  0
   10.7375  -15.1688   23.1873 O   0  0  0  0  0  0  0  0  0  0  0  0
    9.2476  -16.5712   24.3142 N   0  0  0  0  0  0  0  0  0  0  0  0
    9.8680  -16.1917   25.5757 C   0  0  1  0  0  0  0  0  0  0  0  0
    8.8784  -16.2404   26.7143 C   0  0  0  0  0  0  0  0  0  0  0  0
    7.6973  -15.4289   26.3333 C   0  0  0  0  0  0  0  0  0  0  0  0
    6.4815  -15.8770   25.8212 C   0  0  0  0  0  0  0  0  0  0  0  0
    5.6792  -14.8217   25.6017 N   0  0  0  0  0  0  0  0  0  0  0  0
    6.3189  -13.6828   25.9506 C   0  0  0  0  0  0  0  0  0  0  0  0
    5.9254  -12.3522   25.9142 C   0  0  0  0  0  0  0  0  0  0  0  0
    6.8300  -11.4084   26.3486 C   0  0  0  0  0  0  0  0  0  0  0  0
    8.0859  -11.7819   26.8040 C   0  0  0  0  0  0  0  0  0  0  0  0
    8.4733  -13.1161   26.8377 C   0  0  0  0  0  0  0  0  0  0  0  0
    7.5659  -14.0485   26.4034 C   0  0  0  0  0  0  0  0  0  0  0  0
   10.9244  -17.1916   25.8593 C   0  0  0  0  0  0  0  0  0  0  0  0
   11.0936  -18.2186   25.1438 O   0  0  0  0  0  0  0  0  0  0  0  0
   11.7560  -16.9847   26.9548 O   0  0  0  0  0  0  0  0  0  0  0  0
  2  1  1  1
  3  2  1  0
  4  2  1  0
  4  9  1  0
  5  4  2  0
  6  7  1  0
  8  7  1  6
  8  9  1  0
 10 11  2  0
 10  8  1  0
 12 10  1  0
 13 12  1  0
 13 14  1  1
 15 14  1  0
 15 16  2  0
 17 16  1  0
 18 17  1  0
 19 18  2  0
 20 19  1  0
 21 20  2  0
 21 22  1  0
 22 23  2  0
 23 18  1  0
 23 15  1  0
 24 13  1  0
 25 24  2  0
 26 24  1  0
M  END
$$$$
