ASW.pdb
     RDKit          3D

 26 27  0  0  1  0  0  0  0  0999 V2000
    9.4889  -19.9869   21.2359 C   0  0  0  0  0  0  0  0  0  0  0  0
    8.9162  -19.2014   20.0875 C   0  0  2  0  0  0  0  0  0  0  0  0
    9.6137  -19.5745   18.8887 N   0  0  0  0  0  0  0  0  0  0  0  0
    9.0486  -17.7537   20.3912 C   0  0  0  0  0  0  0  0  0  0  0  0
   10.1354  -17.1681   20.1605 O   0  0  0  0  0  0  0  0  0  0  0  0
    5.9277  -15.5815   21.9908 O   0  0  0  0  0  0  0  0  0  0  0  0
    6.8465  -14.8930   21.2253 C   0  0  0  0  0  0  0  0  0  0  0  0
    8.1899  -15.5974   21.1789 C   0  0  2  0  0  0  0  0  0  0  0  0
    7.9905  -16.9846   20.9386 N   0  0  0  0  0  0  0  0  0  0  0  0
    8.8641  -15.3072   22.4685 C   0  0  0  0  0  0  0  0  0  0  0  0
    9.2059  -14.1087   22.6575 O   0  0  0  0  0  0  0  0  0  0  0  0
    9.1195  -16.3056   23.4466 N   0  0  0  0  0  0  0  0  0  0  0  0
    9.8544  -15.8929   24.6340 C   0  0  1  0  0  0  0  0  0  0  0  0
    9.0844  -16.2017   25.8948 C   0  0  0  0  0  0  0  0  0  0  0  0
    7.8328  -15.4066   25.8767 C   0  0  0  0  0  0  0  0  0  0  0  0
    6.5397  -15.8540   25.6136 C   0  0  0  0  0  0  0  0  0  0  0  0
    5.6896  -14.8162   25.6898 N   0  0  0  0  0  0  0  0  0  0  0  0
    6.3721  -13.6898   25.9953 C   0  0  0  0  0  0  0  0  0  0  0  0
    5.9570  -12.3786   26.1830 C   0  0  0  0  0  0  0  0  0  0  0  0
    6.9204  -11.4436   26.4915 C   0  0  0  0  0  0  0  0  0  0  0  0
    8.2540  -11.8067   26.6085 C   0  0  0  0  0  0  0  0  0  0  0  0
    8.6627  -13.1214   26.4192 C   0  0  0  0  0  0  0  0  0  0  0  0
    7.6964  -14.0453   26.1126 C   0  0  0  0  0  0  0  0  0  0  0  0
   11.1055  -16.6866   24.6693 C   0  0  0  0  0  0  0  0  0  0  0  0
   11.3270  -17.6365   23.8668 O   0  0  0  0  0  0  0  0  0  0  0  0
   12.0658  -16.3679   25.6235 O   0  0  0  0  0  0  0  0  0  0  0  0
  2  1  1  1
  3  2  1  0
  4  2  1  0
  4  9  1  0
  5  4  2  0
  6  7  1  0
  8  7  1  1
  8  9  1  0
 10 11  2  0
 10  8  1  0
 12 10  1  0
 13 12  1  0
 13 14  1  1
 15 14  1  0
 15 16  2  0
 17 16  1  0
 18 17  1  0
 19 18  2  0
 20 19  1  0
 21 20  2  0
 21 22  1  0
 22 23  2  0
 23 18  1  0
 23 15  1  0
 24 13  1  0
 25 24  2  0
 26 24  1  0
M  END
$$$$
