ASW.pdb
     RDKit          3D

 26 27  0  0  1  0  0  0  0  0999 V2000
    9.4094  -18.5629   18.2241 C   0  0  0  0  0  0  0  0  0  0  0  0
    9.7349  -18.5349   19.6928 C   0  0  2  0  0  0  0  0  0  0  0  0
    8.8393  -19.4272   20.3742 N   0  0  0  0  0  0  0  0  0  0  0  0
    9.6164  -17.1361   20.1775 C   0  0  0  0  0  0  0  0  0  0  0  0
   10.4585  -16.2792   19.8118 O   0  0  0  0  0  0  0  0  0  0  0  0
    6.2601  -15.7012   22.0355 O   0  0  0  0  0  0  0  0  0  0  0  0
    7.1799  -14.8167   21.5106 C   0  0  0  0  0  0  0  0  0  0  0  0
    8.5898  -15.3771   21.5413 C   0  0  2  0  0  0  0  0  0  0  0  0
    8.5813  -16.7109   21.0485 N   0  0  0  0  0  0  0  0  0  0  0  0
    9.0593  -15.2636   22.9443 C   0  0  0  0  0  0  0  0  0  0  0  0
    9.2595  -14.0936   23.3686 O   0  0  0  0  0  0  0  0  0  0  0  0
    9.2772  -16.3932   23.7781 N   0  0  0  0  0  0  0  0  0  0  0  0
    9.9206  -16.1513   25.0618 C   0  0  1  0  0  0  0  0  0  0  0  0
    9.0177  -16.5270   26.2113 C   0  0  0  0  0  0  0  0  0  0  0  0
    7.8028  -15.6798   26.1389 C   0  0  0  0  0  0  0  0  0  0  0  0
    6.5254  -16.0510   25.7245 C   0  0  0  0  0  0  0  0  0  0  0  0
    5.7097  -14.9860   25.8013 N   0  0  0  0  0  0  0  0  0  0  0  0
    6.4000  -13.9151   26.2536 C   0  0  0  0  0  0  0  0  0  0  0  0
    6.0163  -12.6044   26.5020 C   0  0  0  0  0  0  0  0  0  0  0  0
    6.9791  -11.7365   26.9684 C   0  0  0  0  0  0  0  0  0  0  0  0
    8.2816  -12.1640   27.1795 C   0  0  0  0  0  0  0  0  0  0  0  0
    8.6590  -13.4778   26.9287 C   0  0  0  0  0  0  0  0  0  0  0  0
    7.6936  -14.3346   26.4647 C   0  0  0  0  0  0  0  0  0  0  0  0
   11.1120  -17.0305   25.1240 C   0  0  0  0  0  0  0  0  0  0  0  0
   11.3799  -17.8720   24.2210 O   0  0  0  0  0  0  0  0  0  0  0  0
   11.9614  -16.9190   26.2197 O   0  0  0  0  0  0  0  0  0  0  0  0
  2  1  1  6
  3  2  1  0
  4  2  1  0
  4  9  1  0
  5  4  2  0
  6  7  1  0
  8  7  1  1
  8  9  1  0
 10 11  2  0
 10  8  1  0
 12 10  1  0
 13 12  1  0
 13 14  1  1
 15 14  1  0
 15 16  2  0
 17 16  1  0
 18 17  1  0
 19 18  2  0
 20 19  1  0
 21 20  2  0
 21 22  1  0
 22 23  2  0
 23 18  1  0
 23 15  1  0
 24 13  1  0
 25 24  2  0
 26 24  1  0
M  END
$$$$
