PYF.pdb
     RDKit          3D

 31 33  0  0  1  0  0  0  0  0999 V2000
    8.7701  -15.0889   18.2833 N   0  0  0  0  0  0  0  0  0  0  0  0
    8.5600  -14.3425   17.0688 C   0  0  0  0  0  0  0  0  0  0  0  0
    7.9726  -13.0149   17.4355 C   0  0  0  0  0  0  0  0  0  0  0  0
    7.4668  -13.2848   18.8598 C   0  0  0  0  0  0  0  0  0  0  0  0
    8.5626  -14.1924   19.3731 C   0  0  1  0  0  0  0  0  0  0  0  0
    8.2366  -14.8470   20.6424 C   0  0  0  0  0  0  0  0  0  0  0  0
    8.0921  -14.1055   21.6629 O   0  0  0  0  0  0  0  0  0  0  0  0
    7.2166  -20.9849   27.0304 O   0  0  0  0  0  0  0  0  0  0  0  0
    7.3068  -20.3312   25.8085 C   0  0  0  0  0  0  0  0  0  0  0  0
    8.4999  -20.2818   25.1160 C   0  0  0  0  0  0  0  0  0  0  0  0
    8.5746  -19.6282   23.9022 C   0  0  0  0  0  0  0  0  0  0  0  0
    7.4933  -19.0029   23.3243 C   0  0  0  0  0  0  0  0  0  0  0  0
    7.5159  -18.2945   22.0355 C   0  0  0  0  0  0  0  0  0  0  0  0
    7.8426  -16.8350   22.1387 C   0  0  2  0  0  0  0  0  0  0  0  0
    8.0670  -16.2321   20.8389 N   0  0  0  0  0  0  0  0  0  0  0  0
    8.9240  -16.5122   23.0876 C   0  0  0  0  0  0  0  0  0  0  0  0
   10.1215  -16.6859   22.6909 O   0  0  0  0  0  0  0  0  0  0  0  0
    6.2955  -19.0601   24.0333 C   0  0  0  0  0  0  0  0  0  0  0  0
    6.2158  -19.7119   25.2463 C   0  0  0  0  0  0  0  0  0  0  0  0
    8.6925  -16.0233   24.3991 N   0  0  0  0  0  0  0  0  0  0  0  0
    9.7768  -15.7155   25.3193 C   0  0  1  0  0  0  0  0  0  0  0  0
    9.7213  -14.2122   25.5002 C   0  0  0  0  0  0  0  0  0  0  0  0
    8.4499  -13.6961   25.9863 C   0  0  0  0  0  0  0  0  0  0  0  0
    7.4063  -13.3504   25.1627 C   0  0  0  0  0  0  0  0  0  0  0  0
    6.2018  -12.8614   25.6800 C   0  0  0  0  0  0  0  0  0  0  0  0
    6.0625  -12.7246   27.0446 C   0  0  0  0  0  0  0  0  0  0  0  0
    7.1008  -13.0672   27.8849 C   0  0  0  0  0  0  0  0  0  0  0  0
    8.3043  -13.5556   27.3715 C   0  0  0  0  0  0  0  0  0  0  0  0
    9.5205  -16.4342   26.5826 C   0  0  0  0  0  0  0  0  0  0  0  0
   10.5274  -16.5093   27.5331 O   0  0  0  0  0  0  0  0  0  0  0  0
    8.4328  -16.9726   26.8187 O   0  0  0  0  0  0  0  0  0  0  0  0
  1  2  1  0
  3  2  1  0
  4  3  1  0
  5  4  1  0
  5  1  1  0
  6  7  2  0
  5  6  1  1
  8  9  1  0
  9 10  2  0
  9 19  1  0
 10 11  1  0
 11 12  2  0
 12 13  1  0
 14 13  1  6
 14 15  1  0
 15  6  1  0
 16 17  2  0
 16 14  1  0
 18 12  1  0
 19 18  2  0
 20 16  1  0
 21 22  1  1
 21 20  1  0
 23 22  1  0
 23 28  1  0
 24 23  2  0
 25 24  1  0
 25 26  2  0
 26 27  1  0
 27 28  2  0
 29 21  1  0
 30 29  1  0
 31 29  2  0
M  END
$$$$
