PYF.pdb
     RDKit          3D

 31 33  0  0  1  0  0  0  0  0999 V2000
    8.9786  -18.8755   19.7711 N   0  0  0  0  0  0  0  0  0  0  0  0
    8.5711  -19.4668   18.5219 C   0  0  0  0  0  0  0  0  0  0  0  0
    8.6876  -18.4232   17.4545 C   0  0  0  0  0  0  0  0  0  0  0  0
    8.7418  -17.1350   18.2879 C   0  0  0  0  0  0  0  0  0  0  0  0
    9.5577  -17.6070   19.4709 C   0  0  1  0  0  0  0  0  0  0  0  0
    9.5664  -16.6644   20.5921 C   0  0  0  0  0  0  0  0  0  0  0  0
   10.3661  -15.6806   20.5231 O   0  0  0  0  0  0  0  0  0  0  0  0
    6.8591  -11.8108   27.5864 O   0  0  0  0  0  0  0  0  0  0  0  0
    6.9879  -12.7338   26.5568 C   0  0  0  0  0  0  0  0  0  0  0  0
    7.4949  -12.3610   25.3282 C   0  0  0  0  0  0  0  0  0  0  0  0
    7.6172  -13.2896   24.3139 C   0  0  0  0  0  0  0  0  0  0  0  0
    7.2511  -14.6079   24.4620 C   0  0  0  0  0  0  0  0  0  0  0  0
    7.3608  -15.6380   23.4177 C   0  0  0  0  0  0  0  0  0  0  0  0
    8.7048  -15.7070   22.7571 C   0  0  2  0  0  0  0  0  0  0  0  0
    8.7651  -16.7472   21.7483 N   0  0  0  0  0  0  0  0  0  0  0  0
    9.8453  -15.7791   23.6888 C   0  0  0  0  0  0  0  0  0  0  0  0
   10.7562  -14.8976   23.5676 O   0  0  0  0  0  0  0  0  0  0  0  0
    6.7410  -14.9711   25.7064 C   0  0  0  0  0  0  0  0  0  0  0  0
    6.6169  -14.0470   26.7229 C   0  0  0  0  0  0  0  0  0  0  0  0
    9.9685  -16.7687   24.6979 N   0  0  0  0  0  0  0  0  0  0  0  0
   11.2364  -17.0677   25.3461 C   0  0  1  0  0  0  0  0  0  0  0  0
   11.7249  -15.7374   25.8820 C   0  0  0  0  0  0  0  0  0  0  0  0
   10.8884  -15.1440   26.9152 C   0  0  0  0  0  0  0  0  0  0  0  0
   10.2861  -13.9157   26.7915 C   0  0  0  0  0  0  0  0  0  0  0  0
    9.4877  -13.3901   27.8133 C   0  0  0  0  0  0  0  0  0  0  0  0
    9.3037  -14.1224   28.9667 C   0  0  0  0  0  0  0  0  0  0  0  0
    9.9016  -15.3572   29.1063 C   0  0  0  0  0  0  0  0  0  0  0  0
   10.6990  -15.8843   28.0881 C   0  0  0  0  0  0  0  0  0  0  0  0
   10.9778  -18.0381   26.4276 C   0  0  0  0  0  0  0  0  0  0  0  0
   12.0463  -18.5354   27.1585 O   0  0  0  0  0  0  0  0  0  0  0  0
    9.8348  -18.4216   26.7016 O   0  0  0  0  0  0  0  0  0  0  0  0
  1  2  1  0
  3  2  1  0
  4  3  1  0
  5  4  1  0
  5  1  1  0
  6  7  2  0
  5  6  1  1
  8  9  1  0
  9 10  2  0
  9 19  1  0
 10 11  1  0
 11 12  2  0
 12 13  1  0
 14 13  1  1
 14 15  1  0
 15  6  1  0
 16 17  2  0
 16 14  1  0
 18 12  1  0
 19 18  2  0
 20 16  1  0
 21 22  1  1
 21 20  1  0
 23 22  1  0
 23 28  1  0
 24 23  2  0
 25 24  1  0
 25 26  2  0
 26 27  1  0
 27 28  2  0
 29 21  1  0
 30 29  1  0
 31 29  2  0
M  END
$$$$
