PYF.pdb
     RDKit          3D

 31 33  0  0  1  0  0  0  0  0999 V2000
    6.9575  -19.9060   24.0426 N   0  0  0  0  0  0  0  0  0  0  0  0
    5.8832  -20.8654   24.0809 C   0  0  0  0  0  0  0  0  0  0  0  0
    5.1849  -20.8336   22.7567 C   0  0  0  0  0  0  0  0  0  0  0  0
    5.6633  -19.4900   22.1885 C   0  0  0  0  0  0  0  0  0  0  0  0
    7.0901  -19.4718   22.6903 C   0  0  1  0  0  0  0  0  0  0  0  0
    7.7516  -18.1743   22.5329 C   0  0  0  0  0  0  0  0  0  0  0  0
    8.7926  -18.1327   21.8071 O   0  0  0  0  0  0  0  0  0  0  0  0
    8.7678  -12.8983   17.1505 O   0  0  0  0  0  0  0  0  0  0  0  0
    8.3612  -13.3426   18.4019 C   0  0  0  0  0  0  0  0  0  0  0  0
    7.6205  -14.4994   18.5385 C   0  0  0  0  0  0  0  0  0  0  0  0
    7.2234  -14.9290   19.7890 C   0  0  0  0  0  0  0  0  0  0  0  0
    7.5334  -14.2485   20.9443 C   0  0  0  0  0  0  0  0  0  0  0  0
    7.1382  -14.6605   22.2999 C   0  0  0  0  0  0  0  0  0  0  0  0
    8.0279  -15.6994   22.9136 C   0  0  2  0  0  0  0  0  0  0  0  0
    7.3385  -16.9593   23.1151 N   0  0  0  0  0  0  0  0  0  0  0  0
    8.7375  -15.2613   24.1295 C   0  0  0  0  0  0  0  0  0  0  0  0
    8.8044  -14.0086   24.3484 O   0  0  0  0  0  0  0  0  0  0  0  0
    8.2812  -13.0829   20.7927 C   0  0  0  0  0  0  0  0  0  0  0  0
    8.6803  -12.6496   19.5455 C   0  0  0  0  0  0  0  0  0  0  0  0
    9.3363  -16.1587   25.0509 N   0  0  0  0  0  0  0  0  0  0  0  0
    9.6593  -15.7739   26.4165 C   0  0  1  0  0  0  0  0  0  0  0  0
    8.3215  -15.4970   27.0716 C   0  0  0  0  0  0  0  0  0  0  0  0
    7.7713  -14.1738   26.8151 C   0  0  0  0  0  0  0  0  0  0  0  0
    6.4936  -13.9584   26.3592 C   0  0  0  0  0  0  0  0  0  0  0  0
    6.0104  -12.6653   26.1310 C   0  0  0  0  0  0  0  0  0  0  0  0
    6.8359  -11.5873   26.3694 C   0  0  0  0  0  0  0  0  0  0  0  0
    8.1213  -11.7869   26.8271 C   0  0  0  0  0  0  0  0  0  0  0  0
    8.6064  -13.0764   27.0558 C   0  0  0  0  0  0  0  0  0  0  0  0
   10.3638  -16.9033   27.0538 C   0  0  0  0  0  0  0  0  0  0  0  0
   10.8752  -16.7448   28.3330 O   0  0  0  0  0  0  0  0  0  0  0  0
   10.5120  -17.9883   26.4799 O   0  0  0  0  0  0  0  0  0  0  0  0
  1  2  1  0
  3  2  1  0
  4  3  1  0
  5  4  1  0
  5  1  1  0
  6  7  2  0
  5  6  1  1
  8  9  1  0
  9 10  2  0
  9 19  1  0
 10 11  1  0
 11 12  2  0
 12 13  1  0
 14 13  1  1
 14 15  1  0
 15  6  1  0
 16 17  2  0
 16 14  1  0
 18 12  1  0
 19 18  2  0
 20 16  1  0
 21 22  1  1
 21 20  1  0
 23 22  1  0
 23 28  1  0
 24 23  2  0
 25 24  1  0
 25 26  2  0
 26 27  1  0
 27 28  2  0
 29 21  1  0
 30 29  1  0
 31 29  2  0
M  END
$$$$
