PYF.pdb
     RDKit          3D

 31 33  0  0  1  0  0  0  0  0999 V2000
    7.5967  -18.8400   21.2009 N   0  0  0  0  0  0  0  0  0  0  0  0
    6.7982  -19.5862   20.2618 C   0  0  0  0  0  0  0  0  0  0  0  0
    7.1860  -19.1589   18.8801 C   0  0  0  0  0  0  0  0  0  0  0  0
    7.9017  -17.8295   19.1585 C   0  0  0  0  0  0  0  0  0  0  0  0
    8.6063  -18.1628   20.4547 C   0  0  1  0  0  0  0  0  0  0  0  0
    9.1778  -16.9951   21.1298 C   0  0  0  0  0  0  0  0  0  0  0  0
   10.4085  -16.7511   20.9353 O   0  0  0  0  0  0  0  0  0  0  0  0
    7.9376  -12.8858   16.6690 O   0  0  0  0  0  0  0  0  0  0  0  0
    8.0503  -13.0853   18.0387 C   0  0  0  0  0  0  0  0  0  0  0  0
    6.9855  -13.5616   18.7769 C   0  0  0  0  0  0  0  0  0  0  0  0
    7.1122  -13.7551   20.1380 C   0  0  0  0  0  0  0  0  0  0  0  0
    8.2763  -13.4920   20.8232 C   0  0  0  0  0  0  0  0  0  0  0  0
    8.4669  -13.6806   22.2695 C   0  0  0  0  0  0  0  0  0  0  0  0
    9.1106  -14.9821   22.6429 C   0  0  2  0  0  0  0  0  0  0  0  0
    8.4853  -16.1108   21.9808 N   0  0  0  0  0  0  0  0  0  0  0  0
    9.2506  -15.2052   24.0937 C   0  0  0  0  0  0  0  0  0  0  0  0
    9.5943  -14.2088   24.8082 O   0  0  0  0  0  0  0  0  0  0  0  0
    9.3430  -13.0118   20.0668 C   0  0  0  0  0  0  0  0  0  0  0  0
    9.2214  -12.8169   18.7067 C   0  0  0  0  0  0  0  0  0  0  0  0
    9.0210  -16.4587   24.7171 N   0  0  0  0  0  0  0  0  0  0  0  0
    8.5549  -16.5727   26.0908 C   0  0  1  0  0  0  0  0  0  0  0  0
    7.1348  -16.0452   26.0669 C   0  0  0  0  0  0  0  0  0  0  0  0
    6.9857  -14.6566   26.4775 C   0  0  0  0  0  0  0  0  0  0  0  0
    7.9442  -13.9650   27.1776 C   0  0  0  0  0  0  0  0  0  0  0  0
    7.7540  -12.6288   27.5464 C   0  0  0  0  0  0  0  0  0  0  0  0
    6.5797  -11.9960   27.1988 C   0  0  0  0  0  0  0  0  0  0  0  0
    5.6077  -12.6765   26.4962 C   0  0  0  0  0  0  0  0  0  0  0  0
    5.7946  -14.0102   26.1266 C   0  0  0  0  0  0  0  0  0  0  0  0
    8.6094  -17.9968   26.4741 C   0  0  0  0  0  0  0  0  0  0  0  0
    8.7301  -18.3313   27.8144 O   0  0  0  0  0  0  0  0  0  0  0  0
    8.5509  -18.9020   25.6340 O   0  0  0  0  0  0  0  0  0  0  0  0
  1  2  1  0
  3  2  1  0
  4  3  1  0
  5  4  1  0
  5  1  1  0
  6  7  2  0
  5  6  1  1
  8  9  1  0
  9 10  2  0
  9 19  1  0
 10 11  1  0
 11 12  2  0
 12 13  1  0
 14 13  1  1
 14 15  1  0
 15  6  1  0
 16 17  2  0
 16 14  1  0
 18 12  1  0
 19 18  2  0
 20 16  1  0
 21 22  1  6
 21 20  1  0
 23 22  1  0
 23 28  1  0
 24 23  2  0
 25 24  1  0
 25 26  2  0
 26 27  1  0
 27 28  2  0
 29 21  1  0
 30 29  1  0
 31 29  2  0
M  END
$$$$
