PYF.pdb
     RDKit          3D

 31 33  0  0  1  0  0  0  0  0999 V2000
    8.7911  -15.7854   18.0651 N   0  0  0  0  0  0  0  0  0  0  0  0
    8.4800  -15.4062   16.7103 C   0  0  0  0  0  0  0  0  0  0  0  0
    8.7850  -13.9486   16.5544 C   0  0  0  0  0  0  0  0  0  0  0  0
    8.8402  -13.4874   18.0178 C   0  0  0  0  0  0  0  0  0  0  0  0
    9.4879  -14.6931   18.6617 C   0  0  1  0  0  0  0  0  0  0  0  0
    9.4424  -14.6726   20.1257 C   0  0  0  0  0  0  0  0  0  0  0  0
   10.2092  -13.8560   20.7235 O   0  0  0  0  0  0  0  0  0  0  0  0
    6.0616  -13.2795   28.0208 O   0  0  0  0  0  0  0  0  0  0  0  0
    6.2815  -13.7154   26.7207 C   0  0  0  0  0  0  0  0  0  0  0  0
    6.1623  -15.0501   26.3896 C   0  0  0  0  0  0  0  0  0  0  0  0
    6.3839  -15.4689   25.0928 C   0  0  0  0  0  0  0  0  0  0  0  0
    6.7279  -14.6045   24.0787 C   0  0  0  0  0  0  0  0  0  0  0  0
    6.9738  -14.9951   22.6821 C   0  0  0  0  0  0  0  0  0  0  0  0
    8.4159  -15.2419   22.3547 C   0  0  2  0  0  0  0  0  0  0  0  0
    8.6218  -15.4795   20.9389 N   0  0  0  0  0  0  0  0  0  0  0  0
    9.0677  -16.2715   23.1847 C   0  0  0  0  0  0  0  0  0  0  0  0
    8.9205  -17.4863   22.8323 O   0  0  0  0  0  0  0  0  0  0  0  0
    6.8449  -13.2605   24.4260 C   0  0  0  0  0  0  0  0  0  0  0  0
    6.6245  -12.8372   25.7202 C   0  0  0  0  0  0  0  0  0  0  0  0
    9.8398  -15.9728   24.3368 N   0  0  0  0  0  0  0  0  0  0  0  0
   10.6524  -16.9734   25.0119 C   0  0  1  0  0  0  0  0  0  0  0  0
   11.7178  -16.1829   25.7439 C   0  0  0  0  0  0  0  0  0  0  0  0
   11.2209  -15.2971   26.7869 C   0  0  0  0  0  0  0  0  0  0  0  0
   11.1493  -15.6506   28.1123 C   0  0  0  0  0  0  0  0  0  0  0  0
   10.6665  -14.7606   29.0780 C   0  0  0  0  0  0  0  0  0  0  0  0
   10.2549  -13.5041   28.6882 C   0  0  0  0  0  0  0  0  0  0  0  0
   10.3204  -13.1341   27.3614 C   0  0  0  0  0  0  0  0  0  0  0  0
   10.8019  -14.0201   26.3953 C   0  0  0  0  0  0  0  0  0  0  0  0
    9.7802  -17.7179   25.9409 C   0  0  0  0  0  0  0  0  0  0  0  0
    8.4215  -17.4415   25.9597 O   0  0  0  0  0  0  0  0  0  0  0  0
   10.2261  -18.5821   26.7045 O   0  0  0  0  0  0  0  0  0  0  0  0
  1  2  1  0
  3  2  1  0
  4  3  1  0
  5  4  1  0
  5  1  1  0
  6  7  2  0
  5  6  1  1
  8  9  1  0
  9 10  2  0
  9 19  1  0
 10 11  1  0
 11 12  2  0
 12 13  1  0
 14 13  1  6
 14 15  1  0
 15  6  1  0
 16 17  2  0
 16 14  1  0
 18 12  1  0
 19 18  2  0
 20 16  1  0
 21 22  1  1
 21 20  1  0
 23 22  1  0
 23 28  1  0
 24 23  2  0
 25 24  1  0
 25 26  2  0
 26 27  1  0
 27 28  2  0
 29 21  1  0
 30 29  1  0
 31 29  2  0
M  END
$$$$
