PYF.pdb
     RDKit          3D

 31 33  0  0  1  0  0  0  0  0999 V2000
    8.5945  -15.3310   18.8881 N   0  0  0  0  0  0  0  0  0  0  0  0
    8.3660  -14.7466   17.5910 C   0  0  0  0  0  0  0  0  0  0  0  0
    7.9137  -13.3335   17.7915 C   0  0  0  0  0  0  0  0  0  0  0  0
    7.4826  -13.3542   19.2649 C   0  0  0  0  0  0  0  0  0  0  0  0
    8.5326  -14.2753   19.8454 C   0  0  1  0  0  0  0  0  0  0  0  0
    8.2388  -14.7134   21.2120 C   0  0  0  0  0  0  0  0  0  0  0  0
    8.2574  -13.8319   22.1257 O   0  0  0  0  0  0  0  0  0  0  0  0
    7.4034  -19.9518   28.3870 O   0  0  0  0  0  0  0  0  0  0  0  0
    7.3463  -19.4234   27.1040 C   0  0  0  0  0  0  0  0  0  0  0  0
    6.2956  -18.6174   26.7141 C   0  0  0  0  0  0  0  0  0  0  0  0
    6.2522  -18.0992   25.4352 C   0  0  0  0  0  0  0  0  0  0  0  0
    7.2273  -18.3480   24.4964 C   0  0  0  0  0  0  0  0  0  0  0  0
    7.2321  -17.8219   23.1229 C   0  0  0  0  0  0  0  0  0  0  0  0
    7.7786  -16.4316   22.9959 C   0  0  2  0  0  0  0  0  0  0  0  0
    7.9353  -16.0304   21.6111 N   0  0  0  0  0  0  0  0  0  0  0  0
    8.9989  -16.1760   23.7830 C   0  0  0  0  0  0  0  0  0  0  0  0
   10.1130  -16.4941   23.2546 O   0  0  0  0  0  0  0  0  0  0  0  0
    8.2818  -19.1626   24.9025 C   0  0  0  0  0  0  0  0  0  0  0  0
    8.3298  -19.6827   26.1791 C   0  0  0  0  0  0  0  0  0  0  0  0
    8.9862  -15.5995   25.0792 N   0  0  0  0  0  0  0  0  0  0  0  0
   10.2071  -15.3108   25.8163 C   0  0  1  0  0  0  0  0  0  0  0  0
    9.9449  -13.9862   26.5036 C   0  0  0  0  0  0  0  0  0  0  0  0
    8.5407  -13.6773   26.7321 C   0  0  0  0  0  0  0  0  0  0  0  0
    7.5080  -14.4679   26.2901 C   0  0  0  0  0  0  0  0  0  0  0  0
    6.1736  -14.1286   26.5385 C   0  0  0  0  0  0  0  0  0  0  0  0
    5.8926  -12.9766   27.2416 C   0  0  0  0  0  0  0  0  0  0  0  0
    6.9180  -12.1722   27.6921 C   0  0  0  0  0  0  0  0  0  0  0  0
    8.2510  -12.5083   27.4456 C   0  0  0  0  0  0  0  0  0  0  0  0
   10.4240  -16.4029   26.7849 C   0  0  0  0  0  0  0  0  0  0  0  0
   10.4618  -17.7121   26.3292 O   0  0  0  0  0  0  0  0  0  0  0  0
   10.5729  -16.1848   27.9927 O   0  0  0  0  0  0  0  0  0  0  0  0
  1  2  1  0
  3  2  1  0
  4  3  1  0
  5  4  1  0
  5  1  1  0
  6  7  2  0
  5  6  1  1
  8  9  1  0
  9 10  2  0
  9 19  1  0
 10 11  1  0
 11 12  2  0
 12 13  1  0
 14 13  1  6
 14 15  1  0
 15  6  1  0
 16 17  2  0
 16 14  1  0
 18 12  1  0
 19 18  2  0
 20 16  1  0
 21 22  1  1
 21 20  1  0
 23 22  1  0
 23 28  1  0
 24 23  2  0
 25 24  1  0
 25 26  2  0
 26 27  1  0
 27 28  2  0
 29 21  1  0
 30 29  1  0
 31 29  2  0
M  END
$$$$
