PYF.pdb
     RDKit          3D

 31 33  0  0  1  0  0  0  0  0999 V2000
    8.7807  -15.4049   17.6458 N   0  0  0  0  0  0  0  0  0  0  0  0
    8.8078  -14.4341   16.5814 C   0  0  0  0  0  0  0  0  0  0  0  0
    8.5888  -13.0802   17.1822 C   0  0  0  0  0  0  0  0  0  0  0  0
    7.9948  -13.4430   18.5506 C   0  0  0  0  0  0  0  0  0  0  0  0
    8.7946  -14.6846   18.8769 C   0  0  1  0  0  0  0  0  0  0  0  0
    8.2743  -15.4341   20.0230 C   0  0  0  0  0  0  0  0  0  0  0  0
    7.2440  -14.9731   20.6045 O   0  0  0  0  0  0  0  0  0  0  0  0
    7.8776  -20.9259   27.0616 O   0  0  0  0  0  0  0  0  0  0  0  0
    8.1143  -20.3613   25.8151 C   0  0  0  0  0  0  0  0  0  0  0  0
    7.0937  -20.2117   24.8979 C   0  0  0  0  0  0  0  0  0  0  0  0
    7.3439  -19.6485   23.6625 C   0  0  0  0  0  0  0  0  0  0  0  0
    8.5925  -19.2138   23.2805 C   0  0  0  0  0  0  0  0  0  0  0  0
    8.9148  -18.6065   21.9802 C   0  0  0  0  0  0  0  0  0  0  0  0
    8.3946  -17.2115   21.8042 C   0  0  2  0  0  0  0  0  0  0  0  0
    8.8134  -16.6269   20.5448 N   0  0  0  0  0  0  0  0  0  0  0  0
    8.6547  -16.3099   22.9415 C   0  0  0  0  0  0  0  0  0  0  0  0
    9.8150  -15.7914   23.0233 O   0  0  0  0  0  0  0  0  0  0  0  0
    9.6136  -19.3705   24.2150 C   0  0  0  0  0  0  0  0  0  0  0  0
    9.3686  -19.9325   25.4506 C   0  0  0  0  0  0  0  0  0  0  0  0
    7.6854  -15.9986   23.9294 N   0  0  0  0  0  0  0  0  0  0  0  0
    7.9220  -15.0092   24.9697 C   0  0  1  0  0  0  0  0  0  0  0  0
    6.7903  -14.0121   24.8258 C   0  0  0  0  0  0  0  0  0  0  0  0
    6.7524  -12.9712   25.8428 C   0  0  0  0  0  0  0  0  0  0  0  0
    5.8857  -12.9826   26.9085 C   0  0  0  0  0  0  0  0  0  0  0  0
    5.8911  -11.9587   27.8621 C   0  0  0  0  0  0  0  0  0  0  0  0
    6.7855  -10.9186   27.7267 C   0  0  0  0  0  0  0  0  0  0  0  0
    7.6619  -10.8925   26.6623 C   0  0  0  0  0  0  0  0  0  0  0  0
    7.6590  -11.9130   25.7090 C   0  0  0  0  0  0  0  0  0  0  0  0
    7.8873  -15.7006   26.2730 C   0  0  0  0  0  0  0  0  0  0  0  0
    6.9425  -16.6931   26.4860 O   0  0  0  0  0  0  0  0  0  0  0  0
    8.6768  -15.4204   27.1823 O   0  0  0  0  0  0  0  0  0  0  0  0
  1  2  1  0
  3  2  1  0
  4  3  1  0
  5  4  1  0
  5  1  1  0
  6  7  2  0
  5  6  1  1
  8  9  1  0
  9 10  2  0
  9 19  1  0
 10 11  1  0
 11 12  2  0
 12 13  1  0
 14 13  1  1
 14 15  1  0
 15  6  1  0
 16 17  2  0
 16 14  1  0
 18 12  1  0
 19 18  2  0
 20 16  1  0
 21 22  1  1
 21 20  1  0
 23 22  1  0
 23 28  1  0
 24 23  2  0
 25 24  1  0
 25 26  2  0
 26 27  1  0
 27 28  2  0
 29 21  1  0
 30 29  1  0
 31 29  2  0
M  END
$$$$
