PYF.pdb
     RDKit          3D

 31 33  0  0  1  0  0  0  0  0999 V2000
    9.4337  -13.2356   18.9370 N   0  0  0  0  0  0  0  0  0  0  0  0
    8.6402  -12.6261   17.9002 C   0  0  0  0  0  0  0  0  0  0  0  0
    7.2248  -13.0844   18.0687 C   0  0  0  0  0  0  0  0  0  0  0  0
    7.4050  -14.3170   18.9661 C   0  0  0  0  0  0  0  0  0  0  0  0
    8.5313  -13.8448   19.8586 C   0  0  1  0  0  0  0  0  0  0  0  0
    9.1230  -14.9104   20.6712 C   0  0  0  0  0  0  0  0  0  0  0  0
    8.3475  -15.5599   21.4386 O   0  0  0  0  0  0  0  0  0  0  0  0
   13.5404  -15.0912   15.6911 O   0  0  0  0  0  0  0  0  0  0  0  0
   13.2000  -15.5677   16.9504 C   0  0  0  0  0  0  0  0  0  0  0  0
   13.4788  -14.8346   18.0863 C   0  0  0  0  0  0  0  0  0  0  0  0
   13.1345  -15.3210   19.3316 C   0  0  0  0  0  0  0  0  0  0  0  0
   12.5092  -16.5337   19.5115 C   0  0  0  0  0  0  0  0  0  0  0  0
   12.1192  -17.0989   20.8123 C   0  0  0  0  0  0  0  0  0  0  0  0
   11.0092  -16.3609   21.4985 C   0  0  2  0  0  0  0  0  0  0  0  0
   10.4814  -15.2852   20.6814 N   0  0  0  0  0  0  0  0  0  0  0  0
   11.3247  -15.9078   22.8657 C   0  0  0  0  0  0  0  0  0  0  0  0
   12.1643  -14.9583   22.9881 O   0  0  0  0  0  0  0  0  0  0  0  0
   12.2335  -17.2635   18.3574 C   0  0  0  0  0  0  0  0  0  0  0  0
   12.5755  -16.7818   17.1110 C   0  0  0  0  0  0  0  0  0  0  0  0
   10.7421  -16.4721   24.0297 N   0  0  0  0  0  0  0  0  0  0  0  0
   11.0350  -15.9775   25.3664 C   0  0  1  0  0  0  0  0  0  0  0  0
    9.6806  -15.7869   26.0182 C   0  0  0  0  0  0  0  0  0  0  0  0
    9.7202  -15.3461   27.4051 C   0  0  0  0  0  0  0  0  0  0  0  0
    9.6620  -14.0271   27.7842 C   0  0  0  0  0  0  0  0  0  0  0  0
    9.7004  -13.6547   29.1324 C   0  0  0  0  0  0  0  0  0  0  0  0
    9.7988  -14.6339   30.0977 C   0  0  0  0  0  0  0  0  0  0  0  0
    9.8583  -15.9625   29.7334 C   0  0  0  0  0  0  0  0  0  0  0  0
    9.8201  -16.3373   28.3886 C   0  0  0  0  0  0  0  0  0  0  0  0
   11.8449  -16.9963   26.0622 C   0  0  0  0  0  0  0  0  0  0  0  0
   11.5995  -18.3386   25.8150 O   0  0  0  0  0  0  0  0  0  0  0  0
   12.7371  -16.6879   26.8607 O   0  0  0  0  0  0  0  0  0  0  0  0
  1  2  1  0
  3  2  1  0
  4  3  1  0
  5  4  1  0
  5  1  1  0
  6  7  2  0
  5  6  1  6
  8  9  1  0
  9 10  2  0
  9 19  1  0
 10 11  1  0
 11 12  2  0
 12 13  1  0
 14 13  1  6
 14 15  1  0
 15  6  1  0
 16 17  2  0
 16 14  1  0
 18 12  1  0
 19 18  2  0
 20 16  1  0
 21 22  1  1
 21 20  1  0
 23 22  1  0
 23 28  1  0
 24 23  2  0
 25 24  1  0
 25 26  2  0
 26 27  1  0
 27 28  2  0
 29 21  1  0
 30 29  1  0
 31 29  2  0
M  END
$$$$
