PYF.pdb
     RDKit          3D

 31 33  0  0  1  0  0  0  0  0999 V2000
    7.8721  -14.9826   18.9257 N   0  0  0  0  0  0  0  0  0  0  0  0
    7.4095  -14.2306   17.7870 C   0  0  0  0  0  0  0  0  0  0  0  0
    7.4829  -12.7752   18.1308 C   0  0  0  0  0  0  0  0  0  0  0  0
    7.5765  -12.8249   19.6624 C   0  0  0  0  0  0  0  0  0  0  0  0
    8.4413  -14.0524   19.8452 C   0  0  1  0  0  0  0  0  0  0  0  0
    8.5009  -14.5282   21.2293 C   0  0  0  0  0  0  0  0  0  0  0  0
    9.1424  -13.8190   22.0646 O   0  0  0  0  0  0  0  0  0  0  0  0
    7.0200  -19.3363   28.6133 O   0  0  0  0  0  0  0  0  0  0  0  0
    6.9348  -18.7269   27.3684 C   0  0  0  0  0  0  0  0  0  0  0  0
    6.3554  -17.4823   27.2251 C   0  0  0  0  0  0  0  0  0  0  0  0
    6.2778  -16.8887   25.9810 C   0  0  0  0  0  0  0  0  0  0  0  0
    6.7604  -17.4856   24.8388 C   0  0  0  0  0  0  0  0  0  0  0  0
    6.7054  -16.8994   23.4909 C   0  0  0  0  0  0  0  0  0  0  0  0
    7.9009  -16.0703   23.1288 C   0  0  2  0  0  0  0  0  0  0  0  0
    7.9090  -15.7072   21.7247 N   0  0  0  0  0  0  0  0  0  0  0  0
    9.1938  -16.6349   23.5574 C   0  0  0  0  0  0  0  0  0  0  0  0
    9.8058  -17.3872   22.7321 O   0  0  0  0  0  0  0  0  0  0  0  0
    7.3426  -18.7412   24.9970 C   0  0  0  0  0  0  0  0  0  0  0  0
    7.4225  -19.3384   26.2378 C   0  0  0  0  0  0  0  0  0  0  0  0
    9.7761  -16.3793   24.8256 N   0  0  0  0  0  0  0  0  0  0  0  0
   11.1655  -16.6925   25.1231 C   0  0  1  0  0  0  0  0  0  0  0  0
   11.7180  -15.4406   25.7735 C   0  0  0  0  0  0  0  0  0  0  0  0
   10.9615  -14.9555   26.9188 C   0  0  0  0  0  0  0  0  0  0  0  0
    9.9161  -14.0702   26.8181 C   0  0  0  0  0  0  0  0  0  0  0  0
    9.2178  -13.6363   27.9503 C   0  0  0  0  0  0  0  0  0  0  0  0
    9.5890  -14.1088   29.1910 C   0  0  0  0  0  0  0  0  0  0  0  0
   10.6365  -14.9979   29.3089 C   0  0  0  0  0  0  0  0  0  0  0  0
   11.3353  -15.4327   28.1806 C   0  0  0  0  0  0  0  0  0  0  0  0
   11.1860  -17.8477   26.0413 C   0  0  0  0  0  0  0  0  0  0  0  0
   12.4032  -18.4178   26.3825 O   0  0  0  0  0  0  0  0  0  0  0  0
   10.1481  -18.3233   26.5159 O   0  0  0  0  0  0  0  0  0  0  0  0
  1  2  1  0
  3  2  1  0
  4  3  1  0
  5  4  1  0
  5  1  1  0
  6  7  2  0
  5  6  1  1
  8  9  1  0
  9 10  2  0
  9 19  1  0
 10 11  1  0
 11 12  2  0
 12 13  1  0
 14 13  1  6
 14 15  1  0
 15  6  1  0
 16 17  2  0
 16 14  1  0
 18 12  1  0
 19 18  2  0
 20 16  1  0
 21 22  1  1
 21 20  1  0
 23 22  1  0
 23 28  1  0
 24 23  2  0
 25 24  1  0
 25 26  2  0
 26 27  1  0
 27 28  2  0
 29 21  1  0
 30 29  1  0
 31 29  2  0
M  END
$$$$
