PYF.pdb
     RDKit          3D

 31 33  0  0  1  0  0  0  0  0999 V2000
    7.7127  -14.7843   19.7155 N   0  0  0  0  0  0  0  0  0  0  0  0
    6.8982  -14.2180   18.6706 C   0  0  0  0  0  0  0  0  0  0  0  0
    7.2778  -12.7780   18.5149 C   0  0  0  0  0  0  0  0  0  0  0  0
    8.0097  -12.5078   19.8372 C   0  0  0  0  0  0  0  0  0  0  0  0
    8.7225  -13.8276   20.0314 C   0  0  1  0  0  0  0  0  0  0  0  0
    9.3120  -13.9864   21.3630 C   0  0  0  0  0  0  0  0  0  0  0  0
   10.5325  -13.6658   21.5044 O   0  0  0  0  0  0  0  0  0  0  0  0
   10.5905  -15.1330   30.0872 O   0  0  0  0  0  0  0  0  0  0  0  0
   10.0446  -14.9152   28.8290 C   0  0  0  0  0  0  0  0  0  0  0  0
    9.9965  -13.6472   28.2857 C   0  0  0  0  0  0  0  0  0  0  0  0
    9.4508  -13.4457   27.0335 C   0  0  0  0  0  0  0  0  0  0  0  0
    8.9355  -14.4692   26.2714 C   0  0  0  0  0  0  0  0  0  0  0  0
    8.3447  -14.3121   24.9336 C   0  0  0  0  0  0  0  0  0  0  0  0
    9.2858  -14.6069   23.8044 C   0  0  2  0  0  0  0  0  0  0  0  0
    8.6476  -14.4648   22.5099 N   0  0  0  0  0  0  0  0  0  0  0  0
   10.0073  -15.8873   23.9232 C   0  0  0  0  0  0  0  0  0  0  0  0
    9.3258  -16.9561   23.8018 O   0  0  0  0  0  0  0  0  0  0  0  0
    8.9901  -15.7437   26.8311 C   0  0  0  0  0  0  0  0  0  0  0  0
    9.5343  -15.9501   28.0817 C   0  0  0  0  0  0  0  0  0  0  0  0
   11.4031  -15.9786   24.1603 N   0  0  0  0  0  0  0  0  0  0  0  0
   12.0929  -17.2546   24.2741 C   0  0  1  0  0  0  0  0  0  0  0  0
   12.3588  -17.6842   22.8457 C   0  0  0  0  0  0  0  0  0  0  0  0
   12.8841  -16.6418   21.9759 C   0  0  0  0  0  0  0  0  0  0  0  0
   13.0774  -15.3429   22.3790 C   0  0  0  0  0  0  0  0  0  0  0  0
   13.5888  -14.3777   21.5046 C   0  0  0  0  0  0  0  0  0  0  0  0
   13.9039  -14.7406   20.2126 C   0  0  0  0  0  0  0  0  0  0  0  0
   13.7155  -16.0405   19.7925 C   0  0  0  0  0  0  0  0  0  0  0  0
   13.2054  -17.0061   20.6630 C   0  0  0  0  0  0  0  0  0  0  0  0
   13.3430  -17.0316   25.0262 C   0  0  0  0  0  0  0  0  0  0  0  0
   14.1654  -18.1128   25.3051 O   0  0  0  0  0  0  0  0  0  0  0  0
   13.6791  -15.9075   25.4159 O   0  0  0  0  0  0  0  0  0  0  0  0
  1  2  1  0
  3  2  1  0
  4  3  1  0
  5  4  1  0
  5  1  1  0
  6  7  2  0
  5  6  1  1
  8  9  1  0
  9 10  2  0
  9 19  1  0
 10 11  1  0
 11 12  2  0
 12 13  1  0
 14 13  1  1
 14 15  1  0
 15  6  1  0
 16 17  2  0
 16 14  1  0
 18 12  1  0
 19 18  2  0
 20 16  1  0
 21 22  1  6
 21 20  1  0
 23 22  1  0
 23 28  1  0
 24 23  2  0
 25 24  1  0
 25 26  2  0
 26 27  1  0
 27 28  2  0
 29 21  1  0
 30 29  1  0
 31 29  2  0
M  END
$$$$
