PYF.pdb
     RDKit          3D

 31 33  0  0  1  0  0  0  0  0999 V2000
    9.0532  -13.0747   20.0145 N   0  0  0  0  0  0  0  0  0  0  0  0
    8.3583  -12.4985   18.8915 C   0  0  0  0  0  0  0  0  0  0  0  0
    7.0964  -13.2756   18.6779 C   0  0  0  0  0  0  0  0  0  0  0  0
    7.3923  -14.5640   19.4585 C   0  0  0  0  0  0  0  0  0  0  0  0
    8.1638  -14.0030   20.6324 C   0  0  1  0  0  0  0  0  0  0  0  0
    8.8254  -15.0274   21.4440 C   0  0  0  0  0  0  0  0  0  0  0  0
    8.1009  -15.9559   21.9185 O   0  0  0  0  0  0  0  0  0  0  0  0
   12.1489  -16.9936   16.2103 O   0  0  0  0  0  0  0  0  0  0  0  0
   12.1537  -16.8701   17.5935 C   0  0  0  0  0  0  0  0  0  0  0  0
   12.4859  -15.6747   18.1986 C   0  0  0  0  0  0  0  0  0  0  0  0
   12.4864  -15.5668   19.5749 C   0  0  0  0  0  0  0  0  0  0  0  0
   12.1644  -16.6161   20.4052 C   0  0  0  0  0  0  0  0  0  0  0  0
   12.1474  -16.5566   21.8747 C   0  0  0  0  0  0  0  0  0  0  0  0
   10.8205  -16.1803   22.4622 C   0  0  2  0  0  0  0  0  0  0  0  0
   10.1999  -15.0798   21.7500 N   0  0  0  0  0  0  0  0  0  0  0  0
   10.8348  -15.9529   23.9190 C   0  0  0  0  0  0  0  0  0  0  0  0
   11.8897  -15.4466   24.4215 O   0  0  0  0  0  0  0  0  0  0  0  0
   11.8312  -17.8166   19.7821 C   0  0  0  0  0  0  0  0  0  0  0  0
   11.8293  -17.9295   18.4074 C   0  0  0  0  0  0  0  0  0  0  0  0
    9.7433  -16.2658   24.7694 N   0  0  0  0  0  0  0  0  0  0  0  0
    9.8953  -16.4215   26.2081 C   0  0  1  0  0  0  0  0  0  0  0  0
    9.6902  -15.0318   26.7757 C   0  0  0  0  0  0  0  0  0  0  0  0
    8.5383  -14.3143   26.2488 C   0  0  0  0  0  0  0  0  0  0  0  0
    7.2383  -14.6980   26.4714 C   0  0  0  0  0  0  0  0  0  0  0  0
    6.1645  -13.9717   25.9449 C   0  0  0  0  0  0  0  0  0  0  0  0
    6.4197  -12.8486   25.1875 C   0  0  0  0  0  0  0  0  0  0  0  0
    7.7192  -12.4503   24.9547 C   0  0  0  0  0  0  0  0  0  0  0  0
    8.7930  -13.1732   25.4790 C   0  0  0  0  0  0  0  0  0  0  0  0
    8.8638  -17.3676   26.6758 C   0  0  0  0  0  0  0  0  0  0  0  0
    8.8508  -17.7477   28.0094 O   0  0  0  0  0  0  0  0  0  0  0  0
    8.0095  -17.8325   25.9124 O   0  0  0  0  0  0  0  0  0  0  0  0
  1  2  1  0
  3  2  1  0
  4  3  1  0
  5  4  1  0
  5  1  1  0
  6  7  2  0
  5  6  1  6
  8  9  1  0
  9 10  2  0
  9 19  1  0
 10 11  1  0
 11 12  2  0
 12 13  1  0
 14 13  1  6
 14 15  1  0
 15  6  1  0
 16 17  2  0
 16 14  1  0
 18 12  1  0
 19 18  2  0
 20 16  1  0
 21 22  1  1
 21 20  1  0
 23 22  1  0
 23 28  1  0
 24 23  2  0
 25 24  1  0
 25 26  2  0
 26 27  1  0
 27 28  2  0
 29 21  1  0
 30 29  1  0
 31 29  2  0
M  END
$$$$
