PYF.pdb
     RDKit          3D

 31 33  0  0  1  0  0  0  0  0999 V2000
    7.5285  -18.5792   20.8004 N   0  0  0  0  0  0  0  0  0  0  0  0
    6.9924  -19.2792   19.6608 C   0  0  0  0  0  0  0  0  0  0  0  0
    7.9827  -19.1729   18.5427 C   0  0  0  0  0  0  0  0  0  0  0  0
    8.8540  -17.9998   19.0135 C   0  0  0  0  0  0  0  0  0  0  0  0
    8.8870  -18.2624   20.5028 C   0  0  1  0  0  0  0  0  0  0  0  0
    9.4347  -17.1503   21.2833 C   0  0  0  0  0  0  0  0  0  0  0  0
   10.6809  -16.9263   21.1876 O   0  0  0  0  0  0  0  0  0  0  0  0
    7.1754  -13.4808   16.8738 O   0  0  0  0  0  0  0  0  0  0  0  0
    7.5131  -13.5684   18.2180 C   0  0  0  0  0  0  0  0  0  0  0  0
    8.6870  -13.0188   18.6925 C   0  0  0  0  0  0  0  0  0  0  0  0
    9.0096  -13.1137   20.0316 C   0  0  0  0  0  0  0  0  0  0  0  0
    8.2021  -13.7449   20.9500 C   0  0  0  0  0  0  0  0  0  0  0  0
    8.4953  -13.8740   22.3856 C   0  0  0  0  0  0  0  0  0  0  0  0
    9.2610  -15.1101   22.7508 C   0  0  2  0  0  0  0  0  0  0  0  0
    8.7036  -16.2996   22.1363 N   0  0  0  0  0  0  0  0  0  0  0  0
    9.4827  -15.2917   24.1971 C   0  0  0  0  0  0  0  0  0  0  0  0
   10.3241  -14.5201   24.7613 O   0  0  0  0  0  0  0  0  0  0  0  0
    7.0206  -14.2952   20.4583 C   0  0  0  0  0  0  0  0  0  0  0  0
    6.6939  -14.2031   19.1214 C   0  0  0  0  0  0  0  0  0  0  0  0
    8.8096  -16.2695   24.9740 N   0  0  0  0  0  0  0  0  0  0  0  0
    8.9962  -16.3865   26.4123 C   0  0  1  0  0  0  0  0  0  0  0  0
    7.6543  -16.0182   27.0119 C   0  0  0  0  0  0  0  0  0  0  0  0
    7.2844  -14.6163   26.8810 C   0  0  0  0  0  0  0  0  0  0  0  0
    6.1634  -14.1863   26.2137 C   0  0  0  0  0  0  0  0  0  0  0  0
    5.8496  -12.8261   26.1188 C   0  0  0  0  0  0  0  0  0  0  0  0
    6.6844  -11.9009   26.7081 C   0  0  0  0  0  0  0  0  0  0  0  0
    7.8137  -12.3165   27.3816 C   0  0  0  0  0  0  0  0  0  0  0  0
    8.1295  -13.6735   27.4780 C   0  0  0  0  0  0  0  0  0  0  0  0
    9.3709  -17.7823   26.7113 C   0  0  0  0  0  0  0  0  0  0  0  0
    9.5059  -18.6840   25.6664 O   0  0  0  0  0  0  0  0  0  0  0  0
    9.5680  -18.1722   27.8679 O   0  0  0  0  0  0  0  0  0  0  0  0
  1  2  1  0
  3  2  1  0
  4  3  1  0
  5  4  1  0
  5  1  1  0
  6  7  2  0
  5  6  1  1
  8  9  1  0
  9 10  2  0
  9 19  1  0
 10 11  1  0
 11 12  2  0
 12 13  1  0
 14 13  1  1
 14 15  1  0
 15  6  1  0
 16 17  2  0
 16 14  1  0
 18 12  1  0
 19 18  2  0
 20 16  1  0
 21 22  1  1
 21 20  1  0
 23 22  1  0
 23 28  1  0
 24 23  2  0
 25 24  1  0
 25 26  2  0
 26 27  1  0
 27 28  2  0
 29 21  1  0
 30 29  1  0
 31 29  2  0
M  END
$$$$
