PYF.pdb
     RDKit          3D

 31 33  0  0  1  0  0  0  0  0999 V2000
    6.9158  -20.4159   24.7380 N   0  0  0  0  0  0  0  0  0  0  0  0
    5.8965  -21.3589   25.1225 C   0  0  0  0  0  0  0  0  0  0  0  0
    4.9283  -21.4848   23.9872 C   0  0  0  0  0  0  0  0  0  0  0  0
    5.2430  -20.2220   23.1727 C   0  0  0  0  0  0  0  0  0  0  0  0
    6.7437  -20.1493   23.3473 C   0  0  1  0  0  0  0  0  0  0  0  0
    7.3268  -18.8833   22.8965 C   0  0  0  0  0  0  0  0  0  0  0  0
    8.2200  -18.9384   21.9958 O   0  0  0  0  0  0  0  0  0  0  0  0
    9.0617  -11.9536   18.4446 O   0  0  0  0  0  0  0  0  0  0  0  0
    8.4771  -12.8265   19.3528 C   0  0  0  0  0  0  0  0  0  0  0  0
    8.2483  -14.1470   19.0223 C   0  0  0  0  0  0  0  0  0  0  0  0
    7.6663  -15.0033   19.9356 C   0  0  0  0  0  0  0  0  0  0  0  0
    7.2890  -14.6032   21.1972 C   0  0  0  0  0  0  0  0  0  0  0  0
    6.6674  -15.4715   22.2087 C   0  0  0  0  0  0  0  0  0  0  0  0
    7.6268  -16.3821   22.9145 C   0  0  2  0  0  0  0  0  0  0  0  0
    6.9874  -17.6008   23.3719 N   0  0  0  0  0  0  0  0  0  0  0  0
    8.4115  -15.7389   23.9843 C   0  0  0  0  0  0  0  0  0  0  0  0
    8.4010  -14.4665   24.0332 O   0  0  0  0  0  0  0  0  0  0  0  0
    7.5253  -13.2684   21.5182 C   0  0  0  0  0  0  0  0  0  0  0  0
    8.1065  -12.4090   20.6091 C   0  0  0  0  0  0  0  0  0  0  0  0
    9.1624  -16.4631   24.9457 N   0  0  0  0  0  0  0  0  0  0  0  0
    9.6208  -15.8638   26.1899 C   0  0  1  0  0  0  0  0  0  0  0  0
    8.3596  -15.6128   26.9910 C   0  0  0  0  0  0  0  0  0  0  0  0
    7.7104  -14.3352   26.7350 C   0  0  0  0  0  0  0  0  0  0  0  0
    8.3680  -13.1296   26.7685 C   0  0  0  0  0  0  0  0  0  0  0  0
    7.6988  -11.9280   26.5116 C   0  0  0  0  0  0  0  0  0  0  0  0
    6.3520  -11.9578   26.2193 C   0  0  0  0  0  0  0  0  0  0  0  0
    5.6775  -13.1600   26.1818 C   0  0  0  0  0  0  0  0  0  0  0  0
    6.3427  -14.3609   26.4378 C   0  0  0  0  0  0  0  0  0  0  0  0
   10.5171  -16.8279   26.8573 C   0  0  0  0  0  0  0  0  0  0  0  0
   10.3380  -18.1843   26.6316 O   0  0  0  0  0  0  0  0  0  0  0  0
   11.4241  -16.4612   27.6132 O   0  0  0  0  0  0  0  0  0  0  0  0
  1  2  1  0
  3  2  1  0
  4  3  1  0
  5  4  1  0
  5  1  1  0
  6  7  2  0
  5  6  1  1
  8  9  1  0
  9 10  2  0
  9 19  1  0
 10 11  1  0
 11 12  2  0
 12 13  1  0
 14 13  1  1
 14 15  1  0
 15  6  1  0
 16 17  2  0
 16 14  1  0
 18 12  1  0
 19 18  2  0
 20 16  1  0
 21 22  1  1
 21 20  1  0
 23 22  1  0
 23 28  1  0
 24 23  2  0
 25 24  1  0
 25 26  2  0
 26 27  1  0
 27 28  2  0
 29 21  1  0
 30 29  1  0
 31 29  2  0
M  END
$$$$
