PYF.pdb
     RDKit          3D

 31 33  0  0  1  0  0  0  0  0999 V2000
    8.7716  -15.8151   18.5880 N   0  0  0  0  0  0  0  0  0  0  0  0
    8.3963  -15.4212   17.2538 C   0  0  0  0  0  0  0  0  0  0  0  0
    8.5681  -13.9380   17.1420 C   0  0  0  0  0  0  0  0  0  0  0  0
    8.6172  -13.5214   18.6188 C   0  0  0  0  0  0  0  0  0  0  0  0
    9.3835  -14.6852   19.2073 C   0  0  1  0  0  0  0  0  0  0  0  0
    9.3710  -14.7163   20.6718 C   0  0  0  0  0  0  0  0  0  0  0  0
    9.9984  -13.7963   21.2818 O   0  0  0  0  0  0  0  0  0  0  0  0
    5.8846  -12.0168   27.7109 O   0  0  0  0  0  0  0  0  0  0  0  0
    6.1541  -12.7620   26.5705 C   0  0  0  0  0  0  0  0  0  0  0  0
    6.7410  -12.1807   25.4646 C   0  0  0  0  0  0  0  0  0  0  0  0
    7.0031  -12.9341   24.3378 C   0  0  0  0  0  0  0  0  0  0  0  0
    6.7034  -14.2745   24.2509 C   0  0  0  0  0  0  0  0  0  0  0  0
    6.9614  -15.1239   23.0781 C   0  0  0  0  0  0  0  0  0  0  0  0
    8.4053  -15.4711   22.8727 C   0  0  2  0  0  0  0  0  0  0  0  0
    8.7237  -15.6780   21.4730 N   0  0  0  0  0  0  0  0  0  0  0  0
    8.8989  -16.5745   23.7170 C   0  0  0  0  0  0  0  0  0  0  0  0
    9.2596  -17.6448   23.1287 O   0  0  0  0  0  0  0  0  0  0  0  0
    6.1116  -14.8489   25.3735 C   0  0  0  0  0  0  0  0  0  0  0  0
    5.8477  -14.1004   26.5016 C   0  0  0  0  0  0  0  0  0  0  0  0
    8.9901  -16.4962   25.1305 N   0  0  0  0  0  0  0  0  0  0  0  0
    9.5185  -17.5842   25.9394 C   0  0  1  0  0  0  0  0  0  0  0  0
    9.4625  -17.0744   27.3651 C   0  0  0  0  0  0  0  0  0  0  0  0
    9.8834  -15.6921   27.5427 C   0  0  0  0  0  0  0  0  0  0  0  0
    9.0085  -14.6355   27.6132 C   0  0  0  0  0  0  0  0  0  0  0  0
    9.4635  -13.3240   27.7881 C   0  0  0  0  0  0  0  0  0  0  0  0
   10.8182  -13.0906   27.8915 C   0  0  0  0  0  0  0  0  0  0  0  0
   11.7094  -14.1406   27.8225 C   0  0  0  0  0  0  0  0  0  0  0  0
   11.2582  -15.4507   27.6480 C   0  0  0  0  0  0  0  0  0  0  0  0
    8.6532  -18.7629   25.7393 C   0  0  0  0  0  0  0  0  0  0  0  0
    9.0463  -19.9857   26.2620 O   0  0  0  0  0  0  0  0  0  0  0  0
    7.5866  -18.6923   25.1181 O   0  0  0  0  0  0  0  0  0  0  0  0
  1  2  1  0
  3  2  1  0
  4  3  1  0
  5  4  1  0
  5  1  1  0
  6  7  2  0
  5  6  1  1
  8  9  1  0
  9 10  2  0
  9 19  1  0
 10 11  1  0
 11 12  2  0
 12 13  1  0
 14 13  1  6
 14 15  1  0
 15  6  1  0
 16 17  2  0
 16 14  1  0
 18 12  1  0
 19 18  2  0
 20 16  1  0
 21 22  1  1
 21 20  1  0
 23 22  1  0
 23 28  1  0
 24 23  2  0
 25 24  1  0
 25 26  2  0
 26 27  1  0
 27 28  2  0
 29 21  1  0
 30 29  1  0
 31 29  2  0
M  END
$$$$
