PYF.pdb
     RDKit          3D

 31 33  0  0  1  0  0  0  0  0999 V2000
    8.6951  -14.9189   19.2105 N   0  0  0  0  0  0  0  0  0  0  0  0
    8.3520  -14.1951   18.0128 C   0  0  0  0  0  0  0  0  0  0  0  0
    7.4868  -13.0367   18.4020 C   0  0  0  0  0  0  0  0  0  0  0  0
    7.0246  -13.4554   19.8050 C   0  0  0  0  0  0  0  0  0  0  0  0
    8.2799  -14.1240   20.3197 C   0  0  1  0  0  0  0  0  0  0  0  0
    8.0786  -14.8748   21.5614 C   0  0  0  0  0  0  0  0  0  0  0  0
    7.6832  -14.2269   22.5792 O   0  0  0  0  0  0  0  0  0  0  0  0
    6.5498  -21.4789   27.3515 O   0  0  0  0  0  0  0  0  0  0  0  0
    6.8676  -20.7387   26.2203 C   0  0  0  0  0  0  0  0  0  0  0  0
    5.8782  -20.1819   25.4350 C   0  0  0  0  0  0  0  0  0  0  0  0
    6.2091  -19.4483   24.3132 C   0  0  0  0  0  0  0  0  0  0  0  0
    7.5104  -19.2332   23.9202 C   0  0  0  0  0  0  0  0  0  0  0  0
    7.9193  -18.4603   22.7374 C   0  0  0  0  0  0  0  0  0  0  0  0
    7.9318  -16.9755   22.9441 C   0  0  2  0  0  0  0  0  0  0  0  0
    8.2840  -16.2582   21.7338 N   0  0  0  0  0  0  0  0  0  0  0  0
    8.7249  -16.5221   24.1015 C   0  0  0  0  0  0  0  0  0  0  0  0
    9.9740  -16.3499   23.9232 O   0  0  0  0  0  0  0  0  0  0  0  0
    8.4991  -19.8004   24.7210 C   0  0  0  0  0  0  0  0  0  0  0  0
    8.1735  -20.5341   25.8428 C   0  0  0  0  0  0  0  0  0  0  0  0
    8.1666  -16.2717   25.3814 N   0  0  0  0  0  0  0  0  0  0  0  0
    8.9581  -15.7636   26.4916 C   0  0  1  0  0  0  0  0  0  0  0  0
    7.9700  -15.0236   27.3699 C   0  0  0  0  0  0  0  0  0  0  0  0
    7.4214  -13.8059   26.7906 C   0  0  0  0  0  0  0  0  0  0  0  0
    6.1469  -13.7123   26.2868 C   0  0  0  0  0  0  0  0  0  0  0  0
    5.6651  -12.5167   25.7428 C   0  0  0  0  0  0  0  0  0  0  0  0
    6.4887  -11.4117   25.7130 C   0  0  0  0  0  0  0  0  0  0  0  0
    7.7708  -11.4894   26.2146 C   0  0  0  0  0  0  0  0  0  0  0  0
    8.2545  -12.6814   26.7583 C   0  0  0  0  0  0  0  0  0  0  0  0
    9.5605  -16.9172   27.1876 C   0  0  0  0  0  0  0  0  0  0  0  0
   10.6339  -16.7064   28.0400 O   0  0  0  0  0  0  0  0  0  0  0  0
    9.1359  -18.0680   27.0327 O   0  0  0  0  0  0  0  0  0  0  0  0
  1  2  1  0
  3  2  1  0
  4  3  1  0
  5  4  1  0
  5  1  1  0
  6  7  2  0
  5  6  1  1
  8  9  1  0
  9 10  2  0
  9 19  1  0
 10 11  1  0
 11 12  2  0
 12 13  1  0
 14 13  1  6
 14 15  1  0
 15  6  1  0
 16 17  2  0
 16 14  1  0
 18 12  1  0
 19 18  2  0
 20 16  1  0
 21 22  1  1
 21 20  1  0
 23 22  1  0
 23 28  1  0
 24 23  2  0
 25 24  1  0
 25 26  2  0
 26 27  1  0
 27 28  2  0
 29 21  1  0
 30 29  1  0
 31 29  2  0
M  END
$$$$
