PYF.pdb
     RDKit          3D

 31 33  0  0  1  0  0  0  0  0999 V2000
    9.2163  -13.8541   19.7854 N   0  0  0  0  0  0  0  0  0  0  0  0
    8.6560  -13.2241   18.6170 C   0  0  0  0  0  0  0  0  0  0  0  0
    7.1852  -13.0551   18.8408 C   0  0  0  0  0  0  0  0  0  0  0  0
    6.9341  -14.0385   19.9928 C   0  0  0  0  0  0  0  0  0  0  0  0
    8.2054  -13.8562   20.7918 C   0  0  1  0  0  0  0  0  0  0  0  0
    8.3926  -14.8660   21.8363 C   0  0  0  0  0  0  0  0  0  0  0  0
    7.4080  -15.1059   22.6013 O   0  0  0  0  0  0  0  0  0  0  0  0
    9.1298  -20.2962   17.8469 O   0  0  0  0  0  0  0  0  0  0  0  0
    9.4760  -19.6800   19.0423 C   0  0  0  0  0  0  0  0  0  0  0  0
    8.8871  -20.0575   20.2324 C   0  0  0  0  0  0  0  0  0  0  0  0
    9.2412  -19.4359   21.4132 C   0  0  0  0  0  0  0  0  0  0  0  0
   10.1776  -18.4292   21.4741 C   0  0  0  0  0  0  0  0  0  0  0  0
   10.5931  -17.7346   22.7022 C   0  0  0  0  0  0  0  0  0  0  0  0
    9.6910  -16.6089   23.1103 C   0  0  2  0  0  0  0  0  0  0  0  0
    9.5709  -15.6016   22.0737 N   0  0  0  0  0  0  0  0  0  0  0  0
   10.0059  -16.0124   24.4214 C   0  0  0  0  0  0  0  0  0  0  0  0
   10.9323  -15.1395   24.4596 O   0  0  0  0  0  0  0  0  0  0  0  0
   10.7642  -18.0577   20.2664 C   0  0  0  0  0  0  0  0  0  0  0  0
   10.4138  -18.6757   19.0841 C   0  0  0  0  0  0  0  0  0  0  0  0
    9.3324  -16.3610   25.6204 N   0  0  0  0  0  0  0  0  0  0  0  0
    9.6756  -15.7736   26.9066 C   0  0  1  0  0  0  0  0  0  0  0  0
    8.3658  -15.2495   27.4592 C   0  0  0  0  0  0  0  0  0  0  0  0
    7.9433  -13.9619   26.9272 C   0  0  0  0  0  0  0  0  0  0  0  0
    8.6764  -12.8080   27.0610 C   0  0  0  0  0  0  0  0  0  0  0  0
    8.2278  -11.5946   26.5281 C   0  0  0  0  0  0  0  0  0  0  0  0
    7.0250  -11.5594   25.8556 C   0  0  0  0  0  0  0  0  0  0  0  0
    6.2771  -12.7092   25.7129 C   0  0  0  0  0  0  0  0  0  0  0  0
    6.7223  -13.9218   26.2437 C   0  0  0  0  0  0  0  0  0  0  0  0
   10.2476  -16.8369   27.7553 C   0  0  0  0  0  0  0  0  0  0  0  0
   10.3251  -18.1292   27.2584 O   0  0  0  0  0  0  0  0  0  0  0  0
   10.6601  -16.6092   28.8984 O   0  0  0  0  0  0  0  0  0  0  0  0
  1  2  1  0
  3  2  1  0
  4  3  1  0
  5  4  1  0
  5  1  1  0
  6  7  2  0
  5  6  1  1
  8  9  1  0
  9 10  2  0
  9 19  1  0
 10 11  1  0
 11 12  2  0
 12 13  1  0
 14 13  1  6
 14 15  1  0
 15  6  1  0
 16 17  2  0
 16 14  1  0
 18 12  1  0
 19 18  2  0
 20 16  1  0
 21 22  1  1
 21 20  1  0
 23 22  1  0
 23 28  1  0
 24 23  2  0
 25 24  1  0
 25 26  2  0
 26 27  1  0
 27 28  2  0
 29 21  1  0
 30 29  1  0
 31 29  2  0
M  END
$$$$
