ARD.pdb
     RDKit          3D

 25 24  0  0  1  0  0  0  0  0999 V2000
   12.1092  -22.3816   16.7257 C   0  0  0  0  0  0  0  0  0  0  0  0
   12.2712  -21.0359   16.0625 C   0  0  2  0  0  0  0  0  0  0  0  0
   13.4668  -20.9669   15.2554 N   0  0  0  0  0  0  0  0  0  0  0  0
   12.3292  -19.9308   17.0504 C   0  0  0  0  0  0  0  0  0  0  0  0
   13.4168  -19.4257   17.4324 O   0  0  0  0  0  0  0  0  0  0  0  0
    6.6390  -13.4495   19.3393 N   0  0  0  0  0  0  0  0  0  0  0  0
    7.8404  -13.2284   20.0693 C   0  0  0  0  0  0  0  0  0  0  0  0
    7.9233  -12.1786   20.7938 N   0  0  0  0  0  0  0  0  0  0  0  0
    8.9319  -14.1512   20.0005 N   0  0  0  0  0  0  0  0  0  0  0  0
    8.8480  -15.3192   19.1621 C   0  0  0  0  0  0  0  0  0  0  0  0
   10.0230  -16.2323   19.4220 C   0  0  0  0  0  0  0  0  0  0  0  0
    9.9347  -17.4223   18.4968 C   0  0  0  0  0  0  0  0  0  0  0  0
   11.1630  -18.2970   18.5758 C   0  0  2  0  0  0  0  0  0  0  0  0
   11.1396  -19.3720   17.6299 N   0  0  0  0  0  0  0  0  0  0  0  0
   11.4002  -18.8355   19.9196 C   0  0  0  0  0  0  0  0  0  0  0  0
   11.2774  -20.0729   20.1635 O   0  0  0  0  0  0  0  0  0  0  0  0
    8.8162  -11.9342   21.2529 N   0  0  0  0  0  0  0  0  0  0  0  0
   11.7810  -18.0230   21.0376 C   0  0  2  0  0  0  0  0  0  0  0  0
   12.0603  -18.5829   22.3351 C   0  0  0  0  0  0  0  0  0  0  0  0
   13.1868  -19.5886   22.3030 C   0  0  0  0  0  0  0  0  0  0  0  0
   14.5030  -18.9337   22.0861 O   0  0  0  0  0  0  0  0  0  0  0  0
   14.6811  -17.9188   21.3908 C   0  0  0  0  0  0  0  0  0  0  0  0
   12.3744  -17.5384   23.3400 O   0  0  0  0  0  0  0  0  0  0  0  0
   12.5094  -16.2055   23.0385 O   0  0  0  0  0  0  0  0  0  0  0  0
   15.6011  -19.5091   22.7114 O   0  0  0  0  0  0  0  0  0  0  0  0
  2  1  1  1
  3  2  1  0
  4  5  2  0
  4  2  1  0
  6  7  1  0
  7  9  1  0
  7  8  2  0
  9 10  1  0
 11 10  1  0
 12 11  1  0
 13 12  1  1
 13 14  1  0
 14  4  1  0
 15 17  1  0
 15 13  1  0
 16 15  2  0
 18 17  1  0
 18 22  1  0
 18 19  1  6
 20 19  1  0
 21 20  2  0
 22 23  1  0
 24 20  1  0
 25 22  2  0
M  END
$$$$
