ARD.pdb
     RDKit          3D

 25 24  0  0  1  0  0  0  0  0999 V2000
    8.4020  -21.5819   19.4875 C   0  0  0  0  0  0  0  0  0  0  0  0
    8.8138  -21.0518   20.8390 C   0  0  2  0  0  0  0  0  0  0  0  0
    7.7359  -21.1101   21.7984 N   0  0  0  0  0  0  0  0  0  0  0  0
    9.2790  -19.6451   20.7679 C   0  0  0  0  0  0  0  0  0  0  0  0
   10.2819  -19.3010   20.0897 O   0  0  0  0  0  0  0  0  0  0  0  0
    7.5636  -12.7064   17.6229 N   0  0  0  0  0  0  0  0  0  0  0  0
    7.6099  -12.6934   19.0451 C   0  0  0  0  0  0  0  0  0  0  0  0
    8.2767  -11.7668   19.6201 N   0  0  0  0  0  0  0  0  0  0  0  0
    6.9311  -13.6870   19.8196 N   0  0  0  0  0  0  0  0  0  0  0  0
    7.2575  -13.8771   21.2094 C   0  0  0  0  0  0  0  0  0  0  0  0
    8.4373  -14.8110   21.3443 C   0  0  0  0  0  0  0  0  0  0  0  0
    7.9375  -16.2357   21.3569 C   0  0  0  0  0  0  0  0  0  0  0  0
    9.0651  -17.2334   21.4712 C   0  0  2  0  0  0  0  0  0  0  0  0
    8.6065  -18.5901   21.4737 N   0  0  0  0  0  0  0  0  0  0  0  0
    9.9184  -17.0053   22.6424 C   0  0  0  0  0  0  0  0  0  0  0  0
    9.4462  -17.0430   23.8177 O   0  0  0  0  0  0  0  0  0  0  0  0
    8.4163  -11.7866   20.6438 N   0  0  0  0  0  0  0  0  0  0  0  0
   11.3220  -16.7281   22.5521 C   0  0  1  0  0  0  0  0  0  0  0  0
   12.1864  -16.7538   23.7042 C   0  0  0  0  0  0  0  0  0  0  0  0
   12.1753  -18.0899   24.4084 C   0  0  0  0  0  0  0  0  0  0  0  0
   13.1391  -18.1240   25.5389 O   0  0  0  0  0  0  0  0  0  0  0  0
   13.8012  -17.1484   25.9327 C   0  0  0  0  0  0  0  0  0  0  0  0
   13.5855  -16.3999   23.3625 O   0  0  0  0  0  0  0  0  0  0  0  0
   13.9960  -16.0417   22.1020 O   0  0  0  0  0  0  0  0  0  0  0  0
   13.2995  -19.3395   26.1907 O   0  0  0  0  0  0  0  0  0  0  0  0
  2  1  1  6
  3  2  1  0
  4  5  2  0
  4  2  1  0
  6  7  1  0
  7  9  1  0
  7  8  2  0
  9 10  1  0
 11 10  1  0
 12 11  1  0
 13 12  1  1
 13 14  1  0
 14  4  1  0
 15 17  1  0
 15 13  1  0
 16 15  2  0
 18 17  1  0
 18 22  1  0
 18 19  1  6
 20 19  1  0
 21 20  2  0
 22 23  1  0
 24 20  1  0
 25 22  2  0
M  END
$$$$
