ARD.pdb
     RDKit          3D

 25 24  0  0  1  0  0  0  0  0999 V2000
   10.6691  -20.8796   16.9588 C   0  0  0  0  0  0  0  0  0  0  0  0
   10.5856  -19.4676   16.4330 C   0  0  2  0  0  0  0  0  0  0  0  0
   11.6352  -19.1768   15.4846 N   0  0  0  0  0  0  0  0  0  0  0  0
   10.6686  -18.4620   17.5203 C   0  0  0  0  0  0  0  0  0  0  0  0
   11.7586  -17.9422   17.8750 O   0  0  0  0  0  0  0  0  0  0  0  0
    7.5754  -13.8348   22.9691 N   0  0  0  0  0  0  0  0  0  0  0  0
    7.4507  -12.8040   21.9959 C   0  0  0  0  0  0  0  0  0  0  0  0
    7.8048  -11.6196   22.3207 N   0  0  0  0  0  0  0  0  0  0  0  0
    6.9434  -13.0766   20.6859 N   0  0  0  0  0  0  0  0  0  0  0  0
    6.8813  -14.4290   20.1946 C   0  0  0  0  0  0  0  0  0  0  0  0
    8.2747  -14.9926   20.0435 C   0  0  0  0  0  0  0  0  0  0  0  0
    8.1797  -16.4023   19.5110 C   0  0  0  0  0  0  0  0  0  0  0  0
    9.5388  -16.9994   19.2353 C   0  0  2  0  0  0  0  0  0  0  0  0
    9.5019  -18.0224   18.2337 N   0  0  0  0  0  0  0  0  0  0  0  0
   10.1933  -17.5207   20.4402 C   0  0  0  0  0  0  0  0  0  0  0  0
    9.9569  -18.6917   20.8629 O   0  0  0  0  0  0  0  0  0  0  0  0
    7.7434  -10.8522   21.6314 N   0  0  0  0  0  0  0  0  0  0  0  0
   11.1306  -16.7638   21.2172 C   0  0  2  0  0  0  0  0  0  0  0  0
   11.7707  -17.3037   22.3894 C   0  0  0  0  0  0  0  0  0  0  0  0
   13.2085  -16.8604   22.5217 C   0  0  0  0  0  0  0  0  0  0  0  0
   13.8277  -17.3679   23.7736 O   0  0  0  0  0  0  0  0  0  0  0  0
   13.4147  -18.3461   24.4201 C   0  0  0  0  0  0  0  0  0  0  0  0
   11.0425  -16.9581   23.6343 O   0  0  0  0  0  0  0  0  0  0  0  0
   11.1870  -17.6404   24.8172 O   0  0  0  0  0  0  0  0  0  0  0  0
   14.9458  -16.6900   24.2406 O   0  0  0  0  0  0  0  0  0  0  0  0
  2  1  1  1
  3  2  1  0
  4  5  2  0
  4  2  1  0
  6  7  1  0
  7  9  1  0
  7  8  2  0
  9 10  1  0
 11 10  1  0
 12 11  1  0
 13 12  1  1
 13 14  1  0
 14  4  1  0
 15 17  1  0
 15 13  1  0
 16 15  2  0
 18 17  1  0
 18 22  1  0
 18 19  1  6
 20 19  1  0
 21 20  2  0
 22 23  1  0
 24 20  1  0
 25 22  2  0
M  END
$$$$
