ARD.pdb
     RDKit          3D

 25 24  0  0  1  0  0  0  0  0999 V2000
    5.2323  -21.2707   21.4085 C   0  0  0  0  0  0  0  0  0  0  0  0
    5.7897  -20.8752   22.7538 C   0  0  2  0  0  0  0  0  0  0  0  0
    4.7728  -20.3405   23.6288 N   0  0  0  0  0  0  0  0  0  0  0  0
    6.8632  -19.8583   22.6353 C   0  0  0  0  0  0  0  0  0  0  0  0
    8.0480  -20.1615   22.3382 O   0  0  0  0  0  0  0  0  0  0  0  0
    9.0067  -12.0950   20.2726 N   0  0  0  0  0  0  0  0  0  0  0  0
    7.9771  -12.7705   19.5594 C   0  0  0  0  0  0  0  0  0  0  0  0
    7.6863  -12.3605   18.3842 N   0  0  0  0  0  0  0  0  0  0  0  0
    7.2801  -13.8802   20.1344 N   0  0  0  0  0  0  0  0  0  0  0  0
    7.8396  -15.2057   20.0696 C   0  0  0  0  0  0  0  0  0  0  0  0
    6.9078  -16.1969   20.7264 C   0  0  0  0  0  0  0  0  0  0  0  0
    7.1138  -16.1490   22.2214 C   0  0  0  0  0  0  0  0  0  0  0  0
    7.6280  -17.4595   22.7674 C   0  0  2  0  0  0  0  0  0  0  0  0
    6.6087  -18.4617   22.8546 N   0  0  0  0  0  0  0  0  0  0  0  0
    8.2875  -17.3206   24.0703 C   0  0  0  0  0  0  0  0  0  0  0  0
    7.6237  -17.0704   25.1203 O   0  0  0  0  0  0  0  0  0  0  0  0
    6.8965  -12.7822   17.8681 N   0  0  0  0  0  0  0  0  0  0  0  0
    9.7029  -17.4539   24.2547 C   0  0  1  0  0  0  0  0  0  0  0  0
   10.3062  -17.5093   25.5616 C   0  0  0  0  0  0  0  0  0  0  0  0
    9.7085  -18.5899   26.4313 C   0  0  0  0  0  0  0  0  0  0  0  0
   10.4097  -18.6957   27.7373 O   0  0  0  0  0  0  0  0  0  0  0  0
   11.3501  -17.9658   28.0955 C   0  0  0  0  0  0  0  0  0  0  0  0
   11.7750  -17.7024   25.4928 O   0  0  0  0  0  0  0  0  0  0  0  0
   12.4934  -17.6812   24.3227 O   0  0  0  0  0  0  0  0  0  0  0  0
    9.9709  -19.6850   28.6071 O   0  0  0  0  0  0  0  0  0  0  0  0
  2  1  1  6
  3  2  1  0
  4  5  2  0
  4  2  1  0
  6  7  1  0
  7  9  1  0
  7  8  2  0
  9 10  1  0
 11 10  1  0
 12 11  1  0
 13 12  1  1
 13 14  1  0
 14  4  1  0
 15 17  1  0
 15 13  1  0
 16 15  2  0
 18 17  1  0
 18 22  1  0
 18 19  1  6
 20 19  1  0
 21 20  2  0
 22 23  1  0
 24 20  1  0
 25 22  2  0
M  END
$$$$
