ARD.pdb
     RDKit          3D

 25 24  0  0  1  0  0  0  0  0999 V2000
    7.1875  -11.8824   27.3027 C   0  0  0  0  0  0  0  0  0  0  0  0
    6.2061  -12.4641   26.3151 C   0  0  2  0  0  0  0  0  0  0  0  0
    5.0476  -13.0287   26.9667 N   0  0  0  0  0  0  0  0  0  0  0  0
    6.8181  -13.5277   25.4816 C   0  0  0  0  0  0  0  0  0  0  0  0
    6.8247  -14.7368   25.8310 O   0  0  0  0  0  0  0  0  0  0  0  0
    7.6200  -13.4824   17.1165 N   0  0  0  0  0  0  0  0  0  0  0  0
    8.6215  -13.6661   18.1106 C   0  0  0  0  0  0  0  0  0  0  0  0
    9.8172  -13.3057   17.8383 N   0  0  0  0  0  0  0  0  0  0  0  0
    8.3079  -14.2384   19.3842 N   0  0  0  0  0  0  0  0  0  0  0  0
    7.0474  -13.9552   20.0206 C   0  0  0  0  0  0  0  0  0  0  0  0
    7.2679  -13.1397   21.2730 C   0  0  0  0  0  0  0  0  0  0  0  0
    8.4381  -13.7148   22.0343 C   0  0  0  0  0  0  0  0  0  0  0  0
    8.0317  -14.2411   23.3900 C   0  0  2  0  0  0  0  0  0  0  0  0
    7.4415  -13.2351   24.2210 N   0  0  0  0  0  0  0  0  0  0  0  0
    9.1353  -14.8837   24.1120 C   0  0  0  0  0  0  0  0  0  0  0  0
    9.7676  -14.2736   25.0251 O   0  0  0  0  0  0  0  0  0  0  0  0
   10.5868  -13.5242   18.4925 N   0  0  0  0  0  0  0  0  0  0  0  0
    9.5757  -16.2221   23.8477 C   0  0  2  0  0  0  0  0  0  0  0  0
   10.5906  -16.8680   24.6400 C   0  0  0  0  0  0  0  0  0  0  0  0
   10.0180  -17.6055   25.8273 C   0  0  0  0  0  0  0  0  0  0  0  0
   11.0817  -18.2556   26.6363 O   0  0  0  0  0  0  0  0  0  0  0  0
   12.2951  -18.2179   26.3692 C   0  0  0  0  0  0  0  0  0  0  0  0
   11.4130  -17.8071   23.8392 O   0  0  0  0  0  0  0  0  0  0  0  0
   12.7789  -17.7211   23.7280 O   0  0  0  0  0  0  0  0  0  0  0  0
   10.6740  -18.9502   27.7673 O   0  0  0  0  0  0  0  0  0  0  0  0
  2  1  1  1
  3  2  1  0
  4  5  2  0
  4  2  1  0
  6  7  1  0
  7  9  1  0
  7  8  2  0
  9 10  1  0
 11 10  1  0
 12 11  1  0
 13 12  1  6
 13 14  1  0
 14  4  1  0
 15 17  1  0
 15 13  1  0
 16 15  2  0
 18 17  1  0
 18 22  1  0
 18 19  1  6
 20 19  1  0
 21 20  2  0
 22 23  1  0
 24 20  1  0
 25 22  2  0
M  END
$$$$
