ARD.pdb
     RDKit          3D

 25 24  0  0  1  0  0  0  0  0999 V2000
   10.7422  -20.6805   18.4629 C   0  0  0  0  0  0  0  0  0  0  0  0
   10.5477  -19.3367   17.8046 C   0  0  2  0  0  0  0  0  0  0  0  0
   11.3277  -19.2042   16.5963 N   0  0  0  0  0  0  0  0  0  0  0  0
   10.9160  -18.2165   18.7045 C   0  0  0  0  0  0  0  0  0  0  0  0
   12.0544  -17.6801   18.6808 O   0  0  0  0  0  0  0  0  0  0  0  0
    7.1969  -13.6136   17.5188 N   0  0  0  0  0  0  0  0  0  0  0  0
    7.3553  -13.0028   18.7943 C   0  0  0  0  0  0  0  0  0  0  0  0
    8.1389  -11.9975   18.8903 N   0  0  0  0  0  0  0  0  0  0  0  0
    6.6601  -13.4938   19.9446 N   0  0  0  0  0  0  0  0  0  0  0  0
    7.3258  -14.3569   20.8859 C   0  0  0  0  0  0  0  0  0  0  0  0
    8.5527  -14.9701   20.2527 C   0  0  0  0  0  0  0  0  0  0  0  0
    9.1493  -15.9749   21.2090 C   0  0  0  0  0  0  0  0  0  0  0  0
   10.3484  -16.6787   20.6201 C   0  0  2  0  0  0  0  0  0  0  0  0
    9.9880  -17.6778   19.6595 N   0  0  0  0  0  0  0  0  0  0  0  0
   11.2230  -17.2731   21.6367 C   0  0  0  0  0  0  0  0  0  0  0  0
   10.9594  -18.3994   22.1541 O   0  0  0  0  0  0  0  0  0  0  0  0
    8.3459  -11.5875   19.8160 N   0  0  0  0  0  0  0  0  0  0  0  0
   12.4179  -16.6413   22.1144 C   0  0  2  0  0  0  0  0  0  0  0  0
   13.2717  -17.2558   23.0986 C   0  0  0  0  0  0  0  0  0  0  0  0
   14.7092  -16.8075   22.9809 C   0  0  0  0  0  0  0  0  0  0  0  0
   15.5657  -17.4260   24.0259 O   0  0  0  0  0  0  0  0  0  0  0  0
   15.6495  -18.6478   24.2389 C   0  0  0  0  0  0  0  0  0  0  0  0
   12.8002  -17.0069   24.4825 O   0  0  0  0  0  0  0  0  0  0  0  0
   13.1994  -17.7457   25.5691 O   0  0  0  0  0  0  0  0  0  0  0  0
   16.3192  -16.5638   24.8114 O   0  0  0  0  0  0  0  0  0  0  0  0
  2  1  1  1
  3  2  1  0
  4  5  2  0
  4  2  1  0
  6  7  1  0
  7  9  1  0
  7  8  2  0
  9 10  1  0
 11 10  1  0
 12 11  1  0
 13 12  1  1
 13 14  1  0
 14  4  1  0
 15 17  1  0
 15 13  1  0
 16 15  2  0
 18 17  1  0
 18 22  1  0
 18 19  1  6
 20 19  1  0
 21 20  2  0
 22 23  1  0
 24 20  1  0
 25 22  2  0
M  END
$$$$
