ARD.pdb
     RDKit          3D

 25 24  0  0  1  0  0  0  0  0999 V2000
    8.0510  -11.9288   20.2590 C   0  0  0  0  0  0  0  0  0  0  0  0
    8.2860  -12.7039   18.9858 C   0  0  2  0  0  0  0  0  0  0  0  0
    7.0617  -13.2453   18.4439 N   0  0  0  0  0  0  0  0  0  0  0  0
    9.2286  -13.8318   19.1857 C   0  0  0  0  0  0  0  0  0  0  0  0
    8.8354  -15.0114   19.3802 O   0  0  0  0  0  0  0  0  0  0  0  0
   14.5435  -18.1434   18.2278 N   0  0  0  0  0  0  0  0  0  0  0  0
   14.3999  -18.1257   16.8120 C   0  0  0  0  0  0  0  0  0  0  0  0
   14.1938  -19.2349   16.2112 N   0  0  0  0  0  0  0  0  0  0  0  0
   14.4825  -16.9036   16.0722 N   0  0  0  0  0  0  0  0  0  0  0  0
   14.4303  -15.6348   16.7515 C   0  0  0  0  0  0  0  0  0  0  0  0
   13.5698  -15.7414   17.9887 C   0  0  0  0  0  0  0  0  0  0  0  0
   12.5591  -14.6197   17.9826 C   0  0  0  0  0  0  0  0  0  0  0  0
   11.5859  -14.7244   19.1323 C   0  0  2  0  0  0  0  0  0  0  0  0
   10.6519  -13.6393   19.1683 N   0  0  0  0  0  0  0  0  0  0  0  0
   12.2469  -14.8418   20.4366 C   0  0  0  0  0  0  0  0  0  0  0  0
   13.0469  -13.9509   20.8512 O   0  0  0  0  0  0  0  0  0  0  0  0
   14.0833  -19.2559   15.1840 N   0  0  0  0  0  0  0  0  0  0  0  0
   12.0446  -15.9485   21.3251 C   0  0  2  0  0  0  0  0  0  0  0  0
   12.7551  -16.0732   22.5720 C   0  0  0  0  0  0  0  0  0  0  0  0
   12.2265  -17.1973   23.4313 C   0  0  0  0  0  0  0  0  0  0  0  0
   13.0079  -17.3442   24.6868 O   0  0  0  0  0  0  0  0  0  0  0  0
   13.4079  -18.4272   25.1474 C   0  0  0  0  0  0  0  0  0  0  0  0
   14.2119  -16.2641   22.3699 O   0  0  0  0  0  0  0  0  0  0  0  0
   14.7519  -16.9463   21.3075 O   0  0  0  0  0  0  0  0  0  0  0  0
   13.3034  -16.1793   25.3822 O   0  0  0  0  0  0  0  0  0  0  0  0
  2  1  1  1
  3  2  1  0
  4  5  2  0
  4  2  1  0
  6  7  1  0
  7  9  1  0
  7  8  2  0
  9 10  1  0
 11 10  1  0
 12 11  1  0
 13 12  1  6
 13 14  1  0
 14  4  1  0
 15 17  1  0
 15 13  1  0
 16 15  2  0
 18 17  1  0
 18 22  1  0
 18 19  1  6
 20 19  1  0
 21 20  2  0
 22 23  1  0
 24 20  1  0
 25 22  2  0
M  END
$$$$
