ARD.pdb
     RDKit          3D

 25 24  0  0  1  0  0  0  0  0999 V2000
    8.4547  -12.5806   20.1429 C   0  0  0  0  0  0  0  0  0  0  0  0
    7.5015  -13.7037   19.8160 C   0  0  2  0  0  0  0  0  0  0  0  0
    6.2709  -13.6092   20.5660 N   0  0  0  0  0  0  0  0  0  0  0  0
    8.0948  -15.0357   20.0886 C   0  0  0  0  0  0  0  0  0  0  0  0
    7.9539  -15.6223   21.1931 O   0  0  0  0  0  0  0  0  0  0  0  0
    8.1920  -20.6275   15.8150 N   0  0  0  0  0  0  0  0  0  0  0  0
    9.2839  -21.4157   16.2752 C   0  0  0  0  0  0  0  0  0  0  0  0
    9.7549  -22.3112   15.4942 N   0  0  0  0  0  0  0  0  0  0  0  0
    9.8462  -21.2184   17.5762 N   0  0  0  0  0  0  0  0  0  0  0  0
    9.4532  -20.0875   18.3768 C   0  0  0  0  0  0  0  0  0  0  0  0
   10.5497  -19.0483   18.3838 C   0  0  0  0  0  0  0  0  0  0  0  0
    9.9454  -17.6944   18.0982 C   0  0  0  0  0  0  0  0  0  0  0  0
    9.5224  -16.9821   19.3606 C   0  0  2  0  0  0  0  0  0  0  0  0
    8.8683  -15.7349   19.1006 N   0  0  0  0  0  0  0  0  0  0  0  0
   10.6301  -16.7653   20.2975 C   0  0  0  0  0  0  0  0  0  0  0  0
   11.4358  -15.7983   20.1512 O   0  0  0  0  0  0  0  0  0  0  0  0
   10.5244  -22.9237   15.8113 N   0  0  0  0  0  0  0  0  0  0  0  0
   10.8832  -17.6111   21.4270 C   0  0  2  0  0  0  0  0  0  0  0  0
   11.9444  -17.3453   22.3641 C   0  0  0  0  0  0  0  0  0  0  0  0
   11.7576  -18.0733   23.6743 C   0  0  0  0  0  0  0  0  0  0  0  0
   11.1557  -17.1948   24.7108 O   0  0  0  0  0  0  0  0  0  0  0  0
   10.9114  -15.9857   24.5573 C   0  0  0  0  0  0  0  0  0  0  0  0
   13.2781  -17.6827   21.8103 O   0  0  0  0  0  0  0  0  0  0  0  0
   14.4238  -16.9833   22.0999 O   0  0  0  0  0  0  0  0  0  0  0  0
   10.8508  -17.7821   25.9315 O   0  0  0  0  0  0  0  0  0  0  0  0
  2  1  1  1
  3  2  1  0
  4  5  2  0
  4  2  1  0
  6  7  1  0
  7  9  1  0
  7  8  2  0
  9 10  1  0
 11 10  1  0
 12 11  1  0
 13 12  1  6
 13 14  1  0
 14  4  1  0
 15 17  1  0
 15 13  1  0
 16 15  2  0
 18 17  1  0
 18 22  1  0
 18 19  1  6
 20 19  1  0
 21 20  2  0
 22 23  1  0
 24 20  1  0
 25 22  2  0
M  END
$$$$
