ARD.pdb
     RDKit          3D

 25 24  0  0  1  0  0  0  0  0999 V2000
    3.3228  -19.5907   20.4312 C   0  0  0  0  0  0  0  0  0  0  0  0
    3.1407  -20.0322   18.9998 C   0  0  2  0  0  0  0  0  0  0  0  0
    2.3892  -21.2615   18.9004 N   0  0  0  0  0  0  0  0  0  0  0  0
    4.4380  -20.2395   18.3109 C   0  0  0  0  0  0  0  0  0  0  0  0
    5.0950  -21.3075   18.4196 O   0  0  0  0  0  0  0  0  0  0  0  0
    8.2726  -18.1815   12.9822 N   0  0  0  0  0  0  0  0  0  0  0  0
    7.1750  -18.4905   12.1307 C   0  0  0  0  0  0  0  0  0  0  0  0
    7.4041  -19.1650   11.0694 N   0  0  0  0  0  0  0  0  0  0  0  0
    5.8466  -18.0618   12.4460 N   0  0  0  0  0  0  0  0  0  0  0  0
    5.5766  -17.3719   13.6809 C   0  0  0  0  0  0  0  0  0  0  0  0
    5.3103  -18.3670   14.7860 C   0  0  0  0  0  0  0  0  0  0  0  0
    6.5067  -18.4118   15.7059 C   0  0  0  0  0  0  0  0  0  0  0  0
    6.3042  -19.3681   16.8568 C   0  0  2  0  0  0  0  0  0  0  0  0
    5.0207  -19.2263   17.4759 N   0  0  0  0  0  0  0  0  0  0  0  0
    7.3518  -19.2682   17.8787 C   0  0  0  0  0  0  0  0  0  0  0  0
    7.3824  -18.3013   18.6972 O   0  0  0  0  0  0  0  0  0  0  0  0
    6.6332  -19.3833   10.4168 N   0  0  0  0  0  0  0  0  0  0  0  0
    8.4000  -20.2345   18.0290 C   0  0  1  0  0  0  0  0  0  0  0  0
    9.4233  -20.1087   19.0351 C   0  0  0  0  0  0  0  0  0  0  0  0
    9.5896  -21.3667   19.8543 C   0  0  0  0  0  0  0  0  0  0  0  0
    8.4549  -21.5660   20.7929 O   0  0  0  0  0  0  0  0  0  0  0  0
    7.5884  -20.7113   21.0456 C   0  0  0  0  0  0  0  0  0  0  0  0
   10.7357  -19.7333   18.4553 O   0  0  0  0  0  0  0  0  0  0  0  0
   10.9373  -19.4867   17.1195 O   0  0  0  0  0  0  0  0  0  0  0  0
    8.3716  -22.8000   21.4241 O   0  0  0  0  0  0  0  0  0  0  0  0
  2  1  1  1
  3  2  1  0
  4  5  2  0
  4  2  1  0
  6  7  1  0
  7  9  1  0
  7  8  2  0
  9 10  1  0
 11 10  1  0
 12 11  1  0
 13 12  1  6
 13 14  1  0
 14  4  1  0
 15 17  1  0
 15 13  1  0
 16 15  2  0
 18 17  1  0
 18 22  1  0
 18 19  1  1
 20 19  1  0
 21 20  2  0
 22 23  1  0
 24 20  1  0
 25 22  2  0
M  END
$$$$
