IAR.pdb
     RDKit          3D

 25 24  0  0  1  0  0  0  0  0999 V2000
    5.6873  -12.0833   18.9273 C   0  0  0  0  0  0  0  0  0  0  0  0
    6.3732  -13.3899   18.7261 C   0  0  0  0  0  0  0  0  0  0  0  0
    7.3848  -13.7728   19.7404 C   0  0  2  0  0  0  0  0  0  0  0  0
    8.2974  -12.6016   20.0657 C   0  0  0  0  0  0  0  0  0  0  0  0
    8.0664  -15.0754   19.5926 C   0  0  2  0  0  0  0  0  0  0  0  0
    7.0159  -16.0893   19.3440 N   0  0  0  0  0  0  0  0  0  0  0  0
    8.9056  -15.5295   20.7057 C   0  0  0  0  0  0  0  0  0  0  0  0
    9.9846  -14.9893   21.0499 O   0  0  0  0  0  0  0  0  0  0  0  0
    8.6904  -18.3671   23.2082 C   0  0  0  0  0  0  0  0  0  0  0  0
    9.3058  -17.1513   22.5184 C   0  0  2  0  0  0  0  0  0  0  0  0
    8.4915  -16.6563   21.4630 N   0  0  0  0  0  0  0  0  0  0  0  0
   10.7010  -17.4528   22.0779 C   0  0  0  0  0  0  0  0  0  0  0  0
   10.9141  -18.3773   21.2525 O   0  0  0  0  0  0  0  0  0  0  0  0
   16.4616  -12.9460   17.4175 N   0  0  0  0  0  0  0  0  0  0  0  0
   17.0054  -14.1827   17.8142 C   0  0  0  0  0  0  0  0  0  0  0  0
   18.1247  -14.5623   17.2660 N   0  0  0  0  0  0  0  0  0  0  0  0
   16.3971  -15.0344   18.7787 N   0  0  0  0  0  0  0  0  0  0  0  0
   15.1096  -14.6787   19.4000 C   0  0  0  0  0  0  0  0  0  0  0  0
   14.8153  -15.7224   20.4105 C   0  0  0  0  0  0  0  0  0  0  0  0
   13.4755  -15.7424   21.0206 C   0  0  0  0  0  0  0  0  0  0  0  0
   13.1496  -16.8328   21.9729 C   0  0  2  0  0  0  0  0  0  0  0  0
   11.8257  -16.7287   22.5577 N   0  0  0  0  0  0  0  0  0  0  0  0
   14.1789  -17.0957   23.0033 C   0  0  0  0  0  0  0  0  0  0  0  0
   15.3759  -17.3121   22.7002 O   0  0  0  0  0  0  0  0  0  0  0  0
   13.8435  -17.1099   24.3443 O   0  0  0  0  0  0  0  0  0  0  0  0
  2  3  1  0
  2  1  1  0
  3  4  1  6
  5  3  1  0
  5  6  1  1
  7  5  1  0
  7  8  2  0
 10  9  1  6
 10 12  1  0
 11 10  1  0
 11  7  1  0
 12 13  2  0
 12 22  1  0
 15 16  2  0
 15 14  1  0
 17 15  1  0
 18 19  1  0
 18 17  1  0
 20 19  1  0
 21 20  1  1
 21 23  1  0
 22 21  1  0
 23 24  2  0
 23 25  1  0
M  END
$$$$
