IAR.pdb
     RDKit          3D

 25 24  0  0  1  0  0  0  0  0999 V2000
    6.6321  -12.2032   19.1200 C   0  0  0  0  0  0  0  0  0  0  0  0
    7.5251  -13.2905   18.6315 C   0  0  0  0  0  0  0  0  0  0  0  0
    8.1862  -14.1226   19.6655 C   0  0  2  0  0  0  0  0  0  0  0  0
    8.8968  -13.2526   20.6895 C   0  0  0  0  0  0  0  0  0  0  0  0
    8.9392  -15.3162   19.2277 C   0  0  2  0  0  0  0  0  0  0  0  0
    8.0207  -16.1281   18.3966 N   0  0  0  0  0  0  0  0  0  0  0  0
    9.5137  -16.1729   20.2695 C   0  0  0  0  0  0  0  0  0  0  0  0
    8.8523  -16.9614   20.9872 O   0  0  0  0  0  0  0  0  0  0  0  0
   13.0166  -16.8625   21.5249 C   0  0  0  0  0  0  0  0  0  0  0  0
   11.4899  -16.8761   21.5643 C   0  0  2  0  0  0  0  0  0  0  0  0
   10.9131  -16.1264   20.5027 N   0  0  0  0  0  0  0  0  0  0  0  0
   10.9995  -16.4452   22.9079 C   0  0  0  0  0  0  0  0  0  0  0  0
   10.9971  -15.2258   23.2152 O   0  0  0  0  0  0  0  0  0  0  0  0
    7.3397  -21.1276   24.4933 N   0  0  0  0  0  0  0  0  0  0  0  0
    6.0889  -20.5006   24.6515 C   0  0  0  0  0  0  0  0  0  0  0  0
    5.1229  -20.8535   23.8517 N   0  0  0  0  0  0  0  0  0  0  0  0
    5.8282  -19.5063   25.6358 N   0  0  0  0  0  0  0  0  0  0  0  0
    6.3014  -18.1223   25.4597 C   0  0  0  0  0  0  0  0  0  0  0  0
    7.7829  -18.1703   25.4547 C   0  0  0  0  0  0  0  0  0  0  0  0
    8.5192  -16.9149   25.2319 C   0  0  0  0  0  0  0  0  0  0  0  0
   10.0010  -16.9668   25.1711 C   0  0  2  0  0  0  0  0  0  0  0  0
   10.5243  -17.3680   23.8785 N   0  0  0  0  0  0  0  0  0  0  0  0
   10.6495  -17.7108   26.2739 C   0  0  0  0  0  0  0  0  0  0  0  0
   11.2556  -18.7899   26.0751 O   0  0  0  0  0  0  0  0  0  0  0  0
   10.6037  -17.2293   27.5689 O   0  0  0  0  0  0  0  0  0  0  0  0
  2  3  1  0
  2  1  1  0
  3  4  1  6
  5  3  1  0
  5  6  1  1
  7  5  1  0
  7  8  2  0
 10  9  1  1
 10 12  1  0
 11 10  1  0
 11  7  1  0
 12 13  2  0
 12 22  1  0
 15 16  2  0
 15 14  1  0
 17 15  1  0
 18 19  1  0
 18 17  1  0
 20 19  1  0
 21 20  1  6
 21 23  1  0
 22 21  1  0
 23 24  2  0
 23 25  1  0
M  END
$$$$
