IAR.pdb
     RDKit          3D

 25 24  0  0  1  0  0  0  0  0999 V2000
    7.8580  -15.6968   16.3878 C   0  0  0  0  0  0  0  0  0  0  0  0
    7.7242  -14.5078   17.2745 C   0  0  0  0  0  0  0  0  0  0  0  0
    8.1824  -14.6684   18.6756 C   0  0  2  0  0  0  0  0  0  0  0  0
    7.7650  -16.0202   19.2314 C   0  0  0  0  0  0  0  0  0  0  0  0
    8.0123  -13.5307   19.6029 C   0  0  2  0  0  0  0  0  0  0  0  0
    8.5975  -12.3412   18.9424 N   0  0  0  0  0  0  0  0  0  0  0  0
    8.5921  -13.6584   20.9434 C   0  0  0  0  0  0  0  0  0  0  0  0
    9.8218  -13.6353   21.1919 O   0  0  0  0  0  0  0  0  0  0  0  0
    7.2502  -13.6965   24.4571 C   0  0  0  0  0  0  0  0  0  0  0  0
    8.2554  -14.0301   23.3568 C   0  0  2  0  0  0  0  0  0  0  0  0
    7.7241  -13.8203   22.0547 N   0  0  0  0  0  0  0  0  0  0  0  0
    8.7943  -15.4107   23.5445 C   0  0  0  0  0  0  0  0  0  0  0  0
    8.0850  -16.4076   23.2545 O   0  0  0  0  0  0  0  0  0  0  0  0
   15.0923  -14.2463   21.3013 N   0  0  0  0  0  0  0  0  0  0  0  0
   14.3372  -14.8204   20.2607 C   0  0  0  0  0  0  0  0  0  0  0  0
   14.3558  -14.2346   19.0971 N   0  0  0  0  0  0  0  0  0  0  0  0
   13.5590  -16.0019   20.4152 N   0  0  0  0  0  0  0  0  0  0  0  0
   13.5630  -16.7524   21.6828 C   0  0  0  0  0  0  0  0  0  0  0  0
   12.2460  -16.5242   22.3234 C   0  0  0  0  0  0  0  0  0  0  0  0
   11.9683  -17.1979   23.6028 C   0  0  0  0  0  0  0  0  0  0  0  0
   10.6428  -16.9903   24.2368 C   0  0  2  0  0  0  0  0  0  0  0  0
   10.1006  -15.6579   24.0468 N   0  0  0  0  0  0  0  0  0  0  0  0
   10.5484  -17.4181   25.6504 C   0  0  0  0  0  0  0  0  0  0  0  0
   10.1788  -16.6324   26.5545 O   0  0  0  0  0  0  0  0  0  0  0  0
   10.8692  -18.7122   26.0161 O   0  0  0  0  0  0  0  0  0  0  0  0
  2  3  1  0
  2  1  1  0
  3  4  1  1
  5  3  1  0
  5  6  1  6
  7  5  1  0
  7  8  2  0
 10  9  1  1
 10 12  1  0
 11 10  1  0
 11  7  1  0
 12 13  2  0
 12 22  1  0
 15 16  2  0
 15 14  1  0
 17 15  1  0
 18 19  1  0
 18 17  1  0
 20 19  1  0
 21 20  1  1
 21 23  1  0
 22 21  1  0
 23 24  2  0
 23 25  1  0
M  END
$$$$
