IAR.pdb
     RDKit          3D

 25 24  0  0  1  0  0  0  0  0999 V2000
    4.8466  -19.2190   18.0296 C   0  0  0  0  0  0  0  0  0  0  0  0
    4.3813  -19.8185   19.3111 C   0  0  0  0  0  0  0  0  0  0  0  0
    4.8824  -19.1925   20.5584 C   0  0  2  0  0  0  0  0  0  0  0  0
    6.3705  -18.8991   20.4585 C   0  0  0  0  0  0  0  0  0  0  0  0
    4.4408  -19.7558   21.8511 C   0  0  2  0  0  0  0  0  0  0  0  0
    2.9605  -19.7121   21.8605 N   0  0  0  0  0  0  0  0  0  0  0  0
    4.9390  -19.1165   23.0727 C   0  0  0  0  0  0  0  0  0  0  0  0
    4.7121  -17.9255   23.3960 O   0  0  0  0  0  0  0  0  0  0  0  0
    6.6291  -20.2717   26.2181 C   0  0  0  0  0  0  0  0  0  0  0  0
    6.3071  -19.2623   25.1180 C   0  0  2  0  0  0  0  0  0  0  0  0
    5.7356  -19.8755   23.9694 N   0  0  0  0  0  0  0  0  0  0  0  0
    7.5129  -18.4420   24.7944 C   0  0  0  0  0  0  0  0  0  0  0  0
    8.3965  -18.8988   24.0250 O   0  0  0  0  0  0  0  0  0  0  0  0
    7.3654  -11.8306   20.1654 N   0  0  0  0  0  0  0  0  0  0  0  0
    7.6459  -13.1660   19.8177 C   0  0  0  0  0  0  0  0  0  0  0  0
    7.6175  -13.4877   18.5555 N   0  0  0  0  0  0  0  0  0  0  0  0
    7.9571  -14.1763   20.7705 N   0  0  0  0  0  0  0  0  0  0  0  0
    8.0934  -13.8533   22.2014 C   0  0  0  0  0  0  0  0  0  0  0  0
    8.4062  -15.1215   22.9020 C   0  0  0  0  0  0  0  0  0  0  0  0
    8.6374  -15.0752   24.3553 C   0  0  0  0  0  0  0  0  0  0  0  0
    8.9036  -16.3488   25.0688 C   0  0  2  0  0  0  0  0  0  0  0  0
    7.7148  -17.1398   25.3264 N   0  0  0  0  0  0  0  0  0  0  0  0
    9.7472  -16.2268   26.2787 C   0  0  0  0  0  0  0  0  0  0  0  0
   10.8992  -15.7346   26.2332 O   0  0  0  0  0  0  0  0  0  0  0  0
    9.2812  -16.6578   27.5068 O   0  0  0  0  0  0  0  0  0  0  0  0
  2  3  1  0
  2  1  1  0
  3  4  1  6
  5  3  1  0
  5  6  1  6
  7  5  1  0
  7  8  2  0
 10  9  1  1
 10 12  1  0
 11 10  1  0
 11  7  1  0
 12 13  2  0
 12 22  1  0
 15 16  2  0
 15 14  1  0
 17 15  1  0
 18 19  1  0
 18 17  1  0
 20 19  1  0
 21 20  1  1
 21 23  1  0
 22 21  1  0
 23 24  2  0
 23 25  1  0
M  END
$$$$
