IAR.pdb
     RDKit          3D

 25 24  0  0  1  0  0  0  0  0999 V2000
    7.5622  -15.3569   16.5998 C   0  0  0  0  0  0  0  0  0  0  0  0
    7.4431  -14.1954   17.5244 C   0  0  0  0  0  0  0  0  0  0  0  0
    7.9062  -14.4044   18.9174 C   0  0  2  0  0  0  0  0  0  0  0  0
    7.4586  -15.7596   19.4406 C   0  0  0  0  0  0  0  0  0  0  0  0
    7.7707  -13.2876   19.8754 C   0  0  2  0  0  0  0  0  0  0  0  0
    8.4421  -12.1138   19.2715 N   0  0  0  0  0  0  0  0  0  0  0  0
    8.2997  -13.4890   21.2278 C   0  0  0  0  0  0  0  0  0  0  0  0
    9.5137  -13.6522   21.5000 O   0  0  0  0  0  0  0  0  0  0  0  0
    6.8445  -13.4325   24.7109 C   0  0  0  0  0  0  0  0  0  0  0  0
    7.8631  -13.7998   23.6338 C   0  0  2  0  0  0  0  0  0  0  0  0
    7.3973  -13.5045   22.3232 N   0  0  0  0  0  0  0  0  0  0  0  0
    8.2929  -15.2223   23.7866 C   0  0  0  0  0  0  0  0  0  0  0  0
    7.6131  -16.1440   23.2673 O   0  0  0  0  0  0  0  0  0  0  0  0
   13.2378  -16.0725   18.8250 N   0  0  0  0  0  0  0  0  0  0  0  0
   13.7463  -15.4531   19.9828 C   0  0  0  0  0  0  0  0  0  0  0  0
   14.7417  -14.6238   19.8452 N   0  0  0  0  0  0  0  0  0  0  0  0
   13.2303  -15.6860   21.2885 N   0  0  0  0  0  0  0  0  0  0  0  0
   12.1067  -16.6137   21.5057 C   0  0  0  0  0  0  0  0  0  0  0  0
   11.8068  -16.5956   22.9572 C   0  0  0  0  0  0  0  0  0  0  0  0
   10.7031  -17.4360   23.4504 C   0  0  0  0  0  0  0  0  0  0  0  0
    9.9247  -16.9631   24.6219 C   0  0  2  0  0  0  0  0  0  0  0  0
    9.4603  -15.5933   24.5071 N   0  0  0  0  0  0  0  0  0  0  0  0
   10.5541  -17.2144   25.9376 C   0  0  0  0  0  0  0  0  0  0  0  0
   10.6980  -16.3023   26.7853 O   0  0  0  0  0  0  0  0  0  0  0  0
   11.0057  -18.4778   26.2709 O   0  0  0  0  0  0  0  0  0  0  0  0
  2  3  1  0
  2  1  1  0
  3  4  1  1
  5  3  1  0
  5  6  1  6
  7  5  1  0
  7  8  2  0
 10  9  1  1
 10 12  1  0
 11 10  1  0
 11  7  1  0
 12 13  2  0
 12 22  1  0
 15 16  2  0
 15 14  1  0
 17 15  1  0
 18 19  1  0
 18 17  1  0
 20 19  1  0
 21 20  1  6
 21 23  1  0
 22 21  1  0
 23 24  2  0
 23 25  1  0
M  END
$$$$
