IAR.pdb
     RDKit          3D

 25 24  0  0  1  0  0  0  0  0999 V2000
    6.1362  -10.8295   27.5132 C   0  0  0  0  0  0  0  0  0  0  0  0
    5.7720  -12.1587   26.9486 C   0  0  0  0  0  0  0  0  0  0  0  0
    6.8381  -12.8852   26.2175 C   0  0  2  0  0  0  0  0  0  0  0  0
    7.7131  -11.9202   25.4341 C   0  0  0  0  0  0  0  0  0  0  0  0
    6.4753  -14.1249   25.5001 C   0  0  2  0  0  0  0  0  0  0  0  0
    5.6507  -14.9362   26.4250 N   0  0  0  0  0  0  0  0  0  0  0  0
    7.5702  -14.9569   24.9918 C   0  0  0  0  0  0  0  0  0  0  0  0
    8.5258  -14.5303   24.2996 O   0  0  0  0  0  0  0  0  0  0  0  0
    8.4443  -18.6359   25.2213 C   0  0  0  0  0  0  0  0  0  0  0  0
    8.5415  -17.2036   24.6999 C   0  0  2  0  0  0  0  0  0  0  0  0
    7.5734  -16.3449   25.2891 N   0  0  0  0  0  0  0  0  0  0  0  0
    8.4939  -17.1883   23.2069 C   0  0  0  0  0  0  0  0  0  0  0  0
    7.3869  -17.2377   22.6124 O   0  0  0  0  0  0  0  0  0  0  0  0
    8.9729  -15.2372   16.7116 N   0  0  0  0  0  0  0  0  0  0  0  0
    8.2772  -14.0195   16.8373 C   0  0  0  0  0  0  0  0  0  0  0  0
    7.7476  -13.5046   15.7641 N   0  0  0  0  0  0  0  0  0  0  0  0
    8.1243  -13.3266   18.0711 N   0  0  0  0  0  0  0  0  0  0  0  0
    9.0262  -13.5901   19.2057 C   0  0  0  0  0  0  0  0  0  0  0  0
    8.3210  -14.5313   20.1078 C   0  0  0  0  0  0  0  0  0  0  0  0
    9.0310  -15.0124   21.3046 C   0  0  0  0  0  0  0  0  0  0  0  0
    9.7727  -16.2947   21.2176 C   0  0  2  0  0  0  0  0  0  0  0  0
    9.6664  -17.1190   22.4070 N   0  0  0  0  0  0  0  0  0  0  0  0
   11.1755  -16.1795   20.7606 C   0  0  0  0  0  0  0  0  0  0  0  0
   12.1102  -15.9260   21.5565 O   0  0  0  0  0  0  0  0  0  0  0  0
   11.4966  -16.3507   19.4269 O   0  0  0  0  0  0  0  0  0  0  0  0
  2  3  1  0
  2  1  1  0
  3  4  1  6
  5  3  1  0
  5  6  1  1
  7  5  1  0
  7  8  2  0
 10  9  1  1
 10 12  1  0
 11 10  1  0
 11  7  1  0
 12 13  2  0
 12 22  1  0
 15 16  2  0
 15 14  1  0
 17 15  1  0
 18 19  1  0
 18 17  1  0
 20 19  1  0
 21 20  1  1
 21 23  1  0
 22 21  1  0
 23 24  2  0
 23 25  1  0
M  END
$$$$
