IAR.pdb
     RDKit          3D

 25 24  0  0  1  0  0  0  0  0999 V2000
    5.7266  -11.6575   27.1685 C   0  0  0  0  0  0  0  0  0  0  0  0
    5.4257  -12.8887   26.3864 C   0  0  0  0  0  0  0  0  0  0  0  0
    6.5269  -13.4354   25.5574 C   0  0  2  0  0  0  0  0  0  0  0  0
    7.2309  -12.3272   24.7913 C   0  0  0  0  0  0  0  0  0  0  0  0
    6.2752  -14.6689   24.7839 C   0  0  2  0  0  0  0  0  0  0  0  0
    5.7711  -15.6839   25.7375 N   0  0  0  0  0  0  0  0  0  0  0  0
    7.4004  -15.2407   24.0381 C   0  0  0  0  0  0  0  0  0  0  0  0
    8.3217  -15.9210   24.5509 O   0  0  0  0  0  0  0  0  0  0  0  0
    8.5341  -15.1697   20.4299 C   0  0  0  0  0  0  0  0  0  0  0  0
    8.4504  -15.7068   21.8572 C   0  0  2  0  0  0  0  0  0  0  0  0
    7.4767  -15.0248   22.6373 N   0  0  0  0  0  0  0  0  0  0  0  0
    9.8019  -15.7082   22.4935 C   0  0  0  0  0  0  0  0  0  0  0  0
   10.4116  -14.6239   22.6774 O   0  0  0  0  0  0  0  0  0  0  0  0
   11.1242  -14.5996   27.6169 N   0  0  0  0  0  0  0  0  0  0  0  0
   10.8749  -15.6180   28.5568 C   0  0  0  0  0  0  0  0  0  0  0  0
   11.0633  -15.3461   29.8170 N   0  0  0  0  0  0  0  0  0  0  0  0
   10.4300  -16.9223   28.2015 N   0  0  0  0  0  0  0  0  0  0  0  0
   11.1815  -17.7434   27.2364 C   0  0  0  0  0  0  0  0  0  0  0  0
   11.1780  -17.0078   25.9495 C   0  0  0  0  0  0  0  0  0  0  0  0
   11.8580  -17.6201   24.7960 C   0  0  0  0  0  0  0  0  0  0  0  0
   11.7802  -16.9317   23.4837 C   0  0  2  0  0  0  0  0  0  0  0  0
   10.4474  -16.9035   22.9109 N   0  0  0  0  0  0  0  0  0  0  0  0
   12.7895  -17.3590   22.4892 C   0  0  0  0  0  0  0  0  0  0  0  0
   14.0177  -17.2069   22.6882 O   0  0  0  0  0  0  0  0  0  0  0  0
   12.3996  -17.9447   21.2992 O   0  0  0  0  0  0  0  0  0  0  0  0
  2  3  1  0
  2  1  1  0
  3  4  1  6
  5  3  1  0
  5  6  1  1
  7  5  1  0
  7  8  2  0
 10  9  1  6
 10 12  1  0
 11 10  1  0
 11  7  1  0
 12 13  2  0
 12 22  1  0
 15 16  2  0
 15 14  1  0
 17 15  1  0
 18 19  1  0
 18 17  1  0
 20 19  1  0
 21 20  1  1
 21 23  1  0
 22 21  1  0
 23 24  2  0
 23 25  1  0
M  END
$$$$
