IAR.pdb
     RDKit          3D

 25 24  0  0  1  0  0  0  0  0999 V2000
    6.7030  -11.8401   19.5957 C   0  0  0  0  0  0  0  0  0  0  0  0
    7.8346  -12.7445   19.2498 C   0  0  0  0  0  0  0  0  0  0  0  0
    8.1031  -13.8617   20.1871 C   0  0  2  0  0  0  0  0  0  0  0  0
    8.0863  -13.3772   21.6278 C   0  0  0  0  0  0  0  0  0  0  0  0
    9.1899  -14.8068   19.8570 C   0  0  2  0  0  0  0  0  0  0  0  0
    8.8881  -15.3652   18.5189 N   0  0  0  0  0  0  0  0  0  0  0  0
    9.4282  -15.9146   20.7873 C   0  0  0  0  0  0  0  0  0  0  0  0
    8.8077  -17.0051   20.7690 O   0  0  0  0  0  0  0  0  0  0  0  0
   12.2857  -16.8691   22.9448 C   0  0  0  0  0  0  0  0  0  0  0  0
   10.7990  -16.8783   22.5951 C   0  0  2  0  0  0  0  0  0  0  0  0
   10.4247  -15.7695   21.7875 N   0  0  0  0  0  0  0  0  0  0  0  0
    9.9730  -16.9944   23.8344 C   0  0  0  0  0  0  0  0  0  0  0  0
    9.8911  -16.0232   24.6290 O   0  0  0  0  0  0  0  0  0  0  0  0
    5.4212  -23.8677   27.9891 N   0  0  0  0  0  0  0  0  0  0  0  0
    5.0512  -22.5622   28.3654 C   0  0  0  0  0  0  0  0  0  0  0  0
    3.9918  -22.4179   29.1098 N   0  0  0  0  0  0  0  0  0  0  0  0
    5.7725  -21.3989   27.9756 N   0  0  0  0  0  0  0  0  0  0  0  0
    6.9523  -21.4963   27.0988 C   0  0  0  0  0  0  0  0  0  0  0  0
    7.4750  -20.1203   26.9245 C   0  0  0  0  0  0  0  0  0  0  0  0
    8.0530  -19.7551   25.6206 C   0  0  0  0  0  0  0  0  0  0  0  0
    8.6846  -18.4200   25.4772 C   0  0  2  0  0  0  0  0  0  0  0  0
    9.2583  -18.1769   24.1668 N   0  0  0  0  0  0  0  0  0  0  0  0
    9.6250  -18.0503   26.5585 C   0  0  0  0  0  0  0  0  0  0  0  0
   10.8518  -18.2950   26.4786 O   0  0  0  0  0  0  0  0  0  0  0  0
    9.1697  -17.4172   27.7000 O   0  0  0  0  0  0  0  0  0  0  0  0
  2  3  1  0
  2  1  1  0
  3  4  1  1
  5  3  1  0
  5  6  1  6
  7  5  1  0
  7  8  2  0
 10  9  1  1
 10 12  1  0
 11 10  1  0
 11  7  1  0
 12 13  2  0
 12 22  1  0
 15 16  2  0
 15 14  1  0
 17 15  1  0
 18 19  1  0
 18 17  1  0
 20 19  1  0
 21 20  1  6
 21 23  1  0
 22 21  1  0
 23 24  2  0
 23 25  1  0
M  END
$$$$
