IAR.pdb
     RDKit          3D

 25 24  0  0  1  0  0  0  0  0999 V2000
    7.5234  -11.5434   20.1522 C   0  0  0  0  0  0  0  0  0  0  0  0
    7.9270  -12.9594   20.3764 C   0  0  0  0  0  0  0  0  0  0  0  0
    8.9486  -13.5132   19.4552 C   0  0  2  0  0  0  0  0  0  0  0  0
    8.5904  -13.2190   18.0076 C   0  0  0  0  0  0  0  0  0  0  0  0
    9.4550  -14.8777   19.7100 C   0  0  2  0  0  0  0  0  0  0  0  0
    8.3402  -15.8130   19.4346 N   0  0  0  0  0  0  0  0  0  0  0  0
    9.9899  -15.1620   21.0451 C   0  0  0  0  0  0  0  0  0  0  0  0
   10.9664  -14.5672   21.5620 O   0  0  0  0  0  0  0  0  0  0  0  0
    9.0115  -17.4277   23.9043 C   0  0  0  0  0  0  0  0  0  0  0  0
    9.9624  -16.5822   23.0596 C   0  0  2  0  0  0  0  0  0  0  0  0
    9.3788  -16.1758   21.8283 N   0  0  0  0  0  0  0  0  0  0  0  0
   11.2648  -17.2903   22.8750 C   0  0  0  0  0  0  0  0  0  0  0  0
   11.5600  -17.7826   21.7561 O   0  0  0  0  0  0  0  0  0  0  0  0
   12.2483  -14.2145   19.0107 N   0  0  0  0  0  0  0  0  0  0  0  0
   13.3557  -14.9433   18.5364 C   0  0  0  0  0  0  0  0  0  0  0  0
   13.3479  -15.3252   17.2908 N   0  0  0  0  0  0  0  0  0  0  0  0
   14.4771  -15.2819   19.3448 N   0  0  0  0  0  0  0  0  0  0  0  0
   14.5100  -14.9405   20.7775 C   0  0  0  0  0  0  0  0  0  0  0  0
   14.0990  -16.1557   21.5200 C   0  0  0  0  0  0  0  0  0  0  0  0
   14.0390  -16.0865   22.9895 C   0  0  0  0  0  0  0  0  0  0  0  0
   13.6409  -17.3044   23.7380 C   0  0  2  0  0  0  0  0  0  0  0  0
   12.2086  -17.4382   23.9271 N   0  0  0  0  0  0  0  0  0  0  0  0
   14.3790  -17.5359   24.9997 C   0  0  0  0  0  0  0  0  0  0  0  0
   13.8317  -17.3990   26.1191 O   0  0  0  0  0  0  0  0  0  0  0  0
   15.7085  -17.9142   24.9771 O   0  0  0  0  0  0  0  0  0  0  0  0
  2  3  1  0
  2  1  1  0
  3  4  1  6
  5  3  1  0
  5  6  1  1
  7  5  1  0
  7  8  2  0
 10  9  1  6
 10 12  1  0
 11 10  1  0
 11  7  1  0
 12 13  2  0
 12 22  1  0
 15 16  2  0
 15 14  1  0
 17 15  1  0
 18 19  1  0
 18 17  1  0
 20 19  1  0
 21 20  1  1
 21 23  1  0
 22 21  1  0
 23 24  2  0
 23 25  1  0
M  END
$$$$
