IAR.pdb
     RDKit          3D

 25 24  0  0  1  0  0  0  0  0999 V2000
    5.3620  -10.7525   26.1817 C   0  0  0  0  0  0  0  0  0  0  0  0
    6.2704  -11.6854   26.9048 C   0  0  0  0  0  0  0  0  0  0  0  0
    7.0498  -12.6330   26.0722 C   0  0  2  0  0  0  0  0  0  0  0  0
    8.1365  -11.9066   25.2962 C   0  0  0  0  0  0  0  0  0  0  0  0
    6.3146  -13.6609   25.3067 C   0  0  2  0  0  0  0  0  0  0  0  0
    5.5424  -14.4611   26.2849 N   0  0  0  0  0  0  0  0  0  0  0  0
    7.1011  -14.5716   24.4691 C   0  0  0  0  0  0  0  0  0  0  0  0
    7.6412  -15.6275   24.8788 O   0  0  0  0  0  0  0  0  0  0  0  0
    8.0171  -14.6681   20.7933 C   0  0  0  0  0  0  0  0  0  0  0  0
    7.9408  -15.1758   22.2317 C   0  0  2  0  0  0  0  0  0  0  0  0
    7.2791  -14.2607   23.0957 N   0  0  0  0  0  0  0  0  0  0  0  0
    9.2997  -15.5540   22.7236 C   0  0  0  0  0  0  0  0  0  0  0  0
   10.0551  -14.6794   23.2193 O   0  0  0  0  0  0  0  0  0  0  0  0
    7.9469  -19.1138   28.0035 N   0  0  0  0  0  0  0  0  0  0  0  0
    9.3468  -19.2220   27.8971 C   0  0  0  0  0  0  0  0  0  0  0  0
    9.9850  -19.8489   28.8443 N   0  0  0  0  0  0  0  0  0  0  0  0
   10.0955  -18.6840   26.8129 N   0  0  0  0  0  0  0  0  0  0  0  0
    9.8559  -19.1314   25.4299 C   0  0  0  0  0  0  0  0  0  0  0  0
   11.1768  -19.1880   24.7598 C   0  0  0  0  0  0  0  0  0  0  0  0
   11.2715  -18.7193   23.3673 C   0  0  0  0  0  0  0  0  0  0  0  0
   11.1199  -17.2677   23.0991 C   0  0  2  0  0  0  0  0  0  0  0  0
    9.7919  -16.8855   22.6569 N   0  0  0  0  0  0  0  0  0  0  0  0
   12.1695  -16.6743   22.2409 C   0  0  0  0  0  0  0  0  0  0  0  0
   11.9715  -16.4341   21.0266 O   0  0  0  0  0  0  0  0  0  0  0  0
   13.4120  -16.3650   22.7622 O   0  0  0  0  0  0  0  0  0  0  0  0
  2  3  1  0
  2  1  1  0
  3  4  1  6
  5  3  1  0
  5  6  1  1
  7  5  1  0
  7  8  2  0
 10  9  1  6
 10 12  1  0
 11 10  1  0
 11  7  1  0
 12 13  2  0
 12 22  1  0
 15 16  2  0
 15 14  1  0
 17 15  1  0
 18 19  1  0
 18 17  1  0
 20 19  1  0
 21 20  1  6
 21 23  1  0
 22 21  1  0
 23 24  2  0
 23 25  1  0
M  END
$$$$
