IAR.pdb
     RDKit          3D

 25 24  0  0  1  0  0  0  0  0999 V2000
    7.2501  -12.3746   18.4124 C   0  0  0  0  0  0  0  0  0  0  0  0
    8.2577  -13.4285   18.7162 C   0  0  0  0  0  0  0  0  0  0  0  0
    8.1878  -14.0467   20.0622 C   0  0  2  0  0  0  0  0  0  0  0  0
    8.1476  -12.9824   21.1468 C   0  0  0  0  0  0  0  0  0  0  0  0
    9.0653  -15.2003   20.3494 C   0  0  2  0  0  0  0  0  0  0  0  0
    8.7598  -16.2399   19.3398 N   0  0  0  0  0  0  0  0  0  0  0  0
    8.9787  -15.7999   21.6844 C   0  0  0  0  0  0  0  0  0  0  0  0
    9.2558  -15.2022   22.7523 O   0  0  0  0  0  0  0  0  0  0  0  0
    8.0318  -19.2199   23.0094 C   0  0  0  0  0  0  0  0  0  0  0  0
    8.6398  -17.8197   23.0562 C   0  0  2  0  0  0  0  0  0  0  0  0
    8.5542  -17.1490   21.8054 N   0  0  0  0  0  0  0  0  0  0  0  0
   10.0351  -17.8750   23.5870 C   0  0  0  0  0  0  0  0  0  0  0  0
   11.0054  -17.9861   22.7950 O   0  0  0  0  0  0  0  0  0  0  0  0
    8.7526  -15.4519   28.7757 N   0  0  0  0  0  0  0  0  0  0  0  0
   10.0631  -15.1357   29.1820 C   0  0  0  0  0  0  0  0  0  0  0  0
   10.2596  -14.8394   30.4354 N   0  0  0  0  0  0  0  0  0  0  0  0
   11.1778  -15.1236   28.2973 N   0  0  0  0  0  0  0  0  0  0  0  0
   11.1212  -14.3991   27.0158 C   0  0  0  0  0  0  0  0  0  0  0  0
   11.5620  -15.3467   25.9647 C   0  0  0  0  0  0  0  0  0  0  0  0
   12.0099  -16.6867   26.3790 C   0  0  0  0  0  0  0  0  0  0  0  0
   11.6742  -17.8428   25.5114 C   0  0  2  0  0  0  0  0  0  0  0  0
   10.3260  -17.8065   24.9763 N   0  0  0  0  0  0  0  0  0  0  0  0
   11.9967  -19.1702   26.0807 C   0  0  0  0  0  0  0  0  0  0  0  0
   11.1004  -19.9736   26.4310 O   0  0  0  0  0  0  0  0  0  0  0  0
   13.3116  -19.5647   26.2434 O   0  0  0  0  0  0  0  0  0  0  0  0
  2  3  1  0
  2  1  1  0
  3  4  1  1
  5  3  1  0
  5  6  1  6
  7  5  1  0
  7  8  2  0
 10  9  1  6
 10 12  1  0
 11 10  1  0
 11  7  1  0
 12 13  2  0
 12 22  1  0
 15 16  2  0
 15 14  1  0
 17 15  1  0
 18 19  1  0
 18 17  1  0
 20 19  1  0
 21 20  1  1
 21 23  1  0
 22 21  1  0
 23 24  2  0
 23 25  1  0
M  END
$$$$
