IAR.pdb
     RDKit          3D

 25 24  0  0  1  0  0  0  0  0999 V2000
    7.7535  -12.0759   20.3457 C   0  0  0  0  0  0  0  0  0  0  0  0
    7.5276  -13.4658   19.8605 C   0  0  0  0  0  0  0  0  0  0  0  0
    8.6575  -14.1146   19.1526 C   0  0  2  0  0  0  0  0  0  0  0  0
    9.2392  -13.1893   18.0962 C   0  0  0  0  0  0  0  0  0  0  0  0
    8.5059  -15.5240   18.7354 C   0  0  2  0  0  0  0  0  0  0  0  0
    7.4775  -15.5530   17.6700 N   0  0  0  0  0  0  0  0  0  0  0  0
    8.1425  -16.4993   19.7679 C   0  0  0  0  0  0  0  0  0  0  0  0
    6.9650  -16.8084   20.0719 O   0  0  0  0  0  0  0  0  0  0  0  0
    8.0166  -19.2676   20.9372 C   0  0  0  0  0  0  0  0  0  0  0  0
    8.8571  -18.1164   21.4855 C   0  0  2  0  0  0  0  0  0  0  0  0
    9.1754  -17.1540   20.4884 N   0  0  0  0  0  0  0  0  0  0  0  0
   10.0668  -18.6424   22.1867 C   0  0  0  0  0  0  0  0  0  0  0  0
   10.9214  -19.3108   21.5510 O   0  0  0  0  0  0  0  0  0  0  0  0
   13.3862  -13.7044   18.9425 N   0  0  0  0  0  0  0  0  0  0  0  0
   14.2522  -14.7098   19.4135 C   0  0  0  0  0  0  0  0  0  0  0  0
   15.3659  -14.9090   18.7674 N   0  0  0  0  0  0  0  0  0  0  0  0
   13.9737  -15.5149   20.5536 N   0  0  0  0  0  0  0  0  0  0  0  0
   12.7421  -15.3192   21.3378 C   0  0  0  0  0  0  0  0  0  0  0  0
   12.8297  -16.2209   22.5109 C   0  0  0  0  0  0  0  0  0  0  0  0
   11.6423  -16.3631   23.3698 C   0  0  0  0  0  0  0  0  0  0  0  0
   11.4295  -17.6528   24.0722 C   0  0  2  0  0  0  0  0  0  0  0  0
   10.3042  -18.4189   23.5699 N   0  0  0  0  0  0  0  0  0  0  0  0
   11.4126  -17.5684   25.5496 C   0  0  0  0  0  0  0  0  0  0  0  0
   10.3413  -17.5962   26.2000 O   0  0  0  0  0  0  0  0  0  0  0  0
   12.5926  -17.4554   26.2608 O   0  0  0  0  0  0  0  0  0  0  0  0
  2  3  1  0
  2  1  1  0
  3  4  1  6
  5  3  1  0
  5  6  1  6
  7  5  1  0
  7  8  2  0
 10  9  1  6
 10 12  1  0
 11 10  1  0
 11  7  1  0
 12 13  2  0
 12 22  1  0
 15 16  2  0
 15 14  1  0
 17 15  1  0
 18 19  1  0
 18 17  1  0
 20 19  1  0
 21 20  1  6
 21 23  1  0
 22 21  1  0
 23 24  2  0
 23 25  1  0
M  END
$$$$
