HVM.pdb
     RDKit          3D

 26 26  0  0  1  0  0  0  0  0999 V2000
   25.7414  -17.7632  -16.0990 N   0  0  0  0  0  0  0  0  0  0  0  0
   26.5535  -17.9963  -14.9197 C   0  0  1  0  0  0  0  0  0  0  0  0
   27.2882  -16.6863  -14.6486 C   0  0  0  0  0  0  0  0  0  0  0  0
   28.4108  -16.6224  -15.6476 C   0  0  0  0  0  0  0  0  0  0  0  0
   28.7050  -17.5812  -16.5941 C   0  0  0  0  0  0  0  0  0  0  0  0
   29.7750  -17.1457  -17.2828 N   0  0  0  0  0  0  0  0  0  0  0  0
   30.1642  -15.9560  -16.8095 C   0  0  0  0  0  0  0  0  0  0  0  0
   29.3276  -15.6485  -15.8161 N   0  0  0  0  0  0  0  0  0  0  0  0
   25.7098  -18.3758  -13.7575 C   0  0  0  0  0  0  0  0  0  0  0  0
   24.6963  -17.7187  -13.4192 O   0  0  0  0  0  0  0  0  0  0  0  0
   23.7478  -21.0963  -13.7247 C   0  0  0  0  0  0  0  0  0  0  0  0
   24.6485  -21.3464  -12.5485 C   0  0  2  0  0  0  0  0  0  0  0  0
   23.8923  -22.1385  -11.4757 C   0  0  0  0  0  0  0  0  0  0  0  0
   25.2167  -20.0673  -11.9417 C   0  0  2  0  0  0  0  0  0  0  0  0
   26.0629  -19.5104  -13.0148 N   0  0  0  0  0  0  0  0  0  0  0  0
   26.1512  -20.3605  -10.8113 C   0  0  0  0  0  0  0  0  0  0  0  0
   27.0856  -21.2244  -10.9488 O   0  0  0  0  0  0  0  0  0  0  0  0
   29.0480  -17.5406   -5.6105 C   0  0  0  0  0  0  0  0  0  0  0  0
   28.3672  -19.0553   -4.9254 S   0  0  0  0  0  0  0  0  0  0  0  0
   27.6791  -20.1389   -6.1738 C   0  0  0  0  0  0  0  0  0  0  0  0
   27.1361  -19.3854   -7.3681 C   0  0  0  0  0  0  0  0  0  0  0  0
   26.6513  -20.3754   -8.4016 C   0  0  2  0  0  0  0  0  0  0  0  0
   26.0660  -19.7173   -9.5484 N   0  0  0  0  0  0  0  0  0  0  0  0
   25.6730  -21.3307   -7.7970 C   0  0  0  0  0  0  0  0  0  0  0  0
   26.0720  -22.4480   -7.0975 O   0  0  0  0  0  0  0  0  0  0  0  0
   24.4415  -21.1164   -7.9252 O   0  0  0  0  0  0  0  0  0  0  0  0
  2  1  1  6
  3  2  1  0
  4  8  1  0
  4  3  1  0
  5  4  2  0
  6  5  1  0
  6  7  1  0
  7  8  2  0
  9  2  1  0
  9 10  2  0
 12 13  1  1
 12 11  1  0
 12 14  1  0
 14 15  1  6
 15  9  1  0
 16 14  1  0
 17 16  2  0
 18 19  1  0
 20 19  1  0
 20 21  1  0
 22 21  1  1
 22 23  1  0
 22 24  1  0
 23 16  1  0
 24 26  2  0
 24 25  1  0
M  END
$$$$
