HVM.pdb
     RDKit          3D

 26 26  0  0  1  0  0  0  0  0999 V2000
   28.3396  -20.8741  -16.4973 N   0  0  0  0  0  0  0  0  0  0  0  0
   27.2552  -20.1253  -15.8908 C   0  0  1  0  0  0  0  0  0  0  0  0
   26.3151  -19.7463  -17.0318 C   0  0  0  0  0  0  0  0  0  0  0  0
   27.0126  -18.6609  -17.8048 C   0  0  0  0  0  0  0  0  0  0  0  0
   27.3184  -17.4020  -17.3324 C   0  0  0  0  0  0  0  0  0  0  0  0
   27.9356  -16.7419  -18.3285 N   0  0  0  0  0  0  0  0  0  0  0  0
   28.0299  -17.5319  -19.4046 C   0  0  0  0  0  0  0  0  0  0  0  0
   27.4655  -18.6953  -19.0741 N   0  0  0  0  0  0  0  0  0  0  0  0
   26.5450  -20.9435  -14.8745 C   0  0  0  0  0  0  0  0  0  0  0  0
   26.1785  -22.1223  -15.0969 O   0  0  0  0  0  0  0  0  0  0  0  0
   27.8416  -21.3319  -11.3624 C   0  0  0  0  0  0  0  0  0  0  0  0
   26.4482  -20.7736  -11.2992 C   0  0  2  0  0  0  0  0  0  0  0  0
   25.7427  -21.2826  -10.0370 C   0  0  0  0  0  0  0  0  0  0  0  0
   25.6095  -21.1057  -12.5294 C   0  0  2  0  0  0  0  0  0  0  0  0
   26.2770  -20.3733  -13.6229 N   0  0  0  0  0  0  0  0  0  0  0  0
   24.2375  -20.5172  -12.4372 C   0  0  0  0  0  0  0  0  0  0  0  0
   24.0692  -19.2498  -12.5003 O   0  0  0  0  0  0  0  0  0  0  0  0
   22.3696  -18.8932  -17.1564 C   0  0  0  0  0  0  0  0  0  0  0  0
   20.8381  -19.7190  -16.7098 S   0  0  0  0  0  0  0  0  0  0  0  0
   20.7234  -20.0786  -14.9594 C   0  0  0  0  0  0  0  0  0  0  0  0
   22.0218  -20.5983  -14.3822 C   0  0  0  0  0  0  0  0  0  0  0  0
   21.8435  -20.8468  -12.9025 C   0  0  2  0  0  0  0  0  0  0  0  0
   23.0658  -21.3032  -12.2794 N   0  0  0  0  0  0  0  0  0  0  0  0
   20.7415  -21.8285  -12.6629 C   0  0  0  0  0  0  0  0  0  0  0  0
   19.5140  -21.4499  -12.1664 O   0  0  0  0  0  0  0  0  0  0  0  0
   20.9312  -23.0438  -12.9200 O   0  0  0  0  0  0  0  0  0  0  0  0
  2  1  1  6
  3  2  1  0
  4  8  1  0
  4  3  1  0
  5  4  2  0
  6  5  1  0
  6  7  1  0
  7  8  2  0
  9  2  1  0
  9 10  2  0
 12 13  1  1
 12 11  1  0
 12 14  1  0
 14 15  1  6
 15  9  1  0
 16 14  1  0
 17 16  2  0
 18 19  1  0
 20 19  1  0
 20 21  1  0
 22 21  1  6
 22 23  1  0
 22 24  1  0
 23 16  1  0
 24 26  2  0
 24 25  1  0
M  END
$$$$
