HVM.pdb
     RDKit          3D

 26 26  0  0  1  0  0  0  0  0999 V2000
   18.9443  -14.9954  -17.2440 N   0  0  0  0  0  0  0  0  0  0  0  0
   19.2388  -13.6267  -17.6241 C   0  0  1  0  0  0  0  0  0  0  0  0
   17.9006  -12.9969  -18.0009 C   0  0  0  0  0  0  0  0  0  0  0  0
   17.4562  -13.6837  -19.2631 C   0  0  0  0  0  0  0  0  0  0  0  0
   18.2407  -13.9221  -20.3719 C   0  0  0  0  0  0  0  0  0  0  0  0
   17.4710  -14.5539  -21.2759 N   0  0  0  0  0  0  0  0  0  0  0  0
   16.2385  -14.7219  -20.7823 C   0  0  0  0  0  0  0  0  0  0  0  0
   16.2419  -14.1891  -19.5586 N   0  0  0  0  0  0  0  0  0  0  0  0
   19.8711  -12.8858  -16.5026 C   0  0  0  0  0  0  0  0  0  0  0  0
   19.4075  -12.9063  -15.3372 O   0  0  0  0  0  0  0  0  0  0  0  0
   23.4516  -13.0507  -15.3772 C   0  0  0  0  0  0  0  0  0  0  0  0
   23.1555  -11.6558  -15.8503 C   0  0  2  0  0  0  0  0  0  0  0  0
   23.9994  -10.6499  -15.0590 C   0  0  0  0  0  0  0  0  0  0  0  0
   21.6793  -11.2852  -15.7479 C   0  0  2  0  0  0  0  0  0  0  0  0
   21.0276  -12.1381  -16.7607 N   0  0  0  0  0  0  0  0  0  0  0  0
   21.4309   -9.8793  -16.1937 C   0  0  0  0  0  0  0  0  0  0  0  0
   21.4826   -9.5734  -17.4356 O   0  0  0  0  0  0  0  0  0  0  0  0
   17.5801   -4.3369  -18.8361 C   0  0  0  0  0  0  0  0  0  0  0  0
   17.8456   -5.9826  -18.1667 S   0  0  0  0  0  0  0  0  0  0  0  0
   19.3389   -6.1052  -17.1864 C   0  0  0  0  0  0  0  0  0  0  0  0
   19.5990   -7.5103  -16.6892 C   0  0  0  0  0  0  0  0  0  0  0  0
   20.8501   -7.5138  -15.8418 C   0  0  2  0  0  0  0  0  0  0  0  0
   21.1292   -8.8228  -15.2946 N   0  0  0  0  0  0  0  0  0  0  0  0
   20.7447   -6.5046  -14.7438 C   0  0  0  0  0  0  0  0  0  0  0  0
   20.8549   -5.1514  -14.9752 O   0  0  0  0  0  0  0  0  0  0  0  0
   20.5488   -6.8935  -13.5651 O   0  0  0  0  0  0  0  0  0  0  0  0
  2  1  1  1
  3  2  1  0
  4  8  1  0
  4  3  1  0
  5  4  2  0
  6  5  1  0
  6  7  1  0
  7  8  2  0
  9  2  1  0
  9 10  2  0
 12 13  1  1
 12 11  1  0
 12 14  1  0
 14 15  1  6
 15  9  1  0
 16 14  1  0
 17 16  2  0
 18 19  1  0
 20 19  1  0
 20 21  1  0
 22 21  1  1
 22 23  1  0
 22 24  1  0
 23 16  1  0
 24 26  2  0
 24 25  1  0
M  END
$$$$
