HVM.pdb
     RDKit          3D

 26 26  0  0  1  0  0  0  0  0999 V2000
   25.0122  -15.5821  -18.0856 N   0  0  0  0  0  0  0  0  0  0  0  0
   24.3917  -14.3003  -18.3623 C   0  0  1  0  0  0  0  0  0  0  0  0
   22.9298  -14.6003  -18.6819 C   0  0  0  0  0  0  0  0  0  0  0  0
   22.9325  -15.3506  -19.9855 C   0  0  0  0  0  0  0  0  0  0  0  0
   22.3587  -16.5847  -20.2080 C   0  0  0  0  0  0  0  0  0  0  0  0
   22.5822  -16.9013  -21.4959 N   0  0  0  0  0  0  0  0  0  0  0  0
   23.2710  -15.9198  -22.0903 C   0  0  0  0  0  0  0  0  0  0  0  0
   23.4779  -14.9831  -21.1623 N   0  0  0  0  0  0  0  0  0  0  0  0
   24.4981  -13.3923  -17.1916 C   0  0  0  0  0  0  0  0  0  0  0  0
   24.3391  -13.7927  -16.0135 O   0  0  0  0  0  0  0  0  0  0  0  0
   27.4196  -11.5039  -16.2283 C   0  0  0  0  0  0  0  0  0  0  0  0
   26.3408  -10.4997  -16.5201 C   0  0  2  0  0  0  0  0  0  0  0  0
   26.5352   -9.2597  -15.6400 C   0  0  0  0  0  0  0  0  0  0  0  0
   24.9329  -11.0545  -16.3273 C   0  0  2  0  0  0  0  0  0  0  0  0
   24.7869  -12.0397  -17.4163 N   0  0  0  0  0  0  0  0  0  0  0  0
   23.8896  -10.0154  -16.5897 C   0  0  0  0  0  0  0  0  0  0  0  0
   23.7755   -9.4888  -17.7508 O   0  0  0  0  0  0  0  0  0  0  0  0
   17.8075  -12.0060  -15.5829 C   0  0  0  0  0  0  0  0  0  0  0  0
   18.4535  -10.3967  -15.1140 S   0  0  0  0  0  0  0  0  0  0  0  0
   20.0644  -10.0585  -15.8188 C   0  0  0  0  0  0  0  0  0  0  0  0
   20.6787   -8.7814  -15.2890 C   0  0  0  0  0  0  0  0  0  0  0  0
   22.0111   -8.5535  -15.9643 C   0  0  2  0  0  0  0  0  0  0  0  0
   22.9829   -9.5593  -15.5970 N   0  0  0  0  0  0  0  0  0  0  0  0
   22.5337   -7.1885  -15.6500 C   0  0  0  0  0  0  0  0  0  0  0  0
   22.2134   -6.0852  -16.4095 O   0  0  0  0  0  0  0  0  0  0  0  0
   23.2922   -7.0309  -14.6606 O   0  0  0  0  0  0  0  0  0  0  0  0
  2  1  1  1
  3  2  1  0
  4  8  1  0
  4  3  1  0
  5  4  2  0
  6  5  1  0
  6  7  1  0
  7  8  2  0
  9  2  1  0
  9 10  2  0
 12 13  1  1
 12 11  1  0
 12 14  1  0
 14 15  1  6
 15  9  1  0
 16 14  1  0
 17 16  2  0
 18 19  1  0
 20 19  1  0
 20 21  1  0
 22 21  1  1
 22 23  1  0
 22 24  1  0
 23 16  1  0
 24 26  2  0
 24 25  1  0
M  END
$$$$
