HVM.pdb
     RDKit          3D

 26 26  0  0  1  0  0  0  0  0999 V2000
   13.3734  -22.5601   -9.5028 N   0  0  0  0  0  0  0  0  0  0  0  0
   13.8440  -22.6949   -8.1372 C   0  0  1  0  0  0  0  0  0  0  0  0
   12.5959  -22.6882   -7.2589 C   0  0  0  0  0  0  0  0  0  0  0  0
   12.0102  -21.3077   -7.3757 C   0  0  0  0  0  0  0  0  0  0  0  0
   10.6750  -21.0089   -7.5479 C   0  0  0  0  0  0  0  0  0  0  0  0
   10.5710  -19.6692   -7.6051 N   0  0  0  0  0  0  0  0  0  0  0  0
   11.7824  -19.1153   -7.4764 C   0  0  0  0  0  0  0  0  0  0  0  0
   12.6488  -20.1211   -7.3376 N   0  0  0  0  0  0  0  0  0  0  0  0
   14.6061  -23.9573   -7.9577 C   0  0  0  0  0  0  0  0  0  0  0  0
   14.2349  -25.0442   -8.4620 O   0  0  0  0  0  0  0  0  0  0  0  0
   18.0581  -24.1527   -8.9981 C   0  0  0  0  0  0  0  0  0  0  0  0
   18.0414  -24.5310   -7.5442 C   0  0  2  0  0  0  0  0  0  0  0  0
   19.1461  -25.5557   -7.2625 C   0  0  0  0  0  0  0  0  0  0  0  0
   16.6962  -25.0806   -7.0799 C   0  0  2  0  0  0  0  0  0  0  0  0
   15.7820  -23.9280   -7.1963 N   0  0  0  0  0  0  0  0  0  0  0  0
   16.7143  -25.4274   -5.6251 C   0  0  0  0  0  0  0  0  0  0  0  0
   16.8534  -24.5120   -4.7412 O   0  0  0  0  0  0  0  0  0  0  0  0
   20.2786  -26.9667    0.4666 C   0  0  0  0  0  0  0  0  0  0  0  0
   20.0297  -26.5040   -1.2513 S   0  0  0  0  0  0  0  0  0  0  0  0
   18.3711  -26.8451   -1.8331 C   0  0  0  0  0  0  0  0  0  0  0  0
   18.2120  -26.6095   -3.3191 C   0  0  0  0  0  0  0  0  0  0  0  0
   16.8148  -27.0039   -3.7380 C   0  0  2  0  0  0  0  0  0  0  0  0
   16.5810  -26.7562   -5.1432 N   0  0  0  0  0  0  0  0  0  0  0  0
   15.7957  -26.2898   -2.9091 C   0  0  0  0  0  0  0  0  0  0  0  0
   15.7216  -26.4417   -1.5423 O   0  0  0  0  0  0  0  0  0  0  0  0
   14.9735  -25.5219   -3.4688 O   0  0  0  0  0  0  0  0  0  0  0  0
  2  1  1  6
  3  2  1  0
  4  8  1  0
  4  3  1  0
  5  4  2  0
  6  5  1  0
  6  7  1  0
  7  8  2  0
  9  2  1  0
  9 10  2  0
 12 13  1  6
 12 11  1  0
 12 14  1  0
 14 15  1  1
 15  9  1  0
 16 14  1  0
 17 16  2  0
 18 19  1  0
 20 19  1  0
 20 21  1  0
 22 21  1  1
 22 23  1  0
 22 24  1  0
 23 16  1  0
 24 26  2  0
 24 25  1  0
M  END
$$$$
