HVM.pdb
     RDKit          3D

 26 26  0  0  1  0  0  0  0  0999 V2000
   23.7108  -16.4134  -17.0902 N   0  0  0  0  0  0  0  0  0  0  0  0
   23.7096  -15.0944  -17.6941 C   0  0  1  0  0  0  0  0  0  0  0  0
   22.3051  -14.8890  -18.2547 C   0  0  0  0  0  0  0  0  0  0  0  0
   22.1456  -15.8952  -19.3611 C   0  0  0  0  0  0  0  0  0  0  0  0
   22.6704  -15.7881  -20.6319 C   0  0  0  0  0  0  0  0  0  0  0  0
   22.3004  -16.8894  -21.3096 N   0  0  0  0  0  0  0  0  0  0  0  0
   21.5667  -17.6819  -20.5194 C   0  0  0  0  0  0  0  0  0  0  0  0
   21.4795  -17.0671  -19.3379 N   0  0  0  0  0  0  0  0  0  0  0  0
   24.0332  -14.0479  -16.6906 C   0  0  0  0  0  0  0  0  0  0  0  0
   23.5236  -14.0350  -15.5445 O   0  0  0  0  0  0  0  0  0  0  0  0
   27.6865  -12.8249  -15.9720 C   0  0  0  0  0  0  0  0  0  0  0  0
   26.7970  -11.7065  -16.4359 C   0  0  2  0  0  0  0  0  0  0  0  0
   27.2522  -10.3860  -15.8042 C   0  0  0  0  0  0  0  0  0  0  0  0
   25.3214  -11.9437  -16.1303 C   0  0  2  0  0  0  0  0  0  0  0  0
   24.9415  -13.0404  -17.0417 N   0  0  0  0  0  0  0  0  0  0  0  0
   24.4787  -10.7777  -16.5395 C   0  0  0  0  0  0  0  0  0  0  0  0
   24.3159  -10.4972  -17.7778 O   0  0  0  0  0  0  0  0  0  0  0  0
   18.2327   -6.9136  -17.8218 C   0  0  0  0  0  0  0  0  0  0  0  0
   19.0932   -8.2694  -17.0164 S   0  0  0  0  0  0  0  0  0  0  0  0
   20.8530   -7.9816  -16.8546 C   0  0  0  0  0  0  0  0  0  0  0  0
   21.5886   -9.1672  -16.2693 C   0  0  0  0  0  0  0  0  0  0  0  0
   23.0508   -8.8184  -16.1162 C   0  0  2  0  0  0  0  0  0  0  0  0
   23.8221   -9.9309  -15.6081 N   0  0  0  0  0  0  0  0  0  0  0  0
   23.2173   -7.6250  -15.2311 C   0  0  0  0  0  0  0  0  0  0  0  0
   23.0232   -6.3394  -15.6852 O   0  0  0  0  0  0  0  0  0  0  0  0
   23.5453   -7.7892  -14.0292 O   0  0  0  0  0  0  0  0  0  0  0  0
  2  1  1  1
  3  2  1  0
  4  8  1  0
  4  3  1  0
  5  4  2  0
  6  5  1  0
  6  7  1  0
  7  8  2  0
  9  2  1  0
  9 10  2  0
 12 13  1  1
 12 11  1  0
 12 14  1  0
 14 15  1  6
 15  9  1  0
 16 14  1  0
 17 16  2  0
 18 19  1  0
 20 19  1  0
 20 21  1  0
 22 21  1  1
 22 23  1  0
 22 24  1  0
 23 16  1  0
 24 26  2  0
 24 25  1  0
M  END
$$$$
