HVM.pdb
     RDKit          3D

 26 26  0  0  1  0  0  0  0  0999 V2000
   22.8549  -21.7487  -17.4944 N   0  0  0  0  0  0  0  0  0  0  0  0
   21.5127  -21.7204  -16.9447 C   0  0  1  0  0  0  0  0  0  0  0  0
   20.7917  -22.9312  -17.5308 C   0  0  0  0  0  0  0  0  0  0  0  0
   19.8733  -22.3959  -18.5949 C   0  0  0  0  0  0  0  0  0  0  0  0
   18.6420  -22.9154  -18.9349 C   0  0  0  0  0  0  0  0  0  0  0  0
   18.1475  -22.1520  -19.9256 N   0  0  0  0  0  0  0  0  0  0  0  0
   19.0149  -21.1768  -20.2215 C   0  0  0  0  0  0  0  0  0  0  0  0
   20.0597  -21.3355  -19.4062 N   0  0  0  0  0  0  0  0  0  0  0  0
   21.5421  -21.7936  -15.4614 C   0  0  0  0  0  0  0  0  0  0  0  0
   22.4692  -22.3599  -14.8343 O   0  0  0  0  0  0  0  0  0  0  0  0
   21.0794  -18.6223  -13.4074 C   0  0  0  0  0  0  0  0  0  0  0  0
   20.0462  -19.6435  -13.0243 C   0  0  2  0  0  0  0  0  0  0  0  0
   19.6624  -19.4650  -11.5509 C   0  0  0  0  0  0  0  0  0  0  0  0
   20.4981  -21.0796  -13.2701 C   0  0  2  0  0  0  0  0  0  0  0  0
   20.4936  -21.2070  -14.7403 N   0  0  0  0  0  0  0  0  0  0  0  0
   19.4863  -22.0676  -12.7830 C   0  0  0  0  0  0  0  0  0  0  0  0
   18.3521  -22.1763  -13.3663 O   0  0  0  0  0  0  0  0  0  0  0  0
   17.0227  -27.9156   -8.0599 C   0  0  0  0  0  0  0  0  0  0  0  0
   18.4217  -26.9572   -8.6525 S   0  0  0  0  0  0  0  0  0  0  0  0
   17.9542  -25.6980   -9.8365 C   0  0  0  0  0  0  0  0  0  0  0  0
   19.1367  -24.8994  -10.3395 C   0  0  0  0  0  0  0  0  0  0  0  0
   18.6435  -23.8076  -11.2602 C   0  0  2  0  0  0  0  0  0  0  0  0
   19.7118  -22.9256  -11.6745 N   0  0  0  0  0  0  0  0  0  0  0  0
   17.5483  -23.0252  -10.6092 C   0  0  0  0  0  0  0  0  0  0  0  0
   16.2172  -23.3187  -10.8061 O   0  0  0  0  0  0  0  0  0  0  0  0
   17.8412  -22.0644   -9.8542 O   0  0  0  0  0  0  0  0  0  0  0  0
  2  1  1  6
  3  2  1  0
  4  8  1  0
  4  3  1  0
  5  4  2  0
  6  5  1  0
  6  7  1  0
  7  8  2  0
  9  2  1  0
  9 10  2  0
 12 13  1  1
 12 11  1  0
 12 14  1  0
 14 15  1  6
 15  9  1  0
 16 14  1  0
 17 16  2  0
 18 19  1  0
 20 19  1  0
 20 21  1  0
 22 21  1  1
 22 23  1  0
 22 24  1  0
 23 16  1  0
 24 26  2  0
 24 25  1  0
M  END
$$$$
