HVM.pdb
     RDKit          3D

 26 26  0  0  1  0  0  0  0  0999 V2000
   27.8061  -25.8834  -17.1837 N   0  0  0  0  0  0  0  0  0  0  0  0
   26.4592  -26.1814  -16.7347 C   0  0  1  0  0  0  0  0  0  0  0  0
   26.6019  -27.2510  -15.6554 C   0  0  0  0  0  0  0  0  0  0  0  0
   26.9912  -28.5161  -16.3696 C   0  0  0  0  0  0  0  0  0  0  0  0
   26.1733  -29.2652  -17.1891 C   0  0  0  0  0  0  0  0  0  0  0  0
   26.8976  -30.3105  -17.6266 N   0  0  0  0  0  0  0  0  0  0  0  0
   28.1337  -30.2495  -17.1173 C   0  0  0  0  0  0  0  0  0  0  0  0
   28.1784  -29.1547  -16.3551 N   0  0  0  0  0  0  0  0  0  0  0  0
   25.7983  -24.9685  -16.1884 C   0  0  0  0  0  0  0  0  0  0  0  0
   26.3925  -24.1606  -15.4349 O   0  0  0  0  0  0  0  0  0  0  0  0
   22.8636  -23.4837  -18.4130 C   0  0  0  0  0  0  0  0  0  0  0  0
   23.4651  -22.7110  -17.2735 C   0  0  2  0  0  0  0  0  0  0  0  0
   24.7821  -22.0671  -17.7218 C   0  0  0  0  0  0  0  0  0  0  0  0
   23.7026  -23.5600  -16.0285 C   0  0  2  0  0  0  0  0  0  0  0  0
   24.4619  -24.7217  -16.5301 N   0  0  0  0  0  0  0  0  0  0  0  0
   22.4248  -24.1227  -15.4923 C   0  0  0  0  0  0  0  0  0  0  0  0
   22.1194  -25.3489  -15.6961 O   0  0  0  0  0  0  0  0  0  0  0  0
   21.0433  -28.4507  -12.1406 C   0  0  0  0  0  0  0  0  0  0  0  0
   20.2170  -27.0752  -11.3330 S   0  0  0  0  0  0  0  0  0  0  0  0
   19.7275  -25.7864  -12.4755 C   0  0  0  0  0  0  0  0  0  0  0  0
   20.9093  -25.0668  -13.0875 C   0  0  0  0  0  0  0  0  0  0  0  0
   20.4085  -24.0464  -14.0831 C   0  0  2  0  0  0  0  0  0  0  0  0
   21.4943  -23.3558  -14.7426 N   0  0  0  0  0  0  0  0  0  0  0  0
   19.4982  -23.0647  -13.4175 C   0  0  0  0  0  0  0  0  0  0  0  0
   18.2505  -23.4166  -12.9525 O   0  0  0  0  0  0  0  0  0  0  0  0
   19.8744  -21.8746  -13.2721 O   0  0  0  0  0  0  0  0  0  0  0  0
  2  1  1  1
  3  2  1  0
  4  8  1  0
  4  3  1  0
  5  4  2  0
  6  5  1  0
  6  7  1  0
  7  8  2  0
  9  2  1  0
  9 10  2  0
 12 13  1  6
 12 11  1  0
 12 14  1  0
 14 15  1  6
 15  9  1  0
 16 14  1  0
 17 16  2  0
 18 19  1  0
 20 19  1  0
 20 21  1  0
 22 21  1  1
 22 23  1  0
 22 24  1  0
 23 16  1  0
 24 26  2  0
 24 25  1  0
M  END
$$$$
