HVM.pdb
     RDKit          3D

 26 26  0  0  1  0  0  0  0  0999 V2000
   19.4682  -12.5912  -21.1883 N   0  0  0  0  0  0  0  0  0  0  0  0
   19.7249  -12.3525  -19.7806 C   0  0  1  0  0  0  0  0  0  0  0  0
   21.1328  -12.8778  -19.5141 C   0  0  0  0  0  0  0  0  0  0  0  0
   21.0615  -14.3702  -19.6865 C   0  0  0  0  0  0  0  0  0  0  0  0
   20.2701  -15.2307  -18.9551 C   0  0  0  0  0  0  0  0  0  0  0  0
   20.4992  -16.4727  -19.4176 N   0  0  0  0  0  0  0  0  0  0  0  0
   21.3996  -16.4284  -20.4067 C   0  0  0  0  0  0  0  0  0  0  0  0
   21.7338  -15.1454  -20.5609 N   0  0  0  0  0  0  0  0  0  0  0  0
   19.6346  -10.9049  -19.4599 C   0  0  0  0  0  0  0  0  0  0  0  0
   20.1186  -10.0196  -20.2053 O   0  0  0  0  0  0  0  0  0  0  0  0
   16.5783   -8.9282  -18.8912 C   0  0  0  0  0  0  0  0  0  0  0  0
   17.3768   -8.9163  -17.6187 C   0  0  2  0  0  0  0  0  0  0  0  0
   17.1338   -7.6028  -16.8665 C   0  0  0  0  0  0  0  0  0  0  0  0
   18.8726   -9.1135  -17.8439 C   0  0  2  0  0  0  0  0  0  0  0  0
   18.9841  -10.5187  -18.2805 N   0  0  0  0  0  0  0  0  0  0  0  0
   19.6389   -9.0343  -16.5619 C   0  0  0  0  0  0  0  0  0  0  0  0
   19.6714  -10.0333  -15.7623 O   0  0  0  0  0  0  0  0  0  0  0  0
   25.9299  -10.7036  -13.6620 C   0  0  0  0  0  0  0  0  0  0  0  0
   24.7277  -10.4531  -14.9732 S   0  0  0  0  0  0  0  0  0  0  0  0
   23.4956   -9.2198  -14.5646 C   0  0  0  0  0  0  0  0  0  0  0  0
   22.4304   -9.0811  -15.6300 C   0  0  0  0  0  0  0  0  0  0  0  0
   21.4277   -8.0369  -15.1972 C   0  0  2  0  0  0  0  0  0  0  0  0
   20.3606   -7.8795  -16.1602 N   0  0  0  0  0  0  0  0  0  0  0  0
   22.1045   -6.7260  -14.9546 C   0  0  0  0  0  0  0  0  0  0  0  0
   22.6690   -6.4030  -13.7406 O   0  0  0  0  0  0  0  0  0  0  0  0
   22.1664   -5.8823  -15.8838 O   0  0  0  0  0  0  0  0  0  0  0  0
  2  1  1  6
  3  2  1  0
  4  8  1  0
  4  3  1  0
  5  4  2  0
  6  5  1  0
  6  7  1  0
  7  8  2  0
  9  2  1  0
  9 10  2  0
 12 13  1  6
 12 11  1  0
 12 14  1  0
 14 15  1  1
 15  9  1  0
 16 14  1  0
 17 16  2  0
 18 19  1  0
 20 19  1  0
 20 21  1  0
 22 21  1  6
 22 23  1  0
 22 24  1  0
 23 16  1  0
 24 26  2  0
 24 25  1  0
M  END
$$$$
