HVM.pdb
     RDKit          3D

 26 26  0  0  1  0  0  0  0  0999 V2000
   25.6278  -17.6719  -16.2023 N   0  0  0  0  0  0  0  0  0  0  0  0
   26.4290  -17.7967  -14.9993 C   0  0  1  0  0  0  0  0  0  0  0  0
   27.0744  -16.4313  -14.7795 C   0  0  0  0  0  0  0  0  0  0  0  0
   28.0911  -16.2684  -15.8758 C   0  0  0  0  0  0  0  0  0  0  0  0
   28.3700  -17.1909  -16.8622 C   0  0  0  0  0  0  0  0  0  0  0  0
   29.3343  -16.6649  -17.6383 N   0  0  0  0  0  0  0  0  0  0  0  0
   29.6721  -15.4532  -17.1815 C   0  0  0  0  0  0  0  0  0  0  0  0
   28.9099  -15.2234  -16.1103 N   0  0  0  0  0  0  0  0  0  0  0  0
   25.5876  -18.1739  -13.8348 C   0  0  0  0  0  0  0  0  0  0  0  0
   24.6510  -17.4501  -13.4194 O   0  0  0  0  0  0  0  0  0  0  0  0
   23.3832  -20.7708  -13.7925 C   0  0  0  0  0  0  0  0  0  0  0  0
   24.3280  -21.1186  -12.6774 C   0  0  2  0  0  0  0  0  0  0  0  0
   23.5772  -21.8833  -11.5813 C   0  0  0  0  0  0  0  0  0  0  0  0
   25.0231  -19.9017  -12.0748 C   0  0  2  0  0  0  0  0  0  0  0  0
   25.8534  -19.3835  -13.1793 N   0  0  0  0  0  0  0  0  0  0  0  0
   25.9891  -20.2929  -11.0020 C   0  0  0  0  0  0  0  0  0  0  0  0
   27.0232  -20.9928  -11.2833 O   0  0  0  0  0  0  0  0  0  0  0  0
   27.7062  -19.0897   -3.5470 C   0  0  0  0  0  0  0  0  0  0  0  0
   28.0873  -18.8781   -5.2897 S   0  0  0  0  0  0  0  0  0  0  0  0
   27.0585  -19.8829   -6.3565 C   0  0  0  0  0  0  0  0  0  0  0  0
   27.4553  -19.7857   -7.8132 C   0  0  0  0  0  0  0  0  0  0  0  0
   26.5485  -20.6716   -8.6354 C   0  0  2  0  0  0  0  0  0  0  0  0
   25.8274  -19.9232   -9.6408 N   0  0  0  0  0  0  0  0  0  0  0  0
   25.5927  -21.4092   -7.7535 C   0  0  0  0  0  0  0  0  0  0  0  0
   24.2302  -21.2222   -7.8265 O   0  0  0  0  0  0  0  0  0  0  0  0
   26.0372  -22.2307   -6.9130 O   0  0  0  0  0  0  0  0  0  0  0  0
  2  1  1  6
  3  2  1  0
  4  8  1  0
  4  3  1  0
  5  4  2  0
  6  5  1  0
  6  7  1  0
  7  8  2  0
  9  2  1  0
  9 10  2  0
 12 13  1  1
 12 11  1  0
 12 14  1  0
 14 15  1  6
 15  9  1  0
 16 14  1  0
 17 16  2  0
 18 19  1  0
 20 19  1  0
 20 21  1  0
 22 21  1  1
 22 23  1  0
 22 24  1  0
 23 16  1  0
 24 26  2  0
 24 25  1  0
M  END
$$$$
