HVM.pdb
     RDKit          3D

 26 26  0  0  1  0  0  0  0  0999 V2000
   27.1716  -21.9231  -16.2015 N   0  0  0  0  0  0  0  0  0  0  0  0
   26.3139  -20.8836  -15.6643 C   0  0  1  0  0  0  0  0  0  0  0  0
   25.4364  -20.4204  -16.8239 C   0  0  0  0  0  0  0  0  0  0  0  0
   26.3565  -19.7346  -17.7962 C   0  0  0  0  0  0  0  0  0  0  0  0
   26.7603  -20.2350  -19.0161 C   0  0  0  0  0  0  0  0  0  0  0  0
   27.5749  -19.3203  -19.5717 N   0  0  0  0  0  0  0  0  0  0  0  0
   27.6994  -18.2687  -18.7535 C   0  0  0  0  0  0  0  0  0  0  0  0
   26.9544  -18.5322  -17.6778 N   0  0  0  0  0  0  0  0  0  0  0  0
   25.4807  -21.4028  -14.5495 C   0  0  0  0  0  0  0  0  0  0  0  0
   24.8642  -22.4929  -14.6220 O   0  0  0  0  0  0  0  0  0  0  0  0
   26.7660  -21.0756  -10.8798 C   0  0  0  0  0  0  0  0  0  0  0  0
   25.3835  -20.5035  -11.0158 C   0  0  2  0  0  0  0  0  0  0  0  0
   24.5982  -20.7315   -9.7192 C   0  0  0  0  0  0  0  0  0  0  0  0
   24.6075  -21.0771  -12.1974 C   0  0  2  0  0  0  0  0  0  0  0  0
   25.3828  -20.6436  -13.3758 N   0  0  0  0  0  0  0  0  0  0  0  0
   23.2672  -20.4295  -12.3440 C   0  0  0  0  0  0  0  0  0  0  0  0
   23.1513  -19.3070  -12.9482 O   0  0  0  0  0  0  0  0  0  0  0  0
   20.5671  -21.3361  -16.9051 C   0  0  0  0  0  0  0  0  0  0  0  0
   19.1344  -20.5919  -16.1172 S   0  0  0  0  0  0  0  0  0  0  0  0
   19.3821  -20.2770  -14.3720 C   0  0  0  0  0  0  0  0  0  0  0  0
   20.7219  -20.7714  -13.8724 C   0  0  0  0  0  0  0  0  0  0  0  0
   20.8093  -20.5474  -12.3806 C   0  0  2  0  0  0  0  0  0  0  0  0
   22.0703  -21.0016  -11.8382 N   0  0  0  0  0  0  0  0  0  0  0  0
   19.6718  -21.2189  -11.6802 C   0  0  0  0  0  0  0  0  0  0  0  0
   18.4801  -20.5759  -11.4287 O   0  0  0  0  0  0  0  0  0  0  0  0
   19.7965  -22.4112  -11.3035 O   0  0  0  0  0  0  0  0  0  0  0  0
  2  1  1  6
  3  2  1  0
  4  8  1  0
  4  3  1  0
  5  4  2  0
  6  5  1  0
  6  7  1  0
  7  8  2  0
  9  2  1  0
  9 10  2  0
 12 13  1  1
 12 11  1  0
 12 14  1  0
 14 15  1  6
 15  9  1  0
 16 14  1  0
 17 16  2  0
 18 19  1  0
 20 19  1  0
 20 21  1  0
 22 21  1  6
 22 23  1  0
 22 24  1  0
 23 16  1  0
 24 26  2  0
 24 25  1  0
M  END
$$$$
