HVM.pdb
     RDKit          3D

 26 26  0  0  1  0  0  0  0  0999 V2000
   19.8980  -12.3494  -18.1724 N   0  0  0  0  0  0  0  0  0  0  0  0
   20.7826  -11.2047  -18.0640 C   0  0  1  0  0  0  0  0  0  0  0  0
   21.0405  -10.7347  -19.4930 C   0  0  0  0  0  0  0  0  0  0  0  0
   21.8002  -11.8441  -20.1669 C   0  0  0  0  0  0  0  0  0  0  0  0
   23.0540  -12.2957  -19.8123 C   0  0  0  0  0  0  0  0  0  0  0  0
   23.3729  -13.2910  -20.6589 N   0  0  0  0  0  0  0  0  0  0  0  0
   22.3740  -13.4829  -21.5286 C   0  0  0  0  0  0  0  0  0  0  0  0
   21.4241  -12.5978  -21.2195 N   0  0  0  0  0  0  0  0  0  0  0  0
   20.1589  -10.1229  -17.2595 C   0  0  0  0  0  0  0  0  0  0  0  0
   18.9384   -9.8444  -17.3387 O   0  0  0  0  0  0  0  0  0  0  0  0
   19.8325  -10.2389  -13.7336 C   0  0  0  0  0  0  0  0  0  0  0  0
   20.7302   -9.0765  -14.0499 C   0  0  2  0  0  0  0  0  0  0  0  0
   20.6307   -8.0268  -12.9371 C   0  0  0  0  0  0  0  0  0  0  0  0
   20.4272   -8.4304  -15.3981 C   0  0  2  0  0  0  0  0  0  0  0  0
   20.9675   -9.3893  -16.3812 N   0  0  0  0  0  0  0  0  0  0  0  0
   21.2130   -7.1733  -15.5967 C   0  0  0  0  0  0  0  0  0  0  0  0
   22.4924   -7.2048  -15.6229 O   0  0  0  0  0  0  0  0  0  0  0  0
   22.2888   -0.6746  -19.0493 C   0  0  0  0  0  0  0  0  0  0  0  0
   21.1564   -1.1105  -17.7245 S   0  0  0  0  0  0  0  0  0  0  0  0
   21.7675   -2.4402  -16.6928 C   0  0  0  0  0  0  0  0  0  0  0  0
   20.8130   -3.6120  -16.6218 C   0  0  0  0  0  0  0  0  0  0  0  0
   21.4661   -4.7391  -15.8561 C   0  0  2  0  0  0  0  0  0  0  0  0
   20.6086   -5.8998  -15.7655 N   0  0  0  0  0  0  0  0  0  0  0  0
   21.8678   -4.2835  -14.4899 C   0  0  0  0  0  0  0  0  0  0  0  0
   21.0417   -4.4200  -13.3964 O   0  0  0  0  0  0  0  0  0  0  0  0
   22.9962   -3.7566  -14.3221 O   0  0  0  0  0  0  0  0  0  0  0  0
  2  1  1  6
  3  2  1  0
  4  8  1  0
  4  3  1  0
  5  4  2  0
  6  5  1  0
  6  7  1  0
  7  8  2  0
  9  2  1  0
  9 10  2  0
 12 13  1  1
 12 11  1  0
 12 14  1  0
 14 15  1  6
 15  9  1  0
 16 14  1  0
 17 16  2  0
 18 19  1  0
 20 19  1  0
 20 21  1  0
 22 21  1  1
 22 23  1  0
 22 24  1  0
 23 16  1  0
 24 26  2  0
 24 25  1  0
M  END
$$$$
