DCH.pdb
     RDKit          3D

 25 25  0  0  1  0  0  0  0  0999 V2000
   16.8391  -14.5459  -15.0212 N   0  0  0  0  0  0  0  0  0  0  0  0
   16.1550  -13.3488  -14.6018 C   0  0  1  0  0  0  0  0  0  0  0  0
   15.2335  -13.6358  -13.4410 C   0  0  0  0  0  0  0  0  0  0  0  0
   14.0099  -14.3615  -13.8781 C   0  0  0  0  0  0  0  0  0  0  0  0
   14.0708  -15.5804  -14.1733 O   0  0  0  0  0  0  0  0  0  0  0  0
   17.1182  -12.2745  -14.3110 C   0  0  0  0  0  0  0  0  0  0  0  0
   18.1334  -12.5323  -13.5930 O   0  0  0  0  0  0  0  0  0  0  0  0
   12.8223  -13.6810  -13.9525 O   0  0  0  0  0  0  0  0  0  0  0  0
   17.0131  -10.9457  -14.7708 N   0  0  0  0  0  0  0  0  0  0  0  0
   17.9624   -9.9051  -14.5150 C   0  0  1  0  0  0  0  0  0  0  0  0
   18.8557   -9.5989  -15.6899 C   0  0  0  0  0  0  0  0  0  0  0  0
   19.7540  -11.0977  -16.2209 S   0  0  0  0  0  0  0  0  0  0  0  0
   17.3100   -8.6216  -14.1363 C   0  0  0  0  0  0  0  0  0  0  0  0
   16.2350   -8.3169  -14.7142 O   0  0  0  0  0  0  0  0  0  0  0  0
   17.8297   -7.7373  -13.1722 N   0  0  0  0  0  0  0  0  0  0  0  0
   17.2165   -6.4619  -12.8162 C   0  0  1  0  0  0  0  0  0  0  0  0
   17.3490   -6.1707  -11.3641 C   0  0  0  0  0  0  0  0  0  0  0  0
   16.3833   -6.9464  -10.5737 C   0  0  0  0  0  0  0  0  0  0  0  0
   15.3989   -7.8166  -10.9740 C   0  0  0  0  0  0  0  0  0  0  0  0
   14.7464   -8.2631   -9.8707 N   0  0  0  0  0  0  0  0  0  0  0  0
   15.2946   -7.6970   -8.7988 C   0  0  0  0  0  0  0  0  0  0  0  0
   16.2788   -6.9045   -9.2152 N   0  0  0  0  0  0  0  0  0  0  0  0
   17.8963   -5.4239  -13.6143 C   0  0  0  0  0  0  0  0  0  0  0  0
   18.9395   -5.6629  -14.3103 O   0  0  0  0  0  0  0  0  0  0  0  0
   17.4261   -4.0998  -13.6520 O   0  0  0  0  0  0  0  0  0  0  0  0
  2  1  1  1
  2  3  1  0
  4  3  1  0
  5  4  2  0
  6  2  1  0
  6  7  2  0
  8  4  1  0
  9  6  1  0
 10  9  1  0
 10 13  1  0
 10 11  1  6
 12 11  1  0
 13 15  1  0
 14 13  2  0
 15 16  1  0
 16 17  1  1
 17 18  1  0
 18 19  2  0
 18 22  1  0
 19 20  1  0
 20 21  1  0
 22 21  2  0
 23 25  1  0
 23 16  1  0
 24 23  2  0
M  END
$$$$
