DCH.pdb
     RDKit          3D

 25 25  0  0  1  0  0  0  0  0999 V2000
   18.5669  -11.3775  -14.7451 N   0  0  0  0  0  0  0  0  0  0  0  0
   18.6230  -10.2843  -15.6825 C   0  0  1  0  0  0  0  0  0  0  0  0
   17.2392   -9.7569  -15.9756 C   0  0  0  0  0  0  0  0  0  0  0  0
   16.4526  -10.7103  -16.8044 C   0  0  0  0  0  0  0  0  0  0  0  0
   16.9884  -11.7594  -17.2390 O   0  0  0  0  0  0  0  0  0  0  0  0
   19.5414   -9.2375  -15.2059 C   0  0  0  0  0  0  0  0  0  0  0  0
   19.2307   -8.5656  -14.1741 O   0  0  0  0  0  0  0  0  0  0  0  0
   15.1411  -10.4257  -17.0839 O   0  0  0  0  0  0  0  0  0  0  0  0
   20.7714   -8.9028  -15.8087 N   0  0  0  0  0  0  0  0  0  0  0  0
   21.6851   -7.9115  -15.3273 C   0  0  1  0  0  0  0  0  0  0  0  0
   23.1340   -8.2911  -15.4967 C   0  0  0  0  0  0  0  0  0  0  0  0
   23.5058   -9.8283  -14.5833 S   0  0  0  0  0  0  0  0  0  0  0  0
   21.5110   -6.5996  -16.0092 C   0  0  0  0  0  0  0  0  0  0  0  0
   21.1435   -6.6078  -17.2121 O   0  0  0  0  0  0  0  0  0  0  0  0
   21.7347   -5.3592  -15.3825 N   0  0  0  0  0  0  0  0  0  0  0  0
   21.3391   -4.0733  -15.9475 C   0  0  1  0  0  0  0  0  0  0  0  0
   19.8740   -4.0035  -16.1913 C   0  0  0  0  0  0  0  0  0  0  0  0
   19.4923   -2.7148  -16.7850 C   0  0  0  0  0  0  0  0  0  0  0  0
   20.2609   -1.7483  -17.3864 C   0  0  0  0  0  0  0  0  0  0  0  0
   19.4514   -0.7213  -17.7504 N   0  0  0  0  0  0  0  0  0  0  0  0
   18.2051   -1.0201  -17.3934 C   0  0  0  0  0  0  0  0  0  0  0  0
   18.2236   -2.2169  -16.8126 N   0  0  0  0  0  0  0  0  0  0  0  0
   21.7509   -3.0375  -14.9809 C   0  0  0  0  0  0  0  0  0  0  0  0
   21.9509   -3.2886  -13.7454 O   0  0  0  0  0  0  0  0  0  0  0  0
   21.9477   -1.7022  -15.3733 O   0  0  0  0  0  0  0  0  0  0  0  0
  2  1  1  1
  2  3  1  0
  4  3  1  0
  5  4  2  0
  6  2  1  0
  6  7  2  0
  8  4  1  0
  9  6  1  0
 10  9  1  0
 10 13  1  0
 10 11  1  6
 12 11  1  0
 13 15  1  0
 14 13  2  0
 15 16  1  0
 16 17  1  1
 17 18  1  0
 18 19  2  0
 18 22  1  0
 19 20  1  0
 20 21  1  0
 22 21  2  0
 23 25  1  0
 23 16  1  0
 24 23  2  0
M  END
$$$$
