DCH.pdb
     RDKit          3D

 25 25  0  0  1  0  0  0  0  0999 V2000
   11.7876  -11.1382  -10.9523 N   0  0  0  0  0  0  0  0  0  0  0  0
   13.0771  -11.1367  -10.3086 C   0  0  1  0  0  0  0  0  0  0  0  0
   13.9777  -12.1892  -10.9085 C   0  0  0  0  0  0  0  0  0  0  0  0
   13.4920  -13.5634  -10.6080 C   0  0  0  0  0  0  0  0  0  0  0  0
   12.7949  -13.7766   -9.5857 O   0  0  0  0  0  0  0  0  0  0  0  0
   13.6735   -9.7914  -10.3426 C   0  0  0  0  0  0  0  0  0  0  0  0
   13.6716   -9.1419  -11.4338 O   0  0  0  0  0  0  0  0  0  0  0  0
   13.8164  -14.5864  -11.4608 O   0  0  0  0  0  0  0  0  0  0  0  0
   14.2641   -9.1389   -9.2410 N   0  0  0  0  0  0  0  0  0  0  0  0
   14.8256   -7.8223   -9.2641 C   0  0  1  0  0  0  0  0  0  0  0  0
   14.8661   -7.1580   -7.9115 C   0  0  0  0  0  0  0  0  0  0  0  0
   15.7822   -5.5805   -7.9984 S   0  0  0  0  0  0  0  0  0  0  0  0
   16.2215   -7.8090   -9.7815 C   0  0  0  0  0  0  0  0  0  0  0  0
   17.1177   -8.3247   -9.0652 O   0  0  0  0  0  0  0  0  0  0  0  0
   16.5882   -7.2534  -11.0218 N   0  0  0  0  0  0  0  0  0  0  0  0
   17.9384   -7.3017  -11.5734 C   0  0  1  0  0  0  0  0  0  0  0  0
   18.0877   -8.3895  -12.5760 C   0  0  0  0  0  0  0  0  0  0  0  0
   19.4042   -8.3392  -13.2264 C   0  0  0  0  0  0  0  0  0  0  0  0
   20.6242   -8.8097  -12.8061 C   0  0  0  0  0  0  0  0  0  0  0  0
   21.5520   -8.4961  -13.7460 N   0  0  0  0  0  0  0  0  0  0  0  0
   20.9460   -7.8456  -14.7357 C   0  0  0  0  0  0  0  0  0  0  0  0
   19.6551   -7.7482  -14.4289 N   0  0  0  0  0  0  0  0  0  0  0  0
   18.1923   -5.9884  -12.1958 C   0  0  0  0  0  0  0  0  0  0  0  0
   17.2528   -5.1929  -12.5338 O   0  0  0  0  0  0  0  0  0  0  0  0
   19.4983   -5.5368  -12.4532 O   0  0  0  0  0  0  0  0  0  0  0  0
  2  1  1  6
  2  3  1  0
  4  3  1  0
  5  4  2  0
  6  2  1  0
  6  7  2  0
  8  4  1  0
  9  6  1  0
 10  9  1  0
 10 13  1  0
 10 11  1  1
 12 11  1  0
 13 15  1  0
 14 13  2  0
 15 16  1  0
 16 17  1  6
 17 18  1  0
 18 19  2  0
 18 22  1  0
 19 20  1  0
 20 21  1  0
 22 21  2  0
 23 25  1  0
 23 16  1  0
 24 23  2  0
M  END
$$$$
