DCH.pdb
     RDKit          3D

 25 25  0  0  1  0  0  0  0  0999 V2000
   28.9240  -20.7804  -15.1582 N   0  0  0  0  0  0  0  0  0  0  0  0
   28.2131  -20.1303  -14.0863 C   0  0  1  0  0  0  0  0  0  0  0  0
   27.7472  -18.7572  -14.5064 C   0  0  0  0  0  0  0  0  0  0  0  0
   27.0941  -18.7844  -15.8433 C   0  0  0  0  0  0  0  0  0  0  0  0
   25.8431  -18.7312  -15.9356 O   0  0  0  0  0  0  0  0  0  0  0  0
   27.1136  -20.9801  -13.6011 C   0  0  0  0  0  0  0  0  0  0  0  0
   27.1994  -22.2397  -13.7380 O   0  0  0  0  0  0  0  0  0  0  0  0
   27.8766  -18.8681  -16.9657 O   0  0  0  0  0  0  0  0  0  0  0  0
   25.9388  -20.5089  -12.9798 N   0  0  0  0  0  0  0  0  0  0  0  0
   24.9038  -21.3344  -12.4351 C   0  0  1  0  0  0  0  0  0  0  0  0
   25.1250  -21.7084  -10.9917 C   0  0  0  0  0  0  0  0  0  0  0  0
   25.4682  -20.2213   -9.9887 S   0  0  0  0  0  0  0  0  0  0  0  0
   23.5656  -20.6855  -12.5016 C   0  0  0  0  0  0  0  0  0  0  0  0
   23.4831  -19.4754  -12.1681 O   0  0  0  0  0  0  0  0  0  0  0  0
   22.3960  -21.3506  -12.9152 N   0  0  0  0  0  0  0  0  0  0  0  0
   21.0974  -20.7033  -13.0705 C   0  0  1  0  0  0  0  0  0  0  0  0
   20.5029  -20.9696  -14.4071 C   0  0  0  0  0  0  0  0  0  0  0  0
   21.2630  -20.3012  -15.4722 C   0  0  0  0  0  0  0  0  0  0  0  0
   21.8660  -19.0675  -15.4969 C   0  0  0  0  0  0  0  0  0  0  0  0
   22.4220  -18.8861  -16.7218 N   0  0  0  0  0  0  0  0  0  0  0  0
   22.1825  -19.9683  -17.4578 C   0  0  0  0  0  0  0  0  0  0  0  0
   21.4862  -20.8221  -16.7120 N   0  0  0  0  0  0  0  0  0  0  0  0
   20.2264  -21.2327  -12.0039 C   0  0  0  0  0  0  0  0  0  0  0  0
   20.5509  -22.2355  -11.2835 O   0  0  0  0  0  0  0  0  0  0  0  0
   18.9770  -20.6545  -11.7200 O   0  0  0  0  0  0  0  0  0  0  0  0
  2  1  1  6
  2  3  1  0
  4  3  1  0
  5  4  2  0
  6  2  1  0
  6  7  2  0
  8  4  1  0
  9  6  1  0
 10  9  1  0
 10 13  1  0
 10 11  1  1
 12 11  1  0
 13 15  1  0
 14 13  2  0
 15 16  1  0
 16 17  1  6
 17 18  1  0
 18 19  2  0
 18 22  1  0
 19 20  1  0
 20 21  1  0
 22 21  2  0
 23 25  1  0
 23 16  1  0
 24 23  2  0
M  END
$$$$
