DCH.pdb
     RDKit          3D

 25 25  0  0  1  0  0  0  0  0999 V2000
   23.5154   -4.7920  -18.1179 N   0  0  0  0  0  0  0  0  0  0  0  0
   23.5704   -6.2223  -18.2864 C   0  0  1  0  0  0  0  0  0  0  0  0
   24.9795   -6.6738  -18.5856 C   0  0  0  0  0  0  0  0  0  0  0  0
   25.4615   -6.1411  -19.8889 C   0  0  0  0  0  0  0  0  0  0  0  0
   24.6920   -5.4700  -20.6196 O   0  0  0  0  0  0  0  0  0  0  0  0
   22.9899   -6.9059  -17.1193 C   0  0  0  0  0  0  0  0  0  0  0  0
   23.3614   -8.0896  -16.8484 O   0  0  0  0  0  0  0  0  0  0  0  0
   26.7520   -6.3938  -20.2759 O   0  0  0  0  0  0  0  0  0  0  0  0
   22.0303   -6.3494  -16.2488 N   0  0  0  0  0  0  0  0  0  0  0  0
   21.4658   -7.0092  -15.1106 C   0  0  1  0  0  0  0  0  0  0  0  0
   21.0179   -6.0648  -14.0245 C   0  0  0  0  0  0  0  0  0  0  0  0
   22.4438   -5.1530  -13.3385 S   0  0  0  0  0  0  0  0  0  0  0  0
   20.2801   -7.8370  -15.4642 C   0  0  0  0  0  0  0  0  0  0  0  0
   19.3610   -7.2922  -16.1280 O   0  0  0  0  0  0  0  0  0  0  0  0
   20.1348   -9.1882  -15.0970 N   0  0  0  0  0  0  0  0  0  0  0  0
   18.9758  -10.0082  -15.4343 C   0  0  1  0  0  0  0  0  0  0  0  0
   19.2195  -11.4493  -15.1611 C   0  0  0  0  0  0  0  0  0  0  0  0
   18.0688  -12.2706  -15.5615 C   0  0  0  0  0  0  0  0  0  0  0  0
   17.1431  -12.0817  -16.5583 C   0  0  0  0  0  0  0  0  0  0  0  0
   16.2512  -13.1040  -16.5149 N   0  0  0  0  0  0  0  0  0  0  0  0
   16.5942  -13.9207  -15.5222 C   0  0  0  0  0  0  0  0  0  0  0  0
   17.6858  -13.4248  -14.9456 N   0  0  0  0  0  0  0  0  0  0  0  0
   17.8503   -9.5120  -14.6197 C   0  0  0  0  0  0  0  0  0  0  0  0
   17.9910   -9.1311  -13.4094 O   0  0  0  0  0  0  0  0  0  0  0  0
   16.5465   -9.4308  -15.1388 O   0  0  0  0  0  0  0  0  0  0  0  0
  2  1  1  1
  2  3  1  0
  4  3  1  0
  5  4  2  0
  6  2  1  0
  6  7  2  0
  8  4  1  0
  9  6  1  0
 10  9  1  0
 10 13  1  0
 10 11  1  1
 12 11  1  0
 13 15  1  0
 14 13  2  0
 15 16  1  0
 16 17  1  1
 17 18  1  0
 18 19  2  0
 18 22  1  0
 19 20  1  0
 20 21  1  0
 22 21  2  0
 23 25  1  0
 23 16  1  0
 24 23  2  0
M  END
$$$$
