DCH.pdb
     RDKit          3D

 25 25  0  0  1  0  0  0  0  0999 V2000
   16.4866  -15.0794  -16.3109 N   0  0  0  0  0  0  0  0  0  0  0  0
   16.3246  -13.7284  -15.8360 C   0  0  1  0  0  0  0  0  0  0  0  0
   16.2658  -13.6930  -14.3280 C   0  0  0  0  0  0  0  0  0  0  0  0
   14.9436  -14.1490  -13.8195 C   0  0  0  0  0  0  0  0  0  0  0  0
   14.0471  -14.5052  -14.6232 O   0  0  0  0  0  0  0  0  0  0  0  0
   17.3747  -12.8551  -16.3848 C   0  0  0  0  0  0  0  0  0  0  0  0
   18.5727  -13.2750  -16.4184 O   0  0  0  0  0  0  0  0  0  0  0  0
   14.7221  -14.1736  -12.4669 O   0  0  0  0  0  0  0  0  0  0  0  0
   17.1652  -11.5560  -16.8916 N   0  0  0  0  0  0  0  0  0  0  0  0
   18.1634  -10.7414  -17.5154 C   0  0  1  0  0  0  0  0  0  0  0  0
   17.7811  -10.2652  -18.8935 C   0  0  0  0  0  0  0  0  0  0  0  0
   18.4166  -11.4094  -20.1672 S   0  0  0  0  0  0  0  0  0  0  0  0
   18.4793   -9.5223  -16.7213 C   0  0  0  0  0  0  0  0  0  0  0  0
   17.5395   -8.9723  -16.0917 O   0  0  0  0  0  0  0  0  0  0  0  0
   19.7659   -8.9570  -16.6388 N   0  0  0  0  0  0  0  0  0  0  0  0
   20.0983   -7.7941  -15.8225 C   0  0  1  0  0  0  0  0  0  0  0  0
   21.5362   -7.4325  -15.9345 C   0  0  0  0  0  0  0  0  0  0  0  0
   21.8698   -6.2947  -15.0667 C   0  0  0  0  0  0  0  0  0  0  0  0
   21.0829   -5.5711  -14.2043 C   0  0  0  0  0  0  0  0  0  0  0  0
   21.8429   -4.5940  -13.6474 N   0  0  0  0  0  0  0  0  0  0  0  0
   23.0762   -4.6884  -14.1375 C   0  0  0  0  0  0  0  0  0  0  0  0
   23.0982   -5.7086  -14.9911 N   0  0  0  0  0  0  0  0  0  0  0  0
   19.2491   -6.6841  -16.2951 C   0  0  0  0  0  0  0  0  0  0  0  0
   19.0295   -6.4633  -17.5331 O   0  0  0  0  0  0  0  0  0  0  0  0
   18.6285   -5.7990  -15.3965 O   0  0  0  0  0  0  0  0  0  0  0  0
  2  1  1  1
  2  3  1  0
  4  3  1  0
  5  4  2  0
  6  2  1  0
  6  7  2  0
  8  4  1  0
  9  6  1  0
 10  9  1  0
 10 13  1  0
 10 11  1  6
 12 11  1  0
 13 15  1  0
 14 13  2  0
 15 16  1  0
 16 17  1  6
 17 18  1  0
 18 19  2  0
 18 22  1  0
 19 20  1  0
 20 21  1  0
 22 21  2  0
 23 25  1  0
 23 16  1  0
 24 23  2  0
M  END
$$$$
