DCH.pdb
     RDKit          3D

 25 25  0  0  1  0  0  0  0  0999 V2000
   25.2774  -12.5922  -17.8034 N   0  0  0  0  0  0  0  0  0  0  0  0
   24.0448  -12.0213  -18.2845 C   0  0  1  0  0  0  0  0  0  0  0  0
   23.2150  -13.0601  -18.9994 C   0  0  0  0  0  0  0  0  0  0  0  0
   23.9268  -13.6105  -20.1847 C   0  0  0  0  0  0  0  0  0  0  0  0
   24.4042  -12.8359  -21.0499 O   0  0  0  0  0  0  0  0  0  0  0  0
   23.3134  -11.3648  -17.1887 C   0  0  0  0  0  0  0  0  0  0  0  0
   23.1422  -11.9913  -16.0975 O   0  0  0  0  0  0  0  0  0  0  0  0
   24.0519  -14.9694  -20.3154 O   0  0  0  0  0  0  0  0  0  0  0  0
   22.7694  -10.0650  -17.2421 N   0  0  0  0  0  0  0  0  0  0  0  0
   22.1722   -9.3732  -16.1403 C   0  0  1  0  0  0  0  0  0  0  0  0
   22.6699   -7.9604  -15.9716 C   0  0  0  0  0  0  0  0  0  0  0  0
   24.4183   -7.9546  -15.4440 S   0  0  0  0  0  0  0  0  0  0  0  0
   20.6908   -9.2862  -16.2598 C   0  0  0  0  0  0  0  0  0  0  0  0
   20.2130   -8.8793  -17.3500 O   0  0  0  0  0  0  0  0  0  0  0  0
   19.8030   -9.6331  -15.2240 N   0  0  0  0  0  0  0  0  0  0  0  0
   18.3500   -9.5488  -15.3284 C   0  0  1  0  0  0  0  0  0  0  0  0
   17.6772  -10.6425  -14.5787 C   0  0  0  0  0  0  0  0  0  0  0  0
   16.2158  -10.4950  -14.6161 C   0  0  0  0  0  0  0  0  0  0  0  0
   15.4283   -9.5916  -15.2871 C   0  0  0  0  0  0  0  0  0  0  0  0
   14.1302   -9.8427  -14.9799 N   0  0  0  0  0  0  0  0  0  0  0  0
   14.0877  -10.8730  -14.1392 C   0  0  0  0  0  0  0  0  0  0  0  0
   15.3382  -11.2692  -13.9169 N   0  0  0  0  0  0  0  0  0  0  0  0
   17.9586   -8.2343  -14.7849 C   0  0  0  0  0  0  0  0  0  0  0  0
   18.5407   -7.7029  -13.7807 O   0  0  0  0  0  0  0  0  0  0  0  0
   16.9108   -7.4872  -15.3504 O   0  0  0  0  0  0  0  0  0  0  0  0
  2  1  1  1
  2  3  1  0
  4  3  1  0
  5  4  2  0
  6  2  1  0
  6  7  2  0
  8  4  1  0
  9  6  1  0
 10  9  1  0
 10 13  1  0
 10 11  1  6
 12 11  1  0
 13 15  1  0
 14 13  2  0
 15 16  1  0
 16 17  1  1
 17 18  1  0
 18 19  2  0
 18 22  1  0
 19 20  1  0
 20 21  1  0
 22 21  2  0
 23 25  1  0
 23 16  1  0
 24 23  2  0
M  END
$$$$
