DCH.pdb
     RDKit          3D

 25 25  0  0  1  0  0  0  0  0999 V2000
   20.3480  -13.6077  -17.1239 N   0  0  0  0  0  0  0  0  0  0  0  0
   19.4706  -13.0901  -16.1044 C   0  0  1  0  0  0  0  0  0  0  0  0
   19.2145  -14.1284  -15.0389 C   0  0  0  0  0  0  0  0  0  0  0  0
   18.4061  -15.2633  -15.5616 C   0  0  0  0  0  0  0  0  0  0  0  0
   18.9569  -16.1799  -16.2196 O   0  0  0  0  0  0  0  0  0  0  0  0
   19.9977  -11.8301  -15.5556 C   0  0  0  0  0  0  0  0  0  0  0  0
   19.3977  -11.2822  -14.5797 O   0  0  0  0  0  0  0  0  0  0  0  0
   17.0581  -15.2911  -15.3141 O   0  0  0  0  0  0  0  0  0  0  0  0
   21.1423  -11.1562  -16.0289 N   0  0  0  0  0  0  0  0  0  0  0  0
   21.6337   -9.9089  -15.5269 C   0  0  1  0  0  0  0  0  0  0  0  0
   23.1192   -9.7273  -15.7069 C   0  0  0  0  0  0  0  0  0  0  0  0
   24.0377  -11.0303  -14.8158 S   0  0  0  0  0  0  0  0  0  0  0  0
   20.9844   -8.7387  -16.1790 C   0  0  0  0  0  0  0  0  0  0  0  0
   20.8071   -8.7841  -17.4236 O   0  0  0  0  0  0  0  0  0  0  0  0
   20.5614   -7.5920  -15.4807 N   0  0  0  0  0  0  0  0  0  0  0  0
   19.8768   -6.4621  -16.1003 C   0  0  1  0  0  0  0  0  0  0  0  0
   18.4163   -6.4800  -15.8220 C   0  0  0  0  0  0  0  0  0  0  0  0
   17.7438   -5.3205  -16.4237 C   0  0  0  0  0  0  0  0  0  0  0  0
   17.1432   -4.2344  -15.8353 C   0  0  0  0  0  0  0  0  0  0  0  0
   16.6348   -3.4429  -16.8139 N   0  0  0  0  0  0  0  0  0  0  0  0
   16.9007   -4.0039  -17.9905 C   0  0  0  0  0  0  0  0  0  0  0  0
   17.5670   -5.1326  -17.7623 N   0  0  0  0  0  0  0  0  0  0  0  0
   20.4912   -5.2380  -15.5520 C   0  0  0  0  0  0  0  0  0  0  0  0
   21.0175   -5.1923  -14.3898 O   0  0  0  0  0  0  0  0  0  0  0  0
   20.5305   -4.0415  -16.2887 O   0  0  0  0  0  0  0  0  0  0  0  0
  2  1  1  6
  2  3  1  0
  4  3  1  0
  5  4  2  0
  6  2  1  0
  6  7  2  0
  8  4  1  0
  9  6  1  0
 10  9  1  0
 10 13  1  0
 10 11  1  6
 12 11  1  0
 13 15  1  0
 14 13  2  0
 15 16  1  0
 16 17  1  1
 17 18  1  0
 18 19  2  0
 18 22  1  0
 19 20  1  0
 20 21  1  0
 22 21  2  0
 23 25  1  0
 23 16  1  0
 24 23  2  0
M  END
$$$$
