DCH.pdb
     RDKit          3D

 25 25  0  0  1  0  0  0  0  0999 V2000
   21.8388  -21.9261  -13.5711 N   0  0  0  0  0  0  0  0  0  0  0  0
   21.8471  -20.4849  -13.5707 C   0  0  1  0  0  0  0  0  0  0  0  0
   20.9887  -19.9435  -12.4532 C   0  0  0  0  0  0  0  0  0  0  0  0
   19.5662  -20.3533  -12.6059 C   0  0  0  0  0  0  0  0  0  0  0  0
   19.0713  -20.5002  -13.7504 O   0  0  0  0  0  0  0  0  0  0  0  0
   23.2264  -19.9730  -13.5274 C   0  0  0  0  0  0  0  0  0  0  0  0
   23.4188  -18.7273  -13.3726 O   0  0  0  0  0  0  0  0  0  0  0  0
   18.8098  -20.5665  -11.4827 O   0  0  0  0  0  0  0  0  0  0  0  0
   24.3881  -20.7634  -13.6456 N   0  0  0  0  0  0  0  0  0  0  0  0
   25.7315  -20.2724  -13.5847 C   0  0  1  0  0  0  0  0  0  0  0  0
   26.7205  -21.2801  -13.0567 C   0  0  0  0  0  0  0  0  0  0  0  0
   26.3412  -21.7030  -11.3211 S   0  0  0  0  0  0  0  0  0  0  0  0
   26.2396  -19.8414  -14.9160 C   0  0  0  0  0  0  0  0  0  0  0  0
   25.8635  -20.4904  -15.9258 O   0  0  0  0  0  0  0  0  0  0  0  0
   27.1129  -18.7533  -15.1025 N   0  0  0  0  0  0  0  0  0  0  0  0
   27.4449  -18.1837  -16.4044 C   0  0  1  0  0  0  0  0  0  0  0  0
   27.7573  -16.7331  -16.3100 C   0  0  0  0  0  0  0  0  0  0  0  0
   26.5476  -15.9425  -16.0448 C   0  0  0  0  0  0  0  0  0  0  0  0
   26.1340  -15.3027  -14.9019 C   0  0  0  0  0  0  0  0  0  0  0  0
   24.9279  -14.7290  -15.1440 N   0  0  0  0  0  0  0  0  0  0  0  0
   24.5801  -14.9931  -16.4007 C   0  0  0  0  0  0  0  0  0  0  0  0
   25.5497  -15.7221  -16.9470 N   0  0  0  0  0  0  0  0  0  0  0  0
   28.6115  -18.9305  -16.9120 C   0  0  0  0  0  0  0  0  0  0  0  0
   29.3358  -19.6689  -16.1637 O   0  0  0  0  0  0  0  0  0  0  0  0
   28.9931  -18.8684  -18.2634 O   0  0  0  0  0  0  0  0  0  0  0  0
  2  1  1  1
  2  3  1  0
  4  3  1  0
  5  4  2  0
  6  2  1  0
  6  7  2  0
  8  4  1  0
  9  6  1  0
 10  9  1  0
 10 13  1  0
 10 11  1  6
 12 11  1  0
 13 15  1  0
 14 13  2  0
 15 16  1  0
 16 17  1  1
 17 18  1  0
 18 19  2  0
 18 22  1  0
 19 20  1  0
 20 21  1  0
 22 21  2  0
 23 25  1  0
 23 16  1  0
 24 23  2  0
M  END
$$$$
