DCH.pdb
     RDKit          3D

 25 25  0  0  1  0  0  0  0  0999 V2000
   21.7840  -22.2323  -18.4551 N   0  0  0  0  0  0  0  0  0  0  0  0
   22.2517  -22.4100  -17.1035 C   0  0  1  0  0  0  0  0  0  0  0  0
   22.5384  -21.0772  -16.4551 C   0  0  0  0  0  0  0  0  0  0  0  0
   23.7195  -20.4112  -17.0685 C   0  0  0  0  0  0  0  0  0  0  0  0
   24.7044  -21.0936  -17.4437 O   0  0  0  0  0  0  0  0  0  0  0  0
   21.3038  -23.2272  -16.3287 C   0  0  0  0  0  0  0  0  0  0  0  0
   20.0572  -23.0568  -16.5000 O   0  0  0  0  0  0  0  0  0  0  0  0
   23.7142  -19.0484  -17.2160 O   0  0  0  0  0  0  0  0  0  0  0  0
   21.6650  -24.2112  -15.3855 N   0  0  0  0  0  0  0  0  0  0  0  0
   20.7472  -24.9814  -14.6021 C   0  0  1  0  0  0  0  0  0  0  0  0
   21.2134  -26.3897  -14.3351 C   0  0  0  0  0  0  0  0  0  0  0  0
   21.5897  -27.2492  -15.9019 S   0  0  0  0  0  0  0  0  0  0  0  0
   20.4805  -24.3669  -13.2726 C   0  0  0  0  0  0  0  0  0  0  0  0
   21.3862  -24.4352  -12.4023 O   0  0  0  0  0  0  0  0  0  0  0  0
   19.2761  -23.7181  -12.9407 N   0  0  0  0  0  0  0  0  0  0  0  0
   19.0056  -23.1075  -11.6433 C   0  0  1  0  0  0  0  0  0  0  0  0
   18.4257  -21.7455  -11.7831 C   0  0  0  0  0  0  0  0  0  0  0  0
   19.4206  -20.7912  -12.2913 C   0  0  0  0  0  0  0  0  0  0  0  0
   20.7578  -20.9555  -12.5580 C   0  0  0  0  0  0  0  0  0  0  0  0
   21.2592  -19.7685  -12.9849 N   0  0  0  0  0  0  0  0  0  0  0  0
   20.2752  -18.8731  -12.9909 C   0  0  0  0  0  0  0  0  0  0  0  0
   19.1679  -19.4820  -12.5748 N   0  0  0  0  0  0  0  0  0  0  0  0
   18.0640  -23.9992  -10.9399 C   0  0  0  0  0  0  0  0  0  0  0  0
   17.4836  -24.9801  -11.5151 O   0  0  0  0  0  0  0  0  0  0  0  0
   17.7514  -23.8147   -9.5820 O   0  0  0  0  0  0  0  0  0  0  0  0
  2  1  1  6
  2  3  1  0
  4  3  1  0
  5  4  2  0
  6  2  1  0
  6  7  2  0
  8  4  1  0
  9  6  1  0
 10  9  1  0
 10 13  1  0
 10 11  1  1
 12 11  1  0
 13 15  1  0
 14 13  2  0
 15 16  1  0
 16 17  1  6
 17 18  1  0
 18 19  2  0
 18 22  1  0
 19 20  1  0
 20 21  1  0
 22 21  2  0
 23 25  1  0
 23 16  1  0
 24 23  2  0
M  END
$$$$
