DCH.pdb
     RDKit          3D

 25 25  0  0  1  0  0  0  0  0999 V2000
   18.5885  -10.4869  -17.2449 N   0  0  0  0  0  0  0  0  0  0  0  0
   18.7811   -9.1215  -16.8257 C   0  0  1  0  0  0  0  0  0  0  0  0
   17.6565   -8.2444  -17.3204 C   0  0  0  0  0  0  0  0  0  0  0  0
   17.7107   -8.0629  -18.7965 C   0  0  0  0  0  0  0  0  0  0  0  0
   16.7789   -8.4931  -19.5198 O   0  0  0  0  0  0  0  0  0  0  0  0
   18.9614   -9.0462  -15.3668 C   0  0  0  0  0  0  0  0  0  0  0  0
   18.4023   -9.9157  -14.6292 O   0  0  0  0  0  0  0  0  0  0  0  0
   18.7886   -7.4219  -19.3501 O   0  0  0  0  0  0  0  0  0  0  0  0
   19.7211   -8.0673  -14.6938 N   0  0  0  0  0  0  0  0  0  0  0  0
   19.8965   -7.9883  -13.2753 C   0  0  1  0  0  0  0  0  0  0  0  0
   21.3405   -7.9295  -12.8466 C   0  0  0  0  0  0  0  0  0  0  0  0
   21.4648   -7.7384  -11.0346 S   0  0  0  0  0  0  0  0  0  0  0  0
   19.2336   -6.7923  -12.6867 C   0  0  0  0  0  0  0  0  0  0  0  0
   19.5771   -5.6606  -13.1152 O   0  0  0  0  0  0  0  0  0  0  0  0
   18.2494   -6.8612  -11.6827 N   0  0  0  0  0  0  0  0  0  0  0  0
   17.5307   -5.7038  -11.1598 C   0  0  1  0  0  0  0  0  0  0  0  0
   16.1026   -5.7062  -11.5736 C   0  0  0  0  0  0  0  0  0  0  0  0
   15.9620   -5.4238  -13.0086 C   0  0  0  0  0  0  0  0  0  0  0  0
   15.9354   -4.2275  -13.6828 C   0  0  0  0  0  0  0  0  0  0  0  0
   15.7562   -4.4834  -15.0038 N   0  0  0  0  0  0  0  0  0  0  0  0
   15.6705   -5.8005  -15.1701 C   0  0  0  0  0  0  0  0  0  0  0  0
   15.7934   -6.3709  -13.9744 N   0  0  0  0  0  0  0  0  0  0  0  0
   17.6418   -5.7608   -9.6898 C   0  0  0  0  0  0  0  0  0  0  0  0
   18.2261   -6.7178   -9.0795 O   0  0  0  0  0  0  0  0  0  0  0  0
   17.1037   -4.7520   -8.8720 O   0  0  0  0  0  0  0  0  0  0  0  0
  2  1  1  1
  2  3  1  0
  4  3  1  0
  5  4  2  0
  6  2  1  0
  6  7  2  0
  8  4  1  0
  9  6  1  0
 10  9  1  0
 10 13  1  0
 10 11  1  6
 12 11  1  0
 13 15  1  0
 14 13  2  0
 15 16  1  0
 16 17  1  1
 17 18  1  0
 18 19  2  0
 18 22  1  0
 19 20  1  0
 20 21  1  0
 22 21  2  0
 23 25  1  0
 23 16  1  0
 24 23  2  0
M  END
$$$$
