ILK.pdb
     RDKit          3D

 26 25  0  0  1  0  0  0  0  0999 V2000
    8.0992  -19.2902   20.2357 C   0  0  0  0  0  0  0  0  0  0  0  0
    7.8166  -17.8226   20.1310 C   0  0  0  0  0  0  0  0  0  0  0  0
    8.2204  -17.1276   21.3969 C   0  0  2  0  0  0  0  0  0  0  0  0
    7.6289  -17.8717   22.5563 C   0  0  0  0  0  0  0  0  0  0  0  0
    7.7551  -15.6861   21.3956 C   0  0  2  0  0  0  0  0  0  0  0  0
    8.1113  -14.9953   20.1958 N   0  0  0  0  0  0  0  0  0  0  0  0
    8.3554  -15.0344   22.6113 C   0  0  0  0  0  0  0  0  0  0  0  0
    9.5636  -14.6892   22.6355 O   0  0  0  0  0  0  0  0  0  0  0  0
    7.6512  -11.1949   25.6196 C   0  0  0  0  0  0  0  0  0  0  0  0
    6.5033  -12.1799   25.6702 C   0  0  2  0  0  0  0  0  0  0  0  0
    5.4102  -11.7509   26.5962 C   0  0  0  0  0  0  0  0  0  0  0  0
    6.9000  -13.5914   25.6870 C   0  0  0  0  0  0  0  0  0  0  0  0
    8.0659  -14.0721   24.9228 C   0  0  2  0  0  0  0  0  0  0  0  0
    7.5249  -14.8153   23.7384 N   0  0  0  0  0  0  0  0  0  0  0  0
    9.0120  -14.9836   25.5737 C   0  0  0  0  0  0  0  0  0  0  0  0
    9.8093  -14.5434   26.4830 O   0  0  0  0  0  0  0  0  0  0  0  0
    9.1293  -16.3705   25.2880 N   0  0  0  0  0  0  0  0  0  0  0  0
   10.0602  -17.1588   26.0260 C   0  0  1  0  0  0  0  0  0  0  0  0
    9.4780  -18.5039   26.4369 C   0  0  0  0  0  0  0  0  0  0  0  0
   10.4582  -19.3054   27.2662 C   0  0  0  0  0  0  0  0  0  0  0  0
    9.8555  -20.6517   27.5624 C   0  0  0  0  0  0  0  0  0  0  0  0
   10.7100  -21.4994   28.4676 C   0  0  0  0  0  0  0  0  0  0  0  0
   10.0848  -22.8115   28.6903 N   0  0  0  0  0  0  0  0  0  0  0  0
   11.3331  -17.4258   25.3322 C   0  0  0  0  0  0  0  0  0  0  0  0
   11.4215  -17.6513   24.1117 O   0  0  0  0  0  0  0  0  0  0  0  0
   12.5476  -17.4351   26.0599 O   0  0  0  0  0  0  0  0  0  0  0  0
  2  1  1  0
  3  2  1  0
  3  4  1  1
  5  3  1  0
  5  6  1  6
  7  5  1  0
  8  7  2  0
 10  9  1  1
 10 12  1  0
 11 10  1  0
 13 12  1  1
 13 15  1  0
 13 14  1  0
 14  7  1  0
 15 16  2  0
 17 15  1  0
 17 18  1  0
 18 24  1  0
 18 19  1  6
 20 19  1  0
 21 20  1  0
 22 21  1  0
 23 22  1  0
 24 25  2  0
 24 26  1  0
M  END
$$$$
