ILK.pdb
     RDKit          3D

 26 25  0  0  1  0  0  0  0  0999 V2000
    7.3121  -12.3540   18.5595 C   0  0  0  0  0  0  0  0  0  0  0  0
    7.2378  -13.7084   19.1958 C   0  0  0  0  0  0  0  0  0  0  0  0
    7.9138  -13.6878   20.5340 C   0  0  2  0  0  0  0  0  0  0  0  0
    9.3566  -13.3342   20.3316 C   0  0  0  0  0  0  0  0  0  0  0  0
    7.7860  -15.0291   21.2262 C   0  0  2  0  0  0  0  0  0  0  0  0
    6.4333  -15.4870   21.2906 N   0  0  0  0  0  0  0  0  0  0  0  0
    8.3846  -14.8696   22.5971 C   0  0  0  0  0  0  0  0  0  0  0  0
    9.6196  -14.6964   22.7523 O   0  0  0  0  0  0  0  0  0  0  0  0
    8.1873  -11.9169   26.0793 C   0  0  0  0  0  0  0  0  0  0  0  0
    6.9071  -12.7106   25.9327 C   0  0  2  0  0  0  0  0  0  0  0  0
    5.7746  -12.1375   26.7236 C   0  0  0  0  0  0  0  0  0  0  0  0
    7.0782  -14.1668   25.9388 C   0  0  0  0  0  0  0  0  0  0  0  0
    8.0973  -14.8253   25.1008 C   0  0  2  0  0  0  0  0  0  0  0  0
    7.5213  -14.9186   23.7197 N   0  0  0  0  0  0  0  0  0  0  0  0
    8.5321  -16.1814   25.4495 C   0  0  0  0  0  0  0  0  0  0  0  0
    7.6593  -17.0982   25.6817 O   0  0  0  0  0  0  0  0  0  0  0  0
    9.8867  -16.5981   25.5503 N   0  0  0  0  0  0  0  0  0  0  0  0
   10.1769  -17.9504   25.8965 C   0  0  1  0  0  0  0  0  0  0  0  0
   11.1045  -18.6166   24.8902 C   0  0  0  0  0  0  0  0  0  0  0  0
   10.6345  -18.3966   23.4684 C   0  0  0  0  0  0  0  0  0  0  0  0
   11.5870  -19.0869   22.5305 C   0  0  0  0  0  0  0  0  0  0  0  0
   11.1688  -18.9975   21.0864 C   0  0  0  0  0  0  0  0  0  0  0  0
   12.2325  -19.5049   20.2071 N   0  0  0  0  0  0  0  0  0  0  0  0
   10.7746  -18.1335   27.2316 C   0  0  0  0  0  0  0  0  0  0  0  0
   11.0353  -19.2452   27.7260 O   0  0  0  0  0  0  0  0  0  0  0  0
   11.0852  -17.0056   28.0289 O   0  0  0  0  0  0  0  0  0  0  0  0
  2  1  1  0
  3  2  1  0
  3  4  1  6
  5  3  1  0
  5  6  1  1
  7  5  1  0
  8  7  2  0
 10  9  1  1
 10 12  1  0
 11 10  1  0
 13 12  1  1
 13 15  1  0
 13 14  1  0
 14  7  1  0
 15 16  2  0
 17 15  1  0
 17 18  1  0
 18 24  1  0
 18 19  1  6
 20 19  1  0
 21 20  1  0
 22 21  1  0
 23 22  1  0
 24 25  2  0
 24 26  1  0
M  END
$$$$
