ILK.pdb
     RDKit          3D

 26 25  0  0  1  0  0  0  0  0999 V2000
    6.9441  -17.9140   19.2543 C   0  0  0  0  0  0  0  0  0  0  0  0
    6.8085  -16.4518   19.5512 C   0  0  0  0  0  0  0  0  0  0  0  0
    7.4804  -16.1245   20.8511 C   0  0  2  0  0  0  0  0  0  0  0  0
    6.9748  -17.0710   21.8982 C   0  0  0  0  0  0  0  0  0  0  0  0
    7.2101  -14.6897   21.2546 C   0  0  2  0  0  0  0  0  0  0  0  0
    7.5192  -13.7594   20.2142 N   0  0  0  0  0  0  0  0  0  0  0  0
    8.0207  -14.4267   22.4943 C   0  0  0  0  0  0  0  0  0  0  0  0
    9.2083  -14.0221   22.4222 O   0  0  0  0  0  0  0  0  0  0  0  0
    7.6121  -11.4021   25.9341 C   0  0  0  0  0  0  0  0  0  0  0  0
    6.5802  -12.5061   26.0163 C   0  0  2  0  0  0  0  0  0  0  0  0
    5.4896  -12.2101   26.9959 C   0  0  0  0  0  0  0  0  0  0  0  0
    7.1268  -13.8665   25.9911 C   0  0  0  0  0  0  0  0  0  0  0  0
    8.1488  -14.2668   25.0065 C   0  0  2  0  0  0  0  0  0  0  0  0
    7.4137  -14.6457   23.7559 N   0  0  0  0  0  0  0  0  0  0  0  0
    9.0263  -15.3995   25.3177 C   0  0  0  0  0  0  0  0  0  0  0  0
    9.8017  -15.3510   26.3437 O   0  0  0  0  0  0  0  0  0  0  0  0
    9.0966  -16.6020   24.5641 N   0  0  0  0  0  0  0  0  0  0  0  0
   10.0219  -17.6152   24.9515 C   0  0  1  0  0  0  0  0  0  0  0  0
   11.2643  -17.6277   24.0723 C   0  0  0  0  0  0  0  0  0  0  0  0
   12.1757  -18.7873   24.4120 C   0  0  0  0  0  0  0  0  0  0  0  0
   13.3886  -18.7272   23.5239 C   0  0  0  0  0  0  0  0  0  0  0  0
   14.2925  -19.9230   23.6701 C   0  0  0  0  0  0  0  0  0  0  0  0
   15.5020  -19.7610   22.8499 N   0  0  0  0  0  0  0  0  0  0  0  0
   10.4766  -17.5365   26.3516 C   0  0  0  0  0  0  0  0  0  0  0  0
   10.5102  -16.4810   27.0095 O   0  0  0  0  0  0  0  0  0  0  0  0
   10.9080  -18.7062   27.0226 O   0  0  0  0  0  0  0  0  0  0  0  0
  2  1  1  0
  3  2  1  0
  3  4  1  1
  5  3  1  0
  5  6  1  6
  7  5  1  0
  8  7  2  0
 10  9  1  1
 10 12  1  0
 11 10  1  0
 13 12  1  1
 13 15  1  0
 13 14  1  0
 14  7  1  0
 15 16  2  0
 17 15  1  0
 17 18  1  0
 18 24  1  0
 18 19  1  6
 20 19  1  0
 21 20  1  0
 22 21  1  0
 23 22  1  0
 24 25  2  0
 24 26  1  0
M  END
$$$$
