ILK.pdb
     RDKit          3D

 26 25  0  0  1  0  0  0  0  0999 V2000
    9.1455  -19.4834   19.6278 C   0  0  0  0  0  0  0  0  0  0  0  0
    8.5910  -18.0921   19.6654 C   0  0  0  0  0  0  0  0  0  0  0  0
    8.8855  -17.4547   20.9903 C   0  0  2  0  0  0  0  0  0  0  0  0
    7.9933  -18.0741   22.0238 C   0  0  0  0  0  0  0  0  0  0  0  0
    8.6710  -15.9564   20.9303 C   0  0  2  0  0  0  0  0  0  0  0  0
    9.4488  -15.3311   19.9067 N   0  0  0  0  0  0  0  0  0  0  0  0
    9.0067  -15.4143   22.2928 C   0  0  0  0  0  0  0  0  0  0  0  0
   10.1938  -15.3744   22.7035 O   0  0  0  0  0  0  0  0  0  0  0  0
    5.6124  -12.5124   26.6043 C   0  0  0  0  0  0  0  0  0  0  0  0
    6.9861  -13.0233   26.2267 C   0  0  2  0  0  0  0  0  0  0  0  0
    8.0862  -12.1105   26.6660 C   0  0  0  0  0  0  0  0  0  0  0  0
    7.0799  -13.6132   24.8876 C   0  0  0  0  0  0  0  0  0  0  0  0
    8.2537  -14.4054   24.4765 C   0  0  2  0  0  0  0  0  0  0  0  0
    7.9492  -14.9452   23.1112 N   0  0  0  0  0  0  0  0  0  0  0  0
    8.6479  -15.5606   25.2887 C   0  0  0  0  0  0  0  0  0  0  0  0
    7.8474  -16.5597   25.4195 O   0  0  0  0  0  0  0  0  0  0  0  0
    9.8897  -15.6891   25.9672 N   0  0  0  0  0  0  0  0  0  0  0  0
   10.1691  -16.8856   26.6905 C   0  0  1  0  0  0  0  0  0  0  0  0
   11.2533  -17.7214   26.0249 C   0  0  0  0  0  0  0  0  0  0  0  0
   11.6181  -18.9290   26.8613 C   0  0  0  0  0  0  0  0  0  0  0  0
   12.6614  -19.7285   26.1293 C   0  0  0  0  0  0  0  0  0  0  0  0
   13.0685  -20.9826   26.8574 C   0  0  0  0  0  0  0  0  0  0  0  0
   14.1809  -21.6468   26.1621 N   0  0  0  0  0  0  0  0  0  0  0  0
   10.5725  -16.6816   28.0936 C   0  0  0  0  0  0  0  0  0  0  0  0
   10.9195  -17.6029   28.8544 O   0  0  0  0  0  0  0  0  0  0  0  0
   10.5793  -15.3779   28.6457 O   0  0  0  0  0  0  0  0  0  0  0  0
  2  1  1  0
  3  2  1  0
  3  4  1  1
  5  3  1  0
  5  6  1  6
  7  5  1  0
  8  7  2  0
 10  9  1  6
 10 12  1  0
 11 10  1  0
 13 12  1  1
 13 15  1  0
 13 14  1  0
 14  7  1  0
 15 16  2  0
 17 15  1  0
 17 18  1  0
 18 24  1  0
 18 19  1  6
 20 19  1  0
 21 20  1  0
 22 21  1  0
 23 22  1  0
 24 25  2  0
 24 26  1  0
M  END
$$$$
