ILK.pdb
     RDKit          3D

 26 25  0  0  1  0  0  0  0  0999 V2000
    6.7533  -11.4957   27.6004 C   0  0  0  0  0  0  0  0  0  0  0  0
    6.0472  -12.5813   26.8470 C   0  0  0  0  0  0  0  0  0  0  0  0
    7.0370  -13.4029   26.0766 C   0  0  2  0  0  0  0  0  0  0  0  0
    7.8236  -12.4874   25.1873 C   0  0  0  0  0  0  0  0  0  0  0  0
    6.3367  -14.4683   25.2588 C   0  0  2  0  0  0  0  0  0  0  0  0
    5.6052  -15.3906   26.0699 N   0  0  0  0  0  0  0  0  0  0  0  0
    7.3977  -15.1613   24.4480 C   0  0  0  0  0  0  0  0  0  0  0  0
    7.8523  -16.2813   24.7920 O   0  0  0  0  0  0  0  0  0  0  0  0
    6.6295  -15.1125   20.0239 C   0  0  0  0  0  0  0  0  0  0  0  0
    7.5988  -14.0194   20.4191 C   0  0  2  0  0  0  0  0  0  0  0  0
    7.7382  -12.9605   19.3723 C   0  0  0  0  0  0  0  0  0  0  0  0
    8.8177  -14.4857   21.0875 C   0  0  0  0  0  0  0  0  0  0  0  0
    8.7589  -15.2777   22.3299 C   0  0  2  0  0  0  0  0  0  0  0  0
    7.8785  -14.5212   23.2789 N   0  0  0  0  0  0  0  0  0  0  0  0
   10.0028  -15.5445   23.0588 C   0  0  0  0  0  0  0  0  0  0  0  0
   10.6484  -14.5760   23.6080 O   0  0  0  0  0  0  0  0  0  0  0  0
   10.5824  -16.8304   23.2305 N   0  0  0  0  0  0  0  0  0  0  0  0
   11.8239  -16.9496   23.9212 C   0  0  1  0  0  0  0  0  0  0  0  0
   11.8782  -18.1922   24.7987 C   0  0  0  0  0  0  0  0  0  0  0  0
   10.9593  -18.0701   25.9951 C   0  0  0  0  0  0  0  0  0  0  0  0
   10.9491  -19.3804   26.7344 C   0  0  0  0  0  0  0  0  0  0  0  0
    9.9921  -19.3994   27.8973 C   0  0  0  0  0  0  0  0  0  0  0  0
    9.9858  -20.7215   28.5408 N   0  0  0  0  0  0  0  0  0  0  0  0
   13.0157  -16.9732   23.0540 C   0  0  0  0  0  0  0  0  0  0  0  0
   14.1836  -16.9554   23.4828 O   0  0  0  0  0  0  0  0  0  0  0  0
   12.8664  -17.0189   21.6468 O   0  0  0  0  0  0  0  0  0  0  0  0
  2  1  1  0
  3  2  1  0
  3  4  1  6
  5  3  1  0
  5  6  1  1
  7  5  1  0
  8  7  2  0
 10  9  1  6
 10 12  1  0
 11 10  1  0
 13 12  1  6
 13 15  1  0
 13 14  1  0
 14  7  1  0
 15 16  2  0
 17 15  1  0
 17 18  1  0
 18 24  1  0
 18 19  1  6
 20 19  1  0
 21 20  1  0
 22 21  1  0
 23 22  1  0
 24 25  2  0
 24 26  1  0
M  END
$$$$
