ILK.pdb
     RDKit          3D

 26 25  0  0  1  0  0  0  0  0999 V2000
    8.4379  -11.7849   20.1896 C   0  0  0  0  0  0  0  0  0  0  0  0
    7.8666  -12.9487   20.9405 C   0  0  0  0  0  0  0  0  0  0  0  0
    8.4620  -14.2298   20.4379 C   0  0  2  0  0  0  0  0  0  0  0  0
    8.0753  -14.4007   18.9995 C   0  0  0  0  0  0  0  0  0  0  0  0
    7.9854  -15.4085   21.2614 C   0  0  2  0  0  0  0  0  0  0  0  0
    6.5619  -15.5400   21.2591 N   0  0  0  0  0  0  0  0  0  0  0  0
    8.5232  -15.2126   22.6526 C   0  0  0  0  0  0  0  0  0  0  0  0
    9.7577  -15.1115   22.8653 O   0  0  0  0  0  0  0  0  0  0  0  0
    8.0394  -12.0584   26.0502 C   0  0  0  0  0  0  0  0  0  0  0  0
    6.7950  -12.9015   25.8735 C   0  0  2  0  0  0  0  0  0  0  0  0
    5.6183  -12.3646   26.6242 C   0  0  0  0  0  0  0  0  0  0  0  0
    7.0206  -14.3500   25.8997 C   0  0  0  0  0  0  0  0  0  0  0  0
    8.1118  -14.9728   25.1277 C   0  0  2  0  0  0  0  0  0  0  0  0
    7.6028  -15.1437   23.7278 N   0  0  0  0  0  0  0  0  0  0  0  0
    8.6088  -16.2891   25.5401 C   0  0  0  0  0  0  0  0  0  0  0  0
    7.7915  -17.2746   25.6708 O   0  0  0  0  0  0  0  0  0  0  0  0
    9.9698  -16.5935   25.8118 N   0  0  0  0  0  0  0  0  0  0  0  0
   10.3186  -17.9071   26.2427 C   0  0  1  0  0  0  0  0  0  0  0  0
   11.3253  -18.5702   25.3133 C   0  0  0  0  0  0  0  0  0  0  0  0
   10.8547  -18.5480   23.8750 C   0  0  0  0  0  0  0  0  0  0  0  0
   11.9031  -19.1952   23.0117 C   0  0  0  0  0  0  0  0  0  0  0  0
   11.5046  -19.2893   21.5623 C   0  0  0  0  0  0  0  0  0  0  0  0
   12.5606  -19.9450   20.7767 N   0  0  0  0  0  0  0  0  0  0  0  0
   10.8656  -17.9860   27.6093 C   0  0  0  0  0  0  0  0  0  0  0  0
   11.1919  -19.0513   28.1632 O   0  0  0  0  0  0  0  0  0  0  0  0
   11.0458  -16.8049   28.3690 O   0  0  0  0  0  0  0  0  0  0  0  0
  2  1  1  0
  3  2  1  0
  3  4  1  6
  5  3  1  0
  5  6  1  1
  7  5  1  0
  8  7  2  0
 10  9  1  1
 10 12  1  0
 11 10  1  0
 13 12  1  1
 13 15  1  0
 13 14  1  0
 14  7  1  0
 15 16  2  0
 17 15  1  0
 17 18  1  0
 18 24  1  0
 18 19  1  6
 20 19  1  0
 21 20  1  0
 22 21  1  0
 23 22  1  0
 24 25  2  0
 24 26  1  0
M  END
$$$$
