ILK.pdb
     RDKit          3D

 26 25  0  0  1  0  0  0  0  0999 V2000
    9.0315  -12.3809   27.4446 C   0  0  0  0  0  0  0  0  0  0  0  0
    7.8723  -13.1315   26.8635 C   0  0  0  0  0  0  0  0  0  0  0  0
    8.3178  -13.9297   25.6749 C   0  0  2  0  0  0  0  0  0  0  0  0
    8.9500  -12.9964   24.6864 C   0  0  0  0  0  0  0  0  0  0  0  0
    7.1505  -14.6616   25.0454 C   0  0  2  0  0  0  0  0  0  0  0  0
    6.4682  -15.5079   25.9738 N   0  0  0  0  0  0  0  0  0  0  0  0
    7.7021  -15.4419   23.8836 C   0  0  0  0  0  0  0  0  0  0  0  0
    7.6910  -16.6986   23.8791 O   0  0  0  0  0  0  0  0  0  0  0  0
    6.1524  -14.1058   20.0104 C   0  0  0  0  0  0  0  0  0  0  0  0
    7.5093  -13.4812   20.2539 C   0  0  2  0  0  0  0  0  0  0  0  0
    7.7655  -12.2917   19.3844 C   0  0  0  0  0  0  0  0  0  0  0  0
    8.6045  -14.4370   20.4463 C   0  0  0  0  0  0  0  0  0  0  0  0
    8.5599  -15.4535   21.5136 C   0  0  2  0  0  0  0  0  0  0  0  0
    8.2390  -14.7261   22.7847 N   0  0  0  0  0  0  0  0  0  0  0  0
    9.7650  -16.2407   21.7921 C   0  0  0  0  0  0  0  0  0  0  0  0
   10.0727  -17.2369   21.0376 O   0  0  0  0  0  0  0  0  0  0  0  0
   10.6693  -15.9895   22.8589 N   0  0  0  0  0  0  0  0  0  0  0  0
   11.9357  -16.6444   22.8691 C   0  0  1  0  0  0  0  0  0  0  0  0
   13.0912  -15.6674   22.7038 C   0  0  0  0  0  0  0  0  0  0  0  0
   12.9252  -14.8124   21.4659 C   0  0  0  0  0  0  0  0  0  0  0  0
   14.2854  -14.5161   20.8953 C   0  0  0  0  0  0  0  0  0  0  0  0
   14.2479  -13.5510   19.7397 C   0  0  0  0  0  0  0  0  0  0  0  0
   15.6097  -13.2413   19.2796 N   0  0  0  0  0  0  0  0  0  0  0  0
   12.2089  -17.4461   24.0756 C   0  0  0  0  0  0  0  0  0  0  0  0
   13.2728  -18.0611   24.2711 O   0  0  0  0  0  0  0  0  0  0  0  0
   11.2310  -17.5478   25.0944 O   0  0  0  0  0  0  0  0  0  0  0  0
  2  1  1  0
  3  2  1  0
  3  4  1  6
  5  3  1  0
  5  6  1  1
  7  5  1  0
  8  7  2  0
 10  9  1  6
 10 12  1  0
 11 10  1  0
 13 12  1  6
 13 15  1  0
 13 14  1  0
 14  7  1  0
 15 16  2  0
 17 15  1  0
 17 18  1  0
 18 24  1  0
 18 19  1  1
 20 19  1  0
 21 20  1  0
 22 21  1  0
 23 22  1  0
 24 25  2  0
 24 26  1  0
M  END
$$$$
