ILK.pdb
     RDKit          3D

 26 25  0  0  1  0  0  0  0  0999 V2000
    2.6081  -19.1287   21.0924 C   0  0  0  0  0  0  0  0  0  0  0  0
    3.4928  -18.8701   22.2735 C   0  0  0  0  0  0  0  0  0  0  0  0
    4.8589  -18.4562   21.8144 C   0  0  2  0  0  0  0  0  0  0  0  0
    5.3631  -19.4798   20.8419 C   0  0  0  0  0  0  0  0  0  0  0  0
    5.8076  -18.3233   22.9878 C   0  0  2  0  0  0  0  0  0  0  0  0
    5.2154  -17.6456   24.0985 N   0  0  0  0  0  0  0  0  0  0  0  0
    7.0264  -17.6012   22.4817 C   0  0  0  0  0  0  0  0  0  0  0  0
    7.8961  -18.1939   21.7949 O   0  0  0  0  0  0  0  0  0  0  0  0
    7.9799  -14.1397   19.5032 C   0  0  0  0  0  0  0  0  0  0  0  0
    7.2394  -13.7129   20.7522 C   0  0  2  0  0  0  0  0  0  0  0  0
    6.6673  -12.3352   20.6461 C   0  0  0  0  0  0  0  0  0  0  0  0
    7.8851  -14.0905   22.0134 C   0  0  0  0  0  0  0  0  0  0  0  0
    8.3505  -15.4683   22.2571 C   0  0  2  0  0  0  0  0  0  0  0  0
    7.1760  -16.2279   22.7971 N   0  0  0  0  0  0  0  0  0  0  0  0
    9.4451  -15.6881   23.2075 C   0  0  0  0  0  0  0  0  0  0  0  0
    9.1874  -15.8839   24.4531 O   0  0  0  0  0  0  0  0  0  0  0  0
   10.8237  -15.7151   22.8647 N   0  0  0  0  0  0  0  0  0  0  0  0
   11.7290  -16.4641   23.6722 C   0  0  1  0  0  0  0  0  0  0  0  0
   11.3045  -17.9188   23.8163 C   0  0  0  0  0  0  0  0  0  0  0  0
   12.2331  -18.6817   24.7364 C   0  0  0  0  0  0  0  0  0  0  0  0
   11.7747  -20.1128   24.8101 C   0  0  0  0  0  0  0  0  0  0  0  0
   12.6574  -20.9761   25.6725 C   0  0  0  0  0  0  0  0  0  0  0  0
   12.0731  -22.3158   25.8334 N   0  0  0  0  0  0  0  0  0  0  0  0
   13.1266  -16.4599   23.2033 C   0  0  0  0  0  0  0  0  0  0  0  0
   13.4695  -16.7716   22.0485 O   0  0  0  0  0  0  0  0  0  0  0  0
   14.1684  -16.0860   24.0861 O   0  0  0  0  0  0  0  0  0  0  0  0
  2  1  1  0
  3  2  1  0
  3  4  1  6
  5  3  1  0
  5  6  1  1
  7  5  1  0
  8  7  2  0
 10  9  1  6
 10 12  1  0
 11 10  1  0
 13 12  1  1
 13 15  1  0
 13 14  1  0
 14  7  1  0
 15 16  2  0
 17 15  1  0
 17 18  1  0
 18 24  1  0
 18 19  1  6
 20 19  1  0
 21 20  1  0
 22 21  1  0
 23 22  1  0
 24 25  2  0
 24 26  1  0
M  END
$$$$
