ILK.pdb
     RDKit          3D

 26 25  0  0  1  0  0  0  0  0999 V2000
    7.5067  -12.0967   18.8826 C   0  0  0  0  0  0  0  0  0  0  0  0
    7.4678  -13.4995   19.4075 C   0  0  0  0  0  0  0  0  0  0  0  0
    8.0570  -13.5516   20.7853 C   0  0  2  0  0  0  0  0  0  0  0  0
    9.4649  -13.0406   20.7190 C   0  0  0  0  0  0  0  0  0  0  0  0
    8.0278  -14.9631   21.3340 C   0  0  2  0  0  0  0  0  0  0  0  0
    6.7191  -15.5375   21.3022 N   0  0  0  0  0  0  0  0  0  0  0  0
    8.5714  -14.8962   22.7351 C   0  0  0  0  0  0  0  0  0  0  0  0
    9.8090  -14.8829   22.9535 O   0  0  0  0  0  0  0  0  0  0  0  0
    8.3403  -11.9372   26.3469 C   0  0  0  0  0  0  0  0  0  0  0  0
    7.0364  -12.6528   26.0672 C   0  0  2  0  0  0  0  0  0  0  0  0
    5.8761  -12.0508   26.7937 C   0  0  0  0  0  0  0  0  0  0  0  0
    7.1311  -14.1153   26.0215 C   0  0  0  0  0  0  0  0  0  0  0  0
    8.1665  -14.7946   25.2208 C   0  0  2  0  0  0  0  0  0  0  0  0
    7.6530  -14.8479   23.8132 N   0  0  0  0  0  0  0  0  0  0  0  0
    8.5400  -16.1695   25.5667 C   0  0  0  0  0  0  0  0  0  0  0  0
    7.6563  -17.1046   25.5359 O   0  0  0  0  0  0  0  0  0  0  0  0
    9.8463  -16.5855   25.9404 N   0  0  0  0  0  0  0  0  0  0  0  0
   10.0959  -17.9683   26.1820 C   0  0  1  0  0  0  0  0  0  0  0  0
   10.9875  -18.5880   25.1153 C   0  0  0  0  0  0  0  0  0  0  0  0
   11.3185  -20.0300   25.4345 C   0  0  0  0  0  0  0  0  0  0  0  0
   12.2502  -20.5589   24.3783 C   0  0  0  0  0  0  0  0  0  0  0  0
   12.5559  -22.0253   24.5354 C   0  0  0  0  0  0  0  0  0  0  0  0
   13.5786  -22.4475   23.5670 N   0  0  0  0  0  0  0  0  0  0  0  0
   10.7047  -18.2685   27.4906 C   0  0  0  0  0  0  0  0  0  0  0  0
   10.9723  -19.4192   27.8812 O   0  0  0  0  0  0  0  0  0  0  0  0
   11.0186  -17.2157   28.3836 O   0  0  0  0  0  0  0  0  0  0  0  0
  2  1  1  0
  3  2  1  0
  3  4  1  6
  5  3  1  0
  5  6  1  1
  7  5  1  0
  8  7  2  0
 10  9  1  1
 10 12  1  0
 11 10  1  0
 13 12  1  1
 13 15  1  0
 13 14  1  0
 14  7  1  0
 15 16  2  0
 17 15  1  0
 17 18  1  0
 18 24  1  0
 18 19  1  6
 20 19  1  0
 21 20  1  0
 22 21  1  0
 23 22  1  0
 24 25  2  0
 24 26  1  0
M  END
$$$$
