ILK.pdb
     RDKit          3D

 26 25  0  0  1  0  0  0  0  0999 V2000
    8.2689  -18.8546   20.7687 C   0  0  0  0  0  0  0  0  0  0  0  0
    8.6876  -17.4314   20.9784 C   0  0  0  0  0  0  0  0  0  0  0  0
    7.4802  -16.5502   21.0964 C   0  0  2  0  0  0  0  0  0  0  0  0
    6.6345  -16.7373   19.8727 C   0  0  0  0  0  0  0  0  0  0  0  0
    7.8824  -15.0978   21.2492 C   0  0  2  0  0  0  0  0  0  0  0  0
    8.7906  -14.6698   20.2316 N   0  0  0  0  0  0  0  0  0  0  0  0
    8.4788  -14.9541   22.6228 C   0  0  0  0  0  0  0  0  0  0  0  0
    9.7236  -14.9510   22.7952 O   0  0  0  0  0  0  0  0  0  0  0  0
    8.1168  -11.7080   26.0134 C   0  0  0  0  0  0  0  0  0  0  0  0
    6.8760  -12.5625   25.8694 C   0  0  2  0  0  0  0  0  0  0  0  0
    5.7069  -12.0217   26.6291 C   0  0  0  0  0  0  0  0  0  0  0  0
    7.1125  -14.0089   25.9158 C   0  0  0  0  0  0  0  0  0  0  0  0
    8.1685  -14.6422   25.1046 C   0  0  2  0  0  0  0  0  0  0  0  0
    7.6020  -14.8209   23.7280 N   0  0  0  0  0  0  0  0  0  0  0  0
    8.6764  -15.9577   25.5061 C   0  0  0  0  0  0  0  0  0  0  0  0
    7.8690  -16.9537   25.6175 O   0  0  0  0  0  0  0  0  0  0  0  0
   10.0382  -16.2501   25.7871 N   0  0  0  0  0  0  0  0  0  0  0  0
   10.3853  -17.5364   26.2948 C   0  0  1  0  0  0  0  0  0  0  0  0
   11.6637  -18.0769   25.6699 C   0  0  0  0  0  0  0  0  0  0  0  0
   11.5642  -18.1367   24.1608 C   0  0  0  0  0  0  0  0  0  0  0  0
   12.8450  -18.7044   23.6125 C   0  0  0  0  0  0  0  0  0  0  0  0
   12.8767  -18.7550   22.1076 C   0  0  0  0  0  0  0  0  0  0  0  0
   13.5455  -17.5639   21.5636 N   0  0  0  0  0  0  0  0  0  0  0  0
   10.5518  -17.6006   27.7582 C   0  0  0  0  0  0  0  0  0  0  0  0
   10.8225  -18.6448   28.3783 O   0  0  0  0  0  0  0  0  0  0  0  0
   10.4034  -16.4293   28.5396 O   0  0  0  0  0  0  0  0  0  0  0  0
  2  1  1  0
  3  2  1  0
  3  4  1  6
  5  3  1  0
  5  6  1  6
  7  5  1  0
  8  7  2  0
 10  9  1  1
 10 12  1  0
 11 10  1  0
 13 12  1  1
 13 15  1  0
 13 14  1  0
 14  7  1  0
 15 16  2  0
 17 15  1  0
 17 18  1  0
 18 24  1  0
 18 19  1  6
 20 19  1  0
 21 20  1  0
 22 21  1  0
 23 22  1  0
 24 25  2  0
 24 26  1  0
M  END
$$$$
