ILK.pdb
     RDKit          3D

 26 25  0  0  1  0  0  0  0  0999 V2000
    9.0533  -19.6716   20.3838 C   0  0  0  0  0  0  0  0  0  0  0  0
    8.5615  -18.2564   20.3789 C   0  0  0  0  0  0  0  0  0  0  0  0
    8.9091  -17.5846   21.6736 C   0  0  2  0  0  0  0  0  0  0  0  0
    8.4013  -18.4336   22.8001 C   0  0  0  0  0  0  0  0  0  0  0  0
    8.3093  -16.1953   21.7412 C   0  0  2  0  0  0  0  0  0  0  0  0
    8.6927  -15.3774   20.6332 N   0  0  0  0  0  0  0  0  0  0  0  0
    8.7452  -15.5969   23.0508 C   0  0  0  0  0  0  0  0  0  0  0  0
    9.9445  -15.2822   23.2560 O   0  0  0  0  0  0  0  0  0  0  0  0
    7.7921  -11.8414   25.7643 C   0  0  0  0  0  0  0  0  0  0  0  0
    6.6378  -12.8170   25.6849 C   0  0  2  0  0  0  0  0  0  0  0  0
    5.3768  -12.2744   26.2782 C   0  0  0  0  0  0  0  0  0  0  0  0
    6.9858  -14.2116   25.9747 C   0  0  0  0  0  0  0  0  0  0  0  0
    8.1826  -14.8436   25.3894 C   0  0  2  0  0  0  0  0  0  0  0  0
    7.7687  -15.3930   24.0572 N   0  0  0  0  0  0  0  0  0  0  0  0
    8.8178  -15.9546   26.1046 C   0  0  0  0  0  0  0  0  0  0  0  0
    8.1888  -17.0671   26.2563 O   0  0  0  0  0  0  0  0  0  0  0  0
   10.1242  -15.9189   26.6624 N   0  0  0  0  0  0  0  0  0  0  0  0
   10.6230  -17.0668   27.3453 C   0  0  1  0  0  0  0  0  0  0  0  0
   11.9892  -17.4959   26.8293 C   0  0  0  0  0  0  0  0  0  0  0  0
   12.5013  -18.7194   27.5586 C   0  0  0  0  0  0  0  0  0  0  0  0
   13.8561  -19.0783   27.0117 C   0  0  0  0  0  0  0  0  0  0  0  0
   14.4701  -20.2777   27.6844 C   0  0  0  0  0  0  0  0  0  0  0  0
   15.7952  -20.5676   27.1169 N   0  0  0  0  0  0  0  0  0  0  0  0
   10.7338  -16.9182   28.8077 C   0  0  0  0  0  0  0  0  0  0  0  0
   10.5175  -15.8528   29.4130 O   0  0  0  0  0  0  0  0  0  0  0  0
   11.1049  -18.0272   29.6059 O   0  0  0  0  0  0  0  0  0  0  0  0
  2  1  1  0
  3  2  1  0
  3  4  1  1
  5  3  1  0
  5  6  1  6
  7  5  1  0
  8  7  2  0
 10  9  1  1
 10 12  1  0
 11 10  1  0
 13 12  1  1
 13 15  1  0
 13 14  1  0
 14  7  1  0
 15 16  2  0
 17 15  1  0
 17 18  1  0
 18 24  1  0
 18 19  1  6
 20 19  1  0
 21 20  1  0
 22 21  1  0
 23 22  1  0
 24 25  2  0
 24 26  1  0
M  END
$$$$
