ILK.pdb
     RDKit          3D

 26 25  0  0  1  0  0  0  0  0999 V2000
   10.4686  -13.5984   29.7268 C   0  0  0  0  0  0  0  0  0  0  0  0
   10.4781  -14.2647   28.3849 C   0  0  0  0  0  0  0  0  0  0  0  0
   10.1358  -15.7175   28.5274 C   0  0  2  0  0  0  0  0  0  0  0  0
   11.2075  -16.3801   29.3401 C   0  0  0  0  0  0  0  0  0  0  0  0
   10.0094  -16.3800   27.1711 C   0  0  2  0  0  0  0  0  0  0  0  0
   11.0669  -16.0148   26.2811 N   0  0  0  0  0  0  0  0  0  0  0  0
    8.6630  -15.9938   26.6224 C   0  0  0  0  0  0  0  0  0  0  0  0
    7.6050  -16.4930   27.0817 O   0  0  0  0  0  0  0  0  0  0  0  0
    5.8628  -12.9995   27.2060 C   0  0  0  0  0  0  0  0  0  0  0  0
    7.0509  -12.6696   26.3285 C   0  0  2  0  0  0  0  0  0  0  0  0
    7.4309  -11.2242   26.3846 C   0  0  0  0  0  0  0  0  0  0  0  0
    7.0535  -13.3276   25.0182 C   0  0  0  0  0  0  0  0  0  0  0  0
    7.3046  -14.7744   24.8843 C   0  0  2  0  0  0  0  0  0  0  0  0
    8.6103  -15.0477   25.5687 N   0  0  0  0  0  0  0  0  0  0  0  0
    7.4243  -15.3509   23.5415 C   0  0  0  0  0  0  0  0  0  0  0  0
    6.3666  -15.6407   22.8680 O   0  0  0  0  0  0  0  0  0  0  0  0
    8.6532  -15.6227   22.8822 N   0  0  0  0  0  0  0  0  0  0  0  0
    8.6405  -15.9789   21.5017 C   0  0  1  0  0  0  0  0  0  0  0  0
    8.5834  -14.7595   20.5924 C   0  0  0  0  0  0  0  0  0  0  0  0
    8.5846  -15.1535   19.1311 C   0  0  0  0  0  0  0  0  0  0  0  0
    8.6210  -13.9051   18.2922 C   0  0  0  0  0  0  0  0  0  0  0  0
    8.2544  -14.1460   16.8515 C   0  0  0  0  0  0  0  0  0  0  0  0
    8.4972  -12.9394   16.0469 N   0  0  0  0  0  0  0  0  0  0  0  0
    9.7840  -16.7994   21.0630 C   0  0  0  0  0  0  0  0  0  0  0  0
    9.9359  -17.2069   19.8972 O   0  0  0  0  0  0  0  0  0  0  0  0
   10.7889  -17.1665   21.9903 O   0  0  0  0  0  0  0  0  0  0  0  0
  2  1  1  0
  3  2  1  0
  3  4  1  1
  5  3  1  0
  5  6  1  6
  7  5  1  0
  8  7  2  0
 10  9  1  6
 10 12  1  0
 11 10  1  0
 13 12  1  6
 13 15  1  0
 13 14  1  0
 14  7  1  0
 15 16  2  0
 17 15  1  0
 17 18  1  0
 18 24  1  0
 18 19  1  6
 20 19  1  0
 21 20  1  0
 22 21  1  0
 23 22  1  0
 24 25  2  0
 24 26  1  0
M  END
$$$$
