ILK.pdb
     RDKit          3D

 26 25  0  0  1  0  0  0  0  0999 V2000
    7.3589  -19.3088   21.5570 C   0  0  0  0  0  0  0  0  0  0  0  0
    7.4089  -17.8279   21.7790 C   0  0  0  0  0  0  0  0  0  0  0  0
    8.5491  -17.2291   21.0111 C   0  0  2  0  0  0  0  0  0  0  0  0
    9.8128  -17.9260   21.4173 C   0  0  0  0  0  0  0  0  0  0  0  0
    8.6545  -15.7405   21.2707 C   0  0  2  0  0  0  0  0  0  0  0  0
    9.6405  -15.1087   20.4507 N   0  0  0  0  0  0  0  0  0  0  0  0
    8.9599  -15.5750   22.7344 C   0  0  0  0  0  0  0  0  0  0  0  0
   10.1318  -15.6934   23.1726 O   0  0  0  0  0  0  0  0  0  0  0  0
    7.9440  -12.1631   26.2056 C   0  0  0  0  0  0  0  0  0  0  0  0
    6.7691  -12.9474   25.6625 C   0  0  2  0  0  0  0  0  0  0  0  0
    5.4517  -12.4267   26.1419 C   0  0  0  0  0  0  0  0  0  0  0  0
    6.9589  -14.4010   25.6278 C   0  0  0  0  0  0  0  0  0  0  0  0
    8.1798  -15.0042   25.0622 C   0  0  2  0  0  0  0  0  0  0  0  0
    7.8912  -15.2803   23.6171 N   0  0  0  0  0  0  0  0  0  0  0  0
    8.6715  -16.2661   25.6239 C   0  0  0  0  0  0  0  0  0  0  0  0
    7.9870  -17.3462   25.4788 O   0  0  0  0  0  0  0  0  0  0  0  0
    9.8913  -16.4157   26.3370 N   0  0  0  0  0  0  0  0  0  0  0  0
   10.2552  -17.7010   26.8354 C   0  0  1  0  0  0  0  0  0  0  0  0
   11.4187  -18.3095   26.0654 C   0  0  0  0  0  0  0  0  0  0  0  0
   11.8172  -19.6560   26.6300 C   0  0  0  0  0  0  0  0  0  0  0  0
   12.9566  -20.2055   25.8155 C   0  0  0  0  0  0  0  0  0  0  0  0
   13.4162  -21.5636   26.2765 C   0  0  0  0  0  0  0  0  0  0  0  0
   14.5360  -22.0389   25.4505 N   0  0  0  0  0  0  0  0  0  0  0  0
   10.6117  -17.7328   28.2654 C   0  0  0  0  0  0  0  0  0  0  0  0
   11.0042  -18.7543   28.8578 O   0  0  0  0  0  0  0  0  0  0  0  0
   10.5160  -16.5550   29.0453 O   0  0  0  0  0  0  0  0  0  0  0  0
  2  1  1  0
  3  2  1  0
  3  4  1  1
  5  3  1  0
  5  6  1  6
  7  5  1  0
  8  7  2  0
 10  9  1  1
 10 12  1  0
 11 10  1  0
 13 12  1  1
 13 15  1  0
 13 14  1  0
 14  7  1  0
 15 16  2  0
 17 15  1  0
 17 18  1  0
 18 24  1  0
 18 19  1  6
 20 19  1  0
 21 20  1  0
 22 21  1  0
 23 22  1  0
 24 25  2  0
 24 26  1  0
M  END
$$$$
