ILK.pdb
     RDKit          3D

 26 25  0  0  1  0  0  0  0  0999 V2000
    7.4035  -12.2740   18.7675 C   0  0  0  0  0  0  0  0  0  0  0  0
    7.3998  -13.6632   19.3286 C   0  0  0  0  0  0  0  0  0  0  0  0
    8.0306  -13.6721   20.6889 C   0  0  2  0  0  0  0  0  0  0  0  0
    9.4567  -13.2297   20.5536 C   0  0  0  0  0  0  0  0  0  0  0  0
    7.9574  -15.0513   21.3110 C   0  0  2  0  0  0  0  0  0  0  0  0
    6.6270  -15.5742   21.3318 N   0  0  0  0  0  0  0  0  0  0  0  0
    8.5302  -14.9340   22.6970 C   0  0  0  0  0  0  0  0  0  0  0  0
    9.7594  -14.7466   22.8800 O   0  0  0  0  0  0  0  0  0  0  0  0
    8.0319  -12.0233   26.2598 C   0  0  0  0  0  0  0  0  0  0  0  0
    6.8404  -12.9185   25.9963 C   0  0  2  0  0  0  0  0  0  0  0  0
    5.5948  -12.4420   26.6731 C   0  0  0  0  0  0  0  0  0  0  0  0
    7.1284  -14.3560   26.0261 C   0  0  0  0  0  0  0  0  0  0  0  0
    8.1950  -14.9443   25.1951 C   0  0  2  0  0  0  0  0  0  0  0  0
    7.6493  -15.0396   23.8019 N   0  0  0  0  0  0  0  0  0  0  0  0
    8.6931  -16.2830   25.5261 C   0  0  0  0  0  0  0  0  0  0  0  0
    7.8680  -17.2599   25.6710 O   0  0  0  0  0  0  0  0  0  0  0  0
   10.0627  -16.6186   25.7005 N   0  0  0  0  0  0  0  0  0  0  0  0
   10.4145  -17.9551   26.0509 C   0  0  1  0  0  0  0  0  0  0  0  0
   11.5520  -18.4948   25.1954 C   0  0  0  0  0  0  0  0  0  0  0  0
   11.1991  -18.4774   23.7237 C   0  0  0  0  0  0  0  0  0  0  0  0
   12.3590  -19.0292   22.9404 C   0  0  0  0  0  0  0  0  0  0  0  0
   12.0830  -19.1336   21.4635 C   0  0  0  0  0  0  0  0  0  0  0  0
   13.2550  -19.6681   20.7544 N   0  0  0  0  0  0  0  0  0  0  0  0
   10.7987  -18.1451   27.4614 C   0  0  0  0  0  0  0  0  0  0  0  0
   10.9391  -17.2114   28.2717 O   0  0  0  0  0  0  0  0  0  0  0  0
   11.0305  -19.4488   27.9625 O   0  0  0  0  0  0  0  0  0  0  0  0
  2  1  1  0
  3  2  1  0
  3  4  1  6
  5  3  1  0
  5  6  1  1
  7  5  1  0
  8  7  2  0
 10  9  1  1
 10 12  1  0
 11 10  1  0
 13 12  1  1
 13 15  1  0
 13 14  1  0
 14  7  1  0
 15 16  2  0
 17 15  1  0
 17 18  1  0
 18 24  1  0
 18 19  1  6
 20 19  1  0
 21 20  1  0
 22 21  1  0
 23 22  1  0
 24 25  2  0
 24 26  1  0
M  END
$$$$
