PAV.pdb
     RDKit          3D

 20 20  0  0  1  0  0  0  0  0999 V2000
    8.7935  -15.0966   19.0507 N   0  0  0  0  0  0  0  0  0  0  0  0
    8.3657  -14.9425   17.6859 C   0  0  0  0  0  0  0  0  0  0  0  0
    8.0591  -13.4487   17.5163 C   0  0  0  0  0  0  0  0  0  0  0  0
    7.4735  -13.1466   18.9022 C   0  0  0  0  0  0  0  0  0  0  0  0
    8.4350  -13.9249   19.7780 C   0  0  1  0  0  0  0  0  0  0  0  0
    7.8622  -14.2013   21.1094 C   0  0  0  0  0  0  0  0  0  0  0  0
    7.4301  -13.3094   21.8669 O   0  0  0  0  0  0  0  0  0  0  0  0
    7.2459  -17.4235   23.0258 C   0  0  0  0  0  0  0  0  0  0  0  0
    7.2045  -15.9155   22.8303 C   0  0  2  0  0  0  0  0  0  0  0  0
    7.7947  -15.5417   21.5599 N   0  0  0  0  0  0  0  0  0  0  0  0
    7.8532  -15.2265   23.9661 C   0  0  0  0  0  0  0  0  0  0  0  0
    9.1022  -15.0948   23.9417 O   0  0  0  0  0  0  0  0  0  0  0  0
    7.3806  -12.1628   27.8649 C   0  0  0  0  0  0  0  0  0  0  0  0
    6.7347  -13.0108   26.7950 C   0  0  1  0  0  0  0  0  0  0  0  0
    5.9720  -12.1664   25.8304 C   0  0  0  0  0  0  0  0  0  0  0  0
    7.7567  -13.8962   26.1120 C   0  0  2  0  0  0  0  0  0  0  0  0
    7.1521  -14.7075   25.0768 N   0  0  0  0  0  0  0  0  0  0  0  0
    8.4377  -14.7916   27.0662 C   0  0  0  0  0  0  0  0  0  0  0  0
    9.5531  -14.3400   27.7436 O   0  0  0  0  0  0  0  0  0  0  0  0
    8.0520  -15.9638   27.3009 O   0  0  0  0  0  0  0  0  0  0  0  0
  1  2  1  0
  3  2  1  0
  4  3  1  0
  5  4  1  0
  5  6  1  1
  5  1  1  0
  6 10  1  0
  7  6  2  0
  9 11  1  0
  9 10  1  0
  9  8  1  1
 11 17  1  0
 12 11  2  0
 14 13  1  1
 14 15  1  0
 16 14  1  0
 16 17  1  6
 18 16  1  0
 19 18  1  0
 20 18  2  0
M  END
$$$$
