PAV.pdb
     RDKit          3D

 20 20  0  0  1  0  0  0  0  0999 V2000
    7.9634  -15.2493   18.6002 N   0  0  0  0  0  0  0  0  0  0  0  0
    7.8039  -14.4190   17.4364 C   0  0  0  0  0  0  0  0  0  0  0  0
    8.5447  -13.1140   17.7565 C   0  0  0  0  0  0  0  0  0  0  0  0
    8.2268  -12.9973   19.2532 C   0  0  0  0  0  0  0  0  0  0  0  0
    8.4128  -14.4389   19.6827 C   0  0  1  0  0  0  0  0  0  0  0  0
    7.7331  -14.7217   20.9615 C   0  0  0  0  0  0  0  0  0  0  0  0
    6.8067  -14.0194   21.4139 O   0  0  0  0  0  0  0  0  0  0  0  0
    7.7596  -17.6591   23.3166 C   0  0  0  0  0  0  0  0  0  0  0  0
    7.5550  -16.1852   23.0008 C   0  0  2  0  0  0  0  0  0  0  0  0
    8.1446  -15.8431   21.7213 N   0  0  0  0  0  0  0  0  0  0  0  0
    8.0802  -15.3417   24.0955 C   0  0  0  0  0  0  0  0  0  0  0  0
    9.3034  -15.0561   24.0864 O   0  0  0  0  0  0  0  0  0  0  0  0
    7.1516  -12.1641   27.8217 C   0  0  0  0  0  0  0  0  0  0  0  0
    6.6354  -13.1242   26.7763 C   0  0  1  0  0  0  0  0  0  0  0  0
    5.8113  -12.4130   25.7565 C   0  0  0  0  0  0  0  0  0  0  0  0
    7.7692  -13.9168   26.1587 C   0  0  2  0  0  0  0  0  0  0  0  0
    7.2884  -14.8379   25.1508 N   0  0  0  0  0  0  0  0  0  0  0  0
    8.5214  -14.6843   27.1691 C   0  0  0  0  0  0  0  0  0  0  0  0
    9.6404  -14.1239   27.7529 O   0  0  0  0  0  0  0  0  0  0  0  0
    8.1944  -15.8408   27.5347 O   0  0  0  0  0  0  0  0  0  0  0  0
  1  2  1  0
  3  2  1  0
  4  3  1  0
  5  4  1  0
  5  6  1  1
  5  1  1  0
  6 10  1  0
  7  6  2  0
  9 11  1  0
  9 10  1  0
  9  8  1  1
 11 17  1  0
 12 11  2  0
 14 13  1  1
 14 15  1  0
 16 14  1  0
 16 17  1  6
 18 16  1  0
 19 18  1  0
 20 18  2  0
M  END
$$$$
