PAV.pdb
     RDKit          3D

 20 20  0  0  1  0  0  0  0  0999 V2000
    8.2379  -16.8177   18.0197 N   0  0  0  0  0  0  0  0  0  0  0  0
    7.8792  -18.0550   17.3797 C   0  0  0  0  0  0  0  0  0  0  0  0
    6.6161  -18.5417   18.1022 C   0  0  0  0  0  0  0  0  0  0  0  0
    6.9447  -18.0874   19.5306 C   0  0  0  0  0  0  0  0  0  0  0  0
    7.5284  -16.7167   19.2513 C   0  0  1  0  0  0  0  0  0  0  0  0
    8.3517  -16.2322   20.3759 C   0  0  0  0  0  0  0  0  0  0  0  0
    9.5802  -16.4314   20.4601 O   0  0  0  0  0  0  0  0  0  0  0  0
    7.5889  -13.9933   23.3378 C   0  0  0  0  0  0  0  0  0  0  0  0
    8.4590  -14.9531   22.5403 C   0  0  2  0  0  0  0  0  0  0  0  0
    7.7268  -15.5040   21.4168 N   0  0  0  0  0  0  0  0  0  0  0  0
    9.0046  -16.0106   23.4176 C   0  0  0  0  0  0  0  0  0  0  0  0
    8.2891  -17.0182   23.6434 O   0  0  0  0  0  0  0  0  0  0  0  0
   13.0277  -18.2601   25.2200 C   0  0  0  0  0  0  0  0  0  0  0  0
   12.3841  -17.1459   24.4291 C   0  0  1  0  0  0  0  0  0  0  0  0
   12.6785  -17.2835   22.9733 C   0  0  0  0  0  0  0  0  0  0  0  0
   10.8992  -17.0618   24.7173 C   0  0  2  0  0  0  0  0  0  0  0  0
   10.2822  -15.9554   24.0169 N   0  0  0  0  0  0  0  0  0  0  0  0
   10.6237  -16.9113   26.1586 C   0  0  0  0  0  0  0  0  0  0  0  0
   10.5444  -18.0362   26.9557 O   0  0  0  0  0  0  0  0  0  0  0  0
   10.4542  -15.7961   26.7112 O   0  0  0  0  0  0  0  0  0  0  0  0
  1  2  1  0
  3  2  1  0
  4  3  1  0
  5  4  1  0
  5  6  1  1
  5  1  1  0
  6 10  1  0
  7  6  2  0
  9 11  1  0
  9 10  1  0
  9  8  1  1
 11 17  1  0
 12 11  2  0
 14 13  1  1
 14 15  1  0
 16 14  1  0
 16 17  1  6
 18 16  1  0
 19 18  1  0
 20 18  2  0
M  END
$$$$
