PAV.pdb
     RDKit          3D

 20 20  0  0  1  0  0  0  0  0999 V2000
    8.3874  -15.2022   20.0738 N   0  0  0  0  0  0  0  0  0  0  0  0
    7.7147  -14.7608   18.8814 C   0  0  0  0  0  0  0  0  0  0  0  0
    7.8388  -13.2315   18.8802 C   0  0  0  0  0  0  0  0  0  0  0  0
    7.7169  -12.9616   20.3858 C   0  0  0  0  0  0  0  0  0  0  0  0
    8.5798  -14.0814   20.9324 C   0  0  1  0  0  0  0  0  0  0  0  0
    8.2834  -14.3590   22.3510 C   0  0  0  0  0  0  0  0  0  0  0  0
    8.3646  -13.4965   23.2485 O   0  0  0  0  0  0  0  0  0  0  0  0
    6.9923  -17.4341   24.1606 C   0  0  0  0  0  0  0  0  0  0  0  0
    7.5917  -16.0376   24.0935 C   0  0  2  0  0  0  0  0  0  0  0  0
    7.8861  -15.6658   22.7235 N   0  0  0  0  0  0  0  0  0  0  0  0
    8.7846  -15.9421   24.9616 C   0  0  0  0  0  0  0  0  0  0  0  0
    9.9149  -16.0694   24.4283 O   0  0  0  0  0  0  0  0  0  0  0  0
    9.5099  -13.0154   27.2133 C   0  0  0  0  0  0  0  0  0  0  0  0
    9.7126  -14.2524   28.0559 C   0  0  1  0  0  0  0  0  0  0  0  0
    8.6119  -14.4090   29.0504 C   0  0  0  0  0  0  0  0  0  0  0  0
    9.8901  -15.4799   27.1860 C   0  0  2  0  0  0  0  0  0  0  0  0
    8.7290  -15.7163   26.3545 N   0  0  0  0  0  0  0  0  0  0  0  0
   10.1435  -16.6927   27.9865 C   0  0  0  0  0  0  0  0  0  0  0  0
   11.3681  -16.8552   28.6037 O   0  0  0  0  0  0  0  0  0  0  0  0
    9.2913  -17.6025   28.1408 O   0  0  0  0  0  0  0  0  0  0  0  0
  1  2  1  0
  3  2  1  0
  4  3  1  0
  5  4  1  0
  5  6  1  1
  5  1  1  0
  6 10  1  0
  7  6  2  0
  9 11  1  0
  9 10  1  0
  9  8  1  6
 11 17  1  0
 12 11  2  0
 14 13  1  6
 14 15  1  0
 16 14  1  0
 16 17  1  1
 18 16  1  0
 19 18  1  0
 20 18  2  0
M  END
$$$$
