PAV.pdb
     RDKit          3D

 20 20  0  0  1  0  0  0  0  0999 V2000
    7.4780  -17.7278   18.8537 N   0  0  0  0  0  0  0  0  0  0  0  0
    6.6023  -17.3501   17.7768 C   0  0  0  0  0  0  0  0  0  0  0  0
    7.5149  -16.7737   16.6863 C   0  0  0  0  0  0  0  0  0  0  0  0
    8.5563  -16.0700   17.5666 C   0  0  0  0  0  0  0  0  0  0  0  0
    8.7480  -17.1153   18.6474 C   0  0  1  0  0  0  0  0  0  0  0  0
    9.3370  -16.5371   19.8705 C   0  0  0  0  0  0  0  0  0  0  0  0
   10.5281  -16.1751   19.9512 O   0  0  0  0  0  0  0  0  0  0  0  0
    7.8490  -15.1719   23.0354 C   0  0  0  0  0  0  0  0  0  0  0  0
    8.9970  -15.7847   22.2476 C   0  0  2  0  0  0  0  0  0  0  0  0
    8.5192  -16.3808   21.0154 N   0  0  0  0  0  0  0  0  0  0  0  0
    9.7391  -16.7548   23.0805 C   0  0  0  0  0  0  0  0  0  0  0  0
    9.2707  -17.9148   23.1951 O   0  0  0  0  0  0  0  0  0  0  0  0
   14.0754  -18.1282   25.0549 C   0  0  0  0  0  0  0  0  0  0  0  0
   13.2320  -17.0820   24.3655 C   0  0  1  0  0  0  0  0  0  0  0  0
   13.7027  -16.8498   22.9692 C   0  0  0  0  0  0  0  0  0  0  0  0
   11.7612  -17.4385   24.4323 C   0  0  2  0  0  0  0  0  0  0  0  0
   10.9430  -16.4550   23.7549 N   0  0  0  0  0  0  0  0  0  0  0  0
   11.2850  -17.5613   25.8230 C   0  0  0  0  0  0  0  0  0  0  0  0
   11.4037  -18.7717   26.4769 O   0  0  0  0  0  0  0  0  0  0  0  0
   10.7679  -16.6081   26.4570 O   0  0  0  0  0  0  0  0  0  0  0  0
  1  2  1  0
  3  2  1  0
  4  3  1  0
  5  4  1  0
  5  6  1  1
  5  1  1  0
  6 10  1  0
  7  6  2  0
  9 11  1  0
  9 10  1  0
  9  8  1  1
 11 17  1  0
 12 11  2  0
 14 13  1  6
 14 15  1  0
 16 14  1  0
 16 17  1  1
 18 16  1  0
 19 18  1  0
 20 18  2  0
M  END
$$$$
