PAV.pdb
     RDKit          3D

 20 20  0  0  1  0  0  0  0  0999 V2000
    8.2840  -15.0892   18.7923 N   0  0  0  0  0  0  0  0  0  0  0  0
    7.8234  -14.4306   17.5992 C   0  0  0  0  0  0  0  0  0  0  0  0
    8.1043  -12.9381   17.8178 C   0  0  0  0  0  0  0  0  0  0  0  0
    7.8139  -12.8383   19.3213 C   0  0  0  0  0  0  0  0  0  0  0  0
    8.4768  -14.1107   19.8101 C   0  0  1  0  0  0  0  0  0  0  0  0
    7.9691  -14.5193   21.1339 C   0  0  0  0  0  0  0  0  0  0  0  0
    6.8948  -14.1038   21.6128 O   0  0  0  0  0  0  0  0  0  0  0  0
    8.8104  -17.3299   23.4460 C   0  0  0  0  0  0  0  0  0  0  0  0
    8.2922  -15.9213   23.1985 C   0  0  2  0  0  0  0  0  0  0  0  0
    8.7309  -15.4276   21.9079 N   0  0  0  0  0  0  0  0  0  0  0  0
    8.6909  -15.0201   24.3005 C   0  0  0  0  0  0  0  0  0  0  0  0
    9.8199  -14.4729   24.2371 O   0  0  0  0  0  0  0  0  0  0  0  0
    7.1200  -11.8502   25.4919 C   0  0  0  0  0  0  0  0  0  0  0  0
    7.2109  -12.7556   26.6974 C   0  0  1  0  0  0  0  0  0  0  0  0
    5.8725  -13.3104   27.0524 C   0  0  0  0  0  0  0  0  0  0  0  0
    8.2523  -13.8359   26.4889 C   0  0  2  0  0  0  0  0  0  0  0  0
    7.8780  -14.7378   25.4203 N   0  0  0  0  0  0  0  0  0  0  0  0
    8.4763  -14.6307   27.7112 C   0  0  0  0  0  0  0  0  0  0  0  0
    9.1283  -14.0564   28.7845 O   0  0  0  0  0  0  0  0  0  0  0  0
    8.0999  -15.8230   27.8319 O   0  0  0  0  0  0  0  0  0  0  0  0
  1  2  1  0
  3  2  1  0
  4  3  1  0
  5  4  1  0
  5  6  1  1
  5  1  1  0
  6 10  1  0
  7  6  2  0
  9 11  1  0
  9 10  1  0
  9  8  1  1
 11 17  1  0
 12 11  2  0
 14 13  1  6
 14 15  1  0
 16 14  1  0
 16 17  1  6
 18 16  1  0
 19 18  1  0
 20 18  2  0
M  END
$$$$
