PAV.pdb
     RDKit          3D

 20 20  0  0  1  0  0  0  0  0999 V2000
    8.9014  -15.1566   19.1282 N   0  0  0  0  0  0  0  0  0  0  0  0
    8.5417  -14.9971   17.7446 C   0  0  0  0  0  0  0  0  0  0  0  0
    8.4295  -13.4835   17.5197 C   0  0  0  0  0  0  0  0  0  0  0  0
    7.8403  -13.0646   18.8733 C   0  0  0  0  0  0  0  0  0  0  0  0
    8.6677  -13.9256   19.8068 C   0  0  1  0  0  0  0  0  0  0  0  0
    8.0209  -14.0839   21.1236 C   0  0  0  0  0  0  0  0  0  0  0  0
    7.6715  -13.1203   21.8345 O   0  0  0  0  0  0  0  0  0  0  0  0
    7.0332  -17.1387   23.1555 C   0  0  0  0  0  0  0  0  0  0  0  0
    7.1497  -15.6445   22.8950 C   0  0  2  0  0  0  0  0  0  0  0  0
    7.7802  -15.3897   21.6146 N   0  0  0  0  0  0  0  0  0  0  0  0
    7.8625  -14.9777   24.0054 C   0  0  0  0  0  0  0  0  0  0  0  0
    9.1166  -14.9254   23.9554 O   0  0  0  0  0  0  0  0  0  0  0  0
    6.6494  -11.5214   25.6079 C   0  0  0  0  0  0  0  0  0  0  0  0
    7.0031  -12.5217   26.6828 C   0  0  1  0  0  0  0  0  0  0  0  0
    5.7760  -13.0566   27.3410 C   0  0  0  0  0  0  0  0  0  0  0  0
    7.8941  -13.6173   26.1342 C   0  0  2  0  0  0  0  0  0  0  0  0
    7.2174  -14.3962   25.1190 N   0  0  0  0  0  0  0  0  0  0  0  0
    8.3571  -14.5347   27.1925 C   0  0  0  0  0  0  0  0  0  0  0  0
    7.9043  -15.8392   27.2060 O   0  0  0  0  0  0  0  0  0  0  0  0
    9.1553  -14.1886   28.0986 O   0  0  0  0  0  0  0  0  0  0  0  0
  1  2  1  0
  3  2  1  0
  4  3  1  0
  5  4  1  0
  5  6  1  1
  5  1  1  0
  6 10  1  0
  7  6  2  0
  9 11  1  0
  9 10  1  0
  9  8  1  1
 11 17  1  0
 12 11  2  0
 14 13  1  6
 14 15  1  0
 16 14  1  0
 16 17  1  6
 18 16  1  0
 19 18  1  0
 20 18  2  0
M  END
$$$$
