PAV.pdb
     RDKit          3D

 20 20  0  0  1  0  0  0  0  0999 V2000
   10.7959  -18.3900   20.9275 N   0  0  0  0  0  0  0  0  0  0  0  0
   10.9942  -19.0627   19.6716 C   0  0  0  0  0  0  0  0  0  0  0  0
   11.4860  -17.9828   18.6988 C   0  0  0  0  0  0  0  0  0  0  0  0
   10.6604  -16.7899   19.1988 C   0  0  0  0  0  0  0  0  0  0  0  0
   10.7841  -16.9839   20.6969 C   0  0  1  0  0  0  0  0  0  0  0  0
    9.7235  -16.2679   21.4316 C   0  0  0  0  0  0  0  0  0  0  0  0
    9.5606  -15.0329   21.3669 O   0  0  0  0  0  0  0  0  0  0  0  0
    6.6924  -17.4757   23.3292 C   0  0  0  0  0  0  0  0  0  0  0  0
    7.7020  -16.4127   22.9232 C   0  0  2  0  0  0  0  0  0  0  0  0
    8.8411  -17.0094   22.2537 N   0  0  0  0  0  0  0  0  0  0  0  0
    8.1079  -15.6074   24.0947 C   0  0  0  0  0  0  0  0  0  0  0  0
    9.2432  -15.8160   24.5901 O   0  0  0  0  0  0  0  0  0  0  0  0
    7.0635  -11.9986   27.4079 C   0  0  0  0  0  0  0  0  0  0  0  0
    6.6888  -12.7450   26.1495 C   0  0  1  0  0  0  0  0  0  0  0  0
    6.5672  -11.8135   24.9907 C   0  0  0  0  0  0  0  0  0  0  0  0
    7.6540  -13.8819   25.8837 C   0  0  2  0  0  0  0  0  0  0  0  0
    7.2951  -14.6177   24.6898 N   0  0  0  0  0  0  0  0  0  0  0  0
    7.7162  -14.8293   27.0126 C   0  0  0  0  0  0  0  0  0  0  0  0
    8.7560  -14.7403   27.9170 O   0  0  0  0  0  0  0  0  0  0  0  0
    6.8600  -15.7291   27.2002 O   0  0  0  0  0  0  0  0  0  0  0  0
  1  2  1  0
  3  2  1  0
  4  3  1  0
  5  4  1  0
  5  6  1  1
  5  1  1  0
  6 10  1  0
  7  6  2  0
  9 11  1  0
  9 10  1  0
  9  8  1  1
 11 17  1  0
 12 11  2  0
 14 13  1  1
 14 15  1  0
 16 14  1  0
 16 17  1  6
 18 16  1  0
 19 18  1  0
 20 18  2  0
M  END
$$$$
