PAV.pdb
     RDKit          3D

 20 20  0  0  1  0  0  0  0  0999 V2000
    8.6734  -15.0841   18.9951 N   0  0  0  0  0  0  0  0  0  0  0  0
    8.1659  -14.8885   17.6633 C   0  0  0  0  0  0  0  0  0  0  0  0
    7.9069  -13.3814   17.5381 C   0  0  0  0  0  0  0  0  0  0  0  0
    7.4227  -13.0836   18.9635 C   0  0  0  0  0  0  0  0  0  0  0  0
    8.4072  -13.9136   19.7629 C   0  0  1  0  0  0  0  0  0  0  0  0
    7.9100  -14.1933   21.1237 C   0  0  0  0  0  0  0  0  0  0  0  0
    7.5512  -13.3008   21.9180 O   0  0  0  0  0  0  0  0  0  0  0  0
    7.3197  -17.4252   23.0321 C   0  0  0  0  0  0  0  0  0  0  0  0
    7.2518  -15.9186   22.8332 C   0  0  2  0  0  0  0  0  0  0  0  0
    7.8319  -15.5378   21.5603 N   0  0  0  0  0  0  0  0  0  0  0  0
    7.8917  -15.2158   23.9656 C   0  0  0  0  0  0  0  0  0  0  0  0
    9.1413  -15.0882   23.9514 O   0  0  0  0  0  0  0  0  0  0  0  0
    7.4311  -12.2273   27.9300 C   0  0  0  0  0  0  0  0  0  0  0  0
    6.7927  -12.9875   26.7917 C   0  0  1  0  0  0  0  0  0  0  0  0
    6.1434  -12.0566   25.8238 C   0  0  0  0  0  0  0  0  0  0  0  0
    7.7916  -13.9134   26.1283 C   0  0  2  0  0  0  0  0  0  0  0  0
    7.1817  -14.6795   25.0622 N   0  0  0  0  0  0  0  0  0  0  0  0
    8.3961  -14.8544   27.0901 C   0  0  0  0  0  0  0  0  0  0  0  0
    9.5270  -14.4789   27.7879 O   0  0  0  0  0  0  0  0  0  0  0  0
    7.9305  -15.9995   27.3135 O   0  0  0  0  0  0  0  0  0  0  0  0
  1  2  1  0
  3  2  1  0
  4  3  1  0
  5  4  1  0
  5  6  1  1
  5  1  1  0
  6 10  1  0
  7  6  2  0
  9 11  1  0
  9 10  1  0
  9  8  1  1
 11 17  1  0
 12 11  2  0
 14 13  1  1
 14 15  1  0
 16 14  1  0
 16 17  1  6
 18 16  1  0
 19 18  1  0
 20 18  2  0
M  END
$$$$
