PAV.pdb
     RDKit          3D

 20 20  0  0  1  0  0  0  0  0999 V2000
    8.2019  -15.1829   18.8408 N   0  0  0  0  0  0  0  0  0  0  0  0
    7.8703  -14.5547   17.5900 C   0  0  0  0  0  0  0  0  0  0  0  0
    8.2595  -13.0795   17.7537 C   0  0  0  0  0  0  0  0  0  0  0  0
    7.8877  -12.8768   19.2287 C   0  0  0  0  0  0  0  0  0  0  0  0
    8.4126  -14.1698   19.8204 C   0  0  1  0  0  0  0  0  0  0  0  0
    7.7937  -14.4654   21.1269 C   0  0  0  0  0  0  0  0  0  0  0  0
    6.7708  -13.8873   21.5458 O   0  0  0  0  0  0  0  0  0  0  0  0
    8.0902  -17.2866   23.5486 C   0  0  0  0  0  0  0  0  0  0  0  0
    7.8413  -15.8160   23.2496 C   0  0  2  0  0  0  0  0  0  0  0  0
    8.3814  -15.4524   21.9543 N   0  0  0  0  0  0  0  0  0  0  0  0
    8.3813  -14.9670   24.3327 C   0  0  0  0  0  0  0  0  0  0  0  0
    9.6105  -14.7081   24.3231 O   0  0  0  0  0  0  0  0  0  0  0  0
    7.0985  -11.5058   25.6273 C   0  0  0  0  0  0  0  0  0  0  0  0
    7.2053  -12.4653   26.7888 C   0  0  1  0  0  0  0  0  0  0  0  0
    5.8559  -12.9171   27.2359 C   0  0  0  0  0  0  0  0  0  0  0  0
    8.1257  -13.6217   26.4560 C   0  0  2  0  0  0  0  0  0  0  0  0
    7.5975  -14.4299   25.3774 N   0  0  0  0  0  0  0  0  0  0  0  0
    8.3583  -14.4958   27.6212 C   0  0  0  0  0  0  0  0  0  0  0  0
    9.1733  -14.0580   28.6464 O   0  0  0  0  0  0  0  0  0  0  0  0
    7.8466  -15.6374   27.7345 O   0  0  0  0  0  0  0  0  0  0  0  0
  1  2  1  0
  3  2  1  0
  4  3  1  0
  5  4  1  0
  5  6  1  1
  5  1  1  0
  6 10  1  0
  7  6  2  0
  9 11  1  0
  9 10  1  0
  9  8  1  1
 11 17  1  0
 12 11  2  0
 14 13  1  6
 14 15  1  0
 16 14  1  0
 16 17  1  6
 18 16  1  0
 19 18  1  0
 20 18  2  0
M  END
$$$$
