YGQ.pdb
     RDKit          3D

 26 26  0  0  1  0  0  0  0  0999 V2000
    7.3005  -12.6424   17.2901 O   0  0  0  0  0  0  0  0  0  0  0  0
    7.6579  -13.0818   18.5605 C   0  0  0  0  0  0  0  0  0  0  0  0
    6.7314  -13.2037   19.5745 C   0  0  0  0  0  0  0  0  0  0  0  0
    7.1102  -13.6416   20.8261 C   0  0  0  0  0  0  0  0  0  0  0  0
    8.4354  -13.9791   21.1240 C   0  0  0  0  0  0  0  0  0  0  0  0
    8.7642  -14.4338   22.4649 C   0  0  0  0  0  0  0  0  0  0  0  0
    9.5671  -15.6812   22.5963 C   0  0  2  0  0  0  0  0  0  0  0  0
    8.7896  -16.6945   21.8492 N   0  0  0  0  0  0  0  0  0  0  0  0
    9.7044  -16.0499   24.0029 C   0  0  0  0  0  0  0  0  0  0  0  0
   10.4067  -15.2825   24.7454 O   0  0  0  0  0  0  0  0  0  0  0  0
    9.3436  -13.8498   20.0964 C   0  0  0  0  0  0  0  0  0  0  0  0
    8.9657  -13.4128   18.8474 C   0  0  0  0  0  0  0  0  0  0  0  0
    9.1254  -17.1826   24.6157 N   0  0  0  0  0  0  0  0  0  0  0  0
    9.7595  -18.4516   24.7202 C   0  0  0  0  0  0  0  0  0  0  0  0
   10.7382  -18.4690   25.8002 C   0  0  0  0  0  0  0  0  0  0  0  0
   11.6292  -17.5568   25.8595 O   0  0  0  0  0  0  0  0  0  0  0  0
   12.9826  -20.5985   32.1240 N   0  0  0  0  0  0  0  0  0  0  0  0
   12.1829  -21.0063   31.0229 C   0  0  0  0  0  0  0  0  0  0  0  0
   11.0230  -21.4065   31.2311 O   0  0  0  0  0  0  0  0  0  0  0  0
   12.7418  -20.9497   29.6378 C   0  0  0  0  0  0  0  0  0  0  0  0
   11.6276  -20.5911   28.7060 C   0  0  0  0  0  0  0  0  0  0  0  0
   11.9810  -19.5861   27.6534 C   0  0  2  0  0  0  0  0  0  0  0  0
   10.7769  -19.4450   26.8073 N   0  0  0  0  0  0  0  0  0  0  0  0
   13.0742  -20.1067   26.8112 C   0  0  0  0  0  0  0  0  0  0  0  0
   14.3204  -19.5117   26.8730 O   0  0  0  0  0  0  0  0  0  0  0  0
   12.9125  -21.0764   26.0356 O   0  0  0  0  0  0  0  0  0  0  0  0
  2  1  1  0
  3  2  2  0
  4  3  1  0
  5  4  2  0
  5 11  1  0
  6  5  1  0
  7  6  1  0
  7  8  1  6
  9  7  1  0
  9 10  2  0
 11 12  2  0
 12  2  1  0
 13  9  1  0
 14 13  1  0
 15 14  1  0
 16 15  2  0
 17 18  1  0
 18 19  2  0
 18 20  1  0
 20 21  1  0
 22 21  1  1
 22 23  1  0
 22 24  1  0
 23 15  1  0
 24 25  1  0
 26 24  2  0
M  END
$$$$
