YGQ.pdb
     RDKit          3D

 26 26  0  0  1  0  0  0  0  0999 V2000
    4.6125  -11.5431   26.9028 O   0  0  0  0  0  0  0  0  0  0  0  0
    5.6638  -12.2306   26.3055 C   0  0  0  0  0  0  0  0  0  0  0  0
    6.5221  -11.6170   25.4178 C   0  0  0  0  0  0  0  0  0  0  0  0
    7.5574  -12.3200   24.8384 C   0  0  0  0  0  0  0  0  0  0  0  0
    7.7842  -13.6722   25.1194 C   0  0  0  0  0  0  0  0  0  0  0  0
    8.8946  -14.3515   24.4725 C   0  0  0  0  0  0  0  0  0  0  0  0
    8.6114  -15.1028   23.2182 C   0  0  2  0  0  0  0  0  0  0  0  0
    7.6135  -16.1188   23.6202 N   0  0  0  0  0  0  0  0  0  0  0  0
    9.8317  -15.7287   22.7156 C   0  0  0  0  0  0  0  0  0  0  0  0
   10.6900  -14.9703   22.1485 O   0  0  0  0  0  0  0  0  0  0  0  0
    6.9148  -14.2646   26.0086 C   0  0  0  0  0  0  0  0  0  0  0  0
    5.8817  -13.5632   26.5868 C   0  0  0  0  0  0  0  0  0  0  0  0
   10.1471  -17.1021   22.8040 N   0  0  0  0  0  0  0  0  0  0  0  0
   11.4618  -17.6334   22.6910 C   0  0  0  0  0  0  0  0  0  0  0  0
   12.0613  -17.8507   24.0016 C   0  0  0  0  0  0  0  0  0  0  0  0
   13.2603  -18.2811   24.0840 O   0  0  0  0  0  0  0  0  0  0  0  0
   11.6299  -13.7270   28.7115 N   0  0  0  0  0  0  0  0  0  0  0  0
   10.8586  -14.7678   28.1282 C   0  0  0  0  0  0  0  0  0  0  0  0
    9.7066  -14.9780   28.5496 O   0  0  0  0  0  0  0  0  0  0  0  0
   11.4374  -15.5912   27.0232 C   0  0  0  0  0  0  0  0  0  0  0  0
   11.5378  -17.0038   27.5056 C   0  0  0  0  0  0  0  0  0  0  0  0
   12.0446  -17.9842   26.4934 C   0  0  2  0  0  0  0  0  0  0  0  0
   11.3973  -17.6186   25.2156 N   0  0  0  0  0  0  0  0  0  0  0  0
   11.6091  -19.3464   26.8541 C   0  0  0  0  0  0  0  0  0  0  0  0
   10.6414  -19.9736   26.0916 O   0  0  0  0  0  0  0  0  0  0  0  0
   12.0884  -19.9605   27.8345 O   0  0  0  0  0  0  0  0  0  0  0  0
  2  1  1  0
  3  2  2  0
  4  3  1  0
  5  4  2  0
  5 11  1  0
  6  5  1  0
  7  6  1  0
  7  8  1  1
  9  7  1  0
  9 10  2  0
 11 12  2  0
 12  2  1  0
 13  9  1  0
 14 13  1  0
 15 14  1  0
 16 15  2  0
 17 18  1  0
 18 19  2  0
 18 20  1  0
 20 21  1  0
 22 21  1  1
 22 23  1  0
 22 24  1  0
 23 15  1  0
 24 25  1  0
 26 24  2  0
M  END
$$$$
