YGQ.pdb
     RDKit          3D

 26 26  0  0  1  0  0  0  0  0999 V2000
    7.6126  -12.6395   16.4177 O   0  0  0  0  0  0  0  0  0  0  0  0
    7.5778  -13.1372   17.7161 C   0  0  0  0  0  0  0  0  0  0  0  0
    6.4175  -13.1433   18.4610 C   0  0  0  0  0  0  0  0  0  0  0  0
    6.4082  -13.6423   19.7466 C   0  0  0  0  0  0  0  0  0  0  0  0
    7.5603  -14.1598   20.3495 C   0  0  0  0  0  0  0  0  0  0  0  0
    7.4784  -14.6695   21.7083 C   0  0  0  0  0  0  0  0  0  0  0  0
    8.4797  -15.6892   22.1275 C   0  0  2  0  0  0  0  0  0  0  0  0
    8.3317  -16.7746   21.1328 N   0  0  0  0  0  0  0  0  0  0  0  0
    8.1853  -16.1638   23.4772 C   0  0  0  0  0  0  0  0  0  0  0  0
    8.1921  -15.2991   24.4183 O   0  0  0  0  0  0  0  0  0  0  0  0
    8.7075  -14.1437   19.5871 C   0  0  0  0  0  0  0  0  0  0  0  0
    8.7169  -13.6458   18.3042 C   0  0  0  0  0  0  0  0  0  0  0  0
    7.8914  -17.4982   23.8330 N   0  0  0  0  0  0  0  0  0  0  0  0
    7.6892  -17.9478   25.1673 C   0  0  0  0  0  0  0  0  0  0  0  0
    8.9276  -17.9075   25.9349 C   0  0  0  0  0  0  0  0  0  0  0  0
   10.0471  -18.0314   25.3341 O   0  0  0  0  0  0  0  0  0  0  0  0
    8.7152  -13.1509   28.0225 N   0  0  0  0  0  0  0  0  0  0  0  0
    9.6711  -13.9832   28.6641 C   0  0  0  0  0  0  0  0  0  0  0  0
    9.9627  -13.7659   29.8544 O   0  0  0  0  0  0  0  0  0  0  0  0
   10.3099  -15.1017   27.9058 C   0  0  0  0  0  0  0  0  0  0  0  0
   10.2479  -16.3300   28.7579 C   0  0  0  0  0  0  0  0  0  0  0  0
   10.2897  -17.6247   28.0065 C   0  0  2  0  0  0  0  0  0  0  0  0
    8.9820  -17.7413   27.3270 N   0  0  0  0  0  0  0  0  0  0  0  0
   10.4159  -18.7489   28.9529 C   0  0  0  0  0  0  0  0  0  0  0  0
   11.6126  -18.9464   29.6162 O   0  0  0  0  0  0  0  0  0  0  0  0
    9.4699  -19.5376   29.1790 O   0  0  0  0  0  0  0  0  0  0  0  0
  2  1  1  0
  3  2  2  0
  4  3  1  0
  5  4  2  0
  5 11  1  0
  6  5  1  0
  7  6  1  0
  7  8  1  6
  9  7  1  0
  9 10  2  0
 11 12  2  0
 12  2  1  0
 13  9  1  0
 14 13  1  0
 15 14  1  0
 16 15  2  0
 17 18  1  0
 18 19  2  0
 18 20  1  0
 20 21  1  0
 22 21  1  1
 22 23  1  0
 22 24  1  0
 23 15  1  0
 24 25  1  0
 26 24  2  0
M  END
$$$$
