YGQ.pdb
     RDKit          3D

 26 26  0  0  1  0  0  0  0  0999 V2000
    4.9806  -11.6462   27.3560 O   0  0  0  0  0  0  0  0  0  0  0  0
    5.8836  -12.1886   26.4476 C   0  0  0  0  0  0  0  0  0  0  0  0
    5.6536  -12.1583   25.0884 C   0  0  0  0  0  0  0  0  0  0  0  0
    6.5642  -12.7028   24.2075 C   0  0  0  0  0  0  0  0  0  0  0  0
    7.7499  -13.3045   24.6442 C   0  0  0  0  0  0  0  0  0  0  0  0
    8.6651  -13.8585   23.6601 C   0  0  0  0  0  0  0  0  0  0  0  0
    8.2712  -15.1253   22.9834 C   0  0  2  0  0  0  0  0  0  0  0  0
    7.0486  -15.5544   23.6980 N   0  0  0  0  0  0  0  0  0  0  0  0
    9.3345  -16.1189   23.1089 C   0  0  0  0  0  0  0  0  0  0  0  0
   10.4259  -15.8932   22.4834 O   0  0  0  0  0  0  0  0  0  0  0  0
    7.9588  -13.3235   26.0056 C   0  0  0  0  0  0  0  0  0  0  0  0
    7.0502  -12.7801   26.8848 C   0  0  0  0  0  0  0  0  0  0  0  0
    9.2615  -17.3093   23.8647 N   0  0  0  0  0  0  0  0  0  0  0  0
   10.3143  -18.2602   23.9693 C   0  0  0  0  0  0  0  0  0  0  0  0
   11.1680  -17.9833   25.1178 C   0  0  0  0  0  0  0  0  0  0  0  0
   12.4226  -17.8207   24.9473 O   0  0  0  0  0  0  0  0  0  0  0  0
   12.1621  -14.2183   27.8740 N   0  0  0  0  0  0  0  0  0  0  0  0
   10.9728  -14.6930   27.2587 C   0  0  0  0  0  0  0  0  0  0  0  0
   10.5781  -14.1564   26.2074 O   0  0  0  0  0  0  0  0  0  0  0  0
   10.2163  -15.8235   27.8782 C   0  0  0  0  0  0  0  0  0  0  0  0
   11.2097  -16.7711   28.4727 C   0  0  0  0  0  0  0  0  0  0  0  0
   11.6581  -17.8722   27.5621 C   0  0  2  0  0  0  0  0  0  0  0  0
   10.6997  -17.8828   26.4365 N   0  0  0  0  0  0  0  0  0  0  0  0
   11.5610  -19.1687   28.2585 C   0  0  0  0  0  0  0  0  0  0  0  0
   12.4047  -19.4328   29.3212 O   0  0  0  0  0  0  0  0  0  0  0  0
   10.7347  -20.0462   27.9188 O   0  0  0  0  0  0  0  0  0  0  0  0
  2  1  1  0
  3  2  2  0
  4  3  1  0
  5  4  2  0
  5 11  1  0
  6  5  1  0
  7  6  1  0
  7  8  1  1
  9  7  1  0
  9 10  2  0
 11 12  2  0
 12  2  1  0
 13  9  1  0
 14 13  1  0
 15 14  1  0
 16 15  2  0
 17 18  1  0
 18 19  2  0
 18 20  1  0
 20 21  1  0
 22 21  1  1
 22 23  1  0
 22 24  1  0
 23 15  1  0
 24 25  1  0
 26 24  2  0
M  END
$$$$
