YGQ.pdb
     RDKit          3D

 26 26  0  0  1  0  0  0  0  0999 V2000
    4.9761  -11.6662   27.0816 O   0  0  0  0  0  0  0  0  0  0  0  0
    5.9864  -12.2765   26.3457 C   0  0  0  0  0  0  0  0  0  0  0  0
    7.2965  -12.2824   26.7757 C   0  0  0  0  0  0  0  0  0  0  0  0
    8.2806  -12.8943   26.0282 C   0  0  0  0  0  0  0  0  0  0  0  0
    8.0014  -13.5304   24.8133 C   0  0  0  0  0  0  0  0  0  0  0  0
    9.0878  -14.1554   24.0771 C   0  0  0  0  0  0  0  0  0  0  0  0
    8.7379  -14.9507   22.8676 C   0  0  2  0  0  0  0  0  0  0  0  0
    7.5708  -15.7574   23.2879 N   0  0  0  0  0  0  0  0  0  0  0  0
    9.8589  -15.8030   22.4795 C   0  0  0  0  0  0  0  0  0  0  0  0
   10.9567  -15.2254   22.1719 O   0  0  0  0  0  0  0  0  0  0  0  0
    6.6865  -13.5122   24.4033 C   0  0  0  0  0  0  0  0  0  0  0  0
    5.7043  -12.9017   25.1491 C   0  0  0  0  0  0  0  0  0  0  0  0
    9.8353  -17.2133   22.4163 N   0  0  0  0  0  0  0  0  0  0  0  0
   10.9263  -18.0163   21.9822 C   0  0  0  0  0  0  0  0  0  0  0  0
   11.6832  -18.5399   23.1124 C   0  0  0  0  0  0  0  0  0  0  0  0
   12.8371  -19.0499   22.9176 O   0  0  0  0  0  0  0  0  0  0  0  0
   10.5801  -19.2299   30.0037 N   0  0  0  0  0  0  0  0  0  0  0  0
   11.3569  -18.3406   29.2137 C   0  0  0  0  0  0  0  0  0  0  0  0
   11.3630  -17.1281   29.4941 O   0  0  0  0  0  0  0  0  0  0  0  0
   12.1514  -18.8699   28.0636 C   0  0  0  0  0  0  0  0  0  0  0  0
   11.4536  -18.4737   26.8009 C   0  0  0  0  0  0  0  0  0  0  0  0
   12.1303  -18.9123   25.5390 C   0  0  2  0  0  0  0  0  0  0  0  0
   11.2223  -18.5279   24.4375 N   0  0  0  0  0  0  0  0  0  0  0  0
   12.2668  -20.3809   25.5286 C   0  0  0  0  0  0  0  0  0  0  0  0
   11.1903  -21.1597   25.1471 O   0  0  0  0  0  0  0  0  0  0  0  0
   13.3320  -20.9523   25.8557 O   0  0  0  0  0  0  0  0  0  0  0  0
  2  1  1  0
  3  2  2  0
  4  3  1  0
  5  4  2  0
  5 11  1  0
  6  5  1  0
  7  6  1  0
  7  8  1  1
  9  7  1  0
  9 10  2  0
 11 12  2  0
 12  2  1  0
 13  9  1  0
 14 13  1  0
 15 14  1  0
 16 15  2  0
 17 18  1  0
 18 19  2  0
 18 20  1  0
 20 21  1  0
 22 21  1  1
 22 23  1  0
 22 24  1  0
 23 15  1  0
 24 25  1  0
 26 24  2  0
M  END
$$$$
