YGQ.pdb
     RDKit          3D

 26 26  0  0  1  0  0  0  0  0999 V2000
    6.3428  -10.0468   25.8197 O   0  0  0  0  0  0  0  0  0  0  0  0
    6.6075  -11.4080   25.7120 C   0  0  0  0  0  0  0  0  0  0  0  0
    7.7748  -11.8790   25.1490 C   0  0  0  0  0  0  0  0  0  0  0  0
    8.0144  -13.2336   25.0534 C   0  0  0  0  0  0  0  0  0  0  0  0
    7.0970  -14.1835   25.5170 C   0  0  0  0  0  0  0  0  0  0  0  0
    7.4146  -15.5958   25.3843 C   0  0  0  0  0  0  0  0  0  0  0  0
    7.3143  -16.2042   24.0287 C   0  0  2  0  0  0  0  0  0  0  0  0
    6.0751  -17.0111   24.0830 N   0  0  0  0  0  0  0  0  0  0  0  0
    8.4806  -17.0420   23.7615 C   0  0  0  0  0  0  0  0  0  0  0  0
    8.7540  -17.2953   22.5390 O   0  0  0  0  0  0  0  0  0  0  0  0
    5.9383  -13.6906   26.0755 C   0  0  0  0  0  0  0  0  0  0  0  0
    5.6990  -12.3388   26.1709 C   0  0  0  0  0  0  0  0  0  0  0  0
    9.3355  -17.5961   24.7391 N   0  0  0  0  0  0  0  0  0  0  0  0
   10.7528  -17.6491   24.6299 C   0  0  0  0  0  0  0  0  0  0  0  0
   11.3481  -18.3345   25.7702 C   0  0  0  0  0  0  0  0  0  0  0  0
   10.7225  -18.3703   26.8823 O   0  0  0  0  0  0  0  0  0  0  0  0
   10.5560  -20.5502   30.7849 N   0  0  0  0  0  0  0  0  0  0  0  0
   11.0005  -21.2473   29.6295 C   0  0  0  0  0  0  0  0  0  0  0  0
   10.3072  -22.1769   29.1779 O   0  0  0  0  0  0  0  0  0  0  0  0
   12.2869  -20.8572   28.9759 C   0  0  0  0  0  0  0  0  0  0  0  0
   11.9583  -20.1258   27.7128 C   0  0  0  0  0  0  0  0  0  0  0  0
   13.1408  -19.5977   26.9609 C   0  0  2  0  0  0  0  0  0  0  0  0
   12.5966  -18.9737   25.7361 N   0  0  0  0  0  0  0  0  0  0  0  0
   14.0160  -20.7138   26.5562 C   0  0  0  0  0  0  0  0  0  0  0  0
   13.5482  -21.6496   25.6526 O   0  0  0  0  0  0  0  0  0  0  0  0
   15.1775  -20.8452   27.0055 O   0  0  0  0  0  0  0  0  0  0  0  0
  2  1  1  0
  3  2  2  0
  4  3  1  0
  5  4  2  0
  5 11  1  0
  6  5  1  0
  7  6  1  0
  7  8  1  1
  9  7  1  0
  9 10  2  0
 11 12  2  0
 12  2  1  0
 13  9  1  0
 14 13  1  0
 15 14  1  0
 16 15  2  0
 17 18  1  0
 18 19  2  0
 18 20  1  0
 20 21  1  0
 22 21  1  1
 22 23  1  0
 22 24  1  0
 23 15  1  0
 24 25  1  0
 26 24  2  0
M  END
$$$$
