YGQ.pdb
     RDKit          3D

 26 26  0  0  1  0  0  0  0  0999 V2000
    5.6498  -11.3782   27.6257 O   0  0  0  0  0  0  0  0  0  0  0  0
    6.1303  -12.1381   26.5644 C   0  0  0  0  0  0  0  0  0  0  0  0
    7.0199  -11.6225   25.6456 C   0  0  0  0  0  0  0  0  0  0  0  0
    7.4821  -12.3959   24.6017 C   0  0  0  0  0  0  0  0  0  0  0  0
    7.0763  -13.7238   24.4262 C   0  0  0  0  0  0  0  0  0  0  0  0
    7.6037  -14.4811   23.3032 C   0  0  0  0  0  0  0  0  0  0  0  0
    8.3086  -15.7592   23.5991 C   0  0  2  0  0  0  0  0  0  0  0  0
    9.4533  -15.3556   24.4454 N   0  0  0  0  0  0  0  0  0  0  0  0
    8.7611  -16.3871   22.3603 C   0  0  0  0  0  0  0  0  0  0  0  0
    7.8999  -16.5330   21.4273 O   0  0  0  0  0  0  0  0  0  0  0  0
    6.1876  -14.2179   25.3555 C   0  0  0  0  0  0  0  0  0  0  0  0
    5.7263  -13.4462   26.3973 C   0  0  0  0  0  0  0  0  0  0  0  0
   10.0711  -16.8465   22.1029 N   0  0  0  0  0  0  0  0  0  0  0  0
   11.2301  -16.0220   22.1233 C   0  0  0  0  0  0  0  0  0  0  0  0
   12.1120  -16.3725   23.2296 C   0  0  0  0  0  0  0  0  0  0  0  0
   13.3177  -16.7169   22.9911 O   0  0  0  0  0  0  0  0  0  0  0  0
   11.1252  -13.9138   28.2382 N   0  0  0  0  0  0  0  0  0  0  0  0
   10.3901  -15.1278   28.1729 C   0  0  0  0  0  0  0  0  0  0  0  0
    9.3097  -15.2162   28.7843 O   0  0  0  0  0  0  0  0  0  0  0  0
   10.9210  -16.2754   27.3759 C   0  0  0  0  0  0  0  0  0  0  0  0
   12.2614  -15.8827   26.8398 C   0  0  0  0  0  0  0  0  0  0  0  0
   12.7117  -16.6509   25.6358 C   0  0  2  0  0  0  0  0  0  0  0  0
   11.7211  -16.3625   24.5770 N   0  0  0  0  0  0  0  0  0  0  0  0
   12.6698  -18.0975   25.9204 C   0  0  0  0  0  0  0  0  0  0  0  0
   11.7206  -18.8847   25.2956 O   0  0  0  0  0  0  0  0  0  0  0  0
   13.4699  -18.6428   26.7146 O   0  0  0  0  0  0  0  0  0  0  0  0
  2  1  1  0
  3  2  2  0
  4  3  1  0
  5  4  2  0
  5 11  1  0
  6  5  1  0
  7  6  1  0
  7  8  1  1
  9  7  1  0
  9 10  2  0
 11 12  2  0
 12  2  1  0
 13  9  1  0
 14 13  1  0
 15 14  1  0
 16 15  2  0
 17 18  1  0
 18 19  2  0
 18 20  1  0
 20 21  1  0
 22 21  1  1
 22 23  1  0
 22 24  1  0
 23 15  1  0
 24 25  1  0
 26 24  2  0
M  END
$$$$
