YGQ.pdb
     RDKit          3D

 26 26  0  0  1  0  0  0  0  0999 V2000
   11.2617  -15.1513   30.7160 O   0  0  0  0  0  0  0  0  0  0  0  0
   10.4117  -15.1614   29.6150 C   0  0  0  0  0  0  0  0  0  0  0  0
   10.2472  -14.0512   28.8139 C   0  0  0  0  0  0  0  0  0  0  0  0
    9.3985  -14.0858   27.7275 C   0  0  0  0  0  0  0  0  0  0  0  0
    8.6728  -15.2339   27.3897 C   0  0  0  0  0  0  0  0  0  0  0  0
    7.7962  -15.1999   26.2307 C   0  0  0  0  0  0  0  0  0  0  0  0
    7.6277  -16.4582   25.4522 C   0  0  2  0  0  0  0  0  0  0  0  0
    8.9783  -16.7382   24.9166 N   0  0  0  0  0  0  0  0  0  0  0  0
    6.6608  -16.2623   24.3749 C   0  0  0  0  0  0  0  0  0  0  0  0
    5.7827  -15.3472   24.5333 O   0  0  0  0  0  0  0  0  0  0  0  0
    8.8526  -16.3306   28.2035 C   0  0  0  0  0  0  0  0  0  0  0  0
    9.6995  -16.2962   29.2877 C   0  0  0  0  0  0  0  0  0  0  0  0
    6.6132  -16.9967   23.1700 N   0  0  0  0  0  0  0  0  0  0  0  0
    6.7193  -16.4210   21.8736 C   0  0  0  0  0  0  0  0  0  0  0  0
    8.1054  -16.1195   21.5381 C   0  0  0  0  0  0  0  0  0  0  0  0
    8.7384  -15.2346   22.2057 O   0  0  0  0  0  0  0  0  0  0  0  0
    8.0291  -12.5568   18.2817 N   0  0  0  0  0  0  0  0  0  0  0  0
    7.7681  -13.7346   17.5312 C   0  0  0  0  0  0  0  0  0  0  0  0
    7.0704  -13.6567   16.5036 O   0  0  0  0  0  0  0  0  0  0  0  0
    8.3316  -15.0432   17.9830 C   0  0  0  0  0  0  0  0  0  0  0  0
    9.1640  -14.7903   19.2002 C   0  0  0  0  0  0  0  0  0  0  0  0
    9.8513  -15.9977   19.7594 C   0  0  2  0  0  0  0  0  0  0  0  0
    8.8153  -16.7459   20.5027 N   0  0  0  0  0  0  0  0  0  0  0  0
   10.8924  -15.5821   20.7179 C   0  0  0  0  0  0  0  0  0  0  0  0
   12.1495  -15.2466   20.2510 O   0  0  0  0  0  0  0  0  0  0  0  0
   10.6765  -15.5218   21.9499 O   0  0  0  0  0  0  0  0  0  0  0  0
  2  1  1  0
  3  2  2  0
  4  3  1  0
  5  4  2  0
  5 11  1  0
  6  5  1  0
  7  6  1  0
  7  8  1  6
  9  7  1  0
  9 10  2  0
 11 12  2  0
 12  2  1  0
 13  9  1  0
 14 13  1  0
 15 14  1  0
 16 15  2  0
 17 18  1  0
 18 19  2  0
 18 20  1  0
 20 21  1  0
 22 21  1  1
 22 23  1  0
 22 24  1  0
 23 15  1  0
 24 25  1  0
 26 24  2  0
M  END
$$$$
