YGQ.pdb
     RDKit          3D

 26 26  0  0  1  0  0  0  0  0999 V2000
    6.0424  -11.3888   28.3023 O   0  0  0  0  0  0  0  0  0  0  0  0
    6.4819  -12.0484   27.1593 C   0  0  0  0  0  0  0  0  0  0  0  0
    7.7905  -12.4584   27.0148 C   0  0  0  0  0  0  0  0  0  0  0  0
    8.2023  -13.1108   25.8718 C   0  0  0  0  0  0  0  0  0  0  0  0
    7.3241  -13.3847   24.8171 C   0  0  0  0  0  0  0  0  0  0  0  0
    7.8262  -14.0762   23.6413 C   0  0  0  0  0  0  0  0  0  0  0  0
    7.6636  -15.5556   23.5852 C   0  0  2  0  0  0  0  0  0  0  0  0
    8.2793  -16.0370   24.8416 N   0  0  0  0  0  0  0  0  0  0  0  0
    8.3521  -16.0973   22.4164 C   0  0  0  0  0  0  0  0  0  0  0  0
    7.9566  -15.7029   21.2668 O   0  0  0  0  0  0  0  0  0  0  0  0
    6.0222  -12.9662   24.9829 C   0  0  0  0  0  0  0  0  0  0  0  0
    5.6112  -12.3152   26.1235 C   0  0  0  0  0  0  0  0  0  0  0  0
    9.4205  -17.0198   22.4465 N   0  0  0  0  0  0  0  0  0  0  0  0
   10.7522  -16.7200   22.0461 C   0  0  0  0  0  0  0  0  0  0  0  0
   11.6815  -16.8364   23.1630 C   0  0  0  0  0  0  0  0  0  0  0  0
   12.9287  -16.6459   22.9690 O   0  0  0  0  0  0  0  0  0  0  0  0
   10.4691  -13.7191   28.4708 N   0  0  0  0  0  0  0  0  0  0  0  0
   10.7353  -15.0707   28.1233 C   0  0  0  0  0  0  0  0  0  0  0  0
   10.4543  -15.9720   28.9342 O   0  0  0  0  0  0  0  0  0  0  0  0
   11.3456  -15.3900   26.7968 C   0  0  0  0  0  0  0  0  0  0  0  0
   11.7042  -16.8425   26.7926 C   0  0  0  0  0  0  0  0  0  0  0  0
   12.3221  -17.3386   25.5219 C   0  0  2  0  0  0  0  0  0  0  0  0
   11.2958  -17.1554   24.4737 N   0  0  0  0  0  0  0  0  0  0  0  0
   12.6091  -18.7809   25.6346 C   0  0  0  0  0  0  0  0  0  0  0  0
   11.8091  -19.6865   24.9632 O   0  0  0  0  0  0  0  0  0  0  0  0
   13.5597  -19.2184   26.3225 O   0  0  0  0  0  0  0  0  0  0  0  0
  2  1  1  0
  3  2  2  0
  4  3  1  0
  5  4  2  0
  5 11  1  0
  6  5  1  0
  7  6  1  0
  7  8  1  1
  9  7  1  0
  9 10  2  0
 11 12  2  0
 12  2  1  0
 13  9  1  0
 14 13  1  0
 15 14  1  0
 16 15  2  0
 17 18  1  0
 18 19  2  0
 18 20  1  0
 20 21  1  0
 22 21  1  1
 22 23  1  0
 22 24  1  0
 23 15  1  0
 24 25  1  0
 26 24  2  0
M  END
$$$$
