YGQ.pdb
     RDKit          3D

 26 26  0  0  1  0  0  0  0  0999 V2000
    5.0218  -11.7826   27.4565 O   0  0  0  0  0  0  0  0  0  0  0  0
    5.9367  -12.4073   26.6154 C   0  0  0  0  0  0  0  0  0  0  0  0
    6.8418  -11.6879   25.8640 C   0  0  0  0  0  0  0  0  0  0  0  0
    7.7393  -12.3302   25.0372 C   0  0  0  0  0  0  0  0  0  0  0  0
    7.7746  -13.7245   24.9219 C   0  0  0  0  0  0  0  0  0  0  0  0
    8.7473  -14.3353   24.0310 C   0  0  0  0  0  0  0  0  0  0  0  0
    8.2344  -15.0379   22.8222 C   0  0  2  0  0  0  0  0  0  0  0  0
    7.3968  -16.1305   23.3646 N   0  0  0  0  0  0  0  0  0  0  0  0
    9.3447  -15.5639   22.0322 C   0  0  0  0  0  0  0  0  0  0  0  0
   10.1811  -14.7205   21.5605 O   0  0  0  0  0  0  0  0  0  0  0  0
    6.8617  -14.4227   25.6814 C   0  0  0  0  0  0  0  0  0  0  0  0
    5.9661  -13.7819   26.5065 C   0  0  0  0  0  0  0  0  0  0  0  0
    9.5758  -16.9269   21.7453 N   0  0  0  0  0  0  0  0  0  0  0  0
   10.7971  -17.4437   21.2308 C   0  0  0  0  0  0  0  0  0  0  0  0
   11.7587  -17.6946   22.2971 C   0  0  0  0  0  0  0  0  0  0  0  0
   12.9522  -18.0387   22.0029 O   0  0  0  0  0  0  0  0  0  0  0  0
   11.7004  -19.4204   29.4911 N   0  0  0  0  0  0  0  0  0  0  0  0
   11.4459  -18.6463   28.3273 C   0  0  0  0  0  0  0  0  0  0  0  0
   10.5163  -17.8189   28.3407 O   0  0  0  0  0  0  0  0  0  0  0  0
   12.2926  -18.8348   27.1102 C   0  0  0  0  0  0  0  0  0  0  0  0
   11.6080  -18.1596   25.9640 C   0  0  0  0  0  0  0  0  0  0  0  0
   12.3550  -18.2012   24.6667 C   0  0  2  0  0  0  0  0  0  0  0  0
   11.4598  -17.5863   23.6636 N   0  0  0  0  0  0  0  0  0  0  0  0
   12.5929  -19.6018   24.2706 C   0  0  0  0  0  0  0  0  0  0  0  0
   13.7881  -20.2087   24.6084 O   0  0  0  0  0  0  0  0  0  0  0  0
   11.7439  -20.2666   23.6339 O   0  0  0  0  0  0  0  0  0  0  0  0
  2  1  1  0
  3  2  2  0
  4  3  1  0
  5  4  2  0
  5 11  1  0
  6  5  1  0
  7  6  1  0
  7  8  1  1
  9  7  1  0
  9 10  2  0
 11 12  2  0
 12  2  1  0
 13  9  1  0
 14 13  1  0
 15 14  1  0
 16 15  2  0
 17 18  1  0
 18 19  2  0
 18 20  1  0
 20 21  1  0
 22 21  1  1
 22 23  1  0
 22 24  1  0
 23 15  1  0
 24 25  1  0
 26 24  2  0
M  END
$$$$
