YGQ.pdb
     RDKit          3D

 26 26  0  0  1  0  0  0  0  0999 V2000
    8.7431  -12.2366   18.3509 O   0  0  0  0  0  0  0  0  0  0  0  0
    8.3246  -13.0432   19.4040 C   0  0  0  0  0  0  0  0  0  0  0  0
    9.2016  -13.8588   20.0874 C   0  0  0  0  0  0  0  0  0  0  0  0
    8.7626  -14.6497   21.1283 C   0  0  0  0  0  0  0  0  0  0  0  0
    7.4239  -14.6629   21.5362 C   0  0  0  0  0  0  0  0  0  0  0  0
    7.0305  -15.5211   22.6414 C   0  0  0  0  0  0  0  0  0  0  0  0
    6.9725  -16.9884   22.3927 C   0  0  2  0  0  0  0  0  0  0  0  0
    5.9027  -17.1440   21.3824 N   0  0  0  0  0  0  0  0  0  0  0  0
    6.6439  -17.6989   23.6259 C   0  0  0  0  0  0  0  0  0  0  0  0
    5.4339  -17.6401   24.0329 O   0  0  0  0  0  0  0  0  0  0  0  0
    6.5659  -13.8406   20.8396 C   0  0  0  0  0  0  0  0  0  0  0  0
    7.0038  -13.0513   19.8008 C   0  0  0  0  0  0  0  0  0  0  0  0
    7.5491  -18.4486   24.4083 N   0  0  0  0  0  0  0  0  0  0  0  0
    7.2051  -19.6270   25.1269 C   0  0  0  0  0  0  0  0  0  0  0  0
    8.3495  -20.1567   25.8578 C   0  0  0  0  0  0  0  0  0  0  0  0
    9.0496  -21.0917   25.3430 O   0  0  0  0  0  0  0  0  0  0  0  0
   11.6994  -16.2229   25.3724 N   0  0  0  0  0  0  0  0  0  0  0  0
   11.1921  -15.6837   26.5849 C   0  0  0  0  0  0  0  0  0  0  0  0
   11.6588  -14.6130   27.0146 O   0  0  0  0  0  0  0  0  0  0  0  0
   10.1114  -16.4051   27.3237 C   0  0  0  0  0  0  0  0  0  0  0  0
    9.7664  -17.6368   26.5476 C   0  0  0  0  0  0  0  0  0  0  0  0
    9.9976  -18.9271   27.2717 C   0  0  2  0  0  0  0  0  0  0  0  0
    8.7484  -19.7040   27.1245 N   0  0  0  0  0  0  0  0  0  0  0  0
   10.2070  -18.6646   28.7079 C   0  0  0  0  0  0  0  0  0  0  0  0
   11.4951  -18.5427   29.1945 O   0  0  0  0  0  0  0  0  0  0  0  0
    9.2517  -18.5473   29.5091 O   0  0  0  0  0  0  0  0  0  0  0  0
  2  1  1  0
  3  2  2  0
  4  3  1  0
  5  4  2  0
  5 11  1  0
  6  5  1  0
  7  6  1  0
  7  8  1  6
  9  7  1  0
  9 10  2  0
 11 12  2  0
 12  2  1  0
 13  9  1  0
 14 13  1  0
 15 14  1  0
 16 15  2  0
 17 18  1  0
 18 19  2  0
 18 20  1  0
 20 21  1  0
 22 21  1  6
 22 23  1  0
 22 24  1  0
 23 15  1  0
 24 25  1  0
 26 24  2  0
M  END
$$$$
