TQD.pdb
     RDKit          3D

 25 24  0  0  1  0  0  0  0  0999 V2000
    8.9380  -16.2092   18.4508 C   0  0  0  0  0  0  0  0  0  0  0  0
    8.6439  -14.7551   18.2740 C   0  0  1  0  0  0  0  0  0  0  0  0
    7.8362  -14.6280   17.1315 O   0  0  0  0  0  0  0  0  0  0  0  0
    7.8111  -14.2157   19.4205 C   0  0  2  0  0  0  0  0  0  0  0  0
    7.6270  -12.7803   19.0814 N   0  0  0  0  0  0  0  0  0  0  0  0
    8.5532  -14.2134   20.6994 C   0  0  0  0  0  0  0  0  0  0  0  0
    9.4708  -13.3426   20.9034 O   0  0  0  0  0  0  0  0  0  0  0  0
    6.7916  -16.6869   26.5146 N   0  0  0  0  0  0  0  0  0  0  0  0
    7.7253  -17.1855   25.5713 C   0  0  0  0  0  0  0  0  0  0  0  0
    8.5801  -18.0271   25.9033 O   0  0  0  0  0  0  0  0  0  0  0  0
    7.6686  -16.6840   24.1653 C   0  0  0  0  0  0  0  0  0  0  0  0
    8.3123  -15.3370   24.1280 C   0  0  0  0  0  0  0  0  0  0  0  0
    9.2422  -15.1256   22.9422 C   0  0  2  0  0  0  0  0  0  0  0  0
    8.3531  -15.1060   21.7794 N   0  0  0  0  0  0  0  0  0  0  0  0
   10.3210  -16.1010   22.8462 C   0  0  0  0  0  0  0  0  0  0  0  0
   10.2342  -17.1634   22.1505 O   0  0  0  0  0  0  0  0  0  0  0  0
   11.5368  -15.8872   23.5463 N   0  0  0  0  0  0  0  0  0  0  0  0
   12.6219  -16.8607   23.5063 C   0  0  1  0  0  0  0  0  0  0  0  0
   13.9366  -16.1542   23.2826 C   0  0  0  0  0  0  0  0  0  0  0  0
   14.2010  -15.9149   21.8438 C   0  0  0  0  0  0  0  0  0  0  0  0
   13.4316  -16.3097   20.9317 O   0  0  0  0  0  0  0  0  0  0  0  0
   12.6492  -17.5847   24.8051 C   0  0  0  0  0  0  0  0  0  0  0  0
   12.3596  -17.0224   25.8917 O   0  0  0  0  0  0  0  0  0  0  0  0
   15.3500  -15.2246   21.5057 O   0  0  0  0  0  0  0  0  0  0  0  0
   13.0006  -18.9256   24.8621 O   0  0  0  0  0  0  0  0  0  0  0  0
  2  1  1  1
  3  2  1  0
  4  6  1  0
  4  2  1  0
  4  5  1  6
  6 14  1  0
  6  7  2  0
  9 10  2  0
  9  8  1  0
 11  9  1  0
 12 11  1  0
 13 12  1  1
 14 13  1  0
 15 17  1  0
 15 13  1  0
 16 15  2  0
 18 22  1  0
 18 17  1  0
 18 19  1  1
 19 20  1  0
 20 24  1  0
 21 20  2  0
 22 25  1  0
 23 22  2  0
M  END
$$$$
