TQD.pdb
     RDKit          3D

 25 24  0  0  1  0  0  0  0  0999 V2000
   14.2754  -14.2316   19.7698 C   0  0  0  0  0  0  0  0  0  0  0  0
   13.5678  -14.9785   18.6864 C   0  0  1  0  0  0  0  0  0  0  0  0
   14.1406  -16.2595   18.6191 O   0  0  0  0  0  0  0  0  0  0  0  0
   12.1091  -15.2049   19.0323 C   0  0  2  0  0  0  0  0  0  0  0  0
   11.5445  -13.8320   19.1085 N   0  0  0  0  0  0  0  0  0  0  0  0
   11.9354  -15.7647   20.3898 C   0  0  0  0  0  0  0  0  0  0  0  0
   11.8060  -14.9779   21.3929 O   0  0  0  0  0  0  0  0  0  0  0  0
    9.7135  -21.2159   21.6865 N   0  0  0  0  0  0  0  0  0  0  0  0
    9.9990  -20.8611   23.0292 C   0  0  0  0  0  0  0  0  0  0  0  0
    9.6508  -21.5962   23.9712 O   0  0  0  0  0  0  0  0  0  0  0  0
   10.7278  -19.5853   23.2992 C   0  0  0  0  0  0  0  0  0  0  0  0
   11.0030  -18.9232   21.9892 C   0  0  0  0  0  0  0  0  0  0  0  0
   11.7363  -17.5951   22.1064 C   0  0  2  0  0  0  0  0  0  0  0  0
   11.8903  -17.1393   20.7238 N   0  0  0  0  0  0  0  0  0  0  0  0
   12.9884  -17.6662   22.8492 C   0  0  0  0  0  0  0  0  0  0  0  0
   13.0392  -17.6843   24.1209 O   0  0  0  0  0  0  0  0  0  0  0  0
   14.2248  -17.7198   22.1545 N   0  0  0  0  0  0  0  0  0  0  0  0
   15.4908  -17.8785   22.8607 C   0  0  1  0  0  0  0  0  0  0  0  0
   16.5349  -18.4337   21.9230 C   0  0  0  0  0  0  0  0  0  0  0  0
   17.8436  -18.6172   22.5946 C   0  0  0  0  0  0  0  0  0  0  0  0
   18.7498  -17.7465   22.5772 O   0  0  0  0  0  0  0  0  0  0  0  0
   15.9169  -16.5451   23.3628 C   0  0  0  0  0  0  0  0  0  0  0  0
   15.8179  -15.5037   22.6654 O   0  0  0  0  0  0  0  0  0  0  0  0
   18.0623  -19.8054   23.2664 O   0  0  0  0  0  0  0  0  0  0  0  0
   16.4461  -16.4034   24.6374 O   0  0  0  0  0  0  0  0  0  0  0  0
  2  1  1  1
  3  2  1  0
  4  6  1  0
  4  2  1  0
  4  5  1  1
  6 14  1  0
  6  7  2  0
  9 10  2  0
  9  8  1  0
 11  9  1  0
 12 11  1  0
 13 12  1  6
 14 13  1  0
 15 17  1  0
 15 13  1  0
 16 15  2  0
 18 22  1  0
 18 17  1  0
 18 19  1  6
 19 20  1  0
 20 24  1  0
 21 20  2  0
 22 25  1  0
 23 22  2  0
M  END
$$$$
