TQD.pdb
     RDKit          3D

 25 24  0  0  1  0  0  0  0  0999 V2000
    9.6084  -17.7895   15.2786 C   0  0  0  0  0  0  0  0  0  0  0  0
    9.4218  -16.4818   14.5806 C   0  0  1  0  0  0  0  0  0  0  0  0
    8.8319  -16.7534   13.3348 O   0  0  0  0  0  0  0  0  0  0  0  0
    8.4305  -15.5996   15.3141 C   0  0  2  0  0  0  0  0  0  0  0  0
    8.2357  -14.4456   14.3977 N   0  0  0  0  0  0  0  0  0  0  0  0
    9.0040  -15.0161   16.5458 C   0  0  0  0  0  0  0  0  0  0  0  0
   10.1937  -14.5402   16.5325 O   0  0  0  0  0  0  0  0  0  0  0  0
    6.0513  -14.3819   21.8914 N   0  0  0  0  0  0  0  0  0  0  0  0
    7.3218  -13.9564   22.3553 C   0  0  0  0  0  0  0  0  0  0  0  0
    7.4670  -13.5279   23.5147 O   0  0  0  0  0  0  0  0  0  0  0  0
    8.4906  -14.0300   21.4277 C   0  0  0  0  0  0  0  0  0  0  0  0
    7.9880  -14.4354   20.0811 C   0  0  0  0  0  0  0  0  0  0  0  0
    9.0615  -14.4741   19.0033 C   0  0  2  0  0  0  0  0  0  0  0  0
    8.3550  -14.9152   17.7994 N   0  0  0  0  0  0  0  0  0  0  0  0
   10.2206  -15.2902   19.3421 C   0  0  0  0  0  0  0  0  0  0  0  0
   10.3084  -16.5252   19.0463 O   0  0  0  0  0  0  0  0  0  0  0  0
   11.3187  -14.7136   20.0318 N   0  0  0  0  0  0  0  0  0  0  0  0
   12.4834  -15.5056   20.4100 C   0  0  1  0  0  0  0  0  0  0  0  0
   13.7425  -14.7029   20.1906 C   0  0  0  0  0  0  0  0  0  0  0  0
   14.1629  -14.7061   18.7692 C   0  0  0  0  0  0  0  0  0  0  0  0
   13.8510  -15.6206   17.9653 O   0  0  0  0  0  0  0  0  0  0  0  0
   12.3563  -15.8681   21.8467 C   0  0  0  0  0  0  0  0  0  0  0  0
   11.4129  -15.4468   22.5630 O   0  0  0  0  0  0  0  0  0  0  0  0
   14.9327  -13.6484   18.3223 O   0  0  0  0  0  0  0  0  0  0  0  0
   13.2891  -16.6961   22.4542 O   0  0  0  0  0  0  0  0  0  0  0  0
  2  1  1  1
  3  2  1  0
  4  6  1  0
  4  2  1  0
  4  5  1  6
  6 14  1  0
  6  7  2  0
  9 10  2  0
  9  8  1  0
 11  9  1  0
 12 11  1  0
 13 12  1  1
 14 13  1  0
 15 17  1  0
 15 13  1  0
 16 15  2  0
 18 22  1  0
 18 17  1  0
 18 19  1  1
 19 20  1  0
 20 24  1  0
 21 20  2  0
 22 25  1  0
 23 22  2  0
M  END
$$$$
