TQD.pdb
     RDKit          3D

 25 24  0  0  1  0  0  0  0  0999 V2000
    8.3862  -18.8041   20.2270 C   0  0  0  0  0  0  0  0  0  0  0  0
    8.6655  -18.0186   21.4668 C   0  0  1  0  0  0  0  0  0  0  0  0
    9.9154  -18.4364   21.9536 O   0  0  0  0  0  0  0  0  0  0  0  0
    8.8229  -16.5416   21.1624 C   0  0  2  0  0  0  0  0  0  0  0  0
   10.0264  -16.4842   20.2921 N   0  0  0  0  0  0  0  0  0  0  0  0
    9.1825  -15.7572   22.3631 C   0  0  0  0  0  0  0  0  0  0  0  0
   10.4091  -15.4642   22.5903 O   0  0  0  0  0  0  0  0  0  0  0  0
    5.3264  -12.4472   25.7115 N   0  0  0  0  0  0  0  0  0  0  0  0
    6.5000  -12.1012   26.4281 C   0  0  0  0  0  0  0  0  0  0  0  0
    6.4706  -11.2333   27.3196 O   0  0  0  0  0  0  0  0  0  0  0  0
    7.7797  -12.7968   26.0961 C   0  0  0  0  0  0  0  0  0  0  0  0
    7.5215  -13.7190   24.9501 C   0  0  0  0  0  0  0  0  0  0  0  0
    8.7396  -14.5168   24.5083 C   0  0  2  0  0  0  0  0  0  0  0  0
    8.2809  -15.2657   23.3370 N   0  0  0  0  0  0  0  0  0  0  0  0
    9.3205  -15.3502   25.5535 C   0  0  0  0  0  0  0  0  0  0  0  0
    9.7801  -14.8763   26.6418 O   0  0  0  0  0  0  0  0  0  0  0  0
    9.3919  -16.7574   25.3829 N   0  0  0  0  0  0  0  0  0  0  0  0
    9.9276  -17.6262   26.4245 C   0  0  1  0  0  0  0  0  0  0  0  0
    9.5822  -19.0637   26.1209 C   0  0  0  0  0  0  0  0  0  0  0  0
   10.1556  -19.9960   27.1205 C   0  0  0  0  0  0  0  0  0  0  0  0
   11.3331  -20.4307   27.0543 O   0  0  0  0  0  0  0  0  0  0  0  0
   11.4045  -17.4560   26.4621 C   0  0  0  0  0  0  0  0  0  0  0  0
   12.0490  -17.4332   27.5414 O   0  0  0  0  0  0  0  0  0  0  0  0
    9.3463  -20.3964   28.1672 O   0  0  0  0  0  0  0  0  0  0  0  0
   12.1320  -17.3145   25.2893 O   0  0  0  0  0  0  0  0  0  0  0  0
  2  1  1  6
  3  2  1  0
  4  6  1  0
  4  2  1  0
  4  5  1  6
  6 14  1  0
  6  7  2  0
  9 10  2  0
  9  8  1  0
 11  9  1  0
 12 11  1  0
 13 12  1  1
 14 13  1  0
 15 17  1  0
 15 13  1  0
 16 15  2  0
 18 22  1  0
 18 17  1  0
 18 19  1  6
 19 20  1  0
 20 24  1  0
 21 20  2  0
 22 25  1  0
 23 22  2  0
M  END
$$$$
