TQD.pdb
     RDKit          3D

 25 24  0  0  1  0  0  0  0  0999 V2000
    6.4586  -20.9860   20.8225 C   0  0  0  0  0  0  0  0  0  0  0  0
    6.8407  -21.0268   19.3787 C   0  0  1  0  0  0  0  0  0  0  0  0
    5.9396  -21.8893   18.7321 O   0  0  0  0  0  0  0  0  0  0  0  0
    6.6522  -19.6752   18.7180 C   0  0  2  0  0  0  0  0  0  0  0  0
    7.0929  -19.9002   17.3164 N   0  0  0  0  0  0  0  0  0  0  0  0
    7.5817  -18.6564   19.2513 C   0  0  0  0  0  0  0  0  0  0  0  0
    8.8463  -18.8129   19.1160 O   0  0  0  0  0  0  0  0  0  0  0  0
    7.0298  -12.8771   19.4441 N   0  0  0  0  0  0  0  0  0  0  0  0
    7.9851  -12.8532   20.4916 C   0  0  0  0  0  0  0  0  0  0  0  0
    8.5386  -11.7899   20.8261 O   0  0  0  0  0  0  0  0  0  0  0  0
    8.3199  -14.1294   21.1923 C   0  0  0  0  0  0  0  0  0  0  0  0
    7.4968  -15.2191   20.5878 C   0  0  0  0  0  0  0  0  0  0  0  0
    8.2146  -16.5570   20.4878 C   0  0  2  0  0  0  0  0  0  0  0  0
    7.2153  -17.4668   19.9249 N   0  0  0  0  0  0  0  0  0  0  0  0
    8.7963  -17.0193   21.7418 C   0  0  0  0  0  0  0  0  0  0  0  0
    8.1225  -17.6236   22.6367 O   0  0  0  0  0  0  0  0  0  0  0  0
   10.1734  -16.8031   22.0087 N   0  0  0  0  0  0  0  0  0  0  0  0
   10.7643  -17.1475   23.2967 C   0  0  1  0  0  0  0  0  0  0  0  0
   12.2676  -17.0411   23.2159 C   0  0  0  0  0  0  0  0  0  0  0  0
   12.8153  -17.7799   22.0533 C   0  0  0  0  0  0  0  0  0  0  0  0
   12.4929  -18.9639   21.7813 O   0  0  0  0  0  0  0  0  0  0  0  0
   10.2426  -16.2016   24.3188 C   0  0  0  0  0  0  0  0  0  0  0  0
    9.4923  -15.2384   24.0192 O   0  0  0  0  0  0  0  0  0  0  0  0
   13.7207  -17.1234   21.2408 O   0  0  0  0  0  0  0  0  0  0  0  0
   10.5716  -16.3528   25.6581 O   0  0  0  0  0  0  0  0  0  0  0  0
  2  1  1  1
  3  2  1  0
  4  6  1  0
  4  2  1  0
  4  5  1  6
  6 14  1  0
  6  7  2  0
  9 10  2  0
  9  8  1  0
 11  9  1  0
 12 11  1  0
 13 12  1  1
 14 13  1  0
 15 17  1  0
 15 13  1  0
 16 15  2  0
 18 22  1  0
 18 17  1  0
 18 19  1  6
 19 20  1  0
 20 24  1  0
 21 20  2  0
 22 25  1  0
 23 22  2  0
M  END
$$$$
