TQD.pdb
     RDKit          3D

 25 24  0  0  1  0  0  0  0  0999 V2000
    7.0951  -16.1822   19.5103 C   0  0  0  0  0  0  0  0  0  0  0  0
    7.8094  -15.0128   18.9149 C   0  0  1  0  0  0  0  0  0  0  0  0
    7.2676  -14.7987   17.6366 O   0  0  0  0  0  0  0  0  0  0  0  0
    7.5307  -13.7405   19.6911 C   0  0  2  0  0  0  0  0  0  0  0  0
    8.2579  -12.6923   18.9284 N   0  0  0  0  0  0  0  0  0  0  0  0
    8.1641  -13.7490   21.0271 C   0  0  0  0  0  0  0  0  0  0  0  0
    9.4199  -13.5205   21.1395 O   0  0  0  0  0  0  0  0  0  0  0  0
    5.2916  -12.4986   26.1522 N   0  0  0  0  0  0  0  0  0  0  0  0
    6.5679  -12.6736   26.7444 C   0  0  0  0  0  0  0  0  0  0  0  0
    6.7619  -12.3842   27.9392 O   0  0  0  0  0  0  0  0  0  0  0  0
    7.6830  -13.2133   25.9095 C   0  0  0  0  0  0  0  0  0  0  0  0
    7.1770  -13.3821   24.5146 C   0  0  0  0  0  0  0  0  0  0  0  0
    8.2140  -13.9177   23.5383 C   0  0  2  0  0  0  0  0  0  0  0  0
    7.5080  -13.9894   22.2579 N   0  0  0  0  0  0  0  0  0  0  0  0
    8.8278  -15.1749   23.9470 C   0  0  0  0  0  0  0  0  0  0  0  0
    8.3255  -16.3121   23.6734 O   0  0  0  0  0  0  0  0  0  0  0  0
   10.0408  -15.1671   24.6838 N   0  0  0  0  0  0  0  0  0  0  0  0
   10.6023  -16.3916   25.2424 C   0  0  1  0  0  0  0  0  0  0  0  0
    9.5329  -17.1528   25.9872 C   0  0  0  0  0  0  0  0  0  0  0  0
   10.0703  -18.3696   26.6412 C   0  0  0  0  0  0  0  0  0  0  0  0
    9.3704  -19.3874   26.8739 O   0  0  0  0  0  0  0  0  0  0  0  0
   11.1280  -17.2184   24.1236 C   0  0  0  0  0  0  0  0  0  0  0  0
   10.3725  -17.8785   23.3658 O   0  0  0  0  0  0  0  0  0  0  0  0
   11.4037  -18.3699   27.0059 O   0  0  0  0  0  0  0  0  0  0  0  0
   12.4909  -17.2900   23.8745 O   0  0  0  0  0  0  0  0  0  0  0  0
  2  1  1  1
  3  2  1  0
  4  6  1  0
  4  2  1  0
  4  5  1  6
  6 14  1  0
  6  7  2  0
  9 10  2  0
  9  8  1  0
 11  9  1  0
 12 11  1  0
 13 12  1  1
 14 13  1  0
 15 17  1  0
 15 13  1  0
 16 15  2  0
 18 22  1  0
 18 17  1  0
 18 19  1  6
 19 20  1  0
 20 24  1  0
 21 20  2  0
 22 25  1  0
 23 22  2  0
M  END
$$$$
