TQD.pdb
     RDKit          3D

 25 24  0  0  1  0  0  0  0  0999 V2000
    6.8984  -12.5065   19.2733 C   0  0  0  0  0  0  0  0  0  0  0  0
    8.1933  -13.2046   19.5340 C   0  0  1  0  0  0  0  0  0  0  0  0
    7.8866  -14.4883   20.0156 O   0  0  0  0  0  0  0  0  0  0  0  0
    8.9694  -13.4284   18.2509 C   0  0  2  0  0  0  0  0  0  0  0  0
    8.0684  -14.2838   17.4350 N   0  0  0  0  0  0  0  0  0  0  0  0
   10.1820  -14.2470   18.4650 C   0  0  0  0  0  0  0  0  0  0  0  0
   10.1314  -15.5171   18.3035 O   0  0  0  0  0  0  0  0  0  0  0  0
   15.6839  -16.8180   18.0602 N   0  0  0  0  0  0  0  0  0  0  0  0
   15.5851  -15.4043   18.1031 C   0  0  0  0  0  0  0  0  0  0  0  0
   15.9559  -14.7092   17.1395 O   0  0  0  0  0  0  0  0  0  0  0  0
   15.0267  -14.7567   19.3281 C   0  0  0  0  0  0  0  0  0  0  0  0
   13.8040  -13.9957   18.9329 C   0  0  0  0  0  0  0  0  0  0  0  0
   12.4992  -14.6505   19.3621 C   0  0  2  0  0  0  0  0  0  0  0  0
   11.4569  -13.7628   18.8437 N   0  0  0  0  0  0  0  0  0  0  0  0
   12.4005  -14.9066   20.7936 C   0  0  0  0  0  0  0  0  0  0  0  0
   11.4359  -14.4833   21.5080 O   0  0  0  0  0  0  0  0  0  0  0  0
   13.4077  -15.6592   21.4520 N   0  0  0  0  0  0  0  0  0  0  0  0
   13.1975  -16.2142   22.7841 C   0  0  1  0  0  0  0  0  0  0  0  0
   11.9912  -17.1210   22.7773 C   0  0  0  0  0  0  0  0  0  0  0  0
   11.8287  -17.8393   24.0637 C   0  0  0  0  0  0  0  0  0  0  0  0
   12.5556  -17.6215   25.0657 O   0  0  0  0  0  0  0  0  0  0  0  0
   14.4103  -16.9854   23.1664 C   0  0  0  0  0  0  0  0  0  0  0  0
   14.8777  -17.9010   22.4427 O   0  0  0  0  0  0  0  0  0  0  0  0
   10.8277  -18.7888   24.1498 O   0  0  0  0  0  0  0  0  0  0  0  0
   15.0769  -16.7160   24.3529 O   0  0  0  0  0  0  0  0  0  0  0  0
  2  1  1  6
  3  2  1  0
  4  6  1  0
  4  2  1  0
  4  5  1  6
  6 14  1  0
  6  7  2  0
  9 10  2  0
  9  8  1  0
 11  9  1  0
 12 11  1  0
 13 12  1  1
 14 13  1  0
 15 17  1  0
 15 13  1  0
 16 15  2  0
 18 22  1  0
 18 17  1  0
 18 19  1  6
 19 20  1  0
 20 24  1  0
 21 20  2  0
 22 25  1  0
 23 22  2  0
M  END
$$$$
