TQD.pdb
     RDKit          3D

 25 24  0  0  1  0  0  0  0  0999 V2000
    7.6977  -12.9172   18.5000 C   0  0  0  0  0  0  0  0  0  0  0  0
    8.2415  -14.0214   19.3468 C   0  0  1  0  0  0  0  0  0  0  0  0
    9.5705  -13.6916   19.6610 O   0  0  0  0  0  0  0  0  0  0  0  0
    7.5197  -14.1048   20.6776 C   0  0  2  0  0  0  0  0  0  0  0  0
    7.8391  -12.8115   21.3369 N   0  0  0  0  0  0  0  0  0  0  0  0
    8.0969  -15.1378   21.5643 C   0  0  0  0  0  0  0  0  0  0  0  0
    8.9819  -14.8123   22.4318 O   0  0  0  0  0  0  0  0  0  0  0  0
    5.5671  -19.6975   24.0644 N   0  0  0  0  0  0  0  0  0  0  0  0
    6.8443  -20.3036   24.1728 C   0  0  0  0  0  0  0  0  0  0  0  0
    7.0470  -21.2235   24.9862 O   0  0  0  0  0  0  0  0  0  0  0  0
    7.9497  -19.8199   23.2919 C   0  0  0  0  0  0  0  0  0  0  0  0
    7.4424  -18.6523   22.5113 C   0  0  0  0  0  0  0  0  0  0  0  0
    8.3863  -17.4589   22.4947 C   0  0  2  0  0  0  0  0  0  0  0  0
    7.7639  -16.5134   21.5664 N   0  0  0  0  0  0  0  0  0  0  0  0
    9.7663  -17.7918   22.1641 C   0  0  0  0  0  0  0  0  0  0  0  0
   10.1423  -18.0960   20.9867 O   0  0  0  0  0  0  0  0  0  0  0  0
   10.7610  -17.7852   23.1763 N   0  0  0  0  0  0  0  0  0  0  0  0
   12.1365  -18.1813   22.8972 C   0  0  1  0  0  0  0  0  0  0  0  0
   13.0913  -17.2617   23.6186 C   0  0  0  0  0  0  0  0  0  0  0  0
   13.6910  -16.2579   22.7077 C   0  0  0  0  0  0  0  0  0  0  0  0
   13.4007  -16.1814   21.4872 O   0  0  0  0  0  0  0  0  0  0  0  0
   12.3253  -19.5795   23.3673 C   0  0  0  0  0  0  0  0  0  0  0  0
   11.4525  -20.1833   24.0413 O   0  0  0  0  0  0  0  0  0  0  0  0
   14.6099  -15.3725   23.2395 O   0  0  0  0  0  0  0  0  0  0  0  0
   13.4891  -20.2752   23.0734 O   0  0  0  0  0  0  0  0  0  0  0  0
  2  1  1  6
  3  2  1  0
  4  6  1  0
  4  2  1  0
  4  5  1  1
  6 14  1  0
  6  7  2  0
  9 10  2  0
  9  8  1  0
 11  9  1  0
 12 11  1  0
 13 12  1  6
 14 13  1  0
 15 17  1  0
 15 13  1  0
 16 15  2  0
 18 22  1  0
 18 17  1  0
 18 19  1  1
 19 20  1  0
 20 24  1  0
 21 20  2  0
 22 25  1  0
 23 22  2  0
M  END
$$$$
