TQD.pdb
     RDKit          3D

 25 24  0  0  1  0  0  0  0  0999 V2000
   11.6186  -19.2071   18.8677 C   0  0  0  0  0  0  0  0  0  0  0  0
   11.0319  -19.0950   20.2371 C   0  0  1  0  0  0  0  0  0  0  0  0
   11.4459  -17.8627   20.7697 O   0  0  0  0  0  0  0  0  0  0  0  0
    9.5181  -19.0259   20.1865 C   0  0  2  0  0  0  0  0  0  0  0  0
    9.2439  -17.7441   19.4857 N   0  0  0  0  0  0  0  0  0  0  0  0
    8.9194  -18.8627   21.5286 C   0  0  0  0  0  0  0  0  0  0  0  0
    8.7586  -17.6891   22.0173 O   0  0  0  0  0  0  0  0  0  0  0  0
    5.0680  -23.4084   24.3913 N   0  0  0  0  0  0  0  0  0  0  0  0
    5.2294  -22.1976   23.6715 C   0  0  0  0  0  0  0  0  0  0  0  0
    4.2406  -21.5596   23.2663 O   0  0  0  0  0  0  0  0  0  0  0  0
    6.6108  -21.6952   23.4046 C   0  0  0  0  0  0  0  0  0  0  0  0
    6.6841  -20.2762   23.8641 C   0  0  0  0  0  0  0  0  0  0  0  0
    8.0719  -19.6607   23.7606 C   0  0  2  0  0  0  0  0  0  0  0  0
    8.4786  -19.9070   22.3760 N   0  0  0  0  0  0  0  0  0  0  0  0
    9.0202  -20.1521   24.7524 C   0  0  0  0  0  0  0  0  0  0  0  0
    9.7775  -21.1548   24.5494 O   0  0  0  0  0  0  0  0  0  0  0  0
    9.1303  -19.5063   26.0114 N   0  0  0  0  0  0  0  0  0  0  0  0
   10.1049  -19.9366   27.0072 C   0  0  1  0  0  0  0  0  0  0  0  0
   11.1530  -18.8670   27.1946 C   0  0  0  0  0  0  0  0  0  0  0  0
   12.4948  -19.3214   26.7585 C   0  0  0  0  0  0  0  0  0  0  0  0
   12.6679  -20.1566   25.8353 O   0  0  0  0  0  0  0  0  0  0  0  0
    9.3897  -20.1766   28.2888 C   0  0  0  0  0  0  0  0  0  0  0  0
    8.2031  -19.8043   28.4737 O   0  0  0  0  0  0  0  0  0  0  0  0
   13.5961  -18.7934   27.4061 O   0  0  0  0  0  0  0  0  0  0  0  0
   10.0175  -20.8295   29.3397 O   0  0  0  0  0  0  0  0  0  0  0  0
  2  1  1  6
  3  2  1  0
  4  6  1  0
  4  2  1  0
  4  5  1  6
  6 14  1  0
  6  7  2  0
  9 10  2  0
  9  8  1  0
 11  9  1  0
 12 11  1  0
 13 12  1  1
 14 13  1  0
 15 17  1  0
 15 13  1  0
 16 15  2  0
 18 22  1  0
 18 17  1  0
 18 19  1  1
 19 20  1  0
 20 24  1  0
 21 20  2  0
 22 25  1  0
 23 22  2  0
M  END
$$$$
