TQD.pdb
     RDKit          3D

 25 24  0  0  1  0  0  0  0  0999 V2000
    8.1003  -12.0348   19.8825 C   0  0  0  0  0  0  0  0  0  0  0  0
    7.4505  -13.3739   19.7527 C   0  0  1  0  0  0  0  0  0  0  0  0
    7.1437  -13.5597   18.3944 O   0  0  0  0  0  0  0  0  0  0  0  0
    8.4114  -14.4919   20.1073 C   0  0  2  0  0  0  0  0  0  0  0  0
    7.6262  -15.7286   19.8558 N   0  0  0  0  0  0  0  0  0  0  0  0
    8.7234  -14.5252   21.5523 C   0  0  0  0  0  0  0  0  0  0  0  0
    9.9288  -14.3480   21.9492 O   0  0  0  0  0  0  0  0  0  0  0  0
    9.0420  -12.4816   27.1044 N   0  0  0  0  0  0  0  0  0  0  0  0
    7.9917  -13.3647   26.7477 C   0  0  0  0  0  0  0  0  0  0  0  0
    7.7548  -14.3812   27.4256 O   0  0  0  0  0  0  0  0  0  0  0  0
    7.1685  -13.0563   25.5398 C   0  0  0  0  0  0  0  0  0  0  0  0
    6.9768  -14.3242   24.7742 C   0  0  0  0  0  0  0  0  0  0  0  0
    8.2083  -14.7765   24.0034 C   0  0  2  0  0  0  0  0  0  0  0  0
    7.7954  -14.7379   22.5995 N   0  0  0  0  0  0  0  0  0  0  0  0
    8.7407  -16.0650   24.4286 C   0  0  0  0  0  0  0  0  0  0  0  0
    8.1796  -17.1727   24.1486 O   0  0  0  0  0  0  0  0  0  0  0  0
    9.9372  -16.1234   25.1897 N   0  0  0  0  0  0  0  0  0  0  0  0
   10.5347  -17.3964   25.5759 C   0  0  1  0  0  0  0  0  0  0  0  0
   11.9594  -17.4647   25.0826 C   0  0  0  0  0  0  0  0  0  0  0  0
   12.6417  -18.7041   25.5248 C   0  0  0  0  0  0  0  0  0  0  0  0
   12.5877  -19.7821   24.8809 O   0  0  0  0  0  0  0  0  0  0  0  0
   10.5057  -17.4960   27.0594 C   0  0  0  0  0  0  0  0  0  0  0  0
   10.6908  -16.4982   27.8016 O   0  0  0  0  0  0  0  0  0  0  0  0
   13.3665  -18.6562   26.7010 O   0  0  0  0  0  0  0  0  0  0  0  0
   10.2698  -18.7122   27.6839 O   0  0  0  0  0  0  0  0  0  0  0  0
  2  1  1  6
  3  2  1  0
  4  6  1  0
  4  2  1  0
  4  5  1  1
  6 14  1  0
  6  7  2  0
  9 10  2  0
  9  8  1  0
 11  9  1  0
 12 11  1  0
 13 12  1  1
 14 13  1  0
 15 17  1  0
 15 13  1  0
 16 15  2  0
 18 22  1  0
 18 17  1  0
 18 19  1  1
 19 20  1  0
 20 24  1  0
 21 20  2  0
 22 25  1  0
 23 22  2  0
M  END
$$$$
