TQD.pdb
     RDKit          3D

 25 24  0  0  1  0  0  0  0  0999 V2000
   14.4921  -17.0768   18.1338 C   0  0  0  0  0  0  0  0  0  0  0  0
   15.0420  -15.7286   17.7992 C   0  0  1  0  0  0  0  0  0  0  0  0
   15.6712  -15.8326   16.5474 O   0  0  0  0  0  0  0  0  0  0  0  0
   13.9344  -14.7102   17.6120 C   0  0  2  0  0  0  0  0  0  0  0  0
   14.6603  -13.4326   17.3881 N   0  0  0  0  0  0  0  0  0  0  0  0
   13.1561  -14.4947   18.8507 C   0  0  0  0  0  0  0  0  0  0  0  0
   13.7243  -13.9882   19.8815 O   0  0  0  0  0  0  0  0  0  0  0  0
    6.9741  -12.3143   19.3426 N   0  0  0  0  0  0  0  0  0  0  0  0
    7.7605  -13.4797   19.1588 C   0  0  0  0  0  0  0  0  0  0  0  0
    7.2384  -14.5522   18.8038 O   0  0  0  0  0  0  0  0  0  0  0  0
    9.2330  -13.4020   19.3986 C   0  0  0  0  0  0  0  0  0  0  0  0
    9.6622  -14.6711   20.0584 C   0  0  0  0  0  0  0  0  0  0  0  0
   11.1529  -14.7437   20.3547 C   0  0  2  0  0  0  0  0  0  0  0  0
   11.7857  -14.7962   19.0356 N   0  0  0  0  0  0  0  0  0  0  0  0
   11.5349  -15.8381   21.2384 C   0  0  0  0  0  0  0  0  0  0  0  0
   11.6365  -17.0439   20.8436 O   0  0  0  0  0  0  0  0  0  0  0  0
   11.8140  -15.5827   22.6063 N   0  0  0  0  0  0  0  0  0  0  0  0
   12.0545  -16.6669   23.5515 C   0  0  1  0  0  0  0  0  0  0  0  0
   13.4027  -16.4871   24.2056 C   0  0  0  0  0  0  0  0  0  0  0  0
   14.5162  -16.8018   23.2791 C   0  0  0  0  0  0  0  0  0  0  0  0
   14.5578  -17.8530   22.5913 O   0  0  0  0  0  0  0  0  0  0  0  0
   10.9823  -16.6361   24.5816 C   0  0  0  0  0  0  0  0  0  0  0  0
   10.1146  -15.7271   24.6185 O   0  0  0  0  0  0  0  0  0  0  0  0
   15.5484  -15.8878   23.1779 O   0  0  0  0  0  0  0  0  0  0  0  0
   10.9024  -17.6249   25.5515 O   0  0  0  0  0  0  0  0  0  0  0  0
  2  1  1  6
  3  2  1  0
  4  6  1  0
  4  2  1  0
  4  5  1  1
  6 14  1  0
  6  7  2  0
  9 10  2  0
  9  8  1  0
 11  9  1  0
 12 11  1  0
 13 12  1  6
 14 13  1  0
 15 17  1  0
 15 13  1  0
 16 15  2  0
 18 22  1  0
 18 17  1  0
 18 19  1  1
 19 20  1  0
 20 24  1  0
 21 20  2  0
 22 25  1  0
 23 22  2  0
M  END
$$$$
