TQD.pdb
     RDKit          3D

 25 24  0  0  1  0  0  0  0  0999 V2000
    6.5307  -13.8223   18.5553 C   0  0  0  0  0  0  0  0  0  0  0  0
    7.1602  -14.1924   19.8586 C   0  0  1  0  0  0  0  0  0  0  0  0
    8.2622  -15.0153   19.5719 O   0  0  0  0  0  0  0  0  0  0  0  0
    7.7343  -12.9773   20.5606 C   0  0  2  0  0  0  0  0  0  0  0  0
    8.7772  -12.4848   19.6231 N   0  0  0  0  0  0  0  0  0  0  0  0
    8.4681  -13.3367   21.7930 C   0  0  0  0  0  0  0  0  0  0  0  0
    9.7170  -13.6171   21.7333 O   0  0  0  0  0  0  0  0  0  0  0  0
    6.9752  -11.8723   27.4822 N   0  0  0  0  0  0  0  0  0  0  0  0
    6.0813  -12.4357   26.5368 C   0  0  0  0  0  0  0  0  0  0  0  0
    4.8674  -12.5412   26.7905 O   0  0  0  0  0  0  0  0  0  0  0  0
    6.6197  -12.9036   25.2242 C   0  0  0  0  0  0  0  0  0  0  0  0
    7.9877  -13.4563   25.4555 C   0  0  0  0  0  0  0  0  0  0  0  0
    8.6469  -14.0252   24.2077 C   0  0  2  0  0  0  0  0  0  0  0  0
    7.9217  -13.4064   23.0967 N   0  0  0  0  0  0  0  0  0  0  0  0
    8.6763  -15.4816   24.1573 C   0  0  0  0  0  0  0  0  0  0  0  0
    8.2676  -16.1483   23.1530 O   0  0  0  0  0  0  0  0  0  0  0  0
    9.1775  -16.2209   25.2603 N   0  0  0  0  0  0  0  0  0  0  0  0
    9.9864  -17.4195   25.0713 C   0  0  1  0  0  0  0  0  0  0  0  0
   11.1693  -17.1058   24.1881 C   0  0  0  0  0  0  0  0  0  0  0  0
   11.4606  -18.2056   23.2380 C   0  0  0  0  0  0  0  0  0  0  0  0
   10.6233  -19.0958   22.9441 O   0  0  0  0  0  0  0  0  0  0  0  0
   10.4566  -17.8818   26.4043 C   0  0  0  0  0  0  0  0  0  0  0  0
   10.4523  -19.0954   26.7324 O   0  0  0  0  0  0  0  0  0  0  0  0
   12.7145  -18.2403   22.6570 O   0  0  0  0  0  0  0  0  0  0  0  0
   10.9229  -16.9751   27.3452 O   0  0  0  0  0  0  0  0  0  0  0  0
  2  1  1  6
  3  2  1  0
  4  6  1  0
  4  2  1  0
  4  5  1  6
  6 14  1  0
  6  7  2  0
  9 10  2  0
  9  8  1  0
 11  9  1  0
 12 11  1  0
 13 12  1  1
 14 13  1  0
 15 17  1  0
 15 13  1  0
 16 15  2  0
 18 22  1  0
 18 17  1  0
 18 19  1  6
 19 20  1  0
 20 24  1  0
 21 20  2  0
 22 25  1  0
 23 22  2  0
M  END
$$$$
