TQD.pdb
     RDKit          3D

 25 24  0  0  1  0  0  0  0  0999 V2000
    7.4884  -12.4607   19.8389 C   0  0  0  0  0  0  0  0  0  0  0  0
    7.0316  -13.8216   19.4248 C   0  0  1  0  0  0  0  0  0  0  0  0
    7.2701  -13.9408   18.0454 O   0  0  0  0  0  0  0  0  0  0  0  0
    7.8665  -14.9073   20.0752 C   0  0  2  0  0  0  0  0  0  0  0  0
    7.2208  -16.1688   19.6270 N   0  0  0  0  0  0  0  0  0  0  0  0
    7.7312  -14.9117   21.5477 C   0  0  0  0  0  0  0  0  0  0  0  0
    6.5857  -14.7066   22.0840 O   0  0  0  0  0  0  0  0  0  0  0  0
    6.9266  -19.0630   24.1393 N   0  0  0  0  0  0  0  0  0  0  0  0
    6.7769  -18.3228   25.3393 C   0  0  0  0  0  0  0  0  0  0  0  0
    6.3929  -18.8755   26.3862 O   0  0  0  0  0  0  0  0  0  0  0  0
    7.0882  -16.8617   25.3295 C   0  0  0  0  0  0  0  0  0  0  0  0
    7.5295  -16.4916   23.9517 C   0  0  0  0  0  0  0  0  0  0  0  0
    8.5100  -15.3289   23.9049 C   0  0  2  0  0  0  0  0  0  0  0  0
    8.7744  -15.1309   22.4787 N   0  0  0  0  0  0  0  0  0  0  0  0
    9.7104  -15.5255   24.7078 C   0  0  0  0  0  0  0  0  0  0  0  0
    9.8269  -15.0891   25.8978 O   0  0  0  0  0  0  0  0  0  0  0  0
   10.8176  -16.2317   24.1696 N   0  0  0  0  0  0  0  0  0  0  0  0
   12.0356  -16.4451   24.9428 C   0  0  1  0  0  0  0  0  0  0  0  0
   11.7064  -17.1581   26.2316 C   0  0  0  0  0  0  0  0  0  0  0  0
   11.5673  -18.6210   26.0373 C   0  0  0  0  0  0  0  0  0  0  0  0
   11.6797  -19.1762   24.9153 O   0  0  0  0  0  0  0  0  0  0  0  0
   12.9675  -17.2707   24.1295 C   0  0  0  0  0  0  0  0  0  0  0  0
   12.5775  -17.9465   23.1436 O   0  0  0  0  0  0  0  0  0  0  0  0
   11.3018  -19.3966   27.1504 O   0  0  0  0  0  0  0  0  0  0  0  0
   14.3195  -17.3236   24.4361 O   0  0  0  0  0  0  0  0  0  0  0  0
  2  1  1  1
  3  2  1  0
  4  6  1  0
  4  2  1  0
  4  5  1  6
  6 14  1  0
  6  7  2  0
  9 10  2  0
  9  8  1  0
 11  9  1  0
 12 11  1  0
 13 12  1  6
 14 13  1  0
 15 17  1  0
 15 13  1  0
 16 15  2  0
 18 22  1  0
 18 17  1  0
 18 19  1  1
 19 20  1  0
 20 24  1  0
 21 20  2  0
 22 25  1  0
 23 22  2  0
M  END
$$$$
