CLP.pdb
     RDKit          3D

 22 22  0  0  1  0  0  0  0  0999 V2000
    5.1756  -20.1650   24.9311 N   0  0  0  0  0  0  0  0  0  0  0  0
    6.1661  -19.3351   25.5826 C   0  0  1  0  0  0  0  0  0  0  0  0
    7.5320  -19.9548   25.3575 C   0  0  0  0  0  0  0  0  0  0  0  0
    8.7659  -19.2223   26.4637 S   0  0  0  0  0  0  0  0  0  0  0  0
    6.1640  -18.0068   24.9355 C   0  0  0  0  0  0  0  0  0  0  0  0
    5.8094  -17.8843   23.7358 O   0  0  0  0  0  0  0  0  0  0  0  0
    5.9335  -12.3768   26.1977 C   0  0  0  0  0  0  0  0  0  0  0  0
    7.1785  -13.2153   25.9965 C   0  0  1  0  0  0  0  0  0  0  0  0
    8.2003  -12.6361   26.9766 C   0  0  0  0  0  0  0  0  0  0  0  0
    6.9238  -14.6439   26.2551 C   0  0  0  0  0  0  0  0  0  0  0  0
    6.7063  -15.5313   25.0409 C   0  0  2  0  0  0  0  0  0  0  0  0
    6.5617  -16.8766   25.6703 N   0  0  0  0  0  0  0  0  0  0  0  0
    7.9399  -15.5984   24.2444 C   0  0  0  0  0  0  0  0  0  0  0  0
    8.8275  -16.4436   24.6238 O   0  0  0  0  0  0  0  0  0  0  0  0
    8.2559  -14.8331   23.0954 N   0  0  0  0  0  0  0  0  0  0  0  0
    7.8849  -13.5141   22.6668 C   0  0  0  0  0  0  0  0  0  0  0  0
    7.7983  -13.5819   21.1400 C   0  0  0  0  0  0  0  0  0  0  0  0
    8.2369  -14.9778   20.8186 C   0  0  0  0  0  0  0  0  0  0  0  0
    9.1207  -15.3162   21.9968 C   0  0  1  0  0  0  0  0  0  0  0  0
   10.3884  -14.5866   21.9630 C   0  0  0  0  0  0  0  0  0  0  0  0
   10.7368  -13.6693   22.7358 O   0  0  0  0  0  0  0  0  0  0  0  0
   11.3213  -14.9333   20.9739 O   0  0  0  0  0  0  0  0  0  0  0  0
  2  1  1  6
  2  5  1  0
  2  3  1  0
  4  3  1  0
  5  6  2  0
  8  7  1  1
  8 10  1  0
  9  8  1  0
 11 10  1  1
 12 11  1  0
 12  5  1  0
 13 14  2  0
 13 11  1  0
 15 13  1  0
 16 17  1  0
 16 15  1  0
 18 19  1  0
 18 17  1  0
 19 15  1  0
 19 20  1  6
 20 22  1  0
 21 20  2  0
M  END
$$$$
