CLP.pdb
     RDKit          3D

 22 22  0  0  1  0  0  0  0  0999 V2000
    5.1818  -20.3396   25.0253 N   0  0  0  0  0  0  0  0  0  0  0  0
    6.0911  -19.4818   25.7545 C   0  0  1  0  0  0  0  0  0  0  0  0
    7.4741  -20.1030   25.7096 C   0  0  0  0  0  0  0  0  0  0  0  0
    8.5953  -19.2718   26.8648 S   0  0  0  0  0  0  0  0  0  0  0  0
    6.1622  -18.1780   25.0630 C   0  0  0  0  0  0  0  0  0  0  0  0
    5.9499  -18.1015   23.8265 O   0  0  0  0  0  0  0  0  0  0  0  0
    5.9794  -12.4503   26.0836 C   0  0  0  0  0  0  0  0  0  0  0  0
    7.1808  -13.3719   26.0564 C   0  0  1  0  0  0  0  0  0  0  0  0
    8.1211  -12.8172   27.1280 C   0  0  0  0  0  0  0  0  0  0  0  0
    6.8044  -14.7701   26.3322 C   0  0  0  0  0  0  0  0  0  0  0  0
    6.7180  -15.7044   25.1369 C   0  0  2  0  0  0  0  0  0  0  0  0
    6.4695  -17.0195   25.7971 N   0  0  0  0  0  0  0  0  0  0  0  0
    8.0378  -15.8248   24.5012 C   0  0  0  0  0  0  0  0  0  0  0  0
    8.8523  -16.6718   25.0163 O   0  0  0  0  0  0  0  0  0  0  0  0
    8.5099  -15.1093   23.3738 N   0  0  0  0  0  0  0  0  0  0  0  0
    8.1822  -13.8242   22.8240 C   0  0  0  0  0  0  0  0  0  0  0  0
    8.3307  -13.9706   21.3075 C   0  0  0  0  0  0  0  0  0  0  0  0
    8.8411  -15.3681   21.1314 C   0  0  0  0  0  0  0  0  0  0  0  0
    9.5416  -15.6223   22.4461 C   0  0  1  0  0  0  0  0  0  0  0  0
   10.7848  -14.8602   22.5652 C   0  0  0  0  0  0  0  0  0  0  0  0
   10.9921  -13.8945   23.3298 O   0  0  0  0  0  0  0  0  0  0  0  0
   11.8652  -15.2317   21.7508 O   0  0  0  0  0  0  0  0  0  0  0  0
  2  1  1  6
  2  5  1  0
  2  3  1  0
  4  3  1  0
  5  6  2  0
  8  7  1  1
  8 10  1  0
  9  8  1  0
 11 10  1  1
 12 11  1  0
 12  5  1  0
 13 14  2  0
 13 11  1  0
 15 13  1  0
 16 17  1  0
 16 15  1  0
 18 19  1  0
 18 17  1  0
 19 15  1  0
 19 20  1  6
 20 22  1  0
 21 20  2  0
M  END
$$$$
