CLP.pdb
     RDKit          3D

 22 22  0  0  1  0  0  0  0  0999 V2000
    5.0646  -20.1648   24.1907 N   0  0  0  0  0  0  0  0  0  0  0  0
    5.8253  -19.3554   25.1184 C   0  0  1  0  0  0  0  0  0  0  0  0
    7.2300  -19.9208   25.2057 C   0  0  0  0  0  0  0  0  0  0  0  0
    7.9229  -20.1919   23.5537 S   0  0  0  0  0  0  0  0  0  0  0  0
    5.9260  -17.9860   24.5728 C   0  0  0  0  0  0  0  0  0  0  0  0
    5.4692  -17.7206   23.4322 O   0  0  0  0  0  0  0  0  0  0  0  0
    6.0532  -12.4995   26.1799 C   0  0  0  0  0  0  0  0  0  0  0  0
    7.2677  -13.3768   25.9590 C   0  0  1  0  0  0  0  0  0  0  0  0
    8.2764  -12.9177   27.0134 C   0  0  0  0  0  0  0  0  0  0  0  0
    6.9426  -14.8074   26.1017 C   0  0  0  0  0  0  0  0  0  0  0  0
    6.7258  -15.5916   24.8183 C   0  0  2  0  0  0  0  0  0  0  0  0
    6.5371  -16.9777   25.3379 N   0  0  0  0  0  0  0  0  0  0  0  0
    7.9718  -15.6281   24.0392 C   0  0  0  0  0  0  0  0  0  0  0  0
    8.7993  -16.5686   24.3163 O   0  0  0  0  0  0  0  0  0  0  0  0
    8.3591  -14.7383   23.0077 N   0  0  0  0  0  0  0  0  0  0  0  0
    8.1063  -13.3448   22.7724 C   0  0  0  0  0  0  0  0  0  0  0  0
    8.0220  -13.1883   21.2521 C   0  0  0  0  0  0  0  0  0  0  0  0
    8.3393  -14.5575   20.7335 C   0  0  0  0  0  0  0  0  0  0  0  0
    9.1843  -15.1344   21.8456 C   0  0  1  0  0  0  0  0  0  0  0  0
   10.5108  -14.5201   21.9061 C   0  0  0  0  0  0  0  0  0  0  0  0
   11.3668  -14.5131   20.9967 O   0  0  0  0  0  0  0  0  0  0  0  0
   10.8808  -13.8685   23.0924 O   0  0  0  0  0  0  0  0  0  0  0  0
  2  1  1  6
  2  5  1  0
  2  3  1  0
  4  3  1  0
  5  6  2  0
  8  7  1  1
  8 10  1  0
  9  8  1  0
 11 10  1  1
 12 11  1  0
 12  5  1  0
 13 14  2  0
 13 11  1  0
 15 13  1  0
 16 17  1  0
 16 15  1  0
 18 19  1  0
 18 17  1  0
 19 15  1  0
 19 20  1  1
 20 22  1  0
 21 20  2  0
M  END
$$$$
