CLP.pdb
     RDKit          3D

 22 22  0  0  1  0  0  0  0  0999 V2000
    4.7392  -19.4596   24.5487 N   0  0  0  0  0  0  0  0  0  0  0  0
    5.9515  -18.8581   25.0614 C   0  0  1  0  0  0  0  0  0  0  0  0
    7.1292  -19.7066   24.6216 C   0  0  0  0  0  0  0  0  0  0  0  0
    8.6373  -19.2289   25.5048 S   0  0  0  0  0  0  0  0  0  0  0  0
    6.1075  -17.5224   24.4494 C   0  0  0  0  0  0  0  0  0  0  0  0
    5.6642  -17.2959   23.2952 O   0  0  0  0  0  0  0  0  0  0  0  0
    7.5306  -12.8823   27.6462 C   0  0  0  0  0  0  0  0  0  0  0  0
    6.7765  -13.6992   26.6179 C   0  0  1  0  0  0  0  0  0  0  0  0
    5.9372  -12.6775   25.8486 C   0  0  0  0  0  0  0  0  0  0  0  0
    7.6907  -14.4357   25.7266 C   0  0  0  0  0  0  0  0  0  0  0  0
    7.0601  -15.1742   24.5578 C   0  0  2  0  0  0  0  0  0  0  0  0
    6.7563  -16.5024   25.1665 N   0  0  0  0  0  0  0  0  0  0  0  0
    8.0745  -15.4351   23.5265 C   0  0  0  0  0  0  0  0  0  0  0  0
    8.7357  -16.5297   23.6301 O   0  0  0  0  0  0  0  0  0  0  0  0
    8.4002  -14.6099   22.4225 N   0  0  0  0  0  0  0  0  0  0  0  0
    8.1565  -13.2255   22.1311 C   0  0  0  0  0  0  0  0  0  0  0  0
    7.9620  -13.1475   20.6148 C   0  0  0  0  0  0  0  0  0  0  0  0
    8.2144  -14.5490   20.1494 C   0  0  0  0  0  0  0  0  0  0  0  0
    9.1291  -15.0853   21.2262 C   0  0  1  0  0  0  0  0  0  0  0  0
   10.4675  -14.4987   21.1558 C   0  0  0  0  0  0  0  0  0  0  0  0
   10.9548  -13.6660   21.9489 O   0  0  0  0  0  0  0  0  0  0  0  0
   11.3051  -14.8949   20.1021 O   0  0  0  0  0  0  0  0  0  0  0  0
  2  1  1  6
  2  5  1  0
  2  3  1  0
  4  3  1  0
  5  6  2  0
  8  7  1  1
  8 10  1  0
  9  8  1  0
 11 10  1  1
 12 11  1  0
 12  5  1  0
 13 14  2  0
 13 11  1  0
 15 13  1  0
 16 17  1  0
 16 15  1  0
 18 19  1  0
 18 17  1  0
 19 15  1  0
 19 20  1  6
 20 22  1  0
 21 20  2  0
M  END
$$$$
