CLP.pdb
     RDKit          3D

 22 22  0  0  1  0  0  0  0  0999 V2000
    4.6110  -19.7728   23.9004 N   0  0  0  0  0  0  0  0  0  0  0  0
    5.8602  -19.1983   24.3519 C   0  0  1  0  0  0  0  0  0  0  0  0
    6.9933  -19.8596   23.5908 C   0  0  0  0  0  0  0  0  0  0  0  0
    8.3196  -20.3674   24.7159 S   0  0  0  0  0  0  0  0  0  0  0  0
    5.8671  -17.7614   24.0077 C   0  0  0  0  0  0  0  0  0  0  0  0
    5.2730  -17.3509   22.9789 O   0  0  0  0  0  0  0  0  0  0  0  0
    6.2134  -12.5180   26.1357 C   0  0  0  0  0  0  0  0  0  0  0  0
    7.4250  -13.3555   25.7835 C   0  0  1  0  0  0  0  0  0  0  0  0
    8.4681  -12.9957   26.8430 C   0  0  0  0  0  0  0  0  0  0  0  0
    7.1150  -14.7966   25.7908 C   0  0  0  0  0  0  0  0  0  0  0  0
    6.7398  -15.4229   24.4581 C   0  0  2  0  0  0  0  0  0  0  0  0
    6.5437  -16.8523   24.8392 N   0  0  0  0  0  0  0  0  0  0  0  0
    7.9006  -15.4102   23.5563 C   0  0  0  0  0  0  0  0  0  0  0  0
    8.7152  -16.3970   23.6491 O   0  0  0  0  0  0  0  0  0  0  0  0
    8.2174  -14.4268   22.5877 N   0  0  0  0  0  0  0  0  0  0  0  0
    7.9233  -13.0254   22.4848 C   0  0  0  0  0  0  0  0  0  0  0  0
    7.7611  -12.7431   20.9892 C   0  0  0  0  0  0  0  0  0  0  0  0
    8.0819  -14.0549   20.3408 C   0  0  0  0  0  0  0  0  0  0  0  0
    8.9928  -14.7020   21.3583 C   0  0  1  0  0  0  0  0  0  0  0  0
   10.3071  -14.0611   21.4087 C   0  0  0  0  0  0  0  0  0  0  0  0
   11.1376  -13.9986   20.4780 O   0  0  0  0  0  0  0  0  0  0  0  0
   10.6956  -13.4496   22.6102 O   0  0  0  0  0  0  0  0  0  0  0  0
  2  1  1  6
  2  5  1  0
  2  3  1  0
  4  3  1  0
  5  6  2  0
  8  7  1  1
  8 10  1  0
  9  8  1  0
 11 10  1  1
 12 11  1  0
 12  5  1  0
 13 14  2  0
 13 11  1  0
 15 13  1  0
 16 17  1  0
 16 15  1  0
 18 19  1  0
 18 17  1  0
 19 15  1  0
 19 20  1  1
 20 22  1  0
 21 20  2  0
M  END
$$$$
