CLP.pdb
     RDKit          3D

 22 22  0  0  1  0  0  0  0  0999 V2000
    9.7649  -15.8601   20.2731 N   0  0  0  0  0  0  0  0  0  0  0  0
    8.9657  -16.2730   21.4068 C   0  0  1  0  0  0  0  0  0  0  0  0
    9.3368  -17.7010   21.7586 C   0  0  0  0  0  0  0  0  0  0  0  0
    8.3041  -18.3243   23.1105 S   0  0  0  0  0  0  0  0  0  0  0  0
    9.3153  -15.4210   22.5622 C   0  0  0  0  0  0  0  0  0  0  0  0
   10.5077  -15.0770   22.7612 O   0  0  0  0  0  0  0  0  0  0  0  0
    7.7497  -11.4189   26.0794 C   0  0  0  0  0  0  0  0  0  0  0  0
    7.1779  -12.8116   26.2435 C   0  0  1  0  0  0  0  0  0  0  0  0
    5.7244  -12.5883   26.6649 C   0  0  0  0  0  0  0  0  0  0  0  0
    7.2703  -13.5916   24.9962 C   0  0  0  0  0  0  0  0  0  0  0  0
    8.6074  -14.2488   24.6972 C   0  0  2  0  0  0  0  0  0  0  0  0
    8.3044  -14.9954   23.4411 N   0  0  0  0  0  0  0  0  0  0  0  0
    8.8954  -15.2766   25.7079 C   0  0  0  0  0  0  0  0  0  0  0  0
    8.5257  -16.4746   25.4354 O   0  0  0  0  0  0  0  0  0  0  0  0
    9.5441  -15.0903   26.9529 N   0  0  0  0  0  0  0  0  0  0  0  0
    9.5692  -14.0022   27.8891 C   0  0  0  0  0  0  0  0  0  0  0  0
   10.9696  -14.0175   28.5071 C   0  0  0  0  0  0  0  0  0  0  0  0
   11.6143  -15.2269   27.9020 C   0  0  0  0  0  0  0  0  0  0  0  0
   10.4230  -16.1000   27.5825 C   0  0  1  0  0  0  0  0  0  0  0  0
    9.8082  -16.6572   28.7876 C   0  0  0  0  0  0  0  0  0  0  0  0
   10.3453  -17.4388   29.6004 O   0  0  0  0  0  0  0  0  0  0  0  0
    8.4855  -16.2924   29.0805 O   0  0  0  0  0  0  0  0  0  0  0  0
  2  1  1  6
  2  5  1  0
  2  3  1  0
  4  3  1  0
  5  6  2  0
  8  7  1  6
  8 10  1  0
  9  8  1  0
 11 10  1  1
 12 11  1  0
 12  5  1  0
 13 14  2  0
 13 11  1  0
 15 13  1  0
 16 17  1  0
 16 15  1  0
 18 19  1  0
 18 17  1  0
 19 15  1  0
 19 20  1  1
 20 22  1  0
 21 20  2  0
M  END
$$$$
