CLP.pdb
     RDKit          3D

 22 22  0  0  1  0  0  0  0  0999 V2000
    9.8183  -15.6978   20.1683 N   0  0  0  0  0  0  0  0  0  0  0  0
    9.0398  -16.2178   21.2719 C   0  0  1  0  0  0  0  0  0  0  0  0
    9.4678  -17.6506   21.5257 C   0  0  0  0  0  0  0  0  0  0  0  0
    8.5331  -18.3721   22.8998 S   0  0  0  0  0  0  0  0  0  0  0  0
    9.3596  -15.4330   22.4822 C   0  0  0  0  0  0  0  0  0  0  0  0
   10.5308  -15.0235   22.6837 O   0  0  0  0  0  0  0  0  0  0  0  0
    7.5492  -11.5181   25.9676 C   0  0  0  0  0  0  0  0  0  0  0  0
    7.0774  -12.9469   26.1386 C   0  0  1  0  0  0  0  0  0  0  0  0
    5.6091  -12.8253   26.5502 C   0  0  0  0  0  0  0  0  0  0  0  0
    7.2329  -13.7268   24.8975 C   0  0  0  0  0  0  0  0  0  0  0  0
    8.5992  -14.3409   24.6414 C   0  0  2  0  0  0  0  0  0  0  0  0
    8.3443  -15.1454   23.4107 N   0  0  0  0  0  0  0  0  0  0  0  0
    8.9124  -15.3179   25.6941 C   0  0  0  0  0  0  0  0  0  0  0  0
    8.6505  -16.5474   25.4378 O   0  0  0  0  0  0  0  0  0  0  0  0
    9.4793  -15.0509   26.9642 N   0  0  0  0  0  0  0  0  0  0  0  0
    9.3151  -13.9762   27.9017 C   0  0  0  0  0  0  0  0  0  0  0  0
   10.6785  -13.7995   28.5748 C   0  0  0  0  0  0  0  0  0  0  0  0
   11.5094  -14.9028   27.9946 C   0  0  0  0  0  0  0  0  0  0  0  0
   10.4656  -15.9319   27.6271 C   0  0  1  0  0  0  0  0  0  0  0  0
    9.8882  -16.5775   28.8062 C   0  0  0  0  0  0  0  0  0  0  0  0
    8.7176  -16.4501   29.2227 O   0  0  0  0  0  0  0  0  0  0  0  0
   10.7108  -17.4284   29.5598 O   0  0  0  0  0  0  0  0  0  0  0  0
  2  1  1  6
  2  5  1  0
  2  3  1  0
  4  3  1  0
  5  6  2  0
  8  7  1  6
  8 10  1  0
  9  8  1  0
 11 10  1  1
 12 11  1  0
 12  5  1  0
 13 14  2  0
 13 11  1  0
 15 13  1  0
 16 17  1  0
 16 15  1  0
 18 19  1  0
 18 17  1  0
 19 15  1  0
 19 20  1  1
 20 22  1  0
 21 20  2  0
M  END
$$$$
