CLP.pdb
     RDKit          3D

 22 22  0  0  1  0  0  0  0  0999 V2000
    9.4006  -15.6811   20.5476 N   0  0  0  0  0  0  0  0  0  0  0  0
    8.5320  -16.0408   21.6479 C   0  0  1  0  0  0  0  0  0  0  0  0
    8.7565  -17.5046   21.9755 C   0  0  0  0  0  0  0  0  0  0  0  0
   10.5197  -17.8546   22.2020 S   0  0  0  0  0  0  0  0  0  0  0  0
    8.9244  -15.2505   22.8330 C   0  0  0  0  0  0  0  0  0  0  0  0
   10.0497  -14.6924   22.8812 O   0  0  0  0  0  0  0  0  0  0  0  0
    5.1452  -12.6468   26.2179 C   0  0  0  0  0  0  0  0  0  0  0  0
    6.3611  -12.9422   25.3649 C   0  0  1  0  0  0  0  0  0  0  0  0
    7.2502  -11.7063   25.5134 C   0  0  0  0  0  0  0  0  0  0  0  0
    7.0529  -14.1676   25.8038 C   0  0  0  0  0  0  0  0  0  0  0  0
    8.4117  -14.4462   25.1832 C   0  0  2  0  0  0  0  0  0  0  0  0
    8.0303  -15.1252   23.9102 N   0  0  0  0  0  0  0  0  0  0  0  0
    9.1230  -15.4607   25.9742 C   0  0  0  0  0  0  0  0  0  0  0  0
    9.2863  -16.6099   25.4274 O   0  0  0  0  0  0  0  0  0  0  0  0
    9.6554  -15.3070   27.2775 N   0  0  0  0  0  0  0  0  0  0  0  0
    9.3678  -14.3972   28.3501 C   0  0  0  0  0  0  0  0  0  0  0  0
   10.7016  -14.1588   29.0622 C   0  0  0  0  0  0  0  0  0  0  0  0
   11.6549  -15.0691   28.3502 C   0  0  0  0  0  0  0  0  0  0  0  0
   10.7375  -16.1513   27.8295 C   0  0  1  0  0  0  0  0  0  0  0  0
   10.2392  -17.0146   28.9005 C   0  0  0  0  0  0  0  0  0  0  0  0
    9.0668  -17.0642   29.3279 O   0  0  0  0  0  0  0  0  0  0  0  0
   11.1494  -17.8813   29.5244 O   0  0  0  0  0  0  0  0  0  0  0  0
  2  1  1  6
  2  5  1  0
  2  3  1  0
  4  3  1  0
  5  6  2  0
  8  7  1  1
  8 10  1  0
  9  8  1  0
 11 10  1  1
 12 11  1  0
 12  5  1  0
 13 14  2  0
 13 11  1  0
 15 13  1  0
 16 17  1  0
 16 15  1  0
 18 19  1  0
 18 17  1  0
 19 15  1  0
 19 20  1  1
 20 22  1  0
 21 20  2  0
M  END
$$$$
