CLP.pdb
     RDKit          3D

 22 22  0  0  1  0  0  0  0  0999 V2000
    5.0559  -20.1107   24.6699 N   0  0  0  0  0  0  0  0  0  0  0  0
    5.8102  -19.2756   25.5799 C   0  0  1  0  0  0  0  0  0  0  0  0
    7.1261  -19.9663   25.8833 C   0  0  0  0  0  0  0  0  0  0  0  0
    6.9196  -21.2108   27.1837 S   0  0  0  0  0  0  0  0  0  0  0  0
    6.1190  -18.0008   24.8998 C   0  0  0  0  0  0  0  0  0  0  0  0
    6.0993  -17.9282   23.6451 O   0  0  0  0  0  0  0  0  0  0  0  0
    6.3984  -12.3181   25.3395 C   0  0  0  0  0  0  0  0  0  0  0  0
    7.3454  -13.2798   26.0262 C   0  0  1  0  0  0  0  0  0  0  0  0
    7.6631  -12.6205   27.3696 C   0  0  0  0  0  0  0  0  0  0  0  0
    6.7399  -14.6121   26.2024 C   0  0  0  0  0  0  0  0  0  0  0  0
    6.8675  -15.5814   25.0390 C   0  0  2  0  0  0  0  0  0  0  0  0
    6.4360  -16.8654   25.6652 N   0  0  0  0  0  0  0  0  0  0  0  0
    8.2849  -15.7658   24.6963 C   0  0  0  0  0  0  0  0  0  0  0  0
    8.9613  -16.5606   25.4426 O   0  0  0  0  0  0  0  0  0  0  0  0
    8.9885  -15.1643   23.6244 N   0  0  0  0  0  0  0  0  0  0  0  0
    8.8229  -13.9245   22.9197 C   0  0  0  0  0  0  0  0  0  0  0  0
    9.2456  -14.2071   21.4759 C   0  0  0  0  0  0  0  0  0  0  0  0
    9.7213  -15.6272   21.5140 C   0  0  0  0  0  0  0  0  0  0  0  0
   10.1530  -15.7829   22.9539 C   0  0  1  0  0  0  0  0  0  0  0  0
   11.3826  -15.0452   23.2441 C   0  0  0  0  0  0  0  0  0  0  0  0
   11.4848  -14.0264   23.9594 O   0  0  0  0  0  0  0  0  0  0  0  0
   12.5781  -15.5083   22.6740 O   0  0  0  0  0  0  0  0  0  0  0  0
  2  1  1  6
  2  5  1  0
  2  3  1  0
  4  3  1  0
  5  6  2  0
  8  7  1  1
  8 10  1  0
  9  8  1  0
 11 10  1  1
 12 11  1  0
 12  5  1  0
 13 14  2  0
 13 11  1  0
 15 13  1  0
 16 17  1  0
 16 15  1  0
 18 19  1  0
 18 17  1  0
 19 15  1  0
 19 20  1  6
 20 22  1  0
 21 20  2  0
M  END
$$$$
