CLP.pdb
     RDKit          3D

 22 22  0  0  1  0  0  0  0  0999 V2000
   10.1295  -16.1027   20.3457 N   0  0  0  0  0  0  0  0  0  0  0  0
    9.2610  -16.5103   21.4292 C   0  0  1  0  0  0  0  0  0  0  0  0
    9.6351  -17.9227   21.8364 C   0  0  0  0  0  0  0  0  0  0  0  0
    8.7901  -19.1419   20.7962 S   0  0  0  0  0  0  0  0  0  0  0  0
    9.5110  -15.6282   22.5878 C   0  0  0  0  0  0  0  0  0  0  0  0
   10.6456  -15.1171   22.7650 O   0  0  0  0  0  0  0  0  0  0  0  0
    7.4030  -11.7668   26.0162 C   0  0  0  0  0  0  0  0  0  0  0  0
    7.0632  -13.2303   26.2057 C   0  0  1  0  0  0  0  0  0  0  0  0
    5.5961  -13.2362   26.6389 C   0  0  0  0  0  0  0  0  0  0  0  0
    7.2695  -14.0047   24.9685 C   0  0  0  0  0  0  0  0  0  0  0  0
    8.6741  -14.5254   24.7131 C   0  0  2  0  0  0  0  0  0  0  0  0
    8.4704  -15.3623   23.4944 N   0  0  0  0  0  0  0  0  0  0  0  0
    9.0595  -15.4639   25.7767 C   0  0  0  0  0  0  0  0  0  0  0  0
    8.9111  -16.7135   25.5266 O   0  0  0  0  0  0  0  0  0  0  0  0
    9.5844  -15.1395   27.0514 N   0  0  0  0  0  0  0  0  0  0  0  0
    9.3336  -14.0624   27.9668 C   0  0  0  0  0  0  0  0  0  0  0  0
   10.6700  -13.7859   28.6601 C   0  0  0  0  0  0  0  0  0  0  0  0
   11.5814  -14.8421   28.1140 C   0  0  0  0  0  0  0  0  0  0  0  0
   10.6135  -15.9431   27.7468 C   0  0  1  0  0  0  0  0  0  0  0  0
   10.0576  -16.6054   28.9271 C   0  0  0  0  0  0  0  0  0  0  0  0
   10.6894  -17.2876   29.7609 O   0  0  0  0  0  0  0  0  0  0  0  0
    8.6813  -16.4760   29.1674 O   0  0  0  0  0  0  0  0  0  0  0  0
  2  1  1  6
  2  5  1  0
  2  3  1  0
  4  3  1  0
  5  6  2  0
  8  7  1  6
  8 10  1  0
  9  8  1  0
 11 10  1  1
 12 11  1  0
 12  5  1  0
 13 14  2  0
 13 11  1  0
 15 13  1  0
 16 17  1  0
 16 15  1  0
 18 19  1  0
 18 17  1  0
 19 15  1  0
 19 20  1  1
 20 22  1  0
 21 20  2  0
M  END
$$$$
