AFV.pdb
     RDKit          3D

 24 24  0  0  1  0  0  0  0  0999 V2000
    7.9628  -18.2575   19.8119 C   0  0  0  0  0  0  0  0  0  0  0  0
    8.2540  -16.8186   19.5033 C   0  0  2  0  0  0  0  0  0  0  0  0
    9.2309  -16.6635   18.4477 N   0  0  0  0  0  0  0  0  0  0  0  0
    8.7411  -16.1707   20.7677 C   0  0  0  0  0  0  0  0  0  0  0  0
    9.9553  -16.1422   21.0665 O   0  0  0  0  0  0  0  0  0  0  0  0
    7.8021  -15.5843   21.6306 N   0  0  0  0  0  0  0  0  0  0  0  0
    8.1500  -14.9919   22.9151 C   0  0  1  0  0  0  0  0  0  0  0  0
    6.9940  -14.1212   23.3097 C   0  0  0  0  0  0  0  0  0  0  0  0
    7.1426  -13.4946   24.6475 C   0  0  0  0  0  0  0  0  0  0  0  0
    8.0210  -12.4603   24.8565 C   0  0  0  0  0  0  0  0  0  0  0  0
    8.1887  -11.8481   26.0900 C   0  0  0  0  0  0  0  0  0  0  0  0
    7.4469  -12.2871   27.1641 C   0  0  0  0  0  0  0  0  0  0  0  0
    6.5589  -13.3255   26.9737 C   0  0  0  0  0  0  0  0  0  0  0  0
    6.4021  -13.9257   25.7402 C   0  0  0  0  0  0  0  0  0  0  0  0
    8.5391  -15.9851   23.9088 C   0  0  0  0  0  0  0  0  0  0  0  0
    7.7997  -16.9764   24.1334 O   0  0  0  0  0  0  0  0  0  0  0  0
   12.1699  -18.4584   26.1198 C   0  0  0  0  0  0  0  0  0  0  0  0
   11.6513  -17.3635   25.2187 C   0  0  1  0  0  0  0  0  0  0  0  0
   11.8342  -17.7782   23.7932 C   0  0  0  0  0  0  0  0  0  0  0  0
   10.1903  -17.0546   25.4717 C   0  0  2  0  0  0  0  0  0  0  0  0
    9.7467  -15.9222   24.6843 N   0  0  0  0  0  0  0  0  0  0  0  0
    9.9891  -16.7605   26.9000 C   0  0  0  0  0  0  0  0  0  0  0  0
   10.1314  -15.5968   27.3417 O   0  0  0  0  0  0  0  0  0  0  0  0
    9.6353  -17.7338   27.8344 O   0  0  0  0  0  0  0  0  0  0  0  0
  2  1  1  1
  2  3  1  0
  4  2  1  0
  4  5  2  0
  6  4  1  0
  7  6  1  0
  7  8  1  1
  9 14  2  0
  9  8  1  0
 10  9  1  0
 11 10  2  0
 11 12  1  0
 12 13  2  0
 13 14  1  0
 15  7  1  0
 16 15  2  0
 18 17  1  1
 19 18  1  0
 20 18  1  0
 20 21  1  6
 21 15  1  0
 22 20  1  0
 22 24  1  0
 23 22  2  0
M  END
$$$$
