AFV.pdb
     RDKit          3D

 24 24  0  0  1  0  0  0  0  0999 V2000
    8.1281  -17.9850   19.7963 C   0  0  0  0  0  0  0  0  0  0  0  0
    8.5896  -16.5714   19.5980 C   0  0  2  0  0  0  0  0  0  0  0  0
    9.6947  -16.4727   18.6699 N   0  0  0  0  0  0  0  0  0  0  0  0
    8.9831  -16.0276   20.9415 C   0  0  0  0  0  0  0  0  0  0  0  0
   10.1588  -16.1010   21.3620 O   0  0  0  0  0  0  0  0  0  0  0  0
    7.9993  -15.4229   21.7395 N   0  0  0  0  0  0  0  0  0  0  0  0
    8.2650  -14.8628   23.0577 C   0  0  1  0  0  0  0  0  0  0  0  0
    7.1094  -13.9619   23.3785 C   0  0  0  0  0  0  0  0  0  0  0  0
    7.1876  -13.3400   24.7245 C   0  0  0  0  0  0  0  0  0  0  0  0
    8.1629  -12.4234   25.0304 C   0  0  0  0  0  0  0  0  0  0  0  0
    8.2698  -11.8197   26.2749 C   0  0  0  0  0  0  0  0  0  0  0  0
    7.3629  -12.1446   27.2591 C   0  0  0  0  0  0  0  0  0  0  0  0
    6.3755  -13.0638   26.9705 C   0  0  0  0  0  0  0  0  0  0  0  0
    6.2810  -13.6570   25.7273 C   0  0  0  0  0  0  0  0  0  0  0  0
    8.5453  -15.8840   24.0597 C   0  0  0  0  0  0  0  0  0  0  0  0
    7.7190  -16.8080   24.2674 O   0  0  0  0  0  0  0  0  0  0  0  0
   11.8315  -18.6219   26.5027 C   0  0  0  0  0  0  0  0  0  0  0  0
   11.4634  -17.5201   25.5381 C   0  0  1  0  0  0  0  0  0  0  0  0
   11.6667  -18.0094   24.1392 C   0  0  0  0  0  0  0  0  0  0  0  0
   10.0304  -17.0608   25.7097 C   0  0  2  0  0  0  0  0  0  0  0  0
    9.7362  -15.9232   24.8622 N   0  0  0  0  0  0  0  0  0  0  0  0
    9.7964  -16.6916   27.1154 C   0  0  0  0  0  0  0  0  0  0  0  0
    9.9959  -15.5203   27.5129 O   0  0  0  0  0  0  0  0  0  0  0  0
    9.3479  -17.5985   28.0754 O   0  0  0  0  0  0  0  0  0  0  0  0
  2  1  1  1
  2  3  1  0
  4  2  1  0
  4  5  2  0
  6  4  1  0
  7  6  1  0
  7  8  1  1
  9 14  2  0
  9  8  1  0
 10  9  1  0
 11 10  2  0
 11 12  1  0
 12 13  2  0
 13 14  1  0
 15  7  1  0
 16 15  2  0
 18 17  1  1
 19 18  1  0
 20 18  1  0
 20 21  1  6
 21 15  1  0
 22 20  1  0
 22 24  1  0
 23 22  2  0
M  END
$$$$
