AFV.pdb
     RDKit          3D

 24 24  0  0  1  0  0  0  0  0999 V2000
    7.7848  -17.3747   19.3844 C   0  0  0  0  0  0  0  0  0  0  0  0
    8.0735  -15.9039   19.3218 C   0  0  2  0  0  0  0  0  0  0  0  0
    9.0515  -15.5724   18.3088 N   0  0  0  0  0  0  0  0  0  0  0  0
    8.5575  -15.4763   20.6777 C   0  0  0  0  0  0  0  0  0  0  0  0
    9.7661  -15.5373   20.9940 O   0  0  0  0  0  0  0  0  0  0  0  0
    7.6222  -14.9968   21.6080 N   0  0  0  0  0  0  0  0  0  0  0  0
    7.9757  -14.5588   22.9515 C   0  0  1  0  0  0  0  0  0  0  0  0
    6.8400  -13.7061   23.4342 C   0  0  0  0  0  0  0  0  0  0  0  0
    7.0428  -13.1490   24.7955 C   0  0  0  0  0  0  0  0  0  0  0  0
    6.4286  -13.7034   25.8911 C   0  0  0  0  0  0  0  0  0  0  0  0
    6.5925  -13.2134   27.1786 C   0  0  0  0  0  0  0  0  0  0  0  0
    7.4059  -12.1210   27.3830 C   0  0  0  0  0  0  0  0  0  0  0  0
    8.0317  -11.5501   26.2942 C   0  0  0  0  0  0  0  0  0  0  0  0
    7.8595  -12.0483   25.0180 C   0  0  0  0  0  0  0  0  0  0  0  0
    8.3312  -15.6653   23.8316 C   0  0  0  0  0  0  0  0  0  0  0  0
    7.6263  -16.7057   23.8536 O   0  0  0  0  0  0  0  0  0  0  0  0
   11.7640  -18.4394   25.8944 C   0  0  0  0  0  0  0  0  0  0  0  0
   11.2977  -17.2415   25.1023 C   0  0  1  0  0  0  0  0  0  0  0  0
   11.4232  -17.5437   23.6427 C   0  0  0  0  0  0  0  0  0  0  0  0
    9.8653  -16.8650   25.4192 C   0  0  2  0  0  0  0  0  0  0  0  0
    9.4666  -15.6651   24.7117 N   0  0  0  0  0  0  0  0  0  0  0  0
    9.7229  -16.6438   26.8675 C   0  0  0  0  0  0  0  0  0  0  0  0
   10.0177  -15.5392   27.3799 O   0  0  0  0  0  0  0  0  0  0  0  0
    9.2615  -17.6249   27.7450 O   0  0  0  0  0  0  0  0  0  0  0  0
  2  1  1  1
  2  3  1  0
  4  2  1  0
  4  5  2  0
  6  4  1  0
  7  6  1  0
  7  8  1  1
  9 14  2  0
  9  8  1  0
 10  9  1  0
 11 10  2  0
 11 12  1  0
 12 13  2  0
 13 14  1  0
 15  7  1  0
 16 15  2  0
 18 17  1  1
 19 18  1  0
 20 18  1  0
 20 21  1  6
 21 15  1  0
 22 20  1  0
 22 24  1  0
 23 22  2  0
M  END
$$$$
