AFV.pdb
     RDKit          3D

 24 24  0  0  1  0  0  0  0  0999 V2000
   10.2934  -16.2521   19.1580 C   0  0  0  0  0  0  0  0  0  0  0  0
    9.9512  -17.1046   20.3440 C   0  0  2  0  0  0  0  0  0  0  0  0
    8.6575  -17.7392   20.2173 N   0  0  0  0  0  0  0  0  0  0  0  0
    9.9875  -16.2268   21.5621 C   0  0  0  0  0  0  0  0  0  0  0  0
   11.0306  -15.6331   21.9140 O   0  0  0  0  0  0  0  0  0  0  0  0
    8.8155  -16.0744   22.3195 N   0  0  0  0  0  0  0  0  0  0  0  0
    8.7342  -15.2521   23.5191 C   0  0  1  0  0  0  0  0  0  0  0  0
    7.3499  -14.6751   23.5469 C   0  0  0  0  0  0  0  0  0  0  0  0
    7.0824  -13.8109   24.7243 C   0  0  0  0  0  0  0  0  0  0  0  0
    7.5734  -12.5307   24.7948 C   0  0  0  0  0  0  0  0  0  0  0  0
    7.3456  -11.6919   25.8760 C   0  0  0  0  0  0  0  0  0  0  0  0
    6.5942  -12.1503   26.9352 C   0  0  0  0  0  0  0  0  0  0  0  0
    6.0922  -13.4343   26.8826 C   0  0  0  0  0  0  0  0  0  0  0  0
    6.3268  -14.2584   25.7999 C   0  0  0  0  0  0  0  0  0  0  0  0
    9.1248  -15.9718   24.7253 C   0  0  0  0  0  0  0  0  0  0  0  0
    8.6175  -17.0923   24.9837 O   0  0  0  0  0  0  0  0  0  0  0  0
   12.9510  -16.1234   26.0209 C   0  0  0  0  0  0  0  0  0  0  0  0
   11.9719  -15.9658   27.1595 C   0  0  1  0  0  0  0  0  0  0  0  0
   12.0036  -14.5484   27.6365 C   0  0  0  0  0  0  0  0  0  0  0  0
   10.5585  -16.3321   26.7570 C   0  0  2  0  0  0  0  0  0  0  0  0
   10.0805  -15.4867   25.6818 N   0  0  0  0  0  0  0  0  0  0  0  0
    9.6639  -16.1927   27.9177 C   0  0  0  0  0  0  0  0  0  0  0  0
    8.8446  -15.2474   27.9864 O   0  0  0  0  0  0  0  0  0  0  0  0
    9.6682  -17.0819   28.9923 O   0  0  0  0  0  0  0  0  0  0  0  0
  2  1  1  6
  2  3  1  0
  4  2  1  0
  4  5  2  0
  6  4  1  0
  7  6  1  0
  7  8  1  1
  9 14  2  0
  9  8  1  0
 10  9  1  0
 11 10  2  0
 11 12  1  0
 12 13  2  0
 13 14  1  0
 15  7  1  0
 16 15  2  0
 18 17  1  6
 19 18  1  0
 20 18  1  0
 20 21  1  6
 21 15  1  0
 22 20  1  0
 22 24  1  0
 23 22  2  0
M  END
$$$$
