AFV.pdb
     RDKit          3D

 24 24  0  0  1  0  0  0  0  0999 V2000
    6.5501  -20.9167   22.6252 C   0  0  0  0  0  0  0  0  0  0  0  0
    5.6388  -19.9308   23.2946 C   0  0  2  0  0  0  0  0  0  0  0  0
    4.3708  -19.7940   22.6120 N   0  0  0  0  0  0  0  0  0  0  0  0
    6.3529  -18.6105   23.3438 C   0  0  0  0  0  0  0  0  0  0  0  0
    6.8852  -18.1124   22.3274 O   0  0  0  0  0  0  0  0  0  0  0  0
    6.4198  -17.9244   24.5665 N   0  0  0  0  0  0  0  0  0  0  0  0
    7.0972  -16.6460   24.7356 C   0  0  1  0  0  0  0  0  0  0  0  0
    6.3813  -15.9275   25.8407 C   0  0  0  0  0  0  0  0  0  0  0  0
    6.9042  -14.5639   26.1089 C   0  0  0  0  0  0  0  0  0  0  0  0
    8.0466  -14.3708   26.8454 C   0  0  0  0  0  0  0  0  0  0  0  0
    8.5676  -13.1142   27.1175 C   0  0  0  0  0  0  0  0  0  0  0  0
    7.9201  -11.9993   26.6331 C   0  0  0  0  0  0  0  0  0  0  0  0
    6.7704  -12.1733   25.8908 C   0  0  0  0  0  0  0  0  0  0  0  0
    6.2630  -13.4302   25.6277 C   0  0  0  0  0  0  0  0  0  0  0  0
    8.5355  -16.7893   24.9258 C   0  0  0  0  0  0  0  0  0  0  0  0
    8.9889  -17.7283   25.6275 O   0  0  0  0  0  0  0  0  0  0  0  0
   12.8506  -16.0620   22.5520 C   0  0  0  0  0  0  0  0  0  0  0  0
   11.4551  -15.5965   22.8922 C   0  0  1  0  0  0  0  0  0  0  0  0
   10.5878  -15.7310   21.6809 C   0  0  0  0  0  0  0  0  0  0  0  0
   10.8501  -16.3823   24.0368 C   0  0  2  0  0  0  0  0  0  0  0  0
    9.5176  -15.9103   24.3544 N   0  0  0  0  0  0  0  0  0  0  0  0
   11.7059  -16.2559   25.2279 C   0  0  0  0  0  0  0  0  0  0  0  0
   11.3919  -15.4858   26.1648 O   0  0  0  0  0  0  0  0  0  0  0  0
   12.8946  -16.9676   25.3893 O   0  0  0  0  0  0  0  0  0  0  0  0
  2  1  1  6
  2  3  1  0
  4  2  1  0
  4  5  2  0
  6  4  1  0
  7  6  1  0
  7  8  1  1
  9 14  2  0
  9  8  1  0
 10  9  1  0
 11 10  2  0
 11 12  1  0
 12 13  2  0
 13 14  1  0
 15  7  1  0
 16 15  2  0
 18 17  1  6
 19 18  1  0
 20 18  1  0
 20 21  1  1
 21 15  1  0
 22 20  1  0
 22 24  1  0
 23 22  2  0
M  END
$$$$
