AFV.pdb
     RDKit          3D

 24 24  0  0  1  0  0  0  0  0999 V2000
    7.7119  -13.2646   18.5355 C   0  0  0  0  0  0  0  0  0  0  0  0
    7.9666  -14.5680   19.2331 C   0  0  2  0  0  0  0  0  0  0  0  0
    6.8008  -15.4241   19.2541 N   0  0  0  0  0  0  0  0  0  0  0  0
    8.4134  -14.2563   20.6327 C   0  0  0  0  0  0  0  0  0  0  0  0
    9.5267  -13.7366   20.8673 O   0  0  0  0  0  0  0  0  0  0  0  0
    7.5527  -14.5594   21.6993 N   0  0  0  0  0  0  0  0  0  0  0  0
    7.9076  -14.3673   23.0989 C   0  0  1  0  0  0  0  0  0  0  0  0
    6.6695  -13.8761   23.7887 C   0  0  0  0  0  0  0  0  0  0  0  0
    6.8941  -13.4442   25.1914 C   0  0  0  0  0  0  0  0  0  0  0  0
    6.8379  -12.1192   25.5468 C   0  0  0  0  0  0  0  0  0  0  0  0
    7.0412  -11.6752   26.8453 C   0  0  0  0  0  0  0  0  0  0  0  0
    7.3128  -12.5940   27.8346 C   0  0  0  0  0  0  0  0  0  0  0  0
    7.3733  -13.9302   27.4968 C   0  0  0  0  0  0  0  0  0  0  0  0
    7.1689  -14.3581   26.2000 C   0  0  0  0  0  0  0  0  0  0  0  0
    8.5156  -15.5505   23.6955 C   0  0  0  0  0  0  0  0  0  0  0  0
    7.9496  -16.6684   23.5973 O   0  0  0  0  0  0  0  0  0  0  0  0
   12.5008  -18.1125   24.9267 C   0  0  0  0  0  0  0  0  0  0  0  0
   11.8189  -16.8655   24.4167 C   0  0  1  0  0  0  0  0  0  0  0  0
   11.8858  -16.8502   22.9224 C   0  0  0  0  0  0  0  0  0  0  0  0
   10.3729  -16.7795   24.8588 C   0  0  2  0  0  0  0  0  0  0  0  0
    9.7586  -15.5444   24.4155 N   0  0  0  0  0  0  0  0  0  0  0  0
   10.3011  -16.8570   26.3271 C   0  0  0  0  0  0  0  0  0  0  0  0
   10.5275  -15.8482   27.0347 O   0  0  0  0  0  0  0  0  0  0  0  0
    9.9840  -18.0299   27.0121 O   0  0  0  0  0  0  0  0  0  0  0  0
  2  1  1  1
  2  3  1  0
  4  2  1  0
  4  5  2  0
  6  4  1  0
  7  6  1  0
  7  8  1  1
  9 14  2  0
  9  8  1  0
 10  9  1  0
 11 10  2  0
 11 12  1  0
 12 13  2  0
 13 14  1  0
 15  7  1  0
 16 15  2  0
 18 17  1  6
 19 18  1  0
 20 18  1  0
 20 21  1  1
 21 15  1  0
 22 20  1  0
 22 24  1  0
 23 22  2  0
M  END
$$$$
