AFV.pdb
     RDKit          3D

 24 24  0  0  1  0  0  0  0  0999 V2000
    8.6018  -18.3850   20.1754 C   0  0  0  0  0  0  0  0  0  0  0  0
    8.8547  -16.9305   19.9095 C   0  0  2  0  0  0  0  0  0  0  0  0
    9.9061  -16.7177   18.9389 N   0  0  0  0  0  0  0  0  0  0  0  0
    9.2096  -16.2829   21.2173 C   0  0  0  0  0  0  0  0  0  0  0  0
   10.3972  -16.1632   21.5910 O   0  0  0  0  0  0  0  0  0  0  0  0
    8.1750  -15.8022   22.0351 N   0  0  0  0  0  0  0  0  0  0  0  0
    8.4019  -15.1218   23.3029 C   0  0  1  0  0  0  0  0  0  0  0  0
    7.1839  -14.2854   23.5614 C   0  0  0  0  0  0  0  0  0  0  0  0
    7.1960  -13.5960   24.8764 C   0  0  0  0  0  0  0  0  0  0  0  0
    7.9502  -12.4674   25.0824 C   0  0  0  0  0  0  0  0  0  0  0  0
    7.9884  -11.7942   26.2948 C   0  0  0  0  0  0  0  0  0  0  0  0
    7.2406  -12.2678   27.3499 C   0  0  0  0  0  0  0  0  0  0  0  0
    6.4763  -13.4009   27.1621 C   0  0  0  0  0  0  0  0  0  0  0  0
    6.4478  -14.0610   25.9497 C   0  0  0  0  0  0  0  0  0  0  0  0
    8.7592  -16.0373   24.3798 C   0  0  0  0  0  0  0  0  0  0  0  0
    8.0468  -17.0462   24.6128 O   0  0  0  0  0  0  0  0  0  0  0  0
   12.3791  -18.3191   26.7415 C   0  0  0  0  0  0  0  0  0  0  0  0
   11.8467  -17.2390   25.8305 C   0  0  1  0  0  0  0  0  0  0  0  0
   12.0548  -17.6546   24.4087 C   0  0  0  0  0  0  0  0  0  0  0  0
   10.3765  -16.9616   26.0659 C   0  0  2  0  0  0  0  0  0  0  0  0
    9.9046  -15.8752   25.2315 N   0  0  0  0  0  0  0  0  0  0  0  0
   10.1608  -16.6154   27.4804 C   0  0  0  0  0  0  0  0  0  0  0  0
   10.0829  -15.4188   27.8434 O   0  0  0  0  0  0  0  0  0  0  0  0
   10.0319  -17.5727   28.4865 O   0  0  0  0  0  0  0  0  0  0  0  0
  2  1  1  1
  2  3  1  0
  4  2  1  0
  4  5  2  0
  6  4  1  0
  7  6  1  0
  7  8  1  1
  9 14  2  0
  9  8  1  0
 10  9  1  0
 11 10  2  0
 11 12  1  0
 12 13  2  0
 13 14  1  0
 15  7  1  0
 16 15  2  0
 18 17  1  1
 19 18  1  0
 20 18  1  0
 20 21  1  6
 21 15  1  0
 22 20  1  0
 22 24  1  0
 23 22  2  0
M  END
$$$$
