AFV.pdb
     RDKit          3D

 24 24  0  0  1  0  0  0  0  0999 V2000
    8.2348  -18.0660   19.9551 C   0  0  0  0  0  0  0  0  0  0  0  0
    8.5250  -16.6175   19.6946 C   0  0  2  0  0  0  0  0  0  0  0  0
    9.5677  -16.4281   18.7099 N   0  0  0  0  0  0  0  0  0  0  0  0
    8.9173  -15.9889   21.0010 C   0  0  0  0  0  0  0  0  0  0  0  0
   10.1140  -15.8950   21.3524 O   0  0  0  0  0  0  0  0  0  0  0  0
    7.9080  -15.4968   21.8433 N   0  0  0  0  0  0  0  0  0  0  0  0
    8.1660  -14.9183   23.1550 C   0  0  1  0  0  0  0  0  0  0  0  0
    6.9587  -14.0995   23.5043 C   0  0  0  0  0  0  0  0  0  0  0  0
    7.0202  -13.4835   24.8538 C   0  0  0  0  0  0  0  0  0  0  0  0
    6.3353  -14.0219   25.9149 C   0  0  0  0  0  0  0  0  0  0  0  0
    6.3671  -13.4773   27.1904 C   0  0  0  0  0  0  0  0  0  0  0  0
    7.1158  -12.3441   27.4184 C   0  0  0  0  0  0  0  0  0  0  0  0
    7.8111  -11.7883   26.3644 C   0  0  0  0  0  0  0  0  0  0  0  0
    7.7704  -12.3412   25.0998 C   0  0  0  0  0  0  0  0  0  0  0  0
    8.5408  -15.9166   24.1492 C   0  0  0  0  0  0  0  0  0  0  0  0
    7.8239  -16.9342   24.3231 O   0  0  0  0  0  0  0  0  0  0  0  0
   12.1223  -18.4610   26.2519 C   0  0  0  0  0  0  0  0  0  0  0  0
   11.5744  -17.3666   25.3675 C   0  0  1  0  0  0  0  0  0  0  0  0
   11.5909  -17.8344   23.9468 C   0  0  0  0  0  0  0  0  0  0  0  0
   10.1646  -16.9686   25.7522 C   0  0  2  0  0  0  0  0  0  0  0  0
    9.7091  -15.8300   24.9806 N   0  0  0  0  0  0  0  0  0  0  0  0
   10.1211  -16.6322   27.1846 C   0  0  0  0  0  0  0  0  0  0  0  0
   10.2358  -15.4452   27.5687 O   0  0  0  0  0  0  0  0  0  0  0  0
    9.9535  -17.5888   28.1857 O   0  0  0  0  0  0  0  0  0  0  0  0
  2  1  1  1
  2  3  1  0
  4  2  1  0
  4  5  2  0
  6  4  1  0
  7  6  1  0
  7  8  1  1
  9 14  2  0
  9  8  1  0
 10  9  1  0
 11 10  2  0
 11 12  1  0
 12 13  2  0
 13 14  1  0
 15  7  1  0
 16 15  2  0
 18 17  1  1
 19 18  1  0
 20 18  1  0
 20 21  1  6
 21 15  1  0
 22 20  1  0
 22 24  1  0
 23 22  2  0
M  END
$$$$
