AFV.pdb
     RDKit          3D

 24 24  0  0  1  0  0  0  0  0999 V2000
    6.7781  -20.2716   22.1030 C   0  0  0  0  0  0  0  0  0  0  0  0
    6.0047  -19.0121   21.8459 C   0  0  2  0  0  0  0  0  0  0  0  0
    5.7444  -18.7974   20.4393 N   0  0  0  0  0  0  0  0  0  0  0  0
    6.7950  -17.8680   22.4135 C   0  0  0  0  0  0  0  0  0  0  0  0
    7.7480  -17.3529   21.7883 O   0  0  0  0  0  0  0  0  0  0  0  0
    6.4480  -17.3701   23.6792 N   0  0  0  0  0  0  0  0  0  0  0  0
    7.1775  -16.3038   24.3519 C   0  0  1  0  0  0  0  0  0  0  0  0
    6.2246  -15.6896   25.3340 C   0  0  0  0  0  0  0  0  0  0  0  0
    6.7540  -14.4767   26.0073 C   0  0  0  0  0  0  0  0  0  0  0  0
    6.4261  -13.2177   25.5688 C   0  0  0  0  0  0  0  0  0  0  0  0
    6.8989  -12.0604   26.1701 C   0  0  0  0  0  0  0  0  0  0  0  0
    7.7368  -12.1630   27.2583 C   0  0  0  0  0  0  0  0  0  0  0  0
    8.0777  -13.4199   27.7136 C   0  0  0  0  0  0  0  0  0  0  0  0
    7.5996  -14.5635   27.1052 C   0  0  0  0  0  0  0  0  0  0  0  0
    8.4413  -16.7556   24.9214 C   0  0  0  0  0  0  0  0  0  0  0  0
    8.4766  -17.7846   25.6422 O   0  0  0  0  0  0  0  0  0  0  0  0
   13.4110  -16.8636   24.5636 C   0  0  0  0  0  0  0  0  0  0  0  0
   12.0987  -16.1912   24.2384 C   0  0  1  0  0  0  0  0  0  0  0  0
   11.8082  -16.3688   22.7818 C   0  0  0  0  0  0  0  0  0  0  0  0
   10.9503  -16.7472   25.0543 C   0  0  2  0  0  0  0  0  0  0  0  0
    9.7008  -16.0951   24.7188 N   0  0  0  0  0  0  0  0  0  0  0  0
   11.2269  -16.5571   26.4877 C   0  0  0  0  0  0  0  0  0  0  0  0
   10.9063  -15.4938   27.0674 O   0  0  0  0  0  0  0  0  0  0  0  0
   11.8490  -17.5243   27.2770 O   0  0  0  0  0  0  0  0  0  0  0  0
  2  1  1  6
  2  3  1  0
  4  2  1  0
  4  5  2  0
  6  4  1  0
  7  6  1  0
  7  8  1  1
  9 14  2  0
  9  8  1  0
 10  9  1  0
 11 10  2  0
 11 12  1  0
 12 13  2  0
 13 14  1  0
 15  7  1  0
 16 15  2  0
 18 17  1  1
 19 18  1  0
 20 18  1  0
 20 21  1  6
 21 15  1  0
 22 20  1  0
 22 24  1  0
 23 22  2  0
M  END
$$$$
