AFV.pdb
     RDKit          3D

 24 24  0  0  1  0  0  0  0  0999 V2000
    8.3027  -18.1505   19.9588 C   0  0  0  0  0  0  0  0  0  0  0  0
    8.5862  -16.7043   19.6785 C   0  0  2  0  0  0  0  0  0  0  0  0
    9.6105  -16.5237   18.6731 N   0  0  0  0  0  0  0  0  0  0  0  0
    9.0014  -16.0623   20.9712 C   0  0  0  0  0  0  0  0  0  0  0  0
   10.2050  -15.9482   21.2920 O   0  0  0  0  0  0  0  0  0  0  0  0
    8.0061  -15.5806   21.8359 N   0  0  0  0  0  0  0  0  0  0  0  0
    8.2900  -14.9586   23.1221 C   0  0  1  0  0  0  0  0  0  0  0  0
    7.1013  -14.1065   23.4548 C   0  0  0  0  0  0  0  0  0  0  0  0
    7.1614  -13.4916   24.8049 C   0  0  0  0  0  0  0  0  0  0  0  0
    6.4102  -13.9807   25.8448 C   0  0  0  0  0  0  0  0  0  0  0  0
    6.4383  -13.4353   27.1201 C   0  0  0  0  0  0  0  0  0  0  0  0
    7.2525  -12.3530   27.3699 C   0  0  0  0  0  0  0  0  0  0  0  0
    8.0149  -11.8473   26.3374 C   0  0  0  0  0  0  0  0  0  0  0  0
    7.9770  -12.4002   25.0728 C   0  0  0  0  0  0  0  0  0  0  0  0
    8.6600  -15.9258   24.1483 C   0  0  0  0  0  0  0  0  0  0  0  0
    7.9215  -16.9167   24.3771 O   0  0  0  0  0  0  0  0  0  0  0  0
   12.3111  -18.3263   26.3999 C   0  0  0  0  0  0  0  0  0  0  0  0
   11.7799  -17.2326   25.5046 C   0  0  1  0  0  0  0  0  0  0  0  0
   11.9986  -17.6224   24.0771 C   0  0  0  0  0  0  0  0  0  0  0  0
   10.3072  -16.9652   25.7356 C   0  0  2  0  0  0  0  0  0  0  0  0
    9.8470  -15.8364   24.9525 N   0  0  0  0  0  0  0  0  0  0  0  0
   10.0739  -16.6922   27.1632 C   0  0  0  0  0  0  0  0  0  0  0  0
    9.9890  -15.5159   27.5860 O   0  0  0  0  0  0  0  0  0  0  0  0
    9.9354  -17.7000   28.1175 O   0  0  0  0  0  0  0  0  0  0  0  0
  2  1  1  1
  2  3  1  0
  4  2  1  0
  4  5  2  0
  6  4  1  0
  7  6  1  0
  7  8  1  1
  9 14  2  0
  9  8  1  0
 10  9  1  0
 11 10  2  0
 11 12  1  0
 12 13  2  0
 13 14  1  0
 15  7  1  0
 16 15  2  0
 18 17  1  1
 19 18  1  0
 20 18  1  0
 20 21  1  6
 21 15  1  0
 22 20  1  0
 22 24  1  0
 23 22  2  0
M  END
$$$$
