AFV.pdb
     RDKit          3D

 24 24  0  0  1  0  0  0  0  0999 V2000
   11.1890  -18.6411   21.5080 C   0  0  0  0  0  0  0  0  0  0  0  0
   10.6229  -17.4073   20.8692 C   0  0  2  0  0  0  0  0  0  0  0  0
   11.4801  -16.8752   19.8325 N   0  0  0  0  0  0  0  0  0  0  0  0
   10.4149  -16.3877   21.9521 C   0  0  0  0  0  0  0  0  0  0  0  0
   11.2733  -15.5144   22.2068 O   0  0  0  0  0  0  0  0  0  0  0  0
    9.2229  -16.4231   22.6926 N   0  0  0  0  0  0  0  0  0  0  0  0
    8.9193  -15.4947   23.7731 C   0  0  1  0  0  0  0  0  0  0  0  0
    7.4401  -15.2511   23.7223 C   0  0  0  0  0  0  0  0  0  0  0  0
    6.9738  -14.1879   24.6479 C   0  0  0  0  0  0  0  0  0  0  0  0
    7.3341  -12.8757   24.4652 C   0  0  0  0  0  0  0  0  0  0  0  0
    6.9194  -11.8535   25.3065 C   0  0  0  0  0  0  0  0  0  0  0  0
    6.1086  -12.1531   26.3786 C   0  0  0  0  0  0  0  0  0  0  0  0
    5.7359  -13.4663   26.5786 C   0  0  0  0  0  0  0  0  0  0  0  0
    6.1561  -14.4738   25.7332 C   0  0  0  0  0  0  0  0  0  0  0  0
    9.4244  -15.9453   25.0643 C   0  0  0  0  0  0  0  0  0  0  0  0
    9.6363  -17.1674   25.2674 O   0  0  0  0  0  0  0  0  0  0  0  0
   10.9189  -15.0224   29.7617 C   0  0  0  0  0  0  0  0  0  0  0  0
   10.2261  -14.5536   28.5046 C   0  0  1  0  0  0  0  0  0  0  0  0
   10.8649  -13.2829   28.0412 C   0  0  0  0  0  0  0  0  0  0  0  0
   10.2876  -15.5838   27.3961 C   0  0  2  0  0  0  0  0  0  0  0  0
    9.7116  -15.0728   26.1688 N   0  0  0  0  0  0  0  0  0  0  0  0
    9.5576  -16.7941   27.8071 C   0  0  0  0  0  0  0  0  0  0  0  0
    8.3241  -16.8965   27.6128 O   0  0  0  0  0  0  0  0  0  0  0  0
   10.1748  -17.8814   28.4254 O   0  0  0  0  0  0  0  0  0  0  0  0
  2  1  1  1
  2  3  1  0
  4  2  1  0
  4  5  2  0
  6  4  1  0
  7  6  1  0
  7  8  1  1
  9 14  2  0
  9  8  1  0
 10  9  1  0
 11 10  2  0
 11 12  1  0
 12 13  2  0
 13 14  1  0
 15  7  1  0
 16 15  2  0
 18 17  1  1
 19 18  1  0
 20 18  1  0
 20 21  1  6
 21 15  1  0
 22 20  1  0
 22 24  1  0
 23 22  2  0
M  END
$$$$
