AFV.pdb
     RDKit          3D

 24 24  0  0  1  0  0  0  0  0999 V2000
   10.7827  -16.3732   19.5338 C   0  0  0  0  0  0  0  0  0  0  0  0
   10.6404  -17.1658   20.7995 C   0  0  2  0  0  0  0  0  0  0  0  0
    9.5598  -18.1253   20.7357 N   0  0  0  0  0  0  0  0  0  0  0  0
   10.4136  -16.1946   21.9225 C   0  0  0  0  0  0  0  0  0  0  0  0
   11.2182  -15.2677   22.1629 O   0  0  0  0  0  0  0  0  0  0  0  0
    9.2660  -16.3385   22.7179 N   0  0  0  0  0  0  0  0  0  0  0  0
    8.9941  -15.5217   23.8929 C   0  0  1  0  0  0  0  0  0  0  0  0
    7.5029  -15.3840   23.9800 C   0  0  0  0  0  0  0  0  0  0  0  0
    7.0523  -14.2547   24.8322 C   0  0  0  0  0  0  0  0  0  0  0  0
    6.3015  -14.4694   25.9614 C   0  0  0  0  0  0  0  0  0  0  0  0
    5.8616  -13.4423   26.7837 C   0  0  0  0  0  0  0  0  0  0  0  0
    6.1851  -12.1419   26.4657 C   0  0  0  0  0  0  0  0  0  0  0  0
    6.9390  -11.9062   25.3346 C   0  0  0  0  0  0  0  0  0  0  0  0
    7.3701  -12.9383   24.5251 C   0  0  0  0  0  0  0  0  0  0  0  0
    9.6359  -16.0332   25.0978 C   0  0  0  0  0  0  0  0  0  0  0  0
    9.9966  -17.2356   25.1588 O   0  0  0  0  0  0  0  0  0  0  0  0
   11.6220  -13.5277   27.8265 C   0  0  0  0  0  0  0  0  0  0  0  0
   10.9361  -14.7316   28.4267 C   0  0  1  0  0  0  0  0  0  0  0  0
    9.6638  -14.2924   29.0794 C   0  0  0  0  0  0  0  0  0  0  0  0
   10.6323  -15.7951   27.3921 C   0  0  2  0  0  0  0  0  0  0  0  0
    9.9009  -15.2447   26.2690 N   0  0  0  0  0  0  0  0  0  0  0  0
    9.8372  -16.8696   28.0087 C   0  0  0  0  0  0  0  0  0  0  0  0
    8.6079  -16.9660   27.7874 O   0  0  0  0  0  0  0  0  0  0  0  0
   10.3856  -17.8288   28.8599 O   0  0  0  0  0  0  0  0  0  0  0  0
  2  1  1  6
  2  3  1  0
  4  2  1  0
  4  5  2  0
  6  4  1  0
  7  6  1  0
  7  8  1  1
  9 14  2  0
  9  8  1  0
 10  9  1  0
 11 10  2  0
 11 12  1  0
 12 13  2  0
 13 14  1  0
 15  7  1  0
 16 15  2  0
 18 17  1  6
 19 18  1  0
 20 18  1  0
 20 21  1  6
 21 15  1  0
 22 20  1  0
 22 24  1  0
 23 22  2  0
M  END
$$$$
