AFV.pdb
     RDKit          3D

 24 24  0  0  1  0  0  0  0  0999 V2000
    7.9799  -16.8523   18.8886 C   0  0  0  0  0  0  0  0  0  0  0  0
    7.6856  -15.3960   19.0958 C   0  0  2  0  0  0  0  0  0  0  0  0
    8.2372  -14.5633   18.0494 N   0  0  0  0  0  0  0  0  0  0  0  0
    8.2495  -15.0024   20.4310 C   0  0  0  0  0  0  0  0  0  0  0  0
    9.4804  -14.8757   20.6136 O   0  0  0  0  0  0  0  0  0  0  0  0
    7.3648  -14.7728   21.4963 N   0  0  0  0  0  0  0  0  0  0  0  0
    7.7991  -14.4180   22.8406 C   0  0  1  0  0  0  0  0  0  0  0  0
    6.6483  -13.7041   23.4856 C   0  0  0  0  0  0  0  0  0  0  0  0
    6.9199  -13.2594   24.8759 C   0  0  0  0  0  0  0  0  0  0  0  0
    7.6092  -12.0999   25.1314 C   0  0  0  0  0  0  0  0  0  0  0  0
    7.8827  -11.6498   26.4149 C   0  0  0  0  0  0  0  0  0  0  0  0
    7.4492  -12.3895   27.4926 C   0  0  0  0  0  0  0  0  0  0  0  0
    6.7548  -13.5578   27.2559 C   0  0  0  0  0  0  0  0  0  0  0  0
    6.4896  -13.9938   25.9729 C   0  0  0  0  0  0  0  0  0  0  0  0
    8.3119  -15.5595   23.5887 C   0  0  0  0  0  0  0  0  0  0  0  0
    7.6845  -16.6486   23.5867 O   0  0  0  0  0  0  0  0  0  0  0  0
   12.0364  -18.2480   25.2218 C   0  0  0  0  0  0  0  0  0  0  0  0
   11.4634  -17.0227   24.5507 C   0  0  1  0  0  0  0  0  0  0  0  0
   11.5146  -17.2108   23.0676 C   0  0  0  0  0  0  0  0  0  0  0  0
   10.0361  -16.7487   24.9765 C   0  0  2  0  0  0  0  0  0  0  0  0
    9.5241  -15.5420   24.3592 N   0  0  0  0  0  0  0  0  0  0  0  0
    9.9772  -16.6069   26.4405 C   0  0  0  0  0  0  0  0  0  0  0  0
   10.2159  -15.5059   26.9886 O   0  0  0  0  0  0  0  0  0  0  0  0
    9.6595  -17.6628   27.2947 O   0  0  0  0  0  0  0  0  0  0  0  0
  2  1  1  6
  2  3  1  0
  4  2  1  0
  4  5  2  0
  6  4  1  0
  7  6  1  0
  7  8  1  1
  9 14  2  0
  9  8  1  0
 10  9  1  0
 11 10  2  0
 11 12  1  0
 12 13  2  0
 13 14  1  0
 15  7  1  0
 16 15  2  0
 18 17  1  1
 19 18  1  0
 20 18  1  0
 20 21  1  6
 21 15  1  0
 22 20  1  0
 22 24  1  0
 23 22  2  0
M  END
$$$$
