NGY.pdb
     RDKit          3D

 25 25  0  0  1  0  0  0  0  0999 V2000
   21.0913    0.2250  -19.9093 N   0  0  0  0  0  0  0  0  0  0  0  0
   21.8154   -0.9060  -19.4592 C   0  0  0  0  0  0  0  0  0  0  0  0
   21.2868   -2.0431  -19.5276 O   0  0  0  0  0  0  0  0  0  0  0  0
   23.1729   -0.7280  -18.9200 C   0  0  0  0  0  0  0  0  0  0  0  0
   23.7850   -2.0372  -18.4672 C   0  0  2  0  0  0  0  0  0  0  0  0
   23.5492   -3.0913  -19.4147 N   0  0  0  0  0  0  0  0  0  0  0  0
   23.1516   -2.3928  -17.1788 C   0  0  0  0  0  0  0  0  0  0  0  0
   23.3268   -1.6282  -16.1924 O   0  0  0  0  0  0  0  0  0  0  0  0
   22.3712   -3.5623  -17.0648 N   0  0  0  0  0  0  0  0  0  0  0  0
   21.7085   -3.9154  -15.8395 C   0  0  0  0  0  0  0  0  0  0  0  0
   20.9204   -5.1606  -15.9959 C   0  0  0  0  0  0  0  0  0  0  0  0
   19.9197   -5.1695  -16.7965 O   0  0  0  0  0  0  0  0  0  0  0  0
   18.0104  -13.4329  -15.8390 O   0  0  0  0  0  0  0  0  0  0  0  0
   18.7275  -12.2696  -15.5795 C   0  0  0  0  0  0  0  0  0  0  0  0
   18.5613  -11.6006  -14.3875 C   0  0  0  0  0  0  0  0  0  0  0  0
   19.2444  -10.4482  -14.0810 C   0  0  0  0  0  0  0  0  0  0  0  0
   20.1452   -9.8994  -14.9722 C   0  0  0  0  0  0  0  0  0  0  0  0
   20.9209   -8.6862  -14.7546 C   0  0  0  0  0  0  0  0  0  0  0  0
   20.2657   -7.5165  -15.4482 C   0  0  2  0  0  0  0  0  0  0  0  0
   21.1629   -6.3778  -15.3391 N   0  0  0  0  0  0  0  0  0  0  0  0
   18.9416   -7.2386  -14.9132 C   0  0  0  0  0  0  0  0  0  0  0  0
   17.8033   -7.7381  -15.5009 O   0  0  0  0  0  0  0  0  0  0  0  0
   20.3111  -10.5775  -16.1756 C   0  0  0  0  0  0  0  0  0  0  0  0
   19.6214  -11.7328  -16.4739 C   0  0  0  0  0  0  0  0  0  0  0  0
   18.8110   -6.5234  -13.8892 O   0  0  0  0  0  0  0  0  0  0  0  0
  1  2  1  0
  2  3  2  0
  4  5  1  0
  4  2  1  0
  5  6  1  6
  7  5  1  0
  8  7  2  0
  9  7  1  0
 10 11  1  0
 10  9  1  0
 11 20  1  0
 12 11  2  0
 14 15  2  0
 14 13  1  0
 16 15  1  0
 17 16  2  0
 18 17  1  0
 19 18  1  1
 20 19  1  0
 21 19  1  0
 21 22  1  0
 23 17  1  0
 23 24  2  0
 24 14  1  0
 25 21  2  0
M  END
$$$$
