NGY.pdb
     RDKit          3D

 25 25  0  0  1  0  0  0  0  0999 V2000
   25.9142  -20.7634  -22.9857 N   0  0  0  0  0  0  0  0  0  0  0  0
   27.3114  -20.9897  -23.0391 C   0  0  0  0  0  0  0  0  0  0  0  0
   27.8410  -21.3184  -24.1294 O   0  0  0  0  0  0  0  0  0  0  0  0
   28.1163  -20.8356  -21.8170 C   0  0  0  0  0  0  0  0  0  0  0  0
   27.2691  -20.4685  -20.6164 C   0  0  2  0  0  0  0  0  0  0  0  0
   27.1696  -19.0448  -20.4500 N   0  0  0  0  0  0  0  0  0  0  0  0
   27.9242  -21.0512  -19.4252 C   0  0  0  0  0  0  0  0  0  0  0  0
   28.0310  -22.3048  -19.3516 O   0  0  0  0  0  0  0  0  0  0  0  0
   28.4155  -20.2165  -18.3997 N   0  0  0  0  0  0  0  0  0  0  0  0
   28.9212  -20.7497  -17.1648 C   0  0  0  0  0  0  0  0  0  0  0  0
   27.8955  -20.6932  -16.0965 C   0  0  0  0  0  0  0  0  0  0  0  0
   26.6817  -20.4273  -16.4102 O   0  0  0  0  0  0  0  0  0  0  0  0
   23.6371  -20.7044   -8.4027 O   0  0  0  0  0  0  0  0  0  0  0  0
   24.6112  -20.8368   -9.3868 C   0  0  0  0  0  0  0  0  0  0  0  0
   25.6561  -19.9427   -9.4570 C   0  0  0  0  0  0  0  0  0  0  0  0
   26.6440  -20.0281  -10.4085 C   0  0  0  0  0  0  0  0  0  0  0  0
   26.6325  -21.0337  -11.3547 C   0  0  0  0  0  0  0  0  0  0  0  0
   27.6227  -21.2199  -12.4062 C   0  0  0  0  0  0  0  0  0  0  0  0
   27.0729  -20.7475  -13.7303 C   0  0  2  0  0  0  0  0  0  0  0  0
   28.1183  -20.9106  -14.7274 N   0  0  0  0  0  0  0  0  0  0  0  0
   26.5773  -19.3815  -13.6578 C   0  0  0  0  0  0  0  0  0  0  0  0
   25.2330  -19.1015  -13.5860 O   0  0  0  0  0  0  0  0  0  0  0  0
   25.5756  -21.9356  -11.2813 C   0  0  0  0  0  0  0  0  0  0  0  0
   24.5894  -21.8418  -10.3232 C   0  0  0  0  0  0  0  0  0  0  0  0
   27.3809  -18.4166  -13.6619 O   0  0  0  0  0  0  0  0  0  0  0  0
  1  2  1  0
  2  3  2  0
  4  5  1  0
  4  2  1  0
  5  6  1  1
  7  5  1  0
  8  7  2  0
  9  7  1  0
 10 11  1  0
 10  9  1  0
 11 20  1  0
 12 11  2  0
 14 15  2  0
 14 13  1  0
 16 15  1  0
 17 16  2  0
 18 17  1  0
 19 18  1  1
 20 19  1  0
 21 19  1  0
 21 22  1  0
 23 17  1  0
 23 24  2  0
 24 14  1  0
 25 21  2  0
M  END
$$$$
