NGY.pdb
     RDKit          3D

 25 25  0  0  1  0  0  0  0  0999 V2000
   23.5619  -20.0541   -9.3129 N   0  0  0  0  0  0  0  0  0  0  0  0
   24.4451  -21.1482   -9.1434 C   0  0  0  0  0  0  0  0  0  0  0  0
   24.2744  -21.9342   -8.1789 O   0  0  0  0  0  0  0  0  0  0  0  0
   25.5461  -21.3438  -10.0999 C   0  0  0  0  0  0  0  0  0  0  0  0
   25.6245  -20.2258  -11.1186 C   0  0  2  0  0  0  0  0  0  0  0  0
   24.5291  -20.2734  -12.0471 N   0  0  0  0  0  0  0  0  0  0  0  0
   26.8942  -20.3967  -11.8576 C   0  0  0  0  0  0  0  0  0  0  0  0
   27.9690  -20.4462  -11.2013 O   0  0  0  0  0  0  0  0  0  0  0  0
   26.8939  -20.5012  -13.2643 N   0  0  0  0  0  0  0  0  0  0  0  0
   28.0912  -20.7933  -14.0034 C   0  0  0  0  0  0  0  0  0  0  0  0
   27.8478  -20.7329  -15.4640 C   0  0  0  0  0  0  0  0  0  0  0  0
   28.8015  -21.0261  -16.2683 O   0  0  0  0  0  0  0  0  0  0  0  0
   25.9689  -26.5246  -15.8737 O   0  0  0  0  0  0  0  0  0  0  0  0
   25.7885  -25.2289  -16.3467 C   0  0  0  0  0  0  0  0  0  0  0  0
   26.2346  -24.8773  -17.6011 C   0  0  0  0  0  0  0  0  0  0  0  0
   26.0818  -23.6123  -18.1161 C   0  0  0  0  0  0  0  0  0  0  0  0
   25.4623  -22.6186  -17.3843 C   0  0  0  0  0  0  0  0  0  0  0  0
   25.2477  -21.2480  -17.8273 C   0  0  0  0  0  0  0  0  0  0  0  0
   26.4642  -20.4062  -17.5274 C   0  0  2  0  0  0  0  0  0  0  0  0
   26.6390  -20.3788  -16.0844 N   0  0  0  0  0  0  0  0  0  0  0  0
   26.3600  -19.0742  -18.1034 C   0  0  0  0  0  0  0  0  0  0  0  0
   26.2735  -18.8771  -19.4615 O   0  0  0  0  0  0  0  0  0  0  0  0
   25.0127  -22.9769  -16.1174 C   0  0  0  0  0  0  0  0  0  0  0  0
   25.1705  -24.2483  -15.6094 C   0  0  0  0  0  0  0  0  0  0  0  0
   26.3494  -18.0628  -17.3592 O   0  0  0  0  0  0  0  0  0  0  0  0
  1  2  1  0
  2  3  2  0
  4  5  1  0
  4  2  1  0
  5  6  1  6
  7  5  1  0
  8  7  2  0
  9  7  1  0
 10 11  1  0
 10  9  1  0
 11 20  1  0
 12 11  2  0
 14 15  2  0
 14 13  1  0
 16 15  1  0
 17 16  2  0
 18 17  1  0
 19 18  1  1
 20 19  1  0
 21 19  1  0
 21 22  1  0
 23 17  1  0
 23 24  2  0
 24 14  1  0
 25 21  2  0
M  END
$$$$
