NGY.pdb
     RDKit          3D

 25 25  0  0  1  0  0  0  0  0999 V2000
   16.9791  -15.1778  -14.0450 N   0  0  0  0  0  0  0  0  0  0  0  0
   16.7073  -13.9905  -14.7678 C   0  0  0  0  0  0  0  0  0  0  0  0
   15.5183  -13.6974  -15.0464 O   0  0  0  0  0  0  0  0  0  0  0  0
   17.8223  -13.1227  -15.1788 C   0  0  0  0  0  0  0  0  0  0  0  0
   17.5101  -12.3505  -16.4437 C   0  0  2  0  0  0  0  0  0  0  0  0
   17.5748  -13.1885  -17.6091 N   0  0  0  0  0  0  0  0  0  0  0  0
   18.5216  -11.2778  -16.5613 C   0  0  0  0  0  0  0  0  0  0  0  0
   19.7326  -11.5710  -16.3722 O   0  0  0  0  0  0  0  0  0  0  0  0
   18.1319   -9.9596  -16.8780 N   0  0  0  0  0  0  0  0  0  0  0  0
   19.0905   -8.8983  -17.0181 C   0  0  0  0  0  0  0  0  0  0  0  0
   19.4552   -8.3277  -15.6999 C   0  0  0  0  0  0  0  0  0  0  0  0
   18.9077   -8.8007  -14.6421 O   0  0  0  0  0  0  0  0  0  0  0  0
   25.8947   -5.3823  -17.4932 O   0  0  0  0  0  0  0  0  0  0  0  0
   24.9495   -5.8401  -16.5811 C   0  0  0  0  0  0  0  0  0  0  0  0
   24.4181   -4.9855  -15.6413 C   0  0  0  0  0  0  0  0  0  0  0  0
   23.4823   -5.3862  -14.7180 C   0  0  0  0  0  0  0  0  0  0  0  0
   23.0246   -6.6888  -14.6913 C   0  0  0  0  0  0  0  0  0  0  0  0
   22.0398   -7.2225  -13.7607 C   0  0  0  0  0  0  0  0  0  0  0  0
   20.6541   -6.7667  -14.1492 C   0  0  2  0  0  0  0  0  0  0  0  0
   20.3724   -7.2882  -15.4767 N   0  0  0  0  0  0  0  0  0  0  0  0
   20.5163   -5.3202  -14.0757 C   0  0  0  0  0  0  0  0  0  0  0  0
   20.5814   -4.6462  -12.8790 O   0  0  0  0  0  0  0  0  0  0  0  0
   23.5634   -7.5498  -15.6421 C   0  0  0  0  0  0  0  0  0  0  0  0
   24.5016   -7.1386  -16.5641 C   0  0  0  0  0  0  0  0  0  0  0  0
   20.3297   -4.6492  -15.1207 O   0  0  0  0  0  0  0  0  0  0  0  0
  1  2  1  0
  2  3  2  0
  4  5  1  0
  4  2  1  0
  5  6  1  6
  7  5  1  0
  8  7  2  0
  9  7  1  0
 10 11  1  0
 10  9  1  0
 11 20  1  0
 12 11  2  0
 14 15  2  0
 14 13  1  0
 16 15  1  0
 17 16  2  0
 18 17  1  0
 19 18  1  6
 20 19  1  0
 21 19  1  0
 21 22  1  0
 23 17  1  0
 23 24  2  0
 24 14  1  0
 25 21  2  0
M  END
$$$$
