NGY.pdb
     RDKit          3D

 25 25  0  0  1  0  0  0  0  0999 V2000
   27.8639  -23.3410  -17.0303 N   0  0  0  0  0  0  0  0  0  0  0  0
   26.8551  -24.2403  -17.4540 C   0  0  0  0  0  0  0  0  0  0  0  0
   26.8230  -25.4005  -16.9742 O   0  0  0  0  0  0  0  0  0  0  0  0
   25.8637  -23.7991  -18.4478 C   0  0  0  0  0  0  0  0  0  0  0  0
   26.0883  -22.3659  -18.8827 C   0  0  2  0  0  0  0  0  0  0  0  0
   27.1351  -21.7372  -18.1256 N   0  0  0  0  0  0  0  0  0  0  0  0
   24.8213  -21.6372  -18.6561 C   0  0  0  0  0  0  0  0  0  0  0  0
   23.7982  -21.9977  -19.2977 O   0  0  0  0  0  0  0  0  0  0  0  0
   24.7674  -20.5648  -17.7413 N   0  0  0  0  0  0  0  0  0  0  0  0
   23.5454  -19.8580  -17.4723 C   0  0  0  0  0  0  0  0  0  0  0  0
   22.8091  -20.4715  -16.3419 C   0  0  0  0  0  0  0  0  0  0  0  0
   22.9685  -21.7193  -16.0969 O   0  0  0  0  0  0  0  0  0  0  0  0
   27.0974  -21.8817  -12.3496 O   0  0  0  0  0  0  0  0  0  0  0  0
   25.8044  -21.4032  -12.5347 C   0  0  0  0  0  0  0  0  0  0  0  0
   24.7293  -22.0781  -12.0011 C   0  0  0  0  0  0  0  0  0  0  0  0
   23.4328  -21.6489  -12.1542 C   0  0  0  0  0  0  0  0  0  0  0  0
   23.1451  -20.4997  -12.8637 C   0  0  0  0  0  0  0  0  0  0  0  0
   21.8140  -19.9538  -13.0899 C   0  0  0  0  0  0  0  0  0  0  0  0
   21.2456  -20.4841  -14.3838 C   0  0  2  0  0  0  0  0  0  0  0  0
   21.9252  -19.8073  -15.4764 N   0  0  0  0  0  0  0  0  0  0  0  0
   19.7998  -20.3333  -14.4455 C   0  0  0  0  0  0  0  0  0  0  0  0
   19.1970  -19.4952  -15.3538 O   0  0  0  0  0  0  0  0  0  0  0  0
   24.2333  -19.8201  -13.4016 C   0  0  0  0  0  0  0  0  0  0  0  0
   25.5303  -20.2583  -13.2427 C   0  0  0  0  0  0  0  0  0  0  0  0
   19.0632  -20.9742  -13.6559 O   0  0  0  0  0  0  0  0  0  0  0  0
  1  2  1  0
  2  3  2  0
  4  5  1  0
  4  2  1  0
  5  6  1  1
  7  5  1  0
  8  7  2  0
  9  7  1  0
 10 11  1  0
 10  9  1  0
 11 20  1  0
 12 11  2  0
 14 15  2  0
 14 13  1  0
 16 15  1  0
 17 16  2  0
 18 17  1  0
 19 18  1  1
 20 19  1  0
 21 19  1  0
 21 22  1  0
 23 17  1  0
 23 24  2  0
 24 14  1  0
 25 21  2  0
M  END
$$$$
