NGY.pdb
     RDKit          3D

 25 25  0  0  1  0  0  0  0  0999 V2000
   29.3370  -17.7180  -17.4186 N   0  0  0  0  0  0  0  0  0  0  0  0
   28.0171  -17.8348  -17.9188 C   0  0  0  0  0  0  0  0  0  0  0  0
   27.7517  -17.3969  -19.0655 O   0  0  0  0  0  0  0  0  0  0  0  0
   26.9815  -18.4669  -17.0862 C   0  0  0  0  0  0  0  0  0  0  0  0
   27.5292  -18.9475  -15.7585 C   0  0  2  0  0  0  0  0  0  0  0  0
   28.4641  -20.0254  -15.9267 N   0  0  0  0  0  0  0  0  0  0  0  0
   26.3797  -19.4231  -14.9584 C   0  0  0  0  0  0  0  0  0  0  0  0
   25.5016  -18.5875  -14.6133 O   0  0  0  0  0  0  0  0  0  0  0  0
   26.2759  -20.7818  -14.5940 N   0  0  0  0  0  0  0  0  0  0  0  0
   25.1703  -21.2775  -13.8214 C   0  0  0  0  0  0  0  0  0  0  0  0
   25.5908  -21.6200  -12.4422 C   0  0  0  0  0  0  0  0  0  0  0  0
   26.6840  -22.2649  -12.2651 O   0  0  0  0  0  0  0  0  0  0  0  0
   28.9094  -19.5345   -4.8733 O   0  0  0  0  0  0  0  0  0  0  0  0
   28.3648  -19.7247   -6.1391 C   0  0  0  0  0  0  0  0  0  0  0  0
   28.9357  -20.6207   -7.0151 C   0  0  0  0  0  0  0  0  0  0  0  0
   28.4380  -20.8463   -8.2761 C   0  0  0  0  0  0  0  0  0  0  0  0
   27.3218  -20.1714   -8.7294 C   0  0  0  0  0  0  0  0  0  0  0  0
   26.7105  -20.3292  -10.0416 C   0  0  0  0  0  0  0  0  0  0  0  0
   25.5381  -21.2766   -9.9607 C   0  0  2  0  0  0  0  0  0  0  0  0
   24.8962  -21.2993  -11.2649 N   0  0  0  0  0  0  0  0  0  0  0  0
   24.6197  -20.9161   -8.8914 C   0  0  0  0  0  0  0  0  0  0  0  0
   23.5996  -20.0148   -9.0859 O   0  0  0  0  0  0  0  0  0  0  0  0
   26.7473  -19.2669   -7.8420 C   0  0  0  0  0  0  0  0  0  0  0  0
   27.2537  -19.0474   -6.5792 C   0  0  0  0  0  0  0  0  0  0  0  0
   24.7448  -21.4276   -7.7514 O   0  0  0  0  0  0  0  0  0  0  0  0
  1  2  1  0
  2  3  2  0
  4  5  1  0
  4  2  1  0
  5  6  1  6
  7  5  1  0
  8  7  2  0
  9  7  1  0
 10 11  1  0
 10  9  1  0
 11 20  1  0
 12 11  2  0
 14 15  2  0
 14 13  1  0
 16 15  1  0
 17 16  2  0
 18 17  1  0
 19 18  1  6
 20 19  1  0
 21 19  1  0
 21 22  1  0
 23 17  1  0
 23 24  2  0
 24 14  1  0
 25 21  2  0
M  END
$$$$
