NGY.pdb
     RDKit          3D

 25 25  0  0  1  0  0  0  0  0999 V2000
   17.8862  -10.1495  -21.2444 N   0  0  0  0  0  0  0  0  0  0  0  0
   18.5382   -8.8923  -21.2325 C   0  0  0  0  0  0  0  0  0  0  0  0
   19.4420   -8.6589  -22.0727 O   0  0  0  0  0  0  0  0  0  0  0  0
   18.1451   -7.8831  -20.2364 C   0  0  0  0  0  0  0  0  0  0  0  0
   19.2915   -6.9635  -19.8703 C   0  0  2  0  0  0  0  0  0  0  0  0
   20.2966   -7.6449  -19.1025 N   0  0  0  0  0  0  0  0  0  0  0  0
   18.7264   -5.8624  -19.0605 C   0  0  0  0  0  0  0  0  0  0  0  0
   17.8493   -5.1226  -19.5817 O   0  0  0  0  0  0  0  0  0  0  0  0
   19.1643   -5.6516  -17.7362 N   0  0  0  0  0  0  0  0  0  0  0  0
   18.4921   -4.7406  -16.8511 C   0  0  0  0  0  0  0  0  0  0  0  0
   19.1378   -4.7144  -15.5174 C   0  0  0  0  0  0  0  0  0  0  0  0
   18.6802   -3.9245  -14.6179 O   0  0  0  0  0  0  0  0  0  0  0  0
   23.3125  -10.8381  -15.9721 O   0  0  0  0  0  0  0  0  0  0  0  0
   22.6460   -9.8404  -15.2684 C   0  0  0  0  0  0  0  0  0  0  0  0
   21.3916   -9.4305  -15.6615 C   0  0  0  0  0  0  0  0  0  0  0  0
   20.6901   -8.4498  -15.0020 C   0  0  0  0  0  0  0  0  0  0  0  0
   21.2224   -7.8197  -13.8946 C   0  0  0  0  0  0  0  0  0  0  0  0
   20.5722   -6.7706  -13.1217 C   0  0  0  0  0  0  0  0  0  0  0  0
   20.7920   -5.4281  -13.7759 C   0  0  2  0  0  0  0  0  0  0  0  0
   20.2357   -5.4928  -15.1175 N   0  0  0  0  0  0  0  0  0  0  0  0
   22.1950   -5.0430  -13.7701 C   0  0  0  0  0  0  0  0  0  0  0  0
   22.9212   -4.9693  -12.6048 O   0  0  0  0  0  0  0  0  0  0  0  0
   22.4900   -8.2360  -13.4998 C   0  0  0  0  0  0  0  0  0  0  0  0
   23.1857   -9.2205  -14.1677 C   0  0  0  0  0  0  0  0  0  0  0  0
   22.7781   -4.7635  -14.8466 O   0  0  0  0  0  0  0  0  0  0  0  0
  1  2  1  0
  2  3  2  0
  4  5  1  0
  4  2  1  0
  5  6  1  1
  7  5  1  0
  8  7  2  0
  9  7  1  0
 10 11  1  0
 10  9  1  0
 11 20  1  0
 12 11  2  0
 14 15  2  0
 14 13  1  0
 16 15  1  0
 17 16  2  0
 18 17  1  0
 19 18  1  6
 20 19  1  0
 21 19  1  0
 21 22  1  0
 23 17  1  0
 23 24  2  0
 24 14  1  0
 25 21  2  0
M  END
$$$$
