NGY.pdb
     RDKit          3D

 25 25  0  0  1  0  0  0  0  0999 V2000
   29.8477   -7.6814  -22.6221 N   0  0  0  0  0  0  0  0  0  0  0  0
   29.3251   -6.5154  -22.0110 C   0  0  0  0  0  0  0  0  0  0  0  0
   29.4955   -5.4008  -22.5641 O   0  0  0  0  0  0  0  0  0  0  0  0
   28.5926   -6.6313  -20.7402 C   0  0  0  0  0  0  0  0  0  0  0  0
   28.4030   -8.0735  -20.3184 C   0  0  2  0  0  0  0  0  0  0  0  0
   27.2795   -8.6783  -20.9788 N   0  0  0  0  0  0  0  0  0  0  0  0
   28.1650   -8.0738  -18.8586 C   0  0  0  0  0  0  0  0  0  0  0  0
   29.0986   -7.7021  -18.0979 O   0  0  0  0  0  0  0  0  0  0  0  0
   26.9194   -8.4820  -18.3376 N   0  0  0  0  0  0  0  0  0  0  0  0
   26.6228   -8.4059  -16.9335 C   0  0  0  0  0  0  0  0  0  0  0  0
   25.2701   -8.9362  -16.6418 C   0  0  0  0  0  0  0  0  0  0  0  0
   24.4978   -9.2467  -17.6164 O   0  0  0  0  0  0  0  0  0  0  0  0
   26.4723  -14.9807  -16.9895 O   0  0  0  0  0  0  0  0  0  0  0  0
   25.7619  -13.9870  -16.3240 C   0  0  0  0  0  0  0  0  0  0  0  0
   24.4296  -13.7782  -16.6028 C   0  0  0  0  0  0  0  0  0  0  0  0
   23.6822  -12.8109  -15.9748 C   0  0  0  0  0  0  0  0  0  0  0  0
   24.2448  -11.9896  -15.0179 C   0  0  0  0  0  0  0  0  0  0  0  0
   23.5512  -10.9349  -14.2919 C   0  0  0  0  0  0  0  0  0  0  0  0
   23.4006   -9.7126  -15.1649 C   0  0  2  0  0  0  0  0  0  0  0  0
   24.7243   -9.1457  -15.3652 N   0  0  0  0  0  0  0  0  0  0  0  0
   22.4611   -8.7545  -14.6027 C   0  0  0  0  0  0  0  0  0  0  0  0
   21.1045   -8.9788  -14.6129 O   0  0  0  0  0  0  0  0  0  0  0  0
   25.5909  -12.2030  -14.7384 C   0  0  0  0  0  0  0  0  0  0  0  0
   26.3324  -13.1757  -15.3736 C   0  0  0  0  0  0  0  0  0  0  0  0
   22.8779   -7.6860  -14.0914 O   0  0  0  0  0  0  0  0  0  0  0  0
  1  2  1  0
  2  3  2  0
  4  5  1  0
  4  2  1  0
  5  6  1  6
  7  5  1  0
  8  7  2  0
  9  7  1  0
 10 11  1  0
 10  9  1  0
 11 20  1  0
 12 11  2  0
 14 15  2  0
 14 13  1  0
 16 15  1  0
 17 16  2  0
 18 17  1  0
 19 18  1  1
 20 19  1  0
 21 19  1  0
 21 22  1  0
 23 17  1  0
 23 24  2  0
 24 14  1  0
 25 21  2  0
M  END
$$$$
