NGY.pdb
     RDKit          3D

 25 25  0  0  1  0  0  0  0  0999 V2000
   32.6049  -25.8853  -18.3791 N   0  0  0  0  0  0  0  0  0  0  0  0
   32.4178  -24.7216  -19.1644 C   0  0  0  0  0  0  0  0  0  0  0  0
   33.2588  -24.4357  -20.0523 O   0  0  0  0  0  0  0  0  0  0  0  0
   31.2422  -23.8694  -18.9259 C   0  0  0  0  0  0  0  0  0  0  0  0
   30.4059  -24.3606  -17.7627 C   0  0  2  0  0  0  0  0  0  0  0  0
   29.4892  -25.3918  -18.1635 N   0  0  0  0  0  0  0  0  0  0  0  0
   29.6400  -23.2015  -17.2553 C   0  0  0  0  0  0  0  0  0  0  0  0
   30.0941  -22.5690  -16.2643 O   0  0  0  0  0  0  0  0  0  0  0  0
   28.4303  -22.8190  -17.8719 N   0  0  0  0  0  0  0  0  0  0  0  0
   27.6955  -21.6597  -17.4461 C   0  0  0  0  0  0  0  0  0  0  0  0
   26.9830  -21.9148  -16.1719 C   0  0  0  0  0  0  0  0  0  0  0  0
   26.3808  -23.0339  -16.0068 O   0  0  0  0  0  0  0  0  0  0  0  0
   23.1141  -20.9656   -8.2892 O   0  0  0  0  0  0  0  0  0  0  0  0
   23.9213  -20.7982   -9.4096 C   0  0  0  0  0  0  0  0  0  0  0  0
   23.4136  -20.2251  -10.5541 C   0  0  0  0  0  0  0  0  0  0  0  0
   24.1673  -20.0367  -11.6877 C   0  0  0  0  0  0  0  0  0  0  0  0
   25.4929  -20.4214  -11.7302 C   0  0  0  0  0  0  0  0  0  0  0  0
   26.3828  -20.2721  -12.8732 C   0  0  0  0  0  0  0  0  0  0  0  0
   26.0356  -21.2820  -13.9401 C   0  0  2  0  0  0  0  0  0  0  0  0
   26.8963  -21.0306  -15.0846 N   0  0  0  0  0  0  0  0  0  0  0  0
   24.6225  -21.2461  -14.2845 C   0  0  0  0  0  0  0  0  0  0  0  0
   23.7375  -22.1858  -13.8109 O   0  0  0  0  0  0  0  0  0  0  0  0
   26.0030  -21.0001  -10.5724 C   0  0  0  0  0  0  0  0  0  0  0  0
   25.2392  -21.1849   -9.4402 C   0  0  0  0  0  0  0  0  0  0  0  0
   24.1776  -20.3429  -15.0350 O   0  0  0  0  0  0  0  0  0  0  0  0
  1  2  1  0
  2  3  2  0
  4  5  1  0
  4  2  1  0
  5  6  1  6
  7  5  1  0
  8  7  2  0
  9  7  1  0
 10 11  1  0
 10  9  1  0
 11 20  1  0
 12 11  2  0
 14 15  2  0
 14 13  1  0
 16 15  1  0
 17 16  2  0
 18 17  1  0
 19 18  1  1
 20 19  1  0
 21 19  1  0
 21 22  1  0
 23 17  1  0
 23 24  2  0
 24 14  1  0
 25 21  2  0
M  END
$$$$
