NGY.pdb
     RDKit          3D

 25 25  0  0  1  0  0  0  0  0999 V2000
   21.2494  -21.9409   -8.9498 N   0  0  0  0  0  0  0  0  0  0  0  0
   21.1369  -20.8791   -9.8803 C   0  0  0  0  0  0  0  0  0  0  0  0
   20.0374  -20.2859  -10.0083 O   0  0  0  0  0  0  0  0  0  0  0  0
   22.3097  -20.4906  -10.6796 C   0  0  0  0  0  0  0  0  0  0  0  0
   23.5072  -21.3768  -10.4066 C   0  0  2  0  0  0  0  0  0  0  0  0
   24.2396  -20.9411   -9.2498 N   0  0  0  0  0  0  0  0  0  0  0  0
   24.3861  -21.3010  -11.5937 C   0  0  0  0  0  0  0  0  0  0  0  0
   24.0138  -21.8717  -12.6540 O   0  0  0  0  0  0  0  0  0  0  0  0
   25.6112  -20.6044  -11.5328 N   0  0  0  0  0  0  0  0  0  0  0  0
   26.5116  -20.5542  -12.6516 C   0  0  0  0  0  0  0  0  0  0  0  0
   26.1913  -19.4175  -13.5470 C   0  0  0  0  0  0  0  0  0  0  0  0
   25.0995  -18.7706  -13.3682 O   0  0  0  0  0  0  0  0  0  0  0  0
   26.6107  -12.0685  -18.2166 O   0  0  0  0  0  0  0  0  0  0  0  0
   26.8971  -13.2291  -17.5053 C   0  0  0  0  0  0  0  0  0  0  0  0
   27.0339  -14.4319  -18.1616 C   0  0  0  0  0  0  0  0  0  0  0  0
   27.3162  -15.6070  -17.5073 C   0  0  0  0  0  0  0  0  0  0  0  0
   27.4784  -15.6342  -16.1362 C   0  0  0  0  0  0  0  0  0  0  0  0
   27.7770  -16.8172  -15.3411 C   0  0  0  0  0  0  0  0  0  0  0  0
   26.6263  -17.7921  -15.4038 C   0  0  2  0  0  0  0  0  0  0  0  0
   26.9863  -18.9539  -14.6074 N   0  0  0  0  0  0  0  0  0  0  0  0
   26.2804  -18.1386  -16.7738 C   0  0  0  0  0  0  0  0  0  0  0  0
   25.2392  -17.5299  -17.4342 O   0  0  0  0  0  0  0  0  0  0  0  0
   27.3396  -14.4175  -15.4760 C   0  0  0  0  0  0  0  0  0  0  0  0
   27.0563  -13.2440  -16.1409 C   0  0  0  0  0  0  0  0  0  0  0  0
   26.9353  -19.0163  -17.3884 O   0  0  0  0  0  0  0  0  0  0  0  0
  1  2  1  0
  2  3  2  0
  4  5  1  0
  4  2  1  0
  5  6  1  1
  7  5  1  0
  8  7  2  0
  9  7  1  0
 10 11  1  0
 10  9  1  0
 11 20  1  0
 12 11  2  0
 14 15  2  0
 14 13  1  0
 16 15  1  0
 17 16  2  0
 18 17  1  0
 19 18  1  6
 20 19  1  0
 21 19  1  0
 21 22  1  0
 23 17  1  0
 23 24  2  0
 24 14  1  0
 25 21  2  0
M  END
$$$$
