NGY.pdb
     RDKit          3D

 25 25  0  0  1  0  0  0  0  0999 V2000
   27.7178  -20.8542  -20.1753 N   0  0  0  0  0  0  0  0  0  0  0  0
   28.5734  -19.8431  -19.6737 C   0  0  0  0  0  0  0  0  0  0  0  0
   29.3176  -19.2161  -20.4675 O   0  0  0  0  0  0  0  0  0  0  0  0
   28.5745  -19.5459  -18.2326 C   0  0  0  0  0  0  0  0  0  0  0  0
   27.6502  -20.4626  -17.4586 C   0  0  2  0  0  0  0  0  0  0  0  0
   26.2786  -20.0477  -17.5627 N   0  0  0  0  0  0  0  0  0  0  0  0
   28.0672  -20.4072  -16.0406 C   0  0  0  0  0  0  0  0  0  0  0  0
   29.1508  -20.9602  -15.7112 O   0  0  0  0  0  0  0  0  0  0  0  0
   27.2653  -19.7486  -15.0851 N   0  0  0  0  0  0  0  0  0  0  0  0
   27.6492  -19.6620  -13.7030 C   0  0  0  0  0  0  0  0  0  0  0  0
   26.6365  -20.2941  -12.8247 C   0  0  0  0  0  0  0  0  0  0  0  0
   25.4760  -20.5582  -13.2998 O   0  0  0  0  0  0  0  0  0  0  0  0
   28.5887  -18.1900   -5.8993 O   0  0  0  0  0  0  0  0  0  0  0  0
   28.0737  -19.1246   -6.7917 C   0  0  0  0  0  0  0  0  0  0  0  0
   26.7125  -19.2630   -6.9464 C   0  0  0  0  0  0  0  0  0  0  0  0
   26.1520  -20.1699   -7.8136 C   0  0  0  0  0  0  0  0  0  0  0  0
   26.9444  -20.9987   -8.5831 C   0  0  0  0  0  0  0  0  0  0  0  0
   26.4612  -21.9936   -9.5304 C   0  0  0  0  0  0  0  0  0  0  0  0
   25.7886  -21.3170  -10.7002 C   0  0  2  0  0  0  0  0  0  0  0  0
   26.8196  -20.6506  -11.4790 N   0  0  0  0  0  0  0  0  0  0  0  0
   24.7362  -20.4083  -10.2719 C   0  0  0  0  0  0  0  0  0  0  0  0
   23.4913  -20.8629   -9.9054 O   0  0  0  0  0  0  0  0  0  0  0  0
   28.3193  -20.8564   -8.4247 C   0  0  0  0  0  0  0  0  0  0  0  0
   28.8721  -19.9439   -7.5523 C   0  0  0  0  0  0  0  0  0  0  0  0
   24.9475  -19.1711  -10.2305 O   0  0  0  0  0  0  0  0  0  0  0  0
  1  2  1  0
  2  3  2  0
  4  5  1  0
  4  2  1  0
  5  6  1  1
  7  5  1  0
  8  7  2  0
  9  7  1  0
 10 11  1  0
 10  9  1  0
 11 20  1  0
 12 11  2  0
 14 15  2  0
 14 13  1  0
 16 15  1  0
 17 16  2  0
 18 17  1  0
 19 18  1  1
 20 19  1  0
 21 19  1  0
 21 22  1  0
 23 17  1  0
 23 24  2  0
 24 14  1  0
 25 21  2  0
M  END
$$$$
