NGY.pdb
     RDKit          3D

 25 25  0  0  1  0  0  0  0  0999 V2000
   20.6166  -24.6047  -18.3109 N   0  0  0  0  0  0  0  0  0  0  0  0
   20.3586  -23.4374  -17.5514 C   0  0  0  0  0  0  0  0  0  0  0  0
   20.3795  -22.3167  -18.1179 O   0  0  0  0  0  0  0  0  0  0  0  0
   20.0710  -23.5589  -16.1135 C   0  0  0  0  0  0  0  0  0  0  0  0
   20.1613  -24.9917  -15.6310 C   0  0  2  0  0  0  0  0  0  0  0  0
   18.9957  -25.7500  -15.9925 N   0  0  0  0  0  0  0  0  0  0  0  0
   20.2742  -24.9497  -14.1569 C   0  0  0  0  0  0  0  0  0  0  0  0
   20.0497  -23.8581  -13.5683 O   0  0  0  0  0  0  0  0  0  0  0  0
   20.6256  -26.1087  -13.4337 N   0  0  0  0  0  0  0  0  0  0  0  0
   20.7197  -26.1085  -11.9997 C   0  0  0  0  0  0  0  0  0  0  0  0
   19.9057  -27.1969  -11.4089 C   0  0  0  0  0  0  0  0  0  0  0  0
   18.9850  -27.7413  -12.1148 O   0  0  0  0  0  0  0  0  0  0  0  0
   22.8225  -32.0551  -13.7922 O   0  0  0  0  0  0  0  0  0  0  0  0
   22.1741  -31.5407  -12.6742 C   0  0  0  0  0  0  0  0  0  0  0  0
   22.6708  -30.4287  -12.0317 C   0  0  0  0  0  0  0  0  0  0  0  0
   22.0696  -29.8805  -10.9241 C   0  0  0  0  0  0  0  0  0  0  0  0
   20.9186  -30.4312  -10.3962 C   0  0  0  0  0  0  0  0  0  0  0  0
   20.1998  -29.9368   -9.2301 C   0  0  0  0  0  0  0  0  0  0  0  0
   19.2478  -28.8364   -9.6318 C   0  0  2  0  0  0  0  0  0  0  0  0
   20.0418  -27.7172  -10.1119 N   0  0  0  0  0  0  0  0  0  0  0  0
   18.3563  -28.4638   -8.5441 C   0  0  0  0  0  0  0  0  0  0  0  0
   18.3862  -27.2101   -7.9801 O   0  0  0  0  0  0  0  0  0  0  0  0
   20.4192  -31.5546  -11.0475 C   0  0  0  0  0  0  0  0  0  0  0  0
   21.0292  -32.0971  -12.1579 C   0  0  0  0  0  0  0  0  0  0  0  0
   17.5310  -29.2945   -8.0905 O   0  0  0  0  0  0  0  0  0  0  0  0
  1  2  1  0
  2  3  2  0
  4  5  1  0
  4  2  1  0
  5  6  1  1
  7  5  1  0
  8  7  2  0
  9  7  1  0
 10 11  1  0
 10  9  1  0
 11 20  1  0
 12 11  2  0
 14 15  2  0
 14 13  1  0
 16 15  1  0
 17 16  2  0
 18 17  1  0
 19 18  1  1
 20 19  1  0
 21 19  1  0
 21 22  1  0
 23 17  1  0
 23 24  2  0
 24 14  1  0
 25 21  2  0
M  END
$$$$
