YLG.pdb
     RDKit          3D

 25 25  0  0  1  0  0  0  0  0999 V2000
    5.2487  -11.5178   28.9470 O   0  0  0  0  0  0  0  0  0  0  0  0
    5.8677  -12.2518   27.9260 C   0  0  0  0  0  0  0  0  0  0  0  0
    7.0468  -12.9206   28.1789 C   0  0  0  0  0  0  0  0  0  0  0  0
    7.6529  -13.6459   27.1590 C   0  0  0  0  0  0  0  0  0  0  0  0
    7.1031  -13.7142   25.8956 C   0  0  0  0  0  0  0  0  0  0  0  0
    7.8046  -14.5047   24.8634 C   0  0  0  0  0  0  0  0  0  0  0  0
    6.9001  -15.5433   24.2316 C   0  0  2  0  0  0  0  0  0  0  0  0
    6.7780  -16.6387   25.1756 N   0  0  0  0  0  0  0  0  0  0  0  0
    7.6058  -16.0154   22.9861 C   0  0  0  0  0  0  0  0  0  0  0  0
    8.1248  -17.1608   22.9503 O   0  0  0  0  0  0  0  0  0  0  0  0
    5.9190  -13.0403   25.6484 C   0  0  0  0  0  0  0  0  0  0  0  0
    5.3236  -12.3231   26.6644 C   0  0  0  0  0  0  0  0  0  0  0  0
    8.5576  -12.6760   20.2731 C   0  0  0  0  0  0  0  0  0  0  0  0
    8.2679  -13.5502   19.0892 C   0  0  2  0  0  0  0  0  0  0  0  0
    7.4747  -12.8141   18.0314 C   0  0  0  0  0  0  0  0  0  0  0  0
    7.7432  -14.8996   19.3855 C   0  0  0  0  0  0  0  0  0  0  0  0
    8.2198  -15.6205   20.5788 C   0  0  2  0  0  0  0  0  0  0  0  0
    7.6931  -15.1758   21.8415 N   0  0  0  0  0  0  0  0  0  0  0  0
    9.6708  -15.9453   20.6099 C   0  0  0  0  0  0  0  0  0  0  0  0
   10.3901  -15.1718   21.2981 O   0  0  0  0  0  0  0  0  0  0  0  0
   10.2270  -17.0386   19.9174 N   0  0  0  0  0  0  0  0  0  0  0  0
   11.5598  -17.4862   20.1925 C   0  0  0  0  0  0  0  0  0  0  0  0
   12.0018  -18.6137   19.3512 C   0  0  0  0  0  0  0  0  0  0  0  0
   11.1854  -19.5254   18.7238 O   0  0  0  0  0  0  0  0  0  0  0  0
   13.2600  -18.7965   19.1611 O   0  0  0  0  0  0  0  0  0  0  0  0
  2  1  1  0
  3  2  2  0
  4  3  1  0
  5 11  1  0
  5  4  2  0
  6  5  1  0
  7  9  1  0
  7  6  1  0
  7  8  1  1
  9 18  1  0
  9 10  2  0
 11 12  2  0
 12  2  1  0
 14 13  1  1
 14 15  1  0
 16 14  1  0
 17 16  1  6
 18 17  1  0
 19 21  1  0
 19 17  1  0
 20 19  2  0
 22 21  1  0
 23 24  1  0
 23 22  1  0
 25 23  2  0
M  END
$$$$
