YLG.pdb
     RDKit          3D

 25 25  0  0  1  0  0  0  0  0999 V2000
    9.1436  -22.3097   30.7041 O   0  0  0  0  0  0  0  0  0  0  0  0
    8.5950  -21.3406   29.8530 C   0  0  0  0  0  0  0  0  0  0  0  0
    8.8740  -20.0063   30.0614 C   0  0  0  0  0  0  0  0  0  0  0  0
    8.3246  -19.0528   29.2113 C   0  0  0  0  0  0  0  0  0  0  0  0
    7.5045  -19.4083   28.1606 C   0  0  0  0  0  0  0  0  0  0  0  0
    6.9581  -18.3391   27.3000 C   0  0  0  0  0  0  0  0  0  0  0  0
    7.6979  -18.2379   25.9814 C   0  0  2  0  0  0  0  0  0  0  0  0
    9.1154  -18.1822   26.2869 N   0  0  0  0  0  0  0  0  0  0  0  0
    7.2578  -16.9422   25.3493 C   0  0  0  0  0  0  0  0  0  0  0  0
    6.1282  -16.8585   24.8019 O   0  0  0  0  0  0  0  0  0  0  0  0
    7.2285  -20.7498   27.9569 C   0  0  0  0  0  0  0  0  0  0  0  0
    7.7766  -21.6898   28.8038 C   0  0  0  0  0  0  0  0  0  0  0  0
    5.5809  -13.1374   26.1204 C   0  0  0  0  0  0  0  0  0  0  0  0
    7.0575  -13.0972   26.3816 C   0  0  2  0  0  0  0  0  0  0  0  0
    7.4499  -11.8766   27.1853 C   0  0  0  0  0  0  0  0  0  0  0  0
    7.9344  -13.3423   25.2177 C   0  0  0  0  0  0  0  0  0  0  0  0
    7.8917  -14.6478   24.5358 C   0  0  2  0  0  0  0  0  0  0  0  0
    8.1101  -15.8038   25.3638 N   0  0  0  0  0  0  0  0  0  0  0  0
    8.5666  -14.7162   23.2123 C   0  0  0  0  0  0  0  0  0  0  0  0
    8.1583  -13.8956   22.3467 O   0  0  0  0  0  0  0  0  0  0  0  0
    9.5939  -15.6353   22.9219 N   0  0  0  0  0  0  0  0  0  0  0  0
   10.2338  -15.6467   21.6402 C   0  0  0  0  0  0  0  0  0  0  0  0
   11.4214  -16.5177   21.5682 C   0  0  0  0  0  0  0  0  0  0  0  0
   11.8353  -17.4052   22.5339 O   0  0  0  0  0  0  0  0  0  0  0  0
   12.1665  -16.4740   20.5215 O   0  0  0  0  0  0  0  0  0  0  0  0
  2  1  1  0
  3  2  2  0
  4  3  1  0
  5 11  1  0
  5  4  2  0
  6  5  1  0
  7  9  1  0
  7  6  1  0
  7  8  1  1
  9 18  1  0
  9 10  2  0
 11 12  2  0
 12  2  1  0
 14 13  1  6
 14 15  1  0
 16 14  1  0
 17 16  1  1
 18 17  1  0
 19 21  1  0
 19 17  1  0
 20 19  2  0
 22 21  1  0
 23 24  1  0
 23 22  1  0
 25 23  2  0
M  END
$$$$
