YLG.pdb
     RDKit          3D

 25 25  0  0  1  0  0  0  0  0999 V2000
   10.9165  -14.6322   30.4885 O   0  0  0  0  0  0  0  0  0  0  0  0
   10.3840  -14.8253   29.2065 C   0  0  0  0  0  0  0  0  0  0  0  0
    9.8337  -13.7609   28.5239 C   0  0  0  0  0  0  0  0  0  0  0  0
    9.3081  -13.9631   27.2526 C   0  0  0  0  0  0  0  0  0  0  0  0
    9.3228  -15.2059   26.6538 C   0  0  0  0  0  0  0  0  0  0  0  0
    8.7457  -15.3432   25.3008 C   0  0  0  0  0  0  0  0  0  0  0  0
    9.4531  -16.4079   24.4873 C   0  0  2  0  0  0  0  0  0  0  0  0
   10.8630  -16.0651   24.4637 N   0  0  0  0  0  0  0  0  0  0  0  0
    8.8813  -16.3243   23.0951 C   0  0  0  0  0  0  0  0  0  0  0  0
    7.6658  -16.5797   22.8955 O   0  0  0  0  0  0  0  0  0  0  0  0
    9.8768  -16.2703   27.3447 C   0  0  0  0  0  0  0  0  0  0  0  0
   10.3962  -16.0625   28.6049 C   0  0  0  0  0  0  0  0  0  0  0  0
    6.4573  -14.3361   21.3368 C   0  0  0  0  0  0  0  0  0  0  0  0
    7.8244  -13.7498   21.1438 C   0  0  2  0  0  0  0  0  0  0  0  0
    7.7595  -12.2695   20.8365 C   0  0  0  0  0  0  0  0  0  0  0  0
    8.7363  -14.4964   20.2522 C   0  0  0  0  0  0  0  0  0  0  0  0
    9.2106  -15.8335   20.6499 C   0  0  2  0  0  0  0  0  0  0  0  0
    9.7049  -15.9574   21.9953 N   0  0  0  0  0  0  0  0  0  0  0  0
   10.0179  -16.5679   19.6396 C   0  0  0  0  0  0  0  0  0  0  0  0
    9.4136  -16.8799   18.5781 O   0  0  0  0  0  0  0  0  0  0  0  0
   11.3703  -16.9081   19.8385 N   0  0  0  0  0  0  0  0  0  0  0  0
   11.7376  -18.1636   20.4226 C   0  0  0  0  0  0  0  0  0  0  0  0
   11.7153  -19.2961   19.4784 C   0  0  0  0  0  0  0  0  0  0  0  0
   12.8067  -20.0130   19.0469 O   0  0  0  0  0  0  0  0  0  0  0  0
   10.5903  -19.6809   18.9898 O   0  0  0  0  0  0  0  0  0  0  0  0
  2  1  1  0
  3  2  2  0
  4  3  1  0
  5 11  1  0
  5  4  2  0
  6  5  1  0
  7  9  1  0
  7  6  1  0
  7  8  1  6
  9 18  1  0
  9 10  2  0
 11 12  2  0
 12  2  1  0
 14 13  1  6
 14 15  1  0
 16 14  1  0
 17 16  1  6
 18 17  1  0
 19 21  1  0
 19 17  1  0
 20 19  2  0
 22 21  1  0
 23 24  1  0
 23 22  1  0
 25 23  2  0
M  END
$$$$
