YLG.pdb
     RDKit          3D

 25 25  0  0  1  0  0  0  0  0999 V2000
    7.2579  -23.3883   29.4965 O   0  0  0  0  0  0  0  0  0  0  0  0
    7.4174  -22.1530   28.8537 C   0  0  0  0  0  0  0  0  0  0  0  0
    6.3090  -21.4000   28.5282 C   0  0  0  0  0  0  0  0  0  0  0  0
    6.4782  -20.1759   27.8906 C   0  0  0  0  0  0  0  0  0  0  0  0
    7.7311  -19.6932   27.5737 C   0  0  0  0  0  0  0  0  0  0  0  0
    7.8316  -18.3842   26.8964 C   0  0  0  0  0  0  0  0  0  0  0  0
    6.8024  -18.2348   25.7943 C   0  0  2  0  0  0  0  0  0  0  0  0
    7.0019  -19.3338   24.8678 N   0  0  0  0  0  0  0  0  0  0  0  0
    7.1040  -16.9258   25.1104 C   0  0  0  0  0  0  0  0  0  0  0  0
    7.2150  -16.8787   23.8582 O   0  0  0  0  0  0  0  0  0  0  0  0
    8.8398  -20.4544   27.9033 C   0  0  0  0  0  0  0  0  0  0  0  0
    8.6646  -21.6672   28.5355 C   0  0  0  0  0  0  0  0  0  0  0  0
    5.6009  -12.2899   24.9446 C   0  0  0  0  0  0  0  0  0  0  0  0
    6.2379  -12.8158   26.1967 C   0  0  2  0  0  0  0  0  0  0  0  0
    6.0281  -11.8792   27.3666 C   0  0  0  0  0  0  0  0  0  0  0  0
    7.6295  -13.2968   26.0702 C   0  0  0  0  0  0  0  0  0  0  0  0
    7.9034  -14.5527   25.3501 C   0  0  2  0  0  0  0  0  0  0  0  0
    7.2659  -15.7336   25.8686 N   0  0  0  0  0  0  0  0  0  0  0  0
    9.3108  -14.7655   24.9193 C   0  0  0  0  0  0  0  0  0  0  0  0
    9.8508  -13.7989   24.3166 O   0  0  0  0  0  0  0  0  0  0  0  0
   10.0118  -15.9646   25.1542 N   0  0  0  0  0  0  0  0  0  0  0  0
   11.4004  -16.0851   24.8232 C   0  0  0  0  0  0  0  0  0  0  0  0
   11.6532  -16.6433   23.4820 C   0  0  0  0  0  0  0  0  0  0  0  0
   10.6974  -17.0170   22.5664 O   0  0  0  0  0  0  0  0  0  0  0  0
   12.8669  -16.8125   23.0936 O   0  0  0  0  0  0  0  0  0  0  0  0
  2  1  1  0
  3  2  2  0
  4  3  1  0
  5 11  1  0
  5  4  2  0
  6  5  1  0
  7  9  1  0
  7  6  1  0
  7  8  1  6
  9 18  1  0
  9 10  2  0
 11 12  2  0
 12  2  1  0
 14 13  1  6
 14 15  1  0
 16 14  1  0
 17 16  1  1
 18 17  1  0
 19 21  1  0
 19 17  1  0
 20 19  2  0
 22 21  1  0
 23 24  1  0
 23 22  1  0
 25 23  2  0
M  END
$$$$
