YLG.pdb
     RDKit          3D

 25 25  0  0  1  0  0  0  0  0999 V2000
    9.5300  -21.0850   30.6076 O   0  0  0  0  0  0  0  0  0  0  0  0
    9.2037  -20.5636   29.3482 C   0  0  0  0  0  0  0  0  0  0  0  0
    9.9716  -19.5569   28.8018 C   0  0  0  0  0  0  0  0  0  0  0  0
    9.6394  -19.0464   27.5517 C   0  0  0  0  0  0  0  0  0  0  0  0
    8.5572  -19.5229   26.8409 C   0  0  0  0  0  0  0  0  0  0  0  0
    8.2666  -18.9312   25.5188 C   0  0  0  0  0  0  0  0  0  0  0  0
    6.7913  -18.6342   25.3417 C   0  0  2  0  0  0  0  0  0  0  0  0
    6.2857  -19.5512   24.3369 N   0  0  0  0  0  0  0  0  0  0  0  0
    6.7042  -17.2176   24.8340 C   0  0  0  0  0  0  0  0  0  0  0  0
    6.5572  -16.9956   23.6045 O   0  0  0  0  0  0  0  0  0  0  0  0
    7.7905  -20.5338   27.3954 C   0  0  0  0  0  0  0  0  0  0  0  0
    8.1257  -21.0351   28.6353 C   0  0  0  0  0  0  0  0  0  0  0  0
    6.9894  -11.3760   27.0055 C   0  0  0  0  0  0  0  0  0  0  0  0
    6.8329  -12.2897   25.8263 C   0  0  2  0  0  0  0  0  0  0  0  0
    5.9537  -11.6776   24.7576 C   0  0  0  0  0  0  0  0  0  0  0  0
    6.4977  -13.6968   26.1293 C   0  0  0  0  0  0  0  0  0  0  0  0
    7.0775  -14.7760   25.3108 C   0  0  2  0  0  0  0  0  0  0  0  0
    6.7869  -16.1199   25.7343 N   0  0  0  0  0  0  0  0  0  0  0  0
    8.4809  -14.5740   24.8620 C   0  0  0  0  0  0  0  0  0  0  0  0
    8.7081  -13.5000   24.2423 O   0  0  0  0  0  0  0  0  0  0  0  0
    9.5044  -15.5126   25.0986 N   0  0  0  0  0  0  0  0  0  0  0  0
   10.8456  -15.2693   24.6580 C   0  0  0  0  0  0  0  0  0  0  0  0
   11.1896  -15.9281   23.3844 C   0  0  0  0  0  0  0  0  0  0  0  0
   12.3953  -15.8440   22.7283 O   0  0  0  0  0  0  0  0  0  0  0  0
   10.3078  -16.6585   22.8000 O   0  0  0  0  0  0  0  0  0  0  0  0
  2  1  1  0
  3  2  2  0
  4  3  1  0
  5 11  1  0
  5  4  2  0
  6  5  1  0
  7  9  1  0
  7  6  1  0
  7  8  1  6
  9 18  1  0
  9 10  2  0
 11 12  2  0
 12  2  1  0
 14 13  1  1
 14 15  1  0
 16 14  1  0
 17 16  1  1
 18 17  1  0
 19 21  1  0
 19 17  1  0
 20 19  2  0
 22 21  1  0
 23 24  1  0
 23 22  1  0
 25 23  2  0
M  END
$$$$
