YLG.pdb
     RDKit          3D

 25 25  0  0  1  0  0  0  0  0999 V2000
    8.4388  -12.4841   16.8595 O   0  0  0  0  0  0  0  0  0  0  0  0
    8.1077  -13.1711   18.0354 C   0  0  0  0  0  0  0  0  0  0  0  0
    8.3368  -12.5836   19.2617 C   0  0  0  0  0  0  0  0  0  0  0  0
    8.0047  -13.2736   20.4224 C   0  0  0  0  0  0  0  0  0  0  0  0
    7.4497  -14.5358   20.3789 C   0  0  0  0  0  0  0  0  0  0  0  0
    7.1231  -15.2065   21.6540 C   0  0  0  0  0  0  0  0  0  0  0  0
    8.3348  -15.8766   22.2695 C   0  0  2  0  0  0  0  0  0  0  0  0
    8.2749  -17.2826   21.9154 N   0  0  0  0  0  0  0  0  0  0  0  0
    8.1926  -15.7167   23.7616 C   0  0  0  0  0  0  0  0  0  0  0  0
    7.6293  -16.6126   24.4417 O   0  0  0  0  0  0  0  0  0  0  0  0
    7.2222  -15.1199   19.1442 C   0  0  0  0  0  0  0  0  0  0  0  0
    7.5540  -14.4299   17.9975 C   0  0  0  0  0  0  0  0  0  0  0  0
    7.6659  -11.4694   26.1383 C   0  0  0  0  0  0  0  0  0  0  0  0
    6.7388  -12.6417   26.0112 C   0  0  2  0  0  0  0  0  0  0  0  0
    5.3955  -12.3639   26.6500 C   0  0  0  0  0  0  0  0  0  0  0  0
    7.2997  -13.9610   26.3702 C   0  0  0  0  0  0  0  0  0  0  0  0
    8.6141  -14.3625   25.8392 C   0  0  2  0  0  0  0  0  0  0  0  0
    8.6913  -14.5566   24.4158 N   0  0  0  0  0  0  0  0  0  0  0  0
    9.3543  -15.3822   26.6292 C   0  0  0  0  0  0  0  0  0  0  0  0
    9.2869  -15.2588   27.8820 O   0  0  0  0  0  0  0  0  0  0  0  0
   10.0942  -16.4235   26.0355 N   0  0  0  0  0  0  0  0  0  0  0  0
   10.7048  -17.4440   26.8343 C   0  0  0  0  0  0  0  0  0  0  0  0
   11.3367  -18.5228   26.0526 C   0  0  0  0  0  0  0  0  0  0  0  0
   11.8725  -19.6838   26.5591 O   0  0  0  0  0  0  0  0  0  0  0  0
   11.4141  -18.4063   24.7747 O   0  0  0  0  0  0  0  0  0  0  0  0
  2  1  1  0
  3  2  2  0
  4  3  1  0
  5 11  1  0
  5  4  2  0
  6  5  1  0
  7  9  1  0
  7  6  1  0
  7  8  1  1
  9 18  1  0
  9 10  2  0
 11 12  2  0
 12  2  1  0
 14 13  1  1
 14 15  1  0
 16 14  1  0
 17 16  1  1
 18 17  1  0
 19 21  1  0
 19 17  1  0
 20 19  2  0
 22 21  1  0
 23 24  1  0
 23 22  1  0
 25 23  2  0
M  END
$$$$
