YLG.pdb
     RDKit          3D

 25 25  0  0  1  0  0  0  0  0999 V2000
   10.5120  -21.1236   30.8404 O   0  0  0  0  0  0  0  0  0  0  0  0
    9.7087  -20.3121   30.0276 C   0  0  0  0  0  0  0  0  0  0  0  0
    9.9783  -18.9638   29.9229 C   0  0  0  0  0  0  0  0  0  0  0  0
    9.1753  -18.1675   29.1138 C   0  0  0  0  0  0  0  0  0  0  0  0
    8.1115  -18.6933   28.4103 C   0  0  0  0  0  0  0  0  0  0  0  0
    7.3035  -17.7848   27.5711 C   0  0  0  0  0  0  0  0  0  0  0  0
    7.6874  -17.8718   26.1079 C   0  0  2  0  0  0  0  0  0  0  0  0
    9.1365  -17.8325   26.0405 N   0  0  0  0  0  0  0  0  0  0  0  0
    7.1095  -16.6466   25.4467 C   0  0  0  0  0  0  0  0  0  0  0  0
    5.8681  -16.5528   25.2663 O   0  0  0  0  0  0  0  0  0  0  0  0
    7.8463  -20.0479   28.5199 C   0  0  0  0  0  0  0  0  0  0  0  0
    8.6468  -20.8315   29.3239 C   0  0  0  0  0  0  0  0  0  0  0  0
    5.4882  -13.1823   26.5322 C   0  0  0  0  0  0  0  0  0  0  0  0
    6.9646  -13.1171   26.2758 C   0  0  2  0  0  0  0  0  0  0  0  0
    7.6161  -11.9878   27.0441 C   0  0  0  0  0  0  0  0  0  0  0  0
    7.3864  -13.1865   24.8612 C   0  0  0  0  0  0  0  0  0  0  0  0
    7.5003  -14.4977   24.1987 C   0  0  2  0  0  0  0  0  0  0  0  0
    7.9566  -15.5867   25.0207 N   0  0  0  0  0  0  0  0  0  0  0  0
    8.0806  -14.4899   22.8294 C   0  0  0  0  0  0  0  0  0  0  0  0
    7.5915  -13.6442   22.0326 O   0  0  0  0  0  0  0  0  0  0  0  0
    9.1070  -15.3664   22.4264 N   0  0  0  0  0  0  0  0  0  0  0  0
    9.6195  -15.3380   21.0890 C   0  0  0  0  0  0  0  0  0  0  0  0
   10.8676  -16.1018   20.9063 C   0  0  0  0  0  0  0  0  0  0  0  0
   11.6615  -16.1006   19.7833 O   0  0  0  0  0  0  0  0  0  0  0  0
   11.2878  -16.8513   21.8625 O   0  0  0  0  0  0  0  0  0  0  0  0
  2  1  1  0
  3  2  2  0
  4  3  1  0
  5 11  1  0
  5  4  2  0
  6  5  1  0
  7  9  1  0
  7  6  1  0
  7  8  1  1
  9 18  1  0
  9 10  2  0
 11 12  2  0
 12  2  1  0
 14 13  1  6
 14 15  1  0
 16 14  1  0
 17 16  1  1
 18 17  1  0
 19 21  1  0
 19 17  1  0
 20 19  2  0
 22 21  1  0
 23 24  1  0
 23 22  1  0
 25 23  2  0
M  END
$$$$
