YLG.pdb
     RDKit          3D

 25 25  0  0  1  0  0  0  0  0999 V2000
   10.5364  -14.4539   30.8973 O   0  0  0  0  0  0  0  0  0  0  0  0
   10.3176  -14.8148   29.5607 C   0  0  0  0  0  0  0  0  0  0  0  0
    9.9431  -13.8561   28.6430 C   0  0  0  0  0  0  0  0  0  0  0  0
    9.7285  -14.2246   27.3194 C   0  0  0  0  0  0  0  0  0  0  0  0
    9.8811  -15.5296   26.8988 C   0  0  0  0  0  0  0  0  0  0  0  0
    9.6357  -15.8449   25.4766 C   0  0  0  0  0  0  0  0  0  0  0  0
    8.1702  -15.7203   25.1121 C   0  0  2  0  0  0  0  0  0  0  0  0
    7.4457  -16.6974   25.9035 N   0  0  0  0  0  0  0  0  0  0  0  0
    8.0685  -16.0677   23.6489 C   0  0  0  0  0  0  0  0  0  0  0  0
    7.4160  -17.0795   23.2842 O   0  0  0  0  0  0  0  0  0  0  0  0
   10.2574  -16.4872   27.8255 C   0  0  0  0  0  0  0  0  0  0  0  0
   10.4685  -16.1146   29.1362 C   0  0  0  0  0  0  0  0  0  0  0  0
    6.0193  -13.8656   20.4997 C   0  0  0  0  0  0  0  0  0  0  0  0
    7.4380  -13.4028   20.6515 C   0  0  2  0  0  0  0  0  0  0  0  0
    7.6677  -12.0715   19.9698 C   0  0  0  0  0  0  0  0  0  0  0  0
    8.4866  -14.4022   20.3592 C   0  0  0  0  0  0  0  0  0  0  0  0
    8.6657  -15.5545   21.2597 C   0  0  2  0  0  0  0  0  0  0  0  0
    8.7059  -15.2598   22.6673 N   0  0  0  0  0  0  0  0  0  0  0  0
    9.6585  -16.5739   20.8273 C   0  0  0  0  0  0  0  0  0  0  0  0
    9.5579  -16.9635   19.6326 O   0  0  0  0  0  0  0  0  0  0  0  0
   10.6517  -17.0887   21.6834 N   0  0  0  0  0  0  0  0  0  0  0  0
   11.6404  -18.0058   21.1998 C   0  0  0  0  0  0  0  0  0  0  0  0
   12.8272  -17.3569   20.6127 C   0  0  0  0  0  0  0  0  0  0  0  0
   14.0377  -17.1646   21.2366 O   0  0  0  0  0  0  0  0  0  0  0  0
   12.7665  -16.9158   19.4067 O   0  0  0  0  0  0  0  0  0  0  0  0
  2  1  1  0
  3  2  2  0
  4  3  1  0
  5 11  1  0
  5  4  2  0
  6  5  1  0
  7  9  1  0
  7  6  1  0
  7  8  1  1
  9 18  1  0
  9 10  2  0
 11 12  2  0
 12  2  1  0
 14 13  1  6
 14 15  1  0
 16 14  1  0
 17 16  1  6
 18 17  1  0
 19 21  1  0
 19 17  1  0
 20 19  2  0
 22 21  1  0
 23 24  1  0
 23 22  1  0
 25 23  2  0
M  END
$$$$
