YLG.pdb
     RDKit          3D

 25 25  0  0  1  0  0  0  0  0999 V2000
   10.7990  -13.3954   29.6164 O   0  0  0  0  0  0  0  0  0  0  0  0
   10.2159  -14.3566   28.7795 C   0  0  0  0  0  0  0  0  0  0  0  0
    9.2123  -13.9901   27.9077 C   0  0  0  0  0  0  0  0  0  0  0  0
    8.6403  -14.9514   27.0816 C   0  0  0  0  0  0  0  0  0  0  0  0
    9.0524  -16.2677   27.1116 C   0  0  0  0  0  0  0  0  0  0  0  0
    8.3977  -17.2320   26.2040 C   0  0  0  0  0  0  0  0  0  0  0  0
    7.2364  -16.6093   25.4560 C   0  0  2  0  0  0  0  0  0  0  0  0
    6.0857  -17.4710   25.6539 N   0  0  0  0  0  0  0  0  0  0  0  0
    7.6277  -16.6019   24.0003 C   0  0  0  0  0  0  0  0  0  0  0  0
    7.5380  -17.6544   23.3172 O   0  0  0  0  0  0  0  0  0  0  0  0
   10.0606  -16.6289   27.9894 C   0  0  0  0  0  0  0  0  0  0  0  0
   10.6231  -15.6705   28.8055 C   0  0  0  0  0  0  0  0  0  0  0  0
    7.2929  -12.3552   19.9754 C   0  0  0  0  0  0  0  0  0  0  0  0
    7.4727  -13.7876   20.3827 C   0  0  2  0  0  0  0  0  0  0  0  0
    6.1533  -14.4378   20.7378 C   0  0  0  0  0  0  0  0  0  0  0  0
    8.5452  -14.0592   21.3625 C   0  0  0  0  0  0  0  0  0  0  0  0
    8.6017  -15.3684   22.0362 C   0  0  2  0  0  0  0  0  0  0  0  0
    8.1009  -15.4107   23.3842 N   0  0  0  0  0  0  0  0  0  0  0  0
    9.8453  -16.1570   21.8286 C   0  0  0  0  0  0  0  0  0  0  0  0
    9.9239  -16.7770   20.7338 O   0  0  0  0  0  0  0  0  0  0  0  0
   10.8786  -16.2252   22.7836 N   0  0  0  0  0  0  0  0  0  0  0  0
   12.0786  -16.9627   22.5218 C   0  0  0  0  0  0  0  0  0  0  0  0
   13.0896  -16.2140   21.7527 C   0  0  0  0  0  0  0  0  0  0  0  0
   14.3787  -15.9488   22.1516 O   0  0  0  0  0  0  0  0  0  0  0  0
   12.7770  -15.7487   20.5958 O   0  0  0  0  0  0  0  0  0  0  0  0
  2  1  1  0
  3  2  2  0
  4  3  1  0
  5 11  1  0
  5  4  2  0
  6  5  1  0
  7  9  1  0
  7  6  1  0
  7  8  1  6
  9 18  1  0
  9 10  2  0
 11 12  2  0
 12  2  1  0
 14 13  1  1
 14 15  1  0
 16 14  1  0
 17 16  1  1
 18 17  1  0
 19 21  1  0
 19 17  1  0
 20 19  2  0
 22 21  1  0
 23 24  1  0
 23 22  1  0
 25 23  2  0
M  END
$$$$
