YLG.pdb
     RDKit          3D

 25 25  0  0  1  0  0  0  0  0999 V2000
    7.5944  -13.8883   15.7326 O   0  0  0  0  0  0  0  0  0  0  0  0
    7.9664  -13.9264   17.0834 C   0  0  0  0  0  0  0  0  0  0  0  0
    7.5152  -12.9513   17.9478 C   0  0  0  0  0  0  0  0  0  0  0  0
    7.8901  -12.9983   19.2860 C   0  0  0  0  0  0  0  0  0  0  0  0
    8.7049  -13.9991   19.7735 C   0  0  0  0  0  0  0  0  0  0  0  0
    9.0604  -13.9828   21.2073 C   0  0  0  0  0  0  0  0  0  0  0  0
    8.8169  -15.3246   21.8679 C   0  0  2  0  0  0  0  0  0  0  0  0
    7.4237  -15.6657   21.6478 N   0  0  0  0  0  0  0  0  0  0  0  0
    9.0693  -15.1219   23.3400 C   0  0  0  0  0  0  0  0  0  0  0  0
   10.2342  -14.8906   23.7548 O   0  0  0  0  0  0  0  0  0  0  0  0
    9.1544  -14.9751   18.9001 C   0  0  0  0  0  0  0  0  0  0  0  0
    8.7787  -14.9222   17.5745 C   0  0  0  0  0  0  0  0  0  0  0  0
    8.0687  -11.8094   26.2266 C   0  0  0  0  0  0  0  0  0  0  0  0
    6.9293  -12.7428   25.9430 C   0  0  2  0  0  0  0  0  0  0  0  0
    5.6069  -12.1655   26.3990 C   0  0  0  0  0  0  0  0  0  0  0  0
    7.1243  -14.1527   26.3407 C   0  0  0  0  0  0  0  0  0  0  0  0
    8.1693  -14.9569   25.6833 C   0  0  2  0  0  0  0  0  0  0  0  0
    7.9988  -15.1892   24.2738 N   0  0  0  0  0  0  0  0  0  0  0  0
    8.6512  -16.1446   26.4375 C   0  0  0  0  0  0  0  0  0  0  0  0
    8.7858  -15.9857   27.6809 O   0  0  0  0  0  0  0  0  0  0  0  0
    8.9495  -17.3755   25.8208 N   0  0  0  0  0  0  0  0  0  0  0  0
    9.4066  -18.4948   26.5893 C   0  0  0  0  0  0  0  0  0  0  0  0
   10.8606  -18.5028   26.8347 C   0  0  0  0  0  0  0  0  0  0  0  0
   11.7587  -17.5497   26.4147 O   0  0  0  0  0  0  0  0  0  0  0  0
   11.3772  -19.4741   27.4998 O   0  0  0  0  0  0  0  0  0  0  0  0
  2  1  1  0
  3  2  2  0
  4  3  1  0
  5 11  1  0
  5  4  2  0
  6  5  1  0
  7  9  1  0
  7  6  1  0
  7  8  1  1
  9 18  1  0
  9 10  2  0
 11 12  2  0
 12  2  1  0
 14 13  1  1
 14 15  1  0
 16 14  1  0
 17 16  1  1
 18 17  1  0
 19 21  1  0
 19 17  1  0
 20 19  2  0
 22 21  1  0
 23 24  1  0
 23 22  1  0
 25 23  2  0
M  END
$$$$
