YLG.pdb
     RDKit          3D

 25 25  0  0  1  0  0  0  0  0999 V2000
   11.6916  -20.9053   30.7827 O   0  0  0  0  0  0  0  0  0  0  0  0
   10.9932  -19.9665   30.0111 C   0  0  0  0  0  0  0  0  0  0  0  0
    9.6241  -20.0666   29.8810 C   0  0  0  0  0  0  0  0  0  0  0  0
    8.9406  -19.1302   29.1132 C   0  0  0  0  0  0  0  0  0  0  0  0
    9.5993  -18.0993   28.4755 C   0  0  0  0  0  0  0  0  0  0  0  0
    8.8055  -17.1427   27.6773 C   0  0  0  0  0  0  0  0  0  0  0  0
    7.7548  -17.8393   26.8366 C   0  0  2  0  0  0  0  0  0  0  0  0
    8.3860  -18.9984   26.2331 N   0  0  0  0  0  0  0  0  0  0  0  0
    7.3530  -16.8579   25.7654 C   0  0  0  0  0  0  0  0  0  0  0  0
    6.6208  -17.2286   24.8120 O   0  0  0  0  0  0  0  0  0  0  0  0
   10.9742  -18.0046   28.6103 C   0  0  0  0  0  0  0  0  0  0  0  0
   11.6453  -18.9367   29.3732 C   0  0  0  0  0  0  0  0  0  0  0  0
    5.4079  -12.8436   26.7256 C   0  0  0  0  0  0  0  0  0  0  0  0
    6.9000  -12.7914   26.5818 C   0  0  2  0  0  0  0  0  0  0  0  0
    7.4731  -11.5157   27.1597 C   0  0  0  0  0  0  0  0  0  0  0  0
    7.4406  -13.1281   25.2482 C   0  0  0  0  0  0  0  0  0  0  0  0
    7.4729  -14.5342   24.8092 C   0  0  2  0  0  0  0  0  0  0  0  0
    7.7947  -15.5071   25.8190 N   0  0  0  0  0  0  0  0  0  0  0  0
    8.1160  -14.7935   23.4936 C   0  0  0  0  0  0  0  0  0  0  0  0
    7.7191  -14.0723   22.5388 O   0  0  0  0  0  0  0  0  0  0  0  0
    9.1026  -15.7808   23.3035 N   0  0  0  0  0  0  0  0  0  0  0  0
    9.6104  -16.0753   21.9967 C   0  0  0  0  0  0  0  0  0  0  0  0
   11.0389  -15.7550   21.8198 C   0  0  0  0  0  0  0  0  0  0  0  0
   11.6993  -15.6319   20.6198 O   0  0  0  0  0  0  0  0  0  0  0  0
   11.7707  -15.5656   22.8596 O   0  0  0  0  0  0  0  0  0  0  0  0
  2  1  1  0
  3  2  2  0
  4  3  1  0
  5 11  1  0
  5  4  2  0
  6  5  1  0
  7  9  1  0
  7  6  1  0
  7  8  1  6
  9 18  1  0
  9 10  2  0
 11 12  2  0
 12  2  1  0
 14 13  1  6
 14 15  1  0
 16 14  1  0
 17 16  1  1
 18 17  1  0
 19 21  1  0
 19 17  1  0
 20 19  2  0
 22 21  1  0
 23 24  1  0
 23 22  1  0
 25 23  2  0
M  END
$$$$
