DLV.pdb
     RDKit          3D

 24 23  0  0  1  0  0  0  0  0999 V2000
   23.0950   -6.4581  -21.1575 N   0  0  0  0  0  0  0  0  0  0  0  0
   23.1694   -6.1890  -19.7430 C   0  0  1  0  0  0  0  0  0  0  0  0
   22.4830   -4.8490  -19.4969 C   0  0  0  0  0  0  0  0  0  0  0  0
   23.3296   -3.7171  -19.8873 C   0  0  0  0  0  0  0  0  0  0  0  0
   24.5792   -3.8614  -19.9475 O   0  0  0  0  0  0  0  0  0  0  0  0
   22.4668   -7.2310  -18.9481 C   0  0  0  0  0  0  0  0  0  0  0  0
   21.4950   -7.8575  -19.4655 O   0  0  0  0  0  0  0  0  0  0  0  0
   22.8112   -2.4645  -20.2015 O   0  0  0  0  0  0  0  0  0  0  0  0
   22.1476  -11.4418  -16.0732 C   0  0  0  0  0  0  0  0  0  0  0  0
   22.8855  -10.3878  -15.2356 C   0  0  1  0  0  0  0  0  0  0  0  0
   23.9676  -11.1263  -14.5081 C   0  0  0  0  0  0  0  0  0  0  0  0
   23.3908   -9.3040  -16.1296 C   0  0  0  0  0  0  0  0  0  0  0  0
   22.2943   -8.5391  -16.8206 C   0  0  2  0  0  0  0  0  0  0  0  0
   22.8945   -7.5060  -17.6284 N   0  0  0  0  0  0  0  0  0  0  0  0
   21.4597   -7.9238  -15.7805 C   0  0  0  0  0  0  0  0  0  0  0  0
   22.0257   -7.1534  -14.9355 O   0  0  0  0  0  0  0  0  0  0  0  0
   17.1929   -8.4109  -15.5338 C   0  0  0  0  0  0  0  0  0  0  0  0
   17.9011   -7.1286  -15.1247 C   0  0  2  0  0  0  0  0  0  0  0  0
   17.9710   -6.2407  -16.3478 C   0  0  0  0  0  0  0  0  0  0  0  0
   19.3183   -7.4252  -14.6599 C   0  0  2  0  0  0  0  0  0  0  0  0
   20.0721   -8.1307  -15.6565 N   0  0  0  0  0  0  0  0  0  0  0  0
   19.2088   -8.2284  -13.4189 C   0  0  0  0  0  0  0  0  0  0  0  0
   18.7783   -7.6303  -12.2390 O   0  0  0  0  0  0  0  0  0  0  0  0
   19.5006   -9.4551  -13.4096 O   0  0  0  0  0  0  0  0  0  0  0  0
  2  1  1  6
  2  3  1  0
  4  3  1  0
  4  5  2  0
  6  7  2  0
  6  2  1  0
  8  4  1  0
 10  9  1  6
 10 12  1  0
 11 10  1  0
 13 12  1  1
 13 15  1  0
 13 14  1  0
 14  6  1  0
 15 21  1  0
 16 15  2  0
 18 17  1  6
 18 19  1  0
 18 20  1  0
 20 22  1  0
 20 21  1  6
 22 24  2  0
 22 23  1  0
M  END
$$$$
