DLV.pdb
     RDKit          3D

 24 23  0  0  1  0  0  0  0  0999 V2000
   28.3721  -20.5996  -15.9200 N   0  0  0  0  0  0  0  0  0  0  0  0
   27.2669  -19.7169  -15.6405 C   0  0  1  0  0  0  0  0  0  0  0  0
   26.7772  -19.1626  -16.9748 C   0  0  0  0  0  0  0  0  0  0  0  0
   27.8008  -18.3527  -17.6432 C   0  0  0  0  0  0  0  0  0  0  0  0
   28.2204  -17.2985  -17.0968 O   0  0  0  0  0  0  0  0  0  0  0  0
   26.1411  -20.4364  -14.9877 C   0  0  0  0  0  0  0  0  0  0  0  0
   25.6431  -21.4547  -15.5530 O   0  0  0  0  0  0  0  0  0  0  0  0
   28.3438  -18.6973  -18.8772 O   0  0  0  0  0  0  0  0  0  0  0  0
   26.1159  -20.4381   -9.4218 C   0  0  0  0  0  0  0  0  0  0  0  0
   26.0809  -20.8379  -10.9037 C   0  0  1  0  0  0  0  0  0  0  0  0
   26.2088  -22.3307  -10.9287 C   0  0  0  0  0  0  0  0  0  0  0  0
   24.8235  -20.3296  -11.5282 C   0  0  0  0  0  0  0  0  0  0  0  0
   24.6773  -20.7140  -12.9759 C   0  0  2  0  0  0  0  0  0  0  0  0
   25.6448  -19.9728  -13.7471 N   0  0  0  0  0  0  0  0  0  0  0  0
   23.3223  -20.3379  -13.3997 C   0  0  0  0  0  0  0  0  0  0  0  0
   22.9522  -19.1299  -13.2221 O   0  0  0  0  0  0  0  0  0  0  0  0
   20.7785  -22.8172  -15.8000 C   0  0  0  0  0  0  0  0  0  0  0  0
   20.7367  -21.2970  -15.7833 C   0  0  2  0  0  0  0  0  0  0  0  0
   21.7592  -20.8054  -16.7842 C   0  0  0  0  0  0  0  0  0  0  0  0
   21.1112  -20.7667  -14.4082 C   0  0  2  0  0  0  0  0  0  0  0  0
   22.4043  -21.2278  -13.9904 N   0  0  0  0  0  0  0  0  0  0  0  0
   20.0618  -21.2236  -13.4663 C   0  0  0  0  0  0  0  0  0  0  0  0
   18.7887  -20.6655  -13.5193 O   0  0  0  0  0  0  0  0  0  0  0  0
   20.3009  -22.1168  -12.6089 O   0  0  0  0  0  0  0  0  0  0  0  0
  2  1  1  6
  2  3  1  0
  4  3  1  0
  4  5  2  0
  6  7  2  0
  6  2  1  0
  8  4  1  0
 10  9  1  1
 10 12  1  0
 11 10  1  0
 13 12  1  1
 13 15  1  0
 13 14  1  0
 14  6  1  0
 15 21  1  0
 16 15  2  0
 18 17  1  1
 18 19  1  0
 18 20  1  0
 20 22  1  0
 20 21  1  1
 22 24  2  0
 22 23  1  0
M  END
$$$$
