DLV.pdb
     RDKit          3D

 24 23  0  0  1  0  0  0  0  0999 V2000
   20.0936  -20.3146  -11.3836 N   0  0  0  0  0  0  0  0  0  0  0  0
   20.7634  -21.0115  -12.4533 C   0  0  1  0  0  0  0  0  0  0  0  0
   19.7967  -21.0757  -13.6316 C   0  0  0  0  0  0  0  0  0  0  0  0
   20.3608  -21.8129  -14.7668 C   0  0  0  0  0  0  0  0  0  0  0  0
   20.6212  -23.0394  -14.6496 O   0  0  0  0  0  0  0  0  0  0  0  0
   21.9917  -20.2962  -12.8902 C   0  0  0  0  0  0  0  0  0  0  0  0
   21.9234  -19.0658  -13.1833 O   0  0  0  0  0  0  0  0  0  0  0  0
   20.6288  -21.2131  -15.9935 O   0  0  0  0  0  0  0  0  0  0  0  0
   27.1296  -19.1558  -12.6473 C   0  0  0  0  0  0  0  0  0  0  0  0
   26.9366  -20.6201  -13.0662 C   0  0  1  0  0  0  0  0  0  0  0  0
   28.0649  -21.3789  -12.4365 C   0  0  0  0  0  0  0  0  0  0  0  0
   25.5838  -21.0869  -12.6402 C   0  0  0  0  0  0  0  0  0  0  0  0
   24.4576  -20.3544  -13.3185 C   0  0  2  0  0  0  0  0  0  0  0  0
   23.2156  -21.0003  -12.9714 N   0  0  0  0  0  0  0  0  0  0  0  0
   24.6728  -20.4548  -14.7678 C   0  0  0  0  0  0  0  0  0  0  0  0
   24.5887  -21.6077  -15.3079 O   0  0  0  0  0  0  0  0  0  0  0  0
   24.2864  -17.2187  -17.3092 C   0  0  0  0  0  0  0  0  0  0  0  0
   24.2389  -18.6473  -17.8289 C   0  0  2  0  0  0  0  0  0  0  0  0
   22.8164  -19.1383  -17.6723 C   0  0  0  0  0  0  0  0  0  0  0  0
   25.1539  -19.5448  -17.0107 C   0  0  2  0  0  0  0  0  0  0  0  0
   24.9665  -19.3575  -15.6003 N   0  0  0  0  0  0  0  0  0  0  0  0
   26.5456  -19.2186  -17.4027 C   0  0  0  0  0  0  0  0  0  0  0  0
   27.1620  -19.9237  -18.4314 O   0  0  0  0  0  0  0  0  0  0  0  0
   27.1899  -18.3060  -16.8176 O   0  0  0  0  0  0  0  0  0  0  0  0
  2  1  1  1
  2  3  1  0
  4  3  1  0
  4  5  2  0
  6  7  2  0
  6  2  1  0
  8  4  1  0
 10  9  1  1
 10 12  1  0
 11 10  1  0
 13 12  1  1
 13 15  1  0
 13 14  1  0
 14  6  1  0
 15 21  1  0
 16 15  2  0
 18 17  1  1
 18 19  1  0
 18 20  1  0
 20 22  1  0
 20 21  1  1
 22 24  2  0
 22 23  1  0
M  END
$$$$
