DLV.pdb
     RDKit          3D

 24 23  0  0  1  0  0  0  0  0999 V2000
   20.9134  -21.3359  -14.2049 N   0  0  0  0  0  0  0  0  0  0  0  0
   20.0164  -21.1275  -13.0955 C   0  0  1  0  0  0  0  0  0  0  0  0
   18.5962  -21.3379  -13.6115 C   0  0  0  0  0  0  0  0  0  0  0  0
   17.9664  -20.0779  -14.0189 C   0  0  0  0  0  0  0  0  0  0  0  0
   18.5870  -18.9919  -13.8727 O   0  0  0  0  0  0  0  0  0  0  0  0
   20.2670  -22.0980  -11.9971 C   0  0  0  0  0  0  0  0  0  0  0  0
   20.2784  -23.3383  -12.2541 O   0  0  0  0  0  0  0  0  0  0  0  0
   16.6902  -20.0199  -14.5706 O   0  0  0  0  0  0  0  0  0  0  0  0
   23.4672  -20.0858   -8.3222 C   0  0  0  0  0  0  0  0  0  0  0  0
   22.4925  -20.7158   -9.3271 C   0  0  1  0  0  0  0  0  0  0  0  0
   23.3233  -21.1167  -10.5080 C   0  0  0  0  0  0  0  0  0  0  0  0
   21.7749  -21.8541   -8.6800 C   0  0  0  0  0  0  0  0  0  0  0  0
   20.7552  -22.5046   -9.5756 C   0  0  2  0  0  0  0  0  0  0  0  0
   20.4885  -21.6213  -10.6841 N   0  0  0  0  0  0  0  0  0  0  0  0
   19.5280  -22.6879   -8.7900 C   0  0  0  0  0  0  0  0  0  0  0  0
   18.7130  -21.7091   -8.7138 O   0  0  0  0  0  0  0  0  0  0  0  0
   17.7633  -26.4191   -8.0201 C   0  0  0  0  0  0  0  0  0  0  0  0
   17.0564  -25.0727   -8.0422 C   0  0  2  0  0  0  0  0  0  0  0  0
   16.8011  -24.7198   -9.4912 C   0  0  0  0  0  0  0  0  0  0  0  0
   17.9377  -23.9957   -7.4295 C   0  0  2  0  0  0  0  0  0  0  0  0
   19.1933  -23.8774   -8.1143 N   0  0  0  0  0  0  0  0  0  0  0  0
   18.1477  -24.3630   -6.0089 C   0  0  0  0  0  0  0  0  0  0  0  0
   19.4137  -24.7322   -5.5657 O   0  0  0  0  0  0  0  0  0  0  0  0
   17.1935  -24.3480   -5.1847 O   0  0  0  0  0  0  0  0  0  0  0  0
  2  1  1  6
  2  3  1  0
  4  3  1  0
  4  5  2  0
  6  7  2  0
  6  2  1  0
  8  4  1  0
 10  9  1  1
 10 12  1  0
 11 10  1  0
 13 12  1  1
 13 15  1  0
 13 14  1  0
 14  6  1  0
 15 21  1  0
 16 15  2  0
 18 17  1  6
 18 19  1  0
 18 20  1  0
 20 22  1  0
 20 21  1  6
 22 24  2  0
 22 23  1  0
M  END
$$$$
