DLV.pdb
     RDKit          3D

 24 23  0  0  1  0  0  0  0  0999 V2000
   18.8501  -10.2242  -17.6008 N   0  0  0  0  0  0  0  0  0  0  0  0
   18.0026   -9.2663  -16.9353 C   0  0  1  0  0  0  0  0  0  0  0  0
   16.8718  -10.0436  -16.2686 C   0  0  0  0  0  0  0  0  0  0  0  0
   16.0460  -10.7603  -17.2457 C   0  0  0  0  0  0  0  0  0  0  0  0
   15.5781  -11.8937  -16.9585 O   0  0  0  0  0  0  0  0  0  0  0  0
   18.7412   -8.5159  -15.8852 C   0  0  0  0  0  0  0  0  0  0  0  0
   18.0997   -7.7719  -15.0855 O   0  0  0  0  0  0  0  0  0  0  0  0
   15.7465  -10.2406  -18.5013 O   0  0  0  0  0  0  0  0  0  0  0  0
   23.4469  -10.7988  -13.8899 C   0  0  0  0  0  0  0  0  0  0  0  0
   22.0722  -10.1203  -13.9726 C   0  0  1  0  0  0  0  0  0  0  0  0
   21.5506  -10.0782  -12.5684 C   0  0  0  0  0  0  0  0  0  0  0  0
   22.2169   -8.7746  -14.6030 C   0  0  0  0  0  0  0  0  0  0  0  0
   20.9135   -8.0343  -14.7379 C   0  0  2  0  0  0  0  0  0  0  0  0
   20.1468   -8.6447  -15.7960 N   0  0  0  0  0  0  0  0  0  0  0  0
   21.2276   -6.6461  -15.0997 C   0  0  0  0  0  0  0  0  0  0  0  0
   21.8404   -6.4370  -16.1991 O   0  0  0  0  0  0  0  0  0  0  0  0
   19.3144   -3.2682  -13.4999 C   0  0  0  0  0  0  0  0  0  0  0  0
   20.0997   -3.2656  -14.8023 C   0  0  2  0  0  0  0  0  0  0  0  0
   19.1725   -3.7608  -15.8905 C   0  0  0  0  0  0  0  0  0  0  0  0
   21.2884   -4.2096  -14.7121 C   0  0  2  0  0  0  0  0  0  0  0  0
   20.8947   -5.5294  -14.3087 N   0  0  0  0  0  0  0  0  0  0  0  0
   22.2353   -3.6229  -13.7343 C   0  0  0  0  0  0  0  0  0  0  0  0
   22.9289   -2.4590  -14.0499 O   0  0  0  0  0  0  0  0  0  0  0  0
   22.4278   -4.1617  -12.6106 O   0  0  0  0  0  0  0  0  0  0  0  0
  2  1  1  1
  2  3  1  0
  4  3  1  0
  4  5  2  0
  6  7  2  0
  6  2  1  0
  8  4  1  0
 10  9  1  1
 10 12  1  0
 11 10  1  0
 13 12  1  6
 13 15  1  0
 13 14  1  0
 14  6  1  0
 15 21  1  0
 16 15  2  0
 18 17  1  1
 18 19  1  0
 18 20  1  0
 20 22  1  0
 20 21  1  1
 22 24  2  0
 22 23  1  0
M  END
$$$$
