DLV.pdb
     RDKit          3D

 24 23  0  0  1  0  0  0  0  0999 V2000
   17.9119  -12.8449  -17.4399 N   0  0  0  0  0  0  0  0  0  0  0  0
   17.1536  -12.0180  -16.5344 C   0  0  1  0  0  0  0  0  0  0  0  0
   16.4398  -12.9472  -15.5575 C   0  0  0  0  0  0  0  0  0  0  0  0
   15.6507  -13.9716  -16.2490 C   0  0  0  0  0  0  0  0  0  0  0  0
   15.3057  -13.7933  -17.4470 O   0  0  0  0  0  0  0  0  0  0  0  0
   18.0330  -11.1041  -15.7581 C   0  0  0  0  0  0  0  0  0  0  0  0
   17.5732  -10.5230  -14.7307 O   0  0  0  0  0  0  0  0  0  0  0  0
   15.2552  -15.1563  -15.6356 O   0  0  0  0  0  0  0  0  0  0  0  0
   22.3264   -9.5586  -13.3645 C   0  0  0  0  0  0  0  0  0  0  0  0
   22.6513   -9.6686  -14.8609 C   0  0  1  0  0  0  0  0  0  0  0  0
   24.0535  -10.1915  -14.9387 C   0  0  0  0  0  0  0  0  0  0  0  0
   21.6428  -10.5450  -15.5275 C   0  0  0  0  0  0  0  0  0  0  0  0
   20.2520   -9.9701  -15.5182 C   0  0  2  0  0  0  0  0  0  0  0  0
   19.3676  -10.8985  -16.1786 N   0  0  0  0  0  0  0  0  0  0  0  0
   20.2883   -8.7096  -16.2709 C   0  0  0  0  0  0  0  0  0  0  0  0
   20.8277   -8.7170  -17.4272 O   0  0  0  0  0  0  0  0  0  0  0  0
   17.6230   -5.5466  -15.7148 C   0  0  0  0  0  0  0  0  0  0  0  0
   18.4505   -5.7882  -16.9679 C   0  0  2  0  0  0  0  0  0  0  0  0
   17.7381   -6.8450  -17.7833 C   0  0  0  0  0  0  0  0  0  0  0  0
   19.8328   -6.3071  -16.6042 C   0  0  2  0  0  0  0  0  0  0  0  0
   19.7648   -7.4913  -15.7963 N   0  0  0  0  0  0  0  0  0  0  0  0
   20.5288   -5.2172  -15.8799 C   0  0  0  0  0  0  0  0  0  0  0  0
   20.9955   -4.1067  -16.5758 O   0  0  0  0  0  0  0  0  0  0  0  0
   20.7089   -5.2755  -14.6331 O   0  0  0  0  0  0  0  0  0  0  0  0
  2  1  1  6
  2  3  1  0
  4  3  1  0
  4  5  2  0
  6  7  2  0
  6  2  1  0
  8  4  1  0
 10  9  1  1
 10 12  1  0
 11 10  1  0
 13 12  1  6
 13 15  1  0
 13 14  1  0
 14  6  1  0
 15 21  1  0
 16 15  2  0
 18 17  1  1
 18 19  1  0
 18 20  1  0
 20 22  1  0
 20 21  1  1
 22 24  2  0
 22 23  1  0
M  END
$$$$
