DLV.pdb
     RDKit          3D

 24 23  0  0  1  0  0  0  0  0999 V2000
   18.9235  -23.5406   -8.5006 N   0  0  0  0  0  0  0  0  0  0  0  0
   19.0964  -23.5050   -9.9315 C   0  0  1  0  0  0  0  0  0  0  0  0
   17.7172  -23.6718  -10.5618 C   0  0  0  0  0  0  0  0  0  0  0  0
   17.1591  -25.0060  -10.3196 C   0  0  0  0  0  0  0  0  0  0  0  0
   17.9080  -26.0171  -10.3740 O   0  0  0  0  0  0  0  0  0  0  0  0
   19.6671  -22.2083  -10.3835 C   0  0  0  0  0  0  0  0  0  0  0  0
   19.0473  -21.1336  -10.1280 O   0  0  0  0  0  0  0  0  0  0  0  0
   15.8153  -25.2163  -10.0263 O   0  0  0  0  0  0  0  0  0  0  0  0
   24.9651  -21.3927   -9.7306 C   0  0  0  0  0  0  0  0  0  0  0  0
   23.4440  -21.2087   -9.8281 C   0  0  1  0  0  0  0  0  0  0  0  0
   23.1324  -19.9585   -9.0630 C   0  0  0  0  0  0  0  0  0  0  0  0
   23.0389  -21.1539  -11.2641 C   0  0  0  0  0  0  0  0  0  0  0  0
   21.5581  -20.9712  -11.4610 C   0  0  2  0  0  0  0  0  0  0  0  0
   20.8918  -22.1956  -11.0908 N   0  0  0  0  0  0  0  0  0  0  0  0
   21.3303  -20.7023  -12.8867 C   0  0  0  0  0  0  0  0  0  0  0  0
   21.4885  -21.6634  -13.7109 O   0  0  0  0  0  0  0  0  0  0  0  0
   20.4543  -17.1292  -16.0306 C   0  0  0  0  0  0  0  0  0  0  0  0
   19.7729  -18.0867  -15.0651 C   0  0  2  0  0  0  0  0  0  0  0  0
   19.5667  -17.3449  -13.7627 C   0  0  0  0  0  0  0  0  0  0  0  0
   20.6553  -19.2962  -14.7991 C   0  0  2  0  0  0  0  0  0  0  0  0
   20.9479  -19.4488  -13.4025 N   0  0  0  0  0  0  0  0  0  0  0  0
   21.9016  -19.1038  -15.5781 C   0  0  0  0  0  0  0  0  0  0  0  0
   21.9347  -19.4312  -16.9297 O   0  0  0  0  0  0  0  0  0  0  0  0
   22.9437  -18.6448  -15.0361 O   0  0  0  0  0  0  0  0  0  0  0  0
  2  1  1  1
  2  3  1  0
  4  3  1  0
  4  5  2  0
  6  7  2  0
  6  2  1  0
  8  4  1  0
 10  9  1  6
 10 12  1  0
 11 10  1  0
 13 12  1  6
 13 15  1  0
 13 14  1  0
 14  6  1  0
 15 21  1  0
 16 15  2  0
 18 17  1  6
 18 19  1  0
 18 20  1  0
 20 22  1  0
 20 21  1  1
 22 24  2  0
 22 23  1  0
M  END
$$$$
