DLV.pdb
     RDKit          3D

 24 23  0  0  1  0  0  0  0  0999 V2000
   28.4802  -22.4829  -17.5877 N   0  0  0  0  0  0  0  0  0  0  0  0
   27.7919  -21.3042  -17.1234 C   0  0  1  0  0  0  0  0  0  0  0  0
   26.7904  -20.9058  -18.2030 C   0  0  0  0  0  0  0  0  0  0  0  0
   27.4423  -20.2605  -19.3472 C   0  0  0  0  0  0  0  0  0  0  0  0
   28.5645  -19.7087  -19.1989 O   0  0  0  0  0  0  0  0  0  0  0  0
   27.0471  -21.5640  -15.8628 C   0  0  0  0  0  0  0  0  0  0  0  0
   26.3419  -22.6115  -15.7622 O   0  0  0  0  0  0  0  0  0  0  0  0
   26.8715  -20.2262  -20.6158 O   0  0  0  0  0  0  0  0  0  0  0  0
   29.3901  -19.9312  -11.1921 C   0  0  0  0  0  0  0  0  0  0  0  0
   28.6121  -20.7760  -12.2109 C   0  0  1  0  0  0  0  0  0  0  0  0
   28.5403  -22.1554  -11.6300 C   0  0  0  0  0  0  0  0  0  0  0  0
   27.2768  -20.1552  -12.4579 C   0  0  0  0  0  0  0  0  0  0  0  0
   26.4829  -20.8517  -13.5301 C   0  0  2  0  0  0  0  0  0  0  0  0
   27.1378  -20.6384  -14.7972 N   0  0  0  0  0  0  0  0  0  0  0  0
   25.1478  -20.2406  -13.5607 C   0  0  0  0  0  0  0  0  0  0  0  0
   25.0689  -18.9815  -13.7514 O   0  0  0  0  0  0  0  0  0  0  0  0
   21.5498  -22.3431  -14.3538 C   0  0  0  0  0  0  0  0  0  0  0  0
   21.8167  -20.8658  -14.5977 C   0  0  2  0  0  0  0  0  0  0  0  0
   22.5703  -20.7522  -15.9047 C   0  0  0  0  0  0  0  0  0  0  0  0
   22.6814  -20.2882  -13.4883 C   0  0  2  0  0  0  0  0  0  0  0  0
   23.9472  -20.9575  -13.3924 N   0  0  0  0  0  0  0  0  0  0  0  0
   21.9176  -20.4274  -12.2256 C   0  0  0  0  0  0  0  0  0  0  0  0
   20.7555  -19.6880  -12.0305 O   0  0  0  0  0  0  0  0  0  0  0  0
   22.3026  -21.2100  -11.3148 O   0  0  0  0  0  0  0  0  0  0  0  0
  2  1  1  6
  2  3  1  0
  4  3  1  0
  4  5  2  0
  6  7  2  0
  6  2  1  0
  8  4  1  0
 10  9  1  1
 10 12  1  0
 11 10  1  0
 13 12  1  1
 13 15  1  0
 13 14  1  0
 14  6  1  0
 15 21  1  0
 16 15  2  0
 18 17  1  1
 18 19  1  0
 18 20  1  0
 20 22  1  0
 20 21  1  1
 22 24  2  0
 22 23  1  0
M  END
$$$$
