DLV.pdb
     RDKit          3D

 24 23  0  0  1  0  0  0  0  0999 V2000
   28.0368  -21.1497  -15.5617 N   0  0  0  0  0  0  0  0  0  0  0  0
   27.0103  -20.2059  -15.1951 C   0  0  1  0  0  0  0  0  0  0  0  0
   26.4146  -19.6552  -16.4870 C   0  0  0  0  0  0  0  0  0  0  0  0
   27.3961  -18.8913  -17.2638 C   0  0  0  0  0  0  0  0  0  0  0  0
   27.6134  -19.1925  -18.4672 O   0  0  0  0  0  0  0  0  0  0  0  0
   25.9233  -20.8530  -14.4135 C   0  0  0  0  0  0  0  0  0  0  0  0
   25.3762  -21.9039  -14.8618 O   0  0  0  0  0  0  0  0  0  0  0  0
   28.1150  -17.8275  -16.7274 O   0  0  0  0  0  0  0  0  0  0  0  0
   26.0999  -20.1871   -8.9105 C   0  0  0  0  0  0  0  0  0  0  0  0
   25.9836  -20.8069  -10.3102 C   0  0  1  0  0  0  0  0  0  0  0  0
   26.1039  -22.2876  -10.1142 C   0  0  0  0  0  0  0  0  0  0  0  0
   24.6965  -20.3840  -10.9379 C   0  0  0  0  0  0  0  0  0  0  0  0
   24.5189  -20.8971  -12.3415 C   0  0  2  0  0  0  0  0  0  0  0  0
   25.5179  -20.2855  -13.1831 N   0  0  0  0  0  0  0  0  0  0  0  0
   23.1823  -20.4921  -12.7957 C   0  0  0  0  0  0  0  0  0  0  0  0
   22.8568  -19.2638  -12.6814 O   0  0  0  0  0  0  0  0  0  0  0  0
   20.8908  -22.6288  -15.5935 C   0  0  0  0  0  0  0  0  0  0  0  0
   20.7484  -21.1468  -15.2831 C   0  0  2  0  0  0  0  0  0  0  0  0
   21.8221  -20.4169  -16.0601 C   0  0  0  0  0  0  0  0  0  0  0  0
   20.9631  -20.8878  -13.8002 C   0  0  2  0  0  0  0  0  0  0  0  0
   22.2356  -21.3753  -13.3501 N   0  0  0  0  0  0  0  0  0  0  0  0
   19.8580  -21.5614  -13.0776 C   0  0  0  0  0  0  0  0  0  0  0  0
   18.5585  -21.0768  -13.1862 O   0  0  0  0  0  0  0  0  0  0  0  0
   20.0727  -22.5751  -12.3589 O   0  0  0  0  0  0  0  0  0  0  0  0
  2  1  1  6
  2  3  1  0
  4  3  1  0
  4  5  2  0
  6  7  2  0
  6  2  1  0
  8  4  1  0
 10  9  1  1
 10 12  1  0
 11 10  1  0
 13 12  1  1
 13 15  1  0
 13 14  1  0
 14  6  1  0
 15 21  1  0
 16 15  2  0
 18 17  1  1
 18 19  1  0
 18 20  1  0
 20 22  1  0
 20 21  1  1
 22 24  2  0
 22 23  1  0
M  END
$$$$
