DLV.pdb
     RDKit          3D

 24 23  0  0  1  0  0  0  0  0999 V2000
   23.2275  -21.1741  -17.2415 N   0  0  0  0  0  0  0  0  0  0  0  0
   21.9595  -20.7157  -16.7310 C   0  0  1  0  0  0  0  0  0  0  0  0
   20.8964  -21.0682  -17.7668 C   0  0  0  0  0  0  0  0  0  0  0  0
   20.8096  -20.0624  -18.8304 C   0  0  0  0  0  0  0  0  0  0  0  0
   21.1765  -20.3541  -19.9993 O   0  0  0  0  0  0  0  0  0  0  0  0
   21.6091  -21.3846  -15.4500 C   0  0  0  0  0  0  0  0  0  0  0  0
   22.0875  -22.5296  -15.1955 O   0  0  0  0  0  0  0  0  0  0  0  0
   20.3320  -18.7743  -18.6091 O   0  0  0  0  0  0  0  0  0  0  0  0
   20.8473  -18.2288  -10.8351 C   0  0  0  0  0  0  0  0  0  0  0  0
   21.3128  -19.2881  -11.8441 C   0  0  1  0  0  0  0  0  0  0  0  0
   22.3437  -20.1089  -11.1307 C   0  0  0  0  0  0  0  0  0  0  0  0
   20.1367  -20.0764  -12.3186 C   0  0  0  0  0  0  0  0  0  0  0  0
   20.5109  -21.2333  -13.2053 C   0  0  2  0  0  0  0  0  0  0  0  0
   20.7480  -20.7326  -14.5369 N   0  0  0  0  0  0  0  0  0  0  0  0
   19.3728  -22.1612  -13.2272 C   0  0  0  0  0  0  0  0  0  0  0  0
   18.3127  -21.7955  -13.8357 O   0  0  0  0  0  0  0  0  0  0  0  0
   17.4602  -26.6881  -12.7450 C   0  0  0  0  0  0  0  0  0  0  0  0
   18.6434  -25.7650  -12.4982 C   0  0  2  0  0  0  0  0  0  0  0  0
   19.0145  -25.8864  -11.0364 C   0  0  0  0  0  0  0  0  0  0  0  0
   18.2633  -24.3204  -12.7829 C   0  0  2  0  0  0  0  0  0  0  0  0
   19.3775  -23.4310  -12.6180 N   0  0  0  0  0  0  0  0  0  0  0  0
   17.1680  -23.9676  -11.8487 C   0  0  0  0  0  0  0  0  0  0  0  0
   17.4399  -23.2162  -10.7100 O   0  0  0  0  0  0  0  0  0  0  0  0
   15.9823  -24.3380  -12.0662 O   0  0  0  0  0  0  0  0  0  0  0  0
  2  1  1  6
  2  3  1  0
  4  3  1  0
  4  5  2  0
  6  7  2  0
  6  2  1  0
  8  4  1  0
 10  9  1  1
 10 12  1  0
 11 10  1  0
 13 12  1  1
 13 15  1  0
 13 14  1  0
 14  6  1  0
 15 21  1  0
 16 15  2  0
 18 17  1  1
 18 19  1  0
 18 20  1  0
 20 22  1  0
 20 21  1  1
 22 24  2  0
 22 23  1  0
M  END
$$$$
