DLV.pdb
     RDKit          3D

 24 23  0  0  1  0  0  0  0  0999 V2000
   20.1428  -22.6701   -6.6259 N   0  0  0  0  0  0  0  0  0  0  0  0
   20.8358  -23.0216   -7.8404 C   0  0  1  0  0  0  0  0  0  0  0  0
   19.7818  -23.4277   -8.8658 C   0  0  0  0  0  0  0  0  0  0  0  0
   19.0675  -24.6451   -8.4682 C   0  0  0  0  0  0  0  0  0  0  0  0
   19.7165  -25.6802   -8.1626 O   0  0  0  0  0  0  0  0  0  0  0  0
   21.6053  -21.8720   -8.3859 C   0  0  0  0  0  0  0  0  0  0  0  0
   21.0314  -20.7519   -8.5294 O   0  0  0  0  0  0  0  0  0  0  0  0
   17.6790  -24.7164   -8.4102 O   0  0  0  0  0  0  0  0  0  0  0  0
   26.9221  -20.3243   -7.2532 C   0  0  0  0  0  0  0  0  0  0  0  0
   25.5041  -20.0718   -7.7846 C   0  0  1  0  0  0  0  0  0  0  0  0
   25.5092  -18.6714   -8.3176 C   0  0  0  0  0  0  0  0  0  0  0  0
   25.1629  -21.1052   -8.8069 C   0  0  0  0  0  0  0  0  0  0  0  0
   23.7537  -20.9929   -9.3232 C   0  0  2  0  0  0  0  0  0  0  0  0
   22.9645  -22.0472   -8.7354 N   0  0  0  0  0  0  0  0  0  0  0  0
   23.8001  -21.1709  -10.7803 C   0  0  0  0  0  0  0  0  0  0  0  0
   24.5749  -22.0690  -11.2503 O   0  0  0  0  0  0  0  0  0  0  0  0
   21.7615  -21.1922  -15.1643 C   0  0  0  0  0  0  0  0  0  0  0  0
   21.6921  -20.9528  -13.6640 C   0  0  2  0  0  0  0  0  0  0  0  0
   20.8578  -19.7101  -13.4426 C   0  0  0  0  0  0  0  0  0  0  0  0
   23.0817  -20.7108  -13.0960 C   0  0  2  0  0  0  0  0  0  0  0  0
   23.0422  -20.4118  -11.6930 N   0  0  0  0  0  0  0  0  0  0  0  0
   23.6708  -19.5829  -13.8562 C   0  0  0  0  0  0  0  0  0  0  0  0
   23.8132  -18.3371  -13.2538 O   0  0  0  0  0  0  0  0  0  0  0  0
   24.0498  -19.7299  -15.0499 O   0  0  0  0  0  0  0  0  0  0  0  0
  2  1  1  1
  2  3  1  0
  4  3  1  0
  4  5  2  0
  6  7  2  0
  6  2  1  0
  8  4  1  0
 10  9  1  6
 10 12  1  0
 11 10  1  0
 13 12  1  1
 13 15  1  0
 13 14  1  0
 14  6  1  0
 15 21  1  0
 16 15  2  0
 18 17  1  6
 18 19  1  0
 18 20  1  0
 20 22  1  0
 20 21  1  1
 22 24  2  0
 22 23  1  0
M  END
$$$$
