VKI.pdb
     RDKit          3D

 25 24  0  0  1  0  0  0  0  0999 V2000
   21.6500  -14.8407  -21.2580 C   0  0  0  0  0  0  0  0  0  0  0  0
   20.4991  -14.1051  -20.6033 C   0  0  1  0  0  0  0  0  0  0  0  0
   19.5602  -13.6631  -21.7062 C   0  0  0  0  0  0  0  0  0  0  0  0
   19.7995  -15.0791  -19.6833 C   0  0  2  0  0  0  0  0  0  0  0  0
   19.4024  -16.2512  -20.4396 N   0  0  0  0  0  0  0  0  0  0  0  0
   18.6202  -14.4470  -19.0197 C   0  0  0  0  0  0  0  0  0  0  0  0
   17.4838  -14.4280  -19.5984 O   0  0  0  0  0  0  0  0  0  0  0  0
   18.8021  -13.8737  -17.7373 N   0  0  0  0  0  0  0  0  0  0  0  0
   17.7434  -13.2056  -17.0126 C   0  0  1  0  0  0  0  0  0  0  0  0
   17.4309  -14.0614  -15.8190 C   0  0  0  0  0  0  0  0  0  0  0  0
   16.0237  -14.5484  -15.7415 C   0  0  0  0  0  0  0  0  0  0  0  0
   15.9320  -15.4104  -14.4748 C   0  0  0  0  0  0  0  0  0  0  0  0
   14.5774  -16.0815  -14.3894 C   0  0  0  0  0  0  0  0  0  0  0  0
   14.6418  -17.1201  -13.3745 N   0  0  0  0  0  0  0  0  0  0  0  0
   18.2056  -11.8392  -16.6504 C   0  0  0  0  0  0  0  0  0  0  0  0
   19.3860  -11.6542  -16.2770 O   0  0  0  0  0  0  0  0  0  0  0  0
   16.2324   -7.6017  -19.3813 C   0  0  0  0  0  0  0  0  0  0  0  0
   17.2115   -8.3593  -18.5565 C   0  0  0  0  0  0  0  0  0  0  0  0
   16.8857   -8.4174  -17.0945 C   0  0  2  0  0  0  0  0  0  0  0  0
   17.1098   -7.0303  -16.5198 C   0  0  0  0  0  0  0  0  0  0  0  0
   17.7292   -9.3801  -16.3176 C   0  0  2  0  0  0  0  0  0  0  0  0
   17.3478  -10.7197  -16.7122 N   0  0  0  0  0  0  0  0  0  0  0  0
   17.6494   -9.2360  -14.8713 C   0  0  0  0  0  0  0  0  0  0  0  0
   18.5669   -8.4203  -14.2267 O   0  0  0  0  0  0  0  0  0  0  0  0
   16.7991   -9.8014  -14.1375 O   0  0  0  0  0  0  0  0  0  0  0  0
  2  1  1  6
  2  3  1  0
  4  6  1  0
  4  2  1  0
  4  5  1  6
  6  7  2  0
  8  6  1  0
  8  9  1  0
  9 10  1  1
 11 10  1  0
 12 13  1  0
 12 11  1  0
 13 14  1  0
 15 22  1  0
 15  9  1  0
 16 15  2  0
 18 17  1  0
 18 19  1  0
 19 20  1  1
 19 21  1  0
 21 22  1  1
 23 24  1  0
 23 21  1  0
 25 23  2  0
M  END
$$$$
