VKI.pdb
     RDKit          3D

 25 24  0  0  1  0  0  0  0  0999 V2000
   24.9674  -20.3878  -17.1870 C   0  0  0  0  0  0  0  0  0  0  0  0
   24.7648  -18.9333  -17.5577 C   0  0  1  0  0  0  0  0  0  0  0  0
   24.9628  -18.8172  -19.0546 C   0  0  0  0  0  0  0  0  0  0  0  0
   23.3465  -18.5620  -17.1899 C   0  0  2  0  0  0  0  0  0  0  0  0
   23.0681  -17.2165  -17.6541 N   0  0  0  0  0  0  0  0  0  0  0  0
   23.1202  -18.6766  -15.7181 C   0  0  0  0  0  0  0  0  0  0  0  0
   23.7147  -17.8915  -14.9076 O   0  0  0  0  0  0  0  0  0  0  0  0
   22.2313  -19.6770  -15.2540 N   0  0  0  0  0  0  0  0  0  0  0  0
   22.0012  -19.9410  -13.8505 C   0  0  1  0  0  0  0  0  0  0  0  0
   20.6678  -20.6247  -13.7530 C   0  0  0  0  0  0  0  0  0  0  0  0
   20.2655  -21.0319  -12.3762 C   0  0  0  0  0  0  0  0  0  0  0  0
   18.8504  -21.6148  -12.4922 C   0  0  0  0  0  0  0  0  0  0  0  0
   18.3520  -22.0658  -11.1354 C   0  0  0  0  0  0  0  0  0  0  0  0
   17.0569  -22.7025  -11.3095 N   0  0  0  0  0  0  0  0  0  0  0  0
   23.1240  -20.7677  -13.3331 C   0  0  0  0  0  0  0  0  0  0  0  0
   23.4021  -21.8600  -13.8775 O   0  0  0  0  0  0  0  0  0  0  0  0
   28.7459  -20.9821  -12.5540 C   0  0  0  0  0  0  0  0  0  0  0  0
   27.4846  -21.4225  -11.8999 C   0  0  0  0  0  0  0  0  0  0  0  0
   26.2517  -20.7182  -12.3803 C   0  0  2  0  0  0  0  0  0  0  0  0
   26.4512  -19.2321  -12.1429 C   0  0  0  0  0  0  0  0  0  0  0  0
   24.9969  -21.1330  -11.6766 C   0  0  2  0  0  0  0  0  0  0  0  0
   23.9044  -20.3606  -12.2293 N   0  0  0  0  0  0  0  0  0  0  0  0
   25.0325  -20.9952  -10.2279 C   0  0  0  0  0  0  0  0  0  0  0  0
   24.2303  -20.0384   -9.6250 O   0  0  0  0  0  0  0  0  0  0  0  0
   25.7458  -21.6862   -9.4566 O   0  0  0  0  0  0  0  0  0  0  0  0
  2  1  1  6
  2  3  1  0
  4  6  1  0
  4  2  1  0
  4  5  1  1
  6  7  2  0
  8  6  1  0
  8  9  1  0
  9 10  1  6
 11 10  1  0
 12 13  1  0
 12 11  1  0
 13 14  1  0
 15 22  1  0
 15  9  1  0
 16 15  2  0
 18 17  1  0
 18 19  1  0
 19 20  1  1
 19 21  1  0
 21 22  1  6
 23 24  1  0
 23 21  1  0
 25 23  2  0
M  END
$$$$
