VKI.pdb
     RDKit          3D

 25 24  0  0  1  0  0  0  0  0999 V2000
   25.5897  -33.9900  -13.3206 C   0  0  0  0  0  0  0  0  0  0  0  0
   25.2356  -33.3615  -11.9887 C   0  0  1  0  0  0  0  0  0  0  0  0
   23.8735  -32.7176  -12.1414 C   0  0  0  0  0  0  0  0  0  0  0  0
   25.1754  -34.4699  -10.9628 C   0  0  2  0  0  0  0  0  0  0  0  0
   24.0838  -35.3668  -11.2905 N   0  0  0  0  0  0  0  0  0  0  0  0
   25.0208  -33.9229   -9.5817 C   0  0  0  0  0  0  0  0  0  0  0  0
   25.9475  -33.2232   -9.0541 O   0  0  0  0  0  0  0  0  0  0  0  0
   23.8219  -34.2035   -8.8815 N   0  0  0  0  0  0  0  0  0  0  0  0
   23.5548  -33.7184   -7.5452 C   0  0  1  0  0  0  0  0  0  0  0  0
   22.0841  -33.9036   -7.3050 C   0  0  0  0  0  0  0  0  0  0  0  0
   21.6014  -33.4586   -5.9662 C   0  0  0  0  0  0  0  0  0  0  0  0
   20.1122  -33.8239   -5.8985 C   0  0  0  0  0  0  0  0  0  0  0  0
   19.5261  -33.4074   -4.5659 C   0  0  0  0  0  0  0  0  0  0  0  0
   18.0949  -33.6596   -4.5939 N   0  0  0  0  0  0  0  0  0  0  0  0
   24.4056  -34.4738   -6.5875 C   0  0  0  0  0  0  0  0  0  0  0  0
   24.4897  -35.7200   -6.6703 O   0  0  0  0  0  0  0  0  0  0  0  0
   29.8690  -34.1220   -4.3595 C   0  0  0  0  0  0  0  0  0  0  0  0
   28.4782  -34.5258   -4.0196 C   0  0  0  0  0  0  0  0  0  0  0  0
   27.4262  -33.9799   -4.9373 C   0  0  2  0  0  0  0  0  0  0  0  0
   27.3981  -32.4728   -4.7568 C   0  0  0  0  0  0  0  0  0  0  0  0
   26.0490  -34.5021   -4.6682 C   0  0  2  0  0  0  0  0  0  0  0  0
   25.1372  -33.8274   -5.5677 N   0  0  0  0  0  0  0  0  0  0  0  0
   25.5985  -34.3617   -3.2911 C   0  0  0  0  0  0  0  0  0  0  0  0
   24.5912  -33.4532   -3.0040 O   0  0  0  0  0  0  0  0  0  0  0  0
   26.0554  -35.0094   -2.3149 O   0  0  0  0  0  0  0  0  0  0  0  0
  2  1  1  6
  2  3  1  0
  4  6  1  0
  4  2  1  0
  4  5  1  6
  6  7  2  0
  8  6  1  0
  8  9  1  0
  9 10  1  1
 11 10  1  0
 12 13  1  0
 12 11  1  0
 13 14  1  0
 15 22  1  0
 15  9  1  0
 16 15  2  0
 18 17  1  0
 18 19  1  0
 19 20  1  1
 19 21  1  0
 21 22  1  6
 23 24  1  0
 23 21  1  0
 25 23  2  0
M  END
$$$$
