VKI.pdb
     RDKit          3D

 25 24  0  0  1  0  0  0  0  0999 V2000
   30.9917  -33.0278  -18.4256 C   0  0  0  0  0  0  0  0  0  0  0  0
   29.9530  -32.8052  -17.3458 C   0  0  1  0  0  0  0  0  0  0  0  0
   30.6668  -32.8740  -16.0120 C   0  0  0  0  0  0  0  0  0  0  0  0
   29.3680  -31.4269  -17.5526 C   0  0  2  0  0  0  0  0  0  0  0  0
   30.4319  -30.4426  -17.5008 N   0  0  0  0  0  0  0  0  0  0  0  0
   28.3135  -31.1274  -16.5383 C   0  0  0  0  0  0  0  0  0  0  0  0
   28.5972  -30.4696  -15.4831 O   0  0  0  0  0  0  0  0  0  0  0  0
   26.9985  -31.5933  -16.7832 N   0  0  0  0  0  0  0  0  0  0  0  0
   25.8850  -31.3169  -15.9022 C   0  0  1  0  0  0  0  0  0  0  0  0
   24.8110  -30.6938  -16.7468 C   0  0  0  0  0  0  0  0  0  0  0  0
   23.6638  -30.1186  -15.9875 C   0  0  0  0  0  0  0  0  0  0  0  0
   22.4040  -30.8303  -16.4996 C   0  0  0  0  0  0  0  0  0  0  0  0
   21.1789  -29.9733  -16.2601 C   0  0  0  0  0  0  0  0  0  0  0  0
   20.0094  -30.7043  -16.7191 N   0  0  0  0  0  0  0  0  0  0  0  0
   25.4617  -32.5893  -15.2591 C   0  0  0  0  0  0  0  0  0  0  0  0
   25.3762  -33.6376  -15.9378 O   0  0  0  0  0  0  0  0  0  0  0  0
   25.2962  -32.6514   -9.5757 C   0  0  0  0  0  0  0  0  0  0  0  0
   24.8615  -32.6582  -10.9983 C   0  0  0  0  0  0  0  0  0  0  0  0
   25.3947  -33.7999  -11.8101 C   0  0  2  0  0  0  0  0  0  0  0  0
   26.8951  -33.6083  -11.9400 C   0  0  0  0  0  0  0  0  0  0  0  0
   24.8204  -33.8901  -13.1899 C   0  0  2  0  0  0  0  0  0  0  0  0
   25.1461  -32.6628  -13.8851 N   0  0  0  0  0  0  0  0  0  0  0  0
   23.3867  -34.1367  -13.2420 C   0  0  0  0  0  0  0  0  0  0  0  0
   22.5548  -33.1525  -13.7537 O   0  0  0  0  0  0  0  0  0  0  0  0
   22.8233  -35.1916  -12.8535 O   0  0  0  0  0  0  0  0  0  0  0  0
  2  1  1  6
  2  3  1  0
  4  6  1  0
  4  2  1  0
  4  5  1  1
  6  7  2  0
  8  6  1  0
  8  9  1  0
  9 10  1  6
 11 10  1  0
 12 13  1  0
 12 11  1  0
 13 14  1  0
 15 22  1  0
 15  9  1  0
 16 15  2  0
 18 17  1  0
 18 19  1  0
 19 20  1  6
 19 21  1  0
 21 22  1  1
 23 24  1  0
 23 21  1  0
 25 23  2  0
M  END
$$$$
