VKI.pdb
     RDKit          3D

 25 24  0  0  1  0  0  0  0  0999 V2000
   21.4068  -10.6187  -22.1341 C   0  0  0  0  0  0  0  0  0  0  0  0
   21.0342   -9.9618  -20.8211 C   0  0  1  0  0  0  0  0  0  0  0  0
   20.6818   -8.5200  -21.1219 C   0  0  0  0  0  0  0  0  0  0  0  0
   19.8279  -10.6891  -20.2731 C   0  0  2  0  0  0  0  0  0  0  0  0
   18.7782  -10.6970  -21.2739 N   0  0  0  0  0  0  0  0  0  0  0  0
   19.3498  -10.0663  -19.0027 C   0  0  0  0  0  0  0  0  0  0  0  0
   18.5454   -9.0769  -19.0284 O   0  0  0  0  0  0  0  0  0  0  0  0
   19.8141  -10.6048  -17.7777 N   0  0  0  0  0  0  0  0  0  0  0  0
   19.4075  -10.0964  -16.4860 C   0  0  1  0  0  0  0  0  0  0  0  0
   19.0358  -11.2878  -15.6509 C   0  0  0  0  0  0  0  0  0  0  0  0
   17.6677  -11.8284  -15.8946 C   0  0  0  0  0  0  0  0  0  0  0  0
   17.4946  -13.0176  -14.9399 C   0  0  0  0  0  0  0  0  0  0  0  0
   16.1210  -13.6328  -15.1058 C   0  0  0  0  0  0  0  0  0  0  0  0
   15.9966  -14.7392  -14.1713 N   0  0  0  0  0  0  0  0  0  0  0  0
   20.5289   -9.3051  -15.9132 C   0  0  0  0  0  0  0  0  0  0  0  0
   21.7056   -9.7197  -16.0142 O   0  0  0  0  0  0  0  0  0  0  0  0
   22.9371   -4.0652  -16.2168 C   0  0  0  0  0  0  0  0  0  0  0  0
   22.6447   -5.1436  -15.2346 C   0  0  0  0  0  0  0  0  0  0  0  0
   21.6004   -6.1246  -15.6750 C   0  0  2  0  0  0  0  0  0  0  0  0
   20.2943   -5.3660  -15.8269 C   0  0  0  0  0  0  0  0  0  0  0  0
   21.3716   -7.2480  -14.7119 C   0  0  2  0  0  0  0  0  0  0  0  0
   20.3140   -8.0795  -15.2463 N   0  0  0  0  0  0  0  0  0  0  0  0
   21.0535   -6.8348  -13.3528 C   0  0  0  0  0  0  0  0  0  0  0  0
   19.7704   -7.0447  -12.8708 O   0  0  0  0  0  0  0  0  0  0  0  0
   21.8618   -6.2905  -12.5582 O   0  0  0  0  0  0  0  0  0  0  0  0
  2  1  1  6
  2  3  1  0
  4  6  1  0
  4  2  1  0
  4  5  1  6
  6  7  2  0
  8  6  1  0
  8  9  1  0
  9 10  1  1
 11 10  1  0
 12 13  1  0
 12 11  1  0
 13 14  1  0
 15 22  1  0
 15  9  1  0
 16 15  2  0
 18 17  1  0
 18 19  1  0
 19 20  1  1
 19 21  1  0
 21 22  1  6
 23 24  1  0
 23 21  1  0
 25 23  2  0
M  END
$$$$
