VKI.pdb
     RDKit          3D

 25 24  0  0  1  0  0  0  0  0999 V2000
   26.6664  -15.4859  -16.2066 C   0  0  0  0  0  0  0  0  0  0  0  0
   25.8851  -16.6832  -15.7064 C   0  0  1  0  0  0  0  0  0  0  0  0
   25.7139  -17.6308  -16.8752 C   0  0  0  0  0  0  0  0  0  0  0  0
   26.7038  -17.3405  -14.6190 C   0  0  2  0  0  0  0  0  0  0  0  0
   27.9840  -17.7490  -15.1644 N   0  0  0  0  0  0  0  0  0  0  0  0
   25.9809  -18.5041  -14.0241 C   0  0  0  0  0  0  0  0  0  0  0  0
   24.8309  -18.3509  -13.4942 O   0  0  0  0  0  0  0  0  0  0  0  0
   26.6079  -19.7736  -14.0664 N   0  0  0  0  0  0  0  0  0  0  0  0
   26.0461  -20.9538  -13.4469 C   0  0  1  0  0  0  0  0  0  0  0  0
   26.5221  -22.1304  -14.2494 C   0  0  0  0  0  0  0  0  0  0  0  0
   25.4778  -22.7896  -15.0849 C   0  0  0  0  0  0  0  0  0  0  0  0
   24.9165  -23.9456  -14.2456 C   0  0  0  0  0  0  0  0  0  0  0  0
   23.8353  -24.6784  -15.0117 C   0  0  0  0  0  0  0  0  0  0  0  0
   23.1781  -25.6059  -14.1059 N   0  0  0  0  0  0  0  0  0  0  0  0
   26.4829  -20.9972  -12.0259 C   0  0  0  0  0  0  0  0  0  0  0  0
   27.6749  -21.2543  -11.7432 O   0  0  0  0  0  0  0  0  0  0  0  0
   28.0354  -19.3521   -6.9697 C   0  0  0  0  0  0  0  0  0  0  0  0
   27.1458  -20.3803   -7.5734 C   0  0  0  0  0  0  0  0  0  0  0  0
   26.8387  -20.1675   -9.0250 C   0  0  2  0  0  0  0  0  0  0  0  0
   26.2728  -18.7667   -9.1730 C   0  0  0  0  0  0  0  0  0  0  0  0
   25.8387  -21.1303   -9.5862 C   0  0  2  0  0  0  0  0  0  0  0  0
   25.5877  -20.7549  -10.9616 N   0  0  0  0  0  0  0  0  0  0  0  0
   24.5872  -21.2141   -8.8475 C   0  0  0  0  0  0  0  0  0  0  0  0
   23.4046  -20.8837   -9.4915 O   0  0  0  0  0  0  0  0  0  0  0  0
   24.4833  -21.5690   -7.6456 O   0  0  0  0  0  0  0  0  0  0  0  0
  2  1  1  6
  2  3  1  0
  4  6  1  0
  4  2  1  0
  4  5  1  6
  6  7  2  0
  8  6  1  0
  8  9  1  0
  9 10  1  6
 11 10  1  0
 12 13  1  0
 12 11  1  0
 13 14  1  0
 15 22  1  0
 15  9  1  0
 16 15  2  0
 18 17  1  0
 18 19  1  0
 19 20  1  1
 19 21  1  0
 21 22  1  6
 23 24  1  0
 23 21  1  0
 25 23  2  0
M  END
$$$$
