VKI.pdb
     RDKit          3D

 25 24  0  0  1  0  0  0  0  0999 V2000
   29.6867  -22.6539  -16.3145 C   0  0  0  0  0  0  0  0  0  0  0  0
   28.6239  -22.0923  -15.3929 C   0  0  1  0  0  0  0  0  0  0  0  0
   29.3053  -21.1087  -14.4647 C   0  0  0  0  0  0  0  0  0  0  0  0
   27.6061  -21.3779  -16.2521 C   0  0  2  0  0  0  0  0  0  0  0  0
   28.2913  -20.4660  -17.1477 N   0  0  0  0  0  0  0  0  0  0  0  0
   26.6036  -20.6525  -15.4158 C   0  0  0  0  0  0  0  0  0  0  0  0
   26.8002  -19.4393  -15.0748 O   0  0  0  0  0  0  0  0  0  0  0  0
   25.4367  -21.3488  -15.0162 N   0  0  0  0  0  0  0  0  0  0  0  0
   24.4746  -20.8080  -14.0812 C   0  0  1  0  0  0  0  0  0  0  0  0
   23.1138  -21.1511  -14.6154 C   0  0  0  0  0  0  0  0  0  0  0  0
   21.9734  -20.7617  -13.7373 C   0  0  0  0  0  0  0  0  0  0  0  0
   21.1616  -19.7185  -14.5174 C   0  0  0  0  0  0  0  0  0  0  0  0
   21.0236  -18.4449  -13.7101 C   0  0  0  0  0  0  0  0  0  0  0  0
   20.1437  -17.5380  -14.4286 N   0  0  0  0  0  0  0  0  0  0  0  0
   24.7410  -21.3879  -12.7378 C   0  0  0  0  0  0  0  0  0  0  0  0
   24.8368  -22.6281  -12.5972 O   0  0  0  0  0  0  0  0  0  0  0  0
   27.6316  -19.8448   -7.6101 C   0  0  0  0  0  0  0  0  0  0  0  0
   26.5929  -20.6937   -8.2530 C   0  0  0  0  0  0  0  0  0  0  0  0
   26.2758  -20.3276   -9.6716 C   0  0  2  0  0  0  0  0  0  0  0  0
   25.9157  -18.8531   -9.6946 C   0  0  0  0  0  0  0  0  0  0  0  0
   25.1295  -21.0913  -10.2587 C   0  0  2  0  0  0  0  0  0  0  0  0
   24.8933  -20.5781  -11.5915 N   0  0  0  0  0  0  0  0  0  0  0  0
   23.9026  -21.0527   -9.4763 C   0  0  0  0  0  0  0  0  0  0  0  0
   22.8288  -20.3132   -9.9482 O   0  0  0  0  0  0  0  0  0  0  0  0
   23.7279  -21.6470   -8.3819 O   0  0  0  0  0  0  0  0  0  0  0  0
  2  1  1  6
  2  3  1  0
  4  6  1  0
  4  2  1  0
  4  5  1  6
  6  7  2  0
  8  6  1  0
  8  9  1  0
  9 10  1  6
 11 10  1  0
 12 13  1  0
 12 11  1  0
 13 14  1  0
 15 22  1  0
 15  9  1  0
 16 15  2  0
 18 17  1  0
 18 19  1  0
 19 20  1  1
 19 21  1  0
 21 22  1  6
 23 24  1  0
 23 21  1  0
 25 23  2  0
M  END
$$$$
