VKI.pdb
     RDKit          3D

 25 24  0  0  1  0  0  0  0  0999 V2000
   26.4398   -9.9380  -15.6659 C   0  0  0  0  0  0  0  0  0  0  0  0
   26.4610  -11.0904  -16.6487 C   0  0  1  0  0  0  0  0  0  0  0  0
   27.5774  -12.0226  -16.2271 C   0  0  0  0  0  0  0  0  0  0  0  0
   25.1283  -11.7969  -16.5521 C   0  0  2  0  0  0  0  0  0  0  0  0
   25.1486  -12.9750  -17.3978 N   0  0  0  0  0  0  0  0  0  0  0  0
   24.0042  -10.8886  -16.9287 C   0  0  0  0  0  0  0  0  0  0  0  0
   23.8420  -10.5260  -18.1407 O   0  0  0  0  0  0  0  0  0  0  0  0
   23.1306  -10.4459  -15.9054 N   0  0  0  0  0  0  0  0  0  0  0  0
   22.0261   -9.5430  -16.1447 C   0  0  1  0  0  0  0  0  0  0  0  0
   20.8204  -10.1532  -15.4899 C   0  0  0  0  0  0  0  0  0  0  0  0
   19.5982   -9.2989  -15.4949 C   0  0  0  0  0  0  0  0  0  0  0  0
   18.5956   -9.9815  -16.4355 C   0  0  0  0  0  0  0  0  0  0  0  0
   17.3327   -9.1543  -16.5517 C   0  0  0  0  0  0  0  0  0  0  0  0
   16.3817   -9.8803  -17.3771 N   0  0  0  0  0  0  0  0  0  0  0  0
   22.3787   -8.2064  -15.5960 C   0  0  0  0  0  0  0  0  0  0  0  0
   22.9623   -8.1149  -14.4924 O   0  0  0  0  0  0  0  0  0  0  0  0
   23.9080   -4.2145  -18.9617 C   0  0  0  0  0  0  0  0  0  0  0  0
   23.7560   -5.0550  -17.7438 C   0  0  0  0  0  0  0  0  0  0  0  0
   22.5265   -4.7689  -16.9355 C   0  0  2  0  0  0  0  0  0  0  0  0
   22.6478   -3.3525  -16.4030 C   0  0  0  0  0  0  0  0  0  0  0  0
   22.3354   -5.6857  -15.7673 C   0  0  2  0  0  0  0  0  0  0  0  0
   22.0747   -7.0123  -16.2849 N   0  0  0  0  0  0  0  0  0  0  0  0
   21.2850   -5.2878  -14.8413 C   0  0  0  0  0  0  0  0  0  0  0  0
   19.9868   -5.7145  -15.0760 O   0  0  0  0  0  0  0  0  0  0  0  0
   21.4575   -4.5727  -13.8216 O   0  0  0  0  0  0  0  0  0  0  0  0
  2  1  1  1
  2  3  1  0
  4  6  1  0
  4  2  1  0
  4  5  1  6
  6  7  2  0
  8  6  1  0
  8  9  1  0
  9 10  1  1
 11 10  1  0
 12 13  1  0
 12 11  1  0
 13 14  1  0
 15 22  1  0
 15  9  1  0
 16 15  2  0
 18 17  1  0
 18 19  1  0
 19 20  1  1
 19 21  1  0
 21 22  1  6
 23 24  1  0
 23 21  1  0
 25 23  2  0
M  END
$$$$
