VKI.pdb
     RDKit          3D

 25 24  0  0  1  0  0  0  0  0999 V2000
   20.7838  -16.7848  -16.9427 C   0  0  0  0  0  0  0  0  0  0  0  0
   20.9235  -17.8812  -15.9069 C   0  0  1  0  0  0  0  0  0  0  0  0
   19.8994  -18.9468  -16.2368 C   0  0  0  0  0  0  0  0  0  0  0  0
   22.3201  -18.4465  -16.0265 C   0  0  2  0  0  0  0  0  0  0  0  0
   22.4674  -19.0894  -17.3182 N   0  0  0  0  0  0  0  0  0  0  0  0
   22.6152  -19.4024  -14.9176 C   0  0  0  0  0  0  0  0  0  0  0  0
   21.6702  -19.8895  -14.2130 O   0  0  0  0  0  0  0  0  0  0  0  0
   23.9671  -19.7484  -14.6747 N   0  0  0  0  0  0  0  0  0  0  0  0
   24.3690  -20.7122  -13.6738 C   0  0  1  0  0  0  0  0  0  0  0  0
   24.8722  -21.9181  -14.4136 C   0  0  0  0  0  0  0  0  0  0  0  0
   23.8335  -22.9350  -14.7455 C   0  0  0  0  0  0  0  0  0  0  0  0
   24.5622  -24.0835  -15.4567 C   0  0  0  0  0  0  0  0  0  0  0  0
   23.5655  -25.0864  -15.9985 C   0  0  0  0  0  0  0  0  0  0  0  0
   24.0486  -26.4238  -15.6972 N   0  0  0  0  0  0  0  0  0  0  0  0
   25.3980  -20.0878  -12.8003 C   0  0  0  0  0  0  0  0  0  0  0  0
   26.1108  -19.1561  -13.2371 O   0  0  0  0  0  0  0  0  0  0  0  0
   26.8585  -18.9479   -7.0080 C   0  0  0  0  0  0  0  0  0  0  0  0
   27.3411  -19.3828   -8.3462 C   0  0  0  0  0  0  0  0  0  0  0  0
   26.2557  -19.7165   -9.3247 C   0  0  2  0  0  0  0  0  0  0  0  0
   25.4476  -20.8608   -8.7398 C   0  0  0  0  0  0  0  0  0  0  0  0
   26.7552  -20.1452  -10.6696 C   0  0  2  0  0  0  0  0  0  0  0  0
   25.6069  -20.5134  -11.4705 N   0  0  0  0  0  0  0  0  0  0  0  0
   27.7251  -21.2304  -10.6458 C   0  0  0  0  0  0  0  0  0  0  0  0
   29.0684  -20.9262  -10.4862 O   0  0  0  0  0  0  0  0  0  0  0  0
   27.4430  -22.4505  -10.7602 O   0  0  0  0  0  0  0  0  0  0  0  0
  2  1  1  6
  2  3  1  0
  4  6  1  0
  4  2  1  0
  4  5  1  6
  6  7  2  0
  8  6  1  0
  8  9  1  0
  9 10  1  6
 11 10  1  0
 12 13  1  0
 12 11  1  0
 13 14  1  0
 15 22  1  0
 15  9  1  0
 16 15  2  0
 18 17  1  0
 18 19  1  0
 19 20  1  1
 19 21  1  0
 21 22  1  6
 23 24  1  0
 23 21  1  0
 25 23  2  0
M  END
$$$$
