VKI.pdb
     RDKit          3D

 25 24  0  0  1  0  0  0  0  0999 V2000
   18.1553   -8.4626  -17.0186 C   0  0  0  0  0  0  0  0  0  0  0  0
   17.8410   -9.8324  -16.4536 C   0  0  1  0  0  0  0  0  0  0  0  0
   18.6823  -10.8373  -17.2123 C   0  0  0  0  0  0  0  0  0  0  0  0
   18.2309   -9.8240  -14.9933 C   0  0  2  0  0  0  0  0  0  0  0  0
   18.1449  -11.1727  -14.4671 N   0  0  0  0  0  0  0  0  0  0  0  0
   17.3716   -8.8885  -14.2078 C   0  0  0  0  0  0  0  0  0  0  0  0
   17.3559   -7.6419  -14.4771 O   0  0  0  0  0  0  0  0  0  0  0  0
   16.5807   -9.4250  -13.1624 N   0  0  0  0  0  0  0  0  0  0  0  0
   15.6876   -8.6230  -12.3552 C   0  0  1  0  0  0  0  0  0  0  0  0
   14.7405   -9.5753  -11.6838 C   0  0  0  0  0  0  0  0  0  0  0  0
   13.8029   -8.9507  -10.7070 C   0  0  0  0  0  0  0  0  0  0  0  0
   12.9672  -10.0942  -10.1155 C   0  0  0  0  0  0  0  0  0  0  0  0
   11.9910   -9.5591   -9.0891 C   0  0  0  0  0  0  0  0  0  0  0  0
   11.1709  -10.6618   -8.6157 N   0  0  0  0  0  0  0  0  0  0  0  0
   16.5000   -7.8288  -11.3955 C   0  0  0  0  0  0  0  0  0  0  0  0
   17.4818   -8.3514  -10.8212 O   0  0  0  0  0  0  0  0  0  0  0  0
   17.3937   -1.8284  -10.1756 C   0  0  0  0  0  0  0  0  0  0  0  0
   17.5498   -3.2492   -9.7635 C   0  0  0  0  0  0  0  0  0  0  0  0
   16.8517   -4.2376  -10.6481 C   0  0  2  0  0  0  0  0  0  0  0  0
   15.3781   -3.8731  -10.6687 C   0  0  0  0  0  0  0  0  0  0  0  0
   16.9687   -5.6582  -10.1897 C   0  0  2  0  0  0  0  0  0  0  0  0
   16.2012   -6.4809  -11.1005 N   0  0  0  0  0  0  0  0  0  0  0  0
   16.5487   -5.8955   -8.8163 C   0  0  0  0  0  0  0  0  0  0  0  0
   15.2679   -6.3706   -8.5790 O   0  0  0  0  0  0  0  0  0  0  0  0
   17.2650   -5.7021   -7.8011 O   0  0  0  0  0  0  0  0  0  0  0  0
  2  1  1  6
  2  3  1  0
  4  6  1  0
  4  2  1  0
  4  5  1  1
  6  7  2  0
  8  6  1  0
  8  9  1  0
  9 10  1  1
 11 10  1  0
 12 13  1  0
 12 11  1  0
 13 14  1  0
 15 22  1  0
 15  9  1  0
 16 15  2  0
 18 17  1  0
 18 19  1  0
 19 20  1  1
 19 21  1  0
 21 22  1  6
 23 24  1  0
 23 21  1  0
 25 23  2  0
M  END
$$$$
