VKI.pdb
     RDKit          3D

 25 24  0  0  1  0  0  0  0  0999 V2000
   28.5045  -17.3288  -16.0182 C   0  0  0  0  0  0  0  0  0  0  0  0
   27.6475  -17.8757  -14.8953 C   0  0  1  0  0  0  0  0  0  0  0  0
   26.8544  -16.7173  -14.3276 C   0  0  0  0  0  0  0  0  0  0  0  0
   26.7136  -18.9028  -15.4929 C   0  0  2  0  0  0  0  0  0  0  0  0
   25.9590  -18.2938  -16.5714 N   0  0  0  0  0  0  0  0  0  0  0  0
   25.8003  -19.4728  -14.4578 C   0  0  0  0  0  0  0  0  0  0  0  0
   24.6457  -18.9672  -14.2627 O   0  0  0  0  0  0  0  0  0  0  0  0
   26.2530  -20.5841  -13.7052 N   0  0  0  0  0  0  0  0  0  0  0  0
   25.4464  -21.2390  -12.6989 C   0  0  1  0  0  0  0  0  0  0  0  0
   25.2851  -22.6663  -13.1368 C   0  0  0  0  0  0  0  0  0  0  0  0
   24.3216  -22.8794  -14.2546 C   0  0  0  0  0  0  0  0  0  0  0  0
   24.2726  -24.3933  -14.5025 C   0  0  0  0  0  0  0  0  0  0  0  0
   23.3575  -24.7087  -15.6670 C   0  0  0  0  0  0  0  0  0  0  0  0
   23.4335  -26.1347  -15.9385 N   0  0  0  0  0  0  0  0  0  0  0  0
   26.1259  -21.1020  -11.3831 C   0  0  0  0  0  0  0  0  0  0  0  0
   27.3761  -21.1071  -11.3187 O   0  0  0  0  0  0  0  0  0  0  0  0
   28.6905  -18.8098   -7.2671 C   0  0  0  0  0  0  0  0  0  0  0  0
   27.6838  -19.8964   -7.4032 C   0  0  0  0  0  0  0  0  0  0  0  0
   27.0062  -19.9579   -8.7388 C   0  0  2  0  0  0  0  0  0  0  0  0
   26.2936  -18.6346   -8.9524 C   0  0  0  0  0  0  0  0  0  0  0  0
   25.9918  -21.0525   -8.8603 C   0  0  2  0  0  0  0  0  0  0  0  0
   25.4018  -20.9636  -10.1792 N   0  0  0  0  0  0  0  0  0  0  0  0
   24.9542  -21.0425   -7.8394 C   0  0  0  0  0  0  0  0  0  0  0  0
   25.2815  -21.4212   -6.5464 O   0  0  0  0  0  0  0  0  0  0  0  0
   23.7566  -20.7119   -8.0337 O   0  0  0  0  0  0  0  0  0  0  0  0
  2  1  1  6
  2  3  1  0
  4  6  1  0
  4  2  1  0
  4  5  1  6
  6  7  2  0
  8  6  1  0
  8  9  1  0
  9 10  1  6
 11 10  1  0
 12 13  1  0
 12 11  1  0
 13 14  1  0
 15 22  1  0
 15  9  1  0
 16 15  2  0
 18 17  1  0
 18 19  1  0
 19 20  1  1
 19 21  1  0
 21 22  1  6
 23 24  1  0
 23 21  1  0
 25 23  2  0
M  END
$$$$
