RQM.pdb
     RDKit          3D

 29 28  0  0  1  0  0  0  0  0999 V2000
   28.6358  -24.7809  -18.0473 N   0  0  0  0  0  0  0  0  0  0  0  0
   27.6443  -24.5275  -17.0385 C   0  0  0  0  0  0  0  0  0  0  0  0
   27.0982  -25.5015  -16.3905 N   0  0  0  0  0  0  0  0  0  0  0  0
   27.2327  -23.2083  -16.7202 N   0  0  0  0  0  0  0  0  0  0  0  0
   27.5880  -22.1411  -17.6342 C   0  0  0  0  0  0  0  0  0  0  0  0
   28.7665  -21.4142  -17.0154 C   0  0  0  0  0  0  0  0  0  0  0  0
   28.2877  -20.5308  -15.8846 C   0  0  0  0  0  0  0  0  0  0  0  0
   27.3609  -19.4530  -16.3556 C   0  0  2  0  0  0  0  0  0  0  0  0
   28.0508  -18.3051  -16.8699 N   0  0  0  0  0  0  0  0  0  0  0  0
   26.4725  -19.0922  -15.1998 C   0  0  0  0  0  0  0  0  0  0  0  0
   26.8986  -18.2750  -14.3527 O   0  0  0  0  0  0  0  0  0  0  0  0
   26.3673  -25.3603  -15.6557 N   0  0  0  0  0  0  0  0  0  0  0  0
   20.5073  -20.4862  -14.5482 C   0  0  0  0  0  0  0  0  0  0  0  0
   20.7394  -20.2873  -13.1754 O   0  0  0  0  0  0  0  0  0  0  0  0
   19.7882  -20.3693  -12.3676 C   0  0  0  0  0  0  0  0  0  0  0  0
   22.1510  -19.9807  -12.7524 C   0  0  0  0  0  0  0  0  0  0  0  0
   22.9613  -19.9218  -13.9864 C   0  0  1  0  0  0  0  0  0  0  0  0
   24.4131  -19.6910  -13.8677 N   0  0  0  0  0  0  0  0  0  0  0  0
   25.1747  -19.6693  -15.0750 C   0  0  0  0  0  0  0  0  0  0  0  0
   25.0751  -20.4201  -12.7375 O   0  0  0  0  0  0  0  0  0  0  0  0
   25.4208  -21.6068  -12.9912 C   0  0  0  0  0  0  0  0  0  0  0  0
   28.0185  -17.7896   -7.5174 S   0  0  0  0  0  0  0  0  0  0  0  0
   27.1568  -19.1980   -6.7356 C   0  0  0  0  0  0  0  0  0  0  0  0
   26.7543  -20.4022   -8.0089 C   0  0  0  0  0  0  0  0  0  0  0  0
   26.2136  -19.7748   -9.2344 C   0  0  1  0  0  0  0  0  0  0  0  0
   25.9445  -20.6778  -10.3559 N   0  0  0  0  0  0  0  0  0  0  0  0
   25.3234  -19.9033  -11.4763 C   0  0  0  0  0  0  0  0  0  0  0  0
   25.0896  -21.8350  -10.1334 O   0  0  0  0  0  0  0  0  0  0  0  0
   25.4601  -23.1270   -9.8191 O   0  0  0  0  0  0  0  0  0  0  0  0
  2  1  1  0
  3  2  2  0
  4  2  1  0
  4  5  1  0
  6  5  1  0
  7  6  1  0
  8 10  1  0
  8  7  1  0
  8  9  1  1
 10 11  2  0
 13 12  1  0
 13 14  2  0
 15 13  1  0
 16 15  1  0
 17 16  1  6
 17 19  1  0
 18 17  1  0
 18 10  1  0
 19 20  2  0
 22 23  1  0
 22 21  1  0
 23 24  1  0
 25 24  1  6
 25 27  1  0
 26 25  1  0
 26 19  1  0
 27 29  2  0
 27 28  1  0
M  END
$$$$
