RQM.pdb
     RDKit          3D

 29 28  0  0  1  0  0  0  0  0999 V2000
   23.4325  -14.8393  -16.9923 N   0  0  0  0  0  0  0  0  0  0  0  0
   24.4371  -14.0057  -17.5931 C   0  0  0  0  0  0  0  0  0  0  0  0
   24.1537  -12.8084  -17.9840 N   0  0  0  0  0  0  0  0  0  0  0  0
   25.7663  -14.4643  -17.7771 N   0  0  0  0  0  0  0  0  0  0  0  0
   26.1139  -15.7768  -17.2700 C   0  0  0  0  0  0  0  0  0  0  0  0
   26.9586  -15.5535  -16.0305 C   0  0  0  0  0  0  0  0  0  0  0  0
   26.4406  -16.4094  -14.8959 C   0  0  0  0  0  0  0  0  0  0  0  0
   26.8705  -17.8388  -15.0171 C   0  0  2  0  0  0  0  0  0  0  0  0
   26.7782  -18.3406  -16.3579 N   0  0  0  0  0  0  0  0  0  0  0  0
   26.0271  -18.6402  -14.0675 C   0  0  0  0  0  0  0  0  0  0  0  0
   24.9986  -18.1095  -13.5903 O   0  0  0  0  0  0  0  0  0  0  0  0
   24.8642  -12.1563  -18.3891 N   0  0  0  0  0  0  0  0  0  0  0  0
   25.0338  -24.5215  -14.4645 C   0  0  0  0  0  0  0  0  0  0  0  0
   23.8105  -23.9595  -14.0574 O   0  0  0  0  0  0  0  0  0  0  0  0
   22.7518  -24.6101  -14.1987 C   0  0  0  0  0  0  0  0  0  0  0  0
   23.8508  -22.5773  -13.4628 C   0  0  0  0  0  0  0  0  0  0  0  0
   25.2697  -22.1662  -13.4387 C   0  0  2  0  0  0  0  0  0  0  0  0
   25.6111  -20.8378  -12.8964 N   0  0  0  0  0  0  0  0  0  0  0  0
   26.3932  -19.9740  -13.7212 C   0  0  0  0  0  0  0  0  0  0  0  0
   26.0086  -20.8321  -11.4511 O   0  0  0  0  0  0  0  0  0  0  0  0
   27.2514  -20.8564  -11.2343 C   0  0  0  0  0  0  0  0  0  0  0  0
   29.4043  -20.9673   -7.6561 S   0  0  0  0  0  0  0  0  0  0  0  0
   28.5362  -19.6155   -6.7862 C   0  0  0  0  0  0  0  0  0  0  0  0
   26.7797  -19.7330   -7.1525 C   0  0  0  0  0  0  0  0  0  0  0  0
   26.5106  -19.9142   -8.5957 C   0  0  1  0  0  0  0  0  0  0  0  0
   25.5610  -20.9729   -8.9462 N   0  0  0  0  0  0  0  0  0  0  0  0
   25.1390  -20.8060  -10.3728 C   0  0  0  0  0  0  0  0  0  0  0  0
   24.3371  -21.1013   -8.1684 O   0  0  0  0  0  0  0  0  0  0  0  0
   24.1967  -21.4665   -6.8448 O   0  0  0  0  0  0  0  0  0  0  0  0
  2  1  1  0
  3  2  2  0
  4  2  1  0
  4  5  1  0
  6  5  1  0
  7  6  1  0
  8 10  1  0
  8  7  1  0
  8  9  1  6
 10 11  2  0
 13 12  1  0
 13 14  2  0
 15 13  1  0
 16 15  1  0
 17 16  1  6
 17 19  1  0
 18 17  1  0
 18 10  1  0
 19 20  2  0
 22 23  1  0
 22 21  1  0
 23 24  1  0
 25 24  1  6
 25 27  1  0
 26 25  1  0
 26 19  1  0
 27 29  2  0
 27 28  1  0
M  END
$$$$
