RQM.pdb
     RDKit          3D

 29 28  0  0  1  0  0  0  0  0999 V2000
   10.7141  -28.2788   -3.0741 N   0  0  0  0  0  0  0  0  0  0  0  0
   11.4611  -28.8148   -1.9697 C   0  0  0  0  0  0  0  0  0  0  0  0
   11.8852  -30.0341   -1.9897 N   0  0  0  0  0  0  0  0  0  0  0  0
   11.7578  -28.0301   -0.8265 N   0  0  0  0  0  0  0  0  0  0  0  0
   11.2805  -26.6620   -0.7927 C   0  0  0  0  0  0  0  0  0  0  0  0
   12.3962  -25.7993   -1.3506 C   0  0  0  0  0  0  0  0  0  0  0  0
   13.3068  -25.3505   -0.2291 C   0  0  0  0  0  0  0  0  0  0  0  0
   14.4309  -24.4896   -0.7168 C   0  0  2  0  0  0  0  0  0  0  0  0
   15.2784  -25.1563   -1.6630 N   0  0  0  0  0  0  0  0  0  0  0  0
   15.2002  -24.0348    0.4901 C   0  0  0  0  0  0  0  0  0  0  0  0
   16.0911  -24.7861    0.9472 O   0  0  0  0  0  0  0  0  0  0  0  0
   12.4839  -30.4433   -1.2359 N   0  0  0  0  0  0  0  0  0  0  0  0
   16.1778  -18.2284    1.8062 C   0  0  0  0  0  0  0  0  0  0  0  0
   16.8431  -18.7087    2.9485 O   0  0  0  0  0  0  0  0  0  0  0  0
   17.5088  -17.9205    3.6555 C   0  0  0  0  0  0  0  0  0  0  0  0
   16.7103  -20.1757    3.2576 C   0  0  0  0  0  0  0  0  0  0  0  0
   15.9575  -20.7795    2.1388 C   0  0  1  0  0  0  0  0  0  0  0  0
   15.6560  -22.2223    2.1876 N   0  0  0  0  0  0  0  0  0  0  0  0
   14.9192  -22.7756    1.0971 C   0  0  0  0  0  0  0  0  0  0  0  0
   15.2358  -22.7315    3.5334 O   0  0  0  0  0  0  0  0  0  0  0  0
   13.9952  -22.6920    3.7608 C   0  0  0  0  0  0  0  0  0  0  0  0
   16.5724  -27.7334    9.3695 S   0  0  0  0  0  0  0  0  0  0  0  0
   17.3285  -26.7092    8.0593 C   0  0  0  0  0  0  0  0  0  0  0  0
   16.1550  -25.4339    7.5797 C   0  0  0  0  0  0  0  0  0  0  0  0
   16.5525  -24.7327    6.3394 C   0  0  2  0  0  0  0  0  0  0  0  0
   15.6282  -23.7044    5.8559 N   0  0  0  0  0  0  0  0  0  0  0  0
   16.0830  -23.2227    4.5134 C   0  0  0  0  0  0  0  0  0  0  0  0
   15.4165  -22.5153    6.6687 O   0  0  0  0  0  0  0  0  0  0  0  0
   14.7727  -22.4117    7.8852 O   0  0  0  0  0  0  0  0  0  0  0  0
  2  1  1  0
  3  2  2  0
  4  2  1  0
  4  5  1  0
  6  5  1  0
  7  6  1  0
  8 10  1  0
  8  7  1  0
  8  9  1  6
 10 11  2  0
 13 12  1  0
 13 14  2  0
 15 13  1  0
 16 15  1  0
 17 16  1  6
 17 19  1  0
 18 17  1  0
 18 10  1  0
 19 20  2  0
 22 23  1  0
 22 21  1  0
 23 24  1  0
 25 24  1  6
 25 27  1  0
 26 25  1  0
 26 19  1  0
 27 29  2  0
 27 28  1  0
M  END
$$$$
