RQM.pdb
     RDKit          3D

 29 28  0  0  1  0  0  0  0  0999 V2000
   18.5066  -18.5422  -16.1465 N   0  0  0  0  0  0  0  0  0  0  0  0
   19.2659  -17.9454  -17.2106 C   0  0  0  0  0  0  0  0  0  0  0  0
   18.8260  -17.9608  -18.4243 N   0  0  0  0  0  0  0  0  0  0  0  0
   20.5165  -17.3223  -16.9682 N   0  0  0  0  0  0  0  0  0  0  0  0
   21.1722  -17.5738  -15.7004 C   0  0  0  0  0  0  0  0  0  0  0  0
   21.4565  -19.0626  -15.6467 C   0  0  0  0  0  0  0  0  0  0  0  0
   22.0501  -19.4231  -14.3029 C   0  0  0  0  0  0  0  0  0  0  0  0
   23.4818  -19.0016  -14.1799 C   0  0  2  0  0  0  0  0  0  0  0  0
   23.9902  -18.3872  -15.3725 N   0  0  0  0  0  0  0  0  0  0  0  0
   24.2748  -20.2205  -13.8047 C   0  0  0  0  0  0  0  0  0  0  0  0
   23.7531  -21.3461  -13.9722 O   0  0  0  0  0  0  0  0  0  0  0  0
   19.3255  -17.4992  -19.2190 N   0  0  0  0  0  0  0  0  0  0  0  0
   29.7996  -22.3282  -14.6545 C   0  0  0  0  0  0  0  0  0  0  0  0
   29.1698  -21.2965  -15.3737 O   0  0  0  0  0  0  0  0  0  0  0  0
   29.6814  -20.8796  -16.4360 C   0  0  0  0  0  0  0  0  0  0  0  0
   27.8891  -20.7443  -14.8078 C   0  0  0  0  0  0  0  0  0  0  0  0
   27.6087  -21.5028  -13.5713 C   0  0  2  0  0  0  0  0  0  0  0  0
   26.3850  -21.1871  -12.8111 N   0  0  0  0  0  0  0  0  0  0  0  0
   25.5910  -20.0934  -13.2712 C   0  0  0  0  0  0  0  0  0  0  0  0
   26.5363  -21.2517  -11.3212 O   0  0  0  0  0  0  0  0  0  0  0  0
   27.7168  -21.4142  -10.9063 C   0  0  0  0  0  0  0  0  0  0  0  0
   29.7061  -19.8788   -6.8649 S   0  0  0  0  0  0  0  0  0  0  0  0
   28.2215  -18.8241   -6.7198 C   0  0  0  0  0  0  0  0  0  0  0  0
   26.7718  -19.8203   -7.0937 C   0  0  0  0  0  0  0  0  0  0  0  0
   26.6095  -20.0665   -8.5432 C   0  0  1  0  0  0  0  0  0  0  0  0
   25.7043  -21.1566   -8.9143 N   0  0  0  0  0  0  0  0  0  0  0  0
   25.5077  -21.1524  -10.3983 C   0  0  0  0  0  0  0  0  0  0  0  0
   24.3740  -21.1936   -8.3241 O   0  0  0  0  0  0  0  0  0  0  0  0
   23.9895  -21.7234   -7.1089 O   0  0  0  0  0  0  0  0  0  0  0  0
  2  1  1  0
  3  2  2  0
  4  2  1  0
  4  5  1  0
  6  5  1  0
  7  6  1  0
  8 10  1  0
  8  7  1  0
  8  9  1  6
 10 11  2  0
 13 12  1  0
 13 14  2  0
 15 13  1  0
 16 15  1  0
 17 16  1  6
 17 19  1  0
 18 17  1  0
 18 10  1  0
 19 20  2  0
 22 23  1  0
 22 21  1  0
 23 24  1  0
 25 24  1  6
 25 27  1  0
 26 25  1  0
 26 19  1  0
 27 29  2  0
 27 28  1  0
M  END
$$$$
