RQM.pdb
     RDKit          3D

 29 28  0  0  1  0  0  0  0  0999 V2000
   27.8211  -26.3340  -16.1010 N   0  0  0  0  0  0  0  0  0  0  0  0
   26.6751  -27.0913  -16.5233 C   0  0  0  0  0  0  0  0  0  0  0  0
   26.5759  -28.3482  -16.2455 N   0  0  0  0  0  0  0  0  0  0  0  0
   25.6194  -26.4903  -17.2548 N   0  0  0  0  0  0  0  0  0  0  0  0
   25.6300  -25.0497  -17.4133 C   0  0  0  0  0  0  0  0  0  0  0  0
   25.0038  -24.4705  -16.1594 C   0  0  0  0  0  0  0  0  0  0  0  0
   23.5114  -24.7171  -16.1706 C   0  0  0  0  0  0  0  0  0  0  0  0
   22.7525  -23.5957  -16.8102 C   0  0  2  0  0  0  0  0  0  0  0  0
   23.0262  -23.4609  -18.2120 N   0  0  0  0  0  0  0  0  0  0  0  0
   23.0917  -22.3413  -16.0574 C   0  0  0  0  0  0  0  0  0  0  0  0
   23.7147  -21.4361  -16.6572 O   0  0  0  0  0  0  0  0  0  0  0  0
   25.7502  -28.9300  -16.5169 N   0  0  0  0  0  0  0  0  0  0  0  0
   19.8651  -21.4027  -11.4933 C   0  0  0  0  0  0  0  0  0  0  0  0
   19.4310  -20.7135  -12.6399 O   0  0  0  0  0  0  0  0  0  0  0  0
   18.2075  -20.5423  -12.8342 C   0  0  0  0  0  0  0  0  0  0  0  0
   20.4898  -20.2124  -13.5850 C   0  0  0  0  0  0  0  0  0  0  0  0
   21.7928  -20.6114  -13.0140 C   0  0  2  0  0  0  0  0  0  0  0  0
   22.8807  -20.9915  -13.9343 N   0  0  0  0  0  0  0  0  0  0  0  0
   22.7104  -22.1894  -14.6919 C   0  0  0  0  0  0  0  0  0  0  0  0
   24.2629  -20.8038  -13.3852 O   0  0  0  0  0  0  0  0  0  0  0  0
   24.5520  -21.5303  -12.3948 C   0  0  0  0  0  0  0  0  0  0  0  0
   29.6131  -19.7620  -11.8328 S   0  0  0  0  0  0  0  0  0  0  0  0
   29.3545  -21.5691  -11.9047 C   0  0  0  0  0  0  0  0  0  0  0  0
   28.3637  -21.9491  -13.3564 C   0  0  0  0  0  0  0  0  0  0  0  0
   26.9774  -21.4452  -13.2465 C   0  0  1  0  0  0  0  0  0  0  0  0
   26.6658  -20.2419  -14.0214 N   0  0  0  0  0  0  0  0  0  0  0  0
   25.2122  -19.9181  -13.8685 C   0  0  0  0  0  0  0  0  0  0  0  0
   26.9386  -20.2398  -15.4514 O   0  0  0  0  0  0  0  0  0  0  0  0
   26.4830  -21.1196  -16.4125 O   0  0  0  0  0  0  0  0  0  0  0  0
  2  1  1  0
  3  2  2  0
  4  2  1  0
  4  5  1  0
  6  5  1  0
  7  6  1  0
  8 10  1  0
  8  7  1  0
  8  9  1  6
 10 11  2  0
 13 12  1  0
 13 14  2  0
 15 13  1  0
 16 15  1  0
 17 16  1  6
 17 19  1  0
 18 17  1  0
 18 10  1  0
 19 20  2  0
 22 23  1  0
 22 21  1  0
 23 24  1  0
 25 24  1  1
 25 27  1  0
 26 25  1  0
 26 19  1  0
 27 29  2  0
 27 28  1  0
M  END
$$$$
