RQM.pdb
     RDKit          3D

 29 28  0  0  1  0  0  0  0  0999 V2000
   31.7600  -37.0361  -17.8962 N   0  0  0  0  0  0  0  0  0  0  0  0
   31.9642  -35.6176  -17.7902 C   0  0  0  0  0  0  0  0  0  0  0  0
   32.9277  -35.0402  -18.4267 N   0  0  0  0  0  0  0  0  0  0  0  0
   31.1210  -34.8063  -16.9890 N   0  0  0  0  0  0  0  0  0  0  0  0
   30.0299  -35.4443  -16.2797 C   0  0  0  0  0  0  0  0  0  0  0  0
   29.3375  -34.3573  -15.4804 C   0  0  0  0  0  0  0  0  0  0  0  0
   28.5355  -33.4710  -16.4076 C   0  0  0  0  0  0  0  0  0  0  0  0
   27.8684  -32.3429  -15.6832 C   0  0  2  0  0  0  0  0  0  0  0  0
   28.7967  -31.3695  -15.1843 N   0  0  0  0  0  0  0  0  0  0  0  0
   27.0508  -32.9450  -14.5767 C   0  0  0  0  0  0  0  0  0  0  0  0
   27.4298  -32.7763  -13.3956 O   0  0  0  0  0  0  0  0  0  0  0  0
   33.0961  -34.0084  -18.3948 N   0  0  0  0  0  0  0  0  0  0  0  0
   21.1898  -34.5151  -15.2715 C   0  0  0  0  0  0  0  0  0  0  0  0
   21.2497  -34.8714  -13.9122 O   0  0  0  0  0  0  0  0  0  0  0  0
   20.2107  -35.2397  -13.3215 C   0  0  0  0  0  0  0  0  0  0  0  0
   22.5915  -34.7858  -13.2357 C   0  0  0  0  0  0  0  0  0  0  0  0
   23.5590  -34.3503  -14.2640 C   0  0  2  0  0  0  0  0  0  0  0  0
   24.9769  -34.2075  -13.8843 N   0  0  0  0  0  0  0  0  0  0  0  0
   25.8709  -33.6900  -14.8698 C   0  0  0  0  0  0  0  0  0  0  0  0
   25.5334  -35.3512  -13.0910 O   0  0  0  0  0  0  0  0  0  0  0  0
   26.3487  -36.0893  -13.7095 C   0  0  0  0  0  0  0  0  0  0  0  0
   26.7299  -34.6992   -7.1150 S   0  0  0  0  0  0  0  0  0  0  0  0
   27.5511  -36.3253   -7.2524 C   0  0  0  0  0  0  0  0  0  0  0  0
   27.0102  -37.1139   -8.7753 C   0  0  0  0  0  0  0  0  0  0  0  0
   26.2931  -36.1833   -9.6740 C   0  0  2  0  0  0  0  0  0  0  0  0
   25.8908  -36.7245  -10.9742 N   0  0  0  0  0  0  0  0  0  0  0  0
   25.2249  -35.6479  -11.7733 C   0  0  0  0  0  0  0  0  0  0  0  0
   24.9971  -37.8733  -11.0082 O   0  0  0  0  0  0  0  0  0  0  0  0
   25.2954  -39.1991  -10.7667 O   0  0  0  0  0  0  0  0  0  0  0  0
  2  1  1  0
  3  2  2  0
  4  2  1  0
  4  5  1  0
  6  5  1  0
  7  6  1  0
  8 10  1  0
  8  7  1  0
  8  9  1  1
 10 11  2  0
 13 12  1  0
 13 14  2  0
 15 13  1  0
 16 15  1  0
 17 16  1  1
 17 19  1  0
 18 17  1  0
 18 10  1  0
 19 20  2  0
 22 23  1  0
 22 21  1  0
 23 24  1  0
 25 24  1  6
 25 27  1  0
 26 25  1  0
 26 19  1  0
 27 29  2  0
 27 28  1  0
M  END
$$$$
