RQM.pdb
     RDKit          3D

 29 28  0  0  1  0  0  0  0  0999 V2000
   19.4961  -21.3852  -12.7402 N   0  0  0  0  0  0  0  0  0  0  0  0
   20.2465  -20.9283  -13.8773 C   0  0  0  0  0  0  0  0  0  0  0  0
   19.6540  -20.3602  -14.8739 N   0  0  0  0  0  0  0  0  0  0  0  0
   21.6544  -21.0833  -13.9459 N   0  0  0  0  0  0  0  0  0  0  0  0
   22.3110  -21.8431  -12.9008 C   0  0  0  0  0  0  0  0  0  0  0  0
   23.5911  -21.1025  -12.5648 C   0  0  0  0  0  0  0  0  0  0  0  0
   24.7659  -21.7779  -13.2372 C   0  0  0  0  0  0  0  0  0  0  0  0
   26.0757  -21.1656  -12.8475 C   0  0  2  0  0  0  0  0  0  0  0  0
   26.1819  -20.9172  -11.4385 N   0  0  0  0  0  0  0  0  0  0  0  0
   26.2324  -19.9027  -13.6449 C   0  0  0  0  0  0  0  0  0  0  0  0
   25.9478  -18.8131  -13.0980 O   0  0  0  0  0  0  0  0  0  0  0  0
   20.1648  -20.0007  -15.7129 N   0  0  0  0  0  0  0  0  0  0  0  0
   30.1445  -19.1560  -18.1850 C   0  0  0  0  0  0  0  0  0  0  0  0
   29.5369  -17.9006  -18.3659 O   0  0  0  0  0  0  0  0  0  0  0  0
   30.0277  -17.0855  -19.1775 C   0  0  0  0  0  0  0  0  0  0  0  0
   28.3045  -17.6077  -17.5528 C   0  0  0  0  0  0  0  0  0  0  0  0
   28.0209  -18.8210  -16.7587 C   0  0  2  0  0  0  0  0  0  0  0  0
   26.8817  -18.8018  -15.8222 N   0  0  0  0  0  0  0  0  0  0  0  0
   26.6953  -19.9487  -14.9927 C   0  0  0  0  0  0  0  0  0  0  0  0
   25.6120  -18.2408  -16.3882 O   0  0  0  0  0  0  0  0  0  0  0  0
   24.6037  -18.9942  -16.2992 C   0  0  0  0  0  0  0  0  0  0  0  0
   19.6583  -16.5074  -14.9512 S   0  0  0  0  0  0  0  0  0  0  0  0
   21.3738  -17.0798  -15.2100 C   0  0  0  0  0  0  0  0  0  0  0  0
   22.4630  -15.6491  -15.2008 C   0  0  0  0  0  0  0  0  0  0  0  0
   23.8731  -16.0061  -15.4697 C   0  0  2  0  0  0  0  0  0  0  0  0
   24.2444  -16.1474  -16.8796 N   0  0  0  0  0  0  0  0  0  0  0  0
   25.4716  -16.9982  -16.9846 C   0  0  0  0  0  0  0  0  0  0  0  0
   24.5101  -14.9458  -17.6574 O   0  0  0  0  0  0  0  0  0  0  0  0
   24.2000  -14.6936  -18.9785 O   0  0  0  0  0  0  0  0  0  0  0  0
  2  1  1  0
  3  2  2  0
  4  2  1  0
  4  5  1  0
  6  5  1  0
  7  6  1  0
  8 10  1  0
  8  7  1  0
  8  9  1  1
 10 11  2  0
 13 12  1  0
 13 14  2  0
 15 13  1  0
 16 15  1  0
 17 16  1  1
 17 19  1  0
 18 17  1  0
 18 10  1  0
 19 20  2  0
 22 23  1  0
 22 21  1  0
 23 24  1  0
 25 24  1  6
 25 27  1  0
 26 25  1  0
 26 19  1  0
 27 29  2  0
 27 28  1  0
M  END
$$$$
