RQM.pdb
     RDKit          3D

 29 28  0  0  1  0  0  0  0  0999 V2000
   26.2786  -15.9634  -15.1249 N   0  0  0  0  0  0  0  0  0  0  0  0
   25.5039  -16.4172  -16.2469 C   0  0  0  0  0  0  0  0  0  0  0  0
   24.2674  -16.0699  -16.3787 N   0  0  0  0  0  0  0  0  0  0  0  0
   26.0649  -17.2564  -17.2428 N   0  0  0  0  0  0  0  0  0  0  0  0
   27.4243  -17.7238  -17.0577 C   0  0  0  0  0  0  0  0  0  0  0  0
   27.3334  -19.1991  -16.7181 C   0  0  0  0  0  0  0  0  0  0  0  0
   27.8784  -19.4397  -15.3276 C   0  0  0  0  0  0  0  0  0  0  0  0
   27.8455  -20.8870  -14.9444 C   0  0  2  0  0  0  0  0  0  0  0  0
   27.9448  -21.7684  -16.0720 N   0  0  0  0  0  0  0  0  0  0  0  0
   26.5769  -21.1156  -14.1740 C   0  0  0  0  0  0  0  0  0  0  0  0
   25.6304  -21.7033  -14.7448 O   0  0  0  0  0  0  0  0  0  0  0  0
   23.6949  -16.3042  -17.2221 N   0  0  0  0  0  0  0  0  0  0  0  0
   25.3556  -19.8995   -8.0787 C   0  0  0  0  0  0  0  0  0  0  0  0
   26.5965  -20.4262   -8.4797 O   0  0  0  0  0  0  0  0  0  0  0  0
   27.5457  -20.4647   -7.6664 C   0  0  0  0  0  0  0  0  0  0  0  0
   26.7091  -20.9230   -9.8961 C   0  0  0  0  0  0  0  0  0  0  0  0
   25.4360  -20.5875  -10.5667 C   0  0  2  0  0  0  0  0  0  0  0  0
   25.3025  -20.8662  -12.0088 N   0  0  0  0  0  0  0  0  0  0  0  0
   26.4583  -20.6722  -12.8240 C   0  0  0  0  0  0  0  0  0  0  0  0
   24.0265  -20.3803  -12.6274 O   0  0  0  0  0  0  0  0  0  0  0  0
   24.0818  -19.2298  -13.1425 C   0  0  0  0  0  0  0  0  0  0  0  0
   22.2753  -20.4073  -17.9402 S   0  0  0  0  0  0  0  0  0  0  0  0
   20.7223  -21.1656  -17.3478 C   0  0  0  0  0  0  0  0  0  0  0  0
   20.4897  -20.7212  -15.6209 C   0  0  0  0  0  0  0  0  0  0  0  0
   21.6764  -21.0234  -14.7911 C   0  0  1  0  0  0  0  0  0  0  0  0
   21.6050  -20.6069  -13.3886 N   0  0  0  0  0  0  0  0  0  0  0  0
   22.8306  -21.0785  -12.6700 C   0  0  0  0  0  0  0  0  0  0  0  0
   20.4682  -21.0372  -12.5875 O   0  0  0  0  0  0  0  0  0  0  0  0
   19.1709  -20.5670  -12.6177 O   0  0  0  0  0  0  0  0  0  0  0  0
  2  1  1  0
  3  2  2  0
  4  2  1  0
  4  5  1  0
  6  5  1  0
  7  6  1  0
  8 10  1  0
  8  7  1  0
  8  9  1  6
 10 11  2  0
 13 12  1  0
 13 14  2  0
 15 13  1  0
 16 15  1  0
 17 16  1  1
 17 19  1  0
 18 17  1  0
 18 10  1  0
 19 20  2  0
 22 23  1  0
 22 21  1  0
 23 24  1  0
 25 24  1  6
 25 27  1  0
 26 25  1  0
 26 19  1  0
 27 29  2  0
 27 28  1  0
M  END
$$$$
