SDM.pdb
     RDKit          3D

 23 22  0  0  1  0  0  0  0  0999 V2000
   12.3001  -16.3101   21.3471 O   0  0  0  0  0  0  0  0  0  0  0  0
   11.5326  -17.3830   20.9604 C   0  0  0  0  0  0  0  0  0  0  0  0
   10.0969  -17.0087   20.6740 C   0  0  2  0  0  0  0  0  0  0  0  0
   10.0217  -16.2443   19.4640 N   0  0  0  0  0  0  0  0  0  0  0  0
    9.4584  -16.2730   21.7685 C   0  0  0  0  0  0  0  0  0  0  0  0
    8.3451  -15.6795   21.6414 O   0  0  0  0  0  0  0  0  0  0  0  0
   10.0929  -16.2072   23.0342 N   0  0  0  0  0  0  0  0  0  0  0  0
    9.2199  -16.2888   24.2667 C   0  0  1  0  0  0  0  0  0  0  0  0
    8.5096  -17.5817   24.0682 C   0  0  0  0  0  0  0  0  0  0  0  0
    7.5399  -18.0228   25.0543 C   0  0  0  0  0  0  0  0  0  0  0  0
    6.3059  -18.0348   24.9922 O   0  0  0  0  0  0  0  0  0  0  0  0
   10.1375  -16.2102   25.4070 C   0  0  0  0  0  0  0  0  0  0  0  0
   10.5140  -17.3076   25.9494 O   0  0  0  0  0  0  0  0  0  0  0  0
    8.0729  -18.5156   26.2746 O   0  0  0  0  0  0  0  0  0  0  0  0
    5.8978  -12.7565   26.3376 C   0  0  0  0  0  0  0  0  0  0  0  0
    7.2248  -11.9246   27.2321 S   0  0  0  0  0  0  0  0  0  0  0  0
    8.8391  -12.6424   26.8379 C   0  0  0  0  0  0  0  0  0  0  0  0
    8.8661  -14.0830   27.3356 C   0  0  0  0  0  0  0  0  0  0  0  0
   10.2586  -14.6231   27.3333 C   0  0  2  0  0  0  0  0  0  0  0  0
   10.6846  -15.0564   26.0062 N   0  0  0  0  0  0  0  0  0  0  0  0
   10.2687  -15.8392   28.2065 C   0  0  0  0  0  0  0  0  0  0  0  0
   10.1079  -16.9599   27.6630 O   0  0  0  0  0  0  0  0  0  0  0  0
   10.4451  -15.7767   29.5638 O   0  0  0  0  0  0  0  0  0  0  0  0
  1  2  1  0
  3  2  1  0
  3  4  1  6
  3  5  1  0
  5  6  2  0
  7  5  1  0
  7  8  1  0
  8 12  1  0
  8  9  1  6
 10  9  1  0
 11 10  2  0
 12 20  1  0
 13 12  2  0
 14 10  1  0
 16 17  1  0
 16 15  1  0
 18 17  1  0
 19 18  1  6
 20 19  1  0
 21 19  1  0
 21 23  1  0
 22 21  2  0
M  END
$$$$
