SDM.pdb
     RDKit          3D

 23 22  0  0  1  0  0  0  0  0999 V2000
   11.2251  -16.8192   20.3588 O   0  0  0  0  0  0  0  0  0  0  0  0
   11.2950  -18.1349   19.9664 C   0  0  0  0  0  0  0  0  0  0  0  0
    9.9357  -18.7642   19.7676 C   0  0  2  0  0  0  0  0  0  0  0  0
    9.3704  -18.3277   18.5249 N   0  0  0  0  0  0  0  0  0  0  0  0
    9.0021  -18.4900   20.8631 C   0  0  0  0  0  0  0  0  0  0  0  0
    7.8317  -18.0405   20.6736 O   0  0  0  0  0  0  0  0  0  0  0  0
    9.4009  -18.7294   22.2019 N   0  0  0  0  0  0  0  0  0  0  0  0
    8.3551  -18.5906   23.2857 C   0  0  1  0  0  0  0  0  0  0  0  0
    8.5974  -19.8003   24.1184 C   0  0  0  0  0  0  0  0  0  0  0  0
    7.9301  -19.9303   25.4009 C   0  0  0  0  0  0  0  0  0  0  0  0
    6.7843  -19.6024   25.7273 O   0  0  0  0  0  0  0  0  0  0  0  0
    8.6115  -17.2937   23.9187 C   0  0  0  0  0  0  0  0  0  0  0  0
    9.8220  -16.8780   23.9634 O   0  0  0  0  0  0  0  0  0  0  0  0
    8.6935  -20.5191   26.4433 O   0  0  0  0  0  0  0  0  0  0  0  0
    6.4697  -10.4090   27.2852 C   0  0  0  0  0  0  0  0  0  0  0  0
    5.9823  -11.9819   26.5493 S   0  0  0  0  0  0  0  0  0  0  0  0
    7.4245  -13.0022   26.1547 C   0  0  0  0  0  0  0  0  0  0  0  0
    6.9449  -14.2856   25.4866 C   0  0  0  0  0  0  0  0  0  0  0  0
    8.1006  -15.1234   25.0471 C   0  0  2  0  0  0  0  0  0  0  0  0
    7.6791  -16.4093   24.5004 N   0  0  0  0  0  0  0  0  0  0  0  0
    8.9247  -15.4217   26.2610 C   0  0  0  0  0  0  0  0  0  0  0  0
    8.7362  -16.5142   26.8510 O   0  0  0  0  0  0  0  0  0  0  0  0
    9.8682  -14.5560   26.7485 O   0  0  0  0  0  0  0  0  0  0  0  0
  1  2  1  0
  3  2  1  0
  3  4  1  6
  3  5  1  0
  5  6  2  0
  7  5  1  0
  7  8  1  0
  8 12  1  0
  8  9  1  1
 10  9  1  0
 11 10  2  0
 12 20  1  0
 13 12  2  0
 14 10  1  0
 16 17  1  0
 16 15  1  0
 18 17  1  0
 19 18  1  1
 20 19  1  0
 21 19  1  0
 21 23  1  0
 22 21  2  0
M  END
$$$$
