SDM.pdb
     RDKit          3D

 23 22  0  0  1  0  0  0  0  0999 V2000
   10.3938  -12.6868   20.2488 O   0  0  0  0  0  0  0  0  0  0  0  0
   10.0369  -13.3856   19.1200 C   0  0  0  0  0  0  0  0  0  0  0  0
    8.5836  -13.7991   19.1170 C   0  0  2  0  0  0  0  0  0  0  0  0
    7.7443  -12.6398   19.0396 N   0  0  0  0  0  0  0  0  0  0  0  0
    8.2072  -14.6099   20.2780 C   0  0  0  0  0  0  0  0  0  0  0  0
    7.3374  -14.2398   21.1231 O   0  0  0  0  0  0  0  0  0  0  0  0
    8.8283  -15.8665   20.4877 N   0  0  0  0  0  0  0  0  0  0  0  0
    8.4136  -16.6649   21.7036 C   0  0  1  0  0  0  0  0  0  0  0  0
    8.7567  -18.0566   21.3025 C   0  0  0  0  0  0  0  0  0  0  0  0
    7.9265  -18.7455   20.3313 C   0  0  0  0  0  0  0  0  0  0  0  0
    8.0550  -18.8273   19.1051 O   0  0  0  0  0  0  0  0  0  0  0  0
    9.1683  -16.0981   22.8250 C   0  0  0  0  0  0  0  0  0  0  0  0
   10.0095  -15.1665   22.5707 O   0  0  0  0  0  0  0  0  0  0  0  0
    6.7970  -19.4305   20.8520 O   0  0  0  0  0  0  0  0  0  0  0  0
    5.8594  -12.5836   25.9873 C   0  0  0  0  0  0  0  0  0  0  0  0
    7.5353  -11.9980   26.3063 S   0  0  0  0  0  0  0  0  0  0  0  0
    8.7111  -13.3717   26.3891 C   0  0  0  0  0  0  0  0  0  0  0  0
    8.3864  -14.3585   25.2736 C   0  0  0  0  0  0  0  0  0  0  0  0
    9.3863  -15.4671   25.2331 C   0  0  2  0  0  0  0  0  0  0  0  0
    9.0908  -16.4445   24.1902 N   0  0  0  0  0  0  0  0  0  0  0  0
    9.3026  -16.1937   26.5395 C   0  0  0  0  0  0  0  0  0  0  0  0
    8.6877  -17.2884   26.5700 O   0  0  0  0  0  0  0  0  0  0  0  0
    9.8660  -15.7143   27.6926 O   0  0  0  0  0  0  0  0  0  0  0  0
  1  2  1  0
  3  2  1  0
  3  4  1  1
  3  5  1  0
  5  6  2  0
  7  5  1  0
  7  8  1  0
  8 12  1  0
  8  9  1  6
 10  9  1  0
 11 10  2  0
 12 20  1  0
 13 12  2  0
 14 10  1  0
 16 17  1  0
 16 15  1  0
 18 17  1  0
 19 18  1  1
 20 19  1  0
 21 19  1  0
 21 23  1  0
 22 21  2  0
M  END
$$$$
