SDM.pdb
     RDKit          3D

 23 22  0  0  1  0  0  0  0  0999 V2000
   10.8403  -12.6893   19.7065 O   0  0  0  0  0  0  0  0  0  0  0  0
   10.5735  -13.4498   18.5928 C   0  0  0  0  0  0  0  0  0  0  0  0
    9.1719  -14.0144   18.5859 C   0  0  2  0  0  0  0  0  0  0  0  0
    8.2205  -12.9620   18.3821 N   0  0  0  0  0  0  0  0  0  0  0  0
    8.8386  -14.7582   19.8034 C   0  0  0  0  0  0  0  0  0  0  0  0
    7.8756  -14.4381   20.5637 O   0  0  0  0  0  0  0  0  0  0  0  0
    9.6114  -15.8886   20.1692 N   0  0  0  0  0  0  0  0  0  0  0  0
    9.0924  -16.7675   21.2854 C   0  0  1  0  0  0  0  0  0  0  0  0
    9.8851  -18.0142   21.1034 C   0  0  0  0  0  0  0  0  0  0  0  0
    9.7497  -19.0936   22.0644 C   0  0  0  0  0  0  0  0  0  0  0  0
    8.7997  -19.3733   22.8033 O   0  0  0  0  0  0  0  0  0  0  0  0
    9.3243  -16.0148   22.5216 C   0  0  0  0  0  0  0  0  0  0  0  0
   10.4166  -15.3543   22.6246 O   0  0  0  0  0  0  0  0  0  0  0  0
   10.8649  -19.9643   22.1839 O   0  0  0  0  0  0  0  0  0  0  0  0
    6.4531  -11.3692   28.1622 C   0  0  0  0  0  0  0  0  0  0  0  0
    6.2379  -12.4240   26.7151 S   0  0  0  0  0  0  0  0  0  0  0  0
    7.7662  -13.3028   26.3044 C   0  0  0  0  0  0  0  0  0  0  0  0
    7.5246  -14.1423   25.0552 C   0  0  0  0  0  0  0  0  0  0  0  0
    8.7430  -14.9273   24.6950 C   0  0  2  0  0  0  0  0  0  0  0  0
    8.4818  -15.9101   23.6481 N   0  0  0  0  0  0  0  0  0  0  0  0
    9.1571  -15.6950   25.9119 C   0  0  0  0  0  0  0  0  0  0  0  0
    9.4869  -15.0481   26.9365 O   0  0  0  0  0  0  0  0  0  0  0  0
    9.1898  -17.0642   25.9498 O   0  0  0  0  0  0  0  0  0  0  0  0
  1  2  1  0
  3  2  1  0
  3  4  1  1
  3  5  1  0
  5  6  2  0
  7  5  1  0
  7  8  1  0
  8 12  1  0
  8  9  1  1
 10  9  1  0
 11 10  2  0
 12 20  1  0
 13 12  2  0
 14 10  1  0
 16 17  1  0
 16 15  1  0
 18 17  1  0
 19 18  1  1
 20 19  1  0
 21 19  1  0
 21 23  1  0
 22 21  2  0
M  END
$$$$
