SDM.pdb
     RDKit          3D

 23 22  0  0  1  0  0  0  0  0999 V2000
    8.6646  -21.4907   21.4326 O   0  0  0  0  0  0  0  0  0  0  0  0
    9.9941  -21.2041   21.6329 C   0  0  0  0  0  0  0  0  0  0  0  0
   10.7185  -20.8429   20.3570 C   0  0  2  0  0  0  0  0  0  0  0  0
   10.3558  -21.7548   19.3124 N   0  0  0  0  0  0  0  0  0  0  0  0
   12.1758  -20.8095   20.5053 C   0  0  0  0  0  0  0  0  0  0  0  0
   12.8480  -21.8000   20.9237 O   0  0  0  0  0  0  0  0  0  0  0  0
   12.8884  -19.6302   20.1731 N   0  0  0  0  0  0  0  0  0  0  0  0
   14.3794  -19.6110   20.4272 C   0  0  1  0  0  0  0  0  0  0  0  0
   14.8605  -18.6232   19.4231 C   0  0  0  0  0  0  0  0  0  0  0  0
   16.2870  -18.4500   19.2178 C   0  0  0  0  0  0  0  0  0  0  0  0
   16.8926  -17.5459   18.6324 O   0  0  0  0  0  0  0  0  0  0  0  0
   14.5353  -19.2448   21.8379 C   0  0  0  0  0  0  0  0  0  0  0  0
   13.8977  -18.2193   22.2643 O   0  0  0  0  0  0  0  0  0  0  0  0
   17.1219  -19.4600   19.7645 O   0  0  0  0  0  0  0  0  0  0  0  0
   10.4095  -19.5754   26.5107 C   0  0  0  0  0  0  0  0  0  0  0  0
   12.0645  -20.2860   26.4155 S   0  0  0  0  0  0  0  0  0  0  0  0
   13.0985  -19.3963   25.2256 C   0  0  0  0  0  0  0  0  0  0  0  0
   14.4340  -20.1210   25.1034 C   0  0  0  0  0  0  0  0  0  0  0  0
   15.3603  -19.3843   24.1925 C   0  0  2  0  0  0  0  0  0  0  0  0
   15.3120  -19.8887   22.8238 N   0  0  0  0  0  0  0  0  0  0  0  0
   16.7541  -19.6170   24.6874 C   0  0  0  0  0  0  0  0  0  0  0  0
   17.4962  -20.3859   24.0277 O   0  0  0  0  0  0  0  0  0  0  0  0
   17.2465  -19.0283   25.8224 O   0  0  0  0  0  0  0  0  0  0  0  0
  1  2  1  0
  3  2  1  0
  3  4  1  6
  3  5  1  0
  5  6  2  0
  7  5  1  0
  7  8  1  0
  8 12  1  0
  8  9  1  6
 10  9  1  0
 11 10  2  0
 12 20  1  0
 13 12  2  0
 14 10  1  0
 16 17  1  0
 16 15  1  0
 18 17  1  0
 19 18  1  1
 20 19  1  0
 21 19  1  0
 21 23  1  0
 22 21  2  0
M  END
$$$$
