SDM.pdb
     RDKit          3D

 23 22  0  0  1  0  0  0  0  0999 V2000
   10.4440  -15.0003   18.8799 O   0  0  0  0  0  0  0  0  0  0  0  0
   10.3783  -16.3313   19.2173 C   0  0  0  0  0  0  0  0  0  0  0  0
    8.9793  -16.7832   19.5662 C   0  0  2  0  0  0  0  0  0  0  0  0
    8.0186  -15.8730   19.0158 N   0  0  0  0  0  0  0  0  0  0  0  0
    8.7579  -16.9297   21.0072 C   0  0  0  0  0  0  0  0  0  0  0  0
    7.6218  -16.7742   21.5483 O   0  0  0  0  0  0  0  0  0  0  0  0
    9.8453  -17.2593   21.8545 N   0  0  0  0  0  0  0  0  0  0  0  0
    9.5541  -17.4842   23.3217 C   0  0  1  0  0  0  0  0  0  0  0  0
   10.2806  -18.7534   23.5991 C   0  0  0  0  0  0  0  0  0  0  0  0
    9.9862  -19.9331   22.8062 C   0  0  0  0  0  0  0  0  0  0  0  0
    8.9095  -20.5135   22.6310 O   0  0  0  0  0  0  0  0  0  0  0  0
   10.0392  -16.2843   24.0095 C   0  0  0  0  0  0  0  0  0  0  0  0
   11.0859  -16.3942   24.7392 O   0  0  0  0  0  0  0  0  0  0  0  0
   11.0874  -20.5172   22.1263 O   0  0  0  0  0  0  0  0  0  0  0  0
    6.2206  -11.3661   27.8445 C   0  0  0  0  0  0  0  0  0  0  0  0
    6.9242  -12.0587   26.3351 S   0  0  0  0  0  0  0  0  0  0  0  0
    6.6800  -13.8504   26.2535 C   0  0  0  0  0  0  0  0  0  0  0  0
    7.3469  -14.3757   24.9873 C   0  0  0  0  0  0  0  0  0  0  0  0
    8.8320  -14.4118   25.1413 C   0  0  2  0  0  0  0  0  0  0  0  0
    9.4981  -14.9821   23.9745 N   0  0  0  0  0  0  0  0  0  0  0  0
    9.1408  -15.3134   26.2960 C   0  0  0  0  0  0  0  0  0  0  0  0
    9.7347  -14.8230   27.2879 O   0  0  0  0  0  0  0  0  0  0  0  0
    8.8033  -16.6412   26.3116 O   0  0  0  0  0  0  0  0  0  0  0  0
  1  2  1  0
  3  2  1  0
  3  4  1  1
  3  5  1  0
  5  6  2  0
  7  5  1  0
  7  8  1  0
  8 12  1  0
  8  9  1  1
 10  9  1  0
 11 10  2  0
 12 20  1  0
 13 12  2  0
 14 10  1  0
 16 17  1  0
 16 15  1  0
 18 17  1  0
 19 18  1  6
 20 19  1  0
 21 19  1  0
 21 23  1  0
 22 21  2  0
M  END
$$$$
