SDM.pdb
     RDKit          3D

 23 22  0  0  1  0  0  0  0  0999 V2000
    8.0971  -14.3191   17.3090 O   0  0  0  0  0  0  0  0  0  0  0  0
    7.6841  -13.2943   18.1271 C   0  0  0  0  0  0  0  0  0  0  0  0
    8.5820  -13.0985   19.3265 C   0  0  2  0  0  0  0  0  0  0  0  0
    9.9278  -12.8563   18.8971 N   0  0  0  0  0  0  0  0  0  0  0  0
    8.5534  -14.2240   20.2642 C   0  0  0  0  0  0  0  0  0  0  0  0
    7.4798  -14.6726   20.7684 O   0  0  0  0  0  0  0  0  0  0  0  0
    9.7652  -14.8558   20.6399 N   0  0  0  0  0  0  0  0  0  0  0  0
    9.6775  -16.0938   21.5046 C   0  0  1  0  0  0  0  0  0  0  0  0
   10.9345  -16.8124   21.1596 C   0  0  0  0  0  0  0  0  0  0  0  0
   10.8994  -17.8832   20.1802 C   0  0  0  0  0  0  0  0  0  0  0  0
   10.1789  -18.0146   19.1849 O   0  0  0  0  0  0  0  0  0  0  0  0
    9.5547  -15.6063   22.8815 C   0  0  0  0  0  0  0  0  0  0  0  0
   10.3846  -14.7148   23.2773 O   0  0  0  0  0  0  0  0  0  0  0  0
   11.8230  -18.9426   20.3825 O   0  0  0  0  0  0  0  0  0  0  0  0
    7.0545  -11.4010   28.1200 C   0  0  0  0  0  0  0  0  0  0  0  0
    7.0858  -12.2384   26.5228 S   0  0  0  0  0  0  0  0  0  0  0  0
    7.0596  -14.0376   26.7190 C   0  0  0  0  0  0  0  0  0  0  0  0
    7.1635  -14.6794   25.3403 C   0  0  0  0  0  0  0  0  0  0  0  0
    8.5155  -15.2783   25.1302 C   0  0  2  0  0  0  0  0  0  0  0  0
    8.6161  -15.9923   23.8612 N   0  0  0  0  0  0  0  0  0  0  0  0
    8.7296  -16.2914   26.2117 C   0  0  0  0  0  0  0  0  0  0  0  0
    8.6588  -17.5075   25.9064 O   0  0  0  0  0  0  0  0  0  0  0  0
    8.9973  -15.9454   27.5100 O   0  0  0  0  0  0  0  0  0  0  0  0
  1  2  1  0
  3  2  1  0
  3  4  1  6
  3  5  1  0
  5  6  2  0
  7  5  1  0
  7  8  1  0
  8 12  1  0
  8  9  1  1
 10  9  1  0
 11 10  2  0
 12 20  1  0
 13 12  2  0
 14 10  1  0
 16 17  1  0
 16 15  1  0
 18 17  1  0
 19 18  1  1
 20 19  1  0
 21 19  1  0
 21 23  1  0
 22 21  2  0
M  END
$$$$
