SDM.pdb
     RDKit          3D

 23 22  0  0  1  0  0  0  0  0999 V2000
    6.3201  -14.7106   21.0094 O   0  0  0  0  0  0  0  0  0  0  0  0
    7.2609  -14.7823   20.0096 C   0  0  0  0  0  0  0  0  0  0  0  0
    7.7959  -16.1801   19.8021 C   0  0  2  0  0  0  0  0  0  0  0  0
    6.7603  -17.0311   19.2946 N   0  0  0  0  0  0  0  0  0  0  0  0
    8.3739  -16.7673   21.0137 C   0  0  0  0  0  0  0  0  0  0  0  0
    7.7654  -17.6269   21.7198 O   0  0  0  0  0  0  0  0  0  0  0  0
    9.6683  -16.3736   21.4360 N   0  0  0  0  0  0  0  0  0  0  0  0
   10.2212  -17.0011   22.6963 C   0  0  1  0  0  0  0  0  0  0  0  0
   11.6356  -17.2742   22.3217 C   0  0  0  0  0  0  0  0  0  0  0  0
   12.5455  -17.8167   23.3140 C   0  0  0  0  0  0  0  0  0  0  0  0
   12.3317  -18.6422   24.2082 O   0  0  0  0  0  0  0  0  0  0  0  0
   10.0002  -16.0154   23.7584 C   0  0  0  0  0  0  0  0  0  0  0  0
   10.4386  -14.8265   23.5727 O   0  0  0  0  0  0  0  0  0  0  0  0
   13.8812  -17.3377   23.2619 O   0  0  0  0  0  0  0  0  0  0  0  0
    6.8339  -10.9596   25.8361 C   0  0  0  0  0  0  0  0  0  0  0  0
    6.5408  -12.3359   26.9644 S   0  0  0  0  0  0  0  0  0  0  0  0
    8.0163  -13.3689   27.1445 C   0  0  0  0  0  0  0  0  0  0  0  0
    8.0562  -14.3660   25.9922 C   0  0  0  0  0  0  0  0  0  0  0  0
    9.3309  -15.1442   26.0028 C   0  0  2  0  0  0  0  0  0  0  0  0
    9.3465  -16.1995   24.9948 N   0  0  0  0  0  0  0  0  0  0  0  0
    9.4317  -15.8204   27.3348 C   0  0  0  0  0  0  0  0  0  0  0  0
    9.3521  -17.0732   27.3705 O   0  0  0  0  0  0  0  0  0  0  0  0
    9.6058  -15.1308   28.5058 O   0  0  0  0  0  0  0  0  0  0  0  0
  1  2  1  0
  3  2  1  0
  3  4  1  1
  3  5  1  0
  5  6  2  0
  7  5  1  0
  7  8  1  0
  8 12  1  0
  8  9  1  6
 10  9  1  0
 11 10  2  0
 12 20  1  0
 13 12  2  0
 14 10  1  0
 16 17  1  0
 16 15  1  0
 18 17  1  0
 19 18  1  1
 20 19  1  0
 21 19  1  0
 21 23  1  0
 22 21  2  0
M  END
$$$$
