SDM.pdb
     RDKit          3D

 23 22  0  0  1  0  0  0  0  0999 V2000
    6.8945  -17.6332   17.9072 O   0  0  0  0  0  0  0  0  0  0  0  0
    7.4288  -16.4647   18.3959 C   0  0  0  0  0  0  0  0  0  0  0  0
    7.0785  -16.2164   19.8446 C   0  0  2  0  0  0  0  0  0  0  0  0
    7.0411  -14.8076   20.1054 N   0  0  0  0  0  0  0  0  0  0  0  0
    7.9912  -16.8727   20.7843 C   0  0  0  0  0  0  0  0  0  0  0  0
    7.8895  -18.0962   21.1017 O   0  0  0  0  0  0  0  0  0  0  0  0
    9.0417  -16.1292   21.3779 N   0  0  0  0  0  0  0  0  0  0  0  0
   10.0155  -16.8695   22.2677 C   0  0  1  0  0  0  0  0  0  0  0  0
   11.2712  -16.8267   21.4697 C   0  0  0  0  0  0  0  0  0  0  0  0
   12.5356  -17.1405   22.1100 C   0  0  0  0  0  0  0  0  0  0  0  0
   12.7651  -17.8693   23.0810 O   0  0  0  0  0  0  0  0  0  0  0  0
   10.0193  -16.1425   23.5404 C   0  0  0  0  0  0  0  0  0  0  0  0
   10.3485  -14.9049   23.5221 O   0  0  0  0  0  0  0  0  0  0  0  0
   13.6868  -16.5272   21.5490 O   0  0  0  0  0  0  0  0  0  0  0  0
    7.3602  -11.2200   26.0462 C   0  0  0  0  0  0  0  0  0  0  0  0
    6.6659  -12.8131   26.5293 S   0  0  0  0  0  0  0  0  0  0  0  0
    7.9659  -14.0021   26.9449 C   0  0  0  0  0  0  0  0  0  0  0  0
    8.2612  -14.8510   25.7137 C   0  0  0  0  0  0  0  0  0  0  0  0
    9.4546  -15.7205   25.9378 C   0  0  2  0  0  0  0  0  0  0  0  0
    9.6959  -16.6315   24.8234 N   0  0  0  0  0  0  0  0  0  0  0  0
    9.1696  -16.5724   27.1356 C   0  0  0  0  0  0  0  0  0  0  0  0
    8.8113  -17.7609   26.9453 O   0  0  0  0  0  0  0  0  0  0  0  0
    9.2837  -16.1089   28.4198 O   0  0  0  0  0  0  0  0  0  0  0  0
  1  2  1  0
  3  2  1  0
  3  4  1  1
  3  5  1  0
  5  6  2  0
  7  5  1  0
  7  8  1  0
  8 12  1  0
  8  9  1  6
 10  9  1  0
 11 10  2  0
 12 20  1  0
 13 12  2  0
 14 10  1  0
 16 17  1  0
 16 15  1  0
 18 17  1  0
 19 18  1  6
 20 19  1  0
 21 19  1  0
 21 23  1  0
 22 21  2  0
M  END
$$$$
