SDM.pdb
     RDKit          3D

 23 22  0  0  1  0  0  0  0  0999 V2000
    7.0028  -14.4767   20.9358 O   0  0  0  0  0  0  0  0  0  0  0  0
    7.8516  -14.6988   19.8775 C   0  0  0  0  0  0  0  0  0  0  0  0
    8.2148  -16.1558   19.7082 C   0  0  2  0  0  0  0  0  0  0  0  0
    7.0464  -16.9169   19.3770 N   0  0  0  0  0  0  0  0  0  0  0  0
    8.8679  -16.7329   20.8860 C   0  0  0  0  0  0  0  0  0  0  0  0
    8.2740  -17.5149   21.6884 O   0  0  0  0  0  0  0  0  0  0  0  0
   10.2220  -16.4187   21.1625 N   0  0  0  0  0  0  0  0  0  0  0  0
   10.8573  -17.0461   22.3834 C   0  0  1  0  0  0  0  0  0  0  0  0
   12.2918  -17.1198   21.9932 C   0  0  0  0  0  0  0  0  0  0  0  0
   12.7269  -18.1441   21.0612 C   0  0  0  0  0  0  0  0  0  0  0  0
   12.4368  -19.3445   21.0212 O   0  0  0  0  0  0  0  0  0  0  0  0
   10.5243  -16.1593   23.5020 C   0  0  0  0  0  0  0  0  0  0  0  0
   10.6035  -14.8958   23.3087 O   0  0  0  0  0  0  0  0  0  0  0  0
   13.6168  -17.7190   20.0396 O   0  0  0  0  0  0  0  0  0  0  0  0
    6.1917  -11.5238   27.0098 C   0  0  0  0  0  0  0  0  0  0  0  0
    6.5767  -12.9271   25.9441 S   0  0  0  0  0  0  0  0  0  0  0  0
    8.1080  -13.7455   26.4560 C   0  0  0  0  0  0  0  0  0  0  0  0
    8.4647  -14.8040   25.4187 C   0  0  0  0  0  0  0  0  0  0  0  0
    9.7367  -15.4985   25.7796 C   0  0  2  0  0  0  0  0  0  0  0  0
   10.1110  -16.5162   24.8027 N   0  0  0  0  0  0  0  0  0  0  0  0
    9.5055  -16.2113   27.0758 C   0  0  0  0  0  0  0  0  0  0  0  0
    9.4408  -17.4654   27.0587 O   0  0  0  0  0  0  0  0  0  0  0  0
    9.3631  -15.5536   28.2692 O   0  0  0  0  0  0  0  0  0  0  0  0
  1  2  1  0
  3  2  1  0
  3  4  1  1
  3  5  1  0
  5  6  2  0
  7  5  1  0
  7  8  1  0
  8 12  1  0
  8  9  1  6
 10  9  1  0
 11 10  2  0
 12 20  1  0
 13 12  2  0
 14 10  1  0
 16 17  1  0
 16 15  1  0
 18 17  1  0
 19 18  1  6
 20 19  1  0
 21 19  1  0
 21 23  1  0
 22 21  2  0
M  END
$$$$
