SDM.pdb
     RDKit          3D

 23 22  0  0  1  0  0  0  0  0999 V2000
    9.2950  -12.2148   20.3315 O   0  0  0  0  0  0  0  0  0  0  0  0
    9.6044  -12.9901   19.2393 C   0  0  0  0  0  0  0  0  0  0  0  0
    8.5130  -13.9736   18.8858 C   0  0  2  0  0  0  0  0  0  0  0  0
    7.3112  -13.2707   18.5456 N   0  0  0  0  0  0  0  0  0  0  0  0
    8.2385  -14.9443   19.9483 C   0  0  0  0  0  0  0  0  0  0  0  0
    7.1338  -14.9914   20.5690 O   0  0  0  0  0  0  0  0  0  0  0  0
    9.2351  -15.8823   20.3170 N   0  0  0  0  0  0  0  0  0  0  0  0
    8.9619  -16.7706   21.5104 C   0  0  1  0  0  0  0  0  0  0  0  0
    9.9389  -17.8762   21.3142 C   0  0  0  0  0  0  0  0  0  0  0  0
   10.1316  -18.8547   22.3689 C   0  0  0  0  0  0  0  0  0  0  0  0
   11.1808  -19.3161   22.8306 O   0  0  0  0  0  0  0  0  0  0  0  0
    9.1572  -15.9209   22.6886 C   0  0  0  0  0  0  0  0  0  0  0  0
   10.1277  -15.0855   22.6702 O   0  0  0  0  0  0  0  0  0  0  0  0
    8.9500  -19.3660   22.9675 O   0  0  0  0  0  0  0  0  0  0  0  0
    6.3287  -10.5425   27.3875 C   0  0  0  0  0  0  0  0  0  0  0  0
    6.0898  -11.9427   26.2760 S   0  0  0  0  0  0  0  0  0  0  0  0
    7.6178  -12.8907   26.0689 C   0  0  0  0  0  0  0  0  0  0  0  0
    7.3634  -14.0122   25.0684 C   0  0  0  0  0  0  0  0  0  0  0  0
    8.5910  -14.8390   24.8689 C   0  0  2  0  0  0  0  0  0  0  0  0
    8.3971  -15.8917   23.8766 N   0  0  0  0  0  0  0  0  0  0  0  0
    8.8870  -15.5221   26.1679 C   0  0  0  0  0  0  0  0  0  0  0  0
    8.7344  -16.7671   26.2307 O   0  0  0  0  0  0  0  0  0  0  0  0
    9.3141  -14.8468   27.2809 O   0  0  0  0  0  0  0  0  0  0  0  0
  1  2  1  0
  3  2  1  0
  3  4  1  1
  3  5  1  0
  5  6  2  0
  7  5  1  0
  7  8  1  0
  8 12  1  0
  8  9  1  1
 10  9  1  0
 11 10  2  0
 12 20  1  0
 13 12  2  0
 14 10  1  0
 16 17  1  0
 16 15  1  0
 18 17  1  0
 19 18  1  1
 20 19  1  0
 21 19  1  0
 21 23  1  0
 22 21  2  0
M  END
$$$$
