SDM.pdb
     RDKit          3D

 23 22  0  0  1  0  0  0  0  0999 V2000
    7.4635  -13.9600   21.7796 O   0  0  0  0  0  0  0  0  0  0  0  0
    8.4066  -14.3064   20.8413 C   0  0  0  0  0  0  0  0  0  0  0  0
    8.5433  -15.8010   20.6661 C   0  0  2  0  0  0  0  0  0  0  0  0
    7.3289  -16.3452   20.1336 N   0  0  0  0  0  0  0  0  0  0  0  0
    8.9029  -16.5009   21.9020 C   0  0  0  0  0  0  0  0  0  0  0  0
    8.1024  -17.2693   22.5157 O   0  0  0  0  0  0  0  0  0  0  0  0
   10.1960  -16.3280   22.4559 N   0  0  0  0  0  0  0  0  0  0  0  0
   10.5378  -17.1057   23.7074 C   0  0  1  0  0  0  0  0  0  0  0  0
   11.8135  -17.7726   23.3290 C   0  0  0  0  0  0  0  0  0  0  0  0
   12.5018  -18.6022   24.3012 C   0  0  0  0  0  0  0  0  0  0  0  0
   12.0408  -19.4291   25.0952 O   0  0  0  0  0  0  0  0  0  0  0  0
   10.6082  -16.1125   24.7832 C   0  0  0  0  0  0  0  0  0  0  0  0
   11.7591  -15.6414   25.0888 O   0  0  0  0  0  0  0  0  0  0  0  0
   13.9125  -18.4524   24.3599 O   0  0  0  0  0  0  0  0  0  0  0  0
    6.0175  -11.1146   25.8965 C   0  0  0  0  0  0  0  0  0  0  0  0
    6.6325  -12.3894   27.0144 S   0  0  0  0  0  0  0  0  0  0  0  0
    8.1126  -13.1928   26.3507 C   0  0  0  0  0  0  0  0  0  0  0  0
    8.6006  -14.2252   27.3604 C   0  0  0  0  0  0  0  0  0  0  0  0
    9.7973  -14.9541   26.8435 C   0  0  2  0  0  0  0  0  0  0  0  0
    9.5492  -15.5834   25.5502 N   0  0  0  0  0  0  0  0  0  0  0  0
   10.1002  -16.0585   27.8079 C   0  0  0  0  0  0  0  0  0  0  0  0
   10.9669  -15.8509   28.6928 O   0  0  0  0  0  0  0  0  0  0  0  0
    9.4738  -17.2761   27.7623 O   0  0  0  0  0  0  0  0  0  0  0  0
  1  2  1  0
  3  2  1  0
  3  4  1  1
  3  5  1  0
  5  6  2  0
  7  5  1  0
  7  8  1  0
  8 12  1  0
  8  9  1  6
 10  9  1  0
 11 10  2  0
 12 20  1  0
 13 12  2  0
 14 10  1  0
 16 17  1  0
 16 15  1  0
 18 17  1  0
 19 18  1  1
 20 19  1  0
 21 19  1  0
 21 23  1  0
 22 21  2  0
M  END
$$$$
