SDM.pdb
     RDKit          3D

 23 22  0  0  1  0  0  0  0  0999 V2000
    9.3721  -12.2434   20.1712 O   0  0  0  0  0  0  0  0  0  0  0  0
    9.2776  -13.0417   19.0561 C   0  0  0  0  0  0  0  0  0  0  0  0
    8.0383  -13.9062   19.0527 C   0  0  2  0  0  0  0  0  0  0  0  0
    6.8716  -13.0899   18.8890 N   0  0  0  0  0  0  0  0  0  0  0  0
    7.9029  -14.7331   20.2546 C   0  0  0  0  0  0  0  0  0  0  0  0
    7.0163  -14.5250   21.1370 O   0  0  0  0  0  0  0  0  0  0  0  0
    8.7894  -15.8191   20.4631 N   0  0  0  0  0  0  0  0  0  0  0  0
    8.5506  -16.7048   21.6658 C   0  0  1  0  0  0  0  0  0  0  0  0
    9.1480  -17.9974   21.2326 C   0  0  0  0  0  0  0  0  0  0  0  0
    9.3483  -19.0541   22.2074 C   0  0  0  0  0  0  0  0  0  0  0  0
    8.5890  -19.4598   23.0938 O   0  0  0  0  0  0  0  0  0  0  0  0
    9.1976  -16.0252   22.7918 C   0  0  0  0  0  0  0  0  0  0  0  0
   10.3398  -15.4831   22.5878 O   0  0  0  0  0  0  0  0  0  0  0  0
   10.5954  -19.7301   22.1455 O   0  0  0  0  0  0  0  0  0  0  0  0
    5.3841  -12.0098   26.7128 C   0  0  0  0  0  0  0  0  0  0  0  0
    7.1474  -12.1461   26.3585 S   0  0  0  0  0  0  0  0  0  0  0  0
    7.5741  -13.7971   25.7515 C   0  0  0  0  0  0  0  0  0  0  0  0
    9.0583  -13.8200   25.4049 C   0  0  0  0  0  0  0  0  0  0  0  0
    9.5221  -15.2133   25.1328 C   0  0  2  0  0  0  0  0  0  0  0  0
    8.7191  -15.8769   24.1105 N   0  0  0  0  0  0  0  0  0  0  0  0
    9.3455  -15.9988   26.3951 C   0  0  0  0  0  0  0  0  0  0  0  0
    8.5335  -16.9568   26.3878 O   0  0  0  0  0  0  0  0  0  0  0  0
   10.0296  -15.7147   27.5477 O   0  0  0  0  0  0  0  0  0  0  0  0
  1  2  1  0
  3  2  1  0
  3  4  1  1
  3  5  1  0
  5  6  2  0
  7  5  1  0
  7  8  1  0
  8 12  1  0
  8  9  1  6
 10  9  1  0
 11 10  2  0
 12 20  1  0
 13 12  2  0
 14 10  1  0
 16 17  1  0
 16 15  1  0
 18 17  1  0
 19 18  1  1
 20 19  1  0
 21 19  1  0
 21 23  1  0
 22 21  2  0
M  END
$$$$
