SDM.pdb
     RDKit          3D

 23 22  0  0  1  0  0  0  0  0999 V2000
    5.5325  -15.4551   21.7099 O   0  0  0  0  0  0  0  0  0  0  0  0
    6.2738  -15.0423   20.6283 C   0  0  0  0  0  0  0  0  0  0  0  0
    7.0663  -16.1618   19.9943 C   0  0  2  0  0  0  0  0  0  0  0  0
    6.1792  -17.1825   19.5195 N   0  0  0  0  0  0  0  0  0  0  0  0
    8.0650  -16.7480   20.8920 C   0  0  0  0  0  0  0  0  0  0  0  0
    7.9020  -17.8667   21.4662 O   0  0  0  0  0  0  0  0  0  0  0  0
    9.2743  -16.0537   21.1458 N   0  0  0  0  0  0  0  0  0  0  0  0
   10.2646  -16.6855   22.0986 C   0  0  1  0  0  0  0  0  0  0  0  0
   11.5716  -16.3186   21.4885 C   0  0  0  0  0  0  0  0  0  0  0  0
   12.8024  -16.7767   22.1067 C   0  0  0  0  0  0  0  0  0  0  0  0
   12.9633  -17.4946   23.0994 O   0  0  0  0  0  0  0  0  0  0  0  0
    9.9683  -16.1118   23.4145 C   0  0  0  0  0  0  0  0  0  0  0  0
   10.1525  -14.8546   23.5749 O   0  0  0  0  0  0  0  0  0  0  0  0
   14.0069  -16.3445   21.4913 O   0  0  0  0  0  0  0  0  0  0  0  0
    6.8969  -11.2364   26.2093 C   0  0  0  0  0  0  0  0  0  0  0  0
    6.7242  -13.0309   26.2675 S   0  0  0  0  0  0  0  0  0  0  0  0
    8.2708  -13.8587   25.8212 C   0  0  0  0  0  0  0  0  0  0  0  0
    8.0890  -15.3612   26.0031 C   0  0  0  0  0  0  0  0  0  0  0  0
    9.3887  -16.0797   25.8450 C   0  0  2  0  0  0  0  0  0  0  0  0
    9.4886  -16.7729   24.5645 N   0  0  0  0  0  0  0  0  0  0  0  0
    9.4516  -17.1311   26.9091 C   0  0  0  0  0  0  0  0  0  0  0  0
    9.4051  -18.3352   26.5555 O   0  0  0  0  0  0  0  0  0  0  0  0
    9.5569  -16.8324   28.2421 O   0  0  0  0  0  0  0  0  0  0  0  0
  1  2  1  0
  3  2  1  0
  3  4  1  1
  3  5  1  0
  5  6  2  0
  7  5  1  0
  7  8  1  0
  8 12  1  0
  8  9  1  6
 10  9  1  0
 11 10  2  0
 12 20  1  0
 13 12  2  0
 14 10  1  0
 16 17  1  0
 16 15  1  0
 18 17  1  0
 19 18  1  6
 20 19  1  0
 21 19  1  0
 21 23  1  0
 22 21  2  0
M  END
$$$$
