SDM.pdb
     RDKit          3D

 23 22  0  0  1  0  0  0  0  0999 V2000
    9.3057  -15.0392   16.6354 O   0  0  0  0  0  0  0  0  0  0  0  0
    9.8737  -16.1564   16.0706 C   0  0  0  0  0  0  0  0  0  0  0  0
    8.9329  -17.3379   16.0254 C   0  0  2  0  0  0  0  0  0  0  0  0
    7.8446  -17.0642   15.1339 N   0  0  0  0  0  0  0  0  0  0  0  0
    8.4146  -17.7192   17.3418 C   0  0  0  0  0  0  0  0  0  0  0  0
    7.1904  -17.6161   17.6557 O   0  0  0  0  0  0  0  0  0  0  0  0
    9.3001  -18.2280   18.3245 N   0  0  0  0  0  0  0  0  0  0  0  0
    8.7225  -18.5945   19.6735 C   0  0  1  0  0  0  0  0  0  0  0  0
    9.2105  -19.9883   19.8603 C   0  0  0  0  0  0  0  0  0  0  0  0
    8.8711  -20.7073   21.0748 C   0  0  0  0  0  0  0  0  0  0  0  0
    7.7603  -20.9734   21.5460 O   0  0  0  0  0  0  0  0  0  0  0  0
    9.2326  -17.5877   20.6087 C   0  0  0  0  0  0  0  0  0  0  0  0
   10.2389  -16.8854   20.2423 O   0  0  0  0  0  0  0  0  0  0  0  0
    9.9661  -21.1804   21.8449 O   0  0  0  0  0  0  0  0  0  0  0  0
    7.7346  -12.8622   19.1199 C   0  0  0  0  0  0  0  0  0  0  0  0
    8.2401  -12.5943   20.8304 S   0  0  0  0  0  0  0  0  0  0  0  0
    7.3890  -13.7275   21.9566 C   0  0  0  0  0  0  0  0  0  0  0  0
    7.5919  -15.1535   21.4577 C   0  0  0  0  0  0  0  0  0  0  0  0
    8.5726  -15.8849   22.3143 C   0  0  2  0  0  0  0  0  0  0  0  0
    8.7503  -17.2719   21.8961 N   0  0  0  0  0  0  0  0  0  0  0  0
    8.0137  -15.9227   23.7028 C   0  0  0  0  0  0  0  0  0  0  0  0
    8.1122  -14.8891   24.4092 O   0  0  0  0  0  0  0  0  0  0  0  0
    7.4045  -17.0321   24.2275 O   0  0  0  0  0  0  0  0  0  0  0  0
  1  2  1  0
  3  2  1  0
  3  4  1  6
  3  5  1  0
  5  6  2  0
  7  5  1  0
  7  8  1  0
  8 12  1  0
  8  9  1  1
 10  9  1  0
 11 10  2  0
 12 20  1  0
 13 12  2  0
 14 10  1  0
 16 17  1  0
 16 15  1  0
 18 17  1  0
 19 18  1  6
 20 19  1  0
 21 19  1  0
 21 23  1  0
 22 21  2  0
M  END
$$$$
