MDF.pdb
     RDKit          3D

 28 28  0  0  1  0  0  0  0  0999 V2000
   29.5763  -34.1353   -5.1272 C   0  0  0  0  0  0  0  0  0  0  0  0
   29.0753  -34.7153   -6.7723 S   0  0  0  0  0  0  0  0  0  0  0  0
   27.9689  -36.1253   -6.5409 C   0  0  0  0  0  0  0  0  0  0  0  0
   26.5921  -35.6709   -6.0616 C   0  0  0  0  0  0  0  0  0  0  0  0
   25.8160  -36.9432   -5.7573 C   0  0  2  0  0  0  0  0  0  0  0  0
   25.0533  -37.2854   -6.9093 N   0  0  0  0  0  0  0  0  0  0  0  0
   25.0287  -36.8289   -4.5226 C   0  0  0  0  0  0  0  0  0  0  0  0
   23.8304  -36.4530   -4.5228 O   0  0  0  0  0  0  0  0  0  0  0  0
   25.6149  -37.1480   -3.2653 N   0  0  0  0  0  0  0  0  0  0  0  0
   24.8950  -37.0420   -2.0165 C   0  0  1  0  0  0  0  0  0  0  0  0
   25.5149  -37.8553   -0.9099 C   0  0  0  0  0  0  0  0  0  0  0  0
   24.7086  -37.8732    0.3335 C   0  0  0  0  0  0  0  0  0  0  0  0
   25.0357  -38.5713    1.3234 O   0  0  0  0  0  0  0  0  0  0  0  0
   24.7862  -35.6092   -1.6559 C   0  0  0  0  0  0  0  0  0  0  0  0
   25.7638  -34.8568   -1.8895 O   0  0  0  0  0  0  0  0  0  0  0  0
   23.5509  -37.1210    0.4712 O   0  0  0  0  0  0  0  0  0  0  0  0
   23.5978  -35.0817   -1.0538 N   0  0  0  0  0  0  0  0  0  0  0  0
   23.5115  -33.6589   -0.8383 C   0  0  1  0  0  0  0  0  0  0  0  0
   23.6500  -32.9278   -2.1666 C   0  0  0  0  0  0  0  0  0  0  0  0
   23.4655  -31.4750   -2.0591 C   0  0  0  0  0  0  0  0  0  0  0  0
   22.2385  -30.8993   -2.2371 C   0  0  0  0  0  0  0  0  0  0  0  0
   22.0583  -29.5270   -2.1316 C   0  0  0  0  0  0  0  0  0  0  0  0
   23.1368  -28.7174   -1.8408 C   0  0  0  0  0  0  0  0  0  0  0  0
   24.3753  -29.2960   -1.6610 C   0  0  0  0  0  0  0  0  0  0  0  0
   24.5405  -30.6695   -1.7695 C   0  0  0  0  0  0  0  0  0  0  0  0
   22.2798  -33.2998   -0.1350 C   0  0  0  0  0  0  0  0  0  0  0  0
   22.2653  -32.0961    0.5944 O   0  0  0  0  0  0  0  0  0  0  0  0
   21.2321  -33.9693   -0.1229 O   0  0  0  0  0  0  0  0  0  0  0  0
  2  1  1  0
  3  2  1  0
  4  3  1  0
  4  5  1  0
  5  6  1  6
  7  5  1  0
  7  8  2  0
  9  7  1  0
 10  9  1  0
 10 11  1  1
 12 11  1  0
 12 16  1  0
 13 12  2  0
 14 10  1  0
 15 14  2  0
 17 14  1  0
 18 17  1  0
 18 26  1  0
 19 20  1  0
 18 19  1  6
 20 25  2  0
 21 22  2  0
 21 20  1  0
 22 23  1  0
 23 24  2  0
 25 24  1  0
 26 27  1  0
 28 26  2  0
M  END
$$$$
