MDF.pdb
     RDKit          3D

 28 28  0  0  1  0  0  0  0  0999 V2000
   26.6300  -35.2878  -16.9001 C   0  0  0  0  0  0  0  0  0  0  0  0
   25.9294  -34.6720  -15.3433 S   0  0  0  0  0  0  0  0  0  0  0  0
   24.1306  -34.6709  -15.5164 C   0  0  0  0  0  0  0  0  0  0  0  0
   23.4490  -34.4263  -14.1721 C   0  0  0  0  0  0  0  0  0  0  0  0
   23.6485  -35.7006  -13.3658 C   0  0  2  0  0  0  0  0  0  0  0  0
   22.7872  -36.7020  -13.8962 N   0  0  0  0  0  0  0  0  0  0  0  0
   23.4942  -35.4723  -11.9231 C   0  0  0  0  0  0  0  0  0  0  0  0
   22.5629  -34.7755  -11.4495 O   0  0  0  0  0  0  0  0  0  0  0  0
   24.4157  -36.0468  -11.0028 N   0  0  0  0  0  0  0  0  0  0  0  0
   24.3084  -35.8676   -9.5727 C   0  0  1  0  0  0  0  0  0  0  0  0
   23.4147  -36.8888   -8.9178 C   0  0  0  0  0  0  0  0  0  0  0  0
   23.3645  -36.7703   -7.4413 C   0  0  0  0  0  0  0  0  0  0  0  0
   23.7449  -37.7006   -6.6904 O   0  0  0  0  0  0  0  0  0  0  0  0
   25.6720  -35.8733   -8.9938 C   0  0  0  0  0  0  0  0  0  0  0  0
   26.5287  -36.6477   -9.4864 O   0  0  0  0  0  0  0  0  0  0  0  0
   22.8955  -35.6274   -6.8100 O   0  0  0  0  0  0  0  0  0  0  0  0
   26.0180  -35.0192   -7.8965 N   0  0  0  0  0  0  0  0  0  0  0  0
   27.3628  -35.0766   -7.3801 C   0  0  1  0  0  0  0  0  0  0  0  0
   27.7061  -33.7629   -6.6913 C   0  0  0  0  0  0  0  0  0  0  0  0
   26.8223  -33.4430   -5.5632 C   0  0  0  0  0  0  0  0  0  0  0  0
   27.1343  -33.8201   -4.2869 C   0  0  0  0  0  0  0  0  0  0  0  0
   26.3044  -33.5156   -3.2166 C   0  0  0  0  0  0  0  0  0  0  0  0
   25.1355  -32.8167   -3.4367 C   0  0  0  0  0  0  0  0  0  0  0  0
   24.8188  -32.4356   -4.7234 C   0  0  0  0  0  0  0  0  0  0  0  0
   25.6582  -32.7469   -5.7836 C   0  0  0  0  0  0  0  0  0  0  0  0
   27.5462  -36.2287   -6.4972 C   0  0  0  0  0  0  0  0  0  0  0  0
   28.8439  -36.4922   -6.0199 O   0  0  0  0  0  0  0  0  0  0  0  0
   26.6493  -37.0055   -6.1256 O   0  0  0  0  0  0  0  0  0  0  0  0
  2  1  1  0
  3  2  1  0
  4  3  1  0
  4  5  1  0
  5  6  1  6
  7  5  1  0
  7  8  2  0
  9  7  1  0
 10  9  1  0
 10 11  1  1
 12 11  1  0
 12 16  1  0
 13 12  2  0
 14 10  1  0
 15 14  2  0
 17 14  1  0
 18 17  1  0
 18 26  1  0
 19 20  1  0
 18 19  1  1
 20 25  2  0
 21 22  2  0
 21 20  1  0
 22 23  1  0
 23 24  2  0
 25 24  1  0
 26 27  1  0
 28 26  2  0
M  END
$$$$
