MDF.pdb
     RDKit          3D

 28 28  0  0  1  0  0  0  0  0999 V2000
   18.4253  -24.0695   -6.2566 C   0  0  0  0  0  0  0  0  0  0  0  0
   18.0046  -25.7615   -5.7529 S   0  0  0  0  0  0  0  0  0  0  0  0
   16.3134  -25.7375   -5.1164 C   0  0  0  0  0  0  0  0  0  0  0  0
   16.1947  -24.8148   -3.9055 C   0  0  0  0  0  0  0  0  0  0  0  0
   14.7046  -24.6682   -3.6377 C   0  0  2  0  0  0  0  0  0  0  0  0
   14.0897  -24.1545   -4.8141 N   0  0  0  0  0  0  0  0  0  0  0  0
   14.4350  -23.8868   -2.4236 C   0  0  0  0  0  0  0  0  0  0  0  0
   14.8590  -22.7144   -2.2718 O   0  0  0  0  0  0  0  0  0  0  0  0
   13.6696  -24.4490   -1.3633 N   0  0  0  0  0  0  0  0  0  0  0  0
   13.2878  -23.6972   -0.1894 C   0  0  1  0  0  0  0  0  0  0  0  0
   11.9401  -24.0979    0.3525 C   0  0  0  0  0  0  0  0  0  0  0  0
   10.8239  -23.8369   -0.5870 C   0  0  0  0  0  0  0  0  0  0  0  0
   10.0332  -24.7440   -0.9420 O   0  0  0  0  0  0  0  0  0  0  0  0
   14.3565  -23.8363    0.8269 C   0  0  0  0  0  0  0  0  0  0  0  0
   15.0704  -24.8690    0.8081 O   0  0  0  0  0  0  0  0  0  0  0  0
   10.5925  -22.5788   -1.1241 O   0  0  0  0  0  0  0  0  0  0  0  0
   14.5807  -22.8225    1.8144 N   0  0  0  0  0  0  0  0  0  0  0  0
   15.6455  -23.0161    2.7667 C   0  0  1  0  0  0  0  0  0  0  0  0
   16.9900  -22.7944    2.0876 C   0  0  0  0  0  0  0  0  0  0  0  0
   17.2095  -21.4073    1.6587 C   0  0  0  0  0  0  0  0  0  0  0  0
   17.0614  -21.0357    0.3516 C   0  0  0  0  0  0  0  0  0  0  0  0
   17.2630  -19.7247   -0.0577 C   0  0  0  0  0  0  0  0  0  0  0  0
   17.6214  -18.7678    0.8692 C   0  0  0  0  0  0  0  0  0  0  0  0
   17.7715  -19.1406    2.1881 C   0  0  0  0  0  0  0  0  0  0  0  0
   17.5666  -20.4550    2.5828 C   0  0  0  0  0  0  0  0  0  0  0  0
   15.4718  -22.1619    3.9418 C   0  0  0  0  0  0  0  0  0  0  0  0
   14.3770  -21.2773    3.9565 O   0  0  0  0  0  0  0  0  0  0  0  0
   16.2121  -22.1461    4.9406 O   0  0  0  0  0  0  0  0  0  0  0  0
  2  1  1  0
  3  2  1  0
  4  3  1  0
  4  5  1  0
  5  6  1  6
  7  5  1  0
  7  8  2  0
  9  7  1  0
 10  9  1  0
 10 11  1  1
 12 11  1  0
 12 16  1  0
 13 12  2  0
 14 10  1  0
 15 14  2  0
 17 14  1  0
 18 17  1  0
 18 26  1  0
 19 20  1  0
 18 19  1  6
 20 25  2  0
 21 22  2  0
 21 20  1  0
 22 23  1  0
 23 24  2  0
 25 24  1  0
 26 27  1  0
 28 26  2  0
M  END
$$$$
