MDF.pdb
     RDKit          3D

 28 28  0  0  1  0  0  0  0  0999 V2000
   26.8975  -16.3455  -17.6534 C   0  0  0  0  0  0  0  0  0  0  0  0
   27.8927  -17.7313  -18.2718 S   0  0  0  0  0  0  0  0  0  0  0  0
   28.2094  -18.8403  -16.8805 C   0  0  0  0  0  0  0  0  0  0  0  0
   28.2532  -18.0702  -15.5626 C   0  0  0  0  0  0  0  0  0  0  0  0
   28.4855  -19.1119  -14.4788 C   0  0  2  0  0  0  0  0  0  0  0  0
   28.5921  -20.3868  -15.1027 N   0  0  0  0  0  0  0  0  0  0  0  0
   27.4731  -19.0408  -13.4171 C   0  0  0  0  0  0  0  0  0  0  0  0
   27.1895  -17.9670  -12.8306 O   0  0  0  0  0  0  0  0  0  0  0  0
   26.7708  -20.2119  -13.0152 N   0  0  0  0  0  0  0  0  0  0  0  0
   25.7590  -20.2025  -11.9832 C   0  0  1  0  0  0  0  0  0  0  0  0
   24.5123  -20.9521  -12.3756 C   0  0  0  0  0  0  0  0  0  0  0  0
   23.4142  -20.8312  -11.3875 C   0  0  0  0  0  0  0  0  0  0  0  0
   23.0618  -19.7199  -10.9239 O   0  0  0  0  0  0  0  0  0  0  0  0
   26.3545  -20.7340  -10.7351 C   0  0  0  0  0  0  0  0  0  0  0  0
   27.5350  -21.1602  -10.7688 O   0  0  0  0  0  0  0  0  0  0  0  0
   22.7175  -21.9370  -10.9220 O   0  0  0  0  0  0  0  0  0  0  0  0
   25.6107  -20.7664   -9.5109 N   0  0  0  0  0  0  0  0  0  0  0  0
   26.3273  -20.9793   -8.2783 C   0  0  1  0  0  0  0  0  0  0  0  0
   27.3285  -19.8525   -8.0637 C   0  0  0  0  0  0  0  0  0  0  0  0
   28.0075  -19.9102   -6.7630 C   0  0  0  0  0  0  0  0  0  0  0  0
   27.5579  -19.1869   -5.6939 C   0  0  0  0  0  0  0  0  0  0  0  0
   28.1935  -19.2421   -4.4610 C   0  0  0  0  0  0  0  0  0  0  0  0
   29.3056  -20.0427   -4.3019 C   0  0  0  0  0  0  0  0  0  0  0  0
   29.7609  -20.7731   -5.3791 C   0  0  0  0  0  0  0  0  0  0  0  0
   29.1152  -20.7080   -6.6056 C   0  0  0  0  0  0  0  0  0  0  0  0
   25.4110  -21.1279   -7.1474 C   0  0  0  0  0  0  0  0  0  0  0  0
   25.7789  -22.0093   -6.1135 O   0  0  0  0  0  0  0  0  0  0  0  0
   24.3237  -20.5395   -7.0151 O   0  0  0  0  0  0  0  0  0  0  0  0
  2  1  1  0
  3  2  1  0
  4  3  1  0
  4  5  1  0
  5  6  1  6
  7  5  1  0
  7  8  2  0
  9  7  1  0
 10  9  1  0
 10 11  1  6
 12 11  1  0
 12 16  1  0
 13 12  2  0
 14 10  1  0
 15 14  2  0
 17 14  1  0
 18 17  1  0
 18 26  1  0
 19 20  1  0
 18 19  1  1
 20 25  2  0
 21 22  2  0
 21 20  1  0
 22 23  1  0
 23 24  2  0
 25 24  1  0
 26 27  1  0
 28 26  2  0
M  END
$$$$
