MDF.pdb
     RDKit          3D

 28 28  0  0  1  0  0  0  0  0999 V2000
   21.2559  -34.7447    0.9242 C   0  0  0  0  0  0  0  0  0  0  0  0
   20.8369  -35.8037   -0.4888 S   0  0  0  0  0  0  0  0  0  0  0  0
   19.9142  -34.7963   -1.6718 C   0  0  0  0  0  0  0  0  0  0  0  0
   20.5907  -33.4446   -1.8883 C   0  0  0  0  0  0  0  0  0  0  0  0
   19.6863  -32.6732   -2.8373 C   0  0  2  0  0  0  0  0  0  0  0  0
   19.7145  -33.3214   -4.1042 N   0  0  0  0  0  0  0  0  0  0  0  0
   20.0214  -31.2438   -2.8815 C   0  0  0  0  0  0  0  0  0  0  0  0
   20.7839  -30.7597   -3.7542 O   0  0  0  0  0  0  0  0  0  0  0  0
   19.4796  -30.3493   -1.9159 N   0  0  0  0  0  0  0  0  0  0  0  0
   19.5566  -28.9122   -2.0500 C   0  0  1  0  0  0  0  0  0  0  0  0
   18.6470  -28.3726   -3.1232 C   0  0  0  0  0  0  0  0  0  0  0  0
   18.6634  -26.8940   -3.2235 C   0  0  0  0  0  0  0  0  0  0  0  0
   19.7335  -26.2524   -3.3556 O   0  0  0  0  0  0  0  0  0  0  0  0
   19.2784  -28.3005   -0.7298 C   0  0  0  0  0  0  0  0  0  0  0  0
   18.2805  -28.7018   -0.0819 O   0  0  0  0  0  0  0  0  0  0  0  0
   17.4998  -26.1399   -3.1770 O   0  0  0  0  0  0  0  0  0  0  0  0
   20.1211  -27.2735   -0.1931 N   0  0  0  0  0  0  0  0  0  0  0  0
   19.8001  -26.7303    1.1030 C   0  0  1  0  0  0  0  0  0  0  0  0
   20.9902  -25.9489    1.6428 C   0  0  0  0  0  0  0  0  0  0  0  0
   20.7401  -25.3265    2.9491 C   0  0  0  0  0  0  0  0  0  0  0  0
   20.5211  -23.9823    3.0656 C   0  0  0  0  0  0  0  0  0  0  0  0
   20.2794  -23.3902    4.2976 C   0  0  0  0  0  0  0  0  0  0  0  0
   20.2581  -24.1687    5.4364 C   0  0  0  0  0  0  0  0  0  0  0  0
   20.4789  -25.5247    5.3211 C   0  0  0  0  0  0  0  0  0  0  0  0
   20.7192  -26.1028    4.0828 C   0  0  0  0  0  0  0  0  0  0  0  0
   18.5824  -25.9205    1.0552 C   0  0  0  0  0  0  0  0  0  0  0  0
   17.8141  -25.8172    2.2300 O   0  0  0  0  0  0  0  0  0  0  0  0
   18.1596  -25.3081    0.0592 O   0  0  0  0  0  0  0  0  0  0  0  0
  2  1  1  0
  3  2  1  0
  4  3  1  0
  4  5  1  0
  5  6  1  6
  7  5  1  0
  7  8  2  0
  9  7  1  0
 10  9  1  0
 10 11  1  6
 12 11  1  0
 12 16  1  0
 13 12  2  0
 14 10  1  0
 15 14  2  0
 17 14  1  0
 18 17  1  0
 18 26  1  0
 19 20  1  0
 18 19  1  6
 20 25  2  0
 21 22  2  0
 21 20  1  0
 22 23  1  0
 23 24  2  0
 25 24  1  0
 26 27  1  0
 28 26  2  0
M  END
$$$$
