MDF.pdb
     RDKit          3D

 28 28  0  0  1  0  0  0  0  0999 V2000
   26.8835  -15.7814  -18.1417 C   0  0  0  0  0  0  0  0  0  0  0  0
   26.7472  -14.4428  -16.9240 S   0  0  0  0  0  0  0  0  0  0  0  0
   26.4270  -15.1991  -15.3142 C   0  0  0  0  0  0  0  0  0  0  0  0
   25.3881  -16.3125  -15.4267 C   0  0  0  0  0  0  0  0  0  0  0  0
   25.2136  -16.8634  -14.0197 C   0  0  2  0  0  0  0  0  0  0  0  0
   26.0657  -16.1307  -13.1463 N   0  0  0  0  0  0  0  0  0  0  0  0
   25.4021  -18.3191  -13.9683 C   0  0  0  0  0  0  0  0  0  0  0  0
   24.6086  -19.1188  -14.5234 O   0  0  0  0  0  0  0  0  0  0  0  0
   26.5128  -18.8750  -13.2730 N   0  0  0  0  0  0  0  0  0  0  0  0
   26.7767  -20.2953  -13.2275 C   0  0  1  0  0  0  0  0  0  0  0  0
   27.8756  -20.7193  -14.1672 C   0  0  0  0  0  0  0  0  0  0  0  0
   27.9180  -22.1814  -14.4056 C   0  0  0  0  0  0  0  0  0  0  0  0
   28.9488  -22.7508  -14.8387 O   0  0  0  0  0  0  0  0  0  0  0  0
   27.0700  -20.6750  -11.8259 C   0  0  0  0  0  0  0  0  0  0  0  0
   28.2616  -20.9056  -11.5046 O   0  0  0  0  0  0  0  0  0  0  0  0
   26.8235  -22.9990  -14.1637 O   0  0  0  0  0  0  0  0  0  0  0  0
   26.0265  -20.7804  -10.8497 N   0  0  0  0  0  0  0  0  0  0  0  0
   26.3950  -20.9817   -9.4706 C   0  0  1  0  0  0  0  0  0  0  0  0
   27.3546  -19.8852   -9.0289 C   0  0  0  0  0  0  0  0  0  0  0  0
   27.6657  -19.9202   -7.5943 C   0  0  0  0  0  0  0  0  0  0  0  0
   28.5368  -20.8384   -7.0781 C   0  0  0  0  0  0  0  0  0  0  0  0
   28.8377  -20.8721   -5.7234 C   0  0  0  0  0  0  0  0  0  0  0  0
   28.2486  -19.9617   -4.8706 C   0  0  0  0  0  0  0  0  0  0  0  0
   27.3695  -19.0347   -5.3892 C   0  0  0  0  0  0  0  0  0  0  0  0
   27.0782  -19.0129   -6.7457 C   0  0  0  0  0  0  0  0  0  0  0  0
   25.2149  -21.0639   -8.6097 C   0  0  0  0  0  0  0  0  0  0  0  0
   25.3016  -21.8531   -7.4475 O   0  0  0  0  0  0  0  0  0  0  0  0
   24.1293  -20.4931   -8.8138 O   0  0  0  0  0  0  0  0  0  0  0  0
  2  1  1  0
  3  2  1  0
  4  3  1  0
  4  5  1  0
  5  6  1  1
  7  5  1  0
  7  8  2  0
  9  7  1  0
 10  9  1  0
 10 11  1  6
 12 11  1  0
 12 16  1  0
 13 12  2  0
 14 10  1  0
 15 14  2  0
 17 14  1  0
 18 17  1  0
 18 26  1  0
 19 20  1  0
 18 19  1  1
 20 25  2  0
 21 22  2  0
 21 20  1  0
 22 23  1  0
 23 24  2  0
 25 24  1  0
 26 27  1  0
 28 26  2  0
M  END
$$$$
