MDF.pdb
     RDKit          3D

 28 28  0  0  1  0  0  0  0  0999 V2000
   20.7415  -27.5953  -20.2620 C   0  0  0  0  0  0  0  0  0  0  0  0
   21.2821  -26.7378  -21.7674 S   0  0  0  0  0  0  0  0  0  0  0  0
   22.4054  -25.4131  -21.2680 C   0  0  0  0  0  0  0  0  0  0  0  0
   22.8565  -25.5913  -19.8201 C   0  0  0  0  0  0  0  0  0  0  0  0
   21.9192  -24.7341  -18.9832 C   0  0  2  0  0  0  0  0  0  0  0  0
   21.1712  -23.9029  -19.8638 N   0  0  0  0  0  0  0  0  0  0  0  0
   22.6318  -24.0071  -17.9245 C   0  0  0  0  0  0  0  0  0  0  0  0
   23.3259  -24.5935  -17.0575 O   0  0  0  0  0  0  0  0  0  0  0  0
   22.5534  -22.5877  -17.8505 N   0  0  0  0  0  0  0  0  0  0  0  0
   23.2358  -21.8178  -16.8354 C   0  0  1  0  0  0  0  0  0  0  0  0
   23.5140  -20.3995  -17.2613 C   0  0  0  0  0  0  0  0  0  0  0  0
   24.2600  -19.6141  -16.2497 C   0  0  0  0  0  0  0  0  0  0  0  0
   24.6118  -20.1131  -15.1536 O   0  0  0  0  0  0  0  0  0  0  0  0
   22.4402  -21.8747  -15.5870 C   0  0  0  0  0  0  0  0  0  0  0  0
   21.1968  -21.7171  -15.6614 O   0  0  0  0  0  0  0  0  0  0  0  0
   24.6095  -18.2878  -16.4584 O   0  0  0  0  0  0  0  0  0  0  0  0
   23.0634  -22.1037  -14.3173 N   0  0  0  0  0  0  0  0  0  0  0  0
   22.2324  -22.1275  -13.1396 C   0  0  1  0  0  0  0  0  0  0  0  0
   22.9470  -22.8724  -12.0203 C   0  0  0  0  0  0  0  0  0  0  0  0
   24.0453  -22.1088  -11.4148 C   0  0  0  0  0  0  0  0  0  0  0  0
   25.3180  -22.1816  -11.9081 C   0  0  0  0  0  0  0  0  0  0  0  0
   26.3585  -21.4578  -11.3420 C   0  0  0  0  0  0  0  0  0  0  0  0
   26.1117  -20.6436  -10.2561 C   0  0  0  0  0  0  0  0  0  0  0  0
   24.8287  -20.5688   -9.7568 C   0  0  0  0  0  0  0  0  0  0  0  0
   23.7984  -21.2981  -10.3330 C   0  0  0  0  0  0  0  0  0  0  0  0
   21.8351  -20.7773  -12.7399 C   0  0  0  0  0  0  0  0  0  0  0  0
   20.6793  -20.6384  -11.9487 O   0  0  0  0  0  0  0  0  0  0  0  0
   22.4327  -19.7289  -13.0391 O   0  0  0  0  0  0  0  0  0  0  0  0
  2  1  1  0
  3  2  1  0
  4  3  1  0
  4  5  1  0
  5  6  1  6
  7  5  1  0
  7  8  2  0
  9  7  1  0
 10  9  1  0
 10 11  1  6
 12 11  1  0
 12 16  1  0
 13 12  2  0
 14 10  1  0
 15 14  2  0
 17 14  1  0
 18 17  1  0
 18 26  1  0
 19 20  1  0
 18 19  1  1
 20 25  2  0
 21 22  2  0
 21 20  1  0
 22 23  1  0
 23 24  2  0
 25 24  1  0
 26 27  1  0
 28 26  2  0
M  END
$$$$
