MDF.pdb
     RDKit          3D

 28 28  0  0  1  0  0  0  0  0999 V2000
   27.2537  -14.9739  -15.4253 C   0  0  0  0  0  0  0  0  0  0  0  0
   28.2491  -15.7188  -16.7474 S   0  0  0  0  0  0  0  0  0  0  0  0
   27.5325  -17.3338  -17.1269 C   0  0  0  0  0  0  0  0  0  0  0  0
   26.7730  -17.8942  -15.9266 C   0  0  0  0  0  0  0  0  0  0  0  0
   26.1737  -19.2127  -16.3912 C   0  0  2  0  0  0  0  0  0  0  0  0
   25.3084  -18.9456  -17.4893 N   0  0  0  0  0  0  0  0  0  0  0  0
   25.5430  -19.9522  -15.2900 C   0  0  0  0  0  0  0  0  0  0  0  0
   24.5991  -19.4737  -14.6138 O   0  0  0  0  0  0  0  0  0  0  0  0
   25.9940  -21.2593  -14.9520 N   0  0  0  0  0  0  0  0  0  0  0  0
   25.3764  -22.0574  -13.9173 C   0  0  1  0  0  0  0  0  0  0  0  0
   25.5132  -23.5386  -14.1571 C   0  0  0  0  0  0  0  0  0  0  0  0
   24.8021  -24.0093  -15.3693 C   0  0  0  0  0  0  0  0  0  0  0  0
   23.7411  -23.4689  -15.7648 O   0  0  0  0  0  0  0  0  0  0  0  0
   25.9437  -21.6538  -12.6097 C   0  0  0  0  0  0  0  0  0  0  0  0
   27.1896  -21.5361  -12.5079 O   0  0  0  0  0  0  0  0  0  0  0  0
   25.2691  -25.0704  -16.1314 O   0  0  0  0  0  0  0  0  0  0  0  0
   25.1007  -21.4006  -11.4791 N   0  0  0  0  0  0  0  0  0  0  0  0
   25.7148  -21.2667  -10.1817 C   0  0  1  0  0  0  0  0  0  0  0  0
   26.7591  -20.1594  -10.2184 C   0  0  0  0  0  0  0  0  0  0  0  0
   27.3522  -19.8682   -8.9071 C   0  0  0  0  0  0  0  0  0  0  0  0
   26.8386  -18.8961   -8.0948 C   0  0  0  0  0  0  0  0  0  0  0  0
   27.3928  -18.6206   -6.8523 C   0  0  0  0  0  0  0  0  0  0  0  0
   28.4877  -19.3394   -6.4189 C   0  0  0  0  0  0  0  0  0  0  0  0
   29.0074  -20.3203   -7.2367 C   0  0  0  0  0  0  0  0  0  0  0  0
   28.4428  -20.5847   -8.4763 C   0  0  0  0  0  0  0  0  0  0  0  0
   24.7134  -21.0484   -9.1377 C   0  0  0  0  0  0  0  0  0  0  0  0
   24.9591  -21.5968   -7.8649 O   0  0  0  0  0  0  0  0  0  0  0  0
   23.6523  -20.4148   -9.2741 O   0  0  0  0  0  0  0  0  0  0  0  0
  2  1  1  0
  3  2  1  0
  4  3  1  0
  4  5  1  0
  5  6  1  6
  7  5  1  0
  7  8  2  0
  9  7  1  0
 10  9  1  0
 10 11  1  6
 12 11  1  0
 12 16  1  0
 13 12  2  0
 14 10  1  0
 15 14  2  0
 17 14  1  0
 18 17  1  0
 18 26  1  0
 19 20  1  0
 18 19  1  6
 20 25  2  0
 21 22  2  0
 21 20  1  0
 22 23  1  0
 23 24  2  0
 25 24  1  0
 26 27  1  0
 28 26  2  0
M  END
$$$$
