MDF.pdb
     RDKit          3D

 28 28  0  0  1  0  0  0  0  0999 V2000
   22.6631  -11.3545  -21.0720 C   0  0  0  0  0  0  0  0  0  0  0  0
   21.8653  -12.9778  -20.9243 S   0  0  0  0  0  0  0  0  0  0  0  0
   20.3000  -12.7400  -20.0530 C   0  0  0  0  0  0  0  0  0  0  0  0
   20.3462  -11.4955  -19.1694 C   0  0  0  0  0  0  0  0  0  0  0  0
   18.9810  -11.4056  -18.5046 C   0  0  2  0  0  0  0  0  0  0  0  0
   17.9862  -11.4755  -19.5201 N   0  0  0  0  0  0  0  0  0  0  0  0
   18.8690  -10.2327  -17.6276 C   0  0  0  0  0  0  0  0  0  0  0  0
   18.8483   -9.0594  -18.0751 O   0  0  0  0  0  0  0  0  0  0  0  0
   18.7788  -10.3974  -16.2166 N   0  0  0  0  0  0  0  0  0  0  0  0
   18.6636   -9.2825  -15.3041 C   0  0  1  0  0  0  0  0  0  0  0  0
   18.0336   -9.6619  -13.9891 C   0  0  0  0  0  0  0  0  0  0  0  0
   16.6410  -10.1519  -14.1204 C   0  0  0  0  0  0  0  0  0  0  0  0
   16.3024  -11.2941  -13.7265 O   0  0  0  0  0  0  0  0  0  0  0  0
   20.0057   -8.6824  -15.1220 C   0  0  0  0  0  0  0  0  0  0  0  0
   21.0131   -9.3591  -15.4440 O   0  0  0  0  0  0  0  0  0  0  0  0
   15.6379   -9.3770  -14.6844 O   0  0  0  0  0  0  0  0  0  0  0  0
   20.1642   -7.3609  -14.5915 N   0  0  0  0  0  0  0  0  0  0  0  0
   21.4768   -6.7654  -14.6141 C   0  0  1  0  0  0  0  0  0  0  0  0
   21.9964   -6.7190  -16.0445 C   0  0  0  0  0  0  0  0  0  0  0  0
   23.2950   -6.0463  -16.1759 C   0  0  0  0  0  0  0  0  0  0  0  0
   24.4453   -6.7556  -16.3815 C   0  0  0  0  0  0  0  0  0  0  0  0
   25.6744   -6.1237  -16.5113 C   0  0  0  0  0  0  0  0  0  0  0  0
   25.7464   -4.7483  -16.4321 C   0  0  0  0  0  0  0  0  0  0  0  0
   24.5874   -4.0309  -16.2246 C   0  0  0  0  0  0  0  0  0  0  0  0
   23.3656   -4.6763  -16.0968 C   0  0  0  0  0  0  0  0  0  0  0  0
   21.4745   -5.4453  -13.9833 C   0  0  0  0  0  0  0  0  0  0  0  0
   22.6023   -5.0753  -13.2268 O   0  0  0  0  0  0  0  0  0  0  0  0
   20.5560   -4.6105  -14.0557 O   0  0  0  0  0  0  0  0  0  0  0  0
  2  1  1  0
  3  2  1  0
  4  3  1  0
  4  5  1  0
  5  6  1  6
  7  5  1  0
  7  8  2  0
  9  7  1  0
 10  9  1  0
 10 11  1  1
 12 11  1  0
 12 16  1  0
 13 12  2  0
 14 10  1  0
 15 14  2  0
 17 14  1  0
 18 17  1  0
 18 26  1  0
 19 20  1  0
 18 19  1  6
 20 25  2  0
 21 22  2  0
 21 20  1  0
 22 23  1  0
 23 24  2  0
 25 24  1  0
 26 27  1  0
 28 26  2  0
M  END
$$$$
