MDF.pdb
     RDKit          3D

 28 28  0  0  1  0  0  0  0  0999 V2000
   32.0091  -22.0253  -11.3794 C   0  0  0  0  0  0  0  0  0  0  0  0
   32.0991  -22.2524  -13.1777 S   0  0  0  0  0  0  0  0  0  0  0  0
   30.6733  -21.4144  -13.9063 C   0  0  0  0  0  0  0  0  0  0  0  0
   29.6787  -20.9854  -12.8300 C   0  0  0  0  0  0  0  0  0  0  0  0
   28.6026  -20.1880  -13.5511 C   0  0  2  0  0  0  0  0  0  0  0  0
   29.2185  -19.0577  -14.1585 N   0  0  0  0  0  0  0  0  0  0  0  0
   27.4730  -19.8614  -12.6711 C   0  0  0  0  0  0  0  0  0  0  0  0
   27.2780  -18.7012  -12.2314 O   0  0  0  0  0  0  0  0  0  0  0  0
   26.5486  -20.8724  -12.2843 N   0  0  0  0  0  0  0  0  0  0  0  0
   25.5975  -20.6943  -11.2107 C   0  0  1  0  0  0  0  0  0  0  0  0
   24.3508  -21.5220  -11.3866 C   0  0  0  0  0  0  0  0  0  0  0  0
   23.4417  -21.0055  -12.4371 C   0  0  0  0  0  0  0  0  0  0  0  0
   22.5656  -21.7302  -12.9676 O   0  0  0  0  0  0  0  0  0  0  0  0
   26.2772  -20.9836   -9.9267 C   0  0  0  0  0  0  0  0  0  0  0  0
   27.3493  -21.6367   -9.9502 O   0  0  0  0  0  0  0  0  0  0  0  0
   23.5091  -19.6960  -12.8904 O   0  0  0  0  0  0  0  0  0  0  0  0
   25.7338  -20.5341   -8.6794 N   0  0  0  0  0  0  0  0  0  0  0  0
   26.4979  -20.7584   -7.4776 C   0  0  1  0  0  0  0  0  0  0  0  0
   27.4728  -19.6083   -7.2654 C   0  0  0  0  0  0  0  0  0  0  0  0
   28.1679  -19.6589   -5.9730 C   0  0  0  0  0  0  0  0  0  0  0  0
   29.3275  -20.3657   -5.8168 C   0  0  0  0  0  0  0  0  0  0  0  0
   29.9907  -20.4123   -4.5982 C   0  0  0  0  0  0  0  0  0  0  0  0
   29.4750  -19.7327   -3.5141 C   0  0  0  0  0  0  0  0  0  0  0  0
   28.3054  -19.0193   -3.6694 C   0  0  0  0  0  0  0  0  0  0  0  0
   27.6533  -18.9817   -4.8937 C   0  0  0  0  0  0  0  0  0  0  0  0
   25.6253  -20.9644   -6.3215 C   0  0  0  0  0  0  0  0  0  0  0  0
   26.1602  -21.6320   -5.2037 O   0  0  0  0  0  0  0  0  0  0  0  0
   24.4400  -20.5990   -6.2355 O   0  0  0  0  0  0  0  0  0  0  0  0
  2  1  1  0
  3  2  1  0
  4  3  1  0
  4  5  1  0
  5  6  1  1
  7  5  1  0
  7  8  2  0
  9  7  1  0
 10  9  1  0
 10 11  1  6
 12 11  1  0
 12 16  1  0
 13 12  2  0
 14 10  1  0
 15 14  2  0
 17 14  1  0
 18 17  1  0
 18 26  1  0
 19 20  1  0
 18 19  1  1
 20 25  2  0
 21 22  2  0
 21 20  1  0
 22 23  1  0
 23 24  2  0
 25 24  1  0
 26 27  1  0
 28 26  2  0
M  END
$$$$
