MDF.pdb
     RDKit          3D

 28 28  0  0  1  0  0  0  0  0999 V2000
   26.8519  -15.9071  -16.8634 C   0  0  0  0  0  0  0  0  0  0  0  0
   28.0377  -17.0734  -17.5894 S   0  0  0  0  0  0  0  0  0  0  0  0
   28.2597  -18.4289  -16.4149 C   0  0  0  0  0  0  0  0  0  0  0  0
   27.4951  -18.1649  -15.1198 C   0  0  0  0  0  0  0  0  0  0  0  0
   27.8065  -19.3397  -14.2052 C   0  0  2  0  0  0  0  0  0  0  0  0
   27.6393  -20.5405  -14.9509 N   0  0  0  0  0  0  0  0  0  0  0  0
   27.0330  -19.2897  -12.9576 C   0  0  0  0  0  0  0  0  0  0  0  0
   26.9675  -18.2546  -12.2493 O   0  0  0  0  0  0  0  0  0  0  0  0
   26.3215  -20.4375  -12.5076 N   0  0  0  0  0  0  0  0  0  0  0  0
   25.4696  -20.4225  -11.3401 C   0  0  1  0  0  0  0  0  0  0  0  0
   24.3001  -21.3658  -11.4538 C   0  0  0  0  0  0  0  0  0  0  0  0
   23.1313  -20.7771  -12.1494 C   0  0  0  0  0  0  0  0  0  0  0  0
   23.0268  -20.7979  -13.3995 O   0  0  0  0  0  0  0  0  0  0  0  0
   26.2997  -20.7115  -10.1477 C   0  0  0  0  0  0  0  0  0  0  0  0
   27.1334  -21.6482  -10.2108 O   0  0  0  0  0  0  0  0  0  0  0  0
   22.0912  -20.1722  -11.4585 O   0  0  0  0  0  0  0  0  0  0  0  0
   26.1640  -19.9468   -8.9436 N   0  0  0  0  0  0  0  0  0  0  0  0
   26.8794  -20.3822   -7.7702 C   0  0  1  0  0  0  0  0  0  0  0  0
   27.7759  -19.2588   -7.2676 C   0  0  0  0  0  0  0  0  0  0  0  0
   28.3805  -19.5318   -5.9576 C   0  0  0  0  0  0  0  0  0  0  0  0
   29.3971  -20.4349   -5.8183 C   0  0  0  0  0  0  0  0  0  0  0  0
   29.9750  -20.6925   -4.5828 C   0  0  0  0  0  0  0  0  0  0  0  0
   29.5192  -20.0265   -3.4639 C   0  0  0  0  0  0  0  0  0  0  0  0
   28.4937  -19.1153   -3.6021 C   0  0  0  0  0  0  0  0  0  0  0  0
   27.9256  -18.8679   -4.8437 C   0  0  0  0  0  0  0  0  0  0  0  0
   25.9639  -20.8642   -6.7357 C   0  0  0  0  0  0  0  0  0  0  0  0
   24.5837  -20.6776   -6.9393 O   0  0  0  0  0  0  0  0  0  0  0  0
   26.2982  -21.4304   -5.6805 O   0  0  0  0  0  0  0  0  0  0  0  0
  2  1  1  0
  3  2  1  0
  4  3  1  0
  4  5  1  0
  5  6  1  6
  7  5  1  0
  7  8  2  0
  9  7  1  0
 10  9  1  0
 10 11  1  6
 12 11  1  0
 12 16  1  0
 13 12  2  0
 14 10  1  0
 15 14  2  0
 17 14  1  0
 18 17  1  0
 18 26  1  0
 19 20  1  0
 18 19  1  1
 20 25  2  0
 21 22  2  0
 21 20  1  0
 22 23  1  0
 23 24  2  0
 25 24  1  0
 26 27  1  0
 28 26  2  0
M  END
$$$$
