MDF.pdb
     RDKit          3D

 28 28  0  0  1  0  0  0  0  0999 V2000
   30.4571  -22.6881  -10.4249 C   0  0  0  0  0  0  0  0  0  0  0  0
   31.8978  -22.1320  -11.3781 S   0  0  0  0  0  0  0  0  0  0  0  0
   31.2852  -21.3477  -12.8866 C   0  0  0  0  0  0  0  0  0  0  0  0
   29.7952  -21.0326  -12.7763 C   0  0  0  0  0  0  0  0  0  0  0  0
   29.3701  -20.5421  -14.1519 C   0  0  2  0  0  0  0  0  0  0  0  0
   30.1303  -19.3799  -14.4643 N   0  0  0  0  0  0  0  0  0  0  0  0
   27.9161  -20.3579  -14.2486 C   0  0  0  0  0  0  0  0  0  0  0  0
   27.3523  -19.2837  -13.9235 O   0  0  0  0  0  0  0  0  0  0  0  0
   27.0887  -21.4143  -14.7236 N   0  0  0  0  0  0  0  0  0  0  0  0
   25.6525  -21.2950  -14.8332 C   0  0  1  0  0  0  0  0  0  0  0  0
   25.1005  -21.9566  -16.0693 C   0  0  0  0  0  0  0  0  0  0  0  0
   23.6372  -21.7836  -16.2289 C   0  0  0  0  0  0  0  0  0  0  0  0
   23.0142  -20.8597  -15.6523 O   0  0  0  0  0  0  0  0  0  0  0  0
   25.0395  -21.8334  -13.5967 C   0  0  0  0  0  0  0  0  0  0  0  0
   25.5048  -22.8930  -13.1098 O   0  0  0  0  0  0  0  0  0  0  0  0
   22.8778  -22.6312  -17.0224 O   0  0  0  0  0  0  0  0  0  0  0  0
   23.9403  -21.1694  -12.9612 N   0  0  0  0  0  0  0  0  0  0  0  0
   23.9034  -21.1290  -11.5206 C   0  0  1  0  0  0  0  0  0  0  0  0
   25.2134  -20.5647  -10.9879 C   0  0  0  0  0  0  0  0  0  0  0  0
   25.2255  -20.3847   -9.5306 C   0  0  0  0  0  0  0  0  0  0  0  0
   24.2304  -20.8933   -8.7434 C   0  0  0  0  0  0  0  0  0  0  0  0
   24.2403  -20.7300   -7.3649 C   0  0  0  0  0  0  0  0  0  0  0  0
   25.2742  -20.0397   -6.7668 C   0  0  0  0  0  0  0  0  0  0  0  0
   26.2789  -19.5259   -7.5590 C   0  0  0  0  0  0  0  0  0  0  0  0
   26.2559  -19.6970   -8.9359 C   0  0  0  0  0  0  0  0  0  0  0  0
   22.7421  -20.3816  -11.0376 C   0  0  0  0  0  0  0  0  0  0  0  0
   22.2683  -19.3181  -11.8286 O   0  0  0  0  0  0  0  0  0  0  0  0
   22.1281  -20.6033   -9.9794 O   0  0  0  0  0  0  0  0  0  0  0  0
  2  1  1  0
  3  2  1  0
  4  3  1  0
  4  5  1  0
  5  6  1  1
  7  5  1  0
  7  8  2  0
  9  7  1  0
 10  9  1  0
 10 11  1  6
 12 11  1  0
 12 16  1  0
 13 12  2  0
 14 10  1  0
 15 14  2  0
 17 14  1  0
 18 17  1  0
 18 26  1  0
 19 20  1  0
 18 19  1  6
 20 25  2  0
 21 22  2  0
 21 20  1  0
 22 23  1  0
 23 24  2  0
 25 24  1  0
 26 27  1  0
 28 26  2  0
M  END
$$$$
