MDF.pdb
     RDKit          3D

 28 28  0  0  1  0  0  0  0  0999 V2000
   24.1121  -13.8846  -17.1532 C   0  0  0  0  0  0  0  0  0  0  0  0
   23.9872  -14.2733  -18.9214 S   0  0  0  0  0  0  0  0  0  0  0  0
   22.2320  -14.4185  -19.3263 C   0  0  0  0  0  0  0  0  0  0  0  0
   21.5631  -13.0466  -19.3724 C   0  0  0  0  0  0  0  0  0  0  0  0
   20.6582  -12.9830  -18.1514 C   0  0  2  0  0  0  0  0  0  0  0  0
   19.7479  -14.0754  -18.2149 N   0  0  0  0  0  0  0  0  0  0  0  0
   20.0175  -11.6694  -18.0055 C   0  0  0  0  0  0  0  0  0  0  0  0
   20.6689  -10.5964  -18.0463 O   0  0  0  0  0  0  0  0  0  0  0  0
   18.6107  -11.5746  -17.8097 N   0  0  0  0  0  0  0  0  0  0  0  0
   17.9130  -10.3106  -17.7435 C   0  0  1  0  0  0  0  0  0  0  0  0
   16.4154  -10.4616  -17.8134 C   0  0  0  0  0  0  0  0  0  0  0  0
   15.9536  -11.2355  -18.9900 C   0  0  0  0  0  0  0  0  0  0  0  0
   16.3069  -10.9382  -20.1566 O   0  0  0  0  0  0  0  0  0  0  0  0
   18.3409   -9.6003  -16.5160 C   0  0  0  0  0  0  0  0  0  0  0  0
   18.5106  -10.2675  -15.4661 O   0  0  0  0  0  0  0  0  0  0  0  0
   15.1075  -12.3281  -18.8667 O   0  0  0  0  0  0  0  0  0  0  0  0
   18.5596   -8.1842  -16.5138 N   0  0  0  0  0  0  0  0  0  0  0  0
   19.1278   -7.5797  -15.3348 C   0  0  1  0  0  0  0  0  0  0  0  0
   20.5183   -8.1471  -15.0847 C   0  0  0  0  0  0  0  0  0  0  0  0
   21.2283   -7.4943  -13.9775 C   0  0  0  0  0  0  0  0  0  0  0  0
   21.9030   -6.3195  -14.1601 C   0  0  0  0  0  0  0  0  0  0  0  0
   22.5714   -5.6962  -13.1154 C   0  0  0  0  0  0  0  0  0  0  0  0
   22.5601   -6.2684  -11.8601 C   0  0  0  0  0  0  0  0  0  0  0  0
   21.8804   -7.4533  -11.6737 C   0  0  0  0  0  0  0  0  0  0  0  0
   21.2166   -8.0651  -12.7276 C   0  0  0  0  0  0  0  0  0  0  0  0
   19.1356   -6.1200  -15.4349 C   0  0  0  0  0  0  0  0  0  0  0  0
   19.1334   -5.3782  -14.2388 O   0  0  0  0  0  0  0  0  0  0  0  0
   19.1442   -5.4675  -16.4933 O   0  0  0  0  0  0  0  0  0  0  0  0
  2  1  1  0
  3  2  1  0
  4  3  1  0
  4  5  1  0
  5  6  1  6
  7  5  1  0
  7  8  2  0
  9  7  1  0
 10  9  1  0
 10 11  1  1
 12 11  1  0
 12 16  1  0
 13 12  2  0
 14 10  1  0
 15 14  2  0
 17 14  1  0
 18 17  1  0
 18 26  1  0
 19 20  1  0
 18 19  1  6
 20 25  2  0
 21 22  2  0
 21 20  1  0
 22 23  1  0
 23 24  2  0
 25 24  1  0
 26 27  1  0
 28 26  2  0
M  END
$$$$
