TQK.pdb
     RDKit          3D

 26 25  0  0  1  0  0  0  0  0999 V2000
    5.8309  -18.5402   22.6859 C   0  0  0  0  0  0  0  0  0  0  0  0
    6.5811  -18.2582   21.4310 C   0  0  1  0  0  0  0  0  0  0  0  0
    5.9115  -18.8744   20.3584 O   0  0  0  0  0  0  0  0  0  0  0  0
    6.8212  -16.8169   21.1413 C   0  0  2  0  0  0  0  0  0  0  0  0
    7.3581  -16.5496   19.8528 N   0  0  0  0  0  0  0  0  0  0  0  0
    7.6235  -16.2462   22.2498 C   0  0  0  0  0  0  0  0  0  0  0  0
    8.8476  -16.5292   22.2802 O   0  0  0  0  0  0  0  0  0  0  0  0
    5.5681  -12.1142   26.3215 N   0  0  0  0  0  0  0  0  0  0  0  0
    6.8021  -12.3559   26.9579 C   0  0  0  0  0  0  0  0  0  0  0  0
    7.1517  -11.7141   27.9588 O   0  0  0  0  0  0  0  0  0  0  0  0
    7.6818  -13.4267   26.3734 C   0  0  0  0  0  0  0  0  0  0  0  0
    7.0735  -13.8938   25.0752 C   0  0  0  0  0  0  0  0  0  0  0  0
    7.8576  -14.9753   24.4278 C   0  0  2  0  0  0  0  0  0  0  0  0
    7.1069  -15.4179   23.2572 N   0  0  0  0  0  0  0  0  0  0  0  0
    8.2055  -16.1252   25.2988 C   0  0  0  0  0  0  0  0  0  0  0  0
    7.2960  -16.8145   25.8142 O   0  0  0  0  0  0  0  0  0  0  0  0
    9.5456  -16.4876   25.5807 N   0  0  0  0  0  0  0  0  0  0  0  0
    9.9909  -17.5032   26.5008 C   0  0  1  0  0  0  0  0  0  0  0  0
   10.8423  -18.5389   25.8623 C   0  0  0  0  0  0  0  0  0  0  0  0
   10.2925  -19.1902   24.6346 C   0  0  0  0  0  0  0  0  0  0  0  0
   11.2781  -20.1531   23.9998 C   0  0  0  0  0  0  0  0  0  0  0  0
   10.7241  -20.6723   22.6690 C   0  0  0  0  0  0  0  0  0  0  0  0
   11.7123  -21.4687   22.0067 N   0  0  0  0  0  0  0  0  0  0  0  0
   10.5044  -16.9479   27.7692 C   0  0  0  0  0  0  0  0  0  0  0  0
   10.6817  -15.5964   27.9093 O   0  0  0  0  0  0  0  0  0  0  0  0
   10.7792  -17.7010   28.7168 O   0  0  0  0  0  0  0  0  0  0  0  0
  2  1  1  1
  3  2  1  0
  4  2  1  0
  4  6  1  0
  4  5  1  6
  6  7  2  0
  8  9  1  0
  9 11  1  0
  9 10  2  0
 11 12  1  0
 13 12  1  1
 14  6  1  0
 14 13  1  0
 15 13  1  0
 15 16  2  0
 17 15  1  0
 18 17  1  0
 18 24  1  0
 18 19  1  6
 20 19  1  0
 21 20  1  0
 22 21  1  0
 23 22  1  0
 24 25  1  0
 26 24  2  0
M  END
$$$$
