TQK.pdb
     RDKit          3D

 26 25  0  0  1  0  0  0  0  0999 V2000
    8.1487  -19.1414   19.5387 C   0  0  0  0  0  0  0  0  0  0  0  0
    9.2116  -19.4407   18.5399 C   0  0  1  0  0  0  0  0  0  0  0  0
    8.7022  -20.3565   17.6015 O   0  0  0  0  0  0  0  0  0  0  0  0
    9.7938  -18.2543   17.8526 C   0  0  2  0  0  0  0  0  0  0  0  0
   10.7645  -18.5577   16.8597 N   0  0  0  0  0  0  0  0  0  0  0  0
   10.2766  -17.3074   18.8863 C   0  0  0  0  0  0  0  0  0  0  0  0
   11.4037  -17.5340   19.3939 O   0  0  0  0  0  0  0  0  0  0  0  0
    7.7640  -11.8469   20.1903 N   0  0  0  0  0  0  0  0  0  0  0  0
    7.2700  -12.8826   19.3719 C   0  0  0  0  0  0  0  0  0  0  0  0
    6.2438  -12.7379   18.6923 O   0  0  0  0  0  0  0  0  0  0  0  0
    8.0391  -14.1750   19.3550 C   0  0  0  0  0  0  0  0  0  0  0  0
    9.1894  -14.0633   20.3235 C   0  0  0  0  0  0  0  0  0  0  0  0
    9.9854  -15.3126   20.4192 C   0  0  2  0  0  0  0  0  0  0  0  0
    9.5610  -16.1850   19.3289 N   0  0  0  0  0  0  0  0  0  0  0  0
    9.9144  -16.0207   21.7213 C   0  0  0  0  0  0  0  0  0  0  0  0
    8.9020  -16.6996   22.0073 O   0  0  0  0  0  0  0  0  0  0  0  0
   10.9595  -15.9637   22.6758 N   0  0  0  0  0  0  0  0  0  0  0  0
   11.2492  -16.9361   23.6991 C   0  0  1  0  0  0  0  0  0  0  0  0
   11.2390  -18.3339   23.1979 C   0  0  0  0  0  0  0  0  0  0  0  0
   11.5049  -19.4055   24.2052 C   0  0  0  0  0  0  0  0  0  0  0  0
   11.4510  -20.7953   23.5993 C   0  0  0  0  0  0  0  0  0  0  0  0
   11.7572  -21.8483   24.6693 C   0  0  0  0  0  0  0  0  0  0  0  0
   11.7304  -23.1564   24.0882 N   0  0  0  0  0  0  0  0  0  0  0  0
   12.4090  -16.5662   24.5350 C   0  0  0  0  0  0  0  0  0  0  0  0
   13.2288  -15.5342   24.1603 O   0  0  0  0  0  0  0  0  0  0  0  0
   12.6497  -17.1874   25.5824 O   0  0  0  0  0  0  0  0  0  0  0  0
  2  1  1  1
  3  2  1  0
  4  2  1  0
  4  6  1  0
  4  5  1  6
  6  7  2  0
  8  9  1  0
  9 11  1  0
  9 10  2  0
 11 12  1  0
 13 12  1  1
 14  6  1  0
 14 13  1  0
 15 13  1  0
 15 16  2  0
 17 15  1  0
 18 17  1  0
 18 24  1  0
 18 19  1  6
 20 19  1  0
 21 20  1  0
 22 21  1  0
 23 22  1  0
 24 25  1  0
 26 24  2  0
M  END
$$$$
