TQK.pdb
     RDKit          3D

 26 25  0  0  1  0  0  0  0  0999 V2000
    8.2258  -20.0599   15.7558 C   0  0  0  0  0  0  0  0  0  0  0  0
    8.7904  -19.2089   16.8393 C   0  0  1  0  0  0  0  0  0  0  0  0
    9.6048  -20.0087   17.6614 O   0  0  0  0  0  0  0  0  0  0  0  0
    9.5326  -18.0014   16.3810 C   0  0  2  0  0  0  0  0  0  0  0  0
   10.6153  -18.2666   15.4993 N   0  0  0  0  0  0  0  0  0  0  0  0
    9.9178  -17.2104   17.5744 C   0  0  0  0  0  0  0  0  0  0  0  0
   11.1239  -17.2473   17.9255 O   0  0  0  0  0  0  0  0  0  0  0  0
    6.4507  -12.9335   20.2716 N   0  0  0  0  0  0  0  0  0  0  0  0
    7.4484  -12.9603   21.2667 C   0  0  0  0  0  0  0  0  0  0  0  0
    7.4320  -12.1715   22.2223 O   0  0  0  0  0  0  0  0  0  0  0  0
    8.5381  -13.9872   21.1237 C   0  0  0  0  0  0  0  0  0  0  0  0
    8.2926  -14.7771   19.8629 C   0  0  0  0  0  0  0  0  0  0  0  0
    9.3803  -15.7431   19.5674 C   0  0  2  0  0  0  0  0  0  0  0  0
    9.0287  -16.4308   18.3292 N   0  0  0  0  0  0  0  0  0  0  0  0
    9.6843  -16.7167   20.6451 C   0  0  0  0  0  0  0  0  0  0  0  0
    8.9964  -17.7568   20.7578 O   0  0  0  0  0  0  0  0  0  0  0  0
   10.7378  -16.5212   21.5717 N   0  0  0  0  0  0  0  0  0  0  0  0
   11.1032  -17.3909   22.6609 C   0  0  1  0  0  0  0  0  0  0  0  0
   12.4960  -17.8969   22.5639 C   0  0  0  0  0  0  0  0  0  0  0  0
   12.9141  -18.8999   23.5900 C   0  0  0  0  0  0  0  0  0  0  0  0
   14.3179  -19.4228   23.3496 C   0  0  0  0  0  0  0  0  0  0  0  0
   14.6371  -20.5483   24.3388 C   0  0  0  0  0  0  0  0  0  0  0  0
   15.9316  -21.0916   24.0584 N   0  0  0  0  0  0  0  0  0  0  0  0
   10.7075  -16.8603   23.9810 C   0  0  0  0  0  0  0  0  0  0  0  0
   10.6383  -17.6929   25.0670 O   0  0  0  0  0  0  0  0  0  0  0  0
   10.4346  -15.6570   24.1161 O   0  0  0  0  0  0  0  0  0  0  0  0
  2  1  1  6
  3  2  1  0
  4  2  1  0
  4  6  1  0
  4  5  1  1
  6  7  2  0
  8  9  1  0
  9 11  1  0
  9 10  2  0
 11 12  1  0
 13 12  1  1
 14  6  1  0
 14 13  1  0
 15 13  1  0
 15 16  2  0
 17 15  1  0
 18 17  1  0
 18 24  1  0
 18 19  1  1
 20 19  1  0
 21 20  1  0
 22 21  1  0
 23 22  1  0
 24 25  1  0
 26 24  2  0
M  END
$$$$
