TQK.pdb
     RDKit          3D

 26 25  0  0  1  0  0  0  0  0999 V2000
    9.3290  -14.9580   17.5304 C   0  0  0  0  0  0  0  0  0  0  0  0
    8.9451  -15.0410   18.9666 C   0  0  1  0  0  0  0  0  0  0  0  0
    9.9054  -14.3521   19.7295 O   0  0  0  0  0  0  0  0  0  0  0  0
    7.5735  -14.5580   19.2895 C   0  0  2  0  0  0  0  0  0  0  0  0
    7.3148  -13.2096   18.9217 N   0  0  0  0  0  0  0  0  0  0  0  0
    7.3019  -14.8471   20.7181 C   0  0  0  0  0  0  0  0  0  0  0  0
    7.4190  -13.8958   21.5309 O   0  0  0  0  0  0  0  0  0  0  0  0
    7.2149  -20.4021   23.2474 N   0  0  0  0  0  0  0  0  0  0  0  0
    6.6779  -19.7349   24.3666 C   0  0  0  0  0  0  0  0  0  0  0  0
    6.4003  -20.3415   25.4110 O   0  0  0  0  0  0  0  0  0  0  0  0
    6.4539  -18.2526   24.2443 C   0  0  0  0  0  0  0  0  0  0  0  0
    6.8080  -17.8265   22.8419 C   0  0  0  0  0  0  0  0  0  0  0  0
    6.5965  -16.3756   22.6101 C   0  0  2  0  0  0  0  0  0  0  0  0
    6.9260  -16.1041   21.2146 N   0  0  0  0  0  0  0  0  0  0  0  0
    7.3407  -15.4658   23.5158 C   0  0  0  0  0  0  0  0  0  0  0  0
    7.1876  -14.2269   23.4186 O   0  0  0  0  0  0  0  0  0  0  0  0
    8.2348  -15.9424   24.5058 N   0  0  0  0  0  0  0  0  0  0  0  0
    8.7070  -15.2235   25.6619 C   0  0  1  0  0  0  0  0  0  0  0  0
    7.6149  -14.5894   26.4433 C   0  0  0  0  0  0  0  0  0  0  0  0
    7.2597  -13.1853   26.0747 C   0  0  0  0  0  0  0  0  0  0  0  0
    6.1379  -12.6285   26.9310 C   0  0  0  0  0  0  0  0  0  0  0  0
    5.8542  -11.1730   26.5458 C   0  0  0  0  0  0  0  0  0  0  0  0
    4.7595  -10.6685   27.3182 N   0  0  0  0  0  0  0  0  0  0  0  0
    9.6969  -15.9847   26.4503 C   0  0  0  0  0  0  0  0  0  0  0  0
    9.6765  -17.3548   26.4461 O   0  0  0  0  0  0  0  0  0  0  0  0
   10.5540  -15.3892   27.1223 O   0  0  0  0  0  0  0  0  0  0  0  0
  2  1  1  6
  3  2  1  0
  4  2  1  0
  4  6  1  0
  4  5  1  1
  6  7  2  0
  8  9  1  0
  9 11  1  0
  9 10  2  0
 11 12  1  0
 13 12  1  1
 14  6  1  0
 14 13  1  0
 15 13  1  0
 15 16  2  0
 17 15  1  0
 18 17  1  0
 18 24  1  0
 18 19  1  1
 20 19  1  0
 21 20  1  0
 22 21  1  0
 23 22  1  0
 24 25  1  0
 26 24  2  0
M  END
$$$$
