TQK.pdb
     RDKit          3D

 26 25  0  0  1  0  0  0  0  0999 V2000
   10.3075  -12.8883   17.6265 C   0  0  0  0  0  0  0  0  0  0  0  0
    9.8425  -13.5877   18.8560 C   0  0  1  0  0  0  0  0  0  0  0  0
    9.7880  -12.6572   19.9095 O   0  0  0  0  0  0  0  0  0  0  0  0
    8.5468  -14.3111   18.7273 C   0  0  2  0  0  0  0  0  0  0  0  0
    7.4406  -13.4931   18.3706 N   0  0  0  0  0  0  0  0  0  0  0  0
    8.3287  -15.0999   19.9636 C   0  0  0  0  0  0  0  0  0  0  0  0
    7.4449  -14.6923   20.7587 O   0  0  0  0  0  0  0  0  0  0  0  0
   11.0257  -20.5014   21.1518 N   0  0  0  0  0  0  0  0  0  0  0  0
   10.4146  -20.3596   22.4138 C   0  0  0  0  0  0  0  0  0  0  0  0
   10.5530  -21.2142   23.3006 O   0  0  0  0  0  0  0  0  0  0  0  0
    9.5847  -19.1265   22.6439 C   0  0  0  0  0  0  0  0  0  0  0  0
    9.6029  -18.2928   21.3876 C   0  0  0  0  0  0  0  0  0  0  0  0
    8.8445  -17.0244   21.5269 C   0  0  2  0  0  0  0  0  0  0  0  0
    9.0402  -16.2616   20.2982 N   0  0  0  0  0  0  0  0  0  0  0  0
    9.1789  -16.2042   22.7175 C   0  0  0  0  0  0  0  0  0  0  0  0
   10.2708  -15.5933   22.7669 O   0  0  0  0  0  0  0  0  0  0  0  0
    8.3033  -16.0770   23.8236 N   0  0  0  0  0  0  0  0  0  0  0  0
    8.4151  -15.1379   24.9108 C   0  0  1  0  0  0  0  0  0  0  0  0
    7.2319  -14.2502   25.0416 C   0  0  0  0  0  0  0  0  0  0  0  0
    7.2814  -13.2291   26.1318 C   0  0  0  0  0  0  0  0  0  0  0  0
    6.3920  -12.0338   25.8458 C   0  0  0  0  0  0  0  0  0  0  0  0
    6.5144  -11.0045   26.9741 C   0  0  0  0  0  0  0  0  0  0  0  0
    5.6843   -9.8724   26.6938 N   0  0  0  0  0  0  0  0  0  0  0  0
    8.8882  -15.7595   26.1641 C   0  0  0  0  0  0  0  0  0  0  0  0
    8.8884  -17.1228   26.3012 O   0  0  0  0  0  0  0  0  0  0  0  0
    9.2887  -15.0518   27.1019 O   0  0  0  0  0  0  0  0  0  0  0  0
  2  1  1  6
  3  2  1  0
  4  2  1  0
  4  6  1  0
  4  5  1  1
  6  7  2  0
  8  9  1  0
  9 11  1  0
  9 10  2  0
 11 12  1  0
 13 12  1  6
 14  6  1  0
 14 13  1  0
 15 13  1  0
 15 16  2  0
 17 15  1  0
 18 17  1  0
 18 24  1  0
 18 19  1  1
 20 19  1  0
 21 20  1  0
 22 21  1  0
 23 22  1  0
 24 25  1  0
 26 24  2  0
M  END
$$$$
