TQK.pdb
     RDKit          3D

 26 25  0  0  1  0  0  0  0  0999 V2000
    7.3387  -12.3375   19.3286 C   0  0  0  0  0  0  0  0  0  0  0  0
    8.5421  -13.2044   19.4609 C   0  0  1  0  0  0  0  0  0  0  0  0
    8.2700  -14.2107   20.4054 O   0  0  0  0  0  0  0  0  0  0  0  0
    9.0430  -13.7989   18.1903 C   0  0  2  0  0  0  0  0  0  0  0  0
    8.0744  -14.5330   17.4534 N   0  0  0  0  0  0  0  0  0  0  0  0
   10.2726  -14.5713   18.4903 C   0  0  0  0  0  0  0  0  0  0  0  0
   10.1918  -15.8245   18.4420 O   0  0  0  0  0  0  0  0  0  0  0  0
   15.7962  -13.2267   16.8667 N   0  0  0  0  0  0  0  0  0  0  0  0
   16.2270  -14.1114   17.8757 C   0  0  0  0  0  0  0  0  0  0  0  0
   17.4304  -14.3309   18.0747 O   0  0  0  0  0  0  0  0  0  0  0  0
   15.1660  -14.7813   18.7050 C   0  0  0  0  0  0  0  0  0  0  0  0
   13.8322  -14.1620   18.3718 C   0  0  0  0  0  0  0  0  0  0  0  0
   12.7122  -14.7558   19.1442 C   0  0  2  0  0  0  0  0  0  0  0  0
   11.5085  -13.9964   18.8214 N   0  0  0  0  0  0  0  0  0  0  0  0
   12.9133  -14.8293   20.6125 C   0  0  0  0  0  0  0  0  0  0  0  0
   13.0532  -13.7767   21.2761 O   0  0  0  0  0  0  0  0  0  0  0  0
   12.9553  -16.0594   21.3137 N   0  0  0  0  0  0  0  0  0  0  0  0
   13.1417  -16.2403   22.7311 C   0  0  1  0  0  0  0  0  0  0  0  0
   12.4996  -17.4734   23.2531 C   0  0  0  0  0  0  0  0  0  0  0  0
   12.7290  -17.7847   24.6968 C   0  0  0  0  0  0  0  0  0  0  0  0
   12.1898  -19.1479   25.0875 C   0  0  0  0  0  0  0  0  0  0  0  0
   12.3042  -19.3449   26.6025 C   0  0  0  0  0  0  0  0  0  0  0  0
   11.6282  -20.5456   26.9907 N   0  0  0  0  0  0  0  0  0  0  0  0
   14.5355  -16.0143   23.1635 C   0  0  0  0  0  0  0  0  0  0  0  0
   14.7973  -15.3029   24.3049 O   0  0  0  0  0  0  0  0  0  0  0  0
   15.4794  -16.4669   22.4964 O   0  0  0  0  0  0  0  0  0  0  0  0
  2  1  1  6
  3  2  1  0
  4  2  1  0
  4  6  1  0
  4  5  1  1
  6  7  2  0
  8  9  1  0
  9 11  1  0
  9 10  2  0
 11 12  1  0
 13 12  1  6
 14  6  1  0
 14 13  1  0
 15 13  1  0
 15 16  2  0
 17 15  1  0
 18 17  1  0
 18 24  1  0
 18 19  1  6
 20 19  1  0
 21 20  1  0
 22 21  1  0
 23 22  1  0
 24 25  1  0
 26 24  2  0
M  END
$$$$
