TQK.pdb
     RDKit          3D

 26 25  0  0  1  0  0  0  0  0999 V2000
   14.1508  -16.9565   20.8418 C   0  0  0  0  0  0  0  0  0  0  0  0
   13.2055  -16.9150   19.6921 C   0  0  1  0  0  0  0  0  0  0  0  0
   13.9419  -16.7099   18.5113 O   0  0  0  0  0  0  0  0  0  0  0  0
   12.3145  -18.1010   19.5555 C   0  0  2  0  0  0  0  0  0  0  0  0
   11.5363  -18.1276   18.3665 N   0  0  0  0  0  0  0  0  0  0  0  0
   11.5107  -18.2251   20.7951 C   0  0  0  0  0  0  0  0  0  0  0  0
   10.4431  -17.5649   20.8581 O   0  0  0  0  0  0  0  0  0  0  0  0
   10.4813  -23.2992   23.5335 N   0  0  0  0  0  0  0  0  0  0  0  0
    9.6901  -22.7450   22.5073 C   0  0  0  0  0  0  0  0  0  0  0  0
    8.8896  -23.4362   21.8612 O   0  0  0  0  0  0  0  0  0  0  0  0
    9.8552  -21.2769   22.2253 C   0  0  0  0  0  0  0  0  0  0  0  0
   10.8358  -20.7036   23.2170 C   0  0  0  0  0  0  0  0  0  0  0  0
   11.0205  -19.2387   23.0636 C   0  0  2  0  0  0  0  0  0  0  0  0
   11.8637  -19.0256   21.8917 N   0  0  0  0  0  0  0  0  0  0  0  0
   11.5720  -18.5339   24.2472 C   0  0  0  0  0  0  0  0  0  0  0  0
   12.8059  -18.5442   24.4599 O   0  0  0  0  0  0  0  0  0  0  0  0
   10.7517  -17.8356   25.1670 N   0  0  0  0  0  0  0  0  0  0  0  0
   11.1743  -17.1869   26.3823 C   0  0  1  0  0  0  0  0  0  0  0  0
   10.3058  -16.0463   26.7695 C   0  0  0  0  0  0  0  0  0  0  0  0
   10.6241  -15.3762   28.0669 C   0  0  0  0  0  0  0  0  0  0  0  0
    9.7010  -14.2074   28.3561 C   0  0  0  0  0  0  0  0  0  0  0  0
   10.0378  -13.5954   29.7197 C   0  0  0  0  0  0  0  0  0  0  0  0
    9.1633  -12.4946   29.9898 N   0  0  0  0  0  0  0  0  0  0  0  0
   11.4960  -18.1400   27.4635 C   0  0  0  0  0  0  0  0  0  0  0  0
   12.5071  -17.8662   28.3468 O   0  0  0  0  0  0  0  0  0  0  0  0
   10.8531  -19.1954   27.5799 O   0  0  0  0  0  0  0  0  0  0  0  0
  2  1  1  1
  3  2  1  0
  4  2  1  0
  4  6  1  0
  4  5  1  6
  6  7  2  0
  8  9  1  0
  9 11  1  0
  9 10  2  0
 11 12  1  0
 13 12  1  1
 14  6  1  0
 14 13  1  0
 15 13  1  0
 15 16  2  0
 17 15  1  0
 18 17  1  0
 18 24  1  0
 18 19  1  1
 20 19  1  0
 21 20  1  0
 22 21  1  0
 23 22  1  0
 24 25  1  0
 26 24  2  0
M  END
$$$$
