TQK.pdb
     RDKit          3D

 26 25  0  0  1  0  0  0  0  0999 V2000
   10.6335  -15.0193   19.0528 C   0  0  0  0  0  0  0  0  0  0  0  0
    9.9075  -13.7293   18.8921 C   0  0  1  0  0  0  0  0  0  0  0  0
   10.2594  -13.1665   17.6518 O   0  0  0  0  0  0  0  0  0  0  0  0
    8.4265  -13.8090   19.0309 C   0  0  2  0  0  0  0  0  0  0  0  0
    7.7349  -12.6025   18.7372 N   0  0  0  0  0  0  0  0  0  0  0  0
    8.1132  -14.3629   20.3700 C   0  0  0  0  0  0  0  0  0  0  0  0
    8.1349  -13.5669   21.3423 O   0  0  0  0  0  0  0  0  0  0  0  0
    5.8293  -19.9893   21.2959 N   0  0  0  0  0  0  0  0  0  0  0  0
    5.8471  -19.6100   22.6531 C   0  0  0  0  0  0  0  0  0  0  0  0
    5.3967  -20.3506   23.5389 O   0  0  0  0  0  0  0  0  0  0  0  0
    6.4360  -18.2668   22.9866 C   0  0  0  0  0  0  0  0  0  0  0  0
    6.8170  -17.5759   21.7015 C   0  0  0  0  0  0  0  0  0  0  0  0
    7.4269  -16.2411   21.9241 C   0  0  2  0  0  0  0  0  0  0  0  0
    7.7971  -15.7070   20.6174 N   0  0  0  0  0  0  0  0  0  0  0  0
    8.5825  -16.2106   22.8545 C   0  0  0  0  0  0  0  0  0  0  0  0
    9.7256  -16.5078   22.4388 O   0  0  0  0  0  0  0  0  0  0  0  0
    8.4509  -15.8538   24.2191 N   0  0  0  0  0  0  0  0  0  0  0  0
    9.5121  -15.7289   25.1859 C   0  0  1  0  0  0  0  0  0  0  0  0
    9.0608  -15.1561   26.4795 C   0  0  0  0  0  0  0  0  0  0  0  0
   10.1001  -15.0125   27.5440 C   0  0  0  0  0  0  0  0  0  0  0  0
    9.5555  -14.3578   28.7996 C   0  0  0  0  0  0  0  0  0  0  0  0
   10.6677  -14.2151   29.8436 C   0  0  0  0  0  0  0  0  0  0  0  0
   10.1963  -13.4482   30.9568 N   0  0  0  0  0  0  0  0  0  0  0  0
   10.3507  -16.9406   25.2823 C   0  0  0  0  0  0  0  0  0  0  0  0
    9.7683  -18.1772   25.3786 O   0  0  0  0  0  0  0  0  0  0  0  0
   11.5884  -16.8477   25.2769 O   0  0  0  0  0  0  0  0  0  0  0  0
  2  1  1  6
  3  2  1  0
  4  2  1  0
  4  6  1  0
  4  5  1  1
  6  7  2  0
  8  9  1  0
  9 11  1  0
  9 10  2  0
 11 12  1  0
 13 12  1  6
 14  6  1  0
 14 13  1  0
 15 13  1  0
 15 16  2  0
 17 15  1  0
 18 17  1  0
 18 24  1  0
 18 19  1  1
 20 19  1  0
 21 20  1  0
 22 21  1  0
 23 22  1  0
 24 25  1  0
 26 24  2  0
M  END
$$$$
