TQK.pdb
     RDKit          3D

 26 25  0  0  1  0  0  0  0  0999 V2000
    9.0027  -12.5201   20.3783 C   0  0  0  0  0  0  0  0  0  0  0  0
    8.0908  -13.2530   19.4571 C   0  0  1  0  0  0  0  0  0  0  0  0
    6.9759  -12.4392   19.1862 O   0  0  0  0  0  0  0  0  0  0  0  0
    8.7122  -13.7304   18.1904 C   0  0  2  0  0  0  0  0  0  0  0  0
    7.8203  -14.3873   17.2999 N   0  0  0  0  0  0  0  0  0  0  0  0
    9.9098  -14.5346   18.5330 C   0  0  0  0  0  0  0  0  0  0  0  0
    9.7692  -15.7822   18.5893 O   0  0  0  0  0  0  0  0  0  0  0  0
   15.3757  -13.4821   16.5992 N   0  0  0  0  0  0  0  0  0  0  0  0
   15.8205  -14.3905   17.5806 C   0  0  0  0  0  0  0  0  0  0  0  0
   17.0082  -14.7369   17.6523 O   0  0  0  0  0  0  0  0  0  0  0  0
   14.7943  -14.9254   18.5414 C   0  0  0  0  0  0  0  0  0  0  0  0
   13.4714  -14.2625   18.2510 C   0  0  0  0  0  0  0  0  0  0  0  0
   12.3668  -14.7880   19.0919 C   0  0  2  0  0  0  0  0  0  0  0  0
   11.1778  -13.9953   18.7958 N   0  0  0  0  0  0  0  0  0  0  0  0
   12.6310  -14.8201   20.5517 C   0  0  0  0  0  0  0  0  0  0  0  0
   13.0664  -13.7979   21.1291 O   0  0  0  0  0  0  0  0  0  0  0  0
   12.4093  -15.9764   21.3394 N   0  0  0  0  0  0  0  0  0  0  0  0
   12.7526  -16.1553   22.7274 C   0  0  1  0  0  0  0  0  0  0  0  0
   12.0773  -17.3213   23.3517 C   0  0  0  0  0  0  0  0  0  0  0  0
   12.3970  -17.5872   24.7873 C   0  0  0  0  0  0  0  0  0  0  0  0
   11.6018  -18.7495   25.3514 C   0  0  0  0  0  0  0  0  0  0  0  0
   11.8034  -18.8387   26.8676 C   0  0  0  0  0  0  0  0  0  0  0  0
   11.1233  -19.9881   27.3833 N   0  0  0  0  0  0  0  0  0  0  0  0
   14.2031  -16.0462   22.9820 C   0  0  0  0  0  0  0  0  0  0  0  0
   15.0960  -16.7113   22.1834 O   0  0  0  0  0  0  0  0  0  0  0  0
   14.6237  -15.3517   23.9209 O   0  0  0  0  0  0  0  0  0  0  0  0
  2  1  1  6
  3  2  1  0
  4  2  1  0
  4  6  1  0
  4  5  1  1
  6  7  2  0
  8  9  1  0
  9 11  1  0
  9 10  2  0
 11 12  1  0
 13 12  1  6
 14  6  1  0
 14 13  1  0
 15 13  1  0
 15 16  2  0
 17 15  1  0
 18 17  1  0
 18 24  1  0
 18 19  1  6
 20 19  1  0
 21 20  1  0
 22 21  1  0
 23 22  1  0
 24 25  1  0
 26 24  2  0
M  END
$$$$
