TQK.pdb
     RDKit          3D

 26 25  0  0  1  0  0  0  0  0999 V2000
    8.4161  -20.1475   19.8151 C   0  0  0  0  0  0  0  0  0  0  0  0
    9.4421  -20.0708   18.7387 C   0  0  1  0  0  0  0  0  0  0  0  0
    9.1987  -21.0998   17.8110 O   0  0  0  0  0  0  0  0  0  0  0  0
    9.5450  -18.7550   18.0480 C   0  0  2  0  0  0  0  0  0  0  0  0
   10.3641  -18.7545   16.8864 N   0  0  0  0  0  0  0  0  0  0  0  0
    9.9325  -17.7323   19.0491 C   0  0  0  0  0  0  0  0  0  0  0  0
   11.1137  -17.7633   19.4770 O   0  0  0  0  0  0  0  0  0  0  0  0
    6.9030  -12.5022   20.0134 N   0  0  0  0  0  0  0  0  0  0  0  0
    7.3946  -13.0072   18.7929 C   0  0  0  0  0  0  0  0  0  0  0  0
    7.0470  -12.5254   17.7052 O   0  0  0  0  0  0  0  0  0  0  0  0
    8.3609  -14.1577   18.8614 C   0  0  0  0  0  0  0  0  0  0  0  0
    8.5272  -14.5613   20.3047 C   0  0  0  0  0  0  0  0  0  0  0  0
    9.4683  -15.6957   20.4809 C   0  0  2  0  0  0  0  0  0  0  0  0
    9.0713  -16.7416   19.5438 N   0  0  0  0  0  0  0  0  0  0  0  0
    9.5741  -16.2335   21.8599 C   0  0  0  0  0  0  0  0  0  0  0  0
    8.6813  -16.9909   22.3038 O   0  0  0  0  0  0  0  0  0  0  0  0
   10.6598  -15.9241   22.7156 N   0  0  0  0  0  0  0  0  0  0  0  0
   11.3549  -16.8321   23.5924 C   0  0  1  0  0  0  0  0  0  0  0  0
   11.6754  -18.1334   22.9528 C   0  0  0  0  0  0  0  0  0  0  0  0
   12.1410  -19.2257   23.8603 C   0  0  0  0  0  0  0  0  0  0  0  0
   12.3943  -20.5250   23.1191 C   0  0  0  0  0  0  0  0  0  0  0  0
   12.8614  -21.6072   24.0980 C   0  0  0  0  0  0  0  0  0  0  0  0
   13.1695  -22.8098   23.3851 N   0  0  0  0  0  0  0  0  0  0  0  0
   12.4649  -16.1905   24.3252 C   0  0  0  0  0  0  0  0  0  0  0  0
   12.6262  -16.4140   25.6675 O   0  0  0  0  0  0  0  0  0  0  0  0
   13.2594  -15.4446   23.7309 O   0  0  0  0  0  0  0  0  0  0  0  0
  2  1  1  1
  3  2  1  0
  4  2  1  0
  4  6  1  0
  4  5  1  6
  6  7  2  0
  8  9  1  0
  9 11  1  0
  9 10  2  0
 11 12  1  0
 13 12  1  1
 14  6  1  0
 14 13  1  0
 15 13  1  0
 15 16  2  0
 17 15  1  0
 18 17  1  0
 18 24  1  0
 18 19  1  6
 20 19  1  0
 21 20  1  0
 22 21  1  0
 23 22  1  0
 24 25  1  0
 26 24  2  0
M  END
$$$$
