TQK.pdb
     RDKit          3D

 26 25  0  0  1  0  0  0  0  0999 V2000
    6.9560  -12.4720   19.0315 C   0  0  0  0  0  0  0  0  0  0  0  0
    8.0489  -13.4114   19.4059 C   0  0  1  0  0  0  0  0  0  0  0  0
    7.5801  -14.2655   20.4205 O   0  0  0  0  0  0  0  0  0  0  0  0
    8.6259  -14.1997   18.2814 C   0  0  2  0  0  0  0  0  0  0  0  0
    7.6889  -14.9986   17.5715 N   0  0  0  0  0  0  0  0  0  0  0  0
    9.7886  -14.9626   18.7956 C   0  0  0  0  0  0  0  0  0  0  0  0
    9.6583  -16.2078   18.9043 O   0  0  0  0  0  0  0  0  0  0  0  0
   15.6871  -13.4468   18.4655 N   0  0  0  0  0  0  0  0  0  0  0  0
   15.8148  -14.7235   19.0485 C   0  0  0  0  0  0  0  0  0  0  0  0
   16.8818  -15.3524   19.0043 O   0  0  0  0  0  0  0  0  0  0  0  0
   14.6017  -15.2957   19.7292 C   0  0  0  0  0  0  0  0  0  0  0  0
   13.3766  -14.5953   19.1979 C   0  0  0  0  0  0  0  0  0  0  0  0
   12.1158  -15.1172   19.7825 C   0  0  2  0  0  0  0  0  0  0  0  0
   11.0134  -14.3870   19.1649 N   0  0  0  0  0  0  0  0  0  0  0  0
   12.0235  -15.0618   21.2624 C   0  0  0  0  0  0  0  0  0  0  0  0
   12.8027  -14.3248   21.9085 O   0  0  0  0  0  0  0  0  0  0  0  0
   11.0758  -15.8189   21.9941 N   0  0  0  0  0  0  0  0  0  0  0  0
   11.3547  -16.8282   22.9840 C   0  0  1  0  0  0  0  0  0  0  0  0
   11.0460  -18.2045   22.5196 C   0  0  0  0  0  0  0  0  0  0  0  0
   11.4163  -19.3190   23.4441 C   0  0  0  0  0  0  0  0  0  0  0  0
   11.1399  -20.6846   22.8438 C   0  0  0  0  0  0  0  0  0  0  0  0
   11.6312  -21.7849   23.7900 C   0  0  0  0  0  0  0  0  0  0  0  0
   11.5341  -23.0603   23.1472 N   0  0  0  0  0  0  0  0  0  0  0  0
   12.6701  -16.6532   23.6320 C   0  0  0  0  0  0  0  0  0  0  0  0
   12.7470  -16.2789   24.9478 O   0  0  0  0  0  0  0  0  0  0  0  0
   13.7150  -16.8438   22.9896 O   0  0  0  0  0  0  0  0  0  0  0  0
  2  1  1  6
  3  2  1  0
  4  2  1  0
  4  6  1  0
  4  5  1  1
  6  7  2  0
  8  9  1  0
  9 11  1  0
  9 10  2  0
 11 12  1  0
 13 12  1  1
 14  6  1  0
 14 13  1  0
 15 13  1  0
 15 16  2  0
 17 15  1  0
 18 17  1  0
 18 24  1  0
 18 19  1  6
 20 19  1  0
 21 20  1  0
 22 21  1  0
 23 22  1  0
 24 25  1  0
 26 24  2  0
M  END
$$$$
