TQK.pdb
     RDKit          3D

 26 25  0  0  1  0  0  0  0  0999 V2000
   18.3034  -14.8302   15.2948 C   0  0  0  0  0  0  0  0  0  0  0  0
   17.3888  -14.7048   16.4631 C   0  0  1  0  0  0  0  0  0  0  0  0
   18.1317  -14.9087   17.6400 O   0  0  0  0  0  0  0  0  0  0  0  0
   16.6232  -13.4294   16.5401 C   0  0  2  0  0  0  0  0  0  0  0  0
   17.3988  -12.2558   16.3368 N   0  0  0  0  0  0  0  0  0  0  0  0
   15.8559  -13.4224   17.8087 C   0  0  0  0  0  0  0  0  0  0  0  0
   16.2098  -12.6012   18.6917 O   0  0  0  0  0  0  0  0  0  0  0  0
   12.2484  -17.8737   16.9240 N   0  0  0  0  0  0  0  0  0  0  0  0
   11.8640  -16.9334   17.9010 C   0  0  0  0  0  0  0  0  0  0  0  0
   10.6987  -16.5188   17.9783 O   0  0  0  0  0  0  0  0  0  0  0  0
   12.9265  -16.4508   18.8498 C   0  0  0  0  0  0  0  0  0  0  0  0
   12.7342  -14.9724   19.0762 C   0  0  0  0  0  0  0  0  0  0  0  0
   14.0103  -14.2575   19.3287 C   0  0  2  0  0  0  0  0  0  0  0  0
   14.7699  -14.2670   18.0826 N   0  0  0  0  0  0  0  0  0  0  0  0
   14.8282  -14.7812   20.4506 C   0  0  0  0  0  0  0  0  0  0  0  0
   14.3643  -14.7807   21.6136 O   0  0  0  0  0  0  0  0  0  0  0  0
   16.1362  -15.2923   20.2642 N   0  0  0  0  0  0  0  0  0  0  0  0
   16.9950  -15.8577   21.2737 C   0  0  1  0  0  0  0  0  0  0  0  0
   17.6664  -17.1083   20.8375 C   0  0  0  0  0  0  0  0  0  0  0  0
   18.6018  -17.7398   21.8174 C   0  0  0  0  0  0  0  0  0  0  0  0
   19.3174  -18.9461   21.2393 C   0  0  0  0  0  0  0  0  0  0  0  0
   20.2466  -19.5610   22.2909 C   0  0  0  0  0  0  0  0  0  0  0  0
   20.8419  -20.7569   21.7763 N   0  0  0  0  0  0  0  0  0  0  0  0
   17.8684  -14.8550   21.9161 C   0  0  0  0  0  0  0  0  0  0  0  0
   18.3354  -15.0601   23.1879 O   0  0  0  0  0  0  0  0  0  0  0  0
   18.1856  -13.8198   21.3090 O   0  0  0  0  0  0  0  0  0  0  0  0
  2  1  1  6
  3  2  1  0
  4  2  1  0
  4  6  1  0
  4  5  1  1
  6  7  2  0
  8  9  1  0
  9 11  1  0
  9 10  2  0
 11 12  1  0
 13 12  1  6
 14  6  1  0
 14 13  1  0
 15 13  1  0
 15 16  2  0
 17 15  1  0
 18 17  1  0
 18 24  1  0
 18 19  1  6
 20 19  1  0
 21 20  1  0
 22 21  1  0
 23 22  1  0
 24 25  1  0
 26 24  2  0
M  END
$$$$
