TQK.pdb
     RDKit          3D

 26 25  0  0  1  0  0  0  0  0999 V2000
    6.8334  -19.7612   18.2298 C   0  0  0  0  0  0  0  0  0  0  0  0
    7.7809  -19.9464   17.0962 C   0  0  1  0  0  0  0  0  0  0  0  0
    7.1823  -20.7899   16.1428 O   0  0  0  0  0  0  0  0  0  0  0  0
    8.2636  -18.6908   16.4564 C   0  0  2  0  0  0  0  0  0  0  0  0
    9.0891  -18.8828   15.3154 N   0  0  0  0  0  0  0  0  0  0  0  0
    8.8837  -17.8432   17.5029 C   0  0  0  0  0  0  0  0  0  0  0  0
   10.0745  -18.0939   17.8167 O   0  0  0  0  0  0  0  0  0  0  0  0
    6.6505  -12.5270   19.5799 N   0  0  0  0  0  0  0  0  0  0  0  0
    7.6626  -12.6501   20.5529 C   0  0  0  0  0  0  0  0  0  0  0  0
    7.8764  -11.7546   21.3825 O   0  0  0  0  0  0  0  0  0  0  0  0
    8.4763  -13.9151   20.5458 C   0  0  0  0  0  0  0  0  0  0  0  0
    8.0282  -14.7691   19.3867 C   0  0  0  0  0  0  0  0  0  0  0  0
    8.7936  -16.0361   19.2749 C   0  0  2  0  0  0  0  0  0  0  0  0
    8.2307  -16.7889   18.1586 N   0  0  0  0  0  0  0  0  0  0  0  0
    8.8413  -16.8675   20.5030 C   0  0  0  0  0  0  0  0  0  0  0  0
    8.1383  -17.9005   20.5841 O   0  0  0  0  0  0  0  0  0  0  0  0
    9.6614  -16.5412   21.6109 N   0  0  0  0  0  0  0  0  0  0  0  0
   10.3445  -17.4638   22.4819 C   0  0  1  0  0  0  0  0  0  0  0  0
   11.0095  -18.5737   21.7530 C   0  0  0  0  0  0  0  0  0  0  0  0
   11.6945  -19.6051   22.5900 C   0  0  0  0  0  0  0  0  0  0  0  0
   12.2753  -20.7329   21.7578 C   0  0  0  0  0  0  0  0  0  0  0  0
   12.8988  -21.7937   22.6707 C   0  0  0  0  0  0  0  0  0  0  0  0
   13.2913  -22.9329   21.8976 N   0  0  0  0  0  0  0  0  0  0  0  0
   11.1674  -16.7893   23.5059 C   0  0  0  0  0  0  0  0  0  0  0  0
   11.9686  -15.7325   23.1614 O   0  0  0  0  0  0  0  0  0  0  0  0
   11.1393  -17.1747   24.6855 O   0  0  0  0  0  0  0  0  0  0  0  0
  2  1  1  1
  3  2  1  0
  4  2  1  0
  4  6  1  0
  4  5  1  6
  6  7  2  0
  8  9  1  0
  9 11  1  0
  9 10  2  0
 11 12  1  0
 13 12  1  1
 14  6  1  0
 14 13  1  0
 15 13  1  0
 15 16  2  0
 17 15  1  0
 18 17  1  0
 18 24  1  0
 18 19  1  6
 20 19  1  0
 21 20  1  0
 22 21  1  0
 23 22  1  0
 24 25  1  0
 26 24  2  0
M  END
$$$$
