TQK.pdb
     RDKit          3D

 26 25  0  0  1  0  0  0  0  0999 V2000
    9.2499  -12.5387   20.1157 C   0  0  0  0  0  0  0  0  0  0  0  0
    8.2596  -13.0787   19.1438 C   0  0  1  0  0  0  0  0  0  0  0  0
    8.1209  -12.1617   18.0862 O   0  0  0  0  0  0  0  0  0  0  0  0
    8.5565  -14.4416   18.6210 C   0  0  2  0  0  0  0  0  0  0  0  0
    7.6461  -14.9135   17.6368 N   0  0  0  0  0  0  0  0  0  0  0  0
    8.7129  -15.3594   19.7749 C   0  0  0  0  0  0  0  0  0  0  0  0
    7.6896  -15.9778   20.1621 O   0  0  0  0  0  0  0  0  0  0  0  0
   13.2850  -19.0809   20.9992 N   0  0  0  0  0  0  0  0  0  0  0  0
   12.3832  -19.0958   19.9162 C   0  0  0  0  0  0  0  0  0  0  0  0
   12.5217  -19.8821   18.9684 O   0  0  0  0  0  0  0  0  0  0  0  0
   11.2419  -18.1171   19.9553 C   0  0  0  0  0  0  0  0  0  0  0  0
   11.3380  -17.3161   21.2292 C   0  0  0  0  0  0  0  0  0  0  0  0
   10.0989  -16.5543   21.5256 C   0  0  2  0  0  0  0  0  0  0  0  0
    9.9200  -15.5786   20.4551 N   0  0  0  0  0  0  0  0  0  0  0  0
   10.0529  -15.8956   22.8545 C   0  0  0  0  0  0  0  0  0  0  0  0
   10.9140  -15.0379   23.1553 O   0  0  0  0  0  0  0  0  0  0  0  0
    9.0603  -16.1976   23.8189 N   0  0  0  0  0  0  0  0  0  0  0  0
    8.9008  -15.5882   25.1149 C   0  0  1  0  0  0  0  0  0  0  0  0
    7.5536  -14.9989   25.3227 C   0  0  0  0  0  0  0  0  0  0  0  0
    7.4973  -13.5197   25.5288 C   0  0  0  0  0  0  0  0  0  0  0  0
    6.1231  -13.0485   25.9662 C   0  0  0  0  0  0  0  0  0  0  0  0
    6.1390  -11.5365   26.2132 C   0  0  0  0  0  0  0  0  0  0  0  0
    4.8210  -11.0813   26.5376 N   0  0  0  0  0  0  0  0  0  0  0  0
    9.4046  -16.4333   26.2161 C   0  0  0  0  0  0  0  0  0  0  0  0
    9.6371  -15.8899   27.4523 O   0  0  0  0  0  0  0  0  0  0  0  0
    9.6210  -17.6413   26.0300 O   0  0  0  0  0  0  0  0  0  0  0  0
  2  1  1  1
  3  2  1  0
  4  2  1  0
  4  6  1  0
  4  5  1  6
  6  7  2  0
  8  9  1  0
  9 11  1  0
  9 10  2  0
 11 12  1  0
 13 12  1  6
 14  6  1  0
 14 13  1  0
 15 13  1  0
 15 16  2  0
 17 15  1  0
 18 17  1  0
 18 24  1  0
 18 19  1  1
 20 19  1  0
 21 20  1  0
 22 21  1  0
 23 22  1  0
 24 25  1  0
 26 24  2  0
M  END
$$$$
