VCK.pdb
     RDKit          3D

 23 22  0  0  1  0  0  0  0  0999 V2000
   23.4213  -14.4698  -20.3222 C   0  0  0  0  0  0  0  0  0  0  0  0
   24.5540  -14.3606  -19.3078 C   0  0  2  0  0  0  0  0  0  0  0  0
   24.0093  -14.9279  -18.0177 C   0  0  0  0  0  0  0  0  0  0  0  0
   24.8036  -12.8651  -19.0931 C   0  0  2  0  0  0  0  0  0  0  0  0
   26.1820  -12.7175  -18.5487 N   0  0  0  0  0  0  0  0  0  0  0  0
   23.8419  -12.2500  -18.1615 C   0  0  0  0  0  0  0  0  0  0  0  0
   22.6029  -12.3033  -18.4635 O   0  0  0  0  0  0  0  0  0  0  0  0
   24.1610  -11.6107  -16.9687 N   0  0  0  0  0  0  0  0  0  0  0  0
   23.1940  -11.0381  -16.0526 C   0  0  1  0  0  0  0  0  0  0  0  0
   23.6111  -11.2542  -14.6028 C   0  0  0  0  0  0  0  0  0  0  0  0
   22.7825  -12.6674  -13.8648 S   0  0  0  0  0  0  0  0  0  0  0  0
   23.0888   -9.5664  -16.2368 C   0  0  0  0  0  0  0  0  0  0  0  0
   24.1590   -8.9101  -16.3041 O   0  0  0  0  0  0  0  0  0  0  0  0
   21.8787   -8.8711  -16.3394 N   0  0  0  0  0  0  0  0  0  0  0  0
   21.7505   -7.4566  -16.6157 C   0  0  1  0  0  0  0  0  0  0  0  0
   20.5045   -7.3037  -17.4927 C   0  0  0  0  0  0  0  0  0  0  0  0
   20.2190   -5.8489  -17.7784 C   0  0  0  0  0  0  0  0  0  0  0  0
   19.0012   -5.7875  -18.6655 C   0  0  0  0  0  0  0  0  0  0  0  0
   18.7456   -4.3755  -19.1661 C   0  0  0  0  0  0  0  0  0  0  0  0
   17.5972   -4.4437  -20.0512 N   0  0  0  0  0  0  0  0  0  0  0  0
   21.4466   -6.6914  -15.3591 C   0  0  0  0  0  0  0  0  0  0  0  0
   21.5691   -5.4400  -15.3260 O   0  0  0  0  0  0  0  0  0  0  0  0
   21.0266   -7.3305  -14.2094 O   0  0  0  0  0  0  0  0  0  0  0  0
  2  1  1  6
  3  2  1  0
  4  5  1  1
  4  2  1  0
  6  4  1  0
  6  7  2  0
  8  6  1  0
  9  8  1  0
  9 12  1  0
  9 10  1  1
 11 10  1  0
 12 13  2  0
 12 14  1  0
 14 15  1  0
 15 21  1  0
 15 16  1  6
 16 17  1  0
 18 19  1  0
 18 17  1  0
 20 19  1  0
 21 22  2  0
 21 23  1  0
M  END
$$$$
