VCK.pdb
     RDKit          3D

 23 22  0  0  1  0  0  0  0  0999 V2000
   22.3496  -11.1821  -15.5356 C   0  0  0  0  0  0  0  0  0  0  0  0
   21.1551  -11.3844  -16.4610 C   0  0  2  0  0  0  0  0  0  0  0  0
   21.6076  -12.3738  -17.5095 C   0  0  0  0  0  0  0  0  0  0  0  0
   20.9117  -10.0426  -17.1577 C   0  0  2  0  0  0  0  0  0  0  0  0
   22.1516   -9.6993  -17.9080 N   0  0  0  0  0  0  0  0  0  0  0  0
   20.5940   -8.9553  -16.2154 C   0  0  0  0  0  0  0  0  0  0  0  0
   19.4868   -9.0194  -15.5837 O   0  0  0  0  0  0  0  0  0  0  0  0
   21.3977   -7.8534  -15.9450 N   0  0  0  0  0  0  0  0  0  0  0  0
   21.0139   -6.7357  -15.1050 C   0  0  1  0  0  0  0  0  0  0  0  0
   22.0370   -6.4975  -14.0009 C   0  0  0  0  0  0  0  0  0  0  0  0
   21.6155   -7.3717  -12.4888 S   0  0  0  0  0  0  0  0  0  0  0  0
   20.9512   -5.4739  -15.8890 C   0  0  0  0  0  0  0  0  0  0  0  0
   21.8796   -5.2497  -16.7066 O   0  0  0  0  0  0  0  0  0  0  0  0
   19.9283   -4.5259  -15.7733 N   0  0  0  0  0  0  0  0  0  0  0  0
   19.8208   -3.3151  -16.5580 C   0  0  1  0  0  0  0  0  0  0  0  0
   18.3591   -2.8695  -16.4583 C   0  0  0  0  0  0  0  0  0  0  0  0
   17.4333   -3.9199  -17.0233 C   0  0  0  0  0  0  0  0  0  0  0  0
   16.0256   -3.3884  -16.9268 C   0  0  0  0  0  0  0  0  0  0  0  0
   15.5618   -3.2943  -15.4826 C   0  0  0  0  0  0  0  0  0  0  0  0
   14.1415   -2.9969  -15.5146 N   0  0  0  0  0  0  0  0  0  0  0  0
   20.6171   -2.2027  -15.9371 C   0  0  0  0  0  0  0  0  0  0  0  0
   21.0949   -2.3258  -14.7802 O   0  0  0  0  0  0  0  0  0  0  0  0
   20.8487   -1.0193  -16.6099 O   0  0  0  0  0  0  0  0  0  0  0  0
  2  1  1  1
  3  2  1  0
  4  5  1  1
  4  2  1  0
  6  4  1  0
  6  7  2  0
  8  6  1  0
  9  8  1  0
  9 12  1  0
  9 10  1  1
 11 10  1  0
 12 13  2  0
 12 14  1  0
 14 15  1  0
 15 21  1  0
 15 16  1  1
 16 17  1  0
 18 19  1  0
 18 17  1  0
 20 19  1  0
 21 22  2  0
 21 23  1  0
M  END
$$$$
