VCK.pdb
     RDKit          3D

 23 22  0  0  1  0  0  0  0  0999 V2000
   20.8357  -13.9125  -16.2545 C   0  0  0  0  0  0  0  0  0  0  0  0
   19.7167  -13.6993  -17.2677 C   0  0  2  0  0  0  0  0  0  0  0  0
   19.8592  -14.8112  -18.2806 C   0  0  0  0  0  0  0  0  0  0  0  0
   20.0190  -12.3770  -17.9784 C   0  0  2  0  0  0  0  0  0  0  0  0
   21.2848  -12.5609  -18.7412 N   0  0  0  0  0  0  0  0  0  0  0  0
   20.1699  -11.2454  -17.0469 C   0  0  0  0  0  0  0  0  0  0  0  0
   19.1433  -10.8802  -16.3822 O   0  0  0  0  0  0  0  0  0  0  0  0
   21.3405  -10.5303  -16.8197 N   0  0  0  0  0  0  0  0  0  0  0  0
   21.4812   -9.4594  -15.8525 C   0  0  1  0  0  0  0  0  0  0  0  0
   22.9021   -9.3917  -15.3058 C   0  0  0  0  0  0  0  0  0  0  0  0
   23.0286  -10.1062  -13.6622 S   0  0  0  0  0  0  0  0  0  0  0  0
   21.2156   -8.1363  -16.4768 C   0  0  0  0  0  0  0  0  0  0  0  0
   21.9687   -7.7741  -17.4161 O   0  0  0  0  0  0  0  0  0  0  0  0
   20.1848   -7.2745  -16.0853 N   0  0  0  0  0  0  0  0  0  0  0  0
   19.9109   -5.9811  -16.6731 C   0  0  1  0  0  0  0  0  0  0  0  0
   18.4549   -6.0260  -17.1453 C   0  0  0  0  0  0  0  0  0  0  0  0
   18.0380   -4.7026  -17.7408 C   0  0  0  0  0  0  0  0  0  0  0  0
   16.6194   -4.8482  -18.2306 C   0  0  0  0  0  0  0  0  0  0  0  0
   16.1099   -3.5606  -18.8569 C   0  0  0  0  0  0  0  0  0  0  0  0
   14.7169   -3.7813  -19.1997 N   0  0  0  0  0  0  0  0  0  0  0  0
   19.9561   -4.8996  -15.6312 C   0  0  0  0  0  0  0  0  0  0  0  0
   19.6606   -5.1504  -14.4347 O   0  0  0  0  0  0  0  0  0  0  0  0
   20.3202   -3.6063  -15.9499 O   0  0  0  0  0  0  0  0  0  0  0  0
  2  1  1  1
  3  2  1  0
  4  5  1  1
  4  2  1  0
  6  4  1  0
  6  7  2  0
  8  6  1  0
  9  8  1  0
  9 12  1  0
  9 10  1  6
 11 10  1  0
 12 13  2  0
 12 14  1  0
 14 15  1  0
 15 21  1  0
 15 16  1  1
 16 17  1  0
 18 19  1  0
 18 17  1  0
 20 19  1  0
 21 22  2  0
 21 23  1  0
M  END
$$$$
