VCK.pdb
     RDKit          3D

 23 22  0  0  1  0  0  0  0  0999 V2000
   14.0881  -13.9280  -14.1758 C   0  0  0  0  0  0  0  0  0  0  0  0
   14.5035  -13.8388  -15.6399 C   0  0  2  0  0  0  0  0  0  0  0  0
   14.7848  -15.2576  -16.0767 C   0  0  0  0  0  0  0  0  0  0  0  0
   15.8266  -13.0684  -15.6709 C   0  0  2  0  0  0  0  0  0  0  0  0
   16.8339  -13.8840  -14.9371 N   0  0  0  0  0  0  0  0  0  0  0  0
   15.7305  -11.7360  -15.0494 C   0  0  0  0  0  0  0  0  0  0  0  0
   14.9297  -10.8911  -15.5730 O   0  0  0  0  0  0  0  0  0  0  0  0
   16.4373  -11.3077  -13.9312 N   0  0  0  0  0  0  0  0  0  0  0  0
   16.2876  -10.0084  -13.3056 C   0  0  1  0  0  0  0  0  0  0  0  0
   16.4965  -10.0935  -11.7984 C   0  0  0  0  0  0  0  0  0  0  0  0
   16.3712   -8.4853  -11.0069 S   0  0  0  0  0  0  0  0  0  0  0  0
   17.3073   -9.0510  -13.8102 C   0  0  0  0  0  0  0  0  0  0  0  0
   18.4786   -9.4787  -13.9703 O   0  0  0  0  0  0  0  0  0  0  0  0
   17.0446   -7.7109  -14.1161 N   0  0  0  0  0  0  0  0  0  0  0  0
   17.9813   -6.7975  -14.7339 C   0  0  1  0  0  0  0  0  0  0  0  0
   17.8430   -7.0009  -16.2453 C   0  0  0  0  0  0  0  0  0  0  0  0
   18.8500   -6.1651  -16.9983 C   0  0  0  0  0  0  0  0  0  0  0  0
   18.7607   -6.5438  -18.4550 C   0  0  0  0  0  0  0  0  0  0  0  0
   19.9107   -5.9563  -19.2563 C   0  0  0  0  0  0  0  0  0  0  0  0
   19.8666   -6.5718  -20.5701 N   0  0  0  0  0  0  0  0  0  0  0  0
   17.5791   -5.3710  -14.4878 C   0  0  0  0  0  0  0  0  0  0  0  0
   16.4112   -5.0904  -14.1148 O   0  0  0  0  0  0  0  0  0  0  0  0
   18.4700   -4.3305  -14.6615 O   0  0  0  0  0  0  0  0  0  0  0  0
  2  1  1  1
  3  2  1  0
  4  5  1  1
  4  2  1  0
  6  4  1  0
  6  7  2  0
  8  6  1  0
  9  8  1  0
  9 12  1  0
  9 10  1  1
 11 10  1  0
 12 13  2  0
 12 14  1  0
 14 15  1  0
 15 21  1  0
 15 16  1  6
 16 17  1  0
 18 19  1  0
 18 17  1  0
 20 19  1  0
 21 22  2  0
 21 23  1  0
M  END
$$$$
