VCK.pdb
     RDKit          3D

 23 22  0  0  1  0  0  0  0  0999 V2000
   20.0097  -11.4505  -19.7453 C   0  0  0  0  0  0  0  0  0  0  0  0
   21.0814  -11.9388  -18.7771 C   0  0  2  0  0  0  0  0  0  0  0  0
   21.4017  -13.3548  -19.1953 C   0  0  0  0  0  0  0  0  0  0  0  0
   20.4256  -11.9961  -17.3945 C   0  0  2  0  0  0  0  0  0  0  0  0
   19.2813  -12.9452  -17.4836 N   0  0  0  0  0  0  0  0  0  0  0  0
   19.9373  -10.6839  -16.9353 C   0  0  0  0  0  0  0  0  0  0  0  0
   19.0715  -10.0849  -17.6571 O   0  0  0  0  0  0  0  0  0  0  0  0
   20.3343  -10.0297  -15.7744 N   0  0  0  0  0  0  0  0  0  0  0  0
   19.8587   -8.7256  -15.3559 C   0  0  1  0  0  0  0  0  0  0  0  0
   18.9117   -8.8381  -14.1672 C   0  0  0  0  0  0  0  0  0  0  0  0
   17.3444   -9.5905  -14.6206 S   0  0  0  0  0  0  0  0  0  0  0  0
   20.9845   -7.8644  -14.9067 C   0  0  0  0  0  0  0  0  0  0  0  0
   21.9237   -8.4150  -14.2779 O   0  0  0  0  0  0  0  0  0  0  0  0
   21.0623   -6.4866  -15.1394 N   0  0  0  0  0  0  0  0  0  0  0  0
   22.1346   -5.6245  -14.6917 C   0  0  1  0  0  0  0  0  0  0  0  0
   22.2619   -4.5192  -15.7438 C   0  0  0  0  0  0  0  0  0  0  0  0
   22.9291   -5.0373  -16.9951 C   0  0  0  0  0  0  0  0  0  0  0  0
   22.9833   -3.9035  -17.9876 C   0  0  0  0  0  0  0  0  0  0  0  0
   23.6451   -4.3301  -19.2875 C   0  0  0  0  0  0  0  0  0  0  0  0
   23.6932   -3.1568  -20.1406 N   0  0  0  0  0  0  0  0  0  0  0  0
   21.7582   -4.9191  -13.4198 C   0  0  0  0  0  0  0  0  0  0  0  0
   20.5521   -4.8126  -13.0794 O   0  0  0  0  0  0  0  0  0  0  0  0
   22.7152   -4.3694  -12.5898 O   0  0  0  0  0  0  0  0  0  0  0  0
  2  1  1  6
  3  2  1  0
  4  5  1  6
  4  2  1  0
  6  4  1  0
  6  7  2  0
  8  6  1  0
  9  8  1  0
  9 12  1  0
  9 10  1  1
 11 10  1  0
 12 13  2  0
 12 14  1  0
 14 15  1  0
 15 21  1  0
 15 16  1  6
 16 17  1  0
 18 19  1  0
 18 17  1  0
 20 19  1  0
 21 22  2  0
 21 23  1  0
M  END
$$$$
