VCK.pdb
     RDKit          3D

 23 22  0  0  1  0  0  0  0  0999 V2000
   23.0785   -9.1100  -13.3512 C   0  0  0  0  0  0  0  0  0  0  0  0
   21.9475   -9.6872  -14.1949 C   0  0  2  0  0  0  0  0  0  0  0  0
   22.4735   -9.7401  -15.6103 C   0  0  0  0  0  0  0  0  0  0  0  0
   20.8095   -8.6632  -14.1565 C   0  0  2  0  0  0  0  0  0  0  0  0
   21.3503   -7.3770  -14.6772 N   0  0  0  0  0  0  0  0  0  0  0  0
   20.2705   -8.4537  -12.8013 C   0  0  0  0  0  0  0  0  0  0  0  0
   19.7360   -9.4519  -12.2121 O   0  0  0  0  0  0  0  0  0  0  0  0
   20.2914   -7.2566  -12.0944 N   0  0  0  0  0  0  0  0  0  0  0  0
   19.6509   -7.0422  -10.8114 C   0  0  1  0  0  0  0  0  0  0  0  0
   20.2048   -5.8035  -10.1175 C   0  0  0  0  0  0  0  0  0  0  0  0
   19.4916   -5.5675   -8.4853 S   0  0  0  0  0  0  0  0  0  0  0  0
   18.1919   -6.8063  -10.9745 C   0  0  0  0  0  0  0  0  0  0  0  0
   17.8219   -6.0948  -11.9428 O   0  0  0  0  0  0  0  0  0  0  0  0
   17.2111   -7.3246  -10.1214 N   0  0  0  0  0  0  0  0  0  0  0  0
   15.7947   -7.0430  -10.2109 C   0  0  1  0  0  0  0  0  0  0  0  0
   15.0992   -8.0549   -9.2958 C   0  0  0  0  0  0  0  0  0  0  0  0
   13.5978   -7.9254   -9.3882 C   0  0  0  0  0  0  0  0  0  0  0  0
   12.9918   -9.0180   -8.5441 C   0  0  0  0  0  0  0  0  0  0  0  0
   11.4765   -8.9113   -8.4961 C   0  0  0  0  0  0  0  0  0  0  0  0
   11.0075   -9.9658   -7.6159 N   0  0  0  0  0  0  0  0  0  0  0  0
   15.4789   -5.6964   -9.6245 C   0  0  0  0  0  0  0  0  0  0  0  0
   14.4224   -5.0919   -9.9412 O   0  0  0  0  0  0  0  0  0  0  0  0
   16.3302   -5.0833   -8.7266 O   0  0  0  0  0  0  0  0  0  0  0  0
  2  1  1  1
  3  2  1  0
  4  5  1  1
  4  2  1  0
  6  4  1  0
  6  7  2  0
  8  6  1  0
  9  8  1  0
  9 12  1  0
  9 10  1  6
 11 10  1  0
 12 13  2  0
 12 14  1  0
 14 15  1  0
 15 21  1  0
 15 16  1  1
 16 17  1  0
 18 19  1  0
 18 17  1  0
 20 19  1  0
 21 22  2  0
 21 23  1  0
M  END
$$$$
