VCK.pdb
     RDKit          3D

 23 22  0  0  1  0  0  0  0  0999 V2000
   21.4573  -12.5966  -18.4858 C   0  0  0  0  0  0  0  0  0  0  0  0
   22.8908  -12.9669  -18.8490 C   0  0  2  0  0  0  0  0  0  0  0  0
   22.7905  -14.1853  -19.7369 C   0  0  0  0  0  0  0  0  0  0  0  0
   23.5741  -13.3921  -17.5462 C   0  0  2  0  0  0  0  0  0  0  0  0
   22.8167  -14.5548  -17.0053 N   0  0  0  0  0  0  0  0  0  0  0  0
   23.6070  -12.3185  -16.5377 C   0  0  0  0  0  0  0  0  0  0  0  0
   22.5779  -12.1641  -15.7985 O   0  0  0  0  0  0  0  0  0  0  0  0
   24.6675  -11.4482  -16.3113 N   0  0  0  0  0  0  0  0  0  0  0  0
   24.6686  -10.3842  -15.3264 C   0  0  1  0  0  0  0  0  0  0  0  0
   26.0818  -10.0788  -14.8446 C   0  0  0  0  0  0  0  0  0  0  0  0
   27.2434   -9.9314  -16.2074 S   0  0  0  0  0  0  0  0  0  0  0  0
   24.1475   -9.1180  -15.9060 C   0  0  0  0  0  0  0  0  0  0  0  0
   24.3742   -8.8981  -17.1229 O   0  0  0  0  0  0  0  0  0  0  0  0
   23.4243   -8.1616  -15.1843 N   0  0  0  0  0  0  0  0  0  0  0  0
   22.8750   -6.9414  -15.7347 C   0  0  1  0  0  0  0  0  0  0  0  0
   21.4596   -7.2850  -16.2075 C   0  0  0  0  0  0  0  0  0  0  0  0
   20.7436   -6.0548  -16.7109 C   0  0  0  0  0  0  0  0  0  0  0  0
   19.3729   -6.4805  -17.1732 C   0  0  0  0  0  0  0  0  0  0  0  0
   18.6201   -5.3305  -17.8218 C   0  0  0  0  0  0  0  0  0  0  0  0
   17.3852   -5.8803  -18.3504 N   0  0  0  0  0  0  0  0  0  0  0  0
   22.6936   -5.9050  -14.6624 C   0  0  0  0  0  0  0  0  0  0  0  0
   22.5736   -6.2446  -13.4573 O   0  0  0  0  0  0  0  0  0  0  0  0
   22.6531   -4.5575  -14.9615 O   0  0  0  0  0  0  0  0  0  0  0  0
  2  1  1  1
  3  2  1  0
  4  5  1  1
  4  2  1  0
  6  4  1  0
  6  7  2  0
  8  6  1  0
  9  8  1  0
  9 12  1  0
  9 10  1  6
 11 10  1  0
 12 13  2  0
 12 14  1  0
 14 15  1  0
 15 21  1  0
 15 16  1  1
 16 17  1  0
 18 19  1  0
 18 17  1  0
 20 19  1  0
 21 22  2  0
 21 23  1  0
M  END
$$$$
