VCK.pdb
     RDKit          3D

 23 22  0  0  1  0  0  0  0  0999 V2000
   21.1737  -18.8287  -15.1584 C   0  0  0  0  0  0  0  0  0  0  0  0
   21.6483  -20.2640  -15.3552 C   0  0  2  0  0  0  0  0  0  0  0  0
   21.4461  -20.5688  -16.8211 C   0  0  0  0  0  0  0  0  0  0  0  0
   20.6909  -21.1526  -14.5559 C   0  0  2  0  0  0  0  0  0  0  0  0
   19.3211  -20.5913  -14.7199 N   0  0  0  0  0  0  0  0  0  0  0  0
   21.0253  -21.2137  -13.1223 C   0  0  0  0  0  0  0  0  0  0  0  0
   22.1204  -20.6787  -12.7429 O   0  0  0  0  0  0  0  0  0  0  0  0
   20.2498  -21.8051  -12.1312 N   0  0  0  0  0  0  0  0  0  0  0  0
   20.5601  -21.7837  -10.7151 C   0  0  1  0  0  0  0  0  0  0  0  0
   20.6963  -20.3556  -10.2008 C   0  0  0  0  0  0  0  0  0  0  0  0
   20.9938  -20.3006   -8.4297 S   0  0  0  0  0  0  0  0  0  0  0  0
   19.4697  -22.4069   -9.9190 C   0  0  0  0  0  0  0  0  0  0  0  0
   18.3301  -21.8794   -9.9796 O   0  0  0  0  0  0  0  0  0  0  0  0
   19.6333  -23.5379   -9.1112 N   0  0  0  0  0  0  0  0  0  0  0  0
   18.5675  -24.2291   -8.4186 C   0  0  1  0  0  0  0  0  0  0  0  0
   18.8476  -25.7251   -8.5879 C   0  0  0  0  0  0  0  0  0  0  0  0
   17.7443  -26.5548   -7.9763 C   0  0  0  0  0  0  0  0  0  0  0  0
   18.0916  -28.0064   -8.1903 C   0  0  0  0  0  0  0  0  0  0  0  0
   17.0232  -28.9259   -7.6221 C   0  0  0  0  0  0  0  0  0  0  0  0
   17.4347  -30.2853   -7.9213 N   0  0  0  0  0  0  0  0  0  0  0  0
   18.6395  -23.9776   -6.9392 C   0  0  0  0  0  0  0  0  0  0  0  0
   19.7203  -23.6241   -6.4017 O   0  0  0  0  0  0  0  0  0  0  0  0
   17.5317  -24.1250   -6.1281 O   0  0  0  0  0  0  0  0  0  0  0  0
  2  1  1  6
  3  2  1  0
  4  5  1  1
  4  2  1  0
  6  4  1  0
  6  7  2  0
  8  6  1  0
  9  8  1  0
  9 12  1  0
  9 10  1  1
 11 10  1  0
 12 13  2  0
 12 14  1  0
 14 15  1  0
 15 21  1  0
 15 16  1  1
 16 17  1  0
 18 19  1  0
 18 17  1  0
 20 19  1  0
 21 22  2  0
 21 23  1  0
M  END
$$$$
