VCK.pdb
     RDKit          3D

 23 22  0  0  1  0  0  0  0  0999 V2000
   26.0215  -20.6446  -16.8550 C   0  0  0  0  0  0  0  0  0  0  0  0
   27.1869  -20.1464  -16.0078 C   0  0  2  0  0  0  0  0  0  0  0  0
   28.3648  -20.0388  -16.9479 C   0  0  0  0  0  0  0  0  0  0  0  0
   27.4949  -21.2544  -14.9965 C   0  0  2  0  0  0  0  0  0  0  0  0
   27.7188  -22.5097  -15.7660 N   0  0  0  0  0  0  0  0  0  0  0  0
   26.4072  -21.4642  -14.0251 C   0  0  0  0  0  0  0  0  0  0  0  0
   25.3849  -22.1248  -14.4093 O   0  0  0  0  0  0  0  0  0  0  0  0
   26.3903  -21.0063  -12.7123 N   0  0  0  0  0  0  0  0  0  0  0  0
   25.2669  -21.1366  -11.8051 C   0  0  1  0  0  0  0  0  0  0  0  0
   25.6126  -20.6085  -10.4180 C   0  0  0  0  0  0  0  0  0  0  0  0
   27.1845  -21.2454   -9.8249 S   0  0  0  0  0  0  0  0  0  0  0  0
   24.1050  -20.3358  -12.2738 C   0  0  0  0  0  0  0  0  0  0  0  0
   24.3305  -19.1708  -12.6893 O   0  0  0  0  0  0  0  0  0  0  0  0
   22.7836  -20.7966  -12.2809 N   0  0  0  0  0  0  0  0  0  0  0  0
   21.6553  -20.0850  -12.8412 C   0  0  1  0  0  0  0  0  0  0  0  0
   21.8589  -20.0884  -14.3590 C   0  0  0  0  0  0  0  0  0  0  0  0
   20.7557  -19.3278  -15.0547 C   0  0  0  0  0  0  0  0  0  0  0  0
   21.0221  -19.3900  -16.5375 C   0  0  0  0  0  0  0  0  0  0  0  0
   19.9938  -18.5935  -17.3236 C   0  0  0  0  0  0  0  0  0  0  0  0
   20.3934  -18.6497  -18.7179 N   0  0  0  0  0  0  0  0  0  0  0  0
   20.3779  -20.8416  -12.6114 C   0  0  0  0  0  0  0  0  0  0  0  0
   19.2647  -20.3034  -12.8416 O   0  0  0  0  0  0  0  0  0  0  0  0
   20.3837  -22.1410  -12.1440 O   0  0  0  0  0  0  0  0  0  0  0  0
  2  1  1  6
  3  2  1  0
  4  5  1  6
  4  2  1  0
  6  4  1  0
  6  7  2  0
  8  6  1  0
  9  8  1  0
  9 12  1  0
  9 10  1  1
 11 10  1  0
 12 13  2  0
 12 14  1  0
 14 15  1  0
 15 21  1  0
 15 16  1  6
 16 17  1  0
 18 19  1  0
 18 17  1  0
 20 19  1  0
 21 22  2  0
 21 23  1  0
M  END
$$$$
