VCK.pdb
     RDKit          3D

 23 22  0  0  1  0  0  0  0  0999 V2000
   27.2652  -24.4957  -16.8403 C   0  0  0  0  0  0  0  0  0  0  0  0
   28.4110  -23.4958  -16.9479 C   0  0  2  0  0  0  0  0  0  0  0  0
   29.0489  -23.4496  -15.5790 C   0  0  0  0  0  0  0  0  0  0  0  0
   27.7729  -22.1293  -17.2133 C   0  0  2  0  0  0  0  0  0  0  0  0
   28.8788  -21.1596  -17.4475 N   0  0  0  0  0  0  0  0  0  0  0  0
   26.9384  -21.6577  -16.0943 C   0  0  0  0  0  0  0  0  0  0  0  0
   26.9907  -22.3079  -14.9972 O   0  0  0  0  0  0  0  0  0  0  0  0
   26.0904  -20.5561  -16.1208 N   0  0  0  0  0  0  0  0  0  0  0  0
   25.3180  -20.0794  -14.9902 C   0  0  1  0  0  0  0  0  0  0  0  0
   25.3943  -18.5620  -14.8694 C   0  0  0  0  0  0  0  0  0  0  0  0
   27.0855  -17.9825  -14.6903 S   0  0  0  0  0  0  0  0  0  0  0  0
   23.8769  -20.4088  -15.1496 C   0  0  0  0  0  0  0  0  0  0  0  0
   23.3650  -20.2470  -16.2865 O   0  0  0  0  0  0  0  0  0  0  0  0
   23.0601  -20.8852  -14.1179 N   0  0  0  0  0  0  0  0  0  0  0  0
   21.6518  -21.1921  -14.2435 C   0  0  1  0  0  0  0  0  0  0  0  0
   21.2171  -21.7655  -12.8918 C   0  0  0  0  0  0  0  0  0  0  0  0
   19.7565  -22.1474  -12.9103 C   0  0  0  0  0  0  0  0  0  0  0  0
   19.3818  -22.5897  -11.5183 C   0  0  0  0  0  0  0  0  0  0  0  0
   17.9334  -23.0448  -11.4478 C   0  0  0  0  0  0  0  0  0  0  0  0
   17.6936  -23.4772  -10.0832 N   0  0  0  0  0  0  0  0  0  0  0  0
   20.8444  -19.9375  -14.4195 C   0  0  0  0  0  0  0  0  0  0  0  0
   21.1516  -18.8863  -13.8009 O   0  0  0  0  0  0  0  0  0  0  0  0
   19.7484  -19.8971  -15.2585 O   0  0  0  0  0  0  0  0  0  0  0  0
  2  1  1  1
  3  2  1  0
  4  5  1  1
  4  2  1  0
  6  4  1  0
  6  7  2  0
  8  6  1  0
  9  8  1  0
  9 12  1  0
  9 10  1  6
 11 10  1  0
 12 13  2  0
 12 14  1  0
 14 15  1  0
 15 21  1  0
 15 16  1  1
 16 17  1  0
 18 19  1  0
 18 17  1  0
 20 19  1  0
 21 22  2  0
 21 23  1  0
M  END
$$$$
