VCK.pdb
     RDKit          3D

 23 22  0  0  1  0  0  0  0  0999 V2000
   19.5000  -10.9842  -14.3879 C   0  0  0  0  0  0  0  0  0  0  0  0
   18.6907  -10.9036  -15.6774 C   0  0  2  0  0  0  0  0  0  0  0  0
   19.0516  -12.1386  -16.4694 C   0  0  0  0  0  0  0  0  0  0  0  0
   19.2141   -9.6860  -16.4445 C   0  0  2  0  0  0  0  0  0  0  0  0
   20.5460  -10.0504  -17.0026 N   0  0  0  0  0  0  0  0  0  0  0  0
   19.3505   -8.4882  -15.5973 C   0  0  0  0  0  0  0  0  0  0  0  0
   18.3076   -8.0607  -14.9983 O   0  0  0  0  0  0  0  0  0  0  0  0
   20.5232   -7.7722  -15.3849 N   0  0  0  0  0  0  0  0  0  0  0  0
   20.6215   -6.5618  -14.5928 C   0  0  1  0  0  0  0  0  0  0  0  0
   22.0403   -6.3526  -14.0771 C   0  0  0  0  0  0  0  0  0  0  0  0
   22.2038   -4.8217  -13.1509 S   0  0  0  0  0  0  0  0  0  0  0  0
   20.2973   -5.3611  -15.4077 C   0  0  0  0  0  0  0  0  0  0  0  0
   20.8959   -5.2231  -16.5046 O   0  0  0  0  0  0  0  0  0  0  0  0
   19.3720   -4.3812  -15.0309 N   0  0  0  0  0  0  0  0  0  0  0  0
   19.0338   -3.2100  -15.8103 C   0  0  1  0  0  0  0  0  0  0  0  0
   17.5449   -3.3352  -16.1458 C   0  0  0  0  0  0  0  0  0  0  0  0
   17.2947   -4.5024  -17.0702 C   0  0  0  0  0  0  0  0  0  0  0  0
   15.8083   -4.5858  -17.3094 C   0  0  0  0  0  0  0  0  0  0  0  0
   15.4615   -5.6960  -18.2877 C   0  0  0  0  0  0  0  0  0  0  0  0
   14.0372   -5.5971  -18.5496 N   0  0  0  0  0  0  0  0  0  0  0  0
   19.1493   -1.9632  -14.9802 C   0  0  0  0  0  0  0  0  0  0  0  0
   19.2340   -2.0338  -13.7272 O   0  0  0  0  0  0  0  0  0  0  0  0
   19.1660   -0.7100  -15.5598 O   0  0  0  0  0  0  0  0  0  0  0  0
  2  1  1  1
  3  2  1  0
  4  5  1  1
  4  2  1  0
  6  4  1  0
  6  7  2  0
  8  6  1  0
  9  8  1  0
  9 12  1  0
  9 10  1  6
 11 10  1  0
 12 13  2  0
 12 14  1  0
 14 15  1  0
 15 21  1  0
 15 16  1  1
 16 17  1  0
 18 19  1  0
 18 17  1  0
 20 19  1  0
 21 22  2  0
 21 23  1  0
M  END
$$$$
