VCK.pdb
     RDKit          3D

 23 22  0  0  1  0  0  0  0  0999 V2000
   23.2487  -12.5801  -16.0339 C   0  0  0  0  0  0  0  0  0  0  0  0
   22.5337  -12.4483  -17.3738 C   0  0  2  0  0  0  0  0  0  0  0  0
   23.4724  -13.0342  -18.4025 C   0  0  0  0  0  0  0  0  0  0  0  0
   22.4087  -10.9481  -17.6549 C   0  0  2  0  0  0  0  0  0  0  0  0
   23.7772  -10.3655  -17.5790 N   0  0  0  0  0  0  0  0  0  0  0  0
   21.5290  -10.2554  -16.6971 C   0  0  0  0  0  0  0  0  0  0  0  0
   20.3068  -10.6191  -16.6406 O   0  0  0  0  0  0  0  0  0  0  0  0
   21.9102   -9.2316  -15.8371 N   0  0  0  0  0  0  0  0  0  0  0  0
   21.0248   -8.5619  -14.9045 C   0  0  1  0  0  0  0  0  0  0  0  0
   21.6009   -8.5690  -13.4935 C   0  0  0  0  0  0  0  0  0  0  0  0
   22.5418  -10.0618  -13.1552 S   0  0  0  0  0  0  0  0  0  0  0  0
   20.8454   -7.1318  -15.2698 C   0  0  0  0  0  0  0  0  0  0  0  0
   21.8704   -6.4816  -15.5974 O   0  0  0  0  0  0  0  0  0  0  0  0
   19.6129   -6.4690  -15.2714 N   0  0  0  0  0  0  0  0  0  0  0  0
   19.3895   -5.1249  -15.7581 C   0  0  1  0  0  0  0  0  0  0  0  0
   18.6351   -5.2699  -17.0828 C   0  0  0  0  0  0  0  0  0  0  0  0
   18.4514   -3.9283  -17.7506 C   0  0  0  0  0  0  0  0  0  0  0  0
   17.7851   -4.1676  -19.0819 C   0  0  0  0  0  0  0  0  0  0  0  0
   17.7127   -2.8935  -19.9073 C   0  0  0  0  0  0  0  0  0  0  0  0
   17.1484   -3.2567  -21.1943 N   0  0  0  0  0  0  0  0  0  0  0  0
   18.4558   -4.3756  -14.8505 C   0  0  0  0  0  0  0  0  0  0  0  0
   17.5751   -4.9864  -14.1923 O   0  0  0  0  0  0  0  0  0  0  0  0
   18.5327   -3.0040  -14.7102 O   0  0  0  0  0  0  0  0  0  0  0  0
  2  1  1  1
  3  2  1  0
  4  5  1  1
  4  2  1  0
  6  4  1  0
  6  7  2  0
  8  6  1  0
  9  8  1  0
  9 12  1  0
  9 10  1  1
 11 10  1  0
 12 13  2  0
 12 14  1  0
 14 15  1  0
 15 21  1  0
 15 16  1  6
 16 17  1  0
 18 19  1  0
 18 17  1  0
 20 19  1  0
 21 22  2  0
 21 23  1  0
M  END
$$$$
