VCK.pdb
     RDKit          3D

 23 22  0  0  1  0  0  0  0  0999 V2000
   26.3314  -14.5288  -18.1832 C   0  0  0  0  0  0  0  0  0  0  0  0
   24.9353  -14.9962  -18.5789 C   0  0  2  0  0  0  0  0  0  0  0  0
   25.1008  -15.7277  -19.8904 C   0  0  0  0  0  0  0  0  0  0  0  0
   24.1131  -13.7326  -18.8482 C   0  0  2  0  0  0  0  0  0  0  0  0
   24.6843  -13.0796  -20.0587 N   0  0  0  0  0  0  0  0  0  0  0  0
   24.1362  -12.7815  -17.7231 C   0  0  0  0  0  0  0  0  0  0  0  0
   23.6236  -13.1563  -16.6159 O   0  0  0  0  0  0  0  0  0  0  0  0
   24.6720  -11.4988  -17.7540 N   0  0  0  0  0  0  0  0  0  0  0  0
   24.6906  -10.5828  -16.6304 C   0  0  1  0  0  0  0  0  0  0  0  0
   26.0543   -9.9189  -16.4811 C   0  0  0  0  0  0  0  0  0  0  0  0
   27.3127  -11.0766  -15.9295 S   0  0  0  0  0  0  0  0  0  0  0  0
   23.7132   -9.4790  -16.8237 C   0  0  0  0  0  0  0  0  0  0  0  0
   23.4953   -9.0937  -18.0004 O   0  0  0  0  0  0  0  0  0  0  0  0
   23.0249   -8.8465  -15.7822 N   0  0  0  0  0  0  0  0  0  0  0  0
   21.9836   -7.8563  -15.9513 C   0  0  1  0  0  0  0  0  0  0  0  0
   20.7620   -8.6079  -16.4876 C   0  0  0  0  0  0  0  0  0  0  0  0
   19.5876   -7.6756  -16.6646 C   0  0  0  0  0  0  0  0  0  0  0  0
   18.4129   -8.5019  -17.1236 C   0  0  0  0  0  0  0  0  0  0  0  0
   17.2056   -7.6324  -17.4337 C   0  0  0  0  0  0  0  0  0  0  0  0
   16.1154   -8.5297  -17.7703 N   0  0  0  0  0  0  0  0  0  0  0  0
   21.5544   -7.2991  -14.6238 C   0  0  0  0  0  0  0  0  0  0  0  0
   20.8070   -6.2892  -14.5646 O   0  0  0  0  0  0  0  0  0  0  0  0
   21.9625   -7.8720  -13.4355 O   0  0  0  0  0  0  0  0  0  0  0  0
  2  1  1  6
  3  2  1  0
  4  5  1  6
  4  2  1  0
  6  4  1  0
  6  7  2  0
  8  6  1  0
  9  8  1  0
  9 12  1  0
  9 10  1  6
 11 10  1  0
 12 13  2  0
 12 14  1  0
 14 15  1  0
 15 21  1  0
 15 16  1  1
 16 17  1  0
 18 19  1  0
 18 17  1  0
 20 19  1  0
 21 22  2  0
 21 23  1  0
M  END
$$$$
