VCK.pdb
     RDKit          3D

 23 22  0  0  1  0  0  0  0  0999 V2000
   16.5859  -15.0452  -16.2752 C   0  0  0  0  0  0  0  0  0  0  0  0
   17.7725  -15.5696  -17.0759 C   0  0  2  0  0  0  0  0  0  0  0  0
   18.1150  -16.9130  -16.4752 C   0  0  0  0  0  0  0  0  0  0  0  0
   18.9407  -14.6200  -16.7956 C   0  0  2  0  0  0  0  0  0  0  0  0
   19.1906  -14.6430  -15.3276 N   0  0  0  0  0  0  0  0  0  0  0  0
   18.6718  -13.2361  -17.2239 C   0  0  0  0  0  0  0  0  0  0  0  0
   18.3998  -13.0359  -18.4548 O   0  0  0  0  0  0  0  0  0  0  0  0
   18.6848  -12.1141  -16.4027 N   0  0  0  0  0  0  0  0  0  0  0  0
   18.4710  -10.7540  -16.8570 C   0  0  1  0  0  0  0  0  0  0  0  0
   17.0241  -10.3229  -16.6489 C   0  0  0  0  0  0  0  0  0  0  0  0
   16.4629  -10.6280  -14.9696 S   0  0  0  0  0  0  0  0  0  0  0  0
   19.3028   -9.7945  -16.0834 C   0  0  0  0  0  0  0  0  0  0  0  0
   19.4601  -10.0181  -14.8563 O   0  0  0  0  0  0  0  0  0  0  0  0
   19.9178   -8.6646  -16.6343 N   0  0  0  0  0  0  0  0  0  0  0  0
   20.8093   -7.7718  -15.9262 C   0  0  1  0  0  0  0  0  0  0  0  0
   21.2849   -6.7398  -16.9527 C   0  0  0  0  0  0  0  0  0  0  0  0
   22.1712   -5.7023  -16.3065 C   0  0  0  0  0  0  0  0  0  0  0  0
   22.5335   -4.6887  -17.3623 C   0  0  0  0  0  0  0  0  0  0  0  0
   23.4823   -3.6323  -16.8202 C   0  0  0  0  0  0  0  0  0  0  0  0
   22.7584   -2.9014  -15.7963 N   0  0  0  0  0  0  0  0  0  0  0  0
   20.0630   -6.9828  -14.8881 C   0  0  0  0  0  0  0  0  0  0  0  0
   20.6788   -6.4179  -13.9481 O   0  0  0  0  0  0  0  0  0  0  0  0
   18.6889   -6.8530  -14.9312 O   0  0  0  0  0  0  0  0  0  0  0  0
  2  1  1  1
  3  2  1  0
  4  5  1  1
  4  2  1  0
  6  4  1  0
  6  7  2  0
  8  6  1  0
  9  8  1  0
  9 12  1  0
  9 10  1  1
 11 10  1  0
 12 13  2  0
 12 14  1  0
 14 15  1  0
 15 21  1  0
 15 16  1  6
 16 17  1  0
 18 19  1  0
 18 17  1  0
 20 19  1  0
 21 22  2  0
 21 23  1  0
M  END
$$$$
