SPL.pdb
     RDKit          3D

 22 22  0  0  1  0  0  0  0  0999 V2000
   27.2477  -22.5871  -18.7801 O   0  0  0  0  0  0  0  0  0  0  0  0
   27.0420  -22.3449  -17.4211 C   0  0  0  0  0  0  0  0  0  0  0  0
   28.2155  -21.5290  -16.8599 C   0  0  2  0  0  0  0  0  0  0  0  0
   29.3027  -22.4891  -16.7320 N   0  0  0  0  0  0  0  0  0  0  0  0
   27.8660  -20.9504  -15.5571 C   0  0  0  0  0  0  0  0  0  0  0  0
   28.2610  -21.5567  -14.5182 O   0  0  0  0  0  0  0  0  0  0  0  0
   27.1234  -19.7691  -15.3729 N   0  0  0  0  0  0  0  0  0  0  0  0
   26.6078  -18.9631  -16.4902 C   0  0  0  0  0  0  0  0  0  0  0  0
   26.6273  -17.5323  -15.9519 C   0  0  0  0  0  0  0  0  0  0  0  0
   26.2323  -17.7654  -14.5096 C   0  0  0  0  0  0  0  0  0  0  0  0
   26.7312  -19.1289  -14.1437 C   0  0  1  0  0  0  0  0  0  0  0  0
   25.6803  -19.8876  -13.4163 C   0  0  0  0  0  0  0  0  0  0  0  0
   24.8616  -20.6398  -14.0049 O   0  0  0  0  0  0  0  0  0  0  0  0
   26.6890  -21.8610   -9.2878 C   0  0  0  0  0  0  0  0  0  0  0  0
   26.2996  -20.4223   -9.2844 C   0  0  2  0  0  0  0  0  0  0  0  0
   26.4968  -19.8542   -7.9102 C   0  0  0  0  0  0  0  0  0  0  0  0
   24.8923  -20.1811   -9.7681 C   0  0  0  0  0  0  0  0  0  0  0  0
   24.6879  -20.5564  -11.1975 C   0  0  2  0  0  0  0  0  0  0  0  0
   25.5883  -19.7686  -12.0220 N   0  0  0  0  0  0  0  0  0  0  0  0
   23.2766  -20.2436  -11.5546 C   0  0  0  0  0  0  0  0  0  0  0  0
   22.9307  -19.1878  -12.1450 O   0  0  0  0  0  0  0  0  0  0  0  0
   22.2749  -21.1479  -11.2294 O   0  0  0  0  0  0  0  0  0  0  0  0
  2  1  1  0
  3  5  1  0
  3  2  1  0
  3  4  1  1
  5  6  2  0
  5  7  1  0
  7 11  1  0
  8  7  1  0
  9  8  1  0
  9 10  1  0
 10 11  1  0
 11 12  1  6
 12 13  2  0
 12 19  1  0
 15 16  1  1
 15 14  1  0
 17 15  1  0
 18 20  1  0
 18 17  1  1
 19 18  1  0
 20 22  1  0
 21 20  2  0
M  END
$$$$
