SPL.pdb
     RDKit          3D

 22 22  0  0  1  0  0  0  0  0999 V2000
   23.2910    4.5412   -2.1189 O   0  0  0  0  0  0  0  0  0  0  0  0
   23.4061    3.5806   -1.1131 C   0  0  0  0  0  0  0  0  0  0  0  0
   22.8091    2.2520   -1.5990 C   0  0  2  0  0  0  0  0  0  0  0  0
   21.3752    2.4958   -1.6652 N   0  0  0  0  0  0  0  0  0  0  0  0
   23.1179    1.1712   -0.6553 C   0  0  0  0  0  0  0  0  0  0  0  0
   22.2739    0.9256    0.2560 O   0  0  0  0  0  0  0  0  0  0  0  0
   24.2840    0.3835   -0.6854 N   0  0  0  0  0  0  0  0  0  0  0  0
   25.3348    0.5443   -1.7021 C   0  0  0  0  0  0  0  0  0  0  0  0
   25.9000   -0.8658   -1.8739 C   0  0  0  0  0  0  0  0  0  0  0  0
   25.8373   -1.3731   -0.4493 C   0  0  0  0  0  0  0  0  0  0  0  0
   24.6820   -0.6786    0.2024 C   0  0  1  0  0  0  0  0  0  0  0  0
   25.0684   -0.1811    1.5486 C   0  0  0  0  0  0  0  0  0  0  0  0
   25.4337    1.0058    1.7502 O   0  0  0  0  0  0  0  0  0  0  0  0
   23.1008    0.7956    5.4852 C   0  0  0  0  0  0  0  0  0  0  0  0
   23.0941   -0.5743    4.8978 C   0  0  2  0  0  0  0  0  0  0  0  0
   22.0442   -1.4038    5.5756 C   0  0  0  0  0  0  0  0  0  0  0  0
   24.4369   -1.2572    4.9543 C   0  0  0  0  0  0  0  0  0  0  0  0
   25.4264   -0.6923    3.9911 C   0  0  2  0  0  0  0  0  0  0  0  0
   25.0284   -1.0579    2.6424 N   0  0  0  0  0  0  0  0  0  0  0  0
   26.7560   -1.2864    4.3010 C   0  0  0  0  0  0  0  0  0  0  0  0
   27.2787   -2.2051    3.6185 O   0  0  0  0  0  0  0  0  0  0  0  0
   27.4735   -0.8189    5.3935 O   0  0  0  0  0  0  0  0  0  0  0  0
  2  1  1  0
  3  5  1  0
  3  2  1  0
  3  4  1  1
  5  6  2  0
  5  7  1  0
  7 11  1  0
  8  7  1  0
  9  8  1  0
  9 10  1  0
 10 11  1  0
 11 12  1  1
 12 13  2  0
 12 19  1  0
 15 16  1  1
 15 14  1  0
 17 15  1  0
 18 20  1  0
 18 17  1  1
 19 18  1  0
 20 22  1  0
 21 20  2  0
M  END
$$$$
