SPL.pdb
     RDKit          3D

 22 22  0  0  1  0  0  0  0  0999 V2000
   28.3846  -17.5764  -16.6012 O   0  0  0  0  0  0  0  0  0  0  0  0
   27.3050  -18.3623  -16.1958 C   0  0  0  0  0  0  0  0  0  0  0  0
   27.7906  -19.7868  -15.8911 C   0  0  2  0  0  0  0  0  0  0  0  0
   27.9972  -20.3922  -17.1991 N   0  0  0  0  0  0  0  0  0  0  0  0
   26.7806  -20.5234  -15.1220 C   0  0  0  0  0  0  0  0  0  0  0  0
   25.8576  -21.1039  -15.7656 O   0  0  0  0  0  0  0  0  0  0  0  0
   26.7589  -20.6349  -13.7191 N   0  0  0  0  0  0  0  0  0  0  0  0
   27.8393  -20.1307  -12.8574 C   0  0  0  0  0  0  0  0  0  0  0  0
   27.8413  -21.0920  -11.6687 C   0  0  0  0  0  0  0  0  0  0  0  0
   26.3586  -21.3515  -11.5100 C   0  0  0  0  0  0  0  0  0  0  0  0
   25.7530  -21.2244  -12.8734 C   0  0  1  0  0  0  0  0  0  0  0  0
   24.5100  -20.4114  -12.8150 C   0  0  0  0  0  0  0  0  0  0  0  0
   24.5278  -19.1551  -12.7516 O   0  0  0  0  0  0  0  0  0  0  0  0
   20.5806  -20.2447  -16.8147 C   0  0  0  0  0  0  0  0  0  0  0  0
   20.8088  -19.8304  -15.4012 C   0  0  2  0  0  0  0  0  0  0  0  0
   20.8316  -18.3329  -15.3167 C   0  0  0  0  0  0  0  0  0  0  0  0
   22.0576  -20.4211  -14.7977 C   0  0  0  0  0  0  0  0  0  0  0  0
   22.0376  -20.4435  -13.3060 C   0  0  2  0  0  0  0  0  0  0  0  0
   23.2655  -21.0576  -12.8303 N   0  0  0  0  0  0  0  0  0  0  0  0
   20.8687  -21.2599  -12.8772 C   0  0  0  0  0  0  0  0  0  0  0  0
   19.8226  -20.7641  -12.3845 O   0  0  0  0  0  0  0  0  0  0  0  0
   20.9127  -22.6401  -13.0186 O   0  0  0  0  0  0  0  0  0  0  0  0
  2  1  1  0
  3  5  1  0
  3  2  1  0
  3  4  1  6
  5  6  2  0
  5  7  1  0
  7 11  1  0
  8  7  1  0
  9  8  1  0
  9 10  1  0
 10 11  1  0
 11 12  1  1
 12 13  2  0
 12 19  1  0
 15 16  1  6
 15 14  1  0
 17 15  1  0
 18 20  1  0
 18 17  1  6
 19 18  1  0
 20 22  1  0
 21 20  2  0
M  END
$$$$
