SPL.pdb
     RDKit          3D

 22 22  0  0  1  0  0  0  0  0999 V2000
   22.9055  -19.4429  -13.2290 O   0  0  0  0  0  0  0  0  0  0  0  0
   23.1505  -20.4840  -12.3325 C   0  0  0  0  0  0  0  0  0  0  0  0
   24.3498  -21.3107  -12.8186 C   0  0  2  0  0  0  0  0  0  0  0  0
   23.7791  -22.5925  -13.2077 N   0  0  0  0  0  0  0  0  0  0  0  0
   25.3336  -21.4758  -11.7420 C   0  0  0  0  0  0  0  0  0  0  0  0
   25.0072  -22.1920  -10.7503 O   0  0  0  0  0  0  0  0  0  0  0  0
   26.6168  -20.8976  -11.7271 N   0  0  0  0  0  0  0  0  0  0  0  0
   27.1481  -20.0951  -12.8396 C   0  0  0  0  0  0  0  0  0  0  0  0
   28.6525  -20.3649  -12.8027 C   0  0  0  0  0  0  0  0  0  0  0  0
   28.8912  -20.4425  -11.3101 C   0  0  0  0  0  0  0  0  0  0  0  0
   27.6245  -20.9572  -10.6998 C   0  0  1  0  0  0  0  0  0  0  0  0
   27.2638  -20.1561   -9.5008 C   0  0  0  0  0  0  0  0  0  0  0  0
   26.5372  -19.1313   -9.5676 O   0  0  0  0  0  0  0  0  0  0  0  0
   26.2975  -21.0498   -4.5449 C   0  0  0  0  0  0  0  0  0  0  0  0
   27.5353  -21.5309   -5.2216 C   0  0  2  0  0  0  0  0  0  0  0  0
   28.4038  -22.2433   -4.2276 C   0  0  0  0  0  0  0  0  0  0  0  0
   28.3026  -20.4353   -5.9169 C   0  0  0  0  0  0  0  0  0  0  0  0
   27.5363  -19.7887   -7.0217 C   0  0  2  0  0  0  0  0  0  0  0  0
   27.7453  -20.5474   -8.2432 N   0  0  0  0  0  0  0  0  0  0  0  0
   28.0610  -18.4059   -7.1933 C   0  0  0  0  0  0  0  0  0  0  0  0
   27.5875  -17.4073   -6.5921 O   0  0  0  0  0  0  0  0  0  0  0  0
   29.1262  -18.1833   -8.0551 O   0  0  0  0  0  0  0  0  0  0  0  0
  2  1  1  0
  3  5  1  0
  3  2  1  0
  3  4  1  1
  5  6  2  0
  5  7  1  0
  7 11  1  0
  8  7  1  0
  9  8  1  0
  9 10  1  0
 10 11  1  0
 11 12  1  1
 12 13  2  0
 12 19  1  0
 15 16  1  1
 15 14  1  0
 17 15  1  0
 18 20  1  0
 18 17  1  1
 19 18  1  0
 20 22  1  0
 21 20  2  0
M  END
$$$$
