SPL.pdb
     RDKit          3D

 22 22  0  0  1  0  0  0  0  0999 V2000
   16.4337   -9.7898  -17.7835 O   0  0  0  0  0  0  0  0  0  0  0  0
   16.9467  -10.9451  -18.3750 C   0  0  0  0  0  0  0  0  0  0  0  0
   17.9196  -10.5599  -19.4988 C   0  0  2  0  0  0  0  0  0  0  0  0
   18.3657  -11.8313  -20.0506 N   0  0  0  0  0  0  0  0  0  0  0  0
   19.0494   -9.7914  -18.9630 C   0  0  0  0  0  0  0  0  0  0  0  0
   19.9752  -10.4316  -18.3831 O   0  0  0  0  0  0  0  0  0  0  0  0
   19.1840   -8.3927  -19.0447 N   0  0  0  0  0  0  0  0  0  0  0  0
   18.2418   -7.5379  -19.7833 C   0  0  0  0  0  0  0  0  0  0  0  0
   19.1079   -6.3814  -20.2831 C   0  0  0  0  0  0  0  0  0  0  0  0
   20.0458   -6.2002  -19.1091 C   0  0  0  0  0  0  0  0  0  0  0  0
   20.1974   -7.5458  -18.4701 C   0  0  1  0  0  0  0  0  0  0  0  0
   20.0766   -7.4349  -16.9928 C   0  0  0  0  0  0  0  0  0  0  0  0
   18.9891   -7.6218  -16.3887 O   0  0  0  0  0  0  0  0  0  0  0  0
   22.6345   -9.9044  -12.4707 C   0  0  0  0  0  0  0  0  0  0  0  0
   21.9553   -8.6423  -12.8796 C   0  0  2  0  0  0  0  0  0  0  0  0
   20.6095   -8.5631  -12.2220 C   0  0  0  0  0  0  0  0  0  0  0  0
   21.8327   -8.4846  -14.3738 C   0  0  0  0  0  0  0  0  0  0  0  0
   21.2597   -7.1691  -14.7826 C   0  0  2  0  0  0  0  0  0  0  0  0
   21.2102   -7.1103  -16.2336 N   0  0  0  0  0  0  0  0  0  0  0  0
   22.1581   -6.0996  -14.2669 C   0  0  0  0  0  0  0  0  0  0  0  0
   23.1844   -5.7046  -14.8782 O   0  0  0  0  0  0  0  0  0  0  0  0
   21.8685   -5.4932  -13.0523 O   0  0  0  0  0  0  0  0  0  0  0  0
  2  1  1  0
  3  5  1  0
  3  2  1  0
  3  4  1  1
  5  6  2  0
  5  7  1  0
  7 11  1  0
  8  7  1  0
  9  8  1  0
  9 10  1  0
 10 11  1  0
 11 12  1  1
 12 13  2  0
 12 19  1  0
 15 16  1  1
 15 14  1  0
 17 15  1  0
 18 20  1  0
 18 17  1  6
 19 18  1  0
 20 22  1  0
 21 20  2  0
M  END
$$$$
