SPL.pdb
     RDKit          3D

 22 22  0  0  1  0  0  0  0  0999 V2000
   28.5249  -18.0301  -15.5927 O   0  0  0  0  0  0  0  0  0  0  0  0
   27.3426  -18.7588  -15.4549 C   0  0  0  0  0  0  0  0  0  0  0  0
   27.6612  -20.1593  -14.9119 C   0  0  2  0  0  0  0  0  0  0  0  0
   28.1791  -20.8896  -16.0601 N   0  0  0  0  0  0  0  0  0  0  0  0
   26.4490  -20.7965  -14.3839 C   0  0  0  0  0  0  0  0  0  0  0  0
   25.6891  -21.3888  -15.2054 O   0  0  0  0  0  0  0  0  0  0  0  0
   26.0649  -20.8004  -13.0298 N   0  0  0  0  0  0  0  0  0  0  0  0
   26.8930  -20.2242  -11.9593 C   0  0  0  0  0  0  0  0  0  0  0  0
   26.5758  -21.0917  -10.7410 C   0  0  0  0  0  0  0  0  0  0  0  0
   25.0991  -21.3484  -10.9511 C   0  0  0  0  0  0  0  0  0  0  0  0
   24.8673  -21.3303  -12.4303 C   0  0  1  0  0  0  0  0  0  0  0  0
   23.6621  -20.5238  -12.7564 C   0  0  0  0  0  0  0  0  0  0  0  0
   23.6602  -19.2665  -12.7156 O   0  0  0  0  0  0  0  0  0  0  0  0
   21.7989  -18.9594  -16.1032 C   0  0  0  0  0  0  0  0  0  0  0  0
   21.7946  -20.4407  -15.9377 C   0  0  2  0  0  0  0  0  0  0  0  0
   21.4813  -21.0898  -17.2531 C   0  0  0  0  0  0  0  0  0  0  0  0
   20.8516  -20.9210  -14.8640 C   0  0  0  0  0  0  0  0  0  0  0  0
   21.2513  -20.4902  -13.4927 C   0  0  2  0  0  0  0  0  0  0  0  0
   22.4773  -21.1777  -13.1245 N   0  0  0  0  0  0  0  0  0  0  0  0
   20.1592  -20.8749  -12.5566 C   0  0  0  0  0  0  0  0  0  0  0  0
   20.0707  -22.0131  -12.0280 O   0  0  0  0  0  0  0  0  0  0  0  0
   19.1777  -19.9469  -12.2364 O   0  0  0  0  0  0  0  0  0  0  0  0
  2  1  1  0
  3  5  1  0
  3  2  1  0
  3  4  1  6
  5  6  2  0
  5  7  1  0
  7 11  1  0
  8  7  1  0
  9  8  1  0
  9 10  1  0
 10 11  1  0
 11 12  1  1
 12 13  2  0
 12 19  1  0
 15 16  1  6
 15 14  1  0
 17 15  1  0
 18 20  1  0
 18 17  1  6
 19 18  1  0
 20 22  1  0
 21 20  2  0
M  END
$$$$
