SPL.pdb
     RDKit          3D

 22 22  0  0  1  0  0  0  0  0999 V2000
   25.8361  -22.5791  -18.1664 O   0  0  0  0  0  0  0  0  0  0  0  0
   25.8926  -22.1643  -16.8351 C   0  0  0  0  0  0  0  0  0  0  0  0
   27.2647  -21.5371  -16.5488 C   0  0  2  0  0  0  0  0  0  0  0  0
   28.2186  -22.6062  -16.8074 N   0  0  0  0  0  0  0  0  0  0  0  0
   27.3447  -21.0838  -15.1551 C   0  0  0  0  0  0  0  0  0  0  0  0
   27.8853  -21.8597  -14.3133 O   0  0  0  0  0  0  0  0  0  0  0  0
   26.8654  -19.8484  -14.6806 N   0  0  0  0  0  0  0  0  0  0  0  0
   26.1967  -18.8623  -15.5434 C   0  0  0  0  0  0  0  0  0  0  0  0
   26.5752  -17.5159  -14.9258 C   0  0  0  0  0  0  0  0  0  0  0  0
   26.5509  -17.8617  -13.4525 C   0  0  0  0  0  0  0  0  0  0  0  0
   26.9182  -19.3094  -13.3460 C   0  0  1  0  0  0  0  0  0  0  0  0
   25.9989  -20.0102  -12.4116 C   0  0  0  0  0  0  0  0  0  0  0  0
   24.9008  -20.4978  -12.7844 O   0  0  0  0  0  0  0  0  0  0  0  0
   25.9814  -18.7168   -8.4457 C   0  0  0  0  0  0  0  0  0  0  0  0
   26.0916  -20.0915   -7.8803 C   0  0  2  0  0  0  0  0  0  0  0  0
   27.0005  -20.0700   -6.6872 C   0  0  0  0  0  0  0  0  0  0  0  0
   26.5491  -21.1180   -8.8851 C   0  0  0  0  0  0  0  0  0  0  0  0
   25.7583  -21.0977  -10.1501 C   0  0  2  0  0  0  0  0  0  0  0  0
   26.3583  -20.1388  -11.0622 N   0  0  0  0  0  0  0  0  0  0  0  0
   24.3714  -20.6722   -9.8149 C   0  0  0  0  0  0  0  0  0  0  0  0
   23.9095  -19.5365  -10.0971 O   0  0  0  0  0  0  0  0  0  0  0  0
   23.5272  -21.5568   -9.1578 O   0  0  0  0  0  0  0  0  0  0  0  0
  2  1  1  0
  3  5  1  0
  3  2  1  0
  3  4  1  1
  5  6  2  0
  5  7  1  0
  7 11  1  0
  8  7  1  0
  9  8  1  0
  9 10  1  0
 10 11  1  0
 11 12  1  1
 12 13  2  0
 12 19  1  0
 15 16  1  1
 15 14  1  0
 17 15  1  0
 18 20  1  0
 18 17  1  1
 19 18  1  0
 20 22  1  0
 21 20  2  0
M  END
$$$$
