SPL.pdb
     RDKit          3D

 22 22  0  0  1  0  0  0  0  0999 V2000
   28.5389  -22.3025  -15.3730 O   0  0  0  0  0  0  0  0  0  0  0  0
   28.3766  -21.6893  -14.1298 C   0  0  0  0  0  0  0  0  0  0  0  0
   27.5040  -20.4353  -14.2840 C   0  0  2  0  0  0  0  0  0  0  0  0
   28.4050  -19.4240  -14.8184 N   0  0  0  0  0  0  0  0  0  0  0  0
   26.9582  -20.0230  -12.9854 C   0  0  0  0  0  0  0  0  0  0  0  0
   27.6970  -19.3246  -12.2308 O   0  0  0  0  0  0  0  0  0  0  0  0
   25.6722  -20.3449  -12.5127 N   0  0  0  0  0  0  0  0  0  0  0  0
   24.7024  -21.1270  -13.2948 C   0  0  0  0  0  0  0  0  0  0  0  0
   23.3455  -20.5758  -12.8563 C   0  0  0  0  0  0  0  0  0  0  0  0
   23.6023  -20.3240  -11.3861 C   0  0  0  0  0  0  0  0  0  0  0  0
   25.0596  -20.0063  -11.2539 C   0  0  1  0  0  0  0  0  0  0  0  0
   25.6516  -20.7528  -10.1131 C   0  0  0  0  0  0  0  0  0  0  0  0
   25.9555  -21.9712  -10.1889 O   0  0  0  0  0  0  0  0  0  0  0  0
   29.1472  -20.5582   -6.6403 C   0  0  0  0  0  0  0  0  0  0  0  0
   28.2558  -19.3850   -6.8651 C   0  0  2  0  0  0  0  0  0  0  0  0
   28.6524  -18.2715   -5.9417 C   0  0  0  0  0  0  0  0  0  0  0  0
   26.7907  -19.7085   -6.7177 C   0  0  0  0  0  0  0  0  0  0  0  0
   26.3160  -20.7439   -7.6813 C   0  0  2  0  0  0  0  0  0  0  0  0
   25.8848  -20.0848   -8.9023 N   0  0  0  0  0  0  0  0  0  0  0  0
   25.1637  -21.4526   -7.0592 C   0  0  0  0  0  0  0  0  0  0  0  0
   23.9631  -21.1552   -7.2895 O   0  0  0  0  0  0  0  0  0  0  0  0
   25.4021  -22.4977   -6.1772 O   0  0  0  0  0  0  0  0  0  0  0  0
  2  1  1  0
  3  5  1  0
  3  2  1  0
  3  4  1  1
  5  6  2  0
  5  7  1  0
  7 11  1  0
  8  7  1  0
  9  8  1  0
  9 10  1  0
 10 11  1  0
 11 12  1  1
 12 13  2  0
 12 19  1  0
 15 16  1  1
 15 14  1  0
 17 15  1  0
 18 20  1  0
 18 17  1  1
 19 18  1  0
 20 22  1  0
 21 20  2  0
M  END
$$$$
