SPL.pdb
     RDKit          3D

 22 22  0  0  1  0  0  0  0  0999 V2000
   26.5480  -18.5725  -15.9164 O   0  0  0  0  0  0  0  0  0  0  0  0
   27.7527  -18.7956  -15.2481 C   0  0  0  0  0  0  0  0  0  0  0  0
   27.9184  -20.2971  -14.9723 C   0  0  2  0  0  0  0  0  0  0  0  0
   28.2775  -20.8700  -16.2618 N   0  0  0  0  0  0  0  0  0  0  0  0
   26.6646  -20.8714  -14.4701 C   0  0  0  0  0  0  0  0  0  0  0  0
   25.9132  -21.4626  -15.3002 O   0  0  0  0  0  0  0  0  0  0  0  0
   26.2316  -20.8159  -13.1320 N   0  0  0  0  0  0  0  0  0  0  0  0
   27.0330  -20.2169  -12.0537 C   0  0  0  0  0  0  0  0  0  0  0  0
   26.6525  -21.0307  -10.8166 C   0  0  0  0  0  0  0  0  0  0  0  0
   25.1790  -21.2643  -11.0717 C   0  0  0  0  0  0  0  0  0  0  0  0
   25.0015  -21.2974  -12.5581 C   0  0  1  0  0  0  0  0  0  0  0  0
   23.8272  -20.4789  -12.9584 C   0  0  0  0  0  0  0  0  0  0  0  0
   23.8422  -19.2212  -12.9362 O   0  0  0  0  0  0  0  0  0  0  0  0
   22.1327  -18.6920  -16.2213 C   0  0  0  0  0  0  0  0  0  0  0  0
   22.1315  -20.1796  -16.1273 C   0  0  2  0  0  0  0  0  0  0  0  0
   21.9381  -20.7667  -17.4939 C   0  0  0  0  0  0  0  0  0  0  0  0
   21.1068  -20.7183  -15.1617 C   0  0  0  0  0  0  0  0  0  0  0  0
   21.4295  -20.4241  -13.7350 C   0  0  2  0  0  0  0  0  0  0  0  0
   22.6534  -21.1213  -13.3783 N   0  0  0  0  0  0  0  0  0  0  0  0
   20.3038  -20.9257  -12.8994 C   0  0  0  0  0  0  0  0  0  0  0  0
   19.3138  -20.2193  -12.5772 O   0  0  0  0  0  0  0  0  0  0  0  0
   20.3264  -22.2359  -12.4412 O   0  0  0  0  0  0  0  0  0  0  0  0
  2  1  1  0
  3  5  1  0
  3  2  1  0
  3  4  1  6
  5  6  2  0
  5  7  1  0
  7 11  1  0
  8  7  1  0
  9  8  1  0
  9 10  1  0
 10 11  1  0
 11 12  1  1
 12 13  2  0
 12 19  1  0
 15 16  1  6
 15 14  1  0
 17 15  1  0
 18 20  1  0
 18 17  1  6
 19 18  1  0
 20 22  1  0
 21 20  2  0
M  END
$$$$
