SPL.pdb
     RDKit          3D

 22 22  0  0  1  0  0  0  0  0999 V2000
   23.3824  -20.6281  -16.1896 O   0  0  0  0  0  0  0  0  0  0  0  0
   23.6391  -21.8505  -16.8121 C   0  0  0  0  0  0  0  0  0  0  0  0
   25.1488  -22.0011  -17.0486 C   0  0  2  0  0  0  0  0  0  0  0  0
   25.2814  -23.2426  -17.7976 N   0  0  0  0  0  0  0  0  0  0  0  0
   25.8668  -22.0763  -15.7707 C   0  0  0  0  0  0  0  0  0  0  0  0
   25.8957  -23.1937  -15.1759 O   0  0  0  0  0  0  0  0  0  0  0  0
   26.5283  -20.9982  -15.1532 N   0  0  0  0  0  0  0  0  0  0  0  0
   26.7417  -19.7023  -15.8156 C   0  0  0  0  0  0  0  0  0  0  0  0
   28.0619  -19.2019  -15.2292 C   0  0  0  0  0  0  0  0  0  0  0  0
   27.9383  -19.6820  -13.7992 C   0  0  0  0  0  0  0  0  0  0  0  0
   27.1042  -20.9250  -13.8351 C   0  0  1  0  0  0  0  0  0  0  0  0
   26.0739  -20.8891  -12.7643 C   0  0  0  0  0  0  0  0  0  0  0  0
   24.8974  -20.4955  -12.9730 O   0  0  0  0  0  0  0  0  0  0  0  0
   26.5053  -19.7677   -6.8328 C   0  0  0  0  0  0  0  0  0  0  0  0
   25.6574  -20.3376   -7.9181 C   0  0  2  0  0  0  0  0  0  0  0  0
   24.8783  -21.5029   -7.3841 C   0  0  0  0  0  0  0  0  0  0  0  0
   26.4395  -20.7319   -9.1451 C   0  0  0  0  0  0  0  0  0  0  0  0
   25.5734  -21.1007  -10.3027 C   0  0  2  0  0  0  0  0  0  0  0  0
   26.4142  -21.3070  -11.4696 N   0  0  0  0  0  0  0  0  0  0  0  0
   24.6375  -19.9697  -10.5515 C   0  0  0  0  0  0  0  0  0  0  0  0
   25.0129  -18.8363  -10.9483 O   0  0  0  0  0  0  0  0  0  0  0  0
   23.2775  -20.1518  -10.3417 O   0  0  0  0  0  0  0  0  0  0  0  0
  2  1  1  0
  3  5  1  0
  3  2  1  0
  3  4  1  6
  5  6  2  0
  5  7  1  0
  7 11  1  0
  8  7  1  0
  9  8  1  0
  9 10  1  0
 10 11  1  0
 11 12  1  1
 12 13  2  0
 12 19  1  0
 15 16  1  1
 15 14  1  0
 17 15  1  0
 18 20  1  0
 18 17  1  1
 19 18  1  0
 20 22  1  0
 21 20  2  0
M  END
$$$$
