SPL.pdb
     RDKit          3D

 22 22  0  0  1  0  0  0  0  0999 V2000
   24.1111  -21.1940  -16.8995 O   0  0  0  0  0  0  0  0  0  0  0  0
   24.9902  -22.2116  -17.2729 C   0  0  0  0  0  0  0  0  0  0  0  0
   26.4369  -21.7096  -17.1601 C   0  0  2  0  0  0  0  0  0  0  0  0
   27.2434  -22.7833  -17.7230 N   0  0  0  0  0  0  0  0  0  0  0  0
   26.7904  -21.4638  -15.7570 C   0  0  0  0  0  0  0  0  0  0  0  0
   27.1662  -22.4532  -15.0620 O   0  0  0  0  0  0  0  0  0  0  0  0
   26.7441  -20.2085  -15.1221 N   0  0  0  0  0  0  0  0  0  0  0  0
   26.3222  -18.9775  -15.8081 C   0  0  0  0  0  0  0  0  0  0  0  0
   27.1373  -17.8782  -15.1266 C   0  0  0  0  0  0  0  0  0  0  0  0
   27.1457  -18.3750  -13.6969 C   0  0  0  0  0  0  0  0  0  0  0  0
   27.0755  -19.8693  -13.7621 C   0  0  1  0  0  0  0  0  0  0  0  0
   26.0787  -20.3845  -12.7873 C   0  0  0  0  0  0  0  0  0  0  0  0
   24.8729  -20.5742  -13.0916 O   0  0  0  0  0  0  0  0  0  0  0  0
   27.8187  -20.2223   -7.5390 C   0  0  0  0  0  0  0  0  0  0  0  0
   26.7839  -20.1111   -8.6059 C   0  0  2  0  0  0  0  0  0  0  0  0
   25.5787  -19.4031   -8.0616 C   0  0  0  0  0  0  0  0  0  0  0  0
   26.3998  -21.4383   -9.2090 C   0  0  0  0  0  0  0  0  0  0  0  0
   25.6354  -21.3074  -10.4836 C   0  0  2  0  0  0  0  0  0  0  0  0
   26.4858  -20.6736  -11.4768 N   0  0  0  0  0  0  0  0  0  0  0  0
   24.4480  -20.4493  -10.2179 C   0  0  0  0  0  0  0  0  0  0  0  0
   23.4275  -20.8525   -9.6023 O   0  0  0  0  0  0  0  0  0  0  0  0
   24.4442  -19.1343  -10.6627 O   0  0  0  0  0  0  0  0  0  0  0  0
  2  1  1  0
  3  5  1  0
  3  2  1  0
  3  4  1  1
  5  6  2  0
  5  7  1  0
  7 11  1  0
  8  7  1  0
  9  8  1  0
  9 10  1  0
 10 11  1  0
 11 12  1  1
 12 13  2  0
 12 19  1  0
 15 16  1  1
 15 14  1  0
 17 15  1  0
 18 20  1  0
 18 17  1  1
 19 18  1  0
 20 22  1  0
 21 20  2  0
M  END
$$$$
