YGP.pdb
     RDKit          3D

 24 25  0  0  1  0  0  0  0  0999 V2000
   29.7635  -19.1113   -3.2720 O   0  0  0  0  0  0  0  0  0  0  0  0
   28.9587  -19.5493   -4.3135 C   0  0  0  0  0  0  0  0  0  0  0  0
   28.6260  -18.6611   -5.3304 C   0  0  0  0  0  0  0  0  0  0  0  0
   27.8268  -19.0672   -6.3803 C   0  0  0  0  0  0  0  0  0  0  0  0
   27.3488  -20.3629   -6.4309 C   0  0  0  0  0  0  0  0  0  0  0  0
   26.4901  -20.8759   -7.5171 C   0  0  0  0  0  0  0  0  0  0  0  0
   26.7205  -20.0627   -8.7482 C   0  0  2  0  0  0  0  0  0  0  0  0
   26.2500  -18.7095   -8.6274 N   0  0  0  0  0  0  0  0  0  0  0  0
   26.1274  -20.7286   -9.9456 C   0  0  0  0  0  0  0  0  0  0  0  0
   24.8899  -20.8579  -10.0496 O   0  0  0  0  0  0  0  0  0  0  0  0
   27.6873  -21.2327   -5.4150 C   0  0  0  0  0  0  0  0  0  0  0  0
   28.4782  -20.8403   -4.3707 C   0  0  0  0  0  0  0  0  0  0  0  0
   26.9779  -21.2184  -10.9736 N   0  0  0  0  0  0  0  0  0  0  0  0
   26.3765  -21.6196  -12.2271 C   0  0  0  0  0  0  0  0  0  0  0  0
   25.8088  -20.4544  -12.9552 C   0  0  0  0  0  0  0  0  0  0  0  0
   24.7549  -19.9398  -12.5376 O   0  0  0  0  0  0  0  0  0  0  0  0
   26.4466  -19.9359  -14.0984 N   0  0  0  0  0  0  0  0  0  0  0  0
   27.6226  -20.4556  -14.7375 C   0  0  0  0  0  0  0  0  0  0  0  0
   28.2519  -19.2550  -15.4550 C   0  0  0  0  0  0  0  0  0  0  0  0
   27.3443  -18.0938  -15.1343 C   0  0  0  0  0  0  0  0  0  0  0  0
   26.0266  -18.7763  -14.8398 C   0  0  1  0  0  0  0  0  0  0  0  0
   25.3189  -19.1849  -16.0877 C   0  0  0  0  0  0  0  0  0  0  0  0
   25.2996  -20.5003  -16.5268 O   0  0  0  0  0  0  0  0  0  0  0  0
   24.7069  -18.3429  -16.7957 O   0  0  0  0  0  0  0  0  0  0  0  0
  2  3  2  0
  2  1  1  0
  4  3  1  0
  5  4  2  0
  6  7  1  0
  6  5  1  0
  7  9  1  0
  7  8  1  1
  9 10  2  0
  9 13  1  0
 11  5  1  0
 11 12  2  0
 12  2  1  0
 13 14  1  0
 14 15  1  0
 15 17  1  0
 15 16  2  0
 17 18  1  0
 18 19  1  0
 20 19  1  0
 21 17  1  0
 21 20  1  0
 21 22  1  6
 23 22  1  0
 24 22  2  0
M  END
$$$$
