YGP.pdb
     RDKit          3D

 24 25  0  0  1  0  0  0  0  0999 V2000
   15.3289  -16.0415  -21.9930 O   0  0  0  0  0  0  0  0  0  0  0  0
   16.3774  -15.2672  -21.5184 C   0  0  0  0  0  0  0  0  0  0  0  0
   17.3307  -14.7974  -22.4151 C   0  0  0  0  0  0  0  0  0  0  0  0
   18.3858  -14.0244  -21.9732 C   0  0  0  0  0  0  0  0  0  0  0  0
   18.5050  -13.7096  -20.6328 C   0  0  0  0  0  0  0  0  0  0  0  0
   19.6015  -12.8898  -20.0797 C   0  0  0  0  0  0  0  0  0  0  0  0
   20.6901  -13.7907  -19.5967 C   0  0  2  0  0  0  0  0  0  0  0  0
   20.3060  -14.5803  -18.4582 N   0  0  0  0  0  0  0  0  0  0  0  0
   21.9355  -13.0175  -19.3137 C   0  0  0  0  0  0  0  0  0  0  0  0
   22.4603  -12.3156  -20.2031 O   0  0  0  0  0  0  0  0  0  0  0  0
   17.5516  -14.1829  -19.7551 C   0  0  0  0  0  0  0  0  0  0  0  0
   16.5028  -14.9491  -20.1827 C   0  0  0  0  0  0  0  0  0  0  0  0
   22.5272  -13.0813  -18.0231 N   0  0  0  0  0  0  0  0  0  0  0  0
   23.7279  -12.3109  -17.7811 C   0  0  0  0  0  0  0  0  0  0  0  0
   23.5509  -11.3720  -16.6421 C   0  0  0  0  0  0  0  0  0  0  0  0
   22.4839  -11.3985  -16.0012 O   0  0  0  0  0  0  0  0  0  0  0  0
   24.5683  -10.4652  -16.2882 N   0  0  0  0  0  0  0  0  0  0  0  0
   25.7994  -10.2365  -16.9909 C   0  0  0  0  0  0  0  0  0  0  0  0
   26.7740   -9.7103  -15.9299 C   0  0  0  0  0  0  0  0  0  0  0  0
   25.9801   -9.6987  -14.6475 C   0  0  0  0  0  0  0  0  0  0  0  0
   24.5544   -9.5942  -15.1428 C   0  0  1  0  0  0  0  0  0  0  0  0
   24.2066   -8.2024  -15.5518 C   0  0  0  0  0  0  0  0  0  0  0  0
   23.7152   -7.2705  -14.6500 O   0  0  0  0  0  0  0  0  0  0  0  0
   24.3476   -7.8183  -16.7424 O   0  0  0  0  0  0  0  0  0  0  0  0
  2  3  2  0
  2  1  1  0
  4  3  1  0
  5  4  2  0
  6  7  1  0
  6  5  1  0
  7  9  1  0
  7  8  1  1
  9 10  2  0
  9 13  1  0
 11  5  1  0
 11 12  2  0
 12  2  1  0
 13 14  1  0
 14 15  1  0
 15 17  1  0
 15 16  2  0
 17 18  1  0
 18 19  1  0
 20 19  1  0
 21 17  1  0
 21 20  1  0
 21 22  1  6
 23 22  1  0
 24 22  2  0
M  END
$$$$
