YGP.pdb
     RDKit          3D

 24 25  0  0  1  0  0  0  0  0999 V2000
   27.5955  -18.8127   -5.9576 O   0  0  0  0  0  0  0  0  0  0  0  0
   27.3814  -19.5595   -7.1068 C   0  0  0  0  0  0  0  0  0  0  0  0
   28.4687  -19.8999   -7.9041 C   0  0  0  0  0  0  0  0  0  0  0  0
   28.2877  -20.6423   -9.0540 C   0  0  0  0  0  0  0  0  0  0  0  0
   27.0219  -21.0550   -9.4244 C   0  0  0  0  0  0  0  0  0  0  0  0
   26.7433  -21.8505  -10.6369 C   0  0  0  0  0  0  0  0  0  0  0  0
   26.2452  -20.9432  -11.7134 C   0  0  2  0  0  0  0  0  0  0  0  0
   24.8649  -20.5761  -11.5485 N   0  0  0  0  0  0  0  0  0  0  0  0
   26.4817  -21.5370  -13.0626 C   0  0  0  0  0  0  0  0  0  0  0  0
   25.5680  -22.1496  -13.6532 O   0  0  0  0  0  0  0  0  0  0  0  0
   25.9530  -20.7096   -8.6235 C   0  0  0  0  0  0  0  0  0  0  0  0
   26.1216  -19.9747   -7.4827 C   0  0  0  0  0  0  0  0  0  0  0  0
   27.7557  -21.4037  -13.6782 N   0  0  0  0  0  0  0  0  0  0  0  0
   27.9069  -21.8551  -15.0446 C   0  0  0  0  0  0  0  0  0  0  0  0
   27.5219  -20.7949  -16.0131 C   0  0  0  0  0  0  0  0  0  0  0  0
   27.2066  -19.6709  -15.5804 O   0  0  0  0  0  0  0  0  0  0  0  0
   27.5115  -21.0501  -17.3978 N   0  0  0  0  0  0  0  0  0  0  0  0
   27.7282  -22.3154  -18.0409 C   0  0  0  0  0  0  0  0  0  0  0  0
   28.2507  -21.9686  -19.4406 C   0  0  0  0  0  0  0  0  0  0  0  0
   28.3045  -20.4616  -19.4707 C   0  0  0  0  0  0  0  0  0  0  0  0
   27.2784  -20.0737  -18.4288 C   0  0  1  0  0  0  0  0  0  0  0  0
   25.8848  -20.1886  -18.9486 C   0  0  0  0  0  0  0  0  0  0  0  0
   25.2835  -19.1721  -19.6755 O   0  0  0  0  0  0  0  0  0  0  0  0
   25.1961  -21.2225  -18.7447 O   0  0  0  0  0  0  0  0  0  0  0  0
  2  3  2  0
  2  1  1  0
  4  3  1  0
  5  4  2  0
  6  7  1  0
  6  5  1  0
  7  9  1  0
  7  8  1  1
  9 10  2  0
  9 13  1  0
 11  5  1  0
 11 12  2  0
 12  2  1  0
 13 14  1  0
 14 15  1  0
 15 17  1  0
 15 16  2  0
 17 18  1  0
 18 19  1  0
 20 19  1  0
 21 17  1  0
 21 20  1  0
 21 22  1  6
 23 22  1  0
 24 22  2  0
M  END
$$$$
