YGP.pdb
     RDKit          3D

 24 25  0  0  1  0  0  0  0  0999 V2000
   19.7301  -18.7514  -14.8794 O   0  0  0  0  0  0  0  0  0  0  0  0
   20.7634  -19.2988  -14.1334 C   0  0  0  0  0  0  0  0  0  0  0  0
   21.8821  -18.5210  -13.8552 C   0  0  0  0  0  0  0  0  0  0  0  0
   22.9269  -19.0376  -13.1152 C   0  0  0  0  0  0  0  0  0  0  0  0
   22.8709  -20.3352  -12.6429 C   0  0  0  0  0  0  0  0  0  0  0  0
   23.9441  -20.9621  -11.8455 C   0  0  0  0  0  0  0  0  0  0  0  0
   25.2096  -20.9563  -12.6383 C   0  0  2  0  0  0  0  0  0  0  0  0
   25.1070  -21.6893  -13.8710 N   0  0  0  0  0  0  0  0  0  0  0  0
   26.3548  -21.4503  -11.8178 C   0  0  0  0  0  0  0  0  0  0  0  0
   26.5736  -22.6748  -11.7091 O   0  0  0  0  0  0  0  0  0  0  0  0
   21.7548  -21.0946  -12.9268 C   0  0  0  0  0  0  0  0  0  0  0  0
   20.7147  -20.5923  -13.6589 C   0  0  0  0  0  0  0  0  0  0  0  0
   27.2013  -20.5199  -11.1561 N   0  0  0  0  0  0  0  0  0  0  0  0
   28.1912  -21.0308  -10.2327 C   0  0  0  0  0  0  0  0  0  0  0  0
   27.6332  -21.1744   -8.8622 C   0  0  0  0  0  0  0  0  0  0  0  0
   26.5962  -21.8444   -8.7023 O   0  0  0  0  0  0  0  0  0  0  0  0
   28.2614  -20.5658   -7.7587 N   0  0  0  0  0  0  0  0  0  0  0  0
   29.4594  -19.7747   -7.7793 C   0  0  0  0  0  0  0  0  0  0  0  0
   30.0524  -19.9096   -6.3713 C   0  0  0  0  0  0  0  0  0  0  0  0
   29.1029  -20.8237   -5.6379 C   0  0  0  0  0  0  0  0  0  0  0  0
   27.8073  -20.6298   -6.3947 C   0  0  1  0  0  0  0  0  0  0  0  0
   27.1236  -19.3599   -6.0139 C   0  0  0  0  0  0  0  0  0  0  0  0
   26.5199  -19.1903   -4.7769 O   0  0  0  0  0  0  0  0  0  0  0  0
   27.0685  -18.3854   -6.8090 O   0  0  0  0  0  0  0  0  0  0  0  0
  2  3  2  0
  2  1  1  0
  4  3  1  0
  5  4  2  0
  6  7  1  0
  6  5  1  0
  7  9  1  0
  7  8  1  6
  9 10  2  0
  9 13  1  0
 11  5  1  0
 11 12  2  0
 12  2  1  0
 13 14  1  0
 14 15  1  0
 15 17  1  0
 15 16  2  0
 17 18  1  0
 18 19  1  0
 20 19  1  0
 21 17  1  0
 21 20  1  0
 21 22  1  1
 23 22  1  0
 24 22  2  0
M  END
$$$$
