YGP.pdb
     RDKit          3D

 24 25  0  0  1  0  0  0  0  0999 V2000
   24.2089  -31.9596  -10.3047 O   0  0  0  0  0  0  0  0  0  0  0  0
   25.1935  -32.1483   -9.3460 C   0  0  0  0  0  0  0  0  0  0  0  0
   26.2513  -33.0073   -9.6232 C   0  0  0  0  0  0  0  0  0  0  0  0
   27.2465  -33.2156   -8.6894 C   0  0  0  0  0  0  0  0  0  0  0  0
   27.2010  -32.5712   -7.4676 C   0  0  0  0  0  0  0  0  0  0  0  0
   28.2238  -32.7391   -6.4159 C   0  0  0  0  0  0  0  0  0  0  0  0
   27.9450  -33.9956   -5.6586 C   0  0  2  0  0  0  0  0  0  0  0  0
   26.7169  -33.9445   -4.9127 N   0  0  0  0  0  0  0  0  0  0  0  0
   29.0930  -34.3495   -4.7722 C   0  0  0  0  0  0  0  0  0  0  0  0
   30.1387  -34.8328   -5.2538 O   0  0  0  0  0  0  0  0  0  0  0  0
   26.1454  -31.7221   -7.2069 C   0  0  0  0  0  0  0  0  0  0  0  0
   25.1547  -31.5090   -8.1251 C   0  0  0  0  0  0  0  0  0  0  0  0
   28.9942  -34.1346   -3.3707 N   0  0  0  0  0  0  0  0  0  0  0  0
   30.1270  -34.4866   -2.5422 C   0  0  0  0  0  0  0  0  0  0  0  0
   29.9373  -35.8124   -1.8968 C   0  0  0  0  0  0  0  0  0  0  0  0
   28.9735  -36.5188   -2.2461 O   0  0  0  0  0  0  0  0  0  0  0  0
   30.8284  -36.2682   -0.9064 N   0  0  0  0  0  0  0  0  0  0  0  0
   31.9911  -35.5842   -0.4148 C   0  0  0  0  0  0  0  0  0  0  0  0
   32.9167  -36.6912    0.1050 C   0  0  0  0  0  0  0  0  0  0  0  0
   32.1719  -37.9752   -0.1626 C   0  0  0  0  0  0  0  0  0  0  0  0
   30.7301  -37.5187   -0.2011 C   0  0  1  0  0  0  0  0  0  0  0  0
   30.1769  -37.3020    1.1672 C   0  0  0  0  0  0  0  0  0  0  0  0
   29.7107  -38.3493    1.9478 O   0  0  0  0  0  0  0  0  0  0  0  0
   30.1120  -36.1494    1.6693 O   0  0  0  0  0  0  0  0  0  0  0  0
  2  3  2  0
  2  1  1  0
  4  3  1  0
  5  4  2  0
  6  7  1  0
  6  5  1  0
  7  9  1  0
  7  8  1  1
  9 10  2  0
  9 13  1  0
 11  5  1  0
 11 12  2  0
 12  2  1  0
 13 14  1  0
 14 15  1  0
 15 17  1  0
 15 16  2  0
 17 18  1  0
 18 19  1  0
 20 19  1  0
 21 17  1  0
 21 20  1  0
 21 22  1  1
 23 22  1  0
 24 22  2  0
M  END
$$$$
