YGP.pdb
     RDKit          3D

 24 25  0  0  1  0  0  0  0  0999 V2000
   19.1736  -20.0288  -12.9160 O   0  0  0  0  0  0  0  0  0  0  0  0
   20.4502  -20.4269  -12.5474 C   0  0  0  0  0  0  0  0  0  0  0  0
   21.2423  -21.0987  -13.4721 C   0  0  0  0  0  0  0  0  0  0  0  0
   22.5171  -21.5077  -13.1351 C   0  0  0  0  0  0  0  0  0  0  0  0
   23.0193  -21.2529  -11.8730 C   0  0  0  0  0  0  0  0  0  0  0  0
   24.3703  -21.6559  -11.4338 C   0  0  0  0  0  0  0  0  0  0  0  0
   25.2838  -20.4777  -11.5180 C   0  0  2  0  0  0  0  0  0  0  0  0
   25.6650  -20.1539  -12.8660 N   0  0  0  0  0  0  0  0  0  0  0  0
   26.4870  -20.6735  -10.6560 C   0  0  0  0  0  0  0  0  0  0  0  0
   27.3078  -21.5791  -10.9115 O   0  0  0  0  0  0  0  0  0  0  0  0
   22.2219  -20.5854  -10.9664 C   0  0  0  0  0  0  0  0  0  0  0  0
   20.9580  -20.1762  -11.2904 C   0  0  0  0  0  0  0  0  0  0  0  0
   26.6988  -19.8230   -9.5372 N   0  0  0  0  0  0  0  0  0  0  0  0
   27.8930  -20.0190   -8.7440 C   0  0  0  0  0  0  0  0  0  0  0  0
   27.5674  -20.1842   -7.3029 C   0  0  0  0  0  0  0  0  0  0  0  0
   26.3948  -20.4471   -6.9777 O   0  0  0  0  0  0  0  0  0  0  0  0
   28.5630  -20.0472   -6.3167 N   0  0  0  0  0  0  0  0  0  0  0  0
   29.9598  -19.7955   -6.5337 C   0  0  0  0  0  0  0  0  0  0  0  0
   30.6660  -20.3657   -5.2973 C   0  0  0  0  0  0  0  0  0  0  0  0
   29.5578  -20.9356   -4.4476 C   0  0  0  0  0  0  0  0  0  0  0  0
   28.3539  -20.1364   -4.8958 C   0  0  1  0  0  0  0  0  0  0  0  0
   28.3303  -18.7748   -4.2869 C   0  0  0  0  0  0  0  0  0  0  0  0
   28.6306  -17.6354   -5.0183 O   0  0  0  0  0  0  0  0  0  0  0  0
   28.0339  -18.6077   -3.0749 O   0  0  0  0  0  0  0  0  0  0  0  0
  2  3  2  0
  2  1  1  0
  4  3  1  0
  5  4  2  0
  6  7  1  0
  6  5  1  0
  7  9  1  0
  7  8  1  6
  9 10  2  0
  9 13  1  0
 11  5  1  0
 11 12  2  0
 12  2  1  0
 13 14  1  0
 14 15  1  0
 15 17  1  0
 15 16  2  0
 17 18  1  0
 18 19  1  0
 20 19  1  0
 21 17  1  0
 21 20  1  0
 21 22  1  1
 23 22  1  0
 24 22  2  0
M  END
$$$$
