YGP.pdb
     RDKit          3D

 24 25  0  0  1  0  0  0  0  0999 V2000
   20.3062  -20.9178  -15.0296 O   0  0  0  0  0  0  0  0  0  0  0  0
   21.2259  -20.7694  -14.0019 C   0  0  0  0  0  0  0  0  0  0  0  0
   22.1620  -19.7437  -14.0752 C   0  0  0  0  0  0  0  0  0  0  0  0
   23.0902  -19.5703  -13.0680 C   0  0  0  0  0  0  0  0  0  0  0  0
   23.0979  -20.4161  -11.9750 C   0  0  0  0  0  0  0  0  0  0  0  0
   24.0554  -20.2988  -10.8571 C   0  0  0  0  0  0  0  0  0  0  0  0
   25.4418  -20.4885  -11.3786 C   0  0  2  0  0  0  0  0  0  0  0  0
   25.6799  -21.8147  -11.8802 N   0  0  0  0  0  0  0  0  0  0  0  0
   26.4548  -20.1190  -10.3460 C   0  0  0  0  0  0  0  0  0  0  0  0
   26.4041  -19.0077   -9.7790 O   0  0  0  0  0  0  0  0  0  0  0  0
   22.1631  -21.4290  -11.9162 C   0  0  0  0  0  0  0  0  0  0  0  0
   21.2396  -21.6092  -12.9085 C   0  0  0  0  0  0  0  0  0  0  0  0
   27.4836  -21.0390  -10.0066 N   0  0  0  0  0  0  0  0  0  0  0  0
   28.4109  -20.6734   -8.9577 C   0  0  0  0  0  0  0  0  0  0  0  0
   27.7499  -20.6658   -7.6261 C   0  0  0  0  0  0  0  0  0  0  0  0
   26.5859  -21.0969   -7.5302 O   0  0  0  0  0  0  0  0  0  0  0  0
   28.4224  -20.1808   -6.4881 N   0  0  0  0  0  0  0  0  0  0  0  0
   29.6973  -19.5209   -6.4584 C   0  0  0  0  0  0  0  0  0  0  0  0
   30.2521  -19.7852   -5.0532 C   0  0  0  0  0  0  0  0  0  0  0  0
   29.2011  -20.6278   -4.3748 C   0  0  0  0  0  0  0  0  0  0  0  0
   27.9443  -20.2618   -5.1333 C   0  0  1  0  0  0  0  0  0  0  0  0
   27.3925  -18.9464   -4.6969 C   0  0  0  0  0  0  0  0  0  0  0  0
   26.6624  -18.8055   -3.5262 O   0  0  0  0  0  0  0  0  0  0  0  0
   27.5708  -17.9051   -5.3816 O   0  0  0  0  0  0  0  0  0  0  0  0
  2  3  2  0
  2  1  1  0
  4  3  1  0
  5  4  2  0
  6  7  1  0
  6  5  1  0
  7  9  1  0
  7  8  1  1
  9 10  2  0
  9 13  1  0
 11  5  1  0
 11 12  2  0
 12  2  1  0
 13 14  1  0
 14 15  1  0
 15 17  1  0
 15 16  2  0
 17 18  1  0
 18 19  1  0
 20 19  1  0
 21 17  1  0
 21 20  1  0
 21 22  1  1
 23 22  1  0
 24 22  2  0
M  END
$$$$
