YGP.pdb
     RDKit          3D

 24 25  0  0  1  0  0  0  0  0999 V2000
   21.1211  -21.8649   -8.3897 O   0  0  0  0  0  0  0  0  0  0  0  0
   22.1778  -21.3410   -9.1197 C   0  0  0  0  0  0  0  0  0  0  0  0
   22.1117  -21.3529  -10.5086 C   0  0  0  0  0  0  0  0  0  0  0  0
   23.1475  -20.8388  -11.2628 C   0  0  0  0  0  0  0  0  0  0  0  0
   24.2623  -20.3064  -10.6434 C   0  0  0  0  0  0  0  0  0  0  0  0
   25.4114  -19.7376  -11.3759 C   0  0  0  0  0  0  0  0  0  0  0  0
   26.2257  -20.8506  -11.9487 C   0  0  2  0  0  0  0  0  0  0  0  0
   26.9497  -21.5915  -10.9517 N   0  0  0  0  0  0  0  0  0  0  0  0
   27.1457  -20.3460  -13.0108 C   0  0  0  0  0  0  0  0  0  0  0  0
   28.0914  -19.5846  -12.7193 O   0  0  0  0  0  0  0  0  0  0  0  0
   24.3137  -20.3015   -9.2648 C   0  0  0  0  0  0  0  0  0  0  0  0
   23.2931  -20.8082   -8.5088 C   0  0  0  0  0  0  0  0  0  0  0  0
   26.9429  -20.7353  -14.3625 N   0  0  0  0  0  0  0  0  0  0  0  0
   27.8440  -20.2147  -15.3679 C   0  0  0  0  0  0  0  0  0  0  0  0
   27.2737  -19.0188  -16.0421 C   0  0  0  0  0  0  0  0  0  0  0  0
   26.2237  -18.5205  -15.5959 O   0  0  0  0  0  0  0  0  0  0  0  0
   27.9047  -18.4535  -17.1669 N   0  0  0  0  0  0  0  0  0  0  0  0
   29.1334  -18.8852  -17.7713 C   0  0  0  0  0  0  0  0  0  0  0  0
   29.6939  -17.6409  -18.4713 C   0  0  0  0  0  0  0  0  0  0  0  0
   28.6951  -16.5495  -18.1777 C   0  0  0  0  0  0  0  0  0  0  0  0
   27.4228  -17.3266  -17.9209 C   0  0  1  0  0  0  0  0  0  0  0  0
   26.7830  -17.7840  -19.1884 C   0  0  0  0  0  0  0  0  0  0  0  0
   26.8668  -19.0982  -19.6236 O   0  0  0  0  0  0  0  0  0  0  0  0
   26.1370  -16.9865  -19.9174 O   0  0  0  0  0  0  0  0  0  0  0  0
  2  3  2  0
  2  1  1  0
  4  3  1  0
  5  4  2  0
  6  7  1  0
  6  5  1  0
  7  9  1  0
  7  8  1  1
  9 10  2  0
  9 13  1  0
 11  5  1  0
 11 12  2  0
 12  2  1  0
 13 14  1  0
 14 15  1  0
 15 17  1  0
 15 16  2  0
 17 18  1  0
 18 19  1  0
 20 19  1  0
 21 17  1  0
 21 20  1  0
 21 22  1  6
 23 22  1  0
 24 22  2  0
M  END
$$$$
