YGP.pdb
     RDKit          3D

 24 25  0  0  1  0  0  0  0  0999 V2000
   22.0736  -18.7789  -17.2701 O   0  0  0  0  0  0  0  0  0  0  0  0
   22.5856  -18.8962  -15.9863 C   0  0  0  0  0  0  0  0  0  0  0  0
   23.6589  -19.7515  -15.7621 C   0  0  0  0  0  0  0  0  0  0  0  0
   24.1905  -19.8897  -14.4955 C   0  0  0  0  0  0  0  0  0  0  0  0
   23.6602  -19.1780  -13.4362 C   0  0  0  0  0  0  0  0  0  0  0  0
   24.1698  -19.2688  -12.0532 C   0  0  0  0  0  0  0  0  0  0  0  0
   24.1986  -20.7022  -11.6356 C   0  0  2  0  0  0  0  0  0  0  0  0
   22.8896  -21.2893  -11.5414 N   0  0  0  0  0  0  0  0  0  0  0  0
   24.9517  -20.8699  -10.3575 C   0  0  0  0  0  0  0  0  0  0  0  0
   24.3415  -21.0314   -9.2801 O   0  0  0  0  0  0  0  0  0  0  0  0
   22.5955  -18.3335  -13.6740 C   0  0  0  0  0  0  0  0  0  0  0  0
   22.0617  -18.1895  -14.9247 C   0  0  0  0  0  0  0  0  0  0  0  0
   26.3727  -20.8455  -10.3679 N   0  0  0  0  0  0  0  0  0  0  0  0
   27.0797  -21.7302   -9.4672 C   0  0  0  0  0  0  0  0  0  0  0  0
   26.8903  -21.3268   -8.0490 C   0  0  0  0  0  0  0  0  0  0  0  0
   25.8095  -21.5878   -7.4888 O   0  0  0  0  0  0  0  0  0  0  0  0
   27.9114  -20.6606   -7.3445 N   0  0  0  0  0  0  0  0  0  0  0  0
   29.1267  -20.1267   -7.8917 C   0  0  0  0  0  0  0  0  0  0  0  0
   30.1211  -20.1172   -6.7240 C   0  0  0  0  0  0  0  0  0  0  0  0
   29.3539  -20.6895   -5.5583 C   0  0  0  0  0  0  0  0  0  0  0  0
   27.9178  -20.3929   -5.9307 C   0  0  1  0  0  0  0  0  0  0  0  0
   27.5564  -18.9694   -5.6692 C   0  0  0  0  0  0  0  0  0  0  0  0
   27.3819  -18.4776   -4.3842 O   0  0  0  0  0  0  0  0  0  0  0  0
   27.3947  -18.1536   -6.6143 O   0  0  0  0  0  0  0  0  0  0  0  0
  2  3  2  0
  2  1  1  0
  4  3  1  0
  5  4  2  0
  6  7  1  0
  6  5  1  0
  7  9  1  0
  7  8  1  1
  9 10  2  0
  9 13  1  0
 11  5  1  0
 11 12  2  0
 12  2  1  0
 13 14  1  0
 14 15  1  0
 15 17  1  0
 15 16  2  0
 17 18  1  0
 18 19  1  0
 20 19  1  0
 21 17  1  0
 21 20  1  0
 21 22  1  6
 23 22  1  0
 24 22  2  0
M  END
$$$$
