YGP.pdb
     RDKit          3D

 24 25  0  0  1  0  0  0  0  0999 V2000
   23.0669  -20.6436  -16.8603 O   0  0  0  0  0  0  0  0  0  0  0  0
   23.2750  -20.5589  -15.4915 C   0  0  0  0  0  0  0  0  0  0  0  0
   22.7051  -21.5172  -14.6604 C   0  0  0  0  0  0  0  0  0  0  0  0
   22.8942  -21.4598  -13.2941 C   0  0  0  0  0  0  0  0  0  0  0  0
   23.6532  -20.4476  -12.7380 C   0  0  0  0  0  0  0  0  0  0  0  0
   23.9033  -20.3148  -11.2888 C   0  0  0  0  0  0  0  0  0  0  0  0
   25.2933  -20.7708  -10.9886 C   0  0  2  0  0  0  0  0  0  0  0  0
   25.4782  -22.1835  -11.1818 N   0  0  0  0  0  0  0  0  0  0  0  0
   25.7025  -20.3628   -9.6120 C   0  0  0  0  0  0  0  0  0  0  0  0
   25.1817  -20.8992   -8.6120 O   0  0  0  0  0  0  0  0  0  0  0  0
   24.2122  -19.5041  -13.5751 C   0  0  0  0  0  0  0  0  0  0  0  0
   24.0309  -19.5521  -14.9297 C   0  0  0  0  0  0  0  0  0  0  0  0
   26.6915  -19.3568   -9.4395 N   0  0  0  0  0  0  0  0  0  0  0  0
   26.9304  -18.8528   -8.1043 C   0  0  0  0  0  0  0  0  0  0  0  0
   27.8001  -19.7719   -7.3239 C   0  0  0  0  0  0  0  0  0  0  0  0
   28.2008  -20.8213   -7.8608 O   0  0  0  0  0  0  0  0  0  0  0  0
   28.1687  -19.4676   -5.9994 N   0  0  0  0  0  0  0  0  0  0  0  0
   27.7682  -18.3184   -5.2376 C   0  0  0  0  0  0  0  0  0  0  0  0
   28.8804  -18.1183   -4.2006 C   0  0  0  0  0  0  0  0  0  0  0  0
   29.8759  -19.2151   -4.4849 C   0  0  0  0  0  0  0  0  0  0  0  0
   29.0245  -20.2662   -5.1625 C   0  0  1  0  0  0  0  0  0  0  0  0
   28.2137  -21.0445   -4.1816 C   0  0  0  0  0  0  0  0  0  0  0  0
   28.7700  -22.0369   -3.3886 O   0  0  0  0  0  0  0  0  0  0  0  0
   26.9822  -20.8273   -4.0357 O   0  0  0  0  0  0  0  0  0  0  0  0
  2  3  2  0
  2  1  1  0
  4  3  1  0
  5  4  2  0
  6  7  1  0
  6  5  1  0
  7  9  1  0
  7  8  1  1
  9 10  2  0
  9 13  1  0
 11  5  1  0
 11 12  2  0
 12  2  1  0
 13 14  1  0
 14 15  1  0
 15 17  1  0
 15 16  2  0
 17 18  1  0
 18 19  1  0
 20 19  1  0
 21 17  1  0
 21 20  1  0
 21 22  1  1
 23 22  1  0
 24 22  2  0
M  END
$$$$
