YGP.pdb
     RDKit          3D

 24 25  0  0  1  0  0  0  0  0999 V2000
   21.2514  -21.2969   -8.4400 O   0  0  0  0  0  0  0  0  0  0  0  0
   22.4545  -20.9794   -9.0531 C   0  0  0  0  0  0  0  0  0  0  0  0
   23.6381  -21.1328   -8.3394 C   0  0  0  0  0  0  0  0  0  0  0  0
   24.8512  -20.8253   -8.9222 C   0  0  0  0  0  0  0  0  0  0  0  0
   24.9012  -20.3611  -10.2230 C   0  0  0  0  0  0  0  0  0  0  0  0
   26.1556  -20.0103  -10.9184 C   0  0  0  0  0  0  0  0  0  0  0  0
   26.1620  -20.6498  -12.2679 C   0  0  2  0  0  0  0  0  0  0  0  0
   26.1285  -22.0861  -12.2124 N   0  0  0  0  0  0  0  0  0  0  0  0
   27.3229  -20.1743  -13.0775 C   0  0  0  0  0  0  0  0  0  0  0  0
   28.4578  -20.6655  -12.9054 O   0  0  0  0  0  0  0  0  0  0  0  0
   23.7188  -20.2141  -10.9184 C   0  0  0  0  0  0  0  0  0  0  0  0
   22.5121  -20.5159  -10.3503 C   0  0  0  0  0  0  0  0  0  0  0  0
   27.1340  -19.1556  -14.0504 N   0  0  0  0  0  0  0  0  0  0  0  0
   28.2684  -18.7596  -14.8567 C   0  0  0  0  0  0  0  0  0  0  0  0
   28.0338  -19.0367  -16.2983 C   0  0  0  0  0  0  0  0  0  0  0  0
   27.8595  -18.0787  -17.0741 O   0  0  0  0  0  0  0  0  0  0  0  0
   28.0080  -20.3575  -16.7856 N   0  0  0  0  0  0  0  0  0  0  0  0
   28.0602  -21.5627  -16.0069 C   0  0  0  0  0  0  0  0  0  0  0  0
   28.6439  -22.6229  -16.9491 C   0  0  0  0  0  0  0  0  0  0  0  0
   28.9017  -21.8908  -18.2424 C   0  0  0  0  0  0  0  0  0  0  0  0
   27.9233  -20.7391  -18.1704 C   0  0  1  0  0  0  0  0  0  0  0  0
   26.5343  -21.1651  -18.5087 C   0  0  0  0  0  0  0  0  0  0  0  0
   25.5404  -21.2679  -17.5470 O   0  0  0  0  0  0  0  0  0  0  0  0
   26.2095  -21.4501  -19.6911 O   0  0  0  0  0  0  0  0  0  0  0  0
  2  3  2  0
  2  1  1  0
  4  3  1  0
  5  4  2  0
  6  7  1  0
  6  5  1  0
  7  9  1  0
  7  8  1  1
  9 10  2  0
  9 13  1  0
 11  5  1  0
 11 12  2  0
 12  2  1  0
 13 14  1  0
 14 15  1  0
 15 17  1  0
 15 16  2  0
 17 18  1  0
 18 19  1  0
 20 19  1  0
 21 17  1  0
 21 20  1  0
 21 22  1  1
 23 22  1  0
 24 22  2  0
M  END
$$$$
