YGP.pdb
     RDKit          3D

 24 25  0  0  1  0  0  0  0  0999 V2000
   22.1440  -21.9463   -7.4700 O   0  0  0  0  0  0  0  0  0  0  0  0
   23.1660  -21.5327   -8.3117 C   0  0  0  0  0  0  0  0  0  0  0  0
   22.8462  -21.0416   -9.5727 C   0  0  0  0  0  0  0  0  0  0  0  0
   23.8410  -20.6222  -10.4332 C   0  0  0  0  0  0  0  0  0  0  0  0
   25.1670  -20.6866  -10.0488 C   0  0  0  0  0  0  0  0  0  0  0  0
   26.2891  -20.2589  -10.9080 C   0  0  0  0  0  0  0  0  0  0  0  0
   25.9268  -20.4919  -12.3378 C   0  0  2  0  0  0  0  0  0  0  0  0
   25.8115  -21.8857  -12.6712 N   0  0  0  0  0  0  0  0  0  0  0  0
   26.8871  -19.8030  -13.2500 C   0  0  0  0  0  0  0  0  0  0  0  0
   27.1019  -18.5784  -13.1347 O   0  0  0  0  0  0  0  0  0  0  0  0
   25.4688  -21.1762   -8.7948 C   0  0  0  0  0  0  0  0  0  0  0  0
   24.4909  -21.5940   -7.9352 C   0  0  0  0  0  0  0  0  0  0  0  0
   27.5610  -20.5468  -14.2564 N   0  0  0  0  0  0  0  0  0  0  0  0
   28.4471  -19.8381  -15.1542 C   0  0  0  0  0  0  0  0  0  0  0  0
   27.6920  -19.1610  -16.2412 C   0  0  0  0  0  0  0  0  0  0  0  0
   26.4491  -19.1261  -16.1783 O   0  0  0  0  0  0  0  0  0  0  0  0
   28.3640  -18.5669  -17.3266 N   0  0  0  0  0  0  0  0  0  0  0  0
   29.7847  -18.4599  -17.5042 C   0  0  0  0  0  0  0  0  0  0  0  0
   29.9837  -17.2401  -18.4125 C   0  0  0  0  0  0  0  0  0  0  0  0
   28.5916  -16.7220  -18.6744 C   0  0  0  0  0  0  0  0  0  0  0  0
   27.7368  -17.9529  -18.4668 C   0  0  1  0  0  0  0  0  0  0  0  0
   27.7838  -18.8695  -19.6428 C   0  0  0  0  0  0  0  0  0  0  0  0
   27.0605  -18.6213  -20.7998 O   0  0  0  0  0  0  0  0  0  0  0  0
   28.4887  -19.9125  -19.6286 O   0  0  0  0  0  0  0  0  0  0  0  0
  2  3  2  0
  2  1  1  0
  4  3  1  0
  5  4  2  0
  6  7  1  0
  6  5  1  0
  7  9  1  0
  7  8  1  6
  9 10  2  0
  9 13  1  0
 11  5  1  0
 11 12  2  0
 12  2  1  0
 13 14  1  0
 14 15  1  0
 15 17  1  0
 15 16  2  0
 17 18  1  0
 18 19  1  0
 20 19  1  0
 21 17  1  0
 21 20  1  0
 21 22  1  6
 23 22  1  0
 24 22  2  0
M  END
$$$$
