YGP.pdb
     RDKit          3D

 24 25  0  0  1  0  0  0  0  0999 V2000
   19.5238  -18.6254  -12.3569 O   0  0  0  0  0  0  0  0  0  0  0  0
   20.6643  -19.2577  -11.8841 C   0  0  0  0  0  0  0  0  0  0  0  0
   21.1281  -20.3936  -12.5385 C   0  0  0  0  0  0  0  0  0  0  0  0
   22.2605  -21.0450  -12.0918 C   0  0  0  0  0  0  0  0  0  0  0  0
   22.9452  -20.5735  -10.9878 C   0  0  0  0  0  0  0  0  0  0  0  0
   24.1625  -21.2108  -10.4470 C   0  0  0  0  0  0  0  0  0  0  0  0
   25.3552  -20.6838  -11.1750 C   0  0  2  0  0  0  0  0  0  0  0  0
   25.4185  -21.1185  -12.5440 N   0  0  0  0  0  0  0  0  0  0  0  0
   26.6151  -21.0222  -10.4492 C   0  0  0  0  0  0  0  0  0  0  0  0
   26.9803  -22.2109  -10.3358 O   0  0  0  0  0  0  0  0  0  0  0  0
   22.4731  -19.4456  -10.3490 C   0  0  0  0  0  0  0  0  0  0  0  0
   21.3526  -18.7932  -10.7835 C   0  0  0  0  0  0  0  0  0  0  0  0
   27.4037  -19.9839   -9.8836 N   0  0  0  0  0  0  0  0  0  0  0  0
   28.4175  -20.3433   -8.9157 C   0  0  0  0  0  0  0  0  0  0  0  0
   27.8886  -20.2852   -7.5275 C   0  0  0  0  0  0  0  0  0  0  0  0
   26.6581  -20.3491   -7.3497 O   0  0  0  0  0  0  0  0  0  0  0  0
   28.7584  -20.1600   -6.4273 N   0  0  0  0  0  0  0  0  0  0  0  0
   30.1830  -19.9862   -6.4725 C   0  0  0  0  0  0  0  0  0  0  0  0
   30.6965  -20.5431   -5.1389 C   0  0  0  0  0  0  0  0  0  0  0  0
   29.4613  -21.0245   -4.4196 C   0  0  0  0  0  0  0  0  0  0  0  0
   28.3681  -20.1844   -5.0425 C   0  0  1  0  0  0  0  0  0  0  0  0
   28.3417  -18.8010   -4.4851 C   0  0  0  0  0  0  0  0  0  0  0  0
   27.8551  -18.5273   -3.2155 O   0  0  0  0  0  0  0  0  0  0  0  0
   28.7642  -17.8209   -5.1527 O   0  0  0  0  0  0  0  0  0  0  0  0
  2  3  2  0
  2  1  1  0
  4  3  1  0
  5  4  2  0
  6  7  1  0
  6  5  1  0
  7  9  1  0
  7  8  1  6
  9 10  2  0
  9 13  1  0
 11  5  1  0
 11 12  2  0
 12  2  1  0
 13 14  1  0
 14 15  1  0
 15 17  1  0
 15 16  2  0
 17 18  1  0
 18 19  1  0
 20 19  1  0
 21 17  1  0
 21 20  1  0
 21 22  1  1
 23 22  1  0
 24 22  2  0
M  END
$$$$
