YGP.pdb
     RDKit          3D

 24 25  0  0  1  0  0  0  0  0999 V2000
   26.8895  -20.1001   -5.5667 O   0  0  0  0  0  0  0  0  0  0  0  0
   26.9029  -20.0374   -6.9523 C   0  0  0  0  0  0  0  0  0  0  0  0
   28.1079  -19.8067   -7.6070 C   0  0  0  0  0  0  0  0  0  0  0  0
   28.1536  -19.7389   -8.9851 C   0  0  0  0  0  0  0  0  0  0  0  0
   26.9999  -19.8999   -9.7288 C   0  0  0  0  0  0  0  0  0  0  0  0
   26.9631  -19.8417  -11.2039 C   0  0  0  0  0  0  0  0  0  0  0  0
   26.2708  -21.0583  -11.7242 C   0  0  2  0  0  0  0  0  0  0  0  0
   26.9496  -22.2808  -11.3895 N   0  0  0  0  0  0  0  0  0  0  0  0
   26.0502  -20.9568  -13.1973 C   0  0  0  0  0  0  0  0  0  0  0  0
   27.0179  -20.9878  -13.9857 O   0  0  0  0  0  0  0  0  0  0  0  0
   25.8120  -20.1280   -9.0655 C   0  0  0  0  0  0  0  0  0  0  0  0
   25.7562  -20.1970   -7.7009 C   0  0  0  0  0  0  0  0  0  0  0  0
   24.7293  -20.8242  -13.7049 N   0  0  0  0  0  0  0  0  0  0  0  0
   24.5628  -20.4161  -15.0831 C   0  0  0  0  0  0  0  0  0  0  0  0
   23.7309  -19.1887  -15.1899 C   0  0  0  0  0  0  0  0  0  0  0  0
   23.3712  -18.6134  -14.1461 O   0  0  0  0  0  0  0  0  0  0  0  0
   23.3523  -18.6793  -16.4468 N   0  0  0  0  0  0  0  0  0  0  0  0
   23.7841  -19.1518  -17.7320 C   0  0  0  0  0  0  0  0  0  0  0  0
   23.6466  -17.9453  -18.6689 C   0  0  0  0  0  0  0  0  0  0  0  0
   23.1382  -16.8296  -17.7904 C   0  0  0  0  0  0  0  0  0  0  0  0
   22.4522  -17.5788  -16.6692 C   0  0  1  0  0  0  0  0  0  0  0  0
   21.1073  -18.0806  -17.0749 C   0  0  0  0  0  0  0  0  0  0  0  0
   20.8956  -19.3980  -17.4531 O   0  0  0  0  0  0  0  0  0  0  0  0
   20.1045  -17.3196  -17.0891 O   0  0  0  0  0  0  0  0  0  0  0  0
  2  3  2  0
  2  1  1  0
  4  3  1  0
  5  4  2  0
  6  7  1  0
  6  5  1  0
  7  9  1  0
  7  8  1  6
  9 10  2  0
  9 13  1  0
 11  5  1  0
 11 12  2  0
 12  2  1  0
 13 14  1  0
 14 15  1  0
 15 17  1  0
 15 16  2  0
 17 18  1  0
 18 19  1  0
 20 19  1  0
 21 17  1  0
 21 20  1  0
 21 22  1  6
 23 22  1  0
 24 22  2  0
M  END
$$$$
