YGP.pdb
     RDKit          3D

 24 25  0  0  1  0  0  0  0  0999 V2000
   22.3028  -22.5140   -6.4093 O   0  0  0  0  0  0  0  0  0  0  0  0
   22.6709  -21.8379   -7.5632 C   0  0  0  0  0  0  0  0  0  0  0  0
   21.7887  -21.8045   -8.6377 C   0  0  0  0  0  0  0  0  0  0  0  0
   22.1264  -21.1397   -9.7996 C   0  0  0  0  0  0  0  0  0  0  0  0
   23.3467  -20.4998   -9.9063 C   0  0  0  0  0  0  0  0  0  0  0  0
   23.7835  -19.7679  -11.1120 C   0  0  0  0  0  0  0  0  0  0  0  0
   24.2483  -20.7484  -12.1379 C   0  0  2  0  0  0  0  0  0  0  0  0
   25.4967  -21.3743  -11.7960 N   0  0  0  0  0  0  0  0  0  0  0  0
   24.3220  -20.1135  -13.4872 C   0  0  0  0  0  0  0  0  0  0  0  0
   24.9281  -19.0335  -13.6460 O   0  0  0  0  0  0  0  0  0  0  0  0
   24.2113  -20.5416   -8.8322 C   0  0  0  0  0  0  0  0  0  0  0  0
   23.8864  -21.1973   -7.6770 C   0  0  0  0  0  0  0  0  0  0  0  0
   23.6977  -20.7433  -14.5978 N   0  0  0  0  0  0  0  0  0  0  0  0
   22.9875  -19.9128  -15.5463 C   0  0  0  0  0  0  0  0  0  0  0  0
   23.9173  -19.0297  -16.2985 C   0  0  0  0  0  0  0  0  0  0  0  0
   24.8225  -18.4419  -15.6779 O   0  0  0  0  0  0  0  0  0  0  0  0
   23.7829  -18.8561  -17.6893 N   0  0  0  0  0  0  0  0  0  0  0  0
   22.8438  -19.5164  -18.5518 C   0  0  0  0  0  0  0  0  0  0  0  0
   23.4973  -19.5035  -19.9393 C   0  0  0  0  0  0  0  0  0  0  0  0
   24.8248  -18.8173  -19.7350 C   0  0  0  0  0  0  0  0  0  0  0  0
   24.5743  -17.9733  -18.5047 C   0  0  1  0  0  0  0  0  0  0  0  0
   23.8080  -16.7341  -18.8249 C   0  0  0  0  0  0  0  0  0  0  0  0
   24.4325  -15.5700  -19.2470 O   0  0  0  0  0  0  0  0  0  0  0  0
   22.5538  -16.6986  -18.7229 O   0  0  0  0  0  0  0  0  0  0  0  0
  2  3  2  0
  2  1  1  0
  4  3  1  0
  5  4  2  0
  6  7  1  0
  6  5  1  0
  7  9  1  0
  7  8  1  1
  9 10  2  0
  9 13  1  0
 11  5  1  0
 11 12  2  0
 12  2  1  0
 13 14  1  0
 14 15  1  0
 15 17  1  0
 15 16  2  0
 17 18  1  0
 18 19  1  0
 20 19  1  0
 21 17  1  0
 21 20  1  0
 21 22  1  6
 23 22  1  0
 24 22  2  0
M  END
$$$$
