NED.pdb
     RDKit          3D

 26 25  0  0  1  0  0  0  0  0999 V2000
    8.2570  -14.5939   16.6148 N   0  0  0  0  0  0  0  0  0  0  0  0
    7.2291  -13.6461   16.9407 C   0  0  0  0  0  0  0  0  0  0  0  0
    6.2416  -13.6305   16.1925 O   0  0  0  0  0  0  0  0  0  0  0  0
    7.3541  -12.7588   18.0902 C   0  0  0  0  0  0  0  0  0  0  0  0
    8.5824  -12.9619   18.9122 C   0  0  2  0  0  0  0  0  0  0  0  0
    9.7573  -12.8901   18.0091 N   0  0  0  0  0  0  0  0  0  0  0  0
    8.6340  -14.2995   19.5801 C   0  0  0  0  0  0  0  0  0  0  0  0
    7.7879  -14.6665   20.4078 O   0  0  0  0  0  0  0  0  0  0  0  0
    9.6948  -15.2004   19.2603 N   0  0  0  0  0  0  0  0  0  0  0  0
    9.7862  -16.4786   19.9300 C   0  0  1  0  0  0  0  0  0  0  0  0
    9.5165  -17.6113   18.9848 C   0  0  0  0  0  0  0  0  0  0  0  0
    9.5181  -18.9695   19.5937 C   0  0  0  0  0  0  0  0  0  0  0  0
    9.1087  -20.0060   18.6364 C   0  0  0  0  0  0  0  0  0  0  0  0
    8.0229  -19.9959   18.0433 O   0  0  0  0  0  0  0  0  0  0  0  0
   11.2129  -16.6677   20.3903 C   0  0  0  0  0  0  0  0  0  0  0  0
   12.1866  -16.5046   19.6141 O   0  0  0  0  0  0  0  0  0  0  0  0
    9.9894  -21.0567   18.3828 O   0  0  0  0  0  0  0  0  0  0  0  0
   11.4926  -17.0411   21.7308 N   0  0  0  0  0  0  0  0  0  0  0  0
   12.9010  -17.3649   22.0959 C   0  0  1  0  0  0  0  0  0  0  0  0
   13.5048  -16.1535   22.7531 C   0  0  0  0  0  0  0  0  0  0  0  0
   14.9476  -16.3042   22.9420 C   0  0  0  0  0  0  0  0  0  0  0  0
   15.5824  -17.3270   22.6664 O   0  0  0  0  0  0  0  0  0  0  0  0
   12.8338  -18.4816   23.0932 C   0  0  0  0  0  0  0  0  0  0  0  0
   13.8687  -19.4251   23.0899 O   0  0  0  0  0  0  0  0  0  0  0  0
   15.6875  -15.2285   23.4719 O   0  0  0  0  0  0  0  0  0  0  0  0
   11.8996  -18.5826   23.9026 O   0  0  0  0  0  0  0  0  0  0  0  0
  1  2  1  0
  2  3  2  0
  4  2  1  0
  5  4  1  0
  5  6  1  6
  7  8  2  0
  7  5  1  0
  9  7  1  0
 10 11  1  6
 10  9  1  0
 11 12  1  0
 13 12  1  0
 13 17  1  0
 14 13  2  0
 15 10  1  0
 16 15  2  0
 18 15  1  0
 19 20  1  1
 19 18  1  0
 20 21  1  0
 21 25  1  0
 21 22  2  0
 23 24  1  0
 23 19  1  0
 26 23  2  0
M  END
$$$$
