NED.pdb
     RDKit          3D

 26 25  0  0  1  0  0  0  0  0999 V2000
    7.3199  -12.0161   18.1419 N   0  0  0  0  0  0  0  0  0  0  0  0
    6.9956  -13.3205   17.6373 C   0  0  0  0  0  0  0  0  0  0  0  0
    6.2450  -13.3553   16.6522 O   0  0  0  0  0  0  0  0  0  0  0  0
    7.5272  -14.5267   18.2591 C   0  0  0  0  0  0  0  0  0  0  0  0
    8.3478  -14.2952   19.4833 C   0  0  2  0  0  0  0  0  0  0  0  0
    9.4348  -13.3472   19.1360 N   0  0  0  0  0  0  0  0  0  0  0  0
    9.0067  -15.5355   19.9984 C   0  0  0  0  0  0  0  0  0  0  0  0
    8.3644  -16.5092   20.4171 O   0  0  0  0  0  0  0  0  0  0  0  0
   10.4323  -15.6152   20.0138 N   0  0  0  0  0  0  0  0  0  0  0  0
   11.0846  -16.8565   20.3665 C   0  0  1  0  0  0  0  0  0  0  0  0
   12.3541  -17.0464   19.5911 C   0  0  0  0  0  0  0  0  0  0  0  0
   13.0125  -18.3716   19.7523 C   0  0  0  0  0  0  0  0  0  0  0  0
   14.2412  -18.4802   18.9543 C   0  0  0  0  0  0  0  0  0  0  0  0
   14.2847  -18.2659   17.7365 O   0  0  0  0  0  0  0  0  0  0  0  0
   11.5052  -16.7719   21.8154 C   0  0  0  0  0  0  0  0  0  0  0  0
   11.8526  -15.6861   22.3420 O   0  0  0  0  0  0  0  0  0  0  0  0
   15.4206  -18.8442   19.6028 O   0  0  0  0  0  0  0  0  0  0  0  0
   11.5194  -17.9346   22.6292 N   0  0  0  0  0  0  0  0  0  0  0  0
   11.9135  -17.7923   24.0597 C   0  0  1  0  0  0  0  0  0  0  0  0
   10.8002  -18.3428   24.9091 C   0  0  0  0  0  0  0  0  0  0  0  0
   11.1846  -18.4223   26.3183 C   0  0  0  0  0  0  0  0  0  0  0  0
   12.2945  -18.1032   26.7559 O   0  0  0  0  0  0  0  0  0  0  0  0
   13.1373  -18.6368   24.2478 C   0  0  0  0  0  0  0  0  0  0  0  0
   13.8156  -18.5431   25.4694 O   0  0  0  0  0  0  0  0  0  0  0  0
   10.2480  -18.8905   27.2611 O   0  0  0  0  0  0  0  0  0  0  0  0
   13.5504  -19.3994   23.3613 O   0  0  0  0  0  0  0  0  0  0  0  0
  1  2  1  0
  2  3  2  0
  4  2  1  0
  5  4  1  0
  5  6  1  6
  7  8  2  0
  7  5  1  0
  9  7  1  0
 10 11  1  6
 10  9  1  0
 11 12  1  0
 13 12  1  0
 13 17  1  0
 14 13  2  0
 15 10  1  0
 16 15  2  0
 18 15  1  0
 19 20  1  1
 19 18  1  0
 20 21  1  0
 21 25  1  0
 21 22  2  0
 23 24  1  0
 23 19  1  0
 26 23  2  0
M  END
$$$$
