NED.pdb
     RDKit          3D

 26 25  0  0  1  0  0  0  0  0999 V2000
    7.2304  -11.8854   17.9753 N   0  0  0  0  0  0  0  0  0  0  0  0
    7.4034  -13.2833   18.2527 C   0  0  0  0  0  0  0  0  0  0  0  0
    7.1811  -14.0596   17.3129 O   0  0  0  0  0  0  0  0  0  0  0  0
    7.8178  -13.7483   19.5704 C   0  0  0  0  0  0  0  0  0  0  0  0
    8.7290  -14.9295   19.5638 C   0  0  2  0  0  0  0  0  0  0  0  0
    8.0708  -16.0139   18.7944 N   0  0  0  0  0  0  0  0  0  0  0  0
    9.0017  -15.4754   20.9297 C   0  0  0  0  0  0  0  0  0  0  0  0
    9.4529  -14.7789   21.8501 O   0  0  0  0  0  0  0  0  0  0  0  0
    8.7355  -16.8523   21.1985 N   0  0  0  0  0  0  0  0  0  0  0  0
    9.0019  -17.3988   22.5104 C   0  0  1  0  0  0  0  0  0  0  0  0
    8.3081  -18.7139   22.7059 C   0  0  0  0  0  0  0  0  0  0  0  0
    8.4822  -19.3385   24.0457 C   0  0  0  0  0  0  0  0  0  0  0  0
    7.8442  -20.6593   24.1280 C   0  0  0  0  0  0  0  0  0  0  0  0
    8.4759  -21.7232   24.1249 O   0  0  0  0  0  0  0  0  0  0  0  0
   10.4790  -17.7040   22.6019 C   0  0  0  0  0  0  0  0  0  0  0  0
   11.1363  -18.1006   21.6080 O   0  0  0  0  0  0  0  0  0  0  0  0
    6.4538  -20.7177   24.2138 O   0  0  0  0  0  0  0  0  0  0  0  0
   11.1706  -17.5489   23.8315 N   0  0  0  0  0  0  0  0  0  0  0  0
   12.6525  -17.7098   23.8350 C   0  0  1  0  0  0  0  0  0  0  0  0
   13.2438  -16.6203   22.9820 C   0  0  0  0  0  0  0  0  0  0  0  0
   14.7033  -16.5925   23.0764 C   0  0  0  0  0  0  0  0  0  0  0  0
   15.4050  -17.5831   23.3034 O   0  0  0  0  0  0  0  0  0  0  0  0
   13.0960  -17.5171   25.2536 C   0  0  0  0  0  0  0  0  0  0  0  0
   12.1162  -17.2309   26.2124 O   0  0  0  0  0  0  0  0  0  0  0  0
   15.3803  -15.3692   22.9018 O   0  0  0  0  0  0  0  0  0  0  0  0
   14.2877  -17.6045   25.5858 O   0  0  0  0  0  0  0  0  0  0  0  0
  1  2  1  0
  2  3  2  0
  4  2  1  0
  5  4  1  0
  5  6  1  6
  7  8  2  0
  7  5  1  0
  9  7  1  0
 10 11  1  6
 10  9  1  0
 11 12  1  0
 13 12  1  0
 13 17  1  0
 14 13  2  0
 15 10  1  0
 16 15  2  0
 18 15  1  0
 19 20  1  6
 19 18  1  0
 20 21  1  0
 21 25  1  0
 21 22  2  0
 23 24  1  0
 23 19  1  0
 26 23  2  0
M  END
$$$$
