NED.pdb
     RDKit          3D

 26 25  0  0  1  0  0  0  0  0999 V2000
    7.4773  -12.3577   18.8512 N   0  0  0  0  0  0  0  0  0  0  0  0
    6.8347  -13.2866   17.9651 C   0  0  0  0  0  0  0  0  0  0  0  0
    6.0899  -12.7967   17.1046 O   0  0  0  0  0  0  0  0  0  0  0  0
    7.0556  -14.7225   18.0832 C   0  0  0  0  0  0  0  0  0  0  0  0
    7.8726  -15.1395   19.2597 C   0  0  2  0  0  0  0  0  0  0  0  0
    9.1102  -14.3214   19.2736 N   0  0  0  0  0  0  0  0  0  0  0  0
    8.3035  -16.5709   19.2046 C   0  0  0  0  0  0  0  0  0  0  0  0
    7.5099  -17.5136   19.3367 O   0  0  0  0  0  0  0  0  0  0  0  0
    9.6815  -16.8787   18.9911 N   0  0  0  0  0  0  0  0  0  0  0  0
   10.1239  -18.2553   18.9867 C   0  0  1  0  0  0  0  0  0  0  0  0
   10.8868  -18.5803   17.7371 C   0  0  0  0  0  0  0  0  0  0  0  0
   11.3093  -20.0003   17.5941 C   0  0  0  0  0  0  0  0  0  0  0  0
   11.9843  -20.2509   16.3135 C   0  0  0  0  0  0  0  0  0  0  0  0
   13.1742  -19.9830   16.1059 O   0  0  0  0  0  0  0  0  0  0  0  0
   11.1077  -18.4369   20.1192 C   0  0  0  0  0  0  0  0  0  0  0  0
   11.7650  -17.4743   20.5865 O   0  0  0  0  0  0  0  0  0  0  0  0
   11.2455  -20.8202   15.2771 O   0  0  0  0  0  0  0  0  0  0  0  0
   11.3177  -19.7190   20.6908 N   0  0  0  0  0  0  0  0  0  0  0  0
   11.9455  -19.7977   22.0404 C   0  0  1  0  0  0  0  0  0  0  0  0
   11.0168  -19.1441   23.0277 C   0  0  0  0  0  0  0  0  0  0  0  0
   11.5587  -19.1826   24.3860 C   0  0  0  0  0  0  0  0  0  0  0  0
   12.6445  -19.6873   24.6880 O   0  0  0  0  0  0  0  0  0  0  0  0
   12.0628  -21.2554   22.3684 C   0  0  0  0  0  0  0  0  0  0  0  0
   12.8971  -21.6217   23.4319 O   0  0  0  0  0  0  0  0  0  0  0  0
   10.8146  -18.6147   25.4392 O   0  0  0  0  0  0  0  0  0  0  0  0
   11.4485  -22.1229   21.7295 O   0  0  0  0  0  0  0  0  0  0  0  0
  1  2  1  0
  2  3  2  0
  4  2  1  0
  5  4  1  0
  5  6  1  6
  7  8  2  0
  7  5  1  0
  9  7  1  0
 10 11  1  6
 10  9  1  0
 11 12  1  0
 13 12  1  0
 13 17  1  0
 14 13  2  0
 15 10  1  0
 16 15  2  0
 18 15  1  0
 19 20  1  1
 19 18  1  0
 20 21  1  0
 21 25  1  0
 21 22  2  0
 23 24  1  0
 23 19  1  0
 26 23  2  0
M  END
$$$$
