NED.pdb
     RDKit          3D

 26 25  0  0  1  0  0  0  0  0999 V2000
    6.6957  -12.3984   17.9324 N   0  0  0  0  0  0  0  0  0  0  0  0
    7.1279  -13.4724   17.0835 C   0  0  0  0  0  0  0  0  0  0  0  0
    6.5061  -13.6148   16.0213 O   0  0  0  0  0  0  0  0  0  0  0  0
    8.2375  -14.3380   17.4628 C   0  0  0  0  0  0  0  0  0  0  0  0
    8.8534  -14.0294   18.7860 C   0  0  2  0  0  0  0  0  0  0  0  0
    9.2922  -12.6123   18.7699 N   0  0  0  0  0  0  0  0  0  0  0  0
   10.0671  -14.8524   19.0812 C   0  0  0  0  0  0  0  0  0  0  0  0
   10.0148  -16.0755   19.2740 O   0  0  0  0  0  0  0  0  0  0  0  0
   11.3443  -14.2169   19.1460 N   0  0  0  0  0  0  0  0  0  0  0  0
   12.5421  -15.0122   19.2994 C   0  0  1  0  0  0  0  0  0  0  0  0
   13.7190  -14.3614   18.6356 C   0  0  0  0  0  0  0  0  0  0  0  0
   15.0155  -15.0776   18.7823 C   0  0  0  0  0  0  0  0  0  0  0  0
   16.0998  -14.4167   18.0435 C   0  0  0  0  0  0  0  0  0  0  0  0
   17.0035  -13.7721   18.5902 O   0  0  0  0  0  0  0  0  0  0  0  0
   12.8863  -15.0656   20.7698 C   0  0  0  0  0  0  0  0  0  0  0  0
   12.9516  -14.0272   21.4730 O   0  0  0  0  0  0  0  0  0  0  0  0
   16.1115  -14.5205   16.6532 O   0  0  0  0  0  0  0  0  0  0  0  0
   13.1494  -16.3088   21.4021 N   0  0  0  0  0  0  0  0  0  0  0  0
   13.5028  -16.3052   22.8501 C   0  0  1  0  0  0  0  0  0  0  0  0
   12.7292  -17.4061   23.5237 C   0  0  0  0  0  0  0  0  0  0  0  0
   13.1698  -17.6097   24.9037 C   0  0  0  0  0  0  0  0  0  0  0  0
   12.8658  -18.5874   25.5941 O   0  0  0  0  0  0  0  0  0  0  0  0
   14.9670  -16.6154   22.9294 C   0  0  0  0  0  0  0  0  0  0  0  0
   15.6805  -16.1278   24.0314 O   0  0  0  0  0  0  0  0  0  0  0  0
   13.9956  -16.6432   25.5113 O   0  0  0  0  0  0  0  0  0  0  0  0
   15.5445  -17.2807   22.0565 O   0  0  0  0  0  0  0  0  0  0  0  0
  1  2  1  0
  2  3  2  0
  4  2  1  0
  5  4  1  0
  5  6  1  6
  7  8  2  0
  7  5  1  0
  9  7  1  0
 10 11  1  6
 10  9  1  0
 11 12  1  0
 13 12  1  0
 13 17  1  0
 14 13  2  0
 15 10  1  0
 16 15  2  0
 18 15  1  0
 19 20  1  1
 19 18  1  0
 20 21  1  0
 21 25  1  0
 21 22  2  0
 23 24  1  0
 23 19  1  0
 26 23  2  0
M  END
$$$$
