NED.pdb
     RDKit          3D

 26 25  0  0  1  0  0  0  0  0999 V2000
   13.0896  -22.3392   12.1026 N   0  0  0  0  0  0  0  0  0  0  0  0
   13.0440  -20.9509   11.7399 C   0  0  0  0  0  0  0  0  0  0  0  0
   13.6454  -20.6358   10.7034 O   0  0  0  0  0  0  0  0  0  0  0  0
   12.3267  -19.9784   12.5547 C   0  0  0  0  0  0  0  0  0  0  0  0
   13.0321  -18.6786   12.7512 C   0  0  2  0  0  0  0  0  0  0  0  0
   14.4000  -18.8084   12.1917 N   0  0  0  0  0  0  0  0  0  0  0  0
   13.1897  -18.3014   14.1902 C   0  0  0  0  0  0  0  0  0  0  0  0
   13.9472  -17.3948   14.5646 O   0  0  0  0  0  0  0  0  0  0  0  0
   12.4429  -19.0049   15.1834 N   0  0  0  0  0  0  0  0  0  0  0  0
   12.3931  -18.5069   16.5400 C   0  0  1  0  0  0  0  0  0  0  0  0
   11.0358  -18.7065   17.1459 C   0  0  0  0  0  0  0  0  0  0  0  0
   10.5257  -20.1047   17.1312 C   0  0  0  0  0  0  0  0  0  0  0  0
    9.1769  -20.2082   17.7043 C   0  0  0  0  0  0  0  0  0  0  0  0
    8.2455  -19.4542   17.3964 O   0  0  0  0  0  0  0  0  0  0  0  0
   13.3364  -19.3358   17.3805 C   0  0  0  0  0  0  0  0  0  0  0  0
   13.5550  -20.5471   17.1315 O   0  0  0  0  0  0  0  0  0  0  0  0
    8.9332  -21.2081   18.6449 O   0  0  0  0  0  0  0  0  0  0  0  0
   14.0080  -18.7581   18.4894 N   0  0  0  0  0  0  0  0  0  0  0  0
   14.9926  -19.5935   19.2339 C   0  0  1  0  0  0  0  0  0  0  0  0
   16.2331  -18.7709   19.4539 C   0  0  0  0  0  0  0  0  0  0  0  0
   17.2551  -19.5196   20.1855 C   0  0  0  0  0  0  0  0  0  0  0  0
   17.1005  -20.6649   20.6206 O   0  0  0  0  0  0  0  0  0  0  0  0
   14.3677  -19.9030   20.5606 C   0  0  0  0  0  0  0  0  0  0  0  0
   13.2354  -19.1703   20.9374 O   0  0  0  0  0  0  0  0  0  0  0  0
   18.5074  -18.9197   20.4248 O   0  0  0  0  0  0  0  0  0  0  0  0
   14.8251  -20.7763   21.3131 O   0  0  0  0  0  0  0  0  0  0  0  0
  1  2  1  0
  2  3  2  0
  4  2  1  0
  5  4  1  0
  5  6  1  1
  7  8  2  0
  7  5  1  0
  9  7  1  0
 10 11  1  1
 10  9  1  0
 11 12  1  0
 13 12  1  0
 13 17  1  0
 14 13  2  0
 15 10  1  0
 16 15  2  0
 18 15  1  0
 19 20  1  1
 19 18  1  0
 20 21  1  0
 21 25  1  0
 21 22  2  0
 23 24  1  0
 23 19  1  0
 26 23  2  0
M  END
$$$$
