NED.pdb
     RDKit          3D

 26 25  0  0  1  0  0  0  0  0999 V2000
    8.5492  -18.4979   17.5301 N   0  0  0  0  0  0  0  0  0  0  0  0
    8.3663  -17.0822   17.6822 C   0  0  0  0  0  0  0  0  0  0  0  0
    7.6266  -16.5335   16.8533 O   0  0  0  0  0  0  0  0  0  0  0  0
    9.0201  -16.3451   18.7562 C   0  0  0  0  0  0  0  0  0  0  0  0
   10.0194  -17.1280   19.5399 C   0  0  2  0  0  0  0  0  0  0  0  0
    9.2824  -18.0982   20.3863 N   0  0  0  0  0  0  0  0  0  0  0  0
   10.8388  -16.2853   20.4651 C   0  0  0  0  0  0  0  0  0  0  0  0
   11.6532  -15.4441   20.0587 O   0  0  0  0  0  0  0  0  0  0  0  0
   10.6866  -16.4448   21.8760 N   0  0  0  0  0  0  0  0  0  0  0  0
   11.5348  -15.7056   22.7842 C   0  0  1  0  0  0  0  0  0  0  0  0
   11.0953  -15.8808   24.2073 C   0  0  0  0  0  0  0  0  0  0  0  0
   10.8753  -17.2870   24.6426 C   0  0  0  0  0  0  0  0  0  0  0  0
   10.4937  -17.3752   26.0585 C   0  0  0  0  0  0  0  0  0  0  0  0
   10.3362  -16.3863   26.7852 O   0  0  0  0  0  0  0  0  0  0  0  0
   12.9245  -16.2951   22.7152 C   0  0  0  0  0  0  0  0  0  0  0  0
   13.1183  -17.5358   22.7110 O   0  0  0  0  0  0  0  0  0  0  0  0
   10.2991  -18.6395   26.6133 O   0  0  0  0  0  0  0  0  0  0  0  0
   14.0623  -15.4489   22.6536 N   0  0  0  0  0  0  0  0  0  0  0  0
   15.4124  -16.0799   22.6235 C   0  0  1  0  0  0  0  0  0  0  0  0
   16.3568  -15.1324   21.9346 C   0  0  0  0  0  0  0  0  0  0  0  0
   16.0384  -14.9901   20.5139 C   0  0  0  0  0  0  0  0  0  0  0  0
   15.4454  -15.8421   19.8450 O   0  0  0  0  0  0  0  0  0  0  0  0
   15.8360  -16.2422   24.0519 C   0  0  0  0  0  0  0  0  0  0  0  0
   17.0680  -16.8588   24.3031 O   0  0  0  0  0  0  0  0  0  0  0  0
   16.4218  -13.8148   19.8378 O   0  0  0  0  0  0  0  0  0  0  0  0
   15.1311  -15.8494   24.9936 O   0  0  0  0  0  0  0  0  0  0  0  0
  1  2  1  0
  2  3  2  0
  4  2  1  0
  5  4  1  0
  5  6  1  1
  7  8  2  0
  7  5  1  0
  9  7  1  0
 10 11  1  1
 10  9  1  0
 11 12  1  0
 13 12  1  0
 13 17  1  0
 14 13  2  0
 15 10  1  0
 16 15  2  0
 18 15  1  0
 19 20  1  6
 19 18  1  0
 20 21  1  0
 21 25  1  0
 21 22  2  0
 23 24  1  0
 23 19  1  0
 26 23  2  0
M  END
$$$$
