NED.pdb
     RDKit          3D

 26 25  0  0  1  0  0  0  0  0999 V2000
    7.1261  -12.2089   17.2635 N   0  0  0  0  0  0  0  0  0  0  0  0
    7.4283  -13.5668   16.9085 C   0  0  0  0  0  0  0  0  0  0  0  0
    7.7004  -13.7737   15.7176 O   0  0  0  0  0  0  0  0  0  0  0  0
    7.4122  -14.6313   17.9039 C   0  0  0  0  0  0  0  0  0  0  0  0
    8.5297  -14.5874   18.8913 C   0  0  2  0  0  0  0  0  0  0  0  0
    9.7887  -14.3300   18.1500 N   0  0  0  0  0  0  0  0  0  0  0  0
    8.7200  -15.8751   19.6286 C   0  0  0  0  0  0  0  0  0  0  0  0
    7.8089  -16.4205   20.2676 O   0  0  0  0  0  0  0  0  0  0  0  0
    9.9972  -16.5133   19.6033 N   0  0  0  0  0  0  0  0  0  0  0  0
   10.2158  -17.7263   20.3593 C   0  0  1  0  0  0  0  0  0  0  0  0
   11.1660  -18.6468   19.6528 C   0  0  0  0  0  0  0  0  0  0  0  0
   11.3388  -19.9892   20.2720 C   0  0  0  0  0  0  0  0  0  0  0  0
   12.2718  -20.8330   19.5132 C   0  0  0  0  0  0  0  0  0  0  0  0
   11.9513  -21.4597   18.4957 O   0  0  0  0  0  0  0  0  0  0  0  0
   10.8998  -17.3565   21.6549 C   0  0  0  0  0  0  0  0  0  0  0  0
   11.6466  -16.3510   21.7462 O   0  0  0  0  0  0  0  0  0  0  0  0
   13.5876  -20.9337   19.9632 O   0  0  0  0  0  0  0  0  0  0  0  0
   10.7138  -18.1484   22.8179 N   0  0  0  0  0  0  0  0  0  0  0  0
   11.1923  -17.6115   24.1235 C   0  0  1  0  0  0  0  0  0  0  0  0
   10.0384  -16.9187   24.7962 C   0  0  0  0  0  0  0  0  0  0  0  0
   10.3938  -16.4561   26.1377 C   0  0  0  0  0  0  0  0  0  0  0  0
   11.4602  -16.7162   26.7036 O   0  0  0  0  0  0  0  0  0  0  0  0
   11.5991  -18.7970   24.9453 C   0  0  0  0  0  0  0  0  0  0  0  0
   11.0215  -20.0353   24.6384 O   0  0  0  0  0  0  0  0  0  0  0  0
    9.4788  -15.6605   26.8554 O   0  0  0  0  0  0  0  0  0  0  0  0
   12.4192  -18.7031   25.8709 O   0  0  0  0  0  0  0  0  0  0  0  0
  1  2  1  0
  2  3  2  0
  4  2  1  0
  5  4  1  0
  5  6  1  6
  7  8  2  0
  7  5  1  0
  9  7  1  0
 10 11  1  6
 10  9  1  0
 11 12  1  0
 13 12  1  0
 13 17  1  0
 14 13  2  0
 15 10  1  0
 16 15  2  0
 18 15  1  0
 19 20  1  1
 19 18  1  0
 20 21  1  0
 21 25  1  0
 21 22  2  0
 23 24  1  0
 23 19  1  0
 26 23  2  0
M  END
$$$$
