NED.pdb
     RDKit          3D

 26 25  0  0  1  0  0  0  0  0999 V2000
    7.6300  -12.1519   18.4000 N   0  0  0  0  0  0  0  0  0  0  0  0
    7.6331  -13.0435   19.5252 C   0  0  0  0  0  0  0  0  0  0  0  0
    6.7195  -12.8900   20.3479 O   0  0  0  0  0  0  0  0  0  0  0  0
    8.6597  -14.0669   19.6777 C   0  0  0  0  0  0  0  0  0  0  0  0
    9.7391  -14.0346   18.6485 C   0  0  2  0  0  0  0  0  0  0  0  0
    9.1489  -14.4423   17.3498 N   0  0  0  0  0  0  0  0  0  0  0  0
   10.8566  -14.9881   18.9315 C   0  0  0  0  0  0  0  0  0  0  0  0
   10.6999  -16.2174   18.9425 O   0  0  0  0  0  0  0  0  0  0  0  0
   12.1619  -14.4755   19.2010 N   0  0  0  0  0  0  0  0  0  0  0  0
   13.2512  -15.3823   19.4871 C   0  0  1  0  0  0  0  0  0  0  0  0
   14.5502  -14.8641   18.9455 C   0  0  0  0  0  0  0  0  0  0  0  0
   14.7629  -15.0654   17.4861 C   0  0  0  0  0  0  0  0  0  0  0  0
   16.0860  -14.5989   17.0499 C   0  0  0  0  0  0  0  0  0  0  0  0
   16.2586  -13.5883   16.3573 O   0  0  0  0  0  0  0  0  0  0  0  0
   13.4333  -15.4409   20.9860 C   0  0  0  0  0  0  0  0  0  0  0  0
   13.5971  -14.4035   21.6745 O   0  0  0  0  0  0  0  0  0  0  0  0
   17.2063  -15.3336   17.4361 O   0  0  0  0  0  0  0  0  0  0  0  0
   13.4248  -16.6882   21.6632 N   0  0  0  0  0  0  0  0  0  0  0  0
   13.6357  -16.6936   23.1388 C   0  0  1  0  0  0  0  0  0  0  0  0
   12.8519  -17.8391   23.7197 C   0  0  0  0  0  0  0  0  0  0  0  0
   11.4117  -17.5866   23.6735 C   0  0  0  0  0  0  0  0  0  0  0  0
   10.9023  -16.5324   23.2809 O   0  0  0  0  0  0  0  0  0  0  0  0
   15.0980  -16.9395   23.3566 C   0  0  0  0  0  0  0  0  0  0  0  0
   15.5813  -16.8909   24.6701 O   0  0  0  0  0  0  0  0  0  0  0  0
   10.5232  -18.5939   24.0992 O   0  0  0  0  0  0  0  0  0  0  0  0
   15.8698  -17.1798   22.4160 O   0  0  0  0  0  0  0  0  0  0  0  0
  1  2  1  0
  2  3  2  0
  4  2  1  0
  5  4  1  0
  5  6  1  6
  7  8  2  0
  7  5  1  0
  9  7  1  0
 10 11  1  6
 10  9  1  0
 11 12  1  0
 13 12  1  0
 13 17  1  0
 14 13  2  0
 15 10  1  0
 16 15  2  0
 18 15  1  0
 19 20  1  1
 19 18  1  0
 20 21  1  0
 21 25  1  0
 21 22  2  0
 23 24  1  0
 23 19  1  0
 26 23  2  0
M  END
$$$$
