NED.pdb
     RDKit          3D

 26 25  0  0  1  0  0  0  0  0999 V2000
    6.8833  -12.7826   16.2781 N   0  0  0  0  0  0  0  0  0  0  0  0
    7.4008  -13.9421   15.6083 C   0  0  0  0  0  0  0  0  0  0  0  0
    6.9264  -14.1857   14.4899 O   0  0  0  0  0  0  0  0  0  0  0  0
    8.4267  -14.7762   16.2217 C   0  0  0  0  0  0  0  0  0  0  0  0
    8.7029  -14.4811   17.6577 C   0  0  2  0  0  0  0  0  0  0  0  0
    9.0196  -13.0368   17.7780 N   0  0  0  0  0  0  0  0  0  0  0  0
    9.8810  -15.2266   18.2000 C   0  0  0  0  0  0  0  0  0  0  0  0
    9.9239  -16.4642   18.2498 O   0  0  0  0  0  0  0  0  0  0  0  0
   11.0092  -14.4962   18.6824 N   0  0  0  0  0  0  0  0  0  0  0  0
   12.1890  -15.2001   19.1332 C   0  0  1  0  0  0  0  0  0  0  0  0
   13.4423  -14.5005   18.6986 C   0  0  0  0  0  0  0  0  0  0  0  0
   14.7148  -15.1959   19.0342 C   0  0  0  0  0  0  0  0  0  0  0  0
   15.8878  -14.4954   18.4940 C   0  0  0  0  0  0  0  0  0  0  0  0
   16.5755  -14.9342   17.5638 O   0  0  0  0  0  0  0  0  0  0  0  0
   12.2098  -15.1645   20.6438 C   0  0  0  0  0  0  0  0  0  0  0  0
   11.9247  -14.1236   21.2858 O   0  0  0  0  0  0  0  0  0  0  0  0
   16.2455  -13.2721   19.0592 O   0  0  0  0  0  0  0  0  0  0  0  0
   12.5581  -16.3232   21.3857 N   0  0  0  0  0  0  0  0  0  0  0  0
   12.5208  -16.2482   22.8739 C   0  0  1  0  0  0  0  0  0  0  0  0
   11.6892  -17.3956   23.3799 C   0  0  0  0  0  0  0  0  0  0  0  0
   11.6996  -17.4672   24.8410 C   0  0  0  0  0  0  0  0  0  0  0  0
   12.6760  -17.1896   25.5443 O   0  0  0  0  0  0  0  0  0  0  0  0
   13.9337  -16.4226   23.3422 C   0  0  0  0  0  0  0  0  0  0  0  0
   14.7852  -17.2223   22.5698 O   0  0  0  0  0  0  0  0  0  0  0  0
   10.5336  -17.8771   25.5175 O   0  0  0  0  0  0  0  0  0  0  0  0
   14.3526  -15.8837   24.3777 O   0  0  0  0  0  0  0  0  0  0  0  0
  1  2  1  0
  2  3  2  0
  4  2  1  0
  5  4  1  0
  5  6  1  6
  7  8  2  0
  7  5  1  0
  9  7  1  0
 10 11  1  6
 10  9  1  0
 11 12  1  0
 13 12  1  0
 13 17  1  0
 14 13  2  0
 15 10  1  0
 16 15  2  0
 18 15  1  0
 19 20  1  1
 19 18  1  0
 20 21  1  0
 21 25  1  0
 21 22  2  0
 23 24  1  0
 23 19  1  0
 26 23  2  0
M  END
$$$$
