NED.pdb
     RDKit          3D

 26 25  0  0  1  0  0  0  0  0999 V2000
    6.7611  -14.5513   15.6210 N   0  0  0  0  0  0  0  0  0  0  0  0
    8.1965  -14.5803   15.6301 C   0  0  0  0  0  0  0  0  0  0  0  0
    8.7475  -14.7530   14.5339 O   0  0  0  0  0  0  0  0  0  0  0  0
    8.9495  -14.4142   16.8669 C   0  0  0  0  0  0  0  0  0  0  0  0
    8.1171  -14.2642   18.0958 C   0  0  2  0  0  0  0  0  0  0  0  0
    7.5746  -12.8835   18.1184 N   0  0  0  0  0  0  0  0  0  0  0  0
    8.8928  -14.4425   19.3624 C   0  0  0  0  0  0  0  0  0  0  0  0
    9.5736  -13.5358   19.8628 O   0  0  0  0  0  0  0  0  0  0  0  0
    8.8562  -15.7025   20.0334 N   0  0  0  0  0  0  0  0  0  0  0  0
    9.6469  -15.9113   21.2259 C   0  0  1  0  0  0  0  0  0  0  0  0
    9.2852  -17.1997   21.9028 C   0  0  0  0  0  0  0  0  0  0  0  0
   10.0845  -17.5355   23.1127 C   0  0  0  0  0  0  0  0  0  0  0  0
    9.6494  -18.7947   23.7319 C   0  0  0  0  0  0  0  0  0  0  0  0
   10.0293  -19.9089   23.3510 O   0  0  0  0  0  0  0  0  0  0  0  0
   11.0919  -16.0648   20.8114 C   0  0  0  0  0  0  0  0  0  0  0  0
   11.4210  -16.6987   19.7785 O   0  0  0  0  0  0  0  0  0  0  0  0
    8.7615  -18.7315   24.8050 O   0  0  0  0  0  0  0  0  0  0  0  0
   12.1287  -15.4888   21.5909 N   0  0  0  0  0  0  0  0  0  0  0  0
   13.5344  -15.6338   21.1167 C   0  0  1  0  0  0  0  0  0  0  0  0
   13.9945  -14.2974   20.6005 C   0  0  0  0  0  0  0  0  0  0  0  0
   14.6726  -14.4211   19.3101 C   0  0  0  0  0  0  0  0  0  0  0  0
   14.8832  -15.4933   18.7347 O   0  0  0  0  0  0  0  0  0  0  0  0
   14.3507  -16.0029   22.3182 C   0  0  0  0  0  0  0  0  0  0  0  0
   13.6926  -16.1051   23.5501 O   0  0  0  0  0  0  0  0  0  0  0  0
   15.1266  -13.2576   18.6578 O   0  0  0  0  0  0  0  0  0  0  0  0
   15.5703  -16.2145   22.2425 O   0  0  0  0  0  0  0  0  0  0  0  0
  1  2  1  0
  2  3  2  0
  4  2  1  0
  5  4  1  0
  5  6  1  1
  7  8  2  0
  7  5  1  0
  9  7  1  0
 10 11  1  6
 10  9  1  0
 11 12  1  0
 13 12  1  0
 13 17  1  0
 14 13  2  0
 15 10  1  0
 16 15  2  0
 18 15  1  0
 19 20  1  1
 19 18  1  0
 20 21  1  0
 21 25  1  0
 21 22  2  0
 23 24  1  0
 23 19  1  0
 26 23  2  0
M  END
$$$$
