NED.pdb
     RDKit          3D

 26 25  0  0  1  0  0  0  0  0999 V2000
    7.0935  -12.8480   17.2875 N   0  0  0  0  0  0  0  0  0  0  0  0
    7.5311  -14.0062   16.5608 C   0  0  0  0  0  0  0  0  0  0  0  0
    6.8775  -14.2971   15.5492 O   0  0  0  0  0  0  0  0  0  0  0  0
    8.6815  -14.7859   17.0001 C   0  0  0  0  0  0  0  0  0  0  0  0
    9.2838  -14.3466   18.2924 C   0  0  2  0  0  0  0  0  0  0  0  0
    9.7309  -12.9405   18.1371 N   0  0  0  0  0  0  0  0  0  0  0  0
   10.4893  -15.1407   18.6846 C   0  0  0  0  0  0  0  0  0  0  0  0
   10.4440  -16.3591   18.9070 O   0  0  0  0  0  0  0  0  0  0  0  0
   11.7500  -14.4820   18.8111 N   0  0  0  0  0  0  0  0  0  0  0  0
   12.9387  -15.2457   19.1186 C   0  0  1  0  0  0  0  0  0  0  0  0
   14.0797  -14.8650   18.2230 C   0  0  0  0  0  0  0  0  0  0  0  0
   14.1773  -15.6277   16.9485 C   0  0  0  0  0  0  0  0  0  0  0  0
   15.4333  -15.3572   16.2361 C   0  0  0  0  0  0  0  0  0  0  0  0
   16.3260  -16.2002   16.0836 O   0  0  0  0  0  0  0  0  0  0  0  0
   13.3834  -14.8816   20.5161 C   0  0  0  0  0  0  0  0  0  0  0  0
   13.8185  -13.7373   20.7958 O   0  0  0  0  0  0  0  0  0  0  0  0
   15.6305  -14.0837   15.7039 O   0  0  0  0  0  0  0  0  0  0  0  0
   13.3205  -15.8381   21.5629 N   0  0  0  0  0  0  0  0  0  0  0  0
   13.7586  -15.4246   22.9263 C   0  0  1  0  0  0  0  0  0  0  0  0
   12.6471  -15.7390   23.8907 C   0  0  0  0  0  0  0  0  0  0  0  0
   12.2468  -17.1440   23.8141 C   0  0  0  0  0  0  0  0  0  0  0  0
   12.7313  -17.9637   23.0277 O   0  0  0  0  0  0  0  0  0  0  0  0
   14.9517  -16.2675   23.2615 C   0  0  0  0  0  0  0  0  0  0  0  0
   15.6936  -15.9282   24.3997 O   0  0  0  0  0  0  0  0  0  0  0  0
   11.2446  -17.6215   24.6818 O   0  0  0  0  0  0  0  0  0  0  0  0
   15.2858  -17.2376   22.5649 O   0  0  0  0  0  0  0  0  0  0  0  0
  1  2  1  0
  2  3  2  0
  4  2  1  0
  5  4  1  0
  5  6  1  6
  7  8  2  0
  7  5  1  0
  9  7  1  0
 10 11  1  6
 10  9  1  0
 11 12  1  0
 13 12  1  0
 13 17  1  0
 14 13  2  0
 15 10  1  0
 16 15  2  0
 18 15  1  0
 19 20  1  1
 19 18  1  0
 20 21  1  0
 21 25  1  0
 21 22  2  0
 23 24  1  0
 23 19  1  0
 26 23  2  0
M  END
$$$$
