NED.pdb
     RDKit          3D

 26 25  0  0  1  0  0  0  0  0999 V2000
    7.2818  -12.3080   18.4856 N   0  0  0  0  0  0  0  0  0  0  0  0
    7.2026  -13.5991   17.8629 C   0  0  0  0  0  0  0  0  0  0  0  0
    6.4150  -13.7008   16.9118 O   0  0  0  0  0  0  0  0  0  0  0  0
    8.0094  -14.7178   18.3339 C   0  0  0  0  0  0  0  0  0  0  0  0
    8.6989  -14.4924   19.6374 C   0  0  2  0  0  0  0  0  0  0  0  0
    9.3630  -13.1669   19.5835 N   0  0  0  0  0  0  0  0  0  0  0  0
    9.7686  -15.4983   19.9238 C   0  0  0  0  0  0  0  0  0  0  0  0
    9.5390  -16.7135   20.0054 O   0  0  0  0  0  0  0  0  0  0  0  0
   11.1129  -15.0552   20.1123 N   0  0  0  0  0  0  0  0  0  0  0  0
   12.1698  -16.0185   20.3263 C   0  0  1  0  0  0  0  0  0  0  0  0
   13.4961  -15.4842   19.8740 C   0  0  0  0  0  0  0  0  0  0  0  0
   13.6966  -15.4284   18.4002 C   0  0  0  0  0  0  0  0  0  0  0  0
   14.9046  -14.6768   18.0338 C   0  0  0  0  0  0  0  0  0  0  0  0
   14.8884  -13.4930   17.6745 O   0  0  0  0  0  0  0  0  0  0  0  0
   12.3100  -16.2403   21.8145 C   0  0  0  0  0  0  0  0  0  0  0  0
   12.0470  -15.3372   22.6465 O   0  0  0  0  0  0  0  0  0  0  0  0
   16.1341  -15.3316   18.0935 O   0  0  0  0  0  0  0  0  0  0  0  0
   12.7500  -17.4928   22.3166 N   0  0  0  0  0  0  0  0  0  0  0  0
   12.7350  -17.7086   23.7914 C   0  0  1  0  0  0  0  0  0  0  0  0
   12.0824  -19.0368   24.0636 C   0  0  0  0  0  0  0  0  0  0  0  0
   11.3250  -19.0201   25.3151 C   0  0  0  0  0  0  0  0  0  0  0  0
   10.6048  -19.9444   25.7050 O   0  0  0  0  0  0  0  0  0  0  0  0
   14.1683  -17.7684   24.2251 C   0  0  0  0  0  0  0  0  0  0  0  0
   14.4540  -17.5294   25.5751 O   0  0  0  0  0  0  0  0  0  0  0  0
   11.4026  -17.8881   26.1505 O   0  0  0  0  0  0  0  0  0  0  0  0
   15.0847  -18.0200   23.4282 O   0  0  0  0  0  0  0  0  0  0  0  0
  1  2  1  0
  2  3  2  0
  4  2  1  0
  5  4  1  0
  5  6  1  6
  7  8  2  0
  7  5  1  0
  9  7  1  0
 10 11  1  1
 10  9  1  0
 11 12  1  0
 13 12  1  0
 13 17  1  0
 14 13  2  0
 15 10  1  0
 16 15  2  0
 18 15  1  0
 19 20  1  6
 19 18  1  0
 20 21  1  0
 21 25  1  0
 21 22  2  0
 23 24  1  0
 23 19  1  0
 26 23  2  0
M  END
$$$$
