NED.pdb
     RDKit          3D

 26 25  0  0  1  0  0  0  0  0999 V2000
    7.2378  -12.7746   17.5966 N   0  0  0  0  0  0  0  0  0  0  0  0
    7.7782  -13.7864   16.7334 C   0  0  0  0  0  0  0  0  0  0  0  0
    7.1755  -13.9759   15.6676 O   0  0  0  0  0  0  0  0  0  0  0  0
    8.9696  -14.5401   17.1033 C   0  0  0  0  0  0  0  0  0  0  0  0
    9.5006  -14.2498   18.4669 C   0  0  2  0  0  0  0  0  0  0  0  0
    9.9530  -12.8371   18.4932 N   0  0  0  0  0  0  0  0  0  0  0  0
   10.6846  -15.0877   18.8327 C   0  0  0  0  0  0  0  0  0  0  0  0
   10.6086  -16.3123   19.0075 O   0  0  0  0  0  0  0  0  0  0  0  0
   11.9602  -14.4653   18.9894 N   0  0  0  0  0  0  0  0  0  0  0  0
   13.1244  -15.2666   19.2953 C   0  0  1  0  0  0  0  0  0  0  0  0
   14.3457  -14.7440   18.5994 C   0  0  0  0  0  0  0  0  0  0  0  0
   14.4744  -15.1148   17.1636 C   0  0  0  0  0  0  0  0  0  0  0  0
   15.7705  -14.7119   16.6016 C   0  0  0  0  0  0  0  0  0  0  0  0
   15.9412  -13.6667   15.9619 O   0  0  0  0  0  0  0  0  0  0  0  0
   13.4128  -15.1326   20.7725 C   0  0  0  0  0  0  0  0  0  0  0  0
   13.8884  -14.0782   21.2616 O   0  0  0  0  0  0  0  0  0  0  0  0
   16.8662  -15.5513   16.7988 O   0  0  0  0  0  0  0  0  0  0  0  0
   13.1508  -16.2111   21.6571 N   0  0  0  0  0  0  0  0  0  0  0  0
   13.6875  -16.1338   23.0456 C   0  0  1  0  0  0  0  0  0  0  0  0
   13.3439  -17.4169   23.7525 C   0  0  0  0  0  0  0  0  0  0  0  0
   12.3541  -17.2035   24.8084 C   0  0  0  0  0  0  0  0  0  0  0  0
   12.2396  -16.1568   25.4536 O   0  0  0  0  0  0  0  0  0  0  0  0
   15.1770  -16.0275   22.9185 C   0  0  0  0  0  0  0  0  0  0  0  0
   15.8315  -16.9545   22.0978 O   0  0  0  0  0  0  0  0  0  0  0  0
   11.4599  -18.2431   25.1325 O   0  0  0  0  0  0  0  0  0  0  0  0
   15.8253  -15.1535   23.5134 O   0  0  0  0  0  0  0  0  0  0  0  0
  1  2  1  0
  2  3  2  0
  4  2  1  0
  5  4  1  0
  5  6  1  6
  7  8  2  0
  7  5  1  0
  9  7  1  0
 10 11  1  6
 10  9  1  0
 11 12  1  0
 13 12  1  0
 13 17  1  0
 14 13  2  0
 15 10  1  0
 16 15  2  0
 18 15  1  0
 19 20  1  1
 19 18  1  0
 20 21  1  0
 21 25  1  0
 21 22  2  0
 23 24  1  0
 23 19  1  0
 26 23  2  0
M  END
$$$$
