YNH.pdb
     RDKit          3D

 31 32  0  0  1  0  0  0  0  0999 V2000
    8.2720  -11.6354   17.8117 O   0  0  0  0  0  0  0  0  0  0  0  0
    8.5796  -12.6479   18.7006 C   0  0  0  0  0  0  0  0  0  0  0  0
    7.6233  -13.5941   19.0083 C   0  0  0  0  0  0  0  0  0  0  0  0
    7.9360  -14.5853   19.8831 C   0  0  0  0  0  0  0  0  0  0  0  0
    9.1718  -14.6823   20.4755 C   0  0  0  0  0  0  0  0  0  0  0  0
    9.4512  -15.7703   21.4077 C   0  0  0  0  0  0  0  0  0  0  0  0
   10.3188  -16.8719   20.8110 C   0  0  2  0  0  0  0  0  0  0  0  0
    9.7510  -17.3590   19.5663 N   0  0  0  0  0  0  0  0  0  0  0  0
   10.4255  -17.9426   21.8240 C   0  0  0  0  0  0  0  0  0  0  0  0
   10.2208  -19.1278   21.4667 O   0  0  0  0  0  0  0  0  0  0  0  0
   10.1385  -13.7544   20.1860 C   0  0  0  0  0  0  0  0  0  0  0  0
    9.8225  -12.7441   19.2954 C   0  0  0  0  0  0  0  0  0  0  0  0
   13.2097  -20.2157   25.5031 N   0  0  0  0  0  0  0  0  0  0  0  0
   13.6474  -19.7823   24.2097 C   0  0  0  0  0  0  0  0  0  0  0  0
   14.7712  -20.1796   23.8117 O   0  0  0  0  0  0  0  0  0  0  0  0
   12.7780  -18.9061   23.4150 C   0  0  0  0  0  0  0  0  0  0  0  0
   11.4940  -18.5240   24.0413 C   0  0  2  0  0  0  0  0  0  0  0  0
   10.7528  -17.5999   23.1535 N   0  0  0  0  0  0  0  0  0  0  0  0
   11.6485  -17.8566   25.3439 C   0  0  0  0  0  0  0  0  0  0  0  0
   12.4619  -18.3276   26.2142 O   0  0  0  0  0  0  0  0  0  0  0  0
   10.9489  -16.6979   25.7086 N   0  0  0  0  0  0  0  0  0  0  0  0
    9.9015  -16.7958   26.7567 C   0  0  1  0  0  0  0  0  0  0  0  0
    8.6405  -17.1546   26.0168 C   0  0  0  0  0  0  0  0  0  0  0  0
    8.2214  -16.0572   25.1321 C   0  0  0  0  0  0  0  0  0  0  0  0
    8.9216  -14.8516   25.0618 C   0  0  0  0  0  0  0  0  0  0  0  0
    8.2649  -14.0854   24.1591 N   0  0  0  0  0  0  0  0  0  0  0  0
    7.2163  -14.7399   23.6767 C   0  0  0  0  0  0  0  0  0  0  0  0
    7.2180  -15.9308   24.2860 N   0  0  0  0  0  0  0  0  0  0  0  0
   10.3061  -17.9137   27.6453 C   0  0  0  0  0  0  0  0  0  0  0  0
   10.8699  -18.9662   27.2163 O   0  0  0  0  0  0  0  0  0  0  0  0
   10.0975  -17.8874   29.0124 O   0  0  0  0  0  0  0  0  0  0  0  0
  2  1  1  0
  2 12  2  0
  3  2  1  0
  4  3  2  0
  4  5  1  0
  5  6  1  0
  5 11  2  0
  7  6  1  0
  7  8  1  6
  9 18  1  0
  9  7  1  0
 10  9  2  0
 11 12  1  0
 13 14  1  0
 14 16  1  0
 14 15  2  0
 17 16  1  6
 17 18  1  0
 19 17  1  0
 19 21  1  0
 20 19  2  0
 22 21  1  0
 22 23  1  6
 22 29  1  0
 24 23  1  0
 24 28  1  0
 25 24  2  0
 26 25  1  0
 26 27  1  0
 27 28  2  0
 29 30  2  0
 29 31  1  0
M  END
$$$$
