YNH.pdb
     RDKit          3D

 31 32  0  0  1  0  0  0  0  0999 V2000
    7.6581  -12.1010   19.2490 O   0  0  0  0  0  0  0  0  0  0  0  0
    7.4746  -13.0093   20.2743 C   0  0  0  0  0  0  0  0  0  0  0  0
    7.6297  -12.5966   21.5819 C   0  0  0  0  0  0  0  0  0  0  0  0
    7.4469  -13.4974   22.5823 C   0  0  0  0  0  0  0  0  0  0  0  0
    7.1124  -14.8081   22.3415 C   0  0  0  0  0  0  0  0  0  0  0  0
    6.9276  -15.7312   23.4571 C   0  0  0  0  0  0  0  0  0  0  0  0
    7.6389  -17.0650   23.2642 C   0  0  2  0  0  0  0  0  0  0  0  0
    7.2217  -17.6981   22.0257 N   0  0  0  0  0  0  0  0  0  0  0  0
    7.3283  -17.9015   24.4423 C   0  0  0  0  0  0  0  0  0  0  0  0
    6.3348  -18.6659   24.3890 O   0  0  0  0  0  0  0  0  0  0  0  0
    6.9528  -15.2421   21.0511 C   0  0  0  0  0  0  0  0  0  0  0  0
    7.1384  -14.3267   20.0305 C   0  0  0  0  0  0  0  0  0  0  0  0
    9.6329  -19.8102   22.1246 N   0  0  0  0  0  0  0  0  0  0  0  0
    9.5406  -19.8585   23.5533 C   0  0  0  0  0  0  0  0  0  0  0  0
    9.0385  -20.8881   24.0701 O   0  0  0  0  0  0  0  0  0  0  0  0
   10.0292  -18.7209   24.3422 C   0  0  0  0  0  0  0  0  0  0  0  0
    9.4311  -18.5572   25.6848 C   0  0  2  0  0  0  0  0  0  0  0  0
    8.1546  -17.8146   25.5833 N   0  0  0  0  0  0  0  0  0  0  0  0
   10.2927  -17.8281   26.6295 C   0  0  0  0  0  0  0  0  0  0  0  0
   11.5077  -18.1942   26.8043 O   0  0  0  0  0  0  0  0  0  0  0  0
    9.8638  -16.7189   27.3716 N   0  0  0  0  0  0  0  0  0  0  0  0
   10.7935  -16.1191   28.3620 C   0  0  1  0  0  0  0  0  0  0  0  0
   10.2641  -14.7309   28.6044 C   0  0  0  0  0  0  0  0  0  0  0  0
    9.8635  -14.0944   27.3406 C   0  0  0  0  0  0  0  0  0  0  0  0
   10.4016  -14.4804   26.1118 C   0  0  0  0  0  0  0  0  0  0  0  0
    9.8132  -13.6957   25.1785 N   0  0  0  0  0  0  0  0  0  0  0  0
    8.9565  -12.8611   25.7532 C   0  0  0  0  0  0  0  0  0  0  0  0
    9.0104  -13.1281   27.0629 N   0  0  0  0  0  0  0  0  0  0  0  0
   10.6686  -16.9345   29.5960 C   0  0  0  0  0  0  0  0  0  0  0  0
    9.8472  -17.8949   29.7076 O   0  0  0  0  0  0  0  0  0  0  0  0
   11.4440  -16.7052   30.7182 O   0  0  0  0  0  0  0  0  0  0  0  0
  2  1  1  0
  2 12  2  0
  3  2  1  0
  4  3  2  0
  4  5  1  0
  5  6  1  0
  5 11  2  0
  7  6  1  0
  7  8  1  6
  9 18  1  0
  9  7  1  0
 10  9  2  0
 11 12  1  0
 13 14  1  0
 14 16  1  0
 14 15  2  0
 17 16  1  6
 17 18  1  0
 19 17  1  0
 19 21  1  0
 20 19  2  0
 22 21  1  0
 22 23  1  1
 22 29  1  0
 24 23  1  0
 24 28  1  0
 25 24  2  0
 26 25  1  0
 26 27  1  0
 27 28  2  0
 29 30  2  0
 29 31  1  0
M  END
$$$$
