YNH.pdb
     RDKit          3D

 31 32  0  0  1  0  0  0  0  0999 V2000
    4.8388  -10.3827   26.5559 O   0  0  0  0  0  0  0  0  0  0  0  0
    5.6401  -11.4633   26.2391 C   0  0  0  0  0  0  0  0  0  0  0  0
    6.2801  -11.4979   25.0171 C   0  0  0  0  0  0  0  0  0  0  0  0
    7.0655  -12.5646   24.7157 C   0  0  0  0  0  0  0  0  0  0  0  0
    7.2477  -13.6140   25.5836 C   0  0  0  0  0  0  0  0  0  0  0  0
    8.1046  -14.7337   25.2057 C   0  0  0  0  0  0  0  0  0  0  0  0
    7.5365  -15.5751   24.0691 C   0  0  2  0  0  0  0  0  0  0  0  0
    6.3014  -16.2227   24.4739 N   0  0  0  0  0  0  0  0  0  0  0  0
    8.5744  -16.5563   23.6894 C   0  0  0  0  0  0  0  0  0  0  0  0
    8.3117  -17.7783   23.7984 O   0  0  0  0  0  0  0  0  0  0  0  0
    6.6224  -13.6028   26.8035 C   0  0  0  0  0  0  0  0  0  0  0  0
    5.8221  -12.5175   27.1128 C   0  0  0  0  0  0  0  0  0  0  0  0
   12.5391  -18.5822   21.0109 N   0  0  0  0  0  0  0  0  0  0  0  0
   12.4793  -17.1722   20.7653 C   0  0  0  0  0  0  0  0  0  0  0  0
   13.2996  -16.6885   19.9453 O   0  0  0  0  0  0  0  0  0  0  0  0
   11.4774  -16.3634   21.4705 C   0  0  0  0  0  0  0  0  0  0  0  0
   10.8295  -17.0033   22.6357 C   0  0  2  0  0  0  0  0  0  0  0  0
    9.8206  -16.0901   23.2187 N   0  0  0  0  0  0  0  0  0  0  0  0
   11.7699  -17.3656   23.7084 C   0  0  0  0  0  0  0  0  0  0  0  0
   12.6016  -18.3246   23.5363 O   0  0  0  0  0  0  0  0  0  0  0  0
   11.8256  -16.7076   24.9449 N   0  0  0  0  0  0  0  0  0  0  0  0
   12.8309  -17.1492   25.9446 C   0  0  1  0  0  0  0  0  0  0  0  0
   12.9332  -16.0114   26.9249 C   0  0  0  0  0  0  0  0  0  0  0  0
   11.6212  -15.7097   27.5168 C   0  0  0  0  0  0  0  0  0  0  0  0
   10.4482  -16.3237   27.0743 C   0  0  0  0  0  0  0  0  0  0  0  0
    9.4474  -15.8170   27.8323 N   0  0  0  0  0  0  0  0  0  0  0  0
    9.9292  -14.9394   28.7032 C   0  0  0  0  0  0  0  0  0  0  0  0
   11.2486  -14.8974   28.4864 N   0  0  0  0  0  0  0  0  0  0  0  0
   12.2570  -18.3451   26.6105 C   0  0  0  0  0  0  0  0  0  0  0  0
   11.1215  -18.8239   26.3091 O   0  0  0  0  0  0  0  0  0  0  0  0
   12.9234  -19.0278   27.6122 O   0  0  0  0  0  0  0  0  0  0  0  0
  2  1  1  0
  2 12  2  0
  3  2  1  0
  4  3  2  0
  4  5  1  0
  5  6  1  0
  5 11  2  0
  7  6  1  0
  7  8  1  1
  9 18  1  0
  9  7  1  0
 10  9  2  0
 11 12  1  0
 13 14  1  0
 14 16  1  0
 14 15  2  0
 17 16  1  6
 17 18  1  0
 19 17  1  0
 19 21  1  0
 20 19  2  0
 22 21  1  0
 22 23  1  1
 22 29  1  0
 24 23  1  0
 24 28  1  0
 25 24  2  0
 26 25  1  0
 26 27  1  0
 27 28  2  0
 29 30  2  0
 29 31  1  0
M  END
$$$$
