YNH.pdb
     RDKit          3D

 31 32  0  0  1  0  0  0  0  0999 V2000
    6.4459  -10.8051   27.8167 O   0  0  0  0  0  0  0  0  0  0  0  0
    6.7096  -11.8481   26.9493 C   0  0  0  0  0  0  0  0  0  0  0  0
    8.0180  -12.2092   26.7005 C   0  0  0  0  0  0  0  0  0  0  0  0
    8.2663  -13.2359   25.8463 C   0  0  0  0  0  0  0  0  0  0  0  0
    7.2614  -13.9312   25.2182 C   0  0  0  0  0  0  0  0  0  0  0  0
    7.5883  -15.0267   24.3107 C   0  0  0  0  0  0  0  0  0  0  0  0
    6.9402  -16.3500   24.6998 C   0  0  2  0  0  0  0  0  0  0  0  0
    7.1419  -16.6283   26.1107 N   0  0  0  0  0  0  0  0  0  0  0  0
    7.5327  -17.3970   23.8415 C   0  0  0  0  0  0  0  0  0  0  0  0
    8.3485  -18.2008   24.3539 O   0  0  0  0  0  0  0  0  0  0  0  0
    5.9535  -13.5913   25.4490 C   0  0  0  0  0  0  0  0  0  0  0  0
    5.6982  -12.5460   26.3186 C   0  0  0  0  0  0  0  0  0  0  0  0
    6.5583  -20.1156   18.5101 N   0  0  0  0  0  0  0  0  0  0  0  0
    7.0860  -20.1587   19.8411 C   0  0  0  0  0  0  0  0  0  0  0  0
    7.9018  -21.0746   20.1149 O   0  0  0  0  0  0  0  0  0  0  0  0
    6.6590  -19.1466   20.8149 C   0  0  0  0  0  0  0  0  0  0  0  0
    7.7399  -18.4632   21.5576 C   0  0  2  0  0  0  0  0  0  0  0  0
    7.1638  -17.4594   22.4806 N   0  0  0  0  0  0  0  0  0  0  0  0
    8.7019  -17.7649   20.6898 C   0  0  0  0  0  0  0  0  0  0  0  0
    8.2954  -17.1637   19.6341 O   0  0  0  0  0  0  0  0  0  0  0  0
   10.0779  -17.7037   20.9502 N   0  0  0  0  0  0  0  0  0  0  0  0
   10.8084  -16.4482   20.6418 C   0  0  1  0  0  0  0  0  0  0  0  0
   10.0532  -15.3679   21.3690 C   0  0  0  0  0  0  0  0  0  0  0  0
    9.2249  -14.5886   20.4366 C   0  0  0  0  0  0  0  0  0  0  0  0
    9.1407  -14.9017   19.0788 C   0  0  0  0  0  0  0  0  0  0  0  0
    8.3013  -13.9907   18.5324 N   0  0  0  0  0  0  0  0  0  0  0  0
    7.8703  -13.1471   19.4616 C   0  0  0  0  0  0  0  0  0  0  0  0
    8.4479  -13.5365   20.6037 N   0  0  0  0  0  0  0  0  0  0  0  0
   12.1645  -16.6025   21.2251 C   0  0  0  0  0  0  0  0  0  0  0  0
   13.1395  -15.8541   20.9109 O   0  0  0  0  0  0  0  0  0  0  0  0
   12.4637  -17.5779   22.1591 O   0  0  0  0  0  0  0  0  0  0  0  0
  2  1  1  0
  2 12  2  0
  3  2  1  0
  4  3  2  0
  4  5  1  0
  5  6  1  0
  5 11  2  0
  7  6  1  0
  7  8  1  1
  9 18  1  0
  9  7  1  0
 10  9  2  0
 11 12  1  0
 13 14  1  0
 14 16  1  0
 14 15  2  0
 17 16  1  6
 17 18  1  0
 19 17  1  0
 19 21  1  0
 20 19  2  0
 22 21  1  0
 22 23  1  1
 22 29  1  0
 24 23  1  0
 24 28  1  0
 25 24  2  0
 26 25  1  0
 26 27  1  0
 27 28  2  0
 29 30  2  0
 29 31  1  0
M  END
$$$$
