YNH.pdb
     RDKit          3D

 31 32  0  0  1  0  0  0  0  0999 V2000
    7.5033  -12.1956   17.4047 O   0  0  0  0  0  0  0  0  0  0  0  0
    7.7150  -12.8983   18.5757 C   0  0  0  0  0  0  0  0  0  0  0  0
    7.3140  -12.3509   19.7772 C   0  0  0  0  0  0  0  0  0  0  0  0
    7.5266  -13.0501   20.9224 C   0  0  0  0  0  0  0  0  0  0  0  0
    8.1278  -14.2855   20.9306 C   0  0  0  0  0  0  0  0  0  0  0  0
    8.3294  -14.9910   22.1924 C   0  0  0  0  0  0  0  0  0  0  0  0
    8.3561  -16.5072   22.0415 C   0  0  2  0  0  0  0  0  0  0  0  0
    7.0115  -17.0348   21.8918 N   0  0  0  0  0  0  0  0  0  0  0  0
    9.0328  -17.0544   23.2360 C   0  0  0  0  0  0  0  0  0  0  0  0
    8.3366  -17.6245   24.1103 O   0  0  0  0  0  0  0  0  0  0  0  0
    8.5350  -14.8503   19.7497 C   0  0  0  0  0  0  0  0  0  0  0  0
    8.3195  -14.1402   18.5821 C   0  0  0  0  0  0  0  0  0  0  0  0
   12.4218  -19.8429   22.7813 N   0  0  0  0  0  0  0  0  0  0  0  0
   12.8240  -18.4699   22.8526 C   0  0  0  0  0  0  0  0  0  0  0  0
   13.3588  -17.9659   21.8332 O   0  0  0  0  0  0  0  0  0  0  0  0
   12.5978  -17.7200   24.0943 C   0  0  0  0  0  0  0  0  0  0  0  0
   11.1851  -17.5156   24.4812 C   0  0  2  0  0  0  0  0  0  0  0  0
   10.4328  -16.9194   23.3543 N   0  0  0  0  0  0  0  0  0  0  0  0
   11.0142  -16.6300   25.6443 C   0  0  0  0  0  0  0  0  0  0  0  0
   11.6795  -15.5382   25.7232 O   0  0  0  0  0  0  0  0  0  0  0  0
   10.1393  -16.9039   26.7047 N   0  0  0  0  0  0  0  0  0  0  0  0
   10.1794  -16.0336   27.9071 C   0  0  1  0  0  0  0  0  0  0  0  0
    8.7425  -15.6773   28.1799 C   0  0  0  0  0  0  0  0  0  0  0  0
    8.2314  -14.7450   27.1638 C   0  0  0  0  0  0  0  0  0  0  0  0
    9.0808  -14.0352   26.3134 C   0  0  0  0  0  0  0  0  0  0  0  0
    8.2804  -13.2863   25.5188 N   0  0  0  0  0  0  0  0  0  0  0  0
    7.0059  -13.4909   25.8263 C   0  0  0  0  0  0  0  0  0  0  0  0
    7.0103  -14.3796   26.8262 N   0  0  0  0  0  0  0  0  0  0  0  0
   10.7143  -16.8718   29.0091 C   0  0  0  0  0  0  0  0  0  0  0  0
   10.8830  -16.4351   30.1883 O   0  0  0  0  0  0  0  0  0  0  0  0
   11.0679  -18.1968   28.8287 O   0  0  0  0  0  0  0  0  0  0  0  0
  2  1  1  0
  2 12  2  0
  3  2  1  0
  4  3  2  0
  4  5  1  0
  5  6  1  0
  5 11  2  0
  7  6  1  0
  7  8  1  1
  9 18  1  0
  9  7  1  0
 10  9  2  0
 11 12  1  0
 13 14  1  0
 14 16  1  0
 14 15  2  0
 17 16  1  6
 17 18  1  0
 19 17  1  0
 19 21  1  0
 20 19  2  0
 22 21  1  0
 22 23  1  1
 22 29  1  0
 24 23  1  0
 24 28  1  0
 25 24  2  0
 26 25  1  0
 26 27  1  0
 27 28  2  0
 29 30  2  0
 29 31  1  0
M  END
$$$$
