YNH.pdb
     RDKit          3D

 31 32  0  0  1  0  0  0  0  0999 V2000
    6.4467  -12.1997   17.6232 O   0  0  0  0  0  0  0  0  0  0  0  0
    7.3645  -12.7769   18.4803 C   0  0  0  0  0  0  0  0  0  0  0  0
    8.0549  -13.9016   18.0773 C   0  0  0  0  0  0  0  0  0  0  0  0
    8.9549  -14.4611   18.9274 C   0  0  0  0  0  0  0  0  0  0  0  0
    9.2051  -13.9484   20.1773 C   0  0  0  0  0  0  0  0  0  0  0  0
   10.1846  -14.5916   21.0477 C   0  0  0  0  0  0  0  0  0  0  0  0
    9.6869  -15.8947   21.6613 C   0  0  2  0  0  0  0  0  0  0  0  0
    8.6423  -15.6397   22.6374 N   0  0  0  0  0  0  0  0  0  0  0  0
   10.8548  -16.5676   22.2674 C   0  0  0  0  0  0  0  0  0  0  0  0
   11.0225  -16.4752   23.5073 O   0  0  0  0  0  0  0  0  0  0  0  0
    8.5318  -12.8317   20.6005 C   0  0  0  0  0  0  0  0  0  0  0  0
    7.6148  -12.2602   19.7366 C   0  0  0  0  0  0  0  0  0  0  0  0
   14.5818  -19.9920   23.1449 N   0  0  0  0  0  0  0  0  0  0  0  0
   13.7389  -20.4224   22.0696 C   0  0  0  0  0  0  0  0  0  0  0  0
   13.8381  -21.6176   21.6942 O   0  0  0  0  0  0  0  0  0  0  0  0
   12.8082  -19.4643   21.4604 C   0  0  0  0  0  0  0  0  0  0  0  0
   12.8595  -18.0839   21.9883 C   0  0  2  0  0  0  0  0  0  0  0  0
   11.7390  -17.2890   21.4368 N   0  0  0  0  0  0  0  0  0  0  0  0
   14.1071  -17.3738   21.6632 C   0  0  0  0  0  0  0  0  0  0  0  0
   15.2375  -17.9527   21.8303 O   0  0  0  0  0  0  0  0  0  0  0  0
   14.1457  -16.0662   21.1596 N   0  0  0  0  0  0  0  0  0  0  0  0
   15.4591  -15.4833   20.7851 C   0  0  1  0  0  0  0  0  0  0  0  0
   15.1266  -14.2360   20.0106 C   0  0  0  0  0  0  0  0  0  0  0  0
   14.8526  -14.5517   18.6006 C   0  0  0  0  0  0  0  0  0  0  0  0
   14.9159  -15.8555   18.1059 C   0  0  0  0  0  0  0  0  0  0  0  0
   14.6084  -15.7756   16.7899 N   0  0  0  0  0  0  0  0  0  0  0  0
   14.3630  -14.5165   16.4506 C   0  0  0  0  0  0  0  0  0  0  0  0
   14.5192  -13.8003   17.5697 N   0  0  0  0  0  0  0  0  0  0  0  0
   16.1339  -15.1274   22.0584 C   0  0  0  0  0  0  0  0  0  0  0  0
   17.1974  -14.4374   22.1057 O   0  0  0  0  0  0  0  0  0  0  0  0
   15.6481  -15.5238   23.2913 O   0  0  0  0  0  0  0  0  0  0  0  0
  2  1  1  0
  2 12  2  0
  3  2  1  0
  4  3  2  0
  4  5  1  0
  5  6  1  0
  5 11  2  0
  7  6  1  0
  7  8  1  1
  9 18  1  0
  9  7  1  0
 10  9  2  0
 11 12  1  0
 13 14  1  0
 14 16  1  0
 14 15  2  0
 17 16  1  6
 17 18  1  0
 19 17  1  0
 19 21  1  0
 20 19  2  0
 22 21  1  0
 22 23  1  6
 22 29  1  0
 24 23  1  0
 24 28  1  0
 25 24  2  0
 26 25  1  0
 26 27  1  0
 27 28  2  0
 29 30  2  0
 29 31  1  0
M  END
$$$$
