YNH.pdb
     RDKit          3D

 31 32  0  0  1  0  0  0  0  0999 V2000
    7.6041  -11.7084   17.3725 O   0  0  0  0  0  0  0  0  0  0  0  0
    7.8447  -12.6567   18.3486 C   0  0  0  0  0  0  0  0  0  0  0  0
    9.1426  -13.0438   18.6128 C   0  0  0  0  0  0  0  0  0  0  0  0
    9.3682  -13.9767   19.5743 C   0  0  0  0  0  0  0  0  0  0  0  0
    8.3504  -14.5516   20.2963 C   0  0  0  0  0  0  0  0  0  0  0  0
    8.6531  -15.5486   21.3186 C   0  0  0  0  0  0  0  0  0  0  0  0
    8.9455  -16.9314   20.7488 C   0  0  2  0  0  0  0  0  0  0  0  0
    7.8161  -17.4219   19.9790 N   0  0  0  0  0  0  0  0  0  0  0  0
    9.2614  -17.8171   21.8889 C   0  0  0  0  0  0  0  0  0  0  0  0
    8.5170  -18.8036   22.1052 O   0  0  0  0  0  0  0  0  0  0  0  0
    7.0526  -14.1837   20.0521 C   0  0  0  0  0  0  0  0  0  0  0  0
    6.8203  -13.2338   19.0734 C   0  0  0  0  0  0  0  0  0  0  0  0
   12.5053  -21.4773   24.1728 N   0  0  0  0  0  0  0  0  0  0  0  0
   12.7228  -20.0623   24.2239 C   0  0  0  0  0  0  0  0  0  0  0  0
   13.4898  -19.6226   25.1170 O   0  0  0  0  0  0  0  0  0  0  0  0
   12.0513  -19.1979   23.2455 C   0  0  0  0  0  0  0  0  0  0  0  0
   10.8651  -18.4627   23.7348 C   0  0  2  0  0  0  0  0  0  0  0  0
   10.3843  -17.5269   22.6933 N   0  0  0  0  0  0  0  0  0  0  0  0
   11.1196  -17.6759   24.9524 C   0  0  0  0  0  0  0  0  0  0  0  0
   11.4728  -16.4479   24.8612 O   0  0  0  0  0  0  0  0  0  0  0  0
   10.9912  -18.1921   26.2494 N   0  0  0  0  0  0  0  0  0  0  0  0
   10.1713  -17.4460   27.2373 C   0  0  1  0  0  0  0  0  0  0  0  0
    8.7529  -17.5847   26.7524 C   0  0  0  0  0  0  0  0  0  0  0  0
    8.2824  -16.3317   26.1428 C   0  0  0  0  0  0  0  0  0  0  0  0
    9.0951  -15.2006   26.0493 C   0  0  0  0  0  0  0  0  0  0  0  0
    8.3491  -14.2486   25.4408 N   0  0  0  0  0  0  0  0  0  0  0  0
    7.1417  -14.7213   25.1585 C   0  0  0  0  0  0  0  0  0  0  0  0
    7.1335  -15.9853   25.5962 N   0  0  0  0  0  0  0  0  0  0  0  0
   10.3378  -18.1514   28.5327 C   0  0  0  0  0  0  0  0  0  0  0  0
   10.6880  -19.3680   28.6153 O   0  0  0  0  0  0  0  0  0  0  0  0
   10.1232  -17.5291   29.7492 O   0  0  0  0  0  0  0  0  0  0  0  0
  2  1  1  0
  2 12  2  0
  3  2  1  0
  4  3  2  0
  4  5  1  0
  5  6  1  0
  5 11  2  0
  7  6  1  0
  7  8  1  1
  9 18  1  0
  9  7  1  0
 10  9  2  0
 11 12  1  0
 13 14  1  0
 14 16  1  0
 14 15  2  0
 17 16  1  6
 17 18  1  0
 19 17  1  0
 19 21  1  0
 20 19  2  0
 22 21  1  0
 22 23  1  6
 22 29  1  0
 24 23  1  0
 24 28  1  0
 25 24  2  0
 26 25  1  0
 26 27  1  0
 27 28  2  0
 29 30  2  0
 29 31  1  0
M  END
$$$$
