YNH.pdb
     RDKit          3D

 31 32  0  0  1  0  0  0  0  0999 V2000
    5.6126  -10.5795   26.8203 O   0  0  0  0  0  0  0  0  0  0  0  0
    6.1394  -11.8093   26.4739 C   0  0  0  0  0  0  0  0  0  0  0  0
    5.7126  -12.9413   27.1377 C   0  0  0  0  0  0  0  0  0  0  0  0
    6.2367  -14.1452   26.7893 C   0  0  0  0  0  0  0  0  0  0  0  0
    7.1787  -14.2798   25.7982 C   0  0  0  0  0  0  0  0  0  0  0  0
    7.7057  -15.5999   25.4661 C   0  0  0  0  0  0  0  0  0  0  0  0
    7.2899  -16.0883   24.0837 C   0  0  2  0  0  0  0  0  0  0  0  0
    6.0206  -16.7910   24.1448 N   0  0  0  0  0  0  0  0  0  0  0  0
    8.3759  -16.9551   23.5805 C   0  0  0  0  0  0  0  0  0  0  0  0
    8.1569  -18.1854   23.4681 O   0  0  0  0  0  0  0  0  0  0  0  0
    7.6187  -13.1700   25.1244 C   0  0  0  0  0  0  0  0  0  0  0  0
    7.0864  -11.9428   25.4773 C   0  0  0  0  0  0  0  0  0  0  0  0
   12.7444  -18.5366   21.2673 N   0  0  0  0  0  0  0  0  0  0  0  0
   12.4526  -17.1860   20.8895 C   0  0  0  0  0  0  0  0  0  0  0  0
   13.1154  -16.6893   19.9443 O   0  0  0  0  0  0  0  0  0  0  0  0
   11.4071  -16.4496   21.6106 C   0  0  0  0  0  0  0  0  0  0  0  0
   10.7399  -17.1793   22.7103 C   0  0  2  0  0  0  0  0  0  0  0  0
    9.6177  -16.3748   23.2441 N   0  0  0  0  0  0  0  0  0  0  0  0
   11.6332  -17.4939   23.8369 C   0  0  0  0  0  0  0  0  0  0  0  0
   12.7443  -18.0958   23.6266 O   0  0  0  0  0  0  0  0  0  0  0  0
   11.3465  -17.1636   25.1687 N   0  0  0  0  0  0  0  0  0  0  0  0
   12.2633  -17.6385   26.2359 C   0  0  1  0  0  0  0  0  0  0  0  0
   11.5995  -17.2407   27.5271 C   0  0  0  0  0  0  0  0  0  0  0  0
   11.0259  -15.8901   27.4274 C   0  0  0  0  0  0  0  0  0  0  0  0
   11.1703  -15.1049   26.2823 C   0  0  0  0  0  0  0  0  0  0  0  0
   10.5248  -13.9425   26.5374 N   0  0  0  0  0  0  0  0  0  0  0  0
    9.9990  -13.9663   27.7556 C   0  0  0  0  0  0  0  0  0  0  0  0
   10.3202  -15.1594   28.2681 N   0  0  0  0  0  0  0  0  0  0  0  0
   12.3053  -19.1177   26.1196 C   0  0  0  0  0  0  0  0  0  0  0  0
   11.6482  -19.7595   25.2445 O   0  0  0  0  0  0  0  0  0  0  0  0
   13.0691  -19.9065   26.9608 O   0  0  0  0  0  0  0  0  0  0  0  0
  2  1  1  0
  2 12  2  0
  3  2  1  0
  4  3  2  0
  4  5  1  0
  5  6  1  0
  5 11  2  0
  7  6  1  0
  7  8  1  1
  9 18  1  0
  9  7  1  0
 10  9  2  0
 11 12  1  0
 13 14  1  0
 14 16  1  0
 14 15  2  0
 17 16  1  6
 17 18  1  0
 19 17  1  0
 19 21  1  0
 20 19  2  0
 22 21  1  0
 22 23  1  1
 22 29  1  0
 24 23  1  0
 24 28  1  0
 25 24  2  0
 26 25  1  0
 26 27  1  0
 27 28  2  0
 29 30  2  0
 29 31  1  0
M  END
$$$$
