YNH.pdb
     RDKit          3D

 31 32  0  0  1  0  0  0  0  0999 V2000
    7.3538  -13.0445   16.1816 O   0  0  0  0  0  0  0  0  0  0  0  0
    7.8607  -13.5494   17.3640 C   0  0  0  0  0  0  0  0  0  0  0  0
    7.7868  -12.7891   18.5131 C   0  0  0  0  0  0  0  0  0  0  0  0
    8.2880  -13.2949   19.6701 C   0  0  0  0  0  0  0  0  0  0  0  0
    8.8676  -14.5385   19.7405 C   0  0  0  0  0  0  0  0  0  0  0  0
    9.3884  -15.0305   21.0123 C   0  0  0  0  0  0  0  0  0  0  0  0
    8.8870  -16.4232   21.3745 C   0  0  2  0  0  0  0  0  0  0  0  0
    7.4956  -16.3795   21.7879 N   0  0  0  0  0  0  0  0  0  0  0  0
    9.7641  -16.9396   22.4460 C   0  0  0  0  0  0  0  0  0  0  0  0
    9.5187  -16.6104   23.6316 O   0  0  0  0  0  0  0  0  0  0  0  0
    8.9529  -15.3128   18.6124 C   0  0  0  0  0  0  0  0  0  0  0  0
    8.4432  -14.8000   17.4330 C   0  0  0  0  0  0  0  0  0  0  0  0
    9.3586  -19.2490   24.0927 N   0  0  0  0  0  0  0  0  0  0  0  0
   10.3836  -20.2027   23.7898 C   0  0  0  0  0  0  0  0  0  0  0  0
   10.1217  -21.4178   23.9745 O   0  0  0  0  0  0  0  0  0  0  0  0
   11.6774  -19.7284   23.2835 C   0  0  0  0  0  0  0  0  0  0  0  0
   11.8115  -18.2654   23.1139 C   0  0  2  0  0  0  0  0  0  0  0  0
   10.8434  -17.7821   22.1036 N   0  0  0  0  0  0  0  0  0  0  0  0
   13.1524  -17.8424   22.6789 C   0  0  0  0  0  0  0  0  0  0  0  0
   13.9663  -18.6982   22.1828 O   0  0  0  0  0  0  0  0  0  0  0  0
   13.6145  -16.5218   22.7662 N   0  0  0  0  0  0  0  0  0  0  0  0
   14.9687  -16.2029   22.2470 C   0  0  1  0  0  0  0  0  0  0  0  0
   14.8955  -14.7600   21.8243 C   0  0  0  0  0  0  0  0  0  0  0  0
   14.1831  -14.6238   20.5449 C   0  0  0  0  0  0  0  0  0  0  0  0
   13.7443  -15.7318   19.8179 C   0  0  0  0  0  0  0  0  0  0  0  0
   13.1372  -15.2415   18.7116 N   0  0  0  0  0  0  0  0  0  0  0  0
   13.1763  -13.9151   18.7153 C   0  0  0  0  0  0  0  0  0  0  0  0
   13.8162  -13.5723   19.8390 N   0  0  0  0  0  0  0  0  0  0  0  0
   15.8990  -16.3510   23.3941 C   0  0  0  0  0  0  0  0  0  0  0  0
   15.5122  -16.6747   24.5582 O   0  0  0  0  0  0  0  0  0  0  0  0
   17.2618  -16.1468   23.2750 O   0  0  0  0  0  0  0  0  0  0  0  0
  2  1  1  0
  2 12  2  0
  3  2  1  0
  4  3  2  0
  4  5  1  0
  5  6  1  0
  5 11  2  0
  7  6  1  0
  7  8  1  1
  9 18  1  0
  9  7  1  0
 10  9  2  0
 11 12  1  0
 13 14  1  0
 14 16  1  0
 14 15  2  0
 17 16  1  6
 17 18  1  0
 19 17  1  0
 19 21  1  0
 20 19  2  0
 22 21  1  0
 22 23  1  1
 22 29  1  0
 24 23  1  0
 24 28  1  0
 25 24  2  0
 26 25  1  0
 26 27  1  0
 27 28  2  0
 29 30  2  0
 29 31  1  0
M  END
$$$$
