YNH.pdb
     RDKit          3D

 31 32  0  0  1  0  0  0  0  0999 V2000
   16.8826  -12.8582   20.4061 O   0  0  0  0  0  0  0  0  0  0  0  0
   15.6063  -13.2812   20.0862 C   0  0  0  0  0  0  0  0  0  0  0  0
   14.8198  -13.8610   21.0606 C   0  0  0  0  0  0  0  0  0  0  0  0
   13.5668  -14.2732   20.7358 C   0  0  0  0  0  0  0  0  0  0  0  0
   13.0505  -14.1346   19.4700 C   0  0  0  0  0  0  0  0  0  0  0  0
   11.6963  -14.5954   19.1794 C   0  0  0  0  0  0  0  0  0  0  0  0
   11.6505  -15.7671   18.2061 C   0  0  2  0  0  0  0  0  0  0  0  0
   10.7579  -15.4820   17.0967 N   0  0  0  0  0  0  0  0  0  0  0  0
   11.2170  -16.9551   18.9708 C   0  0  0  0  0  0  0  0  0  0  0  0
   10.1552  -17.5309   18.6317 O   0  0  0  0  0  0  0  0  0  0  0  0
   13.8125  -13.5618   18.4849 C   0  0  0  0  0  0  0  0  0  0  0  0
   15.0889  -13.1412   18.8133 C   0  0  0  0  0  0  0  0  0  0  0  0
   10.8104  -19.9874   17.4892 N   0  0  0  0  0  0  0  0  0  0  0  0
   10.5657  -19.8538   18.8943 C   0  0  0  0  0  0  0  0  0  0  0  0
    9.3693  -19.7927   19.2741 O   0  0  0  0  0  0  0  0  0  0  0  0
   11.7051  -19.7954   19.8182 C   0  0  0  0  0  0  0  0  0  0  0  0
   11.7127  -18.6628   20.7691 C   0  0  2  0  0  0  0  0  0  0  0  0
   12.0069  -17.4016   20.0519 N   0  0  0  0  0  0  0  0  0  0  0  0
   12.7077  -18.8020   21.8446 C   0  0  0  0  0  0  0  0  0  0  0  0
   12.6731  -19.8183   22.6237 O   0  0  0  0  0  0  0  0  0  0  0  0
   13.7299  -17.8719   22.0797 N   0  0  0  0  0  0  0  0  0  0  0  0
   14.6106  -18.0614   23.2601 C   0  0  1  0  0  0  0  0  0  0  0  0
   15.7254  -17.0659   23.0797 C   0  0  0  0  0  0  0  0  0  0  0  0
   16.6237  -17.4764   21.9900 C   0  0  0  0  0  0  0  0  0  0  0  0
   16.4337  -18.6620   21.2781 C   0  0  0  0  0  0  0  0  0  0  0  0
   17.4302  -18.7172   20.3632 N   0  0  0  0  0  0  0  0  0  0  0  0
   18.2113  -17.6497   20.4691 C   0  0  0  0  0  0  0  0  0  0  0  0
   17.6958  -16.9180   21.4633 N   0  0  0  0  0  0  0  0  0  0  0  0
   13.7958  -17.7037   24.4481 C   0  0  0  0  0  0  0  0  0  0  0  0
   14.2067  -17.8594   25.6382 O   0  0  0  0  0  0  0  0  0  0  0  0
   12.5237  -17.1711   24.3421 O   0  0  0  0  0  0  0  0  0  0  0  0
  2  1  1  0
  2 12  2  0
  3  2  1  0
  4  3  2  0
  4  5  1  0
  5  6  1  0
  5 11  2  0
  7  6  1  0
  7  8  1  6
  9 18  1  0
  9  7  1  0
 10  9  2  0
 11 12  1  0
 13 14  1  0
 14 16  1  0
 14 15  2  0
 17 16  1  6
 17 18  1  0
 19 17  1  0
 19 21  1  0
 20 19  2  0
 22 21  1  0
 22 23  1  6
 22 29  1  0
 24 23  1  0
 24 28  1  0
 25 24  2  0
 26 25  1  0
 26 27  1  0
 27 28  2  0
 29 30  2  0
 29 31  1  0
M  END
$$$$
