YNH.pdb
     RDKit          3D

 31 32  0  0  1  0  0  0  0  0999 V2000
    6.6836  -12.6211   17.4207 O   0  0  0  0  0  0  0  0  0  0  0  0
    7.4102  -13.0629   18.5101 C   0  0  0  0  0  0  0  0  0  0  0  0
    8.6605  -13.6127   18.3136 C   0  0  0  0  0  0  0  0  0  0  0  0
    9.3665  -14.0438   19.3912 C   0  0  0  0  0  0  0  0  0  0  0  0
    8.8819  -13.9534   20.6737 C   0  0  0  0  0  0  0  0  0  0  0  0
    9.6862  -14.4324   21.7936 C   0  0  0  0  0  0  0  0  0  0  0  0
    9.5792  -15.9360   22.0173 C   0  0  2  0  0  0  0  0  0  0  0  0
    8.2286  -16.3059   22.4015 N   0  0  0  0  0  0  0  0  0  0  0  0
   10.5658  -16.2955   23.0572 C   0  0  0  0  0  0  0  0  0  0  0  0
   10.1739  -16.3988   24.2445 O   0  0  0  0  0  0  0  0  0  0  0  0
    7.6424  -13.4111   20.8946 C   0  0  0  0  0  0  0  0  0  0  0  0
    6.9215  -12.9713   19.7987 C   0  0  0  0  0  0  0  0  0  0  0  0
   11.6656  -19.0723   26.3844 N   0  0  0  0  0  0  0  0  0  0  0  0
   12.7459  -18.6298   25.5541 C   0  0  0  0  0  0  0  0  0  0  0  0
   13.8734  -18.4892   26.0909 O   0  0  0  0  0  0  0  0  0  0  0  0
   12.4949  -18.3636   24.1323 C   0  0  0  0  0  0  0  0  0  0  0  0
   12.9139  -17.0349   23.6366 C   0  0  2  0  0  0  0  0  0  0  0  0
   11.9099  -16.5103   22.6836 N   0  0  0  0  0  0  0  0  0  0  0  0
   14.2143  -17.0455   22.9472 C   0  0  0  0  0  0  0  0  0  0  0  0
   14.3987  -17.8102   21.9362 O   0  0  0  0  0  0  0  0  0  0  0  0
   15.2999  -16.2449   23.3285 N   0  0  0  0  0  0  0  0  0  0  0  0
   16.5368  -16.2803   22.5076 C   0  0  1  0  0  0  0  0  0  0  0  0
   16.7881  -14.8482   22.1175 C   0  0  0  0  0  0  0  0  0  0  0  0
   16.2267  -14.5604   20.7890 C   0  0  0  0  0  0  0  0  0  0  0  0
   15.4786  -15.5014   20.0794 C   0  0  0  0  0  0  0  0  0  0  0  0
   15.1263  -14.9047   18.9163 N   0  0  0  0  0  0  0  0  0  0  0  0
   15.6072  -13.6689   18.8694 C   0  0  0  0  0  0  0  0  0  0  0  0
   16.2686  -13.4912   20.0186 N   0  0  0  0  0  0  0  0  0  0  0  0
   17.6173  -16.7608   23.4047 C   0  0  0  0  0  0  0  0  0  0  0  0
   17.4553  -16.9262   24.6521 O   0  0  0  0  0  0  0  0  0  0  0  0
   18.8848  -17.0655   22.9423 O   0  0  0  0  0  0  0  0  0  0  0  0
  2  1  1  0
  2 12  2  0
  3  2  1  0
  4  3  2  0
  4  5  1  0
  5  6  1  0
  5 11  2  0
  7  6  1  0
  7  8  1  1
  9 18  1  0
  9  7  1  0
 10  9  2  0
 11 12  1  0
 13 14  1  0
 14 16  1  0
 14 15  2  0
 17 16  1  6
 17 18  1  0
 19 17  1  0
 19 21  1  0
 20 19  2  0
 22 21  1  0
 22 23  1  1
 22 29  1  0
 24 23  1  0
 24 28  1  0
 25 24  2  0
 26 25  1  0
 26 27  1  0
 27 28  2  0
 29 30  2  0
 29 31  1  0
M  END
$$$$
