YNH.pdb
     RDKit          3D

 31 32  0  0  1  0  0  0  0  0999 V2000
    8.8147  -12.2802   17.5139 O   0  0  0  0  0  0  0  0  0  0  0  0
    8.4964  -13.0160   18.6395 C   0  0  0  0  0  0  0  0  0  0  0  0
    9.5027  -13.6371   19.3508 C   0  0  0  0  0  0  0  0  0  0  0  0
    9.1790  -14.3579   20.4559 C   0  0  0  0  0  0  0  0  0  0  0  0
    7.8838  -14.4930   20.8942 C   0  0  0  0  0  0  0  0  0  0  0  0
    7.5959  -15.2795   22.0896 C   0  0  0  0  0  0  0  0  0  0  0  0
    7.6632  -16.7840   21.8561 C   0  0  2  0  0  0  0  0  0  0  0  0
    6.8487  -17.1663   20.7163 N   0  0  0  0  0  0  0  0  0  0  0  0
    7.2122  -17.4410   23.1007 C   0  0  0  0  0  0  0  0  0  0  0  0
    6.2282  -18.2174   23.0454 O   0  0  0  0  0  0  0  0  0  0  0  0
    6.8667  -13.8855   20.2045 C   0  0  0  0  0  0  0  0  0  0  0  0
    7.1938  -13.1509   19.0788 C   0  0  0  0  0  0  0  0  0  0  0  0
    6.3971  -20.5082   27.0098 N   0  0  0  0  0  0  0  0  0  0  0  0
    7.7207  -20.2018   26.5557 C   0  0  0  0  0  0  0  0  0  0  0  0
    8.6846  -20.6818   27.2037 O   0  0  0  0  0  0  0  0  0  0  0  0
    7.8936  -19.3534   25.3702 C   0  0  0  0  0  0  0  0  0  0  0  0
    7.6051  -17.9146   25.5537 C   0  0  2  0  0  0  0  0  0  0  0  0
    7.8991  -17.1760   24.3049 N   0  0  0  0  0  0  0  0  0  0  0  0
    8.3876  -17.2888   26.6319 C   0  0  0  0  0  0  0  0  0  0  0  0
    8.3348  -17.7619   27.8211 O   0  0  0  0  0  0  0  0  0  0  0  0
    9.2203  -16.1776   26.4402 N   0  0  0  0  0  0  0  0  0  0  0  0
    9.9792  -15.6450   27.6002 C   0  0  1  0  0  0  0  0  0  0  0  0
    8.9382  -15.0408   28.5043 C   0  0  0  0  0  0  0  0  0  0  0  0
    8.0800  -14.1042   27.7633 C   0  0  0  0  0  0  0  0  0  0  0  0
    6.8485  -14.4887   27.2301 C   0  0  0  0  0  0  0  0  0  0  0  0
    6.3389  -13.3897   26.6255 N   0  0  0  0  0  0  0  0  0  0  0  0
    7.1732  -12.3658   26.7537 C   0  0  0  0  0  0  0  0  0  0  0  0
    8.2177  -12.8313   27.4478 N   0  0  0  0  0  0  0  0  0  0  0  0
   10.6076  -16.8171   28.2591 C   0  0  0  0  0  0  0  0  0  0  0  0
   10.4020  -18.0115   27.8839 O   0  0  0  0  0  0  0  0  0  0  0  0
   11.4681  -16.6905   29.3346 O   0  0  0  0  0  0  0  0  0  0  0  0
  2  1  1  0
  2 12  2  0
  3  2  1  0
  4  3  2  0
  4  5  1  0
  5  6  1  0
  5 11  2  0
  7  6  1  0
  7  8  1  6
  9 18  1  0
  9  7  1  0
 10  9  2  0
 11 12  1  0
 13 14  1  0
 14 16  1  0
 14 15  2  0
 17 16  1  6
 17 18  1  0
 19 17  1  0
 19 21  1  0
 20 19  2  0
 22 21  1  0
 22 23  1  1
 22 29  1  0
 24 23  1  0
 24 28  1  0
 25 24  2  0
 26 25  1  0
 26 27  1  0
 27 28  2  0
 29 30  2  0
 29 31  1  0
M  END
$$$$
