NHD.pdb
     RDKit          3D

 27 27  0  0  1  0  0  0  0  0999 V2000
   28.0049   -8.4879  -19.0425 N   0  0  0  0  0  0  0  0  0  0  0  0
   27.5222   -7.3824  -18.3218 C   0  0  0  0  0  0  0  0  0  0  0  0
   27.9363   -6.2207  -18.6153 O   0  0  0  0  0  0  0  0  0  0  0  0
   26.5448   -7.6214  -17.2381 C   0  0  0  0  0  0  0  0  0  0  0  0
   26.2468   -9.1034  -17.0447 C   0  0  2  0  0  0  0  0  0  0  0  0
   26.4723   -9.7955  -18.3303 N   0  0  0  0  0  0  0  0  0  0  0  0
   24.7939   -9.1958  -16.7679 C   0  0  0  0  0  0  0  0  0  0  0  0
   23.9485   -9.0246  -17.6995 O   0  0  0  0  0  0  0  0  0  0  0  0
   24.2731   -9.4731  -15.4776 N   0  0  0  0  0  0  0  0  0  0  0  0
   22.8271   -9.6542  -15.3348 C   0  0  1  0  0  0  0  0  0  0  0  0
   22.6819  -10.5947  -14.1280 C   0  0  0  0  0  0  0  0  0  0  0  0
   23.1166  -11.9631  -14.4569 C   0  0  0  0  0  0  0  0  0  0  0  0
   22.5171  -12.8461  -15.3005 C   0  0  0  0  0  0  0  0  0  0  0  0
   23.2564  -13.9614  -15.2964 N   0  0  0  0  0  0  0  0  0  0  0  0
   24.3001  -13.7679  -14.4603 C   0  0  0  0  0  0  0  0  0  0  0  0
   24.2170  -12.5254  -13.9351 N   0  0  0  0  0  0  0  0  0  0  0  0
   22.1390   -8.3852  -15.0814 C   0  0  0  0  0  0  0  0  0  0  0  0
   22.6704   -7.5238  -14.3343 O   0  0  0  0  0  0  0  0  0  0  0  0
   20.8882   -8.1168  -15.6640 N   0  0  0  0  0  0  0  0  0  0  0  0
   20.1629   -6.8867  -15.5221 C   0  0  1  0  0  0  0  0  0  0  0  0
   20.6280   -5.7897  -16.4941 C   0  0  0  0  0  0  0  0  0  0  0  0
   19.8225   -4.5766  -16.4045 C   0  0  0  0  0  0  0  0  0  0  0  0
   19.5128   -4.0906  -15.2827 O   0  0  0  0  0  0  0  0  0  0  0  0
   18.6994   -7.0538  -15.5621 C   0  0  0  0  0  0  0  0  0  0  0  0
   18.2073   -8.0218  -16.1894 O   0  0  0  0  0  0  0  0  0  0  0  0
   19.3636   -3.9026  -17.5394 O   0  0  0  0  0  0  0  0  0  0  0  0
   17.8357   -6.1813  -14.9300 O   0  0  0  0  0  0  0  0  0  0  0  0
  2  3  2  0
  2  1  1  0
  4  2  1  0
  5  4  1  0
  5  7  1  0
  5  6  1  6
  7  8  2  0
  9 10  1  0
  9  7  1  0
 11 12  1  0
 10 11  1  1
 12 16  1  0
 13 14  1  0
 13 12  2  0
 14 15  1  0
 15 16  2  0
 17 10  1  0
 17 18  2  0
 19 17  1  0
 20 19  1  0
 20 24  1  0
 20 21  1  6
 22 23  2  0
 22 21  1  0
 24 25  2  0
 24 27  1  0
 26 22  1  0
M  END
$$$$
