NHD.pdb
     RDKit          3D

 27 27  0  0  1  0  0  0  0  0999 V2000
   27.9489   -9.1432  -21.1309 N   0  0  0  0  0  0  0  0  0  0  0  0
   27.1517   -8.0086  -20.9035 C   0  0  0  0  0  0  0  0  0  0  0  0
   27.5026   -6.8941  -21.3954 O   0  0  0  0  0  0  0  0  0  0  0  0
   25.9268   -8.1611  -20.0891 C   0  0  0  0  0  0  0  0  0  0  0  0
   25.7466   -9.5852  -19.5771 C   0  0  2  0  0  0  0  0  0  0  0  0
   25.1546  -10.3980  -20.6595 N   0  0  0  0  0  0  0  0  0  0  0  0
   24.7267   -9.5083  -18.5047 C   0  0  0  0  0  0  0  0  0  0  0  0
   23.4911   -9.4614  -18.7930 O   0  0  0  0  0  0  0  0  0  0  0  0
   25.0610   -9.4821  -17.1261 N   0  0  0  0  0  0  0  0  0  0  0  0
   23.9731   -9.4473  -16.1467 C   0  0  1  0  0  0  0  0  0  0  0  0
   24.4711  -10.3385  -14.9977 C   0  0  0  0  0  0  0  0  0  0  0  0
   24.4002  -11.7659  -15.3543 C   0  0  0  0  0  0  0  0  0  0  0  0
   23.9550  -12.3112  -16.5184 C   0  0  0  0  0  0  0  0  0  0  0  0
   24.0738  -13.6391  -16.4040 N   0  0  0  0  0  0  0  0  0  0  0  0
   24.5870  -13.9092  -15.1836 C   0  0  0  0  0  0  0  0  0  0  0  0
   24.7915  -12.7461  -14.5265 N   0  0  0  0  0  0  0  0  0  0  0  0
   23.7134   -8.0876  -15.6652 C   0  0  0  0  0  0  0  0  0  0  0  0
   24.6692   -7.2834  -15.5167 O   0  0  0  0  0  0  0  0  0  0  0  0
   22.4055   -7.6686  -15.3657 N   0  0  0  0  0  0  0  0  0  0  0  0
   22.0289   -6.3234  -15.0370 C   0  0  1  0  0  0  0  0  0  0  0  0
   22.5960   -5.2769  -16.0105 C   0  0  0  0  0  0  0  0  0  0  0  0
   22.1967   -3.9152  -15.6720 C   0  0  0  0  0  0  0  0  0  0  0  0
   22.2569   -3.5036  -14.4814 O   0  0  0  0  0  0  0  0  0  0  0  0
   20.5792   -6.1449  -14.8419 C   0  0  0  0  0  0  0  0  0  0  0  0
   19.7784   -6.7242  -15.6137 O   0  0  0  0  0  0  0  0  0  0  0  0
   21.7374   -3.0131  -16.6354 O   0  0  0  0  0  0  0  0  0  0  0  0
   20.0578   -5.3591  -13.8332 O   0  0  0  0  0  0  0  0  0  0  0  0
  2  3  2  0
  2  1  1  0
  4  2  1  0
  5  4  1  0
  5  7  1  0
  5  6  1  6
  7  8  2  0
  9 10  1  0
  9  7  1  0
 11 12  1  0
 10 11  1  1
 12 16  1  0
 13 14  1  0
 13 12  2  0
 14 15  1  0
 15 16  2  0
 17 10  1  0
 17 18  2  0
 19 17  1  0
 20 19  1  0
 20 24  1  0
 20 21  1  6
 22 23  2  0
 22 21  1  0
 24 25  2  0
 24 27  1  0
 26 22  1  0
M  END
$$$$
