NHD.pdb
     RDKit          3D

 27 27  0  0  1  0  0  0  0  0999 V2000
   33.8935  -30.7644  -21.1726 N   0  0  0  0  0  0  0  0  0  0  0  0
   32.5930  -31.2300  -20.9150 C   0  0  0  0  0  0  0  0  0  0  0  0
   32.0607  -32.0593  -21.7126 O   0  0  0  0  0  0  0  0  0  0  0  0
   31.8901  -30.7264  -19.7153 C   0  0  0  0  0  0  0  0  0  0  0  0
   32.7376  -29.7406  -18.9200 C   0  0  2  0  0  0  0  0  0  0  0  0
   33.6513  -30.5084  -18.0492 N   0  0  0  0  0  0  0  0  0  0  0  0
   31.8002  -29.0285  -18.0199 C   0  0  0  0  0  0  0  0  0  0  0  0
   31.4046  -29.5708  -16.9423 O   0  0  0  0  0  0  0  0  0  0  0  0
   31.2999  -27.7310  -18.3015 N   0  0  0  0  0  0  0  0  0  0  0  0
   30.4000  -27.1061  -17.3301 C   0  0  1  0  0  0  0  0  0  0  0  0
   30.9144  -25.6624  -17.2135 C   0  0  0  0  0  0  0  0  0  0  0  0
   32.0451  -25.5683  -16.2742 C   0  0  0  0  0  0  0  0  0  0  0  0
   32.6777  -26.5856  -15.6295 C   0  0  0  0  0  0  0  0  0  0  0  0
   33.6444  -26.0400  -14.8824 N   0  0  0  0  0  0  0  0  0  0  0  0
   33.6085  -24.7016  -15.0649 C   0  0  0  0  0  0  0  0  0  0  0  0
   32.6142  -24.4034  -15.9303 N   0  0  0  0  0  0  0  0  0  0  0  0
   29.0075  -27.1187  -17.7871 C   0  0  0  0  0  0  0  0  0  0  0  0
   28.7535  -27.1204  -19.0191 O   0  0  0  0  0  0  0  0  0  0  0  0
   27.9479  -27.1287  -16.8635 N   0  0  0  0  0  0  0  0  0  0  0  0
   26.5555  -27.1293  -17.2108 C   0  0  1  0  0  0  0  0  0  0  0  0
   25.6473  -27.6540  -16.0863 C   0  0  0  0  0  0  0  0  0  0  0  0
   24.2454  -27.7324  -16.4822 C   0  0  0  0  0  0  0  0  0  0  0  0
   23.6820  -28.8499  -16.6386 O   0  0  0  0  0  0  0  0  0  0  0  0
   26.0739  -25.8372  -17.7305 C   0  0  0  0  0  0  0  0  0  0  0  0
   26.4688  -24.7734  -17.1967 O   0  0  0  0  0  0  0  0  0  0  0  0
   23.4692  -26.5913  -16.7018 O   0  0  0  0  0  0  0  0  0  0  0  0
   25.1973  -25.7456  -18.7936 O   0  0  0  0  0  0  0  0  0  0  0  0
  2  3  2  0
  2  1  1  0
  4  2  1  0
  5  4  1  0
  5  7  1  0
  5  6  1  1
  7  8  2  0
  9 10  1  0
  9  7  1  0
 11 12  1  0
 10 11  1  6
 12 16  1  0
 13 14  1  0
 13 12  2  0
 14 15  1  0
 15 16  2  0
 17 10  1  0
 17 18  2  0
 19 17  1  0
 20 19  1  0
 20 24  1  0
 20 21  1  1
 22 23  2  0
 22 21  1  0
 24 25  2  0
 24 27  1  0
 26 22  1  0
M  END
$$$$
