NHD.pdb
     RDKit          3D

 27 27  0  0  1  0  0  0  0  0999 V2000
   22.9645  -13.1710  -20.9503 N   0  0  0  0  0  0  0  0  0  0  0  0
   23.4054  -12.2830  -19.9546 C   0  0  0  0  0  0  0  0  0  0  0  0
   24.6310  -12.2720  -19.6304 O   0  0  0  0  0  0  0  0  0  0  0  0
   22.4125  -11.3919  -19.3167 C   0  0  0  0  0  0  0  0  0  0  0  0
   22.6987  -11.1736  -17.8359 C   0  0  2  0  0  0  0  0  0  0  0  0
   22.5902  -12.4743  -17.1438 N   0  0  0  0  0  0  0  0  0  0  0  0
   21.5906  -10.3329  -17.3246 C   0  0  0  0  0  0  0  0  0  0  0  0
   21.1317   -9.3774  -18.0234 O   0  0  0  0  0  0  0  0  0  0  0  0
   20.9914  -10.5391  -16.0552 N   0  0  0  0  0  0  0  0  0  0  0  0
   19.9011   -9.6509  -15.6476 C   0  0  1  0  0  0  0  0  0  0  0  0
   18.9229  -10.5720  -14.9013 C   0  0  0  0  0  0  0  0  0  0  0  0
   18.1655  -11.4225  -15.8355 C   0  0  0  0  0  0  0  0  0  0  0  0
   17.1016  -11.0690  -16.6062 C   0  0  0  0  0  0  0  0  0  0  0  0
   16.7359  -12.1546  -17.2976 N   0  0  0  0  0  0  0  0  0  0  0  0
   17.5653  -13.1657  -16.9575 C   0  0  0  0  0  0  0  0  0  0  0  0
   18.4567  -12.7146  -16.0474 N   0  0  0  0  0  0  0  0  0  0  0  0
   20.3696   -8.5785  -14.7654 C   0  0  0  0  0  0  0  0  0  0  0  0
   21.2800   -8.8096  -13.9287 O   0  0  0  0  0  0  0  0  0  0  0  0
   19.8128   -7.2900  -14.8418 N   0  0  0  0  0  0  0  0  0  0  0  0
   20.2690   -6.1524  -14.0953 C   0  0  1  0  0  0  0  0  0  0  0  0
   21.7951   -5.9690  -14.1362 C   0  0  0  0  0  0  0  0  0  0  0  0
   22.2464   -4.8135  -13.3686 C   0  0  0  0  0  0  0  0  0  0  0  0
   22.5909   -3.7487  -13.9501 O   0  0  0  0  0  0  0  0  0  0  0  0
   19.5689   -4.9011  -14.4354 C   0  0  0  0  0  0  0  0  0  0  0  0
   19.7592   -3.8792  -13.7339 O   0  0  0  0  0  0  0  0  0  0  0  0
   22.3159   -4.8282  -11.9729 O   0  0  0  0  0  0  0  0  0  0  0  0
   18.7030   -4.8032  -15.5067 O   0  0  0  0  0  0  0  0  0  0  0  0
  2  3  2  0
  2  1  1  0
  4  2  1  0
  5  4  1  0
  5  7  1  0
  5  6  1  1
  7  8  2  0
  9 10  1  0
  9  7  1  0
 11 12  1  0
 10 11  1  1
 12 16  1  0
 13 14  1  0
 13 12  2  0
 14 15  1  0
 15 16  2  0
 17 10  1  0
 17 18  2  0
 19 17  1  0
 20 19  1  0
 20 24  1  0
 20 21  1  6
 22 23  2  0
 22 21  1  0
 24 25  2  0
 24 27  1  0
 26 22  1  0
M  END
$$$$
