NHD.pdb
     RDKit          3D

 27 27  0  0  1  0  0  0  0  0999 V2000
   18.5436  -13.0147  -18.2604 N   0  0  0  0  0  0  0  0  0  0  0  0
   19.8258  -12.5524  -18.6021 C   0  0  0  0  0  0  0  0  0  0  0  0
   20.3078  -12.8412  -19.7386 O   0  0  0  0  0  0  0  0  0  0  0  0
   20.5692  -11.7438  -17.6120 C   0  0  0  0  0  0  0  0  0  0  0  0
   22.0651  -11.7081  -17.9009 C   0  0  2  0  0  0  0  0  0  0  0  0
   22.6261  -13.0455  -17.6191 N   0  0  0  0  0  0  0  0  0  0  0  0
   22.6532  -10.7872  -16.8998 C   0  0  0  0  0  0  0  0  0  0  0  0
   22.1831  -10.7311  -15.7217 O   0  0  0  0  0  0  0  0  0  0  0  0
   23.7487   -9.9336  -17.1902 N   0  0  0  0  0  0  0  0  0  0  0  0
   24.1921   -8.9946  -16.1579 C   0  0  1  0  0  0  0  0  0  0  0  0
   25.7108   -8.8901  -16.3701 C   0  0  0  0  0  0  0  0  0  0  0  0
   26.3905  -10.1502  -16.0239 C   0  0  0  0  0  0  0  0  0  0  0  0
   25.8311  -11.2898  -15.5348 C   0  0  0  0  0  0  0  0  0  0  0  0
   26.8195  -12.1768  -15.3709 N   0  0  0  0  0  0  0  0  0  0  0  0
   27.9748  -11.5908  -15.7552 C   0  0  0  0  0  0  0  0  0  0  0  0
   27.7126  -10.3291  -16.1622 N   0  0  0  0  0  0  0  0  0  0  0  0
   23.5621   -7.6798  -16.3069 C   0  0  0  0  0  0  0  0  0  0  0  0
   23.8205   -6.9729  -17.3149 O   0  0  0  0  0  0  0  0  0  0  0  0
   22.6695   -7.1960  -15.3347 N   0  0  0  0  0  0  0  0  0  0  0  0
   21.9348   -5.9672  -15.4329 C   0  0  1  0  0  0  0  0  0  0  0  0
   20.4112   -6.1608  -15.3591 C   0  0  0  0  0  0  0  0  0  0  0  0
   19.8838   -6.9281  -16.4822 C   0  0  0  0  0  0  0  0  0  0  0  0
   20.2828   -6.7060  -17.6578 O   0  0  0  0  0  0  0  0  0  0  0  0
   22.3899   -4.9280  -14.4925 C   0  0  0  0  0  0  0  0  0  0  0  0
   23.1742   -5.2384  -13.5645 O   0  0  0  0  0  0  0  0  0  0  0  0
   18.9273   -7.9329  -16.3133 O   0  0  0  0  0  0  0  0  0  0  0  0
   21.9867   -3.6109  -14.5906 O   0  0  0  0  0  0  0  0  0  0  0  0
  2  3  2  0
  2  1  1  0
  4  2  1  0
  5  4  1  0
  5  7  1  0
  5  6  1  1
  7  8  2  0
  9 10  1  0
  9  7  1  0
 11 12  1  0
 10 11  1  6
 12 16  1  0
 13 14  1  0
 13 12  2  0
 14 15  1  0
 15 16  2  0
 17 10  1  0
 17 18  2  0
 19 17  1  0
 20 19  1  0
 20 24  1  0
 20 21  1  1
 22 23  2  0
 22 21  1  0
 24 25  2  0
 24 27  1  0
 26 22  1  0
M  END
$$$$
