NHD.pdb
     RDKit          3D

 27 27  0  0  1  0  0  0  0  0999 V2000
   24.7042  -10.9421  -22.0734 N   0  0  0  0  0  0  0  0  0  0  0  0
   23.4746  -10.3325  -22.3752 C   0  0  0  0  0  0  0  0  0  0  0  0
   23.1776  -10.0986  -23.5853 O   0  0  0  0  0  0  0  0  0  0  0  0
   22.5704   -9.9819  -21.2588 C   0  0  0  0  0  0  0  0  0  0  0  0
   23.1583  -10.3491  -19.9016 C   0  0  2  0  0  0  0  0  0  0  0  0
   23.0028  -11.8050  -19.7050 N   0  0  0  0  0  0  0  0  0  0  0  0
   22.2941   -9.6948  -18.8910 C   0  0  0  0  0  0  0  0  0  0  0  0
   21.0536   -9.5365  -19.1097 O   0  0  0  0  0  0  0  0  0  0  0  0
   22.7886   -9.2170  -17.6499 N   0  0  0  0  0  0  0  0  0  0  0  0
   21.8377   -8.6409  -16.6971 C   0  0  1  0  0  0  0  0  0  0  0  0
   22.2990   -9.1769  -15.3325 C   0  0  0  0  0  0  0  0  0  0  0  0
   21.3783   -8.7723  -14.2563 C   0  0  0  0  0  0  0  0  0  0  0  0
   20.2377   -8.0395  -14.3692 C   0  0  0  0  0  0  0  0  0  0  0  0
   19.7228   -7.9173  -13.1402 N   0  0  0  0  0  0  0  0  0  0  0  0
   20.5364   -8.5680  -12.2796 C   0  0  0  0  0  0  0  0  0  0  0  0
   21.5685   -9.1015  -12.9699 N   0  0  0  0  0  0  0  0  0  0  0  0
   21.8700   -7.1757  -16.7099 C   0  0  0  0  0  0  0  0  0  0  0  0
   22.9713   -6.5751  -16.8031 O   0  0  0  0  0  0  0  0  0  0  0  0
   20.6821   -6.4296  -16.6187 N   0  0  0  0  0  0  0  0  0  0  0  0
   20.6023   -4.9991  -16.6997 C   0  0  1  0  0  0  0  0  0  0  0  0
   20.0510   -4.4948  -18.0437 C   0  0  0  0  0  0  0  0  0  0  0  0
   20.0330   -3.0391  -18.1368 C   0  0  0  0  0  0  0  0  0  0  0  0
   21.0675   -2.3645  -17.8808 O   0  0  0  0  0  0  0  0  0  0  0  0
   19.8966   -4.3798  -15.5640 C   0  0  0  0  0  0  0  0  0  0  0  0
   18.6742   -4.6074  -15.4008 O   0  0  0  0  0  0  0  0  0  0  0  0
   18.8874   -2.3314  -18.5107 O   0  0  0  0  0  0  0  0  0  0  0  0
   20.5306   -3.5508  -14.6597 O   0  0  0  0  0  0  0  0  0  0  0  0
  2  3  2  0
  2  1  1  0
  4  2  1  0
  5  4  1  0
  5  7  1  0
  5  6  1  1
  7  8  2  0
  9 10  1  0
  9  7  1  0
 11 12  1  0
 10 11  1  1
 12 16  1  0
 13 14  1  0
 13 12  2  0
 14 15  1  0
 15 16  2  0
 17 10  1  0
 17 18  2  0
 19 17  1  0
 20 19  1  0
 20 24  1  0
 20 21  1  6
 22 23  2  0
 22 21  1  0
 24 25  2  0
 24 27  1  0
 26 22  1  0
M  END
$$$$
