NHD.pdb
     RDKit          3D

 27 27  0  0  1  0  0  0  0  0999 V2000
   27.2245  -15.2857  -17.2164 N   0  0  0  0  0  0  0  0  0  0  0  0
   27.2657  -13.9200  -17.5443 C   0  0  0  0  0  0  0  0  0  0  0  0
   28.3813  -13.3771  -17.8049 O   0  0  0  0  0  0  0  0  0  0  0  0
   25.9952  -13.1636  -17.5687 C   0  0  0  0  0  0  0  0  0  0  0  0
   26.0451  -11.9211  -16.6877 C   0  0  2  0  0  0  0  0  0  0  0  0
   26.2760  -12.3484  -15.2924 N   0  0  0  0  0  0  0  0  0  0  0  0
   24.6839  -11.3366  -16.7274 C   0  0  0  0  0  0  0  0  0  0  0  0
   24.2473  -10.7924  -17.7881 O   0  0  0  0  0  0  0  0  0  0  0  0
   23.8091  -11.3484  -15.6105 N   0  0  0  0  0  0  0  0  0  0  0  0
   22.5108  -10.6831  -15.7362 C   0  0  1  0  0  0  0  0  0  0  0  0
   21.5159  -11.6768  -15.1157 C   0  0  0  0  0  0  0  0  0  0  0  0
   20.1282  -11.1999  -15.2442 C   0  0  0  0  0  0  0  0  0  0  0  0
   19.6948  -10.0481  -15.8242 C   0  0  0  0  0  0  0  0  0  0  0  0
   18.3613  -10.0278  -15.7154 N   0  0  0  0  0  0  0  0  0  0  0  0
   17.9770  -11.1546  -15.0762 C   0  0  0  0  0  0  0  0  0  0  0  0
   19.0736  -11.8871  -14.7807 N   0  0  0  0  0  0  0  0  0  0  0  0
   22.4777   -9.4072  -15.0157 C   0  0  0  0  0  0  0  0  0  0  0  0
   23.3942   -9.1243  -14.2020 O   0  0  0  0  0  0  0  0  0  0  0  0
   21.4310   -8.4919  -15.2225 N   0  0  0  0  0  0  0  0  0  0  0  0
   21.3912   -7.1572  -14.6967 C   0  0  1  0  0  0  0  0  0  0  0  0
   22.7098   -6.3888  -14.8844 C   0  0  0  0  0  0  0  0  0  0  0  0
   22.6609   -5.0391  -14.3331 C   0  0  0  0  0  0  0  0  0  0  0  0
   22.3049   -4.8436  -13.1391 O   0  0  0  0  0  0  0  0  0  0  0  0
   20.2389   -6.3688  -15.1683 C   0  0  0  0  0  0  0  0  0  0  0  0
   19.9887   -5.2632  -14.6319 O   0  0  0  0  0  0  0  0  0  0  0  0
   23.0029   -3.9139  -15.0881 O   0  0  0  0  0  0  0  0  0  0  0  0
   19.4135   -6.7990  -16.1884 O   0  0  0  0  0  0  0  0  0  0  0  0
  2  3  2  0
  2  1  1  0
  4  2  1  0
  5  4  1  0
  5  7  1  0
  5  6  1  1
  7  8  2  0
  9 10  1  0
  9  7  1  0
 11 12  1  0
 10 11  1  1
 12 16  1  0
 13 14  1  0
 13 12  2  0
 14 15  1  0
 15 16  2  0
 17 10  1  0
 17 18  2  0
 19 17  1  0
 20 19  1  0
 20 24  1  0
 20 21  1  6
 22 23  2  0
 22 21  1  0
 24 25  2  0
 24 27  1  0
 26 22  1  0
M  END
$$$$
