NHD.pdb
     RDKit          3D

 27 27  0  0  1  0  0  0  0  0999 V2000
   22.0109  -10.5784  -19.6206 N   0  0  0  0  0  0  0  0  0  0  0  0
   20.8013   -9.8715  -19.7276 C   0  0  0  0  0  0  0  0  0  0  0  0
   19.9629  -10.2061  -20.6179 O   0  0  0  0  0  0  0  0  0  0  0  0
   20.5545   -8.7536  -18.7916 C   0  0  0  0  0  0  0  0  0  0  0  0
   21.7207   -8.5315  -17.8360 C   0  0  2  0  0  0  0  0  0  0  0  0
   21.8361   -9.7148  -16.9589 N   0  0  0  0  0  0  0  0  0  0  0  0
   21.3254   -7.4003  -16.9642 C   0  0  0  0  0  0  0  0  0  0  0  0
   20.2705   -6.7372  -17.2079 O   0  0  0  0  0  0  0  0  0  0  0  0
   22.0833   -6.9994  -15.8337 N   0  0  0  0  0  0  0  0  0  0  0  0
   21.5987   -5.8719  -15.0351 C   0  0  1  0  0  0  0  0  0  0  0  0
   22.0951   -6.1759  -13.6126 C   0  0  0  0  0  0  0  0  0  0  0  0
   21.2622   -7.2003  -12.9595 C   0  0  0  0  0  0  0  0  0  0  0  0
   20.1850   -7.8504  -13.4769 C   0  0  0  0  0  0  0  0  0  0  0  0
   19.7423   -8.6931  -12.5366 N   0  0  0  0  0  0  0  0  0  0  0  0
   20.5379   -8.5643  -11.4520 C   0  0  0  0  0  0  0  0  0  0  0  0
   21.4853   -7.6359  -11.7106 N   0  0  0  0  0  0  0  0  0  0  0  0
   22.1419   -4.5945  -15.5055 C   0  0  0  0  0  0  0  0  0  0  0  0
   23.2160   -4.5746  -16.1599 O   0  0  0  0  0  0  0  0  0  0  0  0
   21.4762   -3.3866  -15.2339 N   0  0  0  0  0  0  0  0  0  0  0  0
   21.8174   -2.1145  -15.8038 C   0  0  1  0  0  0  0  0  0  0  0  0
   21.9853   -2.1567  -17.3317 C   0  0  0  0  0  0  0  0  0  0  0  0
   22.3333   -0.8582  -17.8982 C   0  0  0  0  0  0  0  0  0  0  0  0
   21.7559    0.1917  -17.5048 O   0  0  0  0  0  0  0  0  0  0  0  0
   20.9192   -1.0210  -15.3927 C   0  0  0  0  0  0  0  0  0  0  0  0
   19.6780   -1.1809  -15.4731 O   0  0  0  0  0  0  0  0  0  0  0  0
   23.3099   -0.7155  -18.8876 O   0  0  0  0  0  0  0  0  0  0  0  0
   21.3904    0.1862  -14.9156 O   0  0  0  0  0  0  0  0  0  0  0  0
  2  3  2  0
  2  1  1  0
  4  2  1  0
  5  4  1  0
  5  7  1  0
  5  6  1  1
  7  8  2  0
  9 10  1  0
  9  7  1  0
 11 12  1  0
 10 11  1  1
 12 16  1  0
 13 14  1  0
 13 12  2  0
 14 15  1  0
 15 16  2  0
 17 10  1  0
 17 18  2  0
 19 17  1  0
 20 19  1  0
 20 24  1  0
 20 21  1  6
 22 23  2  0
 22 21  1  0
 24 25  2  0
 24 27  1  0
 26 22  1  0
M  END
$$$$
