FWV.pdb
     RDKit          3D

 33 35  0  0  1  0  0  0  0  0999 V2000
   28.0938  -23.8554  -16.0267 N   0  0  0  0  0  0  0  0  0  0  0  0
   27.4876  -22.5584  -16.0824 C   0  0  1  0  0  0  0  0  0  0  0  0
   26.4983  -22.5386  -17.2531 C   0  0  0  0  0  0  0  0  0  0  0  0
   27.2278  -22.0047  -18.4254 C   0  0  0  0  0  0  0  0  0  0  0  0
   27.4113  -20.6539  -18.5217 C   0  0  0  0  0  0  0  0  0  0  0  0
   28.0840  -20.1580  -19.6025 C   0  0  0  0  0  0  0  0  0  0  0  0
   28.5772  -20.9712  -20.5871 C   0  0  0  0  0  0  0  0  0  0  0  0
   28.3966  -22.3206  -20.4957 C   0  0  0  0  0  0  0  0  0  0  0  0
   27.7176  -22.8269  -19.4057 C   0  0  0  0  0  0  0  0  0  0  0  0
   26.7306  -22.3526  -14.8258 C   0  0  0  0  0  0  0  0  0  0  0  0
   26.1631  -23.3377  -14.3013 O   0  0  0  0  0  0  0  0  0  0  0  0
   26.5881  -21.1335  -14.1563 N   0  0  0  0  0  0  0  0  0  0  0  0
   25.8856  -20.9305  -12.9430 C   0  0  1  0  0  0  0  0  0  0  0  0
   26.4512  -19.9545  -11.9777 C   0  0  0  0  0  0  0  0  0  0  0  0
   27.5503  -20.5694  -11.1518 C   0  0  0  0  0  0  0  0  0  0  0  0
   28.6865  -21.2213  -11.5722 C   0  0  0  0  0  0  0  0  0  0  0  0
   29.4108  -21.6205  -10.5006 N   0  0  0  0  0  0  0  0  0  0  0  0
   28.7816  -21.2482   -9.3728 C   0  0  0  0  0  0  0  0  0  0  0  0
   29.0731  -21.3976   -8.0323 C   0  0  0  0  0  0  0  0  0  0  0  0
   28.2438  -20.9134   -7.0409 C   0  0  0  0  0  0  0  0  0  0  0  0
   27.0917  -20.2622   -7.4172 C   0  0  0  0  0  0  0  0  0  0  0  0
   26.8099  -20.1185   -8.7680 C   0  0  0  0  0  0  0  0  0  0  0  0
   27.6285  -20.5967   -9.7629 C   0  0  0  0  0  0  0  0  0  0  0  0
   24.4967  -20.5298  -13.2976 C   0  0  0  0  0  0  0  0  0  0  0  0
   24.2352  -19.5262  -14.0078 O   0  0  0  0  0  0  0  0  0  0  0  0
   21.2436  -23.2815  -13.2017 C   0  0  0  0  0  0  0  0  0  0  0  0
   21.2903  -21.9421  -13.9271 C   0  0  2  0  0  0  0  0  0  0  0  0
   22.0879  -22.2022  -15.2032 C   0  0  0  0  0  0  0  0  0  0  0  0
   22.0106  -20.9075  -13.1296 C   0  0  2  0  0  0  0  0  0  0  0  0
   23.3816  -21.2863  -12.8347 N   0  0  0  0  0  0  0  0  0  0  0  0
   21.2491  -20.6260  -11.8932 C   0  0  0  0  0  0  0  0  0  0  0  0
   20.0745  -19.9154  -11.9250 O   0  0  0  0  0  0  0  0  0  0  0  0
   21.6469  -21.0267  -10.7578 O   0  0  0  0  0  0  0  0  0  0  0  0
  2  1  1  1
  2  3  1  0
  3  4  1  0
  4  5  2  0
  4  9  1  0
  5  6  1  0
  6  7  2  0
  8  7  1  0
  9  8  2  0
 10 12  1  0
 10  2  1  0
 11 10  2  0
 13 12  1  0
 13 14  1  6
 15 14  1  0
 15 16  2  0
 17 16  1  0
 18 23  2  0
 18 17  1  0
 19 18  1  0
 20 21  1  0
 20 19  2  0
 21 22  2  0
 22 23  1  0
 23 15  1  0
 24 13  1  0
 25 24  2  0
 27 26  1  1
 27 29  1  0
 27 28  1  0
 29 30  1  1
 30 24  1  0
 31 32  1  0
 31 29  1  0
 33 31  2  0
M  END
$$$$
