FWV.pdb
     RDKit          3D

 33 35  0  0  1  0  0  0  0  0999 V2000
   25.9355  -19.2612  -14.3543 N   0  0  0  0  0  0  0  0  0  0  0  0
   27.0443  -19.5097  -13.4815 C   0  0  1  0  0  0  0  0  0  0  0  0
   28.0590  -18.3740  -13.6559 C   0  0  0  0  0  0  0  0  0  0  0  0
   28.6693  -18.5426  -14.9941 C   0  0  0  0  0  0  0  0  0  0  0  0
   28.3843  -17.6223  -15.9634 C   0  0  0  0  0  0  0  0  0  0  0  0
   28.9458  -17.7752  -17.1995 C   0  0  0  0  0  0  0  0  0  0  0  0
   29.7816  -18.8186  -17.4938 C   0  0  0  0  0  0  0  0  0  0  0  0
   30.0692  -19.7402  -16.5295 C   0  0  0  0  0  0  0  0  0  0  0  0
   29.5046  -19.5904  -15.2789 C   0  0  0  0  0  0  0  0  0  0  0  0
   26.5446  -19.4813  -12.0873 C   0  0  0  0  0  0  0  0  0  0  0  0
   25.9104  -18.4737  -11.6996 O   0  0  0  0  0  0  0  0  0  0  0  0
   26.7191  -20.4978  -11.1433 N   0  0  0  0  0  0  0  0  0  0  0  0
   26.1372  -20.5401   -9.8524 C   0  0  1  0  0  0  0  0  0  0  0  0
   25.0483  -21.5227   -9.6225 C   0  0  0  0  0  0  0  0  0  0  0  0
   23.7460  -21.0512  -10.2139 C   0  0  0  0  0  0  0  0  0  0  0  0
   22.8299  -20.1665   -9.6935 C   0  0  0  0  0  0  0  0  0  0  0  0
   21.7931  -20.0202  -10.5512 N   0  0  0  0  0  0  0  0  0  0  0  0
   21.9980  -20.7891  -11.6344 C   0  0  0  0  0  0  0  0  0  0  0  0
   21.2734  -21.0138  -12.7871 C   0  0  0  0  0  0  0  0  0  0  0  0
   21.7107  -21.8729  -13.7749 C   0  0  0  0  0  0  0  0  0  0  0  0
   22.9108  -22.5197  -13.5900 C   0  0  0  0  0  0  0  0  0  0  0  0
   23.6298  -22.2854  -12.4268 C   0  0  0  0  0  0  0  0  0  0  0  0
   23.2038  -21.4323  -11.4372 C   0  0  0  0  0  0  0  0  0  0  0  0
   27.2371  -20.7814   -8.8791 C   0  0  0  0  0  0  0  0  0  0  0  0
   28.1425  -21.6325   -9.0681 O   0  0  0  0  0  0  0  0  0  0  0  0
   30.3471  -19.2514   -5.5272 C   0  0  0  0  0  0  0  0  0  0  0  0
   29.1860  -19.0026   -6.4824 C   0  0  2  0  0  0  0  0  0  0  0  0
   28.3059  -17.9668   -5.7861 C   0  0  0  0  0  0  0  0  0  0  0  0
   28.3741  -20.2355   -6.6972 C   0  0  2  0  0  0  0  0  0  0  0  0
   27.3088  -20.0392   -7.6649 N   0  0  0  0  0  0  0  0  0  0  0  0
   27.8452  -20.7046   -5.3978 C   0  0  0  0  0  0  0  0  0  0  0  0
   28.6804  -21.1836   -4.4188 O   0  0  0  0  0  0  0  0  0  0  0  0
   26.6049  -20.6845   -5.1350 O   0  0  0  0  0  0  0  0  0  0  0  0
  2  1  1  6
  2  3  1  0
  3  4  1  0
  4  5  2  0
  4  9  1  0
  5  6  1  0
  6  7  2  0
  8  7  1  0
  9  8  2  0
 10 12  1  0
 10  2  1  0
 11 10  2  0
 13 12  1  0
 13 14  1  6
 15 14  1  0
 15 16  2  0
 17 16  1  0
 18 23  2  0
 18 17  1  0
 19 18  1  0
 20 21  1  0
 20 19  2  0
 21 22  2  0
 22 23  1  0
 23 15  1  0
 24 13  1  0
 25 24  2  0
 27 26  1  1
 27 29  1  0
 27 28  1  0
 29 30  1  6
 30 24  1  0
 31 32  1  0
 31 29  1  0
 33 31  2  0
M  END
$$$$
