FWV.pdb
     RDKit          3D

 33 35  0  0  1  0  0  0  0  0999 V2000
   21.2236   -3.7126  -21.3287 N   0  0  0  0  0  0  0  0  0  0  0  0
   21.5207   -3.3509  -19.9746 C   0  0  1  0  0  0  0  0  0  0  0  0
   20.6353   -2.1607  -19.5883 C   0  0  0  0  0  0  0  0  0  0  0  0
   21.1913   -0.9702  -20.2703 C   0  0  0  0  0  0  0  0  0  0  0  0
   22.3408   -0.4147  -19.7827 C   0  0  0  0  0  0  0  0  0  0  0  0
   22.8564    0.6842  -20.4097 C   0  0  0  0  0  0  0  0  0  0  0  0
   22.2578    1.2423  -21.5070 C   0  0  0  0  0  0  0  0  0  0  0  0
   21.1098    0.6916  -21.9976 C   0  0  0  0  0  0  0  0  0  0  0  0
   20.5846   -0.4189  -21.3679 C   0  0  0  0  0  0  0  0  0  0  0  0
   21.1680   -4.4982  -19.1064 C   0  0  0  0  0  0  0  0  0  0  0  0
   20.1230   -5.1401  -19.3587 O   0  0  0  0  0  0  0  0  0  0  0  0
   21.9104   -4.9408  -18.0074 N   0  0  0  0  0  0  0  0  0  0  0  0
   21.5474   -5.9923  -17.1302 C   0  0  1  0  0  0  0  0  0  0  0  0
   22.5939   -6.5153  -16.2161 C   0  0  0  0  0  0  0  0  0  0  0  0
   22.1186   -7.7376  -15.4757 C   0  0  0  0  0  0  0  0  0  0  0  0
   21.9364   -9.0175  -15.9464 C   0  0  0  0  0  0  0  0  0  0  0  0
   21.4946   -9.8165  -14.9471 N   0  0  0  0  0  0  0  0  0  0  0  0
   21.3782   -9.0964  -13.8182 C   0  0  0  0  0  0  0  0  0  0  0  0
   20.9794   -9.4066  -12.5341 C   0  0  0  0  0  0  0  0  0  0  0  0
   20.9460   -8.4638  -11.5265 C   0  0  0  0  0  0  0  0  0  0  0  0
   21.3258   -7.1762  -11.8276 C   0  0  0  0  0  0  0  0  0  0  0  0
   21.7246   -6.8772  -13.1224 C   0  0  0  0  0  0  0  0  0  0  0  0
   21.7615   -7.8079  -14.1328 C   0  0  0  0  0  0  0  0  0  0  0  0
   20.3824   -5.5210  -16.3329 C   0  0  0  0  0  0  0  0  0  0  0  0
   20.3760   -4.4278  -15.7126 O   0  0  0  0  0  0  0  0  0  0  0  0
   15.6132   -5.3362  -15.4618 C   0  0  0  0  0  0  0  0  0  0  0  0
   16.8418   -5.6511  -16.3067 C   0  0  2  0  0  0  0  0  0  0  0  0
   16.5065   -6.9493  -17.0377 C   0  0  0  0  0  0  0  0  0  0  0  0
   18.0469   -5.8902  -15.4605 C   0  0  2  0  0  0  0  0  0  0  0  0
   19.1994   -6.3098  -16.2388 N   0  0  0  0  0  0  0  0  0  0  0  0
   17.7169   -6.8756  -14.4079 C   0  0  0  0  0  0  0  0  0  0  0  0
   18.1039   -8.1888  -14.5136 O   0  0  0  0  0  0  0  0  0  0  0  0
   17.0657   -6.5509  -13.3694 O   0  0  0  0  0  0  0  0  0  0  0  0
  2  1  1  6
  2  3  1  0
  3  4  1  0
  4  5  2  0
  4  9  1  0
  5  6  1  0
  6  7  2  0
  8  7  1  0
  9  8  2  0
 10 12  1  0
 10  2  1  0
 11 10  2  0
 13 12  1  0
 13 14  1  1
 15 14  1  0
 15 16  2  0
 17 16  1  0
 18 23  2  0
 18 17  1  0
 19 18  1  0
 20 21  1  0
 20 19  2  0
 21 22  2  0
 22 23  1  0
 23 15  1  0
 24 13  1  0
 25 24  2  0
 27 26  1  1
 27 29  1  0
 27 28  1  0
 29 30  1  6
 30 24  1  0
 31 32  1  0
 31 29  1  0
 33 31  2  0
M  END
$$$$
