FWV.pdb
     RDKit          3D

 33 35  0  0  1  0  0  0  0  0999 V2000
   28.4840  -22.0448  -15.2354 N   0  0  0  0  0  0  0  0  0  0  0  0
   28.3802  -20.7789  -14.5723 C   0  0  1  0  0  0  0  0  0  0  0  0
   27.2871  -19.9590  -15.2670 C   0  0  0  0  0  0  0  0  0  0  0  0
   27.9291  -19.2584  -16.4022 C   0  0  0  0  0  0  0  0  0  0  0  0
   27.6089  -19.6436  -17.6737 C   0  0  0  0  0  0  0  0  0  0  0  0
   28.1998  -18.9991  -18.7235 C   0  0  0  0  0  0  0  0  0  0  0  0
   29.0991  -17.9836  -18.5394 C   0  0  0  0  0  0  0  0  0  0  0  0
   29.4223  -17.5953  -17.2718 C   0  0  0  0  0  0  0  0  0  0  0  0
   28.8280  -18.2431  -16.2076 C   0  0  0  0  0  0  0  0  0  0  0  0
   27.9612  -21.0279  -13.1734 C   0  0  0  0  0  0  0  0  0  0  0  0
   27.1469  -21.9519  -12.9484 O   0  0  0  0  0  0  0  0  0  0  0  0
   28.4008  -20.3111  -12.0563 N   0  0  0  0  0  0  0  0  0  0  0  0
   27.8503  -20.3863  -10.7532 C   0  0  1  0  0  0  0  0  0  0  0  0
   28.5095  -19.5957   -9.6833 C   0  0  0  0  0  0  0  0  0  0  0  0
   27.7537  -19.6883   -8.3840 C   0  0  0  0  0  0  0  0  0  0  0  0
   26.4862  -19.2430   -8.0871 C   0  0  0  0  0  0  0  0  0  0  0  0
   26.1891  -19.5272   -6.7975 N   0  0  0  0  0  0  0  0  0  0  0  0
   27.2323  -20.1537   -6.2268 C   0  0  0  0  0  0  0  0  0  0  0  0
   27.4594  -20.6539   -4.9609 C   0  0  0  0  0  0  0  0  0  0  0  0
   28.6455  -21.2693   -4.6152 C   0  0  0  0  0  0  0  0  0  0  0  0
   29.6246  -21.3805   -5.5753 C   0  0  0  0  0  0  0  0  0  0  0  0
   29.3840  -20.8736   -6.8442 C   0  0  0  0  0  0  0  0  0  0  0  0
   28.2070  -20.2592   -7.1989 C   0  0  0  0  0  0  0  0  0  0  0  0
   26.4194  -19.9890  -10.8537 C   0  0  0  0  0  0  0  0  0  0  0  0
   26.0401  -18.9424  -11.4372 O   0  0  0  0  0  0  0  0  0  0  0  0
   23.6198  -22.1669  -12.2316 C   0  0  0  0  0  0  0  0  0  0  0  0
   23.4911  -20.7075  -11.8119 C   0  0  2  0  0  0  0  0  0  0  0  0
   24.3931  -19.9316  -12.7692 C   0  0  0  0  0  0  0  0  0  0  0  0
   23.9869  -20.4872  -10.4222 C   0  0  2  0  0  0  0  0  0  0  0  0
   25.3982  -20.7993  -10.2784 N   0  0  0  0  0  0  0  0  0  0  0  0
   23.1604  -21.2712   -9.4788 C   0  0  0  0  0  0  0  0  0  0  0  0
   21.8160  -21.0300   -9.3376 O   0  0  0  0  0  0  0  0  0  0  0  0
   23.6561  -22.1939   -8.7640 O   0  0  0  0  0  0  0  0  0  0  0  0
  2  1  1  6
  2  3  1  0
  3  4  1  0
  4  5  2  0
  4  9  1  0
  5  6  1  0
  6  7  2  0
  8  7  1  0
  9  8  2  0
 10 12  1  0
 10  2  1  0
 11 10  2  0
 13 12  1  0
 13 14  1  1
 15 14  1  0
 15 16  2  0
 17 16  1  0
 18 23  2  0
 18 17  1  0
 19 18  1  0
 20 21  1  0
 20 19  2  0
 21 22  2  0
 22 23  1  0
 23 15  1  0
 24 13  1  0
 25 24  2  0
 27 26  1  6
 27 29  1  0
 27 28  1  0
 29 30  1  6
 30 24  1  0
 31 32  1  0
 31 29  1  0
 33 31  2  0
M  END
$$$$
