FWV.pdb
     RDKit          3D

 33 35  0  0  1  0  0  0  0  0999 V2000
   28.3968  -21.2303  -14.9875 N   0  0  0  0  0  0  0  0  0  0  0  0
   27.5768  -20.1861  -14.4488 C   0  0  1  0  0  0  0  0  0  0  0  0
   26.7834  -19.5547  -15.5984 C   0  0  0  0  0  0  0  0  0  0  0  0
   27.6876  -18.5937  -16.2698 C   0  0  0  0  0  0  0  0  0  0  0  0
   27.9104  -17.3824  -15.6776 C   0  0  0  0  0  0  0  0  0  0  0  0
   28.7441  -16.4932  -16.2947 C   0  0  0  0  0  0  0  0  0  0  0  0
   29.3598  -16.7792  -17.4834 C   0  0  0  0  0  0  0  0  0  0  0  0
   29.1405  -17.9872  -18.0789 C   0  0  0  0  0  0  0  0  0  0  0  0
   28.2990  -18.8892  -17.4595 C   0  0  0  0  0  0  0  0  0  0  0  0
   26.6188  -20.7998  -13.5002 C   0  0  0  0  0  0  0  0  0  0  0  0
   26.0729  -21.8811  -13.8169 O   0  0  0  0  0  0  0  0  0  0  0  0
   26.2599  -20.2719  -12.2562 N   0  0  0  0  0  0  0  0  0  0  0  0
   25.3505  -20.8539  -11.3391 C   0  0  1  0  0  0  0  0  0  0  0  0
   25.5138  -20.5159   -9.9028 C   0  0  0  0  0  0  0  0  0  0  0  0
   26.9086  -20.8162   -9.4207 C   0  0  0  0  0  0  0  0  0  0  0  0
   27.9033  -21.5338  -10.0438 C   0  0  0  0  0  0  0  0  0  0  0  0
   29.0077  -21.5639   -9.2619 N   0  0  0  0  0  0  0  0  0  0  0  0
   28.7711  -20.8806   -8.1289 C   0  0  0  0  0  0  0  0  0  0  0  0
   29.5349  -20.6024   -7.0138 C   0  0  0  0  0  0  0  0  0  0  0  0
   29.0493  -19.8601   -5.9563 C   0  0  0  0  0  0  0  0  0  0  0  0
   27.7590  -19.3885   -6.0308 C   0  0  0  0  0  0  0  0  0  0  0  0
   27.0014  -19.6750   -7.1573 C   0  0  0  0  0  0  0  0  0  0  0  0
   27.4749  -20.4129   -8.2155 C   0  0  0  0  0  0  0  0  0  0  0  0
   23.9783  -20.4856  -11.7828 C   0  0  0  0  0  0  0  0  0  0  0  0
   23.5887  -19.2947  -11.8821 O   0  0  0  0  0  0  0  0  0  0  0  0
   21.5590  -23.3408  -13.8493 C   0  0  0  0  0  0  0  0  0  0  0  0
   21.4120  -21.8261  -13.9293 C   0  0  2  0  0  0  0  0  0  0  0  0
   22.4680  -21.3710  -14.9343 C   0  0  0  0  0  0  0  0  0  0  0  0
   21.7028  -21.1735  -12.6197 C   0  0  2  0  0  0  0  0  0  0  0  0
   23.0289  -21.4931  -12.1205 N   0  0  0  0  0  0  0  0  0  0  0  0
   20.6537  -21.5450  -11.6453 C   0  0  0  0  0  0  0  0  0  0  0  0
   19.3716  -21.0669  -11.7605 O   0  0  0  0  0  0  0  0  0  0  0  0
   20.8931  -22.3161  -10.6676 O   0  0  0  0  0  0  0  0  0  0  0  0
  2  1  1  6
  2  3  1  0
  3  4  1  0
  4  5  2  0
  4  9  1  0
  5  6  1  0
  6  7  2  0
  8  7  1  0
  9  8  2  0
 10 12  1  0
 10  2  1  0
 11 10  2  0
 13 12  1  0
 13 14  1  1
 15 14  1  0
 15 16  2  0
 17 16  1  0
 18 23  2  0
 18 17  1  0
 19 18  1  0
 20 21  1  0
 20 19  2  0
 21 22  2  0
 22 23  1  0
 23 15  1  0
 24 13  1  0
 25 24  2  0
 27 26  1  1
 27 29  1  0
 27 28  1  0
 29 30  1  1
 30 24  1  0
 31 32  1  0
 31 29  1  0
 33 31  2  0
M  END
$$$$
