FWV.pdb
     RDKit          3D

 33 35  0  0  1  0  0  0  0  0999 V2000
   27.7623  -23.7144  -17.1055 N   0  0  0  0  0  0  0  0  0  0  0  0
   27.5251  -22.3298  -16.8234 C   0  0  1  0  0  0  0  0  0  0  0  0
   26.4662  -21.8127  -17.8038 C   0  0  0  0  0  0  0  0  0  0  0  0
   27.1743  -21.4524  -19.0530 C   0  0  0  0  0  0  0  0  0  0  0  0
   27.2388  -22.3765  -20.0578 C   0  0  0  0  0  0  0  0  0  0  0  0
   27.8918  -22.0472  -21.2118 C   0  0  0  0  0  0  0  0  0  0  0  0
   28.4804  -20.8242  -21.3899 C   0  0  0  0  0  0  0  0  0  0  0  0
   28.4189  -19.8980  -20.3896 C   0  0  0  0  0  0  0  0  0  0  0  0
   27.7603  -20.2257  -19.2216 C   0  0  0  0  0  0  0  0  0  0  0  0
   26.9802  -22.2294  -15.4496 C   0  0  0  0  0  0  0  0  0  0  0  0
   26.0652  -23.0138  -15.1102 O   0  0  0  0  0  0  0  0  0  0  0  0
   27.4024  -21.3200  -14.4751 N   0  0  0  0  0  0  0  0  0  0  0  0
   26.8202  -21.1454  -13.1955 C   0  0  1  0  0  0  0  0  0  0  0  0
   27.5136  -20.2412  -12.2438 C   0  0  0  0  0  0  0  0  0  0  0  0
   26.8455  -20.2439  -10.8941 C   0  0  0  0  0  0  0  0  0  0  0  0
   25.5575  -19.8887  -10.5659 C   0  0  0  0  0  0  0  0  0  0  0  0
   25.3642  -20.0381   -9.2346 N   0  0  0  0  0  0  0  0  0  0  0  0
   26.4970  -20.4862   -8.6666 C   0  0  0  0  0  0  0  0  0  0  0  0
   26.8453  -20.8015   -7.3691 C   0  0  0  0  0  0  0  0  0  0  0  0
   28.1062  -21.2529   -7.0351 C   0  0  0  0  0  0  0  0  0  0  0  0
   29.0361  -21.3879   -8.0401 C   0  0  0  0  0  0  0  0  0  0  0  0
   28.6735  -21.0676   -9.3404 C   0  0  0  0  0  0  0  0  0  0  0  0
   27.4213  -20.6175   -9.6838 C   0  0  0  0  0  0  0  0  0  0  0  0
   25.4255  -20.6700  -13.4051 C   0  0  0  0  0  0  0  0  0  0  0  0
   25.1493  -19.6189  -14.0367 O   0  0  0  0  0  0  0  0  0  0  0  0
   22.8936  -21.7594  -15.4985 C   0  0  0  0  0  0  0  0  0  0  0  0
   22.2585  -21.8770  -14.1182 C   0  0  2  0  0  0  0  0  0  0  0  0
   20.8273  -21.3723  -14.2885 C   0  0  0  0  0  0  0  0  0  0  0  0
   22.9442  -21.0066  -13.1193 C   0  0  2  0  0  0  0  0  0  0  0  0
   24.3212  -21.4054  -12.8854 N   0  0  0  0  0  0  0  0  0  0  0  0
   22.1631  -20.9958  -11.8632 C   0  0  0  0  0  0  0  0  0  0  0  0
   21.0762  -20.1715  -11.7062 O   0  0  0  0  0  0  0  0  0  0  0  0
   22.4632  -21.7428  -10.8836 O   0  0  0  0  0  0  0  0  0  0  0  0
  2  1  1  6
  2  3  1  0
  3  4  1  0
  4  5  2  0
  4  9  1  0
  5  6  1  0
  6  7  2  0
  8  7  1  0
  9  8  2  0
 10 12  1  0
 10  2  1  0
 11 10  2  0
 13 12  1  0
 13 14  1  1
 15 14  1  0
 15 16  2  0
 17 16  1  0
 18 23  2  0
 18 17  1  0
 19 18  1  0
 20 21  1  0
 20 19  2  0
 21 22  2  0
 22 23  1  0
 23 15  1  0
 24 13  1  0
 25 24  2  0
 27 26  1  6
 27 29  1  0
 27 28  1  0
 29 30  1  1
 30 24  1  0
 31 32  1  0
 31 29  1  0
 33 31  2  0
M  END
$$$$
