FWV.pdb
     RDKit          3D

 33 35  0  0  1  0  0  0  0  0999 V2000
   27.6953  -20.6135  -16.1306 N   0  0  0  0  0  0  0  0  0  0  0  0
   26.9202  -19.6538  -15.4018 C   0  0  1  0  0  0  0  0  0  0  0  0
   26.0067  -18.9210  -16.3908 C   0  0  0  0  0  0  0  0  0  0  0  0
   26.8410  -17.9128  -17.0830 C   0  0  0  0  0  0  0  0  0  0  0  0
   27.0635  -18.0574  -18.4236 C   0  0  0  0  0  0  0  0  0  0  0  0
   27.8332  -17.1289  -19.0654 C   0  0  0  0  0  0  0  0  0  0  0  0
   28.3854  -16.0629  -18.4076 C   0  0  0  0  0  0  0  0  0  0  0  0
   28.1663  -15.9141  -17.0690 C   0  0  0  0  0  0  0  0  0  0  0  0
   27.3893  -16.8495  -16.4158 C   0  0  0  0  0  0  0  0  0  0  0  0
   26.0710  -20.3896  -14.4365 C   0  0  0  0  0  0  0  0  0  0  0  0
   25.5924  -21.4939  -14.7813 O   0  0  0  0  0  0  0  0  0  0  0  0
   25.7474  -19.9556  -13.1473 N   0  0  0  0  0  0  0  0  0  0  0  0
   24.9760  -20.6726  -12.1998 C   0  0  1  0  0  0  0  0  0  0  0  0
   25.2093  -20.3806  -10.7630 C   0  0  0  0  0  0  0  0  0  0  0  0
   26.6175  -20.7221  -10.3525 C   0  0  0  0  0  0  0  0  0  0  0  0
   27.6523  -21.1973  -11.1246 C   0  0  0  0  0  0  0  0  0  0  0  0
   28.7546  -21.3725  -10.3589 N   0  0  0  0  0  0  0  0  0  0  0  0
   28.4773  -21.0239   -9.0908 C   0  0  0  0  0  0  0  0  0  0  0  0
   29.2215  -21.0077   -7.9288 C   0  0  0  0  0  0  0  0  0  0  0  0
   28.6925  -20.5956   -6.7224 C   0  0  0  0  0  0  0  0  0  0  0  0
   27.3780  -20.1903   -6.6931 C   0  0  0  0  0  0  0  0  0  0  0  0
   26.6405  -20.2112   -7.8680 C   0  0  0  0  0  0  0  0  0  0  0  0
   27.1573  -20.6196   -9.0742 C   0  0  0  0  0  0  0  0  0  0  0  0
   23.5431  -20.4383  -12.5276 C   0  0  0  0  0  0  0  0  0  0  0  0
   22.9952  -19.3113  -12.4301 O   0  0  0  0  0  0  0  0  0  0  0  0
   21.3946  -23.1087  -15.0258 C   0  0  0  0  0  0  0  0  0  0  0  0
   20.9790  -21.6808  -14.6933 C   0  0  2  0  0  0  0  0  0  0  0  0
   21.8112  -20.7932  -15.6162 C   0  0  0  0  0  0  0  0  0  0  0  0
   21.3080  -21.3246  -13.2825 C   0  0  2  0  0  0  0  0  0  0  0  0
   22.7158  -21.5084  -12.9755 N   0  0  0  0  0  0  0  0  0  0  0  0
   20.4481  -22.1071  -12.3680 C   0  0  0  0  0  0  0  0  0  0  0  0
   19.1054  -21.8440  -12.2516 O   0  0  0  0  0  0  0  0  0  0  0  0
   20.9123  -23.0484  -11.6564 O   0  0  0  0  0  0  0  0  0  0  0  0
  2  1  1  6
  2  3  1  0
  3  4  1  0
  4  5  2  0
  4  9  1  0
  5  6  1  0
  6  7  2  0
  8  7  1  0
  9  8  2  0
 10 12  1  0
 10  2  1  0
 11 10  2  0
 13 12  1  0
 13 14  1  1
 15 14  1  0
 15 16  2  0
 17 16  1  0
 18 23  2  0
 18 17  1  0
 19 18  1  0
 20 21  1  0
 20 19  2  0
 21 22  2  0
 22 23  1  0
 23 15  1  0
 24 13  1  0
 25 24  2  0
 27 26  1  1
 27 29  1  0
 27 28  1  0
 29 30  1  1
 30 24  1  0
 31 32  1  0
 31 29  1  0
 33 31  2  0
M  END
$$$$
