FWV.pdb
     RDKit          3D

 33 35  0  0  1  0  0  0  0  0999 V2000
   25.3473  -16.6043  -18.3383 N   0  0  0  0  0  0  0  0  0  0  0  0
   25.9897  -17.6913  -17.6610 C   0  0  1  0  0  0  0  0  0  0  0  0
   27.3824  -17.2281  -17.2187 C   0  0  0  0  0  0  0  0  0  0  0  0
   28.2483  -17.2584  -18.4191 C   0  0  0  0  0  0  0  0  0  0  0  0
   28.6405  -16.0719  -18.9724 C   0  0  0  0  0  0  0  0  0  0  0  0
   29.4396  -16.0964  -20.0803 C   0  0  0  0  0  0  0  0  0  0  0  0
   29.8566  -17.2694  -20.6495 C   0  0  0  0  0  0  0  0  0  0  0  0
   29.4677  -18.4568  -20.1009 C   0  0  0  0  0  0  0  0  0  0  0  0
   28.6605  -18.4376  -18.9814 C   0  0  0  0  0  0  0  0  0  0  0  0
   25.1960  -18.0098  -16.4514 C   0  0  0  0  0  0  0  0  0  0  0  0
   24.7975  -17.0659  -15.7317 O   0  0  0  0  0  0  0  0  0  0  0  0
   24.8426  -19.2952  -16.0297 N   0  0  0  0  0  0  0  0  0  0  0  0
   24.0712  -19.6095  -14.8838 C   0  0  1  0  0  0  0  0  0  0  0  0
   22.7167  -20.1766  -15.1030 C   0  0  0  0  0  0  0  0  0  0  0  0
   21.9866  -20.3793  -13.8015 C   0  0  0  0  0  0  0  0  0  0  0  0
   21.6100  -19.4433  -12.8662 C   0  0  0  0  0  0  0  0  0  0  0  0
   20.9726  -20.0508  -11.8382 N   0  0  0  0  0  0  0  0  0  0  0  0
   20.9155  -21.3738  -12.0678 C   0  0  0  0  0  0  0  0  0  0  0  0
   20.3892  -22.4357  -11.3610 C   0  0  0  0  0  0  0  0  0  0  0  0
   20.4609  -23.7345  -11.8230 C   0  0  0  0  0  0  0  0  0  0  0  0
   21.0808  -23.9622  -13.0300 C   0  0  0  0  0  0  0  0  0  0  0  0
   21.6058  -22.8861  -13.7309 C   0  0  0  0  0  0  0  0  0  0  0  0
   21.5399  -21.5896  -13.2802 C   0  0  0  0  0  0  0  0  0  0  0  0
   24.8741  -20.5488  -14.0541 C   0  0  0  0  0  0  0  0  0  0  0  0
   25.2115  -21.6931  -14.4498 O   0  0  0  0  0  0  0  0  0  0  0  0
   27.5583  -19.4023  -10.9237 C   0  0  0  0  0  0  0  0  0  0  0  0
   27.4235  -20.7325  -11.6549 C   0  0  2  0  0  0  0  0  0  0  0  0
   28.0650  -20.5079  -13.0225 C   0  0  0  0  0  0  0  0  0  0  0  0
   25.9941  -21.1040  -11.8657 C   0  0  2  0  0  0  0  0  0  0  0  0
   25.3024  -20.1788  -12.7463 N   0  0  0  0  0  0  0  0  0  0  0  0
   25.3186  -21.2103  -10.5541 C   0  0  0  0  0  0  0  0  0  0  0  0
   25.6741  -22.1758   -9.6448 O   0  0  0  0  0  0  0  0  0  0  0  0
   24.3874  -20.4187  -10.2163 O   0  0  0  0  0  0  0  0  0  0  0  0
  2  1  1  1
  2  3  1  0
  3  4  1  0
  4  5  2  0
  4  9  1  0
  5  6  1  0
  6  7  2  0
  8  7  1  0
  9  8  2  0
 10 12  1  0
 10  2  1  0
 11 10  2  0
 13 12  1  0
 13 14  1  6
 15 14  1  0
 15 16  2  0
 17 16  1  0
 18 23  2  0
 18 17  1  0
 19 18  1  0
 20 21  1  0
 20 19  2  0
 21 22  2  0
 22 23  1  0
 23 15  1  0
 24 13  1  0
 25 24  2  0
 27 26  1  1
 27 29  1  0
 27 28  1  0
 29 30  1  6
 30 24  1  0
 31 32  1  0
 31 29  1  0
 33 31  2  0
M  END
$$$$
