FWV.pdb
     RDKit          3D

 33 35  0  0  1  0  0  0  0  0999 V2000
   27.2536  -21.7675  -15.2002 N   0  0  0  0  0  0  0  0  0  0  0  0
   26.2062  -20.8593  -14.8381 C   0  0  1  0  0  0  0  0  0  0  0  0
   25.1122  -20.9334  -15.9093 C   0  0  0  0  0  0  0  0  0  0  0  0
   25.1344  -19.6451  -16.6384 C   0  0  0  0  0  0  0  0  0  0  0  0
   25.9440  -19.5272  -17.7331 C   0  0  0  0  0  0  0  0  0  0  0  0
   25.9669  -18.3395  -18.4080 C   0  0  0  0  0  0  0  0  0  0  0  0
   25.2061  -17.2693  -18.0212 C   0  0  0  0  0  0  0  0  0  0  0  0
   24.3962  -17.3819  -16.9288 C   0  0  0  0  0  0  0  0  0  0  0  0
   24.3693  -18.5797  -16.2433 C   0  0  0  0  0  0  0  0  0  0  0  0
   25.6320  -21.3129  -13.5501 C   0  0  0  0  0  0  0  0  0  0  0  0
   25.2628  -22.5047  -13.4465 O   0  0  0  0  0  0  0  0  0  0  0  0
   25.4606  -20.5159  -12.4142 N   0  0  0  0  0  0  0  0  0  0  0  0
   24.7988  -20.9014  -11.2224 C   0  0  1  0  0  0  0  0  0  0  0  0
   25.2013  -20.2238   -9.9642 C   0  0  0  0  0  0  0  0  0  0  0  0
   26.6046  -20.5948   -9.5626 C   0  0  0  0  0  0  0  0  0  0  0  0
   27.5192  -21.3728  -10.2341 C   0  0  0  0  0  0  0  0  0  0  0  0
   28.6660  -21.4546   -9.5196 N   0  0  0  0  0  0  0  0  0  0  0  0
   28.5360  -20.7468   -8.3844 C   0  0  0  0  0  0  0  0  0  0  0  0
   29.3802  -20.4985   -7.3214 C   0  0  0  0  0  0  0  0  0  0  0  0
   29.0007  -19.7190   -6.2474 C   0  0  0  0  0  0  0  0  0  0  0  0
   27.7356  -19.1782   -6.2510 C   0  0  0  0  0  0  0  0  0  0  0  0
   26.8965  -19.4353   -7.3256 C   0  0  0  0  0  0  0  0  0  0  0  0
   27.2642  -20.2098   -8.3996 C   0  0  0  0  0  0  0  0  0  0  0  0
   23.3397  -20.7094  -11.4447 C   0  0  0  0  0  0  0  0  0  0  0  0
   22.8124  -19.5766  -11.5814 O   0  0  0  0  0  0  0  0  0  0  0  0
   19.1898  -22.2610  -13.3936 C   0  0  0  0  0  0  0  0  0  0  0  0
   20.6775  -22.3960  -13.0917 C   0  0  2  0  0  0  0  0  0  0  0  0
   20.9141  -23.8912  -12.8908 C   0  0  0  0  0  0  0  0  0  0  0  0
   21.0510  -21.6912  -11.8311 C   0  0  2  0  0  0  0  0  0  0  0  0
   22.4615  -21.8294  -11.5127 N   0  0  0  0  0  0  0  0  0  0  0  0
   20.1966  -22.1797  -10.7269 C   0  0  0  0  0  0  0  0  0  0  0  0
   18.9032  -21.7430  -10.5788 O   0  0  0  0  0  0  0  0  0  0  0  0
   20.6205  -23.0176   -9.8747 O   0  0  0  0  0  0  0  0  0  0  0  0
  2  1  1  6
  2  3  1  0
  3  4  1  0
  4  5  2  0
  4  9  1  0
  5  6  1  0
  6  7  2  0
  8  7  1  0
  9  8  2  0
 10 12  1  0
 10  2  1  0
 11 10  2  0
 13 12  1  0
 13 14  1  1
 15 14  1  0
 15 16  2  0
 17 16  1  0
 18 23  2  0
 18 17  1  0
 19 18  1  0
 20 21  1  0
 20 19  2  0
 21 22  2  0
 22 23  1  0
 23 15  1  0
 24 13  1  0
 25 24  2  0
 27 26  1  1
 27 29  1  0
 27 28  1  0
 29 30  1  1
 30 24  1  0
 31 32  1  0
 31 29  1  0
 33 31  2  0
M  END
$$$$
