FWV.pdb
     RDKit          3D

 33 35  0  0  1  0  0  0  0  0999 V2000
   27.3704  -21.6598  -15.5561 N   0  0  0  0  0  0  0  0  0  0  0  0
   27.7602  -20.6387  -14.6297 C   0  0  1  0  0  0  0  0  0  0  0  0
   27.1523  -19.3099  -15.0930 C   0  0  0  0  0  0  0  0  0  0  0  0
   28.0586  -18.7576  -16.1251 C   0  0  0  0  0  0  0  0  0  0  0  0
   27.6626  -18.7983  -17.4325 C   0  0  0  0  0  0  0  0  0  0  0  0
   28.4967  -18.2895  -18.3874 C   0  0  0  0  0  0  0  0  0  0  0  0
   29.7120  -17.7428  -18.0740 C   0  0  0  0  0  0  0  0  0  0  0  0
   30.1120  -17.6998  -16.7701 C   0  0  0  0  0  0  0  0  0  0  0  0
   29.2729  -18.2125  -15.8014 C   0  0  0  0  0  0  0  0  0  0  0  0
   27.1886  -20.9791  -13.3061 C   0  0  0  0  0  0  0  0  0  0  0  0
   26.1371  -21.6575  -13.2653 O   0  0  0  0  0  0  0  0  0  0  0  0
   27.7264  -20.6049  -12.0710 N   0  0  0  0  0  0  0  0  0  0  0  0
   27.1574  -20.8754  -10.8022 C   0  0  1  0  0  0  0  0  0  0  0  0
   27.9643  -20.5383   -9.6024 C   0  0  0  0  0  0  0  0  0  0  0  0
   27.1513  -20.6560   -8.3402 C   0  0  0  0  0  0  0  0  0  0  0  0
   25.8981  -21.1964   -8.1659 C   0  0  0  0  0  0  0  0  0  0  0  0
   25.5325  -21.1003   -6.8662 N   0  0  0  0  0  0  0  0  0  0  0  0
   26.5161  -20.5069   -6.1685 C   0  0  0  0  0  0  0  0  0  0  0  0
   26.6631  -20.1693   -4.8386 C   0  0  0  0  0  0  0  0  0  0  0  0
   27.7992  -19.5498   -4.3583 C   0  0  0  0  0  0  0  0  0  0  0  0
   28.8103  -19.2658   -5.2471 C   0  0  0  0  0  0  0  0  0  0  0  0
   28.6504  -19.6103   -6.5815 C   0  0  0  0  0  0  0  0  0  0  0  0
   27.5237  -20.2271   -7.0701 C   0  0  0  0  0  0  0  0  0  0  0  0
   25.8536  -20.1602  -10.7404 C   0  0  0  0  0  0  0  0  0  0  0  0
   25.7546  -18.9105  -10.8319 O   0  0  0  0  0  0  0  0  0  0  0  0
   23.2649  -21.0367  -13.2249 C   0  0  0  0  0  0  0  0  0  0  0  0
   23.1965  -19.8551  -12.2649 C   0  0  2  0  0  0  0  0  0  0  0  0
   24.3956  -18.9781  -12.6186 C   0  0  0  0  0  0  0  0  0  0  0  0
   23.3388  -20.2890  -10.8447 C   0  0  2  0  0  0  0  0  0  0  0  0
   24.6365  -20.8815  -10.5708 N   0  0  0  0  0  0  0  0  0  0  0  0
   22.2379  -21.2164  -10.5047 C   0  0  0  0  0  0  0  0  0  0  0  0
   20.9321  -20.7927  -10.4735 O   0  0  0  0  0  0  0  0  0  0  0  0
   22.4524  -22.4353  -10.2286 O   0  0  0  0  0  0  0  0  0  0  0  0
  2  1  1  6
  2  3  1  0
  3  4  1  0
  4  5  2  0
  4  9  1  0
  5  6  1  0
  6  7  2  0
  8  7  1  0
  9  8  2  0
 10 12  1  0
 10  2  1  0
 11 10  2  0
 13 12  1  0
 13 14  1  1
 15 14  1  0
 15 16  2  0
 17 16  1  0
 18 23  2  0
 18 17  1  0
 19 18  1  0
 20 21  1  0
 20 19  2  0
 21 22  2  0
 22 23  1  0
 23 15  1  0
 24 13  1  0
 25 24  2  0
 27 26  1  6
 27 29  1  0
 27 28  1  0
 29 30  1  6
 30 24  1  0
 31 32  1  0
 31 29  1  0
 33 31  2  0
M  END
$$$$
