FWV.pdb
     RDKit          3D

 33 35  0  0  1  0  0  0  0  0999 V2000
   21.0802  -12.4344  -17.9447 N   0  0  0  0  0  0  0  0  0  0  0  0
   20.0249  -11.5279  -17.6015 C   0  0  1  0  0  0  0  0  0  0  0  0
   19.5121  -11.8923  -16.2037 C   0  0  0  0  0  0  0  0  0  0  0  0
   18.4211  -12.8761  -16.3873 C   0  0  0  0  0  0  0  0  0  0  0  0
   17.1895  -12.4229  -16.7686 C   0  0  0  0  0  0  0  0  0  0  0  0
   16.1805  -13.3283  -16.9387 C   0  0  0  0  0  0  0  0  0  0  0  0
   16.3667  -14.6697  -16.7393 C   0  0  0  0  0  0  0  0  0  0  0  0
   17.5946  -15.1272  -16.3585 C   0  0  0  0  0  0  0  0  0  0  0  0
   18.6175  -14.2167  -16.1852 C   0  0  0  0  0  0  0  0  0  0  0  0
   20.5942  -10.1613  -17.5501 C   0  0  0  0  0  0  0  0  0  0  0  0
   21.7837  -10.0222  -17.1851 O   0  0  0  0  0  0  0  0  0  0  0  0
   19.9112   -8.9864  -17.8788 N   0  0  0  0  0  0  0  0  0  0  0  0
   20.4473   -7.6758  -17.8369 C   0  0  1  0  0  0  0  0  0  0  0  0
   20.0314   -6.7299  -18.9030 C   0  0  0  0  0  0  0  0  0  0  0  0
   20.5241   -7.1723  -20.2556 C   0  0  0  0  0  0  0  0  0  0  0  0
   20.0104   -8.1385  -21.0896 C   0  0  0  0  0  0  0  0  0  0  0  0
   20.7586   -8.2202  -22.2146 N   0  0  0  0  0  0  0  0  0  0  0  0
   21.7616   -7.3279  -22.1493 C   0  0  0  0  0  0  0  0  0  0  0  0
   22.7928   -6.9980  -23.0050 C   0  0  0  0  0  0  0  0  0  0  0  0
   23.7174   -6.0197  -22.6996 C   0  0  0  0  0  0  0  0  0  0  0  0
   23.5938   -5.3601  -21.4985 C   0  0  0  0  0  0  0  0  0  0  0  0
   22.5528   -5.7010  -20.6471 C   0  0  0  0  0  0  0  0  0  0  0  0
   21.6271   -6.6732  -20.9412 C   0  0  0  0  0  0  0  0  0  0  0  0
   20.1100   -7.1023  -16.5054 C   0  0  0  0  0  0  0  0  0  0  0  0
   18.9946   -7.2712  -15.9512 O   0  0  0  0  0  0  0  0  0  0  0  0
   20.6676   -6.8111  -12.0432 C   0  0  0  0  0  0  0  0  0  0  0  0
   20.8585   -7.1867  -13.5078 C   0  0  2  0  0  0  0  0  0  0  0  0
   22.2260   -7.8629  -13.5757 C   0  0  0  0  0  0  0  0  0  0  0  0
   20.8898   -5.9819  -14.3869 C   0  0  2  0  0  0  0  0  0  0  0  0
   21.0614   -6.3200  -15.7891 N   0  0  0  0  0  0  0  0  0  0  0  0
   21.9497   -5.0627  -13.9182 C   0  0  0  0  0  0  0  0  0  0  0  0
   21.8187   -4.3622  -12.7444 O   0  0  0  0  0  0  0  0  0  0  0  0
   23.0180   -4.8834  -14.5774 O   0  0  0  0  0  0  0  0  0  0  0  0
  2  1  1  1
  2  3  1  0
  3  4  1  0
  4  5  2  0
  4  9  1  0
  5  6  1  0
  6  7  2  0
  8  7  1  0
  9  8  2  0
 10 12  1  0
 10  2  1  0
 11 10  2  0
 13 12  1  0
 13 14  1  6
 15 14  1  0
 15 16  2  0
 17 16  1  0
 18 23  2  0
 18 17  1  0
 19 18  1  0
 20 21  1  0
 20 19  2  0
 21 22  2  0
 22 23  1  0
 23 15  1  0
 24 13  1  0
 25 24  2  0
 27 26  1  1
 27 29  1  0
 27 28  1  0
 29 30  1  6
 30 24  1  0
 31 32  1  0
 31 29  1  0
 33 31  2  0
M  END
$$$$
