FWV.pdb
     RDKit          3D

 33 35  0  0  1  0  0  0  0  0999 V2000
   28.2423  -20.7851   -8.8391 N   0  0  0  0  0  0  0  0  0  0  0  0
   26.8766  -20.4584   -8.5546 C   0  0  1  0  0  0  0  0  0  0  0  0
   26.8528  -19.1795   -7.7098 C   0  0  0  0  0  0  0  0  0  0  0  0
   27.5153  -19.4988   -6.4250 C   0  0  0  0  0  0  0  0  0  0  0  0
   28.0037  -18.4710   -5.6681 C   0  0  0  0  0  0  0  0  0  0  0  0
   28.6159  -18.7623   -4.4820 C   0  0  0  0  0  0  0  0  0  0  0  0
   28.7535  -20.0478   -4.0319 C   0  0  0  0  0  0  0  0  0  0  0  0
   28.2676  -21.0775   -4.7839 C   0  0  0  0  0  0  0  0  0  0  0  0
   27.6482  -20.7886   -5.9832 C   0  0  0  0  0  0  0  0  0  0  0  0
   26.1943  -20.1833   -9.8404 C   0  0  0  0  0  0  0  0  0  0  0  0
   26.5910  -19.2191  -10.5336 O   0  0  0  0  0  0  0  0  0  0  0  0
   25.1250  -20.9168  -10.3633 N   0  0  0  0  0  0  0  0  0  0  0  0
   24.5643  -20.7601  -11.6547 C   0  0  1  0  0  0  0  0  0  0  0  0
   25.0277  -21.6839  -12.7206 C   0  0  0  0  0  0  0  0  0  0  0  0
   26.3995  -21.3096  -13.2167 C   0  0  0  0  0  0  0  0  0  0  0  0
   27.6120  -21.8929  -12.9294 C   0  0  0  0  0  0  0  0  0  0  0  0
   28.6017  -21.2446  -13.5869 N   0  0  0  0  0  0  0  0  0  0  0  0
   28.0749  -20.2400  -14.3080 C   0  0  0  0  0  0  0  0  0  0  0  0
   28.6204  -19.2867  -15.1433 C   0  0  0  0  0  0  0  0  0  0  0  0
   27.8462  -18.3396  -15.7828 C   0  0  0  0  0  0  0  0  0  0  0  0
   26.4870  -18.3593  -15.5704 C   0  0  0  0  0  0  0  0  0  0  0  0
   25.9509  -19.3228  -14.7283 C   0  0  0  0  0  0  0  0  0  0  0  0
   26.7124  -20.2701  -14.0869 C   0  0  0  0  0  0  0  0  0  0  0  0
   23.0868  -20.8688  -11.5117 C   0  0  0  0  0  0  0  0  0  0  0  0
   22.5355  -21.5954  -10.6468 O   0  0  0  0  0  0  0  0  0  0  0  0
   20.4397  -18.4674  -14.0165 C   0  0  0  0  0  0  0  0  0  0  0  0
   20.1169  -18.8968  -12.5904 C   0  0  2  0  0  0  0  0  0  0  0  0
   20.7074  -17.8074  -11.6978 C   0  0  0  0  0  0  0  0  0  0  0  0
   20.7719  -20.1910  -12.2421 C   0  0  2  0  0  0  0  0  0  0  0  0
   22.2177  -20.1357  -12.3705 N   0  0  0  0  0  0  0  0  0  0  0  0
   20.1956  -21.2696  -13.0742 C   0  0  0  0  0  0  0  0  0  0  0  0
   18.9399  -21.7674  -12.8273 O   0  0  0  0  0  0  0  0  0  0  0  0
   20.8337  -21.7776  -14.0451 O   0  0  0  0  0  0  0  0  0  0  0  0
  2  1  1  6
  2  3  1  0
  3  4  1  0
  4  5  2  0
  4  9  1  0
  5  6  1  0
  6  7  2  0
  8  7  1  0
  9  8  2  0
 10 12  1  0
 10  2  1  0
 11 10  2  0
 13 12  1  0
 13 14  1  6
 15 14  1  0
 15 16  2  0
 17 16  1  0
 18 23  2  0
 18 17  1  0
 19 18  1  0
 20 21  1  0
 20 19  2  0
 21 22  2  0
 22 23  1  0
 23 15  1  0
 24 13  1  0
 25 24  2  0
 27 26  1  6
 27 29  1  0
 27 28  1  0
 29 30  1  6
 30 24  1  0
 31 32  1  0
 31 29  1  0
 33 31  2  0
M  END
$$$$
