WIH.pdb
     RDKit          3D

 33 35  0  0  1  0  0  0  0  0999 V2000
    7.1217  -19.4076   26.9478 N   0  0  0  0  0  0  0  0  0  0  0  0
    7.9532  -18.2246   26.9952 C   0  0  1  0  0  0  0  0  0  0  0  0
    9.3644  -18.4947   27.4383 C   0  0  0  0  0  0  0  0  0  0  0  0
    9.7369  -17.7748   28.6706 C   0  0  0  0  0  0  0  0  0  0  0  0
   10.1612  -18.2278   29.8839 C   0  0  0  0  0  0  0  0  0  0  0  0
   10.3823  -17.1970   30.7157 N   0  0  0  0  0  0  0  0  0  0  0  0
   10.1005  -16.0634   30.0414 C   0  0  0  0  0  0  0  0  0  0  0  0
   10.1488  -14.7306   30.3915 C   0  0  0  0  0  0  0  0  0  0  0  0
    9.8107  -13.7247   29.5197 C   0  0  0  0  0  0  0  0  0  0  0  0
    9.4048  -14.0497   28.2399 C   0  0  0  0  0  0  0  0  0  0  0  0
    9.3574  -15.3885   27.8920 C   0  0  0  0  0  0  0  0  0  0  0  0
    9.6965  -16.3985   28.7656 C   0  0  0  0  0  0  0  0  0  0  0  0
    7.8928  -17.4515   25.7334 C   0  0  0  0  0  0  0  0  0  0  0  0
    7.8354  -18.0530   24.6347 O   0  0  0  0  0  0  0  0  0  0  0  0
    6.4836  -12.3972   26.4002 C   0  0  0  0  0  0  0  0  0  0  0  0
    6.4101  -13.5942   25.4602 C   0  0  0  0  0  0  0  0  0  0  0  0
    7.6835  -13.7996   24.7127 C   0  0  2  0  0  0  0  0  0  0  0  0
    7.7153  -13.0570   23.3961 C   0  0  0  0  0  0  0  0  0  0  0  0
    7.9876  -15.2568   24.4623 C   0  0  2  0  0  0  0  0  0  0  0  0
    7.8966  -16.0326   25.6976 N   0  0  0  0  0  0  0  0  0  0  0  0
    9.2611  -15.4670   23.7487 C   0  0  0  0  0  0  0  0  0  0  0  0
   10.3289  -15.1346   24.3026 O   0  0  0  0  0  0  0  0  0  0  0  0
    9.2785  -16.0312   22.4604 N   0  0  0  0  0  0  0  0  0  0  0  0
   10.5179  -16.4472   21.7620 C   0  0  1  0  0  0  0  0  0  0  0  0
   10.1904  -17.6384   20.9102 C   0  0  0  0  0  0  0  0  0  0  0  0
   10.1209  -18.9035   21.6485 C   0  0  0  0  0  0  0  0  0  0  0  0
   10.4648  -19.0106   23.0140 C   0  0  0  0  0  0  0  0  0  0  0  0
   10.2912  -20.2909   23.3716 N   0  0  0  0  0  0  0  0  0  0  0  0
    9.8587  -21.0073   22.3224 C   0  0  0  0  0  0  0  0  0  0  0  0
    9.7679  -20.1411   21.3042 N   0  0  0  0  0  0  0  0  0  0  0  0
   11.0347  -15.3051   20.9973 C   0  0  0  0  0  0  0  0  0  0  0  0
   12.1728  -15.3213   20.5001 O   0  0  0  0  0  0  0  0  0  0  0  0
   10.2794  -14.1398   20.7875 O   0  0  0  0  0  0  0  0  0  0  0  0
  2  1  1  6
  2  3  1  0
  3  4  1  0
  4  5  2  0
  5  6  1  0
  7  6  1  0
  8  7  2  0
  9  8  1  0
 10 11  1  0
 10  9  2  0
 11 12  2  0
 12  4  1  0
 12  7  1  0
 13 20  1  0
 13  2  1  0
 14 13  2  0
 16 15  1  0
 17 19  1  0
 17 16  1  0
 17 18  1  6
 19 20  1  1
 21 19  1  0
 22 21  2  0
 23 21  1  0
 24 25  1  6
 24 23  1  0
 25 26  1  0
 26 27  2  0
 26 30  1  0
 27 28  1  0
 28 29  1  0
 30 29  2  0
 31 24  1  0
 32 31  2  0
 33 31  1  0
M  END
$$$$
