WIH.pdb
     RDKit          3D

 33 35  0  0  1  0  0  0  0  0999 V2000
    6.3816  -17.1090   24.7734 N   0  0  0  0  0  0  0  0  0  0  0  0
    7.1964  -16.0479   24.2227 C   0  0  1  0  0  0  0  0  0  0  0  0
    8.4122  -15.7286   25.0477 C   0  0  0  0  0  0  0  0  0  0  0  0
    8.0985  -15.0012   26.2918 C   0  0  0  0  0  0  0  0  0  0  0  0
    8.0032  -15.4266   27.5832 C   0  0  0  0  0  0  0  0  0  0  0  0
    7.6883  -14.4007   28.3904 N   0  0  0  0  0  0  0  0  0  0  0  0
    7.5770  -13.2982   27.6215 C   0  0  0  0  0  0  0  0  0  0  0  0
    7.2790  -11.9832   27.9099 C   0  0  0  0  0  0  0  0  0  0  0  0
    7.2228  -11.0089   26.9436 C   0  0  0  0  0  0  0  0  0  0  0  0
    7.4726  -11.3488   25.6281 C   0  0  0  0  0  0  0  0  0  0  0  0
    7.7713  -12.6697   25.3423 C   0  0  0  0  0  0  0  0  0  0  0  0
    7.8282  -13.6479   26.3108 C   0  0  0  0  0  0  0  0  0  0  0  0
    7.5232  -16.2806   22.7970 C   0  0  0  0  0  0  0  0  0  0  0  0
    7.2294  -17.3745   22.2595 O   0  0  0  0  0  0  0  0  0  0  0  0
    7.4750  -11.7417   19.8809 C   0  0  0  0  0  0  0  0  0  0  0  0
    7.2221  -13.1996   20.2448 C   0  0  0  0  0  0  0  0  0  0  0  0
    8.3706  -14.0767   19.8784 C   0  0  2  0  0  0  0  0  0  0  0  0
    8.5135  -14.2596   18.3843 C   0  0  0  0  0  0  0  0  0  0  0  0
    8.3043  -15.4341   20.5354 C   0  0  2  0  0  0  0  0  0  0  0  0
    8.1666  -15.3102   21.9851 N   0  0  0  0  0  0  0  0  0  0  0  0
    9.4144  -16.3216   20.1413 C   0  0  0  0  0  0  0  0  0  0  0  0
    9.3593  -16.9105   19.0424 O   0  0  0  0  0  0  0  0  0  0  0  0
   10.5213  -16.5080   20.9889 N   0  0  0  0  0  0  0  0  0  0  0  0
   11.9291  -16.4271   20.5322 C   0  0  1  0  0  0  0  0  0  0  0  0
   12.1331  -15.0814   19.9006 C   0  0  0  0  0  0  0  0  0  0  0  0
   13.4877  -14.8593   19.3847 C   0  0  0  0  0  0  0  0  0  0  0  0
   14.5836  -14.5564   20.2223 C   0  0  0  0  0  0  0  0  0  0  0  0
   15.6610  -14.4155   19.4371 N   0  0  0  0  0  0  0  0  0  0  0  0
   15.3231  -14.6091   18.1528 C   0  0  0  0  0  0  0  0  0  0  0  0
   14.0096  -14.8736   18.1591 N   0  0  0  0  0  0  0  0  0  0  0  0
   12.8122  -16.6756   21.6788 C   0  0  0  0  0  0  0  0  0  0  0  0
   14.0481  -16.6766   21.5551 O   0  0  0  0  0  0  0  0  0  0  0  0
   12.3146  -16.9251   22.9681 O   0  0  0  0  0  0  0  0  0  0  0  0
  2  1  1  1
  2  3  1  0
  3  4  1  0
  4  5  2  0
  5  6  1  0
  7  6  1  0
  8  7  2  0
  9  8  1  0
 10 11  1  0
 10  9  2  0
 11 12  2  0
 12  4  1  0
 12  7  1  0
 13 20  1  0
 13  2  1  0
 14 13  2  0
 16 15  1  0
 17 19  1  0
 17 16  1  0
 17 18  1  6
 19 20  1  1
 21 19  1  0
 22 21  2  0
 23 21  1  0
 24 25  1  1
 24 23  1  0
 25 26  1  0
 26 27  2  0
 26 30  1  0
 27 28  1  0
 28 29  1  0
 30 29  2  0
 31 24  1  0
 32 31  2  0
 33 31  1  0
M  END
$$$$
