WIH.pdb
     RDKit          3D

 33 35  0  0  1  0  0  0  0  0999 V2000
    7.2311  -19.1540   27.0079 N   0  0  0  0  0  0  0  0  0  0  0  0
    8.0020  -17.9508   26.7819 C   0  0  1  0  0  0  0  0  0  0  0  0
    9.4830  -18.1910   26.6829 C   0  0  0  0  0  0  0  0  0  0  0  0
   10.2341  -17.6931   27.8505 C   0  0  0  0  0  0  0  0  0  0  0  0
   10.7778  -18.3463   28.9160 C   0  0  0  0  0  0  0  0  0  0  0  0
   11.3734  -17.4732   29.7444 N   0  0  0  0  0  0  0  0  0  0  0  0
   11.2177  -16.2417   29.2166 C   0  0  0  0  0  0  0  0  0  0  0  0
   11.6198  -14.9895   29.6305 C   0  0  0  0  0  0  0  0  0  0  0  0
   11.3444  -13.8505   28.9143 C   0  0  0  0  0  0  0  0  0  0  0  0
   10.6374  -13.9520   27.7319 C   0  0  0  0  0  0  0  0  0  0  0  0
   10.2353  -15.2106   27.3196 C   0  0  0  0  0  0  0  0  0  0  0  0
   10.5112  -16.3540   28.0371 C   0  0  0  0  0  0  0  0  0  0  0  0
    7.4782  -17.1603   25.6442 C   0  0  0  0  0  0  0  0  0  0  0  0
    6.8005  -17.7233   24.7522 O   0  0  0  0  0  0  0  0  0  0  0  0
    5.8869  -11.9883   26.3625 C   0  0  0  0  0  0  0  0  0  0  0  0
    5.9148  -13.3880   25.7611 C   0  0  0  0  0  0  0  0  0  0  0  0
    7.0016  -13.5437   24.7526 C   0  0  2  0  0  0  0  0  0  0  0  0
    6.7607  -12.7284   23.5022 C   0  0  0  0  0  0  0  0  0  0  0  0
    7.2376  -14.9828   24.3628 C   0  0  2  0  0  0  0  0  0  0  0  0
    7.7064  -15.7664   25.5039 N   0  0  0  0  0  0  0  0  0  0  0  0
    8.1038  -15.1259   23.1777 C   0  0  0  0  0  0  0  0  0  0  0  0
    7.6520  -14.8193   22.0555 O   0  0  0  0  0  0  0  0  0  0  0  0
    9.4209  -15.6032   23.3034 N   0  0  0  0  0  0  0  0  0  0  0  0
   10.3866  -15.6566   22.1802 C   0  0  1  0  0  0  0  0  0  0  0  0
   11.5243  -14.7337   22.5051 C   0  0  0  0  0  0  0  0  0  0  0  0
   12.5618  -14.6724   21.4706 C   0  0  0  0  0  0  0  0  0  0  0  0
   12.2825  -14.3352   20.1280 C   0  0  0  0  0  0  0  0  0  0  0  0
   13.4417  -14.3734   19.4558 N   0  0  0  0  0  0  0  0  0  0  0  0
   14.4425  -14.7132   20.2830 C   0  0  0  0  0  0  0  0  0  0  0  0
   13.8768  -14.8852   21.4854 N   0  0  0  0  0  0  0  0  0  0  0  0
   10.8023  -17.0508   21.9811 C   0  0  0  0  0  0  0  0  0  0  0  0
   11.5645  -17.3725   21.0546 O   0  0  0  0  0  0  0  0  0  0  0  0
   10.3650  -18.0903   22.8180 O   0  0  0  0  0  0  0  0  0  0  0  0
  2  1  1  6
  2  3  1  0
  3  4  1  0
  4  5  2  0
  5  6  1  0
  7  6  1  0
  8  7  2  0
  9  8  1  0
 10 11  1  0
 10  9  2  0
 11 12  2  0
 12  4  1  0
 12  7  1  0
 13 20  1  0
 13  2  1  0
 14 13  2  0
 16 15  1  0
 17 19  1  0
 17 16  1  0
 17 18  1  6
 19 20  1  1
 21 19  1  0
 22 21  2  0
 23 21  1  0
 24 25  1  1
 24 23  1  0
 25 26  1  0
 26 27  2  0
 26 30  1  0
 27 28  1  0
 28 29  1  0
 30 29  2  0
 31 24  1  0
 32 31  2  0
 33 31  1  0
M  END
$$$$
