WIH.pdb
     RDKit          3D

 33 35  0  0  1  0  0  0  0  0999 V2000
    6.6446  -17.2750   25.0290 N   0  0  0  0  0  0  0  0  0  0  0  0
    7.3765  -16.1515   24.4857 C   0  0  1  0  0  0  0  0  0  0  0  0
    8.5156  -15.6946   25.3544 C   0  0  0  0  0  0  0  0  0  0  0  0
    8.0802  -14.8933   26.5136 C   0  0  0  0  0  0  0  0  0  0  0  0
    7.9646  -15.2102   27.8341 C   0  0  0  0  0  0  0  0  0  0  0  0
    7.5210  -14.1515   28.5310 N   0  0  0  0  0  0  0  0  0  0  0  0
    7.3457  -13.1366   27.6602 C   0  0  0  0  0  0  0  0  0  0  0  0
    6.9167  -11.8354   27.8149 C   0  0  0  0  0  0  0  0  0  0  0  0
    6.8168  -10.9598   26.7616 C   0  0  0  0  0  0  0  0  0  0  0  0
    7.1567  -11.3892   25.4933 C   0  0  0  0  0  0  0  0  0  0  0  0
    7.5868  -12.6960   25.3418 C   0  0  0  0  0  0  0  0  0  0  0  0
    7.6877  -13.5752   26.3977 C   0  0  0  0  0  0  0  0  0  0  0  0
    7.7906  -16.3837   23.0828 C   0  0  0  0  0  0  0  0  0  0  0  0
    7.8794  -17.5547   22.6436 O   0  0  0  0  0  0  0  0  0  0  0  0
    8.3696  -11.8987   19.4862 C   0  0  0  0  0  0  0  0  0  0  0  0
    8.8716  -13.1464   20.2024 C   0  0  0  0  0  0  0  0  0  0  0  0
    7.9967  -14.3272   19.9521 C   0  0  2  0  0  0  0  0  0  0  0  0
    6.5330  -14.0315   20.1891 C   0  0  0  0  0  0  0  0  0  0  0  0
    8.3926  -15.5336   20.7684 C   0  0  2  0  0  0  0  0  0  0  0  0
    8.1003  -15.3283   22.1856 N   0  0  0  0  0  0  0  0  0  0  0  0
    9.7833  -15.9624   20.5287 C   0  0  0  0  0  0  0  0  0  0  0  0
   10.2063  -16.0212   19.3561 O   0  0  0  0  0  0  0  0  0  0  0  0
   10.6253  -16.3042   21.6023 N   0  0  0  0  0  0  0  0  0  0  0  0
   12.1003  -16.3998   21.4918 C   0  0  1  0  0  0  0  0  0  0  0  0
   12.6192  -15.0587   21.0634 C   0  0  0  0  0  0  0  0  0  0  0  0
   13.1538  -15.0299   19.6981 C   0  0  0  0  0  0  0  0  0  0  0  0
   12.9610  -16.0856   18.7803 C   0  0  0  0  0  0  0  0  0  0  0  0
   13.5740  -15.7411   17.6389 N   0  0  0  0  0  0  0  0  0  0  0  0
   14.1452  -14.5337   17.7695 C   0  0  0  0  0  0  0  0  0  0  0  0
   13.8724  -14.1365   19.0197 N   0  0  0  0  0  0  0  0  0  0  0  0
   12.6415  -16.8529   22.7795 C   0  0  0  0  0  0  0  0  0  0  0  0
   13.6236  -17.6111   22.8376 O   0  0  0  0  0  0  0  0  0  0  0  0
   12.0843  -16.4596   24.0071 O   0  0  0  0  0  0  0  0  0  0  0  0
  2  1  1  1
  2  3  1  0
  3  4  1  0
  4  5  2  0
  5  6  1  0
  7  6  1  0
  8  7  2  0
  9  8  1  0
 10 11  1  0
 10  9  2  0
 11 12  2  0
 12  4  1  0
 12  7  1  0
 13 20  1  0
 13  2  1  0
 14 13  2  0
 16 15  1  0
 17 19  1  0
 17 16  1  0
 17 18  1  1
 19 20  1  1
 21 19  1  0
 22 21  2  0
 23 21  1  0
 24 25  1  1
 24 23  1  0
 25 26  1  0
 26 27  2  0
 26 30  1  0
 27 28  1  0
 28 29  1  0
 30 29  2  0
 31 24  1  0
 32 31  2  0
 33 31  1  0
M  END
$$$$
