WIH.pdb
     RDKit          3D

 33 35  0  0  1  0  0  0  0  0999 V2000
    6.4079  -17.0334   25.3506 N   0  0  0  0  0  0  0  0  0  0  0  0
    7.1490  -15.9501   24.7419 C   0  0  1  0  0  0  0  0  0  0  0  0
    8.4439  -15.6366   25.4389 C   0  0  0  0  0  0  0  0  0  0  0  0
    8.2843  -14.7152   26.5795 C   0  0  0  0  0  0  0  0  0  0  0  0
    8.5053  -14.8877   27.9133 C   0  0  0  0  0  0  0  0  0  0  0  0
    8.2171  -13.7603   28.5837 N   0  0  0  0  0  0  0  0  0  0  0  0
    7.8053  -12.8457   27.6820 C   0  0  0  0  0  0  0  0  0  0  0  0
    7.3913  -11.5359   27.8012 C   0  0  0  0  0  0  0  0  0  0  0  0
    7.0116  -10.7794   26.7197 C   0  0  0  0  0  0  0  0  0  0  0  0
    7.0416  -11.3430   25.4588 C   0  0  0  0  0  0  0  0  0  0  0  0
    7.4575  -12.6580   25.3430 C   0  0  0  0  0  0  0  0  0  0  0  0
    7.8389  -13.4179   26.4272 C   0  0  0  0  0  0  0  0  0  0  0  0
    7.3221  -16.1451   23.2840 C   0  0  0  0  0  0  0  0  0  0  0  0
    7.1594  -17.2826   22.7824 O   0  0  0  0  0  0  0  0  0  0  0  0
    7.6050  -12.8936   17.9663 C   0  0  0  0  0  0  0  0  0  0  0  0
    7.8044  -14.1980   18.7281 C   0  0  0  0  0  0  0  0  0  0  0  0
    7.6965  -14.0086   20.2029 C   0  0  2  0  0  0  0  0  0  0  0  0
    8.6264  -12.9366   20.7246 C   0  0  0  0  0  0  0  0  0  0  0  0
    7.9330  -15.2831   20.9764 C   0  0  2  0  0  0  0  0  0  0  0  0
    7.6708  -15.0898   22.4011 N   0  0  0  0  0  0  0  0  0  0  0  0
    9.2561  -15.8803   20.7154 C   0  0  0  0  0  0  0  0  0  0  0  0
    9.5303  -16.2665   19.5608 O   0  0  0  0  0  0  0  0  0  0  0  0
   10.1993  -16.0179   21.7498 N   0  0  0  0  0  0  0  0  0  0  0  0
   11.6139  -16.4000   21.5267 C   0  0  1  0  0  0  0  0  0  0  0  0
   12.4420  -15.1492   21.5670 C   0  0  0  0  0  0  0  0  0  0  0  0
   13.0457  -14.7872   20.2805 C   0  0  0  0  0  0  0  0  0  0  0  0
   12.4675  -15.1368   19.0404 C   0  0  0  0  0  0  0  0  0  0  0  0
   13.2668  -14.6580   18.0766 N   0  0  0  0  0  0  0  0  0  0  0  0
   14.3174  -14.0254   18.6218 C   0  0  0  0  0  0  0  0  0  0  0  0
   14.1515  -14.1230   19.9478 N   0  0  0  0  0  0  0  0  0  0  0  0
   12.0004  -17.3907   22.5393 C   0  0  0  0  0  0  0  0  0  0  0  0
   11.3453  -17.5369   23.5843 O   0  0  0  0  0  0  0  0  0  0  0  0
   13.1228  -18.2208   22.3859 O   0  0  0  0  0  0  0  0  0  0  0  0
  2  1  1  1
  2  3  1  0
  3  4  1  0
  4  5  2  0
  5  6  1  0
  7  6  1  0
  8  7  2  0
  9  8  1  0
 10 11  1  0
 10  9  2  0
 11 12  2  0
 12  4  1  0
 12  7  1  0
 13 20  1  0
 13  2  1  0
 14 13  2  0
 16 15  1  0
 17 19  1  0
 17 16  1  0
 17 18  1  1
 19 20  1  1
 21 19  1  0
 22 21  2  0
 23 21  1  0
 24 25  1  1
 24 23  1  0
 25 26  1  0
 26 27  2  0
 26 30  1  0
 27 28  1  0
 28 29  1  0
 30 29  2  0
 31 24  1  0
 32 31  2  0
 33 31  1  0
M  END
$$$$
