WIH.pdb
     RDKit          3D

 33 35  0  0  1  0  0  0  0  0999 V2000
    8.2745  -17.4800   24.9158 N   0  0  0  0  0  0  0  0  0  0  0  0
    6.9256  -17.0418   24.6303 C   0  0  1  0  0  0  0  0  0  0  0  0
    6.3332  -16.1698   25.7025 C   0  0  0  0  0  0  0  0  0  0  0  0
    7.3096  -15.2446   26.3076 C   0  0  0  0  0  0  0  0  0  0  0  0
    8.5328  -15.4664   26.8662 C   0  0  0  0  0  0  0  0  0  0  0  0
    9.0667  -14.3110   27.2945 N   0  0  0  0  0  0  0  0  0  0  0  0
    8.1866  -13.3283   27.0138 C   0  0  0  0  0  0  0  0  0  0  0  0
    8.2086  -11.9656   27.2230 C   0  0  0  0  0  0  0  0  0  0  0  0
    7.1768  -11.1427   26.8431 C   0  0  0  0  0  0  0  0  0  0  0  0
    6.0688  -11.6913   26.2269 C   0  0  0  0  0  0  0  0  0  0  0  0
    6.0500  -13.0595   26.0187 C   0  0  0  0  0  0  0  0  0  0  0  0
    7.0847  -13.8860   26.3991 C   0  0  0  0  0  0  0  0  0  0  0  0
    6.8099  -16.4405   23.2817 C   0  0  0  0  0  0  0  0  0  0  0  0
    5.8761  -15.6419   23.0322 O   0  0  0  0  0  0  0  0  0  0  0  0
    7.5981  -12.2463   20.1295 C   0  0  0  0  0  0  0  0  0  0  0  0
    7.6678  -13.7497   19.8919 C   0  0  0  0  0  0  0  0  0  0  0  0
    7.7305  -14.5172   21.1684 C   0  0  2  0  0  0  0  0  0  0  0  0
    8.9247  -14.1441   22.0173 C   0  0  0  0  0  0  0  0  0  0  0  0
    7.7273  -16.0115   20.9546 C   0  0  2  0  0  0  0  0  0  0  0  0
    7.7196  -16.7250   22.2300 N   0  0  0  0  0  0  0  0  0  0  0  0
    8.8000  -16.4683   20.0514 C   0  0  0  0  0  0  0  0  0  0  0  0
    8.8983  -15.9552   18.9180 O   0  0  0  0  0  0  0  0  0  0  0  0
    9.7015  -17.4698   20.4549 N   0  0  0  0  0  0  0  0  0  0  0  0
   11.1496  -17.4478   20.1395 C   0  0  1  0  0  0  0  0  0  0  0  0
   11.4150  -16.2534   19.2709 C   0  0  0  0  0  0  0  0  0  0  0  0
   11.2176  -16.4971   17.8384 C   0  0  0  0  0  0  0  0  0  0  0  0
   10.8329  -17.7546   17.3236 C   0  0  0  0  0  0  0  0  0  0  0  0
   10.7442  -17.6321   15.9916 N   0  0  0  0  0  0  0  0  0  0  0  0
   11.0473  -16.3776   15.6235 C   0  0  0  0  0  0  0  0  0  0  0  0
   11.3267  -15.7237   16.7592 N   0  0  0  0  0  0  0  0  0  0  0  0
   11.9064  -17.4363   21.3978 C   0  0  0  0  0  0  0  0  0  0  0  0
   12.8466  -18.2239   21.5944 O   0  0  0  0  0  0  0  0  0  0  0  0
   11.6126  -16.5436   22.4414 O   0  0  0  0  0  0  0  0  0  0  0  0
  2  1  1  1
  2  3  1  0
  3  4  1  0
  4  5  2  0
  5  6  1  0
  7  6  1  0
  8  7  2  0
  9  8  1  0
 10 11  1  0
 10  9  2  0
 11 12  2  0
 12  4  1  0
 12  7  1  0
 13 20  1  0
 13  2  1  0
 14 13  2  0
 16 15  1  0
 17 19  1  0
 17 16  1  0
 17 18  1  6
 19 20  1  1
 21 19  1  0
 22 21  2  0
 23 21  1  0
 24 25  1  6
 24 23  1  0
 25 26  1  0
 26 27  2  0
 26 30  1  0
 27 28  1  0
 28 29  1  0
 30 29  2  0
 31 24  1  0
 32 31  2  0
 33 31  1  0
M  END
$$$$
