WIH.pdb
     RDKit          3D

 33 35  0  0  1  0  0  0  0  0999 V2000
    6.7920  -17.8041   25.9714 N   0  0  0  0  0  0  0  0  0  0  0  0
    7.4653  -16.6638   25.3886 C   0  0  1  0  0  0  0  0  0  0  0  0
    8.8488  -16.4357   25.9316 C   0  0  0  0  0  0  0  0  0  0  0  0
    8.8602  -15.6942   27.2066 C   0  0  0  0  0  0  0  0  0  0  0  0
    9.1698  -16.0883   28.4740 C   0  0  0  0  0  0  0  0  0  0  0  0
    9.0343  -15.0612   29.3284 N   0  0  0  0  0  0  0  0  0  0  0  0
    8.6336  -13.9893   28.6144 C   0  0  0  0  0  0  0  0  0  0  0  0
    8.3456  -12.6872   28.9647 C   0  0  0  0  0  0  0  0  0  0  0  0
    7.9489  -11.7454   28.0472 C   0  0  0  0  0  0  0  0  0  0  0  0
    7.8303  -12.1062   26.7190 C   0  0  0  0  0  0  0  0  0  0  0  0
    8.1201  -13.4141   26.3711 C   0  0  0  0  0  0  0  0  0  0  0  0
    8.5184  -14.3597   27.2906 C   0  0  0  0  0  0  0  0  0  0  0  0
    7.4353  -16.6972   23.9082 C   0  0  0  0  0  0  0  0  0  0  0  0
    6.9109  -17.6701   23.3161 O   0  0  0  0  0  0  0  0  0  0  0  0
    7.3845  -11.8405   21.4111 C   0  0  0  0  0  0  0  0  0  0  0  0
    7.1039  -13.2854   21.8052 C   0  0  0  0  0  0  0  0  0  0  0  0
    8.0080  -14.2432   21.1068 C   0  0  2  0  0  0  0  0  0  0  0  0
    7.7897  -14.2688   19.6108 C   0  0  0  0  0  0  0  0  0  0  0  0
    7.8987  -15.6498   21.6434 C   0  0  2  0  0  0  0  0  0  0  0  0
    7.9806  -15.6637   23.1025 N   0  0  0  0  0  0  0  0  0  0  0  0
    8.8466  -16.5853   21.0095 C   0  0  0  0  0  0  0  0  0  0  0  0
    8.7596  -16.7989   19.7831 O   0  0  0  0  0  0  0  0  0  0  0  0
    9.8355  -17.2330   21.7718 N   0  0  0  0  0  0  0  0  0  0  0  0
   11.1851  -17.5642   21.2562 C   0  0  1  0  0  0  0  0  0  0  0  0
   11.2852  -17.0399   19.8538 C   0  0  0  0  0  0  0  0  0  0  0  0
   10.5669  -17.8438   18.8596 C   0  0  0  0  0  0  0  0  0  0  0  0
   10.5857  -19.2559   18.8615 C   0  0  0  0  0  0  0  0  0  0  0  0
    9.8361  -19.6678   17.8292 N   0  0  0  0  0  0  0  0  0  0  0  0
    9.3404  -18.6097   17.1690 C   0  0  0  0  0  0  0  0  0  0  0  0
    9.8003  -17.5303   17.8162 N   0  0  0  0  0  0  0  0  0  0  0  0
   12.1897  -16.9986   22.1657 C   0  0  0  0  0  0  0  0  0  0  0  0
   11.8590  -16.3439   23.1681 O   0  0  0  0  0  0  0  0  0  0  0  0
   13.5684  -17.1630   21.9555 O   0  0  0  0  0  0  0  0  0  0  0  0
  2  1  1  1
  2  3  1  0
  3  4  1  0
  4  5  2  0
  5  6  1  0
  7  6  1  0
  8  7  2  0
  9  8  1  0
 10 11  1  0
 10  9  2  0
 11 12  2  0
 12  4  1  0
 12  7  1  0
 13 20  1  0
 13  2  1  0
 14 13  2  0
 16 15  1  0
 17 19  1  0
 17 16  1  0
 17 18  1  6
 19 20  1  1
 21 19  1  0
 22 21  2  0
 23 21  1  0
 24 25  1  6
 24 23  1  0
 25 26  1  0
 26 27  2  0
 26 30  1  0
 27 28  1  0
 28 29  1  0
 30 29  2  0
 31 24  1  0
 32 31  2  0
 33 31  1  0
M  END
$$$$
