WIH.pdb
     RDKit          3D

 33 35  0  0  1  0  0  0  0  0999 V2000
    5.2503  -17.5716   23.9879 N   0  0  0  0  0  0  0  0  0  0  0  0
    6.2270  -16.5044   23.9994 C   0  0  1  0  0  0  0  0  0  0  0  0
    6.8959  -16.3110   25.3321 C   0  0  0  0  0  0  0  0  0  0  0  0
    6.4025  -15.1311   26.0668 C   0  0  0  0  0  0  0  0  0  0  0  0
    5.2157  -14.8926   26.6932 C   0  0  0  0  0  0  0  0  0  0  0  0
    5.2110  -13.6623   27.2314 N   0  0  0  0  0  0  0  0  0  0  0  0
    6.4023  -13.0935   26.9548 C   0  0  0  0  0  0  0  0  0  0  0  0
    6.9425  -11.8613   27.2563 C   0  0  0  0  0  0  0  0  0  0  0  0
    8.2057  -11.4920   26.8637 C   0  0  0  0  0  0  0  0  0  0  0  0
    8.9733  -12.3820   26.1378 C   0  0  0  0  0  0  0  0  0  0  0  0
    8.4278  -13.6178   25.8368 C   0  0  0  0  0  0  0  0  0  0  0  0
    7.1608  -13.9896   26.2304 C   0  0  0  0  0  0  0  0  0  0  0  0
    7.1994  -16.6284   22.8892 C   0  0  0  0  0  0  0  0  0  0  0  0
    7.5882  -17.7629   22.5235 O   0  0  0  0  0  0  0  0  0  0  0  0
    7.6648  -12.1309   20.0219 C   0  0  0  0  0  0  0  0  0  0  0  0
    7.6015  -13.6527   19.9822 C   0  0  0  0  0  0  0  0  0  0  0  0
    8.8816  -14.2791   20.4199 C   0  0  2  0  0  0  0  0  0  0  0  0
    9.8693  -14.4443   19.2871 C   0  0  0  0  0  0  0  0  0  0  0  0
    8.6802  -15.6142   21.0948 C   0  0  2  0  0  0  0  0  0  0  0  0
    7.7290  -15.5068   22.1991 N   0  0  0  0  0  0  0  0  0  0  0  0
    9.9464  -16.2574   21.4925 C   0  0  0  0  0  0  0  0  0  0  0  0
   10.5533  -15.8327   22.4969 O   0  0  0  0  0  0  0  0  0  0  0  0
   10.4694  -17.3334   20.7528 N   0  0  0  0  0  0  0  0  0  0  0  0
   11.7513  -18.0051   21.0731 C   0  0  1  0  0  0  0  0  0  0  0  0
   11.9266  -19.1466   20.1152 C   0  0  0  0  0  0  0  0  0  0  0  0
   13.1840  -19.8825   20.2818 C   0  0  0  0  0  0  0  0  0  0  0  0
   14.0758  -19.6387   21.3493 C   0  0  0  0  0  0  0  0  0  0  0  0
   15.1140  -20.4739   21.2027 N   0  0  0  0  0  0  0  0  0  0  0  0
   14.9422  -21.2348   20.1107 C   0  0  0  0  0  0  0  0  0  0  0  0
   13.7718  -20.8520   19.5823 N   0  0  0  0  0  0  0  0  0  0  0  0
   12.8328  -17.0140   21.0070 C   0  0  0  0  0  0  0  0  0  0  0  0
   12.8859  -16.1746   20.0930 O   0  0  0  0  0  0  0  0  0  0  0  0
   13.8596  -16.9598   21.9635 O   0  0  0  0  0  0  0  0  0  0  0  0
  2  1  1  1
  2  3  1  0
  3  4  1  0
  4  5  2  0
  5  6  1  0
  7  6  1  0
  8  7  2  0
  9  8  1  0
 10 11  1  0
 10  9  2  0
 11 12  2  0
 12  4  1  0
 12  7  1  0
 13 20  1  0
 13  2  1  0
 14 13  2  0
 16 15  1  0
 17 19  1  0
 17 16  1  0
 17 18  1  6
 19 20  1  1
 21 19  1  0
 22 21  2  0
 23 21  1  0
 24 25  1  6
 24 23  1  0
 25 26  1  0
 26 27  2  0
 26 30  1  0
 27 28  1  0
 28 29  1  0
 30 29  2  0
 31 24  1  0
 32 31  2  0
 33 31  1  0
M  END
$$$$
