WIH.pdb
     RDKit          3D

 33 35  0  0  1  0  0  0  0  0999 V2000
    9.5577  -17.4853   21.8652 N   0  0  0  0  0  0  0  0  0  0  0  0
    9.1609  -16.1353   22.2013 C   0  0  1  0  0  0  0  0  0  0  0  0
    7.6888  -15.8782   22.0343 C   0  0  0  0  0  0  0  0  0  0  0  0
    7.3384  -15.3339   20.7090 C   0  0  0  0  0  0  0  0  0  0  0  0
    6.8969  -15.9447   19.5734 C   0  0  0  0  0  0  0  0  0  0  0  0
    6.7089  -15.0396   18.5994 N   0  0  0  0  0  0  0  0  0  0  0  0
    7.0296  -13.8297   19.1020 C   0  0  0  0  0  0  0  0  0  0  0  0
    7.0251  -12.5615   18.5610 C   0  0  0  0  0  0  0  0  0  0  0  0
    7.3981  -11.4509   19.2776 C   0  0  0  0  0  0  0  0  0  0  0  0
    7.7953  -11.5989   20.5924 C   0  0  0  0  0  0  0  0  0  0  0  0
    7.7987  -12.8734   21.1321 C   0  0  0  0  0  0  0  0  0  0  0  0
    7.4244  -13.9883   20.4143 C   0  0  0  0  0  0  0  0  0  0  0  0
    9.6611  -15.7239   23.5332 C   0  0  0  0  0  0  0  0  0  0  0  0
   10.0486  -14.5459   23.7182 O   0  0  0  0  0  0  0  0  0  0  0  0
    9.1495  -13.2551   28.2308 C   0  0  0  0  0  0  0  0  0  0  0  0
    9.9062  -14.4954   27.7720 C   0  0  0  0  0  0  0  0  0  0  0  0
    9.4210  -14.9927   26.4529 C   0  0  2  0  0  0  0  0  0  0  0  0
    7.9407  -15.3009   26.4525 C   0  0  0  0  0  0  0  0  0  0  0  0
   10.1759  -16.2077   25.9709 C   0  0  2  0  0  0  0  0  0  0  0  0
    9.7281  -16.6108   24.6394 N   0  0  0  0  0  0  0  0  0  0  0  0
   10.1599  -17.3198   26.9395 C   0  0  0  0  0  0  0  0  0  0  0  0
    9.0834  -17.6297   27.4896 O   0  0  0  0  0  0  0  0  0  0  0  0
   11.3386  -18.0237   27.2453 N   0  0  0  0  0  0  0  0  0  0  0  0
   11.4052  -19.1242   28.2360 C   0  0  1  0  0  0  0  0  0  0  0  0
   12.7243  -19.8191   28.0663 C   0  0  0  0  0  0  0  0  0  0  0  0
   12.9351  -20.3897   26.7320 C   0  0  0  0  0  0  0  0  0  0  0  0
   11.9488  -20.3541   25.7218 C   0  0  0  0  0  0  0  0  0  0  0  0
   12.4615  -20.9575   24.6401 N   0  0  0  0  0  0  0  0  0  0  0  0
   13.7110  -21.3756   24.8949 C   0  0  0  0  0  0  0  0  0  0  0  0
   13.9623  -21.0173   26.1614 N   0  0  0  0  0  0  0  0  0  0  0  0
   11.2075  -18.5632   29.5786 C   0  0  0  0  0  0  0  0  0  0  0  0
   11.3101  -17.3439   29.7916 O   0  0  0  0  0  0  0  0  0  0  0  0
   10.8954  -19.3658   30.6879 O   0  0  0  0  0  0  0  0  0  0  0  0
  2  1  1  1
  2  3  1  0
  3  4  1  0
  4  5  2  0
  5  6  1  0
  7  6  1  0
  8  7  2  0
  9  8  1  0
 10 11  1  0
 10  9  2  0
 11 12  2  0
 12  4  1  0
 12  7  1  0
 13 20  1  0
 13  2  1  0
 14 13  2  0
 16 15  1  0
 17 19  1  0
 17 16  1  0
 17 18  1  1
 19 20  1  6
 21 19  1  0
 22 21  2  0
 23 21  1  0
 24 25  1  1
 24 23  1  0
 25 26  1  0
 26 27  2  0
 26 30  1  0
 27 28  1  0
 28 29  1  0
 30 29  2  0
 31 24  1  0
 32 31  2  0
 33 31  1  0
M  END
$$$$
