WIH.pdb
     RDKit          3D

 33 35  0  0  1  0  0  0  0  0999 V2000
    6.5743  -18.5364   25.0879 N   0  0  0  0  0  0  0  0  0  0  0  0
    6.8381  -17.1383   24.8255 C   0  0  1  0  0  0  0  0  0  0  0  0
    7.4816  -16.4176   25.9776 C   0  0  0  0  0  0  0  0  0  0  0  0
    6.7619  -15.1930   26.3749 C   0  0  0  0  0  0  0  0  0  0  0  0
    5.4370  -14.9583   26.5921 C   0  0  0  0  0  0  0  0  0  0  0  0
    5.2408  -13.6758   26.9386 N   0  0  0  0  0  0  0  0  0  0  0  0
    6.4453  -13.0689   26.9478 C   0  0  0  0  0  0  0  0  0  0  0  0
    6.8395  -11.7777   27.2282 C   0  0  0  0  0  0  0  0  0  0  0  0
    8.1522  -11.3776   27.1747 C   0  0  0  0  0  0  0  0  0  0  0  0
    9.1235  -12.2964   26.8273 C   0  0  0  0  0  0  0  0  0  0  0  0
    8.7241  -13.5915   26.5464 C   0  0  0  0  0  0  0  0  0  0  0  0
    7.4076  -13.9942   26.5999 C   0  0  0  0  0  0  0  0  0  0  0  0
    7.5689  -16.9396   23.5527 C   0  0  0  0  0  0  0  0  0  0  0  0
    8.3274  -17.8399   23.1211 O   0  0  0  0  0  0  0  0  0  0  0  0
    8.0268  -12.7037   18.9231 C   0  0  0  0  0  0  0  0  0  0  0  0
    8.5015  -13.9837   19.5999 C   0  0  0  0  0  0  0  0  0  0  0  0
    7.8000  -14.2284   20.8924 C   0  0  2  0  0  0  0  0  0  0  0  0
    7.9795  -13.0967   21.8788 C   0  0  0  0  0  0  0  0  0  0  0  0
    8.2153  -15.5227   21.5487 C   0  0  2  0  0  0  0  0  0  0  0  0
    7.4558  -15.7576   22.7751 N   0  0  0  0  0  0  0  0  0  0  0  0
    9.6725  -15.6264   21.7511 C   0  0  0  0  0  0  0  0  0  0  0  0
   10.1999  -15.0024   22.6944 O   0  0  0  0  0  0  0  0  0  0  0  0
   10.4628  -16.4139   20.8946 N   0  0  0  0  0  0  0  0  0  0  0  0
   11.9327  -16.5512   21.0273 C   0  0  1  0  0  0  0  0  0  0  0  0
   12.2850  -17.9912   20.7949 C   0  0  0  0  0  0  0  0  0  0  0  0
   12.1027  -18.8509   21.9689 C   0  0  0  0  0  0  0  0  0  0  0  0
   11.8070  -18.3391   23.2515 C   0  0  0  0  0  0  0  0  0  0  0  0
   11.7074  -19.3834   24.0862 N   0  0  0  0  0  0  0  0  0  0  0  0
   11.9203  -20.5281   23.4189 C   0  0  0  0  0  0  0  0  0  0  0  0
   12.1548  -20.1697   22.1493 N   0  0  0  0  0  0  0  0  0  0  0  0
   12.5797  -15.6306   20.0838 C   0  0  0  0  0  0  0  0  0  0  0  0
   12.0775  -15.3820   18.9753 O   0  0  0  0  0  0  0  0  0  0  0  0
   13.7923  -14.9860   20.3775 O   0  0  0  0  0  0  0  0  0  0  0  0
  2  1  1  1
  2  3  1  0
  3  4  1  0
  4  5  2  0
  5  6  1  0
  7  6  1  0
  8  7  2  0
  9  8  1  0
 10 11  1  0
 10  9  2  0
 11 12  2  0
 12  4  1  0
 12  7  1  0
 13 20  1  0
 13  2  1  0
 14 13  2  0
 16 15  1  0
 17 19  1  0
 17 16  1  0
 17 18  1  1
 19 20  1  1
 21 19  1  0
 22 21  2  0
 23 21  1  0
 24 25  1  6
 24 23  1  0
 25 26  1  0
 26 27  2  0
 26 30  1  0
 27 28  1  0
 28 29  1  0
 30 29  2  0
 31 24  1  0
 32 31  2  0
 33 31  1  0
M  END
$$$$
