WIH.pdb
     RDKit          3D

 33 35  0  0  1  0  0  0  0  0999 V2000
    6.5129  -17.7653   24.5553 N   0  0  0  0  0  0  0  0  0  0  0  0
    7.1934  -16.5420   24.1897 C   0  0  1  0  0  0  0  0  0  0  0  0
    7.8715  -15.8587   25.3447 C   0  0  0  0  0  0  0  0  0  0  0  0
    7.0269  -14.8412   25.9981 C   0  0  0  0  0  0  0  0  0  0  0  0
    5.7710  -14.9160   26.5222 C   0  0  0  0  0  0  0  0  0  0  0  0
    5.3995  -13.7236   27.0159 N   0  0  0  0  0  0  0  0  0  0  0  0
    6.4193  -12.8646   26.8129 C   0  0  0  0  0  0  0  0  0  0  0  0
    6.5912  -11.5298   27.1128 C   0  0  0  0  0  0  0  0  0  0  0  0
    7.7420  -10.8456   26.8066 C   0  0  0  0  0  0  0  0  0  0  0  0
    8.7737  -11.5110   26.1732 C   0  0  0  0  0  0  0  0  0  0  0  0
    8.5976  -12.8508   25.8736 C   0  0  0  0  0  0  0  0  0  0  0  0
    7.4437  -13.5383   26.1805 C   0  0  0  0  0  0  0  0  0  0  0  0
    8.0984  -16.7335   23.0330 C   0  0  0  0  0  0  0  0  0  0  0  0
    8.3883  -17.8923   22.6522 O   0  0  0  0  0  0  0  0  0  0  0  0
    7.4629  -12.5356   19.6163 C   0  0  0  0  0  0  0  0  0  0  0  0
    7.5752  -13.9238   20.2343 C   0  0  0  0  0  0  0  0  0  0  0  0
    8.9741  -14.4384   20.2074 C   0  0  2  0  0  0  0  0  0  0  0  0
    9.5182  -14.5808   18.8040 C   0  0  0  0  0  0  0  0  0  0  0  0
    9.1283  -15.7547   20.9301 C   0  0  2  0  0  0  0  0  0  0  0  0
    8.6702  -15.6514   22.3140 N   0  0  0  0  0  0  0  0  0  0  0  0
   10.4864  -16.3191   20.8190 C   0  0  0  0  0  0  0  0  0  0  0  0
   10.8717  -16.7602   19.7170 O   0  0  0  0  0  0  0  0  0  0  0  0
   11.3393  -16.3650   21.9365 N   0  0  0  0  0  0  0  0  0  0  0  0
   12.6723  -17.0131   21.9270 C   0  0  1  0  0  0  0  0  0  0  0  0
   13.7091  -15.9351   21.8063 C   0  0  0  0  0  0  0  0  0  0  0  0
   13.7721  -15.3082   20.4821 C   0  0  0  0  0  0  0  0  0  0  0  0
   14.1091  -16.0253   19.3131 C   0  0  0  0  0  0  0  0  0  0  0  0
   14.0750  -15.1609   18.2891 N   0  0  0  0  0  0  0  0  0  0  0  0
   13.7380  -13.9387   18.7293 C   0  0  0  0  0  0  0  0  0  0  0  0
   13.5636  -14.0648   20.0519 N   0  0  0  0  0  0  0  0  0  0  0  0
   12.8109  -17.8252   23.1425 C   0  0  0  0  0  0  0  0  0  0  0  0
   13.8940  -18.3497   23.4501 O   0  0  0  0  0  0  0  0  0  0  0  0
   11.7367  -18.0541   24.0178 O   0  0  0  0  0  0  0  0  0  0  0  0
  2  1  1  1
  2  3  1  0
  3  4  1  0
  4  5  2  0
  5  6  1  0
  7  6  1  0
  8  7  2  0
  9  8  1  0
 10 11  1  0
 10  9  2  0
 11 12  2  0
 12  4  1  0
 12  7  1  0
 13 20  1  0
 13  2  1  0
 14 13  2  0
 16 15  1  0
 17 19  1  0
 17 16  1  0
 17 18  1  6
 19 20  1  1
 21 19  1  0
 22 21  2  0
 23 21  1  0
 24 25  1  1
 24 23  1  0
 25 26  1  0
 26 27  2  0
 26 30  1  0
 27 28  1  0
 28 29  1  0
 30 29  2  0
 31 24  1  0
 32 31  2  0
 33 31  1  0
M  END
$$$$
