WIH.pdb
     RDKit          3D

 33 35  0  0  1  0  0  0  0  0999 V2000
    7.3397  -18.7328   26.9749 N   0  0  0  0  0  0  0  0  0  0  0  0
    8.1007  -17.5750   26.5584 C   0  0  1  0  0  0  0  0  0  0  0  0
    9.5891  -17.7861   26.5897 C   0  0  0  0  0  0  0  0  0  0  0  0
   10.1940  -17.4822   27.9001 C   0  0  0  0  0  0  0  0  0  0  0  0
   10.6658  -18.2984   28.8844 C   0  0  0  0  0  0  0  0  0  0  0  0
   11.1289  -17.5698   29.9129 N   0  0  0  0  0  0  0  0  0  0  0  0
   10.9585  -16.2693   29.5985 C   0  0  0  0  0  0  0  0  0  0  0  0
   11.2491  -15.0996   30.2682 C   0  0  0  0  0  0  0  0  0  0  0  0
   10.9832  -13.8599   29.7402 C   0  0  0  0  0  0  0  0  0  0  0  0
   10.4018  -13.7700   28.4903 C   0  0  0  0  0  0  0  0  0  0  0  0
   10.1114  -14.9462   27.8211 C   0  0  0  0  0  0  0  0  0  0  0  0
   10.3779  -16.1904   28.3495 C   0  0  0  0  0  0  0  0  0  0  0  0
    7.6309  -17.0383   25.2604 C   0  0  0  0  0  0  0  0  0  0  0  0
    6.9882  -17.7754   24.4758 O   0  0  0  0  0  0  0  0  0  0  0  0
    6.0585  -11.8186   25.2606 C   0  0  0  0  0  0  0  0  0  0  0  0
    6.1754  -13.3174   25.0120 C   0  0  0  0  0  0  0  0  0  0  0  0
    7.0475  -13.6258   23.8429 C   0  0  2  0  0  0  0  0  0  0  0  0
    6.5242  -13.0388   22.5516 C   0  0  0  0  0  0  0  0  0  0  0  0
    7.2723  -15.1065   23.6539 C   0  0  2  0  0  0  0  0  0  0  0  0
    7.8740  -15.7031   24.8447 N   0  0  0  0  0  0  0  0  0  0  0  0
    8.0132  -15.4254   22.4191 C   0  0  0  0  0  0  0  0  0  0  0  0
    7.3919  -15.4915   21.3388 O   0  0  0  0  0  0  0  0  0  0  0  0
    9.4004  -15.6558   22.4524 N   0  0  0  0  0  0  0  0  0  0  0  0
   10.1918  -16.0788   21.2728 C   0  0  1  0  0  0  0  0  0  0  0  0
   10.5841  -14.8455   20.5134 C   0  0  0  0  0  0  0  0  0  0  0  0
    9.4917  -14.2415   19.7437 C   0  0  0  0  0  0  0  0  0  0  0  0
    8.8727  -14.8943   18.6552 C   0  0  0  0  0  0  0  0  0  0  0  0
    7.9255  -14.0725   18.1813 N   0  0  0  0  0  0  0  0  0  0  0  0
    7.9003  -12.9377   18.8974 C   0  0  0  0  0  0  0  0  0  0  0  0
    8.8549  -13.0744   19.8276 N   0  0  0  0  0  0  0  0  0  0  0  0
   11.3385  -16.8720   21.7336 C   0  0  0  0  0  0  0  0  0  0  0  0
   12.1868  -17.3061   20.9369 O   0  0  0  0  0  0  0  0  0  0  0  0
   11.5389  -17.1832   23.0883 O   0  0  0  0  0  0  0  0  0  0  0  0
  2  1  1  6
  2  3  1  0
  3  4  1  0
  4  5  2  0
  5  6  1  0
  7  6  1  0
  8  7  2  0
  9  8  1  0
 10 11  1  0
 10  9  2  0
 11 12  2  0
 12  4  1  0
 12  7  1  0
 13 20  1  0
 13  2  1  0
 14 13  2  0
 16 15  1  0
 17 19  1  0
 17 16  1  0
 17 18  1  6
 19 20  1  1
 21 19  1  0
 22 21  2  0
 23 21  1  0
 24 25  1  1
 24 23  1  0
 25 26  1  0
 26 27  2  0
 26 30  1  0
 27 28  1  0
 28 29  1  0
 30 29  2  0
 31 24  1  0
 32 31  2  0
 33 31  1  0
M  END
$$$$
