PIN.pdb
     RDKit          3D

 24 24  0  0  1  0  0  0  0  0999 V2000
    7.0253  -14.6684   20.9094 N   0  0  0  0  0  0  0  0  0  0  0  0
    6.2631  -13.7189   20.1549 C   0  0  0  0  0  0  0  0  0  0  0  0
    7.2789  -12.8410   19.4229 C   0  0  0  0  0  0  0  0  0  0  0  0
    8.4224  -12.8486   20.4305 C   0  0  0  0  0  0  0  0  0  0  0  0
    8.3926  -14.2635   20.9192 C   0  0  1  0  0  0  0  0  0  0  0  0
    8.8838  -14.2983   22.3443 C   0  0  0  0  0  0  0  0  0  0  0  0
   10.1386  -14.1943   22.4687 O   0  0  0  0  0  0  0  0  0  0  0  0
    5.9285  -11.7887   26.1088 C   0  0  0  0  0  0  0  0  0  0  0  0
    7.0910  -12.3851   25.3378 C   0  0  0  0  0  0  0  0  0  0  0  0
    7.2453  -13.8438   25.7062 C   0  0  2  0  0  0  0  0  0  0  0  0
    7.8628  -13.8413   27.1129 C   0  0  0  0  0  0  0  0  0  0  0  0
    8.2926  -14.4855   24.7856 C   0  0  2  0  0  0  0  0  0  0  0  0
    7.9741  -14.4368   23.4057 N   0  0  0  0  0  0  0  0  0  0  0  0
    8.6308  -15.8067   25.2904 C   0  0  0  0  0  0  0  0  0  0  0  0
    7.7912  -16.7473   25.4421 O   0  0  0  0  0  0  0  0  0  0  0  0
   11.1178  -20.3644   25.7882 N   0  0  0  0  0  0  0  0  0  0  0  0
   12.0663  -19.3143   25.5033 C   0  0  0  0  0  0  0  0  0  0  0  0
   13.2595  -19.6730   25.4680 O   0  0  0  0  0  0  0  0  0  0  0  0
   11.6049  -17.9432   25.2800 C   0  0  0  0  0  0  0  0  0  0  0  0
   10.3151  -17.5805   25.9603 C   0  0  2  0  0  0  0  0  0  0  0  0
    9.9628  -16.1834   25.6717 N   0  0  0  0  0  0  0  0  0  0  0  0
   10.4004  -17.6383   27.4498 C   0  0  0  0  0  0  0  0  0  0  0  0
   10.6846  -16.6147   28.1635 O   0  0  0  0  0  0  0  0  0  0  0  0
   10.1803  -18.7939   28.1726 O   0  0  0  0  0  0  0  0  0  0  0  0
  2  1  1  0
  3  2  1  0
  4  5  1  0
  4  3  1  0
  5  1  1  0
  5  6  1  1
  6  7  2  0
  8  9  1  0
  9 10  1  0
 10 12  1  0
 10 11  1  1
 12 13  1  6
 13  6  1  0
 14 12  1  0
 15 14  2  0
 17 16  1  0
 17 18  2  0
 19 17  1  0
 20 19  1  6
 20 21  1  0
 21 14  1  0
 22 24  1  0
 22 20  1  0
 23 22  2  0
M  END
$$$$
