PIN.pdb
     RDKit          3D

 24 24  0  0  1  0  0  0  0  0999 V2000
    8.0763  -14.7495   19.9527 N   0  0  0  0  0  0  0  0  0  0  0  0
    7.9398  -15.8252   19.0166 C   0  0  0  0  0  0  0  0  0  0  0  0
    6.6954  -16.6057   19.4416 C   0  0  0  0  0  0  0  0  0  0  0  0
    6.7480  -16.4023   20.9512 C   0  0  0  0  0  0  0  0  0  0  0  0
    7.2004  -14.9788   21.0544 C   0  0  1  0  0  0  0  0  0  0  0  0
    7.9901  -14.8085   22.3274 C   0  0  0  0  0  0  0  0  0  0  0  0
    9.2358  -14.9885   22.1992 O   0  0  0  0  0  0  0  0  0  0  0  0
    5.8380  -11.4324   26.1461 C   0  0  0  0  0  0  0  0  0  0  0  0
    6.8578  -12.1382   25.2723 C   0  0  0  0  0  0  0  0  0  0  0  0
    7.1091  -13.5283   25.8128 C   0  0  2  0  0  0  0  0  0  0  0  0
    8.0103  -13.3267   27.0406 C   0  0  0  0  0  0  0  0  0  0  0  0
    7.9476  -14.3170   24.7975 C   0  0  2  0  0  0  0  0  0  0  0  0
    7.3397  -14.4765   23.5275 N   0  0  0  0  0  0  0  0  0  0  0  0
    8.4133  -15.5495   25.4133 C   0  0  0  0  0  0  0  0  0  0  0  0
    7.6517  -16.5066   25.7550 O   0  0  0  0  0  0  0  0  0  0  0  0
   11.6071  -19.5613   26.7363 N   0  0  0  0  0  0  0  0  0  0  0  0
   12.2884  -18.6373   25.8612 C   0  0  0  0  0  0  0  0  0  0  0  0
   13.4216  -18.9981   25.4882 O   0  0  0  0  0  0  0  0  0  0  0  0
   11.6474  -17.3804   25.4715 C   0  0  0  0  0  0  0  0  0  0  0  0
   10.2722  -17.1586   26.0352 C   0  0  2  0  0  0  0  0  0  0  0  0
    9.7959  -15.8097   25.6994 N   0  0  0  0  0  0  0  0  0  0  0  0
   10.2353  -17.2010   27.5271 C   0  0  0  0  0  0  0  0  0  0  0  0
   10.2908  -16.1449   28.2477 O   0  0  0  0  0  0  0  0  0  0  0  0
   10.1383  -18.3765   28.2451 O   0  0  0  0  0  0  0  0  0  0  0  0
  2  1  1  0
  3  2  1  0
  4  5  1  0
  4  3  1  0
  5  1  1  0
  5  6  1  1
  6  7  2  0
  8  9  1  0
  9 10  1  0
 10 12  1  0
 10 11  1  1
 12 13  1  6
 13  6  1  0
 14 12  1  0
 15 14  2  0
 17 16  1  0
 17 18  2  0
 19 17  1  0
 20 19  1  1
 20 21  1  0
 21 14  1  0
 22 24  1  0
 22 20  1  0
 23 22  2  0
M  END
$$$$
