PIN.pdb
     RDKit          3D

 24 24  0  0  1  0  0  0  0  0999 V2000
    7.1456  -14.9028   20.9065 N   0  0  0  0  0  0  0  0  0  0  0  0
    6.3075  -14.0938   20.0728 C   0  0  0  0  0  0  0  0  0  0  0  0
    7.2412  -13.1415   19.3246 C   0  0  0  0  0  0  0  0  0  0  0  0
    8.3366  -12.9573   20.3683 C   0  0  0  0  0  0  0  0  0  0  0  0
    8.4542  -14.3369   20.9378 C   0  0  1  0  0  0  0  0  0  0  0  0
    8.8890  -14.2353   22.3779 C   0  0  0  0  0  0  0  0  0  0  0  0
   10.1318  -14.0619   22.5391 O   0  0  0  0  0  0  0  0  0  0  0  0
    5.8518  -11.6839   26.1043 C   0  0  0  0  0  0  0  0  0  0  0  0
    7.0045  -12.2905   25.3265 C   0  0  0  0  0  0  0  0  0  0  0  0
    7.1480  -13.7506   25.6940 C   0  0  2  0  0  0  0  0  0  0  0  0
    7.7244  -13.7533   27.1181 C   0  0  0  0  0  0  0  0  0  0  0  0
    8.2214  -14.3892   24.8019 C   0  0  2  0  0  0  0  0  0  0  0  0
    7.9445  -14.3327   23.4133 N   0  0  0  0  0  0  0  0  0  0  0  0
    8.5424  -15.7136   25.3095 C   0  0  0  0  0  0  0  0  0  0  0  0
    7.7065  -16.6661   25.3926 O   0  0  0  0  0  0  0  0  0  0  0  0
   11.4727  -20.3270   24.8193 N   0  0  0  0  0  0  0  0  0  0  0  0
   12.0174  -19.1507   25.4544 C   0  0  0  0  0  0  0  0  0  0  0  0
   12.9797  -19.3586   26.2189 O   0  0  0  0  0  0  0  0  0  0  0  0
   11.4421  -17.8322   25.1839 C   0  0  0  0  0  0  0  0  0  0  0  0
   10.2245  -17.4843   25.9929 C   0  0  2  0  0  0  0  0  0  0  0  0
    9.8510  -16.0803   25.7724 N   0  0  0  0  0  0  0  0  0  0  0  0
   10.4515  -17.5777   27.4656 C   0  0  0  0  0  0  0  0  0  0  0  0
   10.7239  -16.5561   28.1865 O   0  0  0  0  0  0  0  0  0  0  0  0
   10.3858  -18.7671   28.1639 O   0  0  0  0  0  0  0  0  0  0  0  0
  2  1  1  0
  3  2  1  0
  4  5  1  0
  4  3  1  0
  5  1  1  0
  5  6  1  1
  6  7  2  0
  8  9  1  0
  9 10  1  0
 10 12  1  0
 10 11  1  1
 12 13  1  6
 13  6  1  0
 14 12  1  0
 15 14  2  0
 17 16  1  0
 17 18  2  0
 19 17  1  0
 20 19  1  6
 20 21  1  0
 21 14  1  0
 22 24  1  0
 22 20  1  0
 23 22  2  0
M  END
$$$$
