PIN.pdb
     RDKit          3D

 24 24  0  0  1  0  0  0  0  0999 V2000
    7.1017  -14.8044   20.9430 N   0  0  0  0  0  0  0  0  0  0  0  0
    6.2803  -13.9524   20.1360 C   0  0  0  0  0  0  0  0  0  0  0  0
    7.2365  -13.0326   19.3758 C   0  0  0  0  0  0  0  0  0  0  0  0
    8.3617  -12.9054   20.3960 C   0  0  0  0  0  0  0  0  0  0  0  0
    8.4334  -14.2945   20.9499 C   0  0  1  0  0  0  0  0  0  0  0  0
    8.9040  -14.2260   22.3807 C   0  0  0  0  0  0  0  0  0  0  0  0
   10.1106  -13.8713   22.5190 O   0  0  0  0  0  0  0  0  0  0  0  0
    5.6208  -12.0413   25.9456 C   0  0  0  0  0  0  0  0  0  0  0  0
    6.8363  -12.5478   25.1922 C   0  0  0  0  0  0  0  0  0  0  0  0
    7.2023  -13.9268   25.6940 C   0  0  2  0  0  0  0  0  0  0  0  0
    7.8224  -13.6998   27.0811 C   0  0  0  0  0  0  0  0  0  0  0  0
    8.3252  -14.4979   24.8170 C   0  0  2  0  0  0  0  0  0  0  0  0
    8.0277  -14.5419   23.4322 N   0  0  0  0  0  0  0  0  0  0  0  0
    8.7863  -15.7547   25.3851 C   0  0  0  0  0  0  0  0  0  0  0  0
    8.0509  -16.7785   25.5398 O   0  0  0  0  0  0  0  0  0  0  0  0
   13.0828  -16.4986   23.8933 N   0  0  0  0  0  0  0  0  0  0  0  0
   12.2243  -17.5061   24.4690 C   0  0  0  0  0  0  0  0  0  0  0  0
   11.7231  -18.3045   23.6535 O   0  0  0  0  0  0  0  0  0  0  0  0
   11.9934  -17.5414   25.9140 C   0  0  0  0  0  0  0  0  0  0  0  0
   10.5803  -17.2682   26.3457 C   0  0  2  0  0  0  0  0  0  0  0  0
   10.1341  -15.9656   25.8326 N   0  0  0  0  0  0  0  0  0  0  0  0
   10.4309  -17.1510   27.8266 C   0  0  0  0  0  0  0  0  0  0  0  0
   10.3777  -16.0216   28.4261 O   0  0  0  0  0  0  0  0  0  0  0  0
   10.3384  -18.2455   28.6633 O   0  0  0  0  0  0  0  0  0  0  0  0
  2  1  1  0
  3  2  1  0
  4  5  1  0
  4  3  1  0
  5  1  1  0
  5  6  1  1
  6  7  2  0
  8  9  1  0
  9 10  1  0
 10 12  1  0
 10 11  1  1
 12 13  1  6
 13  6  1  0
 14 12  1  0
 15 14  2  0
 17 16  1  0
 17 18  2  0
 19 17  1  0
 20 19  1  1
 20 21  1  0
 21 14  1  0
 22 24  1  0
 22 20  1  0
 23 22  2  0
M  END
$$$$
