PIN.pdb
     RDKit          3D

 24 24  0  0  1  0  0  0  0  0999 V2000
    7.1083  -14.8497   20.8924 N   0  0  0  0  0  0  0  0  0  0  0  0
    6.1619  -14.0743   20.1476 C   0  0  0  0  0  0  0  0  0  0  0  0
    6.9737  -13.0241   19.3883 C   0  0  0  0  0  0  0  0  0  0  0  0
    8.1162  -12.7988   20.3717 C   0  0  0  0  0  0  0  0  0  0  0  0
    8.3710  -14.1872   20.8707 C   0  0  1  0  0  0  0  0  0  0  0  0
    8.8870  -14.1106   22.2853 C   0  0  0  0  0  0  0  0  0  0  0  0
   10.1021  -13.7718   22.3822 O   0  0  0  0  0  0  0  0  0  0  0  0
    6.1631  -11.7867   26.2299 C   0  0  0  0  0  0  0  0  0  0  0  0
    7.2687  -12.3856   25.3809 C   0  0  0  0  0  0  0  0  0  0  0  0
    7.4175  -13.8544   25.7094 C   0  0  2  0  0  0  0  0  0  0  0  0
    8.0941  -13.8928   27.0881 C   0  0  0  0  0  0  0  0  0  0  0  0
    8.4154  -14.4885   24.7306 C   0  0  2  0  0  0  0  0  0  0  0  0
    8.0397  -14.4031   23.3670 N   0  0  0  0  0  0  0  0  0  0  0  0
    8.7552  -15.8258   25.1901 C   0  0  0  0  0  0  0  0  0  0  0  0
    7.9007  -16.7317   25.4390 O   0  0  0  0  0  0  0  0  0  0  0  0
   12.9893  -17.1125   23.3217 N   0  0  0  0  0  0  0  0  0  0  0  0
   11.9573  -17.9546   23.8781 C   0  0  0  0  0  0  0  0  0  0  0  0
   11.2711  -18.5745   23.0424 O   0  0  0  0  0  0  0  0  0  0  0  0
   11.7736  -18.0371   25.3280 C   0  0  0  0  0  0  0  0  0  0  0  0
   10.4147  -17.6347   25.8273 C   0  0  2  0  0  0  0  0  0  0  0  0
   10.1059  -16.2598   25.4108 N   0  0  0  0  0  0  0  0  0  0  0  0
   10.3240  -17.5969   27.3171 C   0  0  0  0  0  0  0  0  0  0  0  0
   10.2726  -18.6578   28.0310 O   0  0  0  0  0  0  0  0  0  0  0  0
   10.2889  -16.4210   28.0400 O   0  0  0  0  0  0  0  0  0  0  0  0
  2  1  1  0
  3  2  1  0
  4  5  1  0
  4  3  1  0
  5  1  1  0
  5  6  1  1
  6  7  2  0
  8  9  1  0
  9 10  1  0
 10 12  1  0
 10 11  1  1
 12 13  1  6
 13  6  1  0
 14 12  1  0
 15 14  2  0
 17 16  1  0
 17 18  2  0
 19 17  1  0
 20 19  1  1
 20 21  1  0
 21 14  1  0
 22 24  1  0
 22 20  1  0
 23 22  2  0
M  END
$$$$
