PIN.pdb
     RDKit          3D

 24 24  0  0  1  0  0  0  0  0999 V2000
    8.2280  -14.6086   19.9595 N   0  0  0  0  0  0  0  0  0  0  0  0
    8.0347  -15.6987   19.0506 C   0  0  0  0  0  0  0  0  0  0  0  0
    6.7049  -16.3469   19.4379 C   0  0  0  0  0  0  0  0  0  0  0  0
    6.7074  -16.0974   20.9416 C   0  0  0  0  0  0  0  0  0  0  0  0
    7.2852  -14.7187   21.0238 C   0  0  1  0  0  0  0  0  0  0  0  0
    8.0285  -14.5778   22.3279 C   0  0  0  0  0  0  0  0  0  0  0  0
    9.2706  -14.8053   22.2503 O   0  0  0  0  0  0  0  0  0  0  0  0
    5.9520  -11.2022   26.2461 C   0  0  0  0  0  0  0  0  0  0  0  0
    6.9223  -11.9493   25.3505 C   0  0  0  0  0  0  0  0  0  0  0  0
    7.0419  -13.3819   25.8207 C   0  0  2  0  0  0  0  0  0  0  0  0
    7.8779  -13.3154   27.1079 C   0  0  0  0  0  0  0  0  0  0  0  0
    7.8837  -14.1728   24.8099 C   0  0  2  0  0  0  0  0  0  0  0  0
    7.3430  -14.2204   23.5009 N   0  0  0  0  0  0  0  0  0  0  0  0
    8.2271  -15.4664   25.3786 C   0  0  0  0  0  0  0  0  0  0  0  0
    7.3900  -16.3994   25.5823 O   0  0  0  0  0  0  0  0  0  0  0  0
   11.2115  -19.8880   24.3438 N   0  0  0  0  0  0  0  0  0  0  0  0
   11.8222  -18.7200   24.9324 C   0  0  0  0  0  0  0  0  0  0  0  0
   12.9179  -18.9196   25.4918 O   0  0  0  0  0  0  0  0  0  0  0  0
   11.1579  -17.4183   24.8489 C   0  0  0  0  0  0  0  0  0  0  0  0
   10.0099  -17.2207   25.7982 C   0  0  2  0  0  0  0  0  0  0  0  0
    9.5618  -15.8215   25.7708 N   0  0  0  0  0  0  0  0  0  0  0  0
   10.3795  -17.4608   27.2247 C   0  0  0  0  0  0  0  0  0  0  0  0
   10.7127  -18.6153   27.6648 O   0  0  0  0  0  0  0  0  0  0  0  0
   10.3919  -16.4619   28.1779 O   0  0  0  0  0  0  0  0  0  0  0  0
  2  1  1  0
  3  2  1  0
  4  5  1  0
  4  3  1  0
  5  1  1  0
  5  6  1  1
  6  7  2  0
  8  9  1  0
  9 10  1  0
 10 12  1  0
 10 11  1  1
 12 13  1  6
 13  6  1  0
 14 12  1  0
 15 14  2  0
 17 16  1  0
 17 18  2  0
 19 17  1  0
 20 19  1  6
 20 21  1  0
 21 14  1  0
 22 24  1  0
 22 20  1  0
 23 22  2  0
M  END
$$$$
