PIN.pdb
     RDKit          3D

 24 24  0  0  1  0  0  0  0  0999 V2000
    6.9572  -14.6244   20.8988 N   0  0  0  0  0  0  0  0  0  0  0  0
    6.1490  -13.6694   20.2012 C   0  0  0  0  0  0  0  0  0  0  0  0
    7.1203  -12.7289   19.4867 C   0  0  0  0  0  0  0  0  0  0  0  0
    8.2852  -12.7415   20.4696 C   0  0  0  0  0  0  0  0  0  0  0  0
    8.3108  -14.1758   20.8981 C   0  0  1  0  0  0  0  0  0  0  0  0
    8.8337  -14.2543   22.3101 C   0  0  0  0  0  0  0  0  0  0  0  0
   10.0870  -14.1153   22.4132 O   0  0  0  0  0  0  0  0  0  0  0  0
    5.4894  -12.1822   26.0322 C   0  0  0  0  0  0  0  0  0  0  0  0
    6.7012  -12.6061   25.2238 C   0  0  0  0  0  0  0  0  0  0  0  0
    7.1649  -13.9692   25.6870 C   0  0  2  0  0  0  0  0  0  0  0  0
    7.8214  -13.7285   27.0550 C   0  0  0  0  0  0  0  0  0  0  0  0
    8.2859  -14.4592   24.7601 C   0  0  2  0  0  0  0  0  0  0  0  0
    7.9521  -14.4662   23.3830 N   0  0  0  0  0  0  0  0  0  0  0  0
    8.8156  -15.7145   25.2688 C   0  0  0  0  0  0  0  0  0  0  0  0
    8.1265  -16.7713   25.4138 O   0  0  0  0  0  0  0  0  0  0  0  0
   13.3197  -15.9423   23.9346 N   0  0  0  0  0  0  0  0  0  0  0  0
   12.4150  -17.0173   24.2657 C   0  0  0  0  0  0  0  0  0  0  0  0
   11.9160  -17.6099   23.2894 O   0  0  0  0  0  0  0  0  0  0  0  0
   12.1392  -17.3454   25.6653 C   0  0  0  0  0  0  0  0  0  0  0  0
   10.7064  -17.1912   26.0911 C   0  0  2  0  0  0  0  0  0  0  0  0
   10.1857  -15.8857   25.6622 N   0  0  0  0  0  0  0  0  0  0  0  0
   10.5314  -17.1880   27.5738 C   0  0  0  0  0  0  0  0  0  0  0  0
   10.3407  -16.1136   28.2424 O   0  0  0  0  0  0  0  0  0  0  0  0
   10.5607  -18.3375   28.3381 O   0  0  0  0  0  0  0  0  0  0  0  0
  2  1  1  0
  3  2  1  0
  4  5  1  0
  4  3  1  0
  5  1  1  0
  5  6  1  1
  6  7  2  0
  8  9  1  0
  9 10  1  0
 10 12  1  0
 10 11  1  1
 12 13  1  6
 13  6  1  0
 14 12  1  0
 15 14  2  0
 17 16  1  0
 17 18  2  0
 19 17  1  0
 20 19  1  1
 20 21  1  0
 21 14  1  0
 22 24  1  0
 22 20  1  0
 23 22  2  0
M  END
$$$$
