PIN.pdb
     RDKit          3D

 24 24  0  0  1  0  0  0  0  0999 V2000
    7.2366  -14.8980   20.8736 N   0  0  0  0  0  0  0  0  0  0  0  0
    6.3930  -14.1222   20.0144 C   0  0  0  0  0  0  0  0  0  0  0  0
    7.3192  -13.1816   19.2423 C   0  0  0  0  0  0  0  0  0  0  0  0
    8.4088  -12.9559   20.2839 C   0  0  0  0  0  0  0  0  0  0  0  0
    8.5390  -14.3174   20.8931 C   0  0  1  0  0  0  0  0  0  0  0  0
    8.9674  -14.1699   22.3311 C   0  0  0  0  0  0  0  0  0  0  0  0
   10.1909  -13.8879   22.4871 O   0  0  0  0  0  0  0  0  0  0  0  0
    6.0100  -11.6145   26.0221 C   0  0  0  0  0  0  0  0  0  0  0  0
    7.1386  -12.2582   25.2388 C   0  0  0  0  0  0  0  0  0  0  0  0
    7.2737  -13.7080   25.6477 C   0  0  2  0  0  0  0  0  0  0  0  0
    7.8746  -13.6740   27.0613 C   0  0  0  0  0  0  0  0  0  0  0  0
    8.3251  -14.3844   24.7573 C   0  0  2  0  0  0  0  0  0  0  0  0
    8.0381  -14.3433   23.3702 N   0  0  0  0  0  0  0  0  0  0  0  0
    8.6205  -15.7077   25.2831 C   0  0  0  0  0  0  0  0  0  0  0  0
    7.7420  -16.5965   25.5090 O   0  0  0  0  0  0  0  0  0  0  0  0
   11.2396  -20.4473   25.7087 N   0  0  0  0  0  0  0  0  0  0  0  0
   12.0571  -19.2625   25.8156 C   0  0  0  0  0  0  0  0  0  0  0  0
   13.1844  -19.4397   26.3169 O   0  0  0  0  0  0  0  0  0  0  0  0
   11.5485  -17.9704   25.3525 C   0  0  0  0  0  0  0  0  0  0  0  0
   10.2370  -17.5447   25.9498 C   0  0  2  0  0  0  0  0  0  0  0  0
    9.9498  -16.1460   25.6029 N   0  0  0  0  0  0  0  0  0  0  0  0
   10.2389  -17.5605   27.4427 C   0  0  0  0  0  0  0  0  0  0  0  0
   10.4590  -16.5118   28.1422 O   0  0  0  0  0  0  0  0  0  0  0  0
   10.0043  -18.7015   28.1842 O   0  0  0  0  0  0  0  0  0  0  0  0
  2  1  1  0
  3  2  1  0
  4  5  1  0
  4  3  1  0
  5  1  1  0
  5  6  1  1
  6  7  2  0
  8  9  1  0
  9 10  1  0
 10 12  1  0
 10 11  1  1
 12 13  1  6
 13  6  1  0
 14 12  1  0
 15 14  2  0
 17 16  1  0
 17 18  2  0
 19 17  1  0
 20 19  1  1
 20 21  1  0
 21 14  1  0
 22 24  1  0
 22 20  1  0
 23 22  2  0
M  END
$$$$
