PIN.pdb
     RDKit          3D

 24 24  0  0  1  0  0  0  0  0999 V2000
    8.2784  -14.6412   20.0302 N   0  0  0  0  0  0  0  0  0  0  0  0
    8.1835  -15.6720   19.0401 C   0  0  0  0  0  0  0  0  0  0  0  0
    6.9117  -16.4576   19.3622 C   0  0  0  0  0  0  0  0  0  0  0  0
    6.8849  -16.3231   20.8802 C   0  0  0  0  0  0  0  0  0  0  0  0
    7.3427  -14.9106   21.0722 C   0  0  1  0  0  0  0  0  0  0  0  0
    8.0644  -14.8063   22.3918 C   0  0  0  0  0  0  0  0  0  0  0  0
    9.3096  -15.0204   22.3264 O   0  0  0  0  0  0  0  0  0  0  0  0
    5.5541  -11.7255   26.2698 C   0  0  0  0  0  0  0  0  0  0  0  0
    6.6293  -12.3297   25.3864 C   0  0  0  0  0  0  0  0  0  0  0  0
    6.9813  -13.7106   25.8930 C   0  0  2  0  0  0  0  0  0  0  0  0
    7.8435  -13.4741   27.1424 C   0  0  0  0  0  0  0  0  0  0  0  0
    7.8963  -14.4011   24.8722 C   0  0  2  0  0  0  0  0  0  0  0  0
    7.3575  -14.4938   23.5649 N   0  0  0  0  0  0  0  0  0  0  0  0
    8.3751  -15.6566   25.4283 C   0  0  0  0  0  0  0  0  0  0  0  0
    7.6355  -16.6647   25.6509 O   0  0  0  0  0  0  0  0  0  0  0  0
   10.4803  -18.0582   23.6063 N   0  0  0  0  0  0  0  0  0  0  0  0
   11.6767  -17.8043   24.3730 C   0  0  0  0  0  0  0  0  0  0  0  0
   12.7430  -17.8797   23.7321 O   0  0  0  0  0  0  0  0  0  0  0  0
   11.5861  -17.4855   25.7987 C   0  0  0  0  0  0  0  0  0  0  0  0
   10.2034  -17.1815   26.3025 C   0  0  2  0  0  0  0  0  0  0  0  0
    9.7471  -15.8840   25.7850 N   0  0  0  0  0  0  0  0  0  0  0  0
   10.1393  -17.0289   27.7863 C   0  0  0  0  0  0  0  0  0  0  0  0
   10.1192  -15.8855   28.3607 O   0  0  0  0  0  0  0  0  0  0  0  0
   10.0964  -18.1031   28.6527 O   0  0  0  0  0  0  0  0  0  0  0  0
  2  1  1  0
  3  2  1  0
  4  5  1  0
  4  3  1  0
  5  1  1  0
  5  6  1  1
  6  7  2  0
  8  9  1  0
  9 10  1  0
 10 12  1  0
 10 11  1  1
 12 13  1  6
 13  6  1  0
 14 12  1  0
 15 14  2  0
 17 16  1  0
 17 18  2  0
 19 17  1  0
 20 19  1  1
 20 21  1  0
 21 14  1  0
 22 24  1  0
 22 20  1  0
 23 22  2  0
M  END
$$$$
