PIN.pdb
     RDKit          3D

 24 24  0  0  1  0  0  0  0  0999 V2000
    8.0712  -14.7683   20.1875 N   0  0  0  0  0  0  0  0  0  0  0  0
    7.9558  -15.8330   19.2362 C   0  0  0  0  0  0  0  0  0  0  0  0
    6.7678  -16.6830   19.6886 C   0  0  0  0  0  0  0  0  0  0  0  0
    6.8633  -16.5034   21.1992 C   0  0  0  0  0  0  0  0  0  0  0  0
    7.2472  -15.0608   21.3140 C   0  0  1  0  0  0  0  0  0  0  0  0
    8.0717  -14.8729   22.5622 C   0  0  0  0  0  0  0  0  0  0  0  0
    9.3221  -14.9297   22.3776 O   0  0  0  0  0  0  0  0  0  0  0  0
    5.9040  -11.7276   26.4873 C   0  0  0  0  0  0  0  0  0  0  0  0
    6.9469  -12.3723   25.5938 C   0  0  0  0  0  0  0  0  0  0  0  0
    7.2676  -13.7570   26.1107 C   0  0  2  0  0  0  0  0  0  0  0  0
    8.2116  -13.5341   27.3021 C   0  0  0  0  0  0  0  0  0  0  0  0
    8.0895  -14.5086   25.0545 C   0  0  2  0  0  0  0  0  0  0  0  0
    7.4456  -14.6558   23.8008 N   0  0  0  0  0  0  0  0  0  0  0  0
    8.5983  -15.7431   25.6309 C   0  0  0  0  0  0  0  0  0  0  0  0
    7.8639  -16.7054   26.0147 O   0  0  0  0  0  0  0  0  0  0  0  0
   12.9481  -16.7961   23.6854 N   0  0  0  0  0  0  0  0  0  0  0  0
   12.0155  -17.6493   24.3825 C   0  0  0  0  0  0  0  0  0  0  0  0
   11.3731  -18.4351   23.6591 O   0  0  0  0  0  0  0  0  0  0  0  0
   11.8745  -17.5563   25.8365 C   0  0  0  0  0  0  0  0  0  0  0  0
   10.4805  -17.2919   26.3312 C   0  0  2  0  0  0  0  0  0  0  0  0
    9.9975  -15.9995   25.8256 N   0  0  0  0  0  0  0  0  0  0  0  0
   10.3995  -17.1595   27.8161 C   0  0  0  0  0  0  0  0  0  0  0  0
   10.3201  -16.0250   28.4030 O   0  0  0  0  0  0  0  0  0  0  0  0
   10.4034  -18.2442   28.6704 O   0  0  0  0  0  0  0  0  0  0  0  0
  2  1  1  0
  3  2  1  0
  4  5  1  0
  4  3  1  0
  5  1  1  0
  5  6  1  1
  6  7  2  0
  8  9  1  0
  9 10  1  0
 10 12  1  0
 10 11  1  1
 12 13  1  6
 13  6  1  0
 14 12  1  0
 15 14  2  0
 17 16  1  0
 17 18  2  0
 19 17  1  0
 20 19  1  1
 20 21  1  0
 21 14  1  0
 22 24  1  0
 22 20  1  0
 23 22  2  0
M  END
$$$$
