PIN.pdb
     RDKit          3D

 24 24  0  0  1  0  0  0  0  0999 V2000
    7.1679  -14.6963   20.7530 N   0  0  0  0  0  0  0  0  0  0  0  0
    6.3669  -13.7961   19.9784 C   0  0  0  0  0  0  0  0  0  0  0  0
    7.3322  -12.7707   19.3823 C   0  0  0  0  0  0  0  0  0  0  0  0
    8.3804  -12.7083   20.4871 C   0  0  0  0  0  0  0  0  0  0  0  0
    8.4735  -14.1431   20.9045 C   0  0  1  0  0  0  0  0  0  0  0  0
    8.8443  -14.2038   22.3646 C   0  0  0  0  0  0  0  0  0  0  0  0
   10.0892  -14.1932   22.5900 O   0  0  0  0  0  0  0  0  0  0  0  0
    6.1181  -11.3316   25.9604 C   0  0  0  0  0  0  0  0  0  0  0  0
    7.1675  -12.1288   25.2089 C   0  0  0  0  0  0  0  0  0  0  0  0
    7.0814  -13.5836   25.6137 C   0  0  2  0  0  0  0  0  0  0  0  0
    7.6465  -13.6391   27.0412 C   0  0  0  0  0  0  0  0  0  0  0  0
    8.0452  -14.4037   24.7450 C   0  0  2  0  0  0  0  0  0  0  0  0
    7.8441  -14.2657   23.3491 N   0  0  0  0  0  0  0  0  0  0  0  0
    8.0775  -15.7754   25.2270 C   0  0  0  0  0  0  0  0  0  0  0  0
    7.1459  -16.6179   25.0398 O   0  0  0  0  0  0  0  0  0  0  0  0
   11.5961  -19.7435   23.7152 N   0  0  0  0  0  0  0  0  0  0  0  0
   10.3175  -19.5275   24.3493 C   0  0  0  0  0  0  0  0  0  0  0  0
    9.7341  -20.5604   24.7316 O   0  0  0  0  0  0  0  0  0  0  0  0
    9.7911  -18.1706   24.5062 C   0  0  0  0  0  0  0  0  0  0  0  0
    9.5088  -17.7506   25.9211 C   0  0  2  0  0  0  0  0  0  0  0  0
    9.1783  -16.3197   25.9709 N   0  0  0  0  0  0  0  0  0  0  0  0
   10.6921  -17.8864   26.8212 C   0  0  0  0  0  0  0  0  0  0  0  0
   10.8871  -18.9192   27.5513 O   0  0  0  0  0  0  0  0  0  0  0  0
   11.6658  -16.9143   26.9371 O   0  0  0  0  0  0  0  0  0  0  0  0
  2  1  1  0
  3  2  1  0
  4  5  1  0
  4  3  1  0
  5  1  1  0
  5  6  1  1
  6  7  2  0
  8  9  1  0
  9 10  1  0
 10 12  1  0
 10 11  1  1
 12 13  1  6
 13  6  1  0
 14 12  1  0
 15 14  2  0
 17 16  1  0
 17 18  2  0
 19 17  1  0
 20 19  1  6
 20 21  1  0
 21 14  1  0
 22 24  1  0
 22 20  1  0
 23 22  2  0
M  END
$$$$
