PIN.pdb
     RDKit          3D

 24 24  0  0  1  0  0  0  0  0999 V2000
    8.1073  -14.6570   19.8094 N   0  0  0  0  0  0  0  0  0  0  0  0
    7.8462  -15.7030   18.8662 C   0  0  0  0  0  0  0  0  0  0  0  0
    6.4887  -16.2938   19.2487 C   0  0  0  0  0  0  0  0  0  0  0  0
    6.5217  -16.0977   20.7599 C   0  0  0  0  0  0  0  0  0  0  0  0
    7.1723  -14.7548   20.8818 C   0  0  1  0  0  0  0  0  0  0  0  0
    7.9371  -14.6989   22.1800 C   0  0  0  0  0  0  0  0  0  0  0  0
    9.1547  -15.0293   22.0855 O   0  0  0  0  0  0  0  0  0  0  0  0
    5.7225  -11.4081   26.0998 C   0  0  0  0  0  0  0  0  0  0  0  0
    6.7181  -12.0789   25.1722 C   0  0  0  0  0  0  0  0  0  0  0  0
    7.0358  -13.4640   25.6898 C   0  0  2  0  0  0  0  0  0  0  0  0
    7.9504  -13.2409   26.9039 C   0  0  0  0  0  0  0  0  0  0  0  0
    7.8869  -14.2051   24.6495 C   0  0  2  0  0  0  0  0  0  0  0  0
    7.2953  -14.3043   23.3657 N   0  0  0  0  0  0  0  0  0  0  0  0
    8.3442  -15.4655   25.2127 C   0  0  0  0  0  0  0  0  0  0  0  0
    7.5777  -16.4359   25.5017 O   0  0  0  0  0  0  0  0  0  0  0  0
   12.3279  -19.6186   24.4617 N   0  0  0  0  0  0  0  0  0  0  0  0
   12.2308  -18.5543   25.4320 C   0  0  0  0  0  0  0  0  0  0  0  0
   12.7586  -18.7932   26.5355 O   0  0  0  0  0  0  0  0  0  0  0  0
   11.5497  -17.3043   25.0909 C   0  0  0  0  0  0  0  0  0  0  0  0
   10.2033  -17.1112   25.7298 C   0  0  2  0  0  0  0  0  0  0  0  0
    9.7234  -15.7412   25.5012 N   0  0  0  0  0  0  0  0  0  0  0  0
   10.2337  -17.2472   27.2162 C   0  0  0  0  0  0  0  0  0  0  0  0
   10.4034  -16.2467   27.9960 O   0  0  0  0  0  0  0  0  0  0  0  0
   10.0815  -18.4564   27.8652 O   0  0  0  0  0  0  0  0  0  0  0  0
  2  1  1  0
  3  2  1  0
  4  5  1  0
  4  3  1  0
  5  1  1  0
  5  6  1  1
  6  7  2  0
  8  9  1  0
  9 10  1  0
 10 12  1  0
 10 11  1  1
 12 13  1  6
 13  6  1  0
 14 12  1  0
 15 14  2  0
 17 16  1  0
 17 18  2  0
 19 17  1  0
 20 19  1  1
 20 21  1  0
 21 14  1  0
 22 24  1  0
 22 20  1  0
 23 22  2  0
M  END
$$$$
