PIN.pdb
     RDKit          3D

 24 24  0  0  1  0  0  0  0  0999 V2000
    7.0475  -15.6812   21.2404 N   0  0  0  0  0  0  0  0  0  0  0  0
    6.1584  -15.0620   20.3034 C   0  0  0  0  0  0  0  0  0  0  0  0
    7.0437  -14.3262   19.2968 C   0  0  0  0  0  0  0  0  0  0  0  0
    8.2123  -13.9368   20.1946 C   0  0  0  0  0  0  0  0  0  0  0  0
    8.3594  -15.1542   21.0536 C   0  0  1  0  0  0  0  0  0  0  0  0
    8.8966  -14.7398   22.4000 C   0  0  0  0  0  0  0  0  0  0  0  0
   10.1102  -14.3821   22.3924 O   0  0  0  0  0  0  0  0  0  0  0  0
    7.2030  -11.8820   27.4535 C   0  0  0  0  0  0  0  0  0  0  0  0
    8.0692  -12.9705   26.8481 C   0  0  0  0  0  0  0  0  0  0  0  0
    7.4731  -13.4155   25.5313 C   0  0  2  0  0  0  0  0  0  0  0  0
    6.2271  -14.2315   25.9080 C   0  0  0  0  0  0  0  0  0  0  0  0
    8.4348  -14.4008   24.8529 C   0  0  2  0  0  0  0  0  0  0  0  0
    8.0687  -14.7695   23.5345 N   0  0  0  0  0  0  0  0  0  0  0  0
    8.6942  -15.5146   25.7512 C   0  0  0  0  0  0  0  0  0  0  0  0
    7.8025  -16.3198   26.1628 O   0  0  0  0  0  0  0  0  0  0  0  0
   10.5760  -18.2844   24.4599 N   0  0  0  0  0  0  0  0  0  0  0  0
   11.7418  -18.1606   25.3019 C   0  0  0  0  0  0  0  0  0  0  0  0
   12.8071  -18.5623   24.7948 O   0  0  0  0  0  0  0  0  0  0  0  0
   11.6241  -17.5963   26.6474 C   0  0  0  0  0  0  0  0  0  0  0  0
   10.2655  -17.0621   27.0035 C   0  0  2  0  0  0  0  0  0  0  0  0
    9.9988  -15.8183   26.2679 N   0  0  0  0  0  0  0  0  0  0  0  0
   10.1454  -16.6730   28.4399 C   0  0  0  0  0  0  0  0  0  0  0  0
   10.0997  -17.5345   29.3852 O   0  0  0  0  0  0  0  0  0  0  0  0
   10.0748  -15.3600   28.8612 O   0  0  0  0  0  0  0  0  0  0  0  0
  2  1  1  0
  3  2  1  0
  4  5  1  0
  4  3  1  0
  5  1  1  0
  5  6  1  1
  6  7  2  0
  8  9  1  0
  9 10  1  0
 10 12  1  0
 10 11  1  1
 12 13  1  6
 13  6  1  0
 14 12  1  0
 15 14  2  0
 17 16  1  0
 17 18  2  0
 19 17  1  0
 20 19  1  1
 20 21  1  0
 21 14  1  0
 22 24  1  0
 22 20  1  0
 23 22  2  0
M  END
$$$$
