PIN.pdb
     RDKit          3D

 24 24  0  0  1  0  0  0  0  0999 V2000
    7.2148  -14.8779   20.8644 N   0  0  0  0  0  0  0  0  0  0  0  0
    6.3568  -14.0807   20.0396 C   0  0  0  0  0  0  0  0  0  0  0  0
    7.2681  -13.1082   19.2898 C   0  0  0  0  0  0  0  0  0  0  0  0
    8.3666  -12.9086   20.3275 C   0  0  0  0  0  0  0  0  0  0  0  0
    8.5130  -14.2883   20.8901 C   0  0  1  0  0  0  0  0  0  0  0  0
    8.9549  -14.1849   22.3278 C   0  0  0  0  0  0  0  0  0  0  0  0
   10.1891  -13.9524   22.4813 O   0  0  0  0  0  0  0  0  0  0  0  0
    5.8660  -11.6814   25.9196 C   0  0  0  0  0  0  0  0  0  0  0  0
    7.0266  -12.2947   25.1590 C   0  0  0  0  0  0  0  0  0  0  0  0
    7.2583  -13.7078   25.6459 C   0  0  2  0  0  0  0  0  0  0  0  0
    7.9058  -13.5560   27.0308 C   0  0  0  0  0  0  0  0  0  0  0  0
    8.3145  -14.3779   24.7563 C   0  0  2  0  0  0  0  0  0  0  0  0
    8.0257  -14.3431   23.3694 N   0  0  0  0  0  0  0  0  0  0  0  0
    8.6214  -15.6972   25.2856 C   0  0  0  0  0  0  0  0  0  0  0  0
    7.7594  -16.6138   25.4570 O   0  0  0  0  0  0  0  0  0  0  0  0
   11.0620  -18.5252   23.3245 N   0  0  0  0  0  0  0  0  0  0  0  0
   11.8731  -17.7860   24.2622 C   0  0  0  0  0  0  0  0  0  0  0  0
   12.7753  -17.0936   23.7521 O   0  0  0  0  0  0  0  0  0  0  0  0
   11.6109  -17.8795   25.6993 C   0  0  0  0  0  0  0  0  0  0  0  0
   10.2317  -17.4658   26.1289 C   0  0  2  0  0  0  0  0  0  0  0  0
    9.9446  -16.0991   25.6714 N   0  0  0  0  0  0  0  0  0  0  0  0
   10.0742  -17.3979   27.6120 C   0  0  0  0  0  0  0  0  0  0  0  0
   10.1362  -16.2970   28.2615 O   0  0  0  0  0  0  0  0  0  0  0  0
    9.8500  -18.5112   28.3974 O   0  0  0  0  0  0  0  0  0  0  0  0
  2  1  1  0
  3  2  1  0
  4  5  1  0
  4  3  1  0
  5  1  1  0
  5  6  1  1
  6  7  2  0
  8  9  1  0
  9 10  1  0
 10 12  1  0
 10 11  1  1
 12 13  1  6
 13  6  1  0
 14 12  1  0
 15 14  2  0
 17 16  1  0
 17 18  2  0
 19 17  1  0
 20 19  1  1
 20 21  1  0
 21 14  1  0
 22 24  1  0
 22 20  1  0
 23 22  2  0
M  END
$$$$
