PIN.pdb
     RDKit          3D

 24 24  0  0  1  0  0  0  0  0999 V2000
    6.9695  -14.8301   21.0669 N   0  0  0  0  0  0  0  0  0  0  0  0
    6.1761  -13.9052   20.3140 C   0  0  0  0  0  0  0  0  0  0  0  0
    7.1582  -13.0750   19.4866 C   0  0  0  0  0  0  0  0  0  0  0  0
    8.3571  -13.0528   20.4275 C   0  0  0  0  0  0  0  0  0  0  0  0
    8.3396  -14.4437   20.9812 C   0  0  1  0  0  0  0  0  0  0  0  0
    8.9106  -14.4211   22.3764 C   0  0  0  0  0  0  0  0  0  0  0  0
   10.1670  -14.2805   22.4261 O   0  0  0  0  0  0  0  0  0  0  0  0
    6.1295  -11.7578   26.0227 C   0  0  0  0  0  0  0  0  0  0  0  0
    7.3031  -12.3910   25.2992 C   0  0  0  0  0  0  0  0  0  0  0  0
    7.4955  -13.8075   25.7933 C   0  0  2  0  0  0  0  0  0  0  0  0
    8.2328  -13.6703   27.1341 C   0  0  0  0  0  0  0  0  0  0  0  0
    8.4618  -14.5400   24.8521 C   0  0  2  0  0  0  0  0  0  0  0  0
    8.0660  -14.5501   23.4915 N   0  0  0  0  0  0  0  0  0  0  0  0
    8.7767  -15.8461   25.4086 C   0  0  0  0  0  0  0  0  0  0  0  0
    7.9213  -16.7664   25.5933 O   0  0  0  0  0  0  0  0  0  0  0  0
   11.2248  -18.6689   23.5602 N   0  0  0  0  0  0  0  0  0  0  0  0
   12.1116  -17.9884   24.4734 C   0  0  0  0  0  0  0  0  0  0  0  0
   13.1059  -17.4526   23.9464 O   0  0  0  0  0  0  0  0  0  0  0  0
   11.8160  -17.9606   25.9068 C   0  0  0  0  0  0  0  0  0  0  0  0
   10.4034  -17.5935   26.2645 C   0  0  2  0  0  0  0  0  0  0  0  0
   10.1011  -16.2295   25.8090 N   0  0  0  0  0  0  0  0  0  0  0  0
   10.1626  -17.5514   27.7373 C   0  0  0  0  0  0  0  0  0  0  0  0
   10.1383  -16.4570   28.4001 O   0  0  0  0  0  0  0  0  0  0  0  0
    9.9477  -18.6835   28.4980 O   0  0  0  0  0  0  0  0  0  0  0  0
  2  1  1  0
  3  2  1  0
  4  5  1  0
  4  3  1  0
  5  1  1  0
  5  6  1  1
  6  7  2  0
  8  9  1  0
  9 10  1  0
 10 12  1  0
 10 11  1  1
 12 13  1  6
 13  6  1  0
 14 12  1  0
 15 14  2  0
 17 16  1  0
 17 18  2  0
 19 17  1  0
 20 19  1  1
 20 21  1  0
 21 14  1  0
 22 24  1  0
 22 20  1  0
 23 22  2  0
M  END
$$$$
