PIN.pdb
     RDKit          3D

 24 24  0  0  1  0  0  0  0  0999 V2000
    7.3133  -14.9414   21.0748 N   0  0  0  0  0  0  0  0  0  0  0  0
    6.4573  -14.2139   20.1860 C   0  0  0  0  0  0  0  0  0  0  0  0
    7.3542  -13.2185   19.4489 C   0  0  0  0  0  0  0  0  0  0  0  0
    8.3902  -12.9324   20.5297 C   0  0  0  0  0  0  0  0  0  0  0  0
    8.5778  -14.2856   21.1421 C   0  0  1  0  0  0  0  0  0  0  0  0
    8.9444  -14.1174   22.5949 C   0  0  0  0  0  0  0  0  0  0  0  0
   10.1227  -13.7016   22.7932 O   0  0  0  0  0  0  0  0  0  0  0  0
    5.7002  -11.5431   25.8125 C   0  0  0  0  0  0  0  0  0  0  0  0
    6.9199  -12.1967   25.1906 C   0  0  0  0  0  0  0  0  0  0  0  0
    7.0904  -13.5886   25.7572 C   0  0  2  0  0  0  0  0  0  0  0  0
    7.6083  -13.3807   27.1885 C   0  0  0  0  0  0  0  0  0  0  0  0
    8.2172  -14.3040   24.9993 C   0  0  2  0  0  0  0  0  0  0  0  0
    8.0108  -14.4143   23.6017 N   0  0  0  0  0  0  0  0  0  0  0  0
    8.5312  -15.5540   25.6731 C   0  0  0  0  0  0  0  0  0  0  0  0
    8.7281  -15.6590   26.9232 O   0  0  0  0  0  0  0  0  0  0  0  0
    5.5262  -18.5273   24.9178 N   0  0  0  0  0  0  0  0  0  0  0  0
    6.8393  -18.6618   24.3335 C   0  0  0  0  0  0  0  0  0  0  0  0
    6.9194  -18.3444   23.1309 O   0  0  0  0  0  0  0  0  0  0  0  0
    7.9614  -19.1416   25.1418 C   0  0  0  0  0  0  0  0  0  0  0  0
    8.8481  -18.0699   25.7104 C   0  0  2  0  0  0  0  0  0  0  0  0
    8.6511  -16.8078   24.9841 N   0  0  0  0  0  0  0  0  0  0  0  0
   10.3028  -18.3643   25.5486 C   0  0  0  0  0  0  0  0  0  0  0  0
   11.0625  -17.6800   24.7790 O   0  0  0  0  0  0  0  0  0  0  0  0
   10.9417  -19.3924   26.2131 O   0  0  0  0  0  0  0  0  0  0  0  0
  2  1  1  0
  3  2  1  0
  4  5  1  0
  4  3  1  0
  5  1  1  0
  5  6  1  1
  6  7  2  0
  8  9  1  0
  9 10  1  0
 10 12  1  0
 10 11  1  1
 12 13  1  6
 13  6  1  0
 14 12  1  0
 15 14  2  0
 17 16  1  0
 17 18  2  0
 19 17  1  0
 20 19  1  6
 20 21  1  0
 21 14  1  0
 22 24  1  0
 22 20  1  0
 23 22  2  0
M  END
$$$$
