PIN.pdb
     RDKit          3D

 24 24  0  0  1  0  0  0  0  0999 V2000
    8.4138  -16.5790   15.5416 N   0  0  0  0  0  0  0  0  0  0  0  0
    7.5029  -16.2904   14.4744 C   0  0  0  0  0  0  0  0  0  0  0  0
    8.3501  -15.7383   13.3273 C   0  0  0  0  0  0  0  0  0  0  0  0
    9.4503  -15.0357   14.1142 C   0  0  0  0  0  0  0  0  0  0  0  0
    9.6786  -15.9911   15.2442 C   0  0  1  0  0  0  0  0  0  0  0  0
   10.1339  -15.2158   16.4545 C   0  0  0  0  0  0  0  0  0  0  0  0
   11.2714  -14.6754   16.3332 O   0  0  0  0  0  0  0  0  0  0  0  0
    6.6318  -12.2848   19.4209 C   0  0  0  0  0  0  0  0  0  0  0  0
    7.8585  -12.8449   18.7257 C   0  0  0  0  0  0  0  0  0  0  0  0
    8.4852  -13.9143   19.5924 C   0  0  2  0  0  0  0  0  0  0  0  0
    9.1011  -13.1605   20.7809 C   0  0  0  0  0  0  0  0  0  0  0  0
    9.6621  -14.5463   18.8365 C   0  0  2  0  0  0  0  0  0  0  0  0
    9.3175  -15.1360   17.5949 N   0  0  0  0  0  0  0  0  0  0  0  0
   10.4050  -15.4103   19.7401 C   0  0  0  0  0  0  0  0  0  0  0  0
   10.0494  -16.5890   20.0514 O   0  0  0  0  0  0  0  0  0  0  0  0
   15.1173  -14.0385   19.6813 N   0  0  0  0  0  0  0  0  0  0  0  0
   14.5399  -15.3139   20.0330 C   0  0  0  0  0  0  0  0  0  0  0  0
   14.6936  -16.2166   19.1875 O   0  0  0  0  0  0  0  0  0  0  0  0
   13.8348  -15.4795   21.3050 C   0  0  0  0  0  0  0  0  0  0  0  0
   12.4117  -15.9493   21.1944 C   0  0  2  0  0  0  0  0  0  0  0  0
   11.6284  -15.0121   20.3775 N   0  0  0  0  0  0  0  0  0  0  0  0
   11.6992  -15.9784   22.5060 C   0  0  0  0  0  0  0  0  0  0  0  0
   10.8899  -15.0566   22.8707 O   0  0  0  0  0  0  0  0  0  0  0  0
   11.8550  -16.9968   23.4254 O   0  0  0  0  0  0  0  0  0  0  0  0
  2  1  1  0
  3  2  1  0
  4  5  1  0
  4  3  1  0
  5  1  1  0
  5  6  1  1
  6  7  2  0
  8  9  1  0
  9 10  1  0
 10 12  1  0
 10 11  1  1
 12 13  1  6
 13  6  1  0
 14 12  1  0
 15 14  2  0
 17 16  1  0
 17 18  2  0
 19 17  1  0
 20 19  1  1
 20 21  1  0
 21 14  1  0
 22 24  1  0
 22 20  1  0
 23 22  2  0
M  END
$$$$
