RSV.pdb
     RDKit          3D

 25 24  0  0  1  0  0  0  0  0999 V2000
    9.1312  -19.3545   17.9119 N   0  0  0  0  0  0  0  0  0  0  0  0
   10.4565  -19.8340   17.6423 C   0  0  0  0  0  0  0  0  0  0  0  0
   10.7794  -20.2677   16.4754 N   0  0  0  0  0  0  0  0  0  0  0  0
   11.4424  -19.8389   18.6626 N   0  0  0  0  0  0  0  0  0  0  0  0
   11.1363  -19.3193   19.9718 C   0  0  0  0  0  0  0  0  0  0  0  0
   10.8357  -17.8280   19.7666 C   0  0  0  0  0  0  0  0  0  0  0  0
   10.4234  -17.2159   21.0836 C   0  0  0  0  0  0  0  0  0  0  0  0
    9.0306  -16.6798   21.0639 C   0  0  2  0  0  0  0  0  0  0  0  0
    8.8572  -15.6153   20.0979 N   0  0  0  0  0  0  0  0  0  0  0  0
    8.7319  -16.1832   22.4535 C   0  0  0  0  0  0  0  0  0  0  0  0
    9.1078  -15.0264   22.7855 O   0  0  0  0  0  0  0  0  0  0  0  0
   11.7463  -20.5303   16.2701 O   0  0  0  0  0  0  0  0  0  0  0  0
    6.6582  -18.4310   25.4823 C   0  0  0  0  0  0  0  0  0  0  0  0
    6.3769  -17.0962   25.1989 C   0  0  1  0  0  0  0  0  0  0  0  0
    7.6083  -16.3982   24.6605 N   0  0  0  0  0  0  0  0  0  0  0  0
    8.0463  -16.9562   23.4103 C   0  0  0  0  0  0  0  0  0  0  0  0
    8.7194  -16.4256   25.6226 O   0  0  0  0  0  0  0  0  0  0  0  0
    9.7728  -17.0361   25.3133 C   0  0  0  0  0  0  0  0  0  0  0  0
    9.4246  -13.4004   28.0434 C   0  0  1  0  0  0  0  0  0  0  0  0
    9.6514  -14.7228   28.7673 C   0  0  0  0  0  0  0  0  0  0  0  0
   10.8272  -14.6336   29.6879 C   0  0  2  0  0  0  0  0  0  0  0  0
    9.8431  -15.8068   27.7240 N   0  0  0  0  0  0  0  0  0  0  0  0
    8.6703  -15.7960   26.8939 C   0  0  0  0  0  0  0  0  0  0  0  0
   10.1121  -17.1172   28.3311 O   0  0  0  0  0  0  0  0  0  0  0  0
    9.1912  -17.9514   28.4713 O   0  0  0  0  0  0  0  0  0  0  0  0
  1  2  1  0
  2  3  2  0
  4  2  1  0
  4  5  1  0
  6  5  1  0
  6  7  1  0
  7  8  1  0
  8 10  1  0
  8  9  1  6
 10 11  2  0
 13 12  1  0
 14 13  1  6
 14 16  1  0
 15 10  1  0
 15 14  1  0
 16 22  1  0
 16 17  2  0
 19 18  1  1
 19 21  1  0
 20 19  1  0
 21 23  1  0
 21 22  1  6
 23 24  2  0
 23 25  1  0
M  END
$$$$
