RSV.pdb
     RDKit          3D

 25 24  0  0  1  0  0  0  0  0999 V2000
    8.2547  -13.8731   16.5154 N   0  0  0  0  0  0  0  0  0  0  0  0
    8.4003  -13.3115   17.8278 C   0  0  0  0  0  0  0  0  0  0  0  0
    8.5853  -12.0493   17.9916 N   0  0  0  0  0  0  0  0  0  0  0  0
    8.3424  -14.1414   18.9770 N   0  0  0  0  0  0  0  0  0  0  0  0
    8.4930  -15.5694   18.8509 C   0  0  0  0  0  0  0  0  0  0  0  0
    7.0694  -16.1260   18.7097 C   0  0  0  0  0  0  0  0  0  0  0  0
    6.5212  -16.4481   20.0790 C   0  0  0  0  0  0  0  0  0  0  0  0
    7.5586  -16.9844   21.0083 C   0  0  2  0  0  0  0  0  0  0  0  0
    7.7291  -18.4170   20.8857 N   0  0  0  0  0  0  0  0  0  0  0  0
    7.1255  -16.6236   22.4045 C   0  0  0  0  0  0  0  0  0  0  0  0
    6.3670  -15.6309   22.5742 O   0  0  0  0  0  0  0  0  0  0  0  0
    8.7338  -11.6651   18.9276 O   0  0  0  0  0  0  0  0  0  0  0  0
    8.3339  -18.6536   26.0466 C   0  0  0  0  0  0  0  0  0  0  0  0
    7.0445  -18.1924   25.7903 C   0  0  1  0  0  0  0  0  0  0  0  0
    7.0844  -16.9967   24.8619 N   0  0  0  0  0  0  0  0  0  0  0  0
    7.5310  -17.3486   23.5416 C   0  0  0  0  0  0  0  0  0  0  0  0
    7.9314  -15.9184   25.3918 O   0  0  0  0  0  0  0  0  0  0  0  0
    9.1142  -15.8203   24.9803 C   0  0  0  0  0  0  0  0  0  0  0  0
    6.4431  -12.8245   27.7607 C   0  0  1  0  0  0  0  0  0  0  0  0
    7.6714  -12.6659   26.8717 C   0  0  0  0  0  0  0  0  0  0  0  0
    7.2823  -12.2276   25.4953 C   0  0  1  0  0  0  0  0  0  0  0  0
    8.4109  -13.9899   26.8453 N   0  0  0  0  0  0  0  0  0  0  0  0
    7.4857  -14.9722   26.3514 C   0  0  0  0  0  0  0  0  0  0  0  0
    8.9769  -14.3335   28.1565 O   0  0  0  0  0  0  0  0  0  0  0  0
    8.5355  -15.3101   28.8008 O   0  0  0  0  0  0  0  0  0  0  0  0
  1  2  1  0
  2  3  2  0
  4  2  1  0
  4  5  1  0
  6  5  1  0
  6  7  1  0
  7  8  1  0
  8 10  1  0
  8  9  1  1
 10 11  2  0
 13 12  1  0
 14 13  1  6
 14 16  1  0
 15 10  1  0
 15 14  1  0
 16 22  1  0
 16 17  2  0
 19 18  1  1
 19 21  1  0
 20 19  1  0
 21 23  1  0
 21 22  1  6
 23 24  2  0
 23 25  1  0
M  END
$$$$
