RSV.pdb
     RDKit          3D

 25 24  0  0  1  0  0  0  0  0999 V2000
    8.0016  -12.2159   19.1636 N   0  0  0  0  0  0  0  0  0  0  0  0
    8.4580  -13.4129   18.5172 C   0  0  0  0  0  0  0  0  0  0  0  0
    8.5005  -13.4983   17.2346 N   0  0  0  0  0  0  0  0  0  0  0  0
    8.8739  -14.5319   19.2838 N   0  0  0  0  0  0  0  0  0  0  0  0
    7.9480  -15.5972   19.5766 C   0  0  0  0  0  0  0  0  0  0  0  0
    6.7812  -14.9387   20.3257 C   0  0  0  0  0  0  0  0  0  0  0  0
    5.8149  -16.0054   20.7816 C   0  0  0  0  0  0  0  0  0  0  0  0
    6.4963  -17.2666   21.1971 C   0  0  2  0  0  0  0  0  0  0  0  0
    5.7953  -18.4518   20.7498 N   0  0  0  0  0  0  0  0  0  0  0  0
    6.5842  -17.2430   22.7001 C   0  0  0  0  0  0  0  0  0  0  0  0
    5.5242  -17.1395   23.3749 O   0  0  0  0  0  0  0  0  0  0  0  0
    8.8746  -14.3365   16.7838 O   0  0  0  0  0  0  0  0  0  0  0  0
    9.9663  -18.4456   24.9075 C   0  0  0  0  0  0  0  0  0  0  0  0
    8.6579  -18.4810   25.3850 C   0  0  1  0  0  0  0  0  0  0  0  0
    7.8605  -17.3184   24.8319 N   0  0  0  0  0  0  0  0  0  0  0  0
    7.8054  -17.3318   23.3955 C   0  0  0  0  0  0  0  0  0  0  0  0
    8.3888  -16.0245   25.2875 O   0  0  0  0  0  0  0  0  0  0  0  0
    9.3146  -15.4843   24.6326 C   0  0  0  0  0  0  0  0  0  0  0  0
    6.6411  -12.8627   26.0985 C   0  0  1  0  0  0  0  0  0  0  0  0
    7.5145  -13.1735   27.3086 C   0  0  0  0  0  0  0  0  0  0  0  0
    8.1112  -11.9230   27.8727 C   0  0  2  0  0  0  0  0  0  0  0  0
    8.5868  -14.1562   26.8788 N   0  0  0  0  0  0  0  0  0  0  0  0
    7.9085  -15.3434   26.4366 C   0  0  0  0  0  0  0  0  0  0  0  0
    9.5643  -14.4099   27.9456 O   0  0  0  0  0  0  0  0  0  0  0  0
   10.3805  -13.5239   28.2807 O   0  0  0  0  0  0  0  0  0  0  0  0
  1  2  1  0
  2  3  2  0
  4  2  1  0
  4  5  1  0
  6  5  1  0
  6  7  1  0
  7  8  1  0
  8 10  1  0
  8  9  1  1
 10 11  2  0
 13 12  1  0
 14 13  1  1
 14 16  1  0
 15 10  1  0
 15 14  1  0
 16 22  1  0
 16 17  2  0
 19 18  1  1
 19 21  1  0
 20 19  1  0
 21 23  1  0
 21 22  1  6
 23 24  2  0
 23 25  1  0
M  END
$$$$
