RSV.pdb
     RDKit          3D

 25 24  0  0  1  0  0  0  0  0999 V2000
   13.8238  -16.4592   19.7765 N   0  0  0  0  0  0  0  0  0  0  0  0
   13.6848  -15.2125   19.0799 C   0  0  0  0  0  0  0  0  0  0  0  0
   14.3313  -14.1668   19.4576 N   0  0  0  0  0  0  0  0  0  0  0  0
   12.8273  -15.1079   17.9544 N   0  0  0  0  0  0  0  0  0  0  0  0
   11.4288  -15.4365   18.0729 C   0  0  0  0  0  0  0  0  0  0  0  0
   10.8471  -14.4228   19.0680 C   0  0  0  0  0  0  0  0  0  0  0  0
    9.3593  -14.6454   19.1955 C   0  0  0  0  0  0  0  0  0  0  0  0
    9.0159  -16.0226   19.6570 C   0  0  2  0  0  0  0  0  0  0  0  0
    8.3380  -16.7982   18.6395 N   0  0  0  0  0  0  0  0  0  0  0  0
    8.1415  -15.8722   20.8736 C   0  0  0  0  0  0  0  0  0  0  0  0
    7.0569  -15.2370   20.7747 O   0  0  0  0  0  0  0  0  0  0  0  0
   14.2835  -13.3035   18.9116 O   0  0  0  0  0  0  0  0  0  0  0  0
    8.5496  -18.1259   24.4633 C   0  0  0  0  0  0  0  0  0  0  0  0
    7.3612  -17.6091   23.9515 C   0  0  1  0  0  0  0  0  0  0  0  0
    7.6121  -16.2814   23.2677 N   0  0  0  0  0  0  0  0  0  0  0  0
    8.4802  -16.4120   22.1294 C   0  0  0  0  0  0  0  0  0  0  0  0
    8.1683  -15.2839   24.1932 O   0  0  0  0  0  0  0  0  0  0  0  0
    9.4141  -15.1299   24.2396 C   0  0  0  0  0  0  0  0  0  0  0  0
    7.8451  -11.2674   26.8380 C   0  0  1  0  0  0  0  0  0  0  0  0
    7.1058  -12.3476   26.0565 C   0  0  0  0  0  0  0  0  0  0  0  0
    5.8133  -12.6995   26.7225 C   0  0  2  0  0  0  0  0  0  0  0  0
    8.0170  -13.5543   25.9388 N   0  0  0  0  0  0  0  0  0  0  0  0
    7.3711  -14.4767   25.0462 C   0  0  0  0  0  0  0  0  0  0  0  0
    8.3324  -14.1392   27.2489 O   0  0  0  0  0  0  0  0  0  0  0  0
    7.7242  -15.1545   27.6523 O   0  0  0  0  0  0  0  0  0  0  0  0
  1  2  1  0
  2  3  2  0
  4  2  1  0
  4  5  1  0
  6  5  1  0
  6  7  1  0
  7  8  1  0
  8 10  1  0
  8  9  1  6
 10 11  2  0
 13 12  1  0
 14 13  1  6
 14 16  1  0
 15 10  1  0
 15 14  1  0
 16 22  1  0
 16 17  2  0
 19 18  1  6
 19 21  1  0
 20 19  1  0
 21 23  1  0
 21 22  1  1
 23 24  2  0
 23 25  1  0
M  END
$$$$
