RSV.pdb
     RDKit          3D

 25 24  0  0  1  0  0  0  0  0999 V2000
    8.6863  -15.7867   17.0177 N   0  0  0  0  0  0  0  0  0  0  0  0
    8.3070  -14.5373   16.4227 C   0  0  0  0  0  0  0  0  0  0  0  0
    8.1036  -14.4412   15.1564 N   0  0  0  0  0  0  0  0  0  0  0  0
    8.1474  -13.3770   17.2234 N   0  0  0  0  0  0  0  0  0  0  0  0
    8.4135  -13.4284   18.6392 C   0  0  0  0  0  0  0  0  0  0  0  0
    7.1949  -14.1206   19.2656 C   0  0  0  0  0  0  0  0  0  0  0  0
    7.2904  -14.0347   20.7698 C   0  0  0  0  0  0  0  0  0  0  0  0
    8.3503  -14.9201   21.3357 C   0  0  2  0  0  0  0  0  0  0  0  0
    8.4050  -16.2111   20.6823 N   0  0  0  0  0  0  0  0  0  0  0  0
    8.0480  -15.0847   22.8015 C   0  0  0  0  0  0  0  0  0  0  0  0
    7.8236  -14.0595   23.5004 O   0  0  0  0  0  0  0  0  0  0  0  0
    7.8620  -13.5399   14.7379 O   0  0  0  0  0  0  0  0  0  0  0  0
    8.1645  -18.8230   24.8778 C   0  0  0  0  0  0  0  0  0  0  0  0
    7.2415  -17.8374   25.2209 C   0  0  1  0  0  0  0  0  0  0  0  0
    7.7671  -16.4669   24.8485 N   0  0  0  0  0  0  0  0  0  0  0  0
    8.0035  -16.3409   23.4362 C   0  0  0  0  0  0  0  0  0  0  0  0
    8.9974  -16.1334   25.5805 O   0  0  0  0  0  0  0  0  0  0  0  0
   10.1056  -16.3285   25.0220 C   0  0  0  0  0  0  0  0  0  0  0  0
    9.1830  -14.0597   29.2898 C   0  0  1  0  0  0  0  0  0  0  0  0
   10.2849  -14.1202   28.2380 C   0  0  0  0  0  0  0  0  0  0  0  0
   10.1120  -13.0382   27.2195 C   0  0  1  0  0  0  0  0  0  0  0  0
   10.2545  -15.4953   27.5990 N   0  0  0  0  0  0  0  0  0  0  0  0
    9.0059  -15.5984   26.8953 C   0  0  0  0  0  0  0  0  0  0  0  0
   10.4561  -16.5672   28.5831 O   0  0  0  0  0  0  0  0  0  0  0  0
    9.5095  -17.3185   28.9042 O   0  0  0  0  0  0  0  0  0  0  0  0
  1  2  1  0
  2  3  2  0
  4  2  1  0
  4  5  1  0
  6  5  1  0
  6  7  1  0
  7  8  1  0
  8 10  1  0
  8  9  1  6
 10 11  2  0
 13 12  1  0
 14 13  1  6
 14 16  1  0
 15 10  1  0
 15 14  1  0
 16 22  1  0
 16 17  2  0
 19 18  1  1
 19 21  1  0
 20 19  1  0
 21 23  1  0
 21 22  1  6
 23 24  2  0
 23 25  1  0
M  END
$$$$
