RSV.pdb
     RDKit          3D

 25 24  0  0  1  0  0  0  0  0999 V2000
    8.3007  -12.6558   16.7561 N   0  0  0  0  0  0  0  0  0  0  0  0
    7.6207  -13.9029   16.5533 C   0  0  0  0  0  0  0  0  0  0  0  0
    7.7598  -14.5630   15.4582 N   0  0  0  0  0  0  0  0  0  0  0  0
    6.7771  -14.4359   17.5619 N   0  0  0  0  0  0  0  0  0  0  0  0
    6.9010  -13.9862   18.9258 C   0  0  0  0  0  0  0  0  0  0  0  0
    8.2825  -14.4625   19.3959 C   0  0  0  0  0  0  0  0  0  0  0  0
    8.4804  -14.0716   20.8407 C   0  0  0  0  0  0  0  0  0  0  0  0
    9.7625  -14.5817   21.4096 C   0  0  2  0  0  0  0  0  0  0  0  0
   10.3614  -15.6167   20.5932 N   0  0  0  0  0  0  0  0  0  0  0  0
    9.4526  -15.1100   22.7851 C   0  0  0  0  0  0  0  0  0  0  0  0
    8.8024  -14.3869   23.5877 O   0  0  0  0  0  0  0  0  0  0  0  0
    7.3143  -15.4764   15.3443 O   0  0  0  0  0  0  0  0  0  0  0  0
   10.7525  -18.9024   24.2721 C   0  0  0  0  0  0  0  0  0  0  0  0
    9.4618  -18.4341   24.5081 C   0  0  1  0  0  0  0  0  0  0  0  0
    9.4359  -16.9201   24.4888 N   0  0  0  0  0  0  0  0  0  0  0  0
    9.8580  -16.3855   23.2230 C   0  0  0  0  0  0  0  0  0  0  0  0
   10.2599  -16.3434   25.5609 O   0  0  0  0  0  0  0  0  0  0  0  0
   11.4679  -16.0910   25.3264 C   0  0  0  0  0  0  0  0  0  0  0  0
    8.8187  -14.3333   28.8649 C   0  0  1  0  0  0  0  0  0  0  0  0
   10.2262  -14.2190   28.2904 C   0  0  0  0  0  0  0  0  0  0  0  0
   10.2588  -13.2604   27.1423 C   0  0  1  0  0  0  0  0  0  0  0  0
   10.6805  -15.6040   27.8713 N   0  0  0  0  0  0  0  0  0  0  0  0
    9.7646  -16.0526   26.8590 C   0  0  0  0  0  0  0  0  0  0  0  0
   10.7787  -16.5229   29.0132 O   0  0  0  0  0  0  0  0  0  0  0  0
    9.9578  -17.4566   29.1474 O   0  0  0  0  0  0  0  0  0  0  0  0
  1  2  1  0
  2  3  2  0
  4  2  1  0
  4  5  1  0
  6  5  1  0
  6  7  1  0
  7  8  1  0
  8 10  1  0
  8  9  1  6
 10 11  2  0
 13 12  1  0
 14 13  1  6
 14 16  1  0
 15 10  1  0
 15 14  1  0
 16 22  1  0
 16 17  2  0
 19 18  1  1
 19 21  1  0
 20 19  1  0
 21 23  1  0
 21 22  1  6
 23 24  2  0
 23 25  1  0
M  END
$$$$
