RSV.pdb
     RDKit          3D

 25 24  0  0  1  0  0  0  0  0999 V2000
    8.6782  -13.3932   15.1867 N   0  0  0  0  0  0  0  0  0  0  0  0
    8.4852  -13.2839   16.6044 C   0  0  0  0  0  0  0  0  0  0  0  0
    9.3630  -12.7121   17.3504 N   0  0  0  0  0  0  0  0  0  0  0  0
    7.3160  -13.8067   17.2147 N   0  0  0  0  0  0  0  0  0  0  0  0
    7.3961  -14.4639   18.4951 C   0  0  0  0  0  0  0  0  0  0  0  0
    7.3681  -15.9684   18.1919 C   0  0  0  0  0  0  0  0  0  0  0  0
    7.3731  -16.7396   19.4897 C   0  0  0  0  0  0  0  0  0  0  0  0
    8.5814  -16.4669   20.3224 C   0  0  2  0  0  0  0  0  0  0  0  0
    9.5876  -17.5007   20.1990 N   0  0  0  0  0  0  0  0  0  0  0  0
    8.1145  -16.3547   21.7494 C   0  0  0  0  0  0  0  0  0  0  0  0
    7.2324  -15.5023   22.0410 O   0  0  0  0  0  0  0  0  0  0  0  0
    9.2561  -12.7106   18.3674 O   0  0  0  0  0  0  0  0  0  0  0  0
   10.0717  -18.0260   25.1468 C   0  0  0  0  0  0  0  0  0  0  0  0
    8.6887  -18.1465   25.0288 C   0  0  1  0  0  0  0  0  0  0  0  0
    8.1365  -17.0566   24.1340 N   0  0  0  0  0  0  0  0  0  0  0  0
    8.6208  -17.1638   22.7848 C   0  0  0  0  0  0  0  0  0  0  0  0
    8.4363  -15.7149   24.6545 O   0  0  0  0  0  0  0  0  0  0  0  0
    9.4574  -15.1167   24.2334 C   0  0  0  0  0  0  0  0  0  0  0  0
    7.1621  -11.4890   26.5454 C   0  0  1  0  0  0  0  0  0  0  0  0
    6.7657  -12.9081   26.1542 C   0  0  0  0  0  0  0  0  0  0  0  0
    5.7863  -13.4782   27.1307 C   0  0  2  0  0  0  0  0  0  0  0  0
    8.0265  -13.7477   26.0771 N   0  0  0  0  0  0  0  0  0  0  0  0
    7.6306  -15.0495   25.6153 C   0  0  0  0  0  0  0  0  0  0  0  0
    8.7482  -13.7805   27.3561 O   0  0  0  0  0  0  0  0  0  0  0  0
    9.2581  -12.7385   27.8227 O   0  0  0  0  0  0  0  0  0  0  0  0
  1  2  1  0
  2  3  2  0
  4  2  1  0
  4  5  1  0
  6  5  1  0
  6  7  1  0
  7  8  1  0
  8 10  1  0
  8  9  1  1
 10 11  2  0
 13 12  1  0
 14 13  1  6
 14 16  1  0
 15 10  1  0
 15 14  1  0
 16 22  1  0
 16 17  2  0
 19 18  1  6
 19 21  1  0
 20 19  1  0
 21 23  1  0
 21 22  1  1
 23 24  2  0
 23 25  1  0
M  END
$$$$
