RSV.pdb
     RDKit          3D

 25 24  0  0  1  0  0  0  0  0999 V2000
   15.0024  -17.8430   20.8906 N   0  0  0  0  0  0  0  0  0  0  0  0
   14.3669  -19.0639   20.4853 C   0  0  0  0  0  0  0  0  0  0  0  0
   14.5349  -20.1512   21.1515 N   0  0  0  0  0  0  0  0  0  0  0  0
   13.5358  -19.0965   19.3358 N   0  0  0  0  0  0  0  0  0  0  0  0
   12.4155  -18.1965   19.2230 C   0  0  0  0  0  0  0  0  0  0  0  0
   11.3221  -18.7792   20.1292 C   0  0  0  0  0  0  0  0  0  0  0  0
   10.9256  -17.7489   21.1590 C   0  0  0  0  0  0  0  0  0  0  0  0
    9.4676  -17.4309   21.1305 C   0  0  2  0  0  0  0  0  0  0  0  0
    9.0951  -16.6276   19.9849 N   0  0  0  0  0  0  0  0  0  0  0  0
    9.1526  -16.7014   22.4095 C   0  0  0  0  0  0  0  0  0  0  0  0
    9.3269  -15.4538   22.4629 O   0  0  0  0  0  0  0  0  0  0  0  0
   14.1170  -21.0265   20.8276 O   0  0  0  0  0  0  0  0  0  0  0  0
    7.1442  -18.6046   25.4961 C   0  0  0  0  0  0  0  0  0  0  0  0
    6.9746  -17.2320   25.3278 C   0  0  1  0  0  0  0  0  0  0  0  0
    8.2126  -16.6172   24.7092 N   0  0  0  0  0  0  0  0  0  0  0  0
    8.6681  -17.3518   23.5606 C   0  0  0  0  0  0  0  0  0  0  0  0
    9.3104  -16.4995   25.6796 O   0  0  0  0  0  0  0  0  0  0  0  0
   10.3468  -17.1881   25.5073 C   0  0  0  0  0  0  0  0  0  0  0  0
    9.0357  -14.2844   29.2851 C   0  0  1  0  0  0  0  0  0  0  0  0
   10.3217  -14.3133   28.4668 C   0  0  0  0  0  0  0  0  0  0  0  0
   10.3846  -13.1501   27.5283 C   0  0  1  0  0  0  0  0  0  0  0  0
   10.3790  -15.6329   27.7214 N   0  0  0  0  0  0  0  0  0  0  0  0
    9.2667  -15.6443   26.8117 C   0  0  0  0  0  0  0  0  0  0  0  0
   10.3936  -16.7837   28.6343 O   0  0  0  0  0  0  0  0  0  0  0  0
    9.3828  -17.5099   28.7545 O   0  0  0  0  0  0  0  0  0  0  0  0
  1  2  1  0
  2  3  2  0
  4  2  1  0
  4  5  1  0
  6  5  1  0
  6  7  1  0
  7  8  1  0
  8 10  1  0
  8  9  1  6
 10 11  2  0
 13 12  1  0
 14 13  1  6
 14 16  1  0
 15 10  1  0
 15 14  1  0
 16 22  1  0
 16 17  2  0
 19 18  1  1
 19 21  1  0
 20 19  1  0
 21 23  1  0
 21 22  1  6
 23 24  2  0
 23 25  1  0
M  END
$$$$
