RSV.pdb
     RDKit          3D

 25 24  0  0  1  0  0  0  0  0999 V2000
    8.1880  -12.3036   19.4411 N   0  0  0  0  0  0  0  0  0  0  0  0
    8.2914  -13.3037   18.4174 C   0  0  0  0  0  0  0  0  0  0  0  0
    8.4108  -12.9752   17.1797 N   0  0  0  0  0  0  0  0  0  0  0  0
    8.2643  -14.6823   18.7518 N   0  0  0  0  0  0  0  0  0  0  0  0
    7.9232  -15.0996   20.0887 C   0  0  0  0  0  0  0  0  0  0  0  0
    6.4186  -15.4023   20.0578 C   0  0  0  0  0  0  0  0  0  0  0  0
    5.9553  -15.7732   21.4460 C   0  0  0  0  0  0  0  0  0  0  0  0
    6.5447  -17.0555   21.9315 C   0  0  2  0  0  0  0  0  0  0  0  0
    5.7769  -18.2122   21.5206 N   0  0  0  0  0  0  0  0  0  0  0  0
    6.6044  -16.9700   23.4335 C   0  0  0  0  0  0  0  0  0  0  0  0
    5.7071  -16.3317   24.0477 O   0  0  0  0  0  0  0  0  0  0  0  0
    8.5370  -13.6939   16.4633 O   0  0  0  0  0  0  0  0  0  0  0  0
    8.7364  -19.5862   25.9063 C   0  0  0  0  0  0  0  0  0  0  0  0
    7.6376  -18.8257   26.3003 C   0  0  1  0  0  0  0  0  0  0  0  0
    7.6630  -17.4697   25.6265 N   0  0  0  0  0  0  0  0  0  0  0  0
    7.6244  -17.5743   24.1934 C   0  0  0  0  0  0  0  0  0  0  0  0
    8.8366  -16.6800   26.0263 O   0  0  0  0  0  0  0  0  0  0  0  0
    9.8646  -16.7162   25.3052 C   0  0  0  0  0  0  0  0  0  0  0  0
    8.8662  -13.6138   28.9063 C   0  0  1  0  0  0  0  0  0  0  0  0
    9.8548  -13.7865   27.7587 C   0  0  0  0  0  0  0  0  0  0  0  0
    9.3275  -13.1706   26.5014 C   0  0  1  0  0  0  0  0  0  0  0  0
   10.1212  -15.2691   27.5822 N   0  0  0  0  0  0  0  0  0  0  0  0
    8.8761  -15.8709   27.1919 C   0  0  0  0  0  0  0  0  0  0  0  0
   10.7051  -15.8734   28.7871 O   0  0  0  0  0  0  0  0  0  0  0  0
   10.0283  -16.6466   29.4996 O   0  0  0  0  0  0  0  0  0  0  0  0
  1  2  1  0
  2  3  2  0
  4  2  1  0
  4  5  1  0
  6  5  1  0
  6  7  1  0
  7  8  1  0
  8 10  1  0
  8  9  1  1
 10 11  2  0
 13 12  1  0
 14 13  1  1
 14 16  1  0
 15 10  1  0
 15 14  1  0
 16 22  1  0
 16 17  2  0
 19 18  1  1
 19 21  1  0
 20 19  1  0
 21 23  1  0
 21 22  1  6
 23 24  2  0
 23 25  1  0
M  END
$$$$
