RSV.pdb
     RDKit          3D

 25 24  0  0  1  0  0  0  0  0999 V2000
    8.4247  -13.4499   14.4529 N   0  0  0  0  0  0  0  0  0  0  0  0
    7.8565  -13.7259   15.7412 C   0  0  0  0  0  0  0  0  0  0  0  0
    7.3324  -12.7885   16.4488 N   0  0  0  0  0  0  0  0  0  0  0  0
    7.8611  -15.0453   16.2630 N   0  0  0  0  0  0  0  0  0  0  0  0
    7.6441  -15.2714   17.6699 C   0  0  0  0  0  0  0  0  0  0  0  0
    8.2374  -14.0484   18.3831 C   0  0  0  0  0  0  0  0  0  0  0  0
    7.9160  -14.1248   19.8563 C   0  0  0  0  0  0  0  0  0  0  0  0
    8.7070  -15.1704   20.5696 C   0  0  2  0  0  0  0  0  0  0  0  0
    8.5668  -16.4807   19.9698 N   0  0  0  0  0  0  0  0  0  0  0  0
    8.2234  -15.1897   21.9953 C   0  0  0  0  0  0  0  0  0  0  0  0
    7.8959  -14.1042   22.5468 O   0  0  0  0  0  0  0  0  0  0  0  0
    6.8606  -13.0069   17.3294 O   0  0  0  0  0  0  0  0  0  0  0  0
    7.9528  -18.6964   24.4981 C   0  0  0  0  0  0  0  0  0  0  0  0
    6.9509  -17.7311   24.4239 C   0  0  1  0  0  0  0  0  0  0  0  0
    7.5401  -16.3826   24.0665 N   0  0  0  0  0  0  0  0  0  0  0  0
    8.1183  -16.3737   22.7505 C   0  0  0  0  0  0  0  0  0  0  0  0
    8.5475  -15.9472   25.0446 O   0  0  0  0  0  0  0  0  0  0  0  0
    9.7578  -16.1956   24.8181 C   0  0  0  0  0  0  0  0  0  0  0  0
    8.6462  -12.6200   26.8583 C   0  0  1  0  0  0  0  0  0  0  0  0
    8.8880  -13.7001   27.9066 C   0  0  0  0  0  0  0  0  0  0  0  0
    9.9443  -13.2761   28.8774 C   0  0  2  0  0  0  0  0  0  0  0  0
    9.2740  -14.9790   27.1885 N   0  0  0  0  0  0  0  0  0  0  0  0
    8.2284  -15.2556   26.2424 C   0  0  0  0  0  0  0  0  0  0  0  0
    9.5184  -16.0858   28.1229 O   0  0  0  0  0  0  0  0  0  0  0  0
    8.5967  -16.8747   28.4255 O   0  0  0  0  0  0  0  0  0  0  0  0
  1  2  1  0
  2  3  2  0
  4  2  1  0
  4  5  1  0
  6  5  1  0
  6  7  1  0
  7  8  1  0
  8 10  1  0
  8  9  1  6
 10 11  2  0
 13 12  1  0
 14 13  1  6
 14 16  1  0
 15 10  1  0
 15 14  1  0
 16 22  1  0
 16 17  2  0
 19 18  1  1
 19 21  1  0
 20 19  1  0
 21 23  1  0
 21 22  1  6
 23 24  2  0
 23 25  1  0
M  END
$$$$
