RSV.pdb
     RDKit          3D

 25 24  0  0  1  0  0  0  0  0999 V2000
    9.9549  -13.6338   19.5569 N   0  0  0  0  0  0  0  0  0  0  0  0
    9.0073  -12.7780   18.9021 C   0  0  0  0  0  0  0  0  0  0  0  0
    9.2732  -11.5385   18.6854 N   0  0  0  0  0  0  0  0  0  0  0  0
    7.7517  -13.2847   18.4781 N   0  0  0  0  0  0  0  0  0  0  0  0
    7.2626  -14.5392   18.9929 C   0  0  0  0  0  0  0  0  0  0  0  0
    6.6577  -14.2166   20.3663 C   0  0  0  0  0  0  0  0  0  0  0  0
    6.0844  -15.4770   20.9680 C   0  0  0  0  0  0  0  0  0  0  0  0
    7.1352  -16.4118   21.4676 C   0  0  2  0  0  0  0  0  0  0  0  0
    7.0365  -17.7289   20.8745 N   0  0  0  0  0  0  0  0  0  0  0  0
    6.9741  -16.4944   22.9623 C   0  0  0  0  0  0  0  0  0  0  0  0
    6.0332  -15.8616   23.5138 O   0  0  0  0  0  0  0  0  0  0  0  0
    8.6052  -10.9452   18.1878 O   0  0  0  0  0  0  0  0  0  0  0  0
    8.3717  -19.6089   25.3146 C   0  0  0  0  0  0  0  0  0  0  0  0
    7.3302  -18.7490   25.6566 C   0  0  1  0  0  0  0  0  0  0  0  0
    7.6389  -17.3371   25.2045 N   0  0  0  0  0  0  0  0  0  0  0  0
    7.8322  -17.2518   23.7826 C   0  0  0  0  0  0  0  0  0  0  0  0
    8.8165  -16.7863   25.8905 O   0  0  0  0  0  0  0  0  0  0  0  0
    9.9451  -16.9165   25.3545 C   0  0  0  0  0  0  0  0  0  0  0  0
    9.1671  -13.3715   27.2963 C   0  0  1  0  0  0  0  0  0  0  0  0
    9.6668  -14.3133   28.3859 C   0  0  0  0  0  0  0  0  0  0  0  0
   10.8702  -13.7473   29.0713 C   0  0  2  0  0  0  0  0  0  0  0  0
    9.9699  -15.6559   27.7489 N   0  0  0  0  0  0  0  0  0  0  0  0
    8.7517  -16.1092   27.1364 C   0  0  0  0  0  0  0  0  0  0  0  0
   10.5249  -16.6136   28.7147 O   0  0  0  0  0  0  0  0  0  0  0  0
    9.7662  -17.3240   29.4098 O   0  0  0  0  0  0  0  0  0  0  0  0
  1  2  1  0
  2  3  2  0
  4  2  1  0
  4  5  1  0
  6  5  1  0
  6  7  1  0
  7  8  1  0
  8 10  1  0
  8  9  1  6
 10 11  2  0
 13 12  1  0
 14 13  1  6
 14 16  1  0
 15 10  1  0
 15 14  1  0
 16 22  1  0
 16 17  2  0
 19 18  1  1
 19 21  1  0
 20 19  1  0
 21 23  1  0
 21 22  1  6
 23 24  2  0
 23 25  1  0
M  END
$$$$
