RSV.pdb
     RDKit          3D

 25 24  0  0  1  0  0  0  0  0999 V2000
    7.4276  -12.3645   17.0576 N   0  0  0  0  0  0  0  0  0  0  0  0
    8.1243  -13.4895   16.5028 C   0  0  0  0  0  0  0  0  0  0  0  0
    7.8059  -13.9634   15.3504 N   0  0  0  0  0  0  0  0  0  0  0  0
    9.1842  -14.1046   17.2178 N   0  0  0  0  0  0  0  0  0  0  0  0
    9.1568  -14.1543   18.6582 C   0  0  0  0  0  0  0  0  0  0  0  0
    7.6983  -14.4488   19.0356 C   0  0  0  0  0  0  0  0  0  0  0  0
    7.5974  -14.6360   20.5302 C   0  0  0  0  0  0  0  0  0  0  0  0
    7.8736  -16.0385   20.9596 C   0  0  2  0  0  0  0  0  0  0  0  0
    7.0158  -17.0016   20.3016 N   0  0  0  0  0  0  0  0  0  0  0  0
    7.6735  -16.0881   22.4511 C   0  0  0  0  0  0  0  0  0  0  0  0
    6.8041  -15.3427   22.9785 O   0  0  0  0  0  0  0  0  0  0  0  0
    8.3194  -14.7552   14.9564 O   0  0  0  0  0  0  0  0  0  0  0  0
    8.9821  -19.2870   24.7947 C   0  0  0  0  0  0  0  0  0  0  0  0
    7.8755  -18.4983   25.1018 C   0  0  1  0  0  0  0  0  0  0  0  0
    8.1204  -17.0604   24.6949 N   0  0  0  0  0  0  0  0  0  0  0  0
    8.4182  -16.9353   23.2941 C   0  0  0  0  0  0  0  0  0  0  0  0
    9.1998  -16.4441   25.4797 O   0  0  0  0  0  0  0  0  0  0  0  0
   10.3708  -16.4738   25.0260 C   0  0  0  0  0  0  0  0  0  0  0  0
   11.0366  -13.5969   28.8999 C   0  0  1  0  0  0  0  0  0  0  0  0
    9.8352  -14.0474   28.0767 C   0  0  0  0  0  0  0  0  0  0  0  0
    8.5900  -14.0515   28.9058 C   0  0  2  0  0  0  0  0  0  0  0  0
   10.1346  -15.4247   27.5166 N   0  0  0  0  0  0  0  0  0  0  0  0
    8.9935  -15.8114   26.7335 C   0  0  0  0  0  0  0  0  0  0  0  0
   10.4680  -16.3905   28.5720 O   0  0  0  0  0  0  0  0  0  0  0  0
    9.6076  -17.1971   28.9875 O   0  0  0  0  0  0  0  0  0  0  0  0
  1  2  1  0
  2  3  2  0
  4  2  1  0
  4  5  1  0
  6  5  1  0
  6  7  1  0
  7  8  1  0
  8 10  1  0
  8  9  1  6
 10 11  2  0
 13 12  1  0
 14 13  1  6
 14 16  1  0
 15 10  1  0
 15 14  1  0
 16 22  1  0
 16 17  2  0
 19 18  1  6
 19 21  1  0
 20 19  1  0
 21 23  1  0
 21 22  1  1
 23 24  2  0
 23 25  1  0
M  END
$$$$
