RSV.pdb
     RDKit          3D

 25 24  0  0  1  0  0  0  0  0999 V2000
    9.9144  -13.9423   16.5593 N   0  0  0  0  0  0  0  0  0  0  0  0
    8.5473  -13.9059   16.1251 C   0  0  0  0  0  0  0  0  0  0  0  0
    8.0995  -12.9222   15.4281 N   0  0  0  0  0  0  0  0  0  0  0  0
    7.6577  -14.9601   16.4572 N   0  0  0  0  0  0  0  0  0  0  0  0
    7.7219  -15.5839   17.7550 C   0  0  0  0  0  0  0  0  0  0  0  0
    7.6610  -14.4350   18.7712 C   0  0  0  0  0  0  0  0  0  0  0  0
    7.0641  -14.9413   20.0622 C   0  0  0  0  0  0  0  0  0  0  0  0
    7.4077  -16.3667   20.3409 C   0  0  2  0  0  0  0  0  0  0  0  0
    6.4787  -17.2935   19.7290 N   0  0  0  0  0  0  0  0  0  0  0  0
    7.4082  -16.5333   21.8374 C   0  0  0  0  0  0  0  0  0  0  0  0
    6.3072  -16.6291   22.4443 O   0  0  0  0  0  0  0  0  0  0  0  0
    7.1546  -12.9520   15.0381 O   0  0  0  0  0  0  0  0  0  0  0  0
   10.7988  -17.6601   23.9614 C   0  0  0  0  0  0  0  0  0  0  0  0
    9.5158  -17.9114   24.4429 C   0  0  1  0  0  0  0  0  0  0  0  0
    8.5661  -16.8104   24.0195 N   0  0  0  0  0  0  0  0  0  0  0  0
    8.5910  -16.5875   22.5997 C   0  0  0  0  0  0  0  0  0  0  0  0
    8.8454  -15.5467   24.7165 O   0  0  0  0  0  0  0  0  0  0  0  0
    9.7067  -14.7684   24.2364 C   0  0  0  0  0  0  0  0  0  0  0  0
    6.6870  -12.8343   25.6217 C   0  0  1  0  0  0  0  0  0  0  0  0
    7.4066  -13.1560   26.9266 C   0  0  0  0  0  0  0  0  0  0  0  0
    7.7562  -11.9042   27.6672 C   0  0  2  0  0  0  0  0  0  0  0  0
    8.6428  -13.9707   26.5971 N   0  0  0  0  0  0  0  0  0  0  0  0
    8.1918  -15.1509   25.9127 C   0  0  0  0  0  0  0  0  0  0  0  0
    9.4463  -14.2640   27.7914 O   0  0  0  0  0  0  0  0  0  0  0  0
    9.3598  -15.3765   28.3556 O   0  0  0  0  0  0  0  0  0  0  0  0
  1  2  1  0
  2  3  2  0
  4  2  1  0
  4  5  1  0
  6  5  1  0
  6  7  1  0
  7  8  1  0
  8 10  1  0
  8  9  1  6
 10 11  2  0
 13 12  1  0
 14 13  1  6
 14 16  1  0
 15 10  1  0
 15 14  1  0
 16 22  1  0
 16 17  2  0
 19 18  1  1
 19 21  1  0
 20 19  1  0
 21 23  1  0
 21 22  1  6
 23 24  2  0
 23 25  1  0
M  END
$$$$
