RSV.pdb
     RDKit          3D

 25 24  0  0  1  0  0  0  0  0999 V2000
    9.6572  -23.2465   20.7857 N   0  0  0  0  0  0  0  0  0  0  0  0
    9.8502  -23.3487   22.2039 C   0  0  0  0  0  0  0  0  0  0  0  0
   10.5409  -24.3077   22.7111 N   0  0  0  0  0  0  0  0  0  0  0  0
    9.2805  -22.3887   23.0796 N   0  0  0  0  0  0  0  0  0  0  0  0
    8.4875  -21.3057   22.5542 C   0  0  0  0  0  0  0  0  0  0  0  0
    9.4930  -20.2475   22.0794 C   0  0  0  0  0  0  0  0  0  0  0  0
    8.7444  -19.0758   21.4912 C   0  0  0  0  0  0  0  0  0  0  0  0
    9.6501  -18.0326   20.9265 C   0  0  2  0  0  0  0  0  0  0  0  0
   11.0464  -18.4087   20.9993 N   0  0  0  0  0  0  0  0  0  0  0  0
    9.4042  -16.7688   21.7072 C   0  0  0  0  0  0  0  0  0  0  0  0
   10.2578  -16.3972   22.5575 O   0  0  0  0  0  0  0  0  0  0  0  0
   10.7260  -24.3369   23.7165 O   0  0  0  0  0  0  0  0  0  0  0  0
    6.0536  -14.3327   21.0148 C   0  0  0  0  0  0  0  0  0  0  0  0
    7.2746  -13.7375   21.3244 C   0  0  1  0  0  0  0  0  0  0  0  0
    8.1301  -14.6798   22.1453 N   0  0  0  0  0  0  0  0  0  0  0  0
    8.2552  -15.9738   21.5320 C   0  0  0  0  0  0  0  0  0  0  0  0
    7.6162  -14.8363   23.5136 O   0  0  0  0  0  0  0  0  0  0  0  0
    6.9542  -15.8655   23.7974 C   0  0  0  0  0  0  0  0  0  0  0  0
    8.0546  -11.9011   26.5998 C   0  0  1  0  0  0  0  0  0  0  0  0
    8.0028  -13.4025   26.8590 C   0  0  0  0  0  0  0  0  0  0  0  0
    9.3779  -13.9915   26.8671 C   0  0  1  0  0  0  0  0  0  0  0  0
    7.1323  -14.0375   25.7916 N   0  0  0  0  0  0  0  0  0  0  0  0
    7.8265  -13.8820   24.5432 C   0  0  0  0  0  0  0  0  0  0  0  0
    5.7763  -13.4727   25.7756 O   0  0  0  0  0  0  0  0  0  0  0  0
    5.4358  -12.6678   24.8812 O   0  0  0  0  0  0  0  0  0  0  0  0
  1  2  1  0
  2  3  2  0
  4  2  1  0
  4  5  1  0
  6  5  1  0
  6  7  1  0
  7  8  1  0
  8 10  1  0
  8  9  1  1
 10 11  2  0
 13 12  1  0
 14 13  1  6
 14 16  1  0
 15 10  1  0
 15 14  1  0
 16 22  1  0
 16 17  2  0
 19 18  1  1
 19 21  1  0
 20 19  1  0
 21 23  1  0
 21 22  1  6
 23 24  2  0
 23 25  1  0
M  END
$$$$
