RSV.pdb
     RDKit          3D

 25 24  0  0  1  0  0  0  0  0999 V2000
   10.3134  -13.3697   19.8772 N   0  0  0  0  0  0  0  0  0  0  0  0
    9.3177  -12.3750   19.5981 C   0  0  0  0  0  0  0  0  0  0  0  0
    9.5193  -11.1373   19.8839 N   0  0  0  0  0  0  0  0  0  0  0  0
    8.0846  -12.7384   18.9979 N   0  0  0  0  0  0  0  0  0  0  0  0
    7.7428  -14.1278   18.8229 C   0  0  0  0  0  0  0  0  0  0  0  0
    6.8948  -14.5038   20.0460 C   0  0  0  0  0  0  0  0  0  0  0  0
    6.4597  -15.9446   19.9281 C   0  0  0  0  0  0  0  0  0  0  0  0
    7.4293  -16.8963   20.5460 C   0  0  2  0  0  0  0  0  0  0  0  0
    7.1884  -18.2693   20.1545 N   0  0  0  0  0  0  0  0  0  0  0  0
    7.3023  -16.7446   22.0386 C   0  0  0  0  0  0  0  0  0  0  0  0
    6.1603  -16.5653   22.5419 O   0  0  0  0  0  0  0  0  0  0  0  0
    8.8180  -10.4310   19.6490 O   0  0  0  0  0  0  0  0  0  0  0  0
   10.3981  -17.7834   24.7103 C   0  0  0  0  0  0  0  0  0  0  0  0
    9.0403  -17.9246   24.9887 C   0  0  1  0  0  0  0  0  0  0  0  0
    8.2474  -16.8112   24.3368 N   0  0  0  0  0  0  0  0  0  0  0  0
    8.4086  -16.7937   22.9085 C   0  0  0  0  0  0  0  0  0  0  0  0
    8.6005  -15.4932   24.8835 O   0  0  0  0  0  0  0  0  0  0  0  0
    9.4747  -14.8087   24.2958 C   0  0  0  0  0  0  0  0  0  0  0  0
    6.3094  -13.2368   27.4849 C   0  0  1  0  0  0  0  0  0  0  0  0
    7.4489  -12.7100   26.6200 C   0  0  0  0  0  0  0  0  0  0  0  0
    6.9736  -12.4108   25.2335 C   0  0  1  0  0  0  0  0  0  0  0  0
    8.5579  -13.7447   26.6163 N   0  0  0  0  0  0  0  0  0  0  0  0
    8.0051  -14.9436   26.0490 C   0  0  0  0  0  0  0  0  0  0  0  0
    9.1305  -13.9465   27.9540 O   0  0  0  0  0  0  0  0  0  0  0  0
    8.9880  -15.0387   28.5459 O   0  0  0  0  0  0  0  0  0  0  0  0
  1  2  1  0
  2  3  2  0
  4  2  1  0
  4  5  1  0
  6  5  1  0
  6  7  1  0
  7  8  1  0
  8 10  1  0
  8  9  1  1
 10 11  2  0
 13 12  1  0
 14 13  1  6
 14 16  1  0
 15 10  1  0
 15 14  1  0
 16 22  1  0
 16 17  2  0
 19 18  1  1
 19 21  1  0
 20 19  1  0
 21 23  1  0
 21 22  1  6
 23 24  2  0
 23 25  1  0
M  END
$$$$
