RSV.pdb
     RDKit          3D

 25 24  0  0  1  0  0  0  0  0999 V2000
    7.5167  -12.7867   14.1893 N   0  0  0  0  0  0  0  0  0  0  0  0
    8.3202  -13.9253   14.5312 C   0  0  0  0  0  0  0  0  0  0  0  0
    9.0040  -14.5464   13.6363 N   0  0  0  0  0  0  0  0  0  0  0  0
    8.3773  -14.3910   15.8701 N   0  0  0  0  0  0  0  0  0  0  0  0
    7.2675  -14.1726   16.7637 C   0  0  0  0  0  0  0  0  0  0  0  0
    7.8288  -13.3441   17.9278 C   0  0  0  0  0  0  0  0  0  0  0  0
    7.2382  -13.8416   19.2251 C   0  0  0  0  0  0  0  0  0  0  0  0
    8.0664  -14.9018   19.8711 C   0  0  2  0  0  0  0  0  0  0  0  0
    7.9189  -16.1917   19.2302 N   0  0  0  0  0  0  0  0  0  0  0  0
    7.6356  -14.9779   21.3119 C   0  0  0  0  0  0  0  0  0  0  0  0
    6.6104  -14.3430   21.6799 O   0  0  0  0  0  0  0  0  0  0  0  0
    9.5620  -15.3658   13.8874 O   0  0  0  0  0  0  0  0  0  0  0  0
    9.2104  -17.8574   24.0157 C   0  0  0  0  0  0  0  0  0  0  0  0
    7.8737  -17.4715   23.9424 C   0  0  1  0  0  0  0  0  0  0  0  0
    7.7648  -16.0074   23.5709 N   0  0  0  0  0  0  0  0  0  0  0  0
    8.3296  -15.7314   22.2781 C   0  0  0  0  0  0  0  0  0  0  0  0
    8.3959  -15.1381   24.5743 O   0  0  0  0  0  0  0  0  0  0  0  0
    9.5945  -14.7988   24.4131 C   0  0  0  0  0  0  0  0  0  0  0  0
    6.3176  -13.4343   27.8210 C   0  0  1  0  0  0  0  0  0  0  0  0
    7.5511  -12.7975   27.1908 C   0  0  0  0  0  0  0  0  0  0  0  0
    7.1670  -11.8778   26.0751 C   0  0  1  0  0  0  0  0  0  0  0  0
    8.4626  -13.9087   26.7064 N   0  0  0  0  0  0  0  0  0  0  0  0
    7.7224  -14.6553   25.7269 C   0  0  0  0  0  0  0  0  0  0  0  0
    8.9606  -14.7372   27.8125 O   0  0  0  0  0  0  0  0  0  0  0  0
    8.5878  -15.9247   27.9323 O   0  0  0  0  0  0  0  0  0  0  0  0
  1  2  1  0
  2  3  2  0
  4  2  1  0
  4  5  1  0
  6  5  1  0
  6  7  1  0
  7  8  1  0
  8 10  1  0
  8  9  1  6
 10 11  2  0
 13 12  1  0
 14 13  1  6
 14 16  1  0
 15 10  1  0
 15 14  1  0
 16 22  1  0
 16 17  2  0
 19 18  1  1
 19 21  1  0
 20 19  1  0
 21 23  1  0
 21 22  1  6
 23 24  2  0
 23 25  1  0
M  END
$$$$
