KGG.pdb
     RDKit          3D

 18 17  0  0  1  0  0  0  0  0999 V2000
    5.3165  -19.4413   21.8576 N   0  0  0  0  0  0  0  0  0  0  0  0
    5.0382  -18.5199   20.8380 C   0  0  1  0  0  0  0  0  0  0  0  0
    3.6753  -18.4544   20.2630 C   0  0  0  0  0  0  0  0  0  0  0  0
    2.7734  -19.5941   20.4370 C   0  0  0  0  0  0  0  0  0  0  0  0
    1.4571  -19.7048   19.8411 C   0  0  0  0  0  0  0  0  0  0  0  0
    0.5637  -20.8534   19.9936 C   0  0  0  0  0  0  0  0  0  0  0  0
   -0.7202  -20.7685   19.3458 N   0  0  0  0  0  0  0  0  0  0  0  0
    5.4434  -17.1075   21.2445 C   0  0  0  0  0  0  0  0  0  0  0  0
    5.1479  -16.6654   22.3837 O   0  0  0  0  0  0  0  0  0  0  0  0
    6.1567  -16.2538   20.3678 N   0  0  0  0  0  0  0  0  0  0  0  0
    6.6444  -14.9614   20.8031 C   0  0  0  0  0  0  0  0  0  0  0  0
    8.0570  -15.0321   21.2554 C   0  0  0  0  0  0  0  0  0  0  0  0
    8.6559  -13.9495   21.4772 O   0  0  0  0  0  0  0  0  0  0  0  0
    8.7580  -16.2348   21.4483 N   0  0  0  0  0  0  0  0  0  0  0  0
   10.1807  -16.3139   21.6911 C   0  0  0  0  0  0  0  0  0  0  0  0
   10.4137  -16.2804   23.1425 C   0  0  0  0  0  0  0  0  0  0  0  0
   11.6991  -16.3907   23.6261 O   0  0  0  0  0  0  0  0  0  0  0  0
    9.4673  -16.1539   23.9411 O   0  0  0  0  0  0  0  0  0  0  0  0
  2  1  1  1
  3  2  1  0
  4  3  1  0
  5  6  1  0
  5  4  1  0
  7  6  1  0
  8  2  1  0
  8  9  2  0
 10  8  1  0
 11 10  1  0
 11 12  1  0
 12 14  1  0
 13 12  2  0
 14 15  1  0
 15 16  1  0
 16 17  1  0
 18 16  2  0
M  END
$$$$
