KGG.pdb
     RDKit          3D

 18 17  0  0  1  0  0  0  0  0999 V2000
    6.9743  -16.8049   25.3093 N   0  0  0  0  0  0  0  0  0  0  0  0
    7.2638  -15.7826   24.3946 C   0  0  1  0  0  0  0  0  0  0  0  0
    7.5307  -14.4125   24.8887 C   0  0  0  0  0  0  0  0  0  0  0  0
    6.5774  -13.7885   25.8076 C   0  0  0  0  0  0  0  0  0  0  0  0
    6.6482  -12.4152   26.2649 C   0  0  0  0  0  0  0  0  0  0  0  0
    5.6728  -11.7767   27.1489 C   0  0  0  0  0  0  0  0  0  0  0  0
    5.9724  -10.4375   27.5876 N   0  0  0  0  0  0  0  0  0  0  0  0
    8.4089  -16.1779   23.4688 C   0  0  0  0  0  0  0  0  0  0  0  0
    8.9539  -17.3054   23.5791 O   0  0  0  0  0  0  0  0  0  0  0  0
    8.8940  -15.3035   22.4657 N   0  0  0  0  0  0  0  0  0  0  0  0
    9.5283  -15.8089   21.2657 C   0  0  0  0  0  0  0  0  0  0  0  0
   10.8790  -16.3573   21.5487 C   0  0  0  0  0  0  0  0  0  0  0  0
   11.5981  -16.6775   20.5687 O   0  0  0  0  0  0  0  0  0  0  0  0
   11.3954  -16.5374   22.8432 N   0  0  0  0  0  0  0  0  0  0  0  0
   12.6527  -17.1898   23.1309 C   0  0  0  0  0  0  0  0  0  0  0  0
   13.5642  -16.2093   23.7391 C   0  0  0  0  0  0  0  0  0  0  0  0
   13.6525  -16.1250   25.1114 O   0  0  0  0  0  0  0  0  0  0  0  0
   14.2574  -15.4541   23.0329 O   0  0  0  0  0  0  0  0  0  0  0  0
  2  1  1  1
  3  2  1  0
  4  3  1  0
  5  6  1  0
  5  4  1  0
  7  6  1  0
  8  2  1  0
  8  9  2  0
 10  8  1  0
 11 10  1  0
 11 12  1  0
 12 14  1  0
 13 12  2  0
 14 15  1  0
 15 16  1  0
 16 17  1  0
 18 16  2  0
M  END
$$$$
