KGG.pdb
     RDKit          3D

 18 17  0  0  1  0  0  0  0  0999 V2000
    5.2018  -17.6442   23.3765 N   0  0  0  0  0  0  0  0  0  0  0  0
    5.3122  -17.8829   21.9993 C   0  0  1  0  0  0  0  0  0  0  0  0
    4.0930  -18.1512   21.2030 C   0  0  0  0  0  0  0  0  0  0  0  0
    3.1678  -19.1949   21.6472 C   0  0  0  0  0  0  0  0  0  0  0  0
    1.9827  -19.6109   20.9243 C   0  0  0  0  0  0  0  0  0  0  0  0
    1.0661  -20.6659   21.3573 C   0  0  0  0  0  0  0  0  0  0  0  0
   -0.0251  -20.9825   20.4716 N   0  0  0  0  0  0  0  0  0  0  0  0
    6.0882  -16.7684   21.3063 C   0  0  0  0  0  0  0  0  0  0  0  0
    6.4556  -16.8990   20.1111 O   0  0  0  0  0  0  0  0  0  0  0  0
    6.4191  -15.5631   21.9725 N   0  0  0  0  0  0  0  0  0  0  0  0
    7.0329  -14.4556   21.2692 C   0  0  0  0  0  0  0  0  0  0  0  0
    8.5009  -14.4124   21.4887 C   0  0  0  0  0  0  0  0  0  0  0  0
    9.1597  -13.5373   20.8723 O   0  0  0  0  0  0  0  0  0  0  0  0
    9.1910  -15.2902   22.3421 N   0  0  0  0  0  0  0  0  0  0  0  0
   10.6110  -15.2187   22.6023 C   0  0  0  0  0  0  0  0  0  0  0  0
   10.9611  -16.2475   23.5927 C   0  0  0  0  0  0  0  0  0  0  0  0
    9.9800  -17.0843   24.0777 O   0  0  0  0  0  0  0  0  0  0  0  0
   12.1306  -16.3739   23.9998 O   0  0  0  0  0  0  0  0  0  0  0  0
  2  1  1  1
  3  2  1  0
  4  3  1  0
  5  6  1  0
  5  4  1  0
  7  6  1  0
  8  2  1  0
  8  9  2  0
 10  8  1  0
 11 10  1  0
 11 12  1  0
 12 14  1  0
 13 12  2  0
 14 15  1  0
 15 16  1  0
 16 17  1  0
 18 16  2  0
M  END
$$$$
