KGG.pdb
     RDKit          3D

 18 17  0  0  1  0  0  0  0  0999 V2000
    5.7164  -15.8524   21.4723 N   0  0  0  0  0  0  0  0  0  0  0  0
    7.0209  -16.3485   21.3387 C   0  0  1  0  0  0  0  0  0  0  0  0
    7.8734  -15.8749   20.2245 C   0  0  0  0  0  0  0  0  0  0  0  0
    7.4048  -14.7670   19.3905 C   0  0  0  0  0  0  0  0  0  0  0  0
    7.9572  -13.4273   19.4094 C   0  0  0  0  0  0  0  0  0  0  0  0
    8.8000  -12.8553   18.3591 C   0  0  0  0  0  0  0  0  0  0  0  0
    9.2192  -11.4883   18.5349 N   0  0  0  0  0  0  0  0  0  0  0  0
    7.8091  -16.1851   22.6335 C   0  0  0  0  0  0  0  0  0  0  0  0
    7.4619  -15.3269   23.4840 O   0  0  0  0  0  0  0  0  0  0  0  0
    8.9443  -16.9815   22.9222 N   0  0  0  0  0  0  0  0  0  0  0  0
    9.7137  -16.7883   24.1341 C   0  0  0  0  0  0  0  0  0  0  0  0
   11.1107  -16.3812   23.8377 C   0  0  0  0  0  0  0  0  0  0  0  0
   11.2955  -15.5564   22.9075 O   0  0  0  0  0  0  0  0  0  0  0  0
   12.2314  -16.8638   24.5350 N   0  0  0  0  0  0  0  0  0  0  0  0
   13.5595  -16.3047   24.4212 C   0  0  0  0  0  0  0  0  0  0  0  0
   14.2309  -16.9164   23.2649 C   0  0  0  0  0  0  0  0  0  0  0  0
   15.5569  -16.6323   23.0217 O   0  0  0  0  0  0  0  0  0  0  0  0
   13.6195  -17.6871   22.5022 O   0  0  0  0  0  0  0  0  0  0  0  0
  2  1  1  1
  3  2  1  0
  4  3  1  0
  5  6  1  0
  5  4  1  0
  7  6  1  0
  8  2  1  0
  8  9  2  0
 10  8  1  0
 11 10  1  0
 11 12  1  0
 12 14  1  0
 13 12  2  0
 14 15  1  0
 15 16  1  0
 16 17  1  0
 18 16  2  0
M  END
$$$$
