KGG.pdb
     RDKit          3D

 18 17  0  0  1  0  0  0  0  0999 V2000
    6.9854  -17.0968   20.9101 N   0  0  0  0  0  0  0  0  0  0  0  0
    5.8899  -16.4941   21.5445 C   0  0  1  0  0  0  0  0  0  0  0  0
    4.5355  -17.0650   21.3651 C   0  0  0  0  0  0  0  0  0  0  0  0
    4.4007  -18.4639   20.9558 C   0  0  0  0  0  0  0  0  0  0  0  0
    3.1414  -19.1284   20.6861 C   0  0  0  0  0  0  0  0  0  0  0  0
    3.0077  -20.5009   20.1975 C   0  0  0  0  0  0  0  0  0  0  0  0
    1.6682  -21.0090   20.0455 N   0  0  0  0  0  0  0  0  0  0  0  0
    6.1368  -16.3354   23.0405 C   0  0  0  0  0  0  0  0  0  0  0  0
    5.2623  -15.8115   23.7762 O   0  0  0  0  0  0  0  0  0  0  0  0
    7.3418  -16.7654   23.6482 N   0  0  0  0  0  0  0  0  0  0  0  0
    7.5520  -16.6456   25.0762 C   0  0  0  0  0  0  0  0  0  0  0  0
    7.5734  -17.9734   25.7407 C   0  0  0  0  0  0  0  0  0  0  0  0
    7.2268  -18.9733   25.0626 O   0  0  0  0  0  0  0  0  0  0  0  0
    7.9573  -18.1737   27.0777 N   0  0  0  0  0  0  0  0  0  0  0  0
    8.0867  -19.4728   27.6980 C   0  0  0  0  0  0  0  0  0  0  0  0
    9.5006  -19.6957   28.0345 C   0  0  0  0  0  0  0  0  0  0  0  0
    9.8524  -19.9739   29.3371 O   0  0  0  0  0  0  0  0  0  0  0  0
   10.3846  -19.6370   27.1601 O   0  0  0  0  0  0  0  0  0  0  0  0
  2  1  1  1
  3  2  1  0
  4  3  1  0
  5  6  1  0
  5  4  1  0
  7  6  1  0
  8  2  1  0
  8  9  2  0
 10  8  1  0
 11 10  1  0
 11 12  1  0
 12 14  1  0
 13 12  2  0
 14 15  1  0
 15 16  1  0
 16 17  1  0
 18 16  2  0
M  END
$$$$
