KGG.pdb
     RDKit          3D

 18 17  0  0  1  0  0  0  0  0999 V2000
    1.5010  -20.9821   18.4146 N   0  0  0  0  0  0  0  0  0  0  0  0
    1.0734  -19.9008   19.1980 C   0  0  1  0  0  0  0  0  0  0  0  0
   -0.3697  -19.7273   19.4804 C   0  0  0  0  0  0  0  0  0  0  0  0
   -1.3312  -20.6423   18.8631 C   0  0  0  0  0  0  0  0  0  0  0  0
   -2.4326  -21.2767   19.5593 C   0  0  0  0  0  0  0  0  0  0  0  0
   -3.4280  -22.1468   18.9328 C   0  0  0  0  0  0  0  0  0  0  0  0
   -4.4239  -22.7239   19.7992 N   0  0  0  0  0  0  0  0  0  0  0  0
    1.8196  -19.8523   20.5266 C   0  0  0  0  0  0  0  0  0  0  0  0
    1.6448  -18.8914   21.3182 O   0  0  0  0  0  0  0  0  0  0  0  0
    2.7237  -20.8719   20.9129 N   0  0  0  0  0  0  0  0  0  0  0  0
    3.3597  -20.8639   22.2141 C   0  0  0  0  0  0  0  0  0  0  0  0
    4.7790  -20.4357   22.1283 C   0  0  0  0  0  0  0  0  0  0  0  0
    5.2367  -20.1494   20.9932 O   0  0  0  0  0  0  0  0  0  0  0  0
    5.6343  -20.3331   23.2386 N   0  0  0  0  0  0  0  0  0  0  0  0
    7.0475  -20.0430   23.1492 C   0  0  0  0  0  0  0  0  0  0  0  0
    7.5901  -19.9180   24.5101 C   0  0  0  0  0  0  0  0  0  0  0  0
    6.7551  -20.0917   25.5921 O   0  0  0  0  0  0  0  0  0  0  0  0
    8.7925  -19.6577   24.6995 O   0  0  0  0  0  0  0  0  0  0  0  0
  2  1  1  1
  3  2  1  0
  4  3  1  0
  5  6  1  0
  5  4  1  0
  7  6  1  0
  8  2  1  0
  8  9  2  0
 10  8  1  0
 11 10  1  0
 11 12  1  0
 12 14  1  0
 13 12  2  0
 14 15  1  0
 15 16  1  0
 16 17  1  0
 18 16  2  0
M  END
$$$$
