KGG.pdb
     RDKit          3D

 18 17  0  0  1  0  0  0  0  0999 V2000
    9.1246  -15.9791   22.6834 N   0  0  0  0  0  0  0  0  0  0  0  0
    8.0387  -15.1244   22.9207 C   0  0  1  0  0  0  0  0  0  0  0  0
    7.3961  -14.4250   21.7848 C   0  0  0  0  0  0  0  0  0  0  0  0
    8.2086  -14.0547   20.6249 C   0  0  0  0  0  0  0  0  0  0  0  0
    7.6825  -13.5269   19.3820 C   0  0  0  0  0  0  0  0  0  0  0  0
    8.4784  -13.2572   18.1843 C   0  0  0  0  0  0  0  0  0  0  0  0
    7.7568  -12.8789   16.9962 N   0  0  0  0  0  0  0  0  0  0  0  0
    6.9452  -15.8288   23.7160 C   0  0  0  0  0  0  0  0  0  0  0  0
    5.9127  -15.2034   24.0672 O   0  0  0  0  0  0  0  0  0  0  0  0
    7.0498  -17.1928   24.0832 N   0  0  0  0  0  0  0  0  0  0  0  0
    6.8644  -17.6220   25.4541 C   0  0  0  0  0  0  0  0  0  0  0  0
    8.0615  -18.3306   25.9737 C   0  0  0  0  0  0  0  0  0  0  0  0
    8.0170  -18.7701   27.1504 O   0  0  0  0  0  0  0  0  0  0  0  0
    9.2346  -18.5363   25.2278 N   0  0  0  0  0  0  0  0  0  0  0  0
   10.5672  -18.5008   25.7865 C   0  0  0  0  0  0  0  0  0  0  0  0
   11.2239  -17.2561   25.3606 C   0  0  0  0  0  0  0  0  0  0  0  0
   12.4615  -17.3137   24.7580 O   0  0  0  0  0  0  0  0  0  0  0  0
   10.6787  -16.1509   25.5362 O   0  0  0  0  0  0  0  0  0  0  0  0
  2  1  1  6
  3  2  1  0
  4  3  1  0
  5  6  1  0
  5  4  1  0
  7  6  1  0
  8  2  1  0
  8  9  2  0
 10  8  1  0
 11 10  1  0
 11 12  1  0
 12 14  1  0
 13 12  2  0
 14 15  1  0
 15 16  1  0
 16 17  1  0
 18 16  2  0
M  END
$$$$
