KGG.pdb
     RDKit          3D

 18 17  0  0  1  0  0  0  0  0999 V2000
    3.5510  -20.9290   20.9484 N   0  0  0  0  0  0  0  0  0  0  0  0
    3.5104  -19.6842   20.3045 C   0  0  1  0  0  0  0  0  0  0  0  0
    2.2025  -19.0639   19.9929 C   0  0  0  0  0  0  0  0  0  0  0  0
    1.0483  -19.9267   19.7357 C   0  0  0  0  0  0  0  0  0  0  0  0
   -0.2925  -19.4523   19.4578 C   0  0  0  0  0  0  0  0  0  0  0  0
   -1.4586  -20.3122   19.2544 C   0  0  0  0  0  0  0  0  0  0  0  0
   -2.7113  -19.6546   18.9828 N   0  0  0  0  0  0  0  0  0  0  0  0
    4.3537  -18.6520   21.0446 C   0  0  0  0  0  0  0  0  0  0  0  0
    4.4837  -17.4898   20.5831 O   0  0  0  0  0  0  0  0  0  0  0  0
    5.0120  -18.9588   22.2605 N   0  0  0  0  0  0  0  0  0  0  0  0
    5.8215  -17.9753   22.9500 C   0  0  0  0  0  0  0  0  0  0  0  0
    6.3261  -18.4924   24.2474 C   0  0  0  0  0  0  0  0  0  0  0  0
    5.7207  -18.1434   25.2922 O   0  0  0  0  0  0  0  0  0  0  0  0
    7.4362  -19.3451   24.3720 N   0  0  0  0  0  0  0  0  0  0  0  0
    7.8981  -19.8965   25.6256 C   0  0  0  0  0  0  0  0  0  0  0  0
    9.1042  -19.1677   26.0453 C   0  0  0  0  0  0  0  0  0  0  0  0
   10.2533  -19.2663   25.2916 O   0  0  0  0  0  0  0  0  0  0  0  0
    9.1029  -18.4628   27.0712 O   0  0  0  0  0  0  0  0  0  0  0  0
  2  1  1  1
  3  2  1  0
  4  3  1  0
  5  6  1  0
  5  4  1  0
  7  6  1  0
  8  2  1  0
  8  9  2  0
 10  8  1  0
 11 10  1  0
 11 12  1  0
 12 14  1  0
 13 12  2  0
 14 15  1  0
 15 16  1  0
 16 17  1  0
 18 16  2  0
M  END
$$$$
