KGG.pdb
     RDKit          3D

 18 17  0  0  1  0  0  0  0  0999 V2000
    2.3469  -25.9350   26.8664 N   0  0  0  0  0  0  0  0  0  0  0  0
    2.2981  -24.7384   27.5954 C   0  0  1  0  0  0  0  0  0  0  0  0
    3.4632  -23.8247   27.5809 C   0  0  0  0  0  0  0  0  0  0  0  0
    4.8101  -24.3897   27.4839 C   0  0  0  0  0  0  0  0  0  0  0  0
    6.0226  -23.6125   27.3231 C   0  0  0  0  0  0  0  0  0  0  0  0
    7.3784  -24.1615   27.3546 C   0  0  0  0  0  0  0  0  0  0  0  0
    8.4611  -23.2303   27.1650 N   0  0  0  0  0  0  0  0  0  0  0  0
    1.0599  -23.9240   27.2377 C   0  0  0  0  0  0  0  0  0  0  0  0
    0.8155  -22.8450   27.8349 O   0  0  0  0  0  0  0  0  0  0  0  0
    0.1527  -24.3458   26.2351 N   0  0  0  0  0  0  0  0  0  0  0  0
   -0.9905  -23.5381   25.8630 C   0  0  0  0  0  0  0  0  0  0  0  0
   -0.8060  -22.9065   24.5318 C   0  0  0  0  0  0  0  0  0  0  0  0
   -0.1405  -21.8417   24.4760 O   0  0  0  0  0  0  0  0  0  0  0  0
   -1.3306  -23.4296   23.3376 N   0  0  0  0  0  0  0  0  0  0  0  0
   -1.0009  -22.9324   22.0210 C   0  0  0  0  0  0  0  0  0  0  0  0
   -1.7509  -23.7087   21.0226 C   0  0  0  0  0  0  0  0  0  0  0  0
   -2.6045  -23.0581   20.1587 O   0  0  0  0  0  0  0  0  0  0  0  0
   -1.6263  -24.9448   20.9459 O   0  0  0  0  0  0  0  0  0  0  0  0
  2  1  1  6
  3  2  1  0
  4  3  1  0
  5  6  1  0
  5  4  1  0
  7  6  1  0
  8  2  1  0
  8  9  2  0
 10  8  1  0
 11 10  1  0
 11 12  1  0
 12 14  1  0
 13 12  2  0
 14 15  1  0
 15 16  1  0
 16 17  1  0
 18 16  2  0
M  END
$$$$
