KGG.pdb
     RDKit          3D

 18 17  0  0  1  0  0  0  0  0999 V2000
    8.6517  -17.1985   21.4029 N   0  0  0  0  0  0  0  0  0  0  0  0
    9.4314  -17.1658   20.2380 C   0  0  1  0  0  0  0  0  0  0  0  0
    9.4895  -15.9257   19.4310 C   0  0  0  0  0  0  0  0  0  0  0  0
    8.2687  -15.4360   18.7887 C   0  0  0  0  0  0  0  0  0  0  0  0
    8.2031  -14.2908   17.9031 C   0  0  0  0  0  0  0  0  0  0  0  0
    7.0241  -13.8965   17.1316 C   0  0  0  0  0  0  0  0  0  0  0  0
    7.1887  -12.8052   16.2057 N   0  0  0  0  0  0  0  0  0  0  0  0
   10.8627  -17.6092   20.5189 C   0  0  0  0  0  0  0  0  0  0  0  0
   11.7512  -17.4813   19.6387 O   0  0  0  0  0  0  0  0  0  0  0  0
   11.2392  -18.1732   21.7624 N   0  0  0  0  0  0  0  0  0  0  0  0
   12.5953  -18.6176   22.0103 C   0  0  0  0  0  0  0  0  0  0  0  0
   12.7232  -19.2760   23.3352 C   0  0  0  0  0  0  0  0  0  0  0  0
   13.8360  -19.2117   23.9161 O   0  0  0  0  0  0  0  0  0  0  0  0
   11.6758  -19.9629   23.9725 N   0  0  0  0  0  0  0  0  0  0  0  0
   11.1533  -19.6164   25.2748 C   0  0  0  0  0  0  0  0  0  0  0  0
   11.9169  -20.3455   26.2982 C   0  0  0  0  0  0  0  0  0  0  0  0
   11.5364  -20.2578   27.6195 O   0  0  0  0  0  0  0  0  0  0  0  0
   12.9019  -21.0409   25.9891 O   0  0  0  0  0  0  0  0  0  0  0  0
  2  1  1  1
  3  2  1  0
  4  3  1  0
  5  6  1  0
  5  4  1  0
  7  6  1  0
  8  2  1  0
  8  9  2  0
 10  8  1  0
 11 10  1  0
 11 12  1  0
 12 14  1  0
 13 12  2  0
 14 15  1  0
 15 16  1  0
 16 17  1  0
 18 16  2  0
M  END
$$$$
