KGG.pdb
     RDKit          3D

 18 17  0  0  1  0  0  0  0  0999 V2000
    6.3234  -15.9184   21.1124 N   0  0  0  0  0  0  0  0  0  0  0  0
    7.3783  -15.1037   21.5472 C   0  0  1  0  0  0  0  0  0  0  0  0
    7.3038  -13.6391   21.3432 C   0  0  0  0  0  0  0  0  0  0  0  0
    7.8415  -13.0636   20.1093 C   0  0  0  0  0  0  0  0  0  0  0  0
    7.7255  -13.6672   18.7969 C   0  0  0  0  0  0  0  0  0  0  0  0
    8.2187  -13.0706   17.5553 C   0  0  0  0  0  0  0  0  0  0  0  0
    8.1760  -13.8967   16.3758 N   0  0  0  0  0  0  0  0  0  0  0  0
    7.7019  -15.3561   23.0156 C   0  0  0  0  0  0  0  0  0  0  0  0
    6.8772  -15.0410   23.9105 O   0  0  0  0  0  0  0  0  0  0  0  0
    8.9246  -15.9457   23.4201 N   0  0  0  0  0  0  0  0  0  0  0  0
    9.1952  -16.2438   24.8114 C   0  0  0  0  0  0  0  0  0  0  0  0
   10.5814  -16.7394   25.0065 C   0  0  0  0  0  0  0  0  0  0  0  0
   10.9496  -17.0024   26.1792 O   0  0  0  0  0  0  0  0  0  0  0  0
   11.4994  -16.9297   23.9597 N   0  0  0  0  0  0  0  0  0  0  0  0
   12.7814  -17.5793   24.1138 C   0  0  0  0  0  0  0  0  0  0  0  0
   13.8390  -16.5617   24.0260 C   0  0  0  0  0  0  0  0  0  0  0  0
   14.8900  -16.7486   23.1549 O   0  0  0  0  0  0  0  0  0  0  0  0
   13.7994  -15.5337   24.7268 O   0  0  0  0  0  0  0  0  0  0  0  0
  2  1  1  1
  3  2  1  0
  4  3  1  0
  5  6  1  0
  5  4  1  0
  7  6  1  0
  8  2  1  0
  8  9  2  0
 10  8  1  0
 11 10  1  0
 11 12  1  0
 12 14  1  0
 13 12  2  0
 14 15  1  0
 15 16  1  0
 16 17  1  0
 18 16  2  0
M  END
$$$$
