KGG.pdb
     RDKit          3D

 18 17  0  0  1  0  0  0  0  0999 V2000
    9.2567  -15.2048   21.8533 N   0  0  0  0  0  0  0  0  0  0  0  0
    8.1659  -14.4937   22.3731 C   0  0  1  0  0  0  0  0  0  0  0  0
    7.0443  -14.1198   21.4817 C   0  0  0  0  0  0  0  0  0  0  0  0
    7.3143  -13.2882   20.3078 C   0  0  0  0  0  0  0  0  0  0  0  0
    7.8867  -13.7709   19.0670 C   0  0  0  0  0  0  0  0  0  0  0  0
    8.1168  -12.9511   17.8773 C   0  0  0  0  0  0  0  0  0  0  0  0
    8.6365  -13.6246   16.7147 N   0  0  0  0  0  0  0  0  0  0  0  0
    7.5803  -15.1953   23.5935 C   0  0  0  0  0  0  0  0  0  0  0  0
    6.5385  -14.7531   24.1408 O   0  0  0  0  0  0  0  0  0  0  0  0
    8.1787  -16.3533   24.1477 N   0  0  0  0  0  0  0  0  0  0  0  0
    8.5837  -16.4025   25.5374 C   0  0  0  0  0  0  0  0  0  0  0  0
   10.0611  -16.4568   25.6766 C   0  0  0  0  0  0  0  0  0  0  0  0
   10.5329  -16.7374   26.8074 O   0  0  0  0  0  0  0  0  0  0  0  0
   10.9564  -16.2136   24.6210 N   0  0  0  0  0  0  0  0  0  0  0  0
   12.3920  -16.3408   24.7301 C   0  0  0  0  0  0  0  0  0  0  0  0
   12.9905  -16.0701   23.4146 C   0  0  0  0  0  0  0  0  0  0  0  0
   12.1717  -15.8230   22.3345 O   0  0  0  0  0  0  0  0  0  0  0  0
   14.2259  -16.0607   23.2619 O   0  0  0  0  0  0  0  0  0  0  0  0
  2  1  1  6
  3  2  1  0
  4  3  1  0
  5  6  1  0
  5  4  1  0
  7  6  1  0
  8  2  1  0
  8  9  2  0
 10  8  1  0
 11 10  1  0
 11 12  1  0
 12 14  1  0
 13 12  2  0
 14 15  1  0
 15 16  1  0
 16 17  1  0
 18 16  2  0
M  END
$$$$
