KGG.pdb
     RDKit          3D

 18 17  0  0  1  0  0  0  0  0999 V2000
    5.9495  -19.2085   22.0543 N   0  0  0  0  0  0  0  0  0  0  0  0
    5.8861  -18.1728   21.1114 C   0  0  1  0  0  0  0  0  0  0  0  0
    4.5680  -17.6445   20.6922 C   0  0  0  0  0  0  0  0  0  0  0  0
    3.3515  -18.2934   21.1841 C   0  0  0  0  0  0  0  0  0  0  0  0
    2.3990  -19.0019   20.3529 C   0  0  0  0  0  0  0  0  0  0  0  0
    1.1067  -19.5126   20.8109 C   0  0  0  0  0  0  0  0  0  0  0  0
    0.2529  -20.1071   19.8145 N   0  0  0  0  0  0  0  0  0  0  0  0
    6.7526  -16.9905   21.5308 C   0  0  0  0  0  0  0  0  0  0  0  0
    6.8489  -15.9796   20.7897 O   0  0  0  0  0  0  0  0  0  0  0  0
    7.4702  -16.9867   22.7519 N   0  0  0  0  0  0  0  0  0  0  0  0
    8.2622  -15.8443   23.1588 C   0  0  0  0  0  0  0  0  0  0  0  0
    8.8149  -16.0190   24.5260 C   0  0  0  0  0  0  0  0  0  0  0  0
    9.5554  -15.1099   24.9788 O   0  0  0  0  0  0  0  0  0  0  0  0
    8.5580  -17.1373   25.3373 N   0  0  0  0  0  0  0  0  0  0  0  0
    9.0013  -17.2640   26.7072 C   0  0  0  0  0  0  0  0  0  0  0  0
   10.1422  -18.1905   26.7496 C   0  0  0  0  0  0  0  0  0  0  0  0
   10.6315  -18.6092   27.9676 O   0  0  0  0  0  0  0  0  0  0  0  0
   10.6730  -18.6024   25.7017 O   0  0  0  0  0  0  0  0  0  0  0  0
  2  1  1  1
  3  2  1  0
  4  3  1  0
  5  6  1  0
  5  4  1  0
  7  6  1  0
  8  2  1  0
  8  9  2  0
 10  8  1  0
 11 10  1  0
 11 12  1  0
 12 14  1  0
 13 12  2  0
 14 15  1  0
 15 16  1  0
 16 17  1  0
 18 16  2  0
M  END
$$$$
