EFQ.pdb
     RDKit          3D

 30 30  0  0  1  0  0  0  0  0999 V2000
   10.5620  -16.7129   19.3672 N   0  0  0  0  0  0  0  0  0  0  0  0
    9.3951  -16.9926   20.1599 C   0  0  1  0  0  0  0  0  0  0  0  0
    9.4000  -18.4589   20.5365 C   0  0  0  0  0  0  0  0  0  0  0  0
    9.5040  -19.3547   19.3400 C   0  0  0  0  0  0  0  0  0  0  0  0
    8.2051  -20.0490   19.1541 C   0  0  0  0  0  0  0  0  0  0  0  0
    7.2516  -19.8874   19.9553 O   0  0  0  0  0  0  0  0  0  0  0  0
    9.4306  -16.2174   21.4288 C   0  0  0  0  0  0  0  0  0  0  0  0
   10.5513  -16.0225   21.9804 O   0  0  0  0  0  0  0  0  0  0  0  0
    7.9989  -20.9055   18.0824 O   0  0  0  0  0  0  0  0  0  0  0  0
    8.2660  -15.6927   22.0389 N   0  0  0  0  0  0  0  0  0  0  0  0
    8.3307  -14.9912   23.2796 C   0  0  1  0  0  0  0  0  0  0  0  0
    7.1715  -14.0863   23.5255 C   0  0  0  0  0  0  0  0  0  0  0  0
    7.1323  -13.3682   24.7840 C   0  0  0  0  0  0  0  0  0  0  0  0
    6.2343  -13.7695   25.7482 C   0  0  0  0  0  0  0  0  0  0  0  0
    6.1520  -13.1157   26.9767 C   0  0  0  0  0  0  0  0  0  0  0  0
    6.9734  -12.0450   27.2567 C   0  0  0  0  0  0  0  0  0  0  0  0
    7.8599  -11.6708   26.2688 C   0  0  0  0  0  0  0  0  0  0  0  0
    7.9616  -12.2888   25.0641 C   0  0  0  0  0  0  0  0  0  0  0  0
    8.7264  -15.8490   24.4189 C   0  0  0  0  0  0  0  0  0  0  0  0
    8.0066  -16.8739   24.6901 O   0  0  0  0  0  0  0  0  0  0  0  0
   13.2810  -18.1277   23.9968 N   0  0  0  0  0  0  0  0  0  0  0  0
   12.5737  -19.0765   24.7481 C   0  0  0  0  0  0  0  0  0  0  0  0
   12.6680  -20.2891   24.5048 O   0  0  0  0  0  0  0  0  0  0  0  0
   11.6875  -18.6361   25.8633 C   0  0  0  0  0  0  0  0  0  0  0  0
   11.6444  -17.1420   25.9784 C   0  0  0  0  0  0  0  0  0  0  0  0
   10.2702  -16.6627   26.2352 C   0  0  2  0  0  0  0  0  0  0  0  0
    9.8433  -15.6579   25.2601 N   0  0  0  0  0  0  0  0  0  0  0  0
   10.0803  -16.2189   27.6119 C   0  0  0  0  0  0  0  0  0  0  0  0
   10.3332  -17.1690   28.6173 O   0  0  0  0  0  0  0  0  0  0  0  0
    9.7218  -15.1082   28.0285 O   0  0  0  0  0  0  0  0  0  0  0  0
  2  1  1  6
  3  2  1  0
  3  4  1  0
  4  5  1  0
  5  6  2  0
  5  9  1  0
  7  2  1  0
  7  8  2  0
 10  7  1  0
 11 19  1  0
 11 10  1  0
 11 12  1  1
 13 18  2  0
 13 12  1  0
 14 13  1  0
 15 14  2  0
 16 15  1  0
 16 17  2  0
 17 18  1  0
 19 27  1  0
 20 19  2  0
 22 21  1  0
 22 23  2  0
 24 25  1  0
 24 22  1  0
 26 25  1  1
 26 28  1  0
 27 26  1  0
 28 30  2  0
 28 29  1  0
M  END
$$$$
