EFQ.pdb
     RDKit          3D

 30 30  0  0  1  0  0  0  0  0999 V2000
    8.8233  -17.8768   19.6615 N   0  0  0  0  0  0  0  0  0  0  0  0
   10.1383  -17.6351   20.1913 C   0  0  1  0  0  0  0  0  0  0  0  0
   10.9829  -16.9768   19.1212 C   0  0  0  0  0  0  0  0  0  0  0  0
   10.6304  -17.4509   17.7443 C   0  0  0  0  0  0  0  0  0  0  0  0
   11.8584  -17.9751   17.0953 C   0  0  0  0  0  0  0  0  0  0  0  0
   11.9356  -19.1630   16.6948 O   0  0  0  0  0  0  0  0  0  0  0  0
   10.0714  -16.6883   21.3365 C   0  0  0  0  0  0  0  0  0  0  0  0
   11.1567  -16.2763   21.8371 O   0  0  0  0  0  0  0  0  0  0  0  0
   12.9695  -17.1659   16.9078 O   0  0  0  0  0  0  0  0  0  0  0  0
    8.8478  -16.2335   21.8840 N   0  0  0  0  0  0  0  0  0  0  0  0
    8.8175  -15.4061   23.0459 C   0  0  1  0  0  0  0  0  0  0  0  0
    7.5854  -14.5752   23.1664 C   0  0  0  0  0  0  0  0  0  0  0  0
    7.4424  -13.7495   24.3492 C   0  0  0  0  0  0  0  0  0  0  0  0
    8.0412  -12.5093   24.3679 C   0  0  0  0  0  0  0  0  0  0  0  0
    7.9377  -11.6729   25.4785 C   0  0  0  0  0  0  0  0  0  0  0  0
    7.2287  -12.0709   26.5912 C   0  0  0  0  0  0  0  0  0  0  0  0
    6.6426  -13.3181   26.5376 C   0  0  0  0  0  0  0  0  0  0  0  0
    6.7269  -14.1529   25.4702 C   0  0  0  0  0  0  0  0  0  0  0  0
    9.2388  -16.1092   24.2782 C   0  0  0  0  0  0  0  0  0  0  0  0
    8.4327  -16.9552   24.8041 O   0  0  0  0  0  0  0  0  0  0  0  0
   10.7864  -13.5691   29.0789 N   0  0  0  0  0  0  0  0  0  0  0  0
   10.6663  -14.8739   29.5767 C   0  0  0  0  0  0  0  0  0  0  0  0
   11.0031  -15.1527   30.7374 O   0  0  0  0  0  0  0  0  0  0  0  0
   10.1254  -15.9579   28.7076 C   0  0  0  0  0  0  0  0  0  0  0  0
    9.9402  -15.4931   27.2944 C   0  0  0  0  0  0  0  0  0  0  0  0
   10.6579  -16.3672   26.3432 C   0  0  2  0  0  0  0  0  0  0  0  0
   10.4672  -15.9476   24.9538 N   0  0  0  0  0  0  0  0  0  0  0  0
   10.3563  -17.7803   26.5447 C   0  0  0  0  0  0  0  0  0  0  0  0
   11.4527  -18.6269   26.7873 O   0  0  0  0  0  0  0  0  0  0  0  0
    9.2561  -18.3502   26.5314 O   0  0  0  0  0  0  0  0  0  0  0  0
  2  1  1  6
  3  2  1  0
  3  4  1  0
  4  5  1  0
  5  6  2  0
  5  9  1  0
  7  2  1  0
  7  8  2  0
 10  7  1  0
 11 19  1  0
 11 10  1  0
 11 12  1  1
 13 18  2  0
 13 12  1  0
 14 13  1  0
 15 14  2  0
 16 15  1  0
 16 17  2  0
 17 18  1  0
 19 27  1  0
 20 19  2  0
 22 21  1  0
 22 23  2  0
 24 25  1  0
 24 22  1  0
 26 25  1  1
 26 28  1  0
 27 26  1  0
 28 30  2  0
 28 29  1  0
M  END
$$$$
