EFQ.pdb
     RDKit          3D

 30 30  0  0  1  0  0  0  0  0999 V2000
    8.1544  -17.5746   20.1399 N   0  0  0  0  0  0  0  0  0  0  0  0
    9.4950  -17.4574   20.6472 C   0  0  1  0  0  0  0  0  0  0  0  0
   10.3914  -16.9370   19.5438 C   0  0  0  0  0  0  0  0  0  0  0  0
   10.7189  -17.9907   18.5303 C   0  0  0  0  0  0  0  0  0  0  0  0
   11.6693  -17.4192   17.5434 C   0  0  0  0  0  0  0  0  0  0  0  0
   12.8219  -17.8933   17.3883 O   0  0  0  0  0  0  0  0  0  0  0  0
    9.5471  -16.4653   21.7543 C   0  0  0  0  0  0  0  0  0  0  0  0
   10.6694  -16.2089   22.2763 O   0  0  0  0  0  0  0  0  0  0  0  0
   11.3147  -16.3350   16.7538 O   0  0  0  0  0  0  0  0  0  0  0  0
    8.3962  -15.8015   22.2428 N   0  0  0  0  0  0  0  0  0  0  0  0
    8.4349  -15.0411   23.4494 C   0  0  1  0  0  0  0  0  0  0  0  0
    7.3895  -13.9812   23.5318 C   0  0  0  0  0  0  0  0  0  0  0  0
    7.2431  -13.2755   24.7895 C   0  0  0  0  0  0  0  0  0  0  0  0
    8.0641  -12.1995   25.0450 C   0  0  0  0  0  0  0  0  0  0  0  0
    7.9685  -11.4841   26.2377 C   0  0  0  0  0  0  0  0  0  0  0  0
    7.0434  -11.8397   27.1954 C   0  0  0  0  0  0  0  0  0  0  0  0
    6.2383  -12.9213   26.9061 C   0  0  0  0  0  0  0  0  0  0  0  0
    6.3095  -13.6359   25.7537 C   0  0  0  0  0  0  0  0  0  0  0  0
    8.6004  -15.8730   24.6623 C   0  0  0  0  0  0  0  0  0  0  0  0
    7.6936  -16.7349   24.9397 O   0  0  0  0  0  0  0  0  0  0  0  0
   11.9636  -20.0340   25.1124 N   0  0  0  0  0  0  0  0  0  0  0  0
   12.6998  -18.9198   25.5383 C   0  0  0  0  0  0  0  0  0  0  0  0
   13.9322  -18.8744   25.4051 O   0  0  0  0  0  0  0  0  0  0  0  0
   12.0037  -17.7598   26.1649 C   0  0  0  0  0  0  0  0  0  0  0  0
   10.5281  -17.9978   26.2818 C   0  0  0  0  0  0  0  0  0  0  0  0
    9.8155  -16.7658   26.6799 C   0  0  2  0  0  0  0  0  0  0  0  0
    9.6800  -15.8216   25.5696 N   0  0  0  0  0  0  0  0  0  0  0  0
   10.3889  -16.1474   27.8703 C   0  0  0  0  0  0  0  0  0  0  0  0
   10.4345  -16.9422   29.0295 O   0  0  0  0  0  0  0  0  0  0  0  0
   10.8474  -15.0045   28.0087 O   0  0  0  0  0  0  0  0  0  0  0  0
  2  1  1  6
  3  2  1  0
  3  4  1  0
  4  5  1  0
  5  6  2  0
  5  9  1  0
  7  2  1  0
  7  8  2  0
 10  7  1  0
 11 19  1  0
 11 10  1  0
 11 12  1  1
 13 18  2  0
 13 12  1  0
 14 13  1  0
 15 14  2  0
 16 15  1  0
 16 17  2  0
 17 18  1  0
 19 27  1  0
 20 19  2  0
 22 21  1  0
 22 23  2  0
 24 25  1  0
 24 22  1  0
 26 25  1  6
 26 28  1  0
 27 26  1  0
 28 30  2  0
 28 29  1  0
M  END
$$$$
