EFQ.pdb
     RDKit          3D

 30 30  0  0  1  0  0  0  0  0999 V2000
    9.7552  -16.5134   19.1417 N   0  0  0  0  0  0  0  0  0  0  0  0
    9.3021  -17.2166   20.3115 C   0  0  1  0  0  0  0  0  0  0  0  0
   10.2454  -18.3687   20.5852 C   0  0  0  0  0  0  0  0  0  0  0  0
   10.5819  -19.1375   19.3441 C   0  0  0  0  0  0  0  0  0  0  0  0
   11.4907  -20.2529   19.7100 C   0  0  0  0  0  0  0  0  0  0  0  0
   12.6716  -20.3063   19.2857 O   0  0  0  0  0  0  0  0  0  0  0  0
    9.3453  -16.3266   21.5024 C   0  0  0  0  0  0  0  0  0  0  0  0
   10.4509  -15.8003   21.8169 O   0  0  0  0  0  0  0  0  0  0  0  0
   11.0640  -21.2808   20.5381 O   0  0  0  0  0  0  0  0  0  0  0  0
    8.2042  -16.0476   22.2922 N   0  0  0  0  0  0  0  0  0  0  0  0
    8.2880  -15.2164   23.4488 C   0  0  1  0  0  0  0  0  0  0  0  0
    7.0321  -14.4726   23.7531 C   0  0  0  0  0  0  0  0  0  0  0  0
    7.0057  -13.6564   24.9507 C   0  0  0  0  0  0  0  0  0  0  0  0
    6.3027  -14.1087   26.0454 C   0  0  0  0  0  0  0  0  0  0  0  0
    6.2420  -13.3655   27.2233 C   0  0  0  0  0  0  0  0  0  0  0  0
    6.8890  -12.1525   27.3202 C   0  0  0  0  0  0  0  0  0  0  0  0
    7.5829  -11.7309   26.2054 C   0  0  0  0  0  0  0  0  0  0  0  0
    7.6589  -12.4335   25.0461 C   0  0  0  0  0  0  0  0  0  0  0  0
    8.9349  -15.8801   24.6027 C   0  0  0  0  0  0  0  0  0  0  0  0
    8.4599  -16.9990   25.0083 O   0  0  0  0  0  0  0  0  0  0  0  0
   13.6735  -15.8947   23.9024 N   0  0  0  0  0  0  0  0  0  0  0  0
   13.5621  -17.1851   24.4384 C   0  0  0  0  0  0  0  0  0  0  0  0
   14.1078  -18.1567   23.8937 O   0  0  0  0  0  0  0  0  0  0  0  0
   12.7768  -17.4106   25.6854 C   0  0  0  0  0  0  0  0  0  0  0  0
   12.2035  -16.1313   26.2169 C   0  0  0  0  0  0  0  0  0  0  0  0
   10.7325  -16.2107   26.3357 C   0  0  2  0  0  0  0  0  0  0  0  0
   10.0511  -15.4033   25.3227 N   0  0  0  0  0  0  0  0  0  0  0  0
   10.2638  -15.9213   27.6866 C   0  0  0  0  0  0  0  0  0  0  0  0
   10.7828  -16.7264   28.7162 O   0  0  0  0  0  0  0  0  0  0  0  0
    9.4609  -15.0553   28.0623 O   0  0  0  0  0  0  0  0  0  0  0  0
  2  1  1  6
  3  2  1  0
  3  4  1  0
  4  5  1  0
  5  6  2  0
  5  9  1  0
  7  2  1  0
  7  8  2  0
 10  7  1  0
 11 19  1  0
 11 10  1  0
 11 12  1  1
 13 18  2  0
 13 12  1  0
 14 13  1  0
 15 14  2  0
 16 15  1  0
 16 17  2  0
 17 18  1  0
 19 27  1  0
 20 19  2  0
 22 21  1  0
 22 23  2  0
 24 25  1  0
 24 22  1  0
 26 25  1  1
 26 28  1  0
 27 26  1  0
 28 30  2  0
 28 29  1  0
M  END
$$$$
