EFQ.pdb
     RDKit          3D

 30 30  0  0  1  0  0  0  0  0999 V2000
    7.4327  -14.4754   19.7998 N   0  0  0  0  0  0  0  0  0  0  0  0
    7.2893  -15.6584   20.6050 C   0  0  1  0  0  0  0  0  0  0  0  0
    8.0394  -16.7943   19.9425 C   0  0  0  0  0  0  0  0  0  0  0  0
    7.6229  -16.9988   18.5179 C   0  0  0  0  0  0  0  0  0  0  0  0
    8.3030  -18.2103   17.9950 C   0  0  0  0  0  0  0  0  0  0  0  0
    8.8312  -19.0520   18.7630 O   0  0  0  0  0  0  0  0  0  0  0  0
    7.9039  -15.4536   21.9438 C   0  0  0  0  0  0  0  0  0  0  0  0
    9.0856  -15.0077   21.9985 O   0  0  0  0  0  0  0  0  0  0  0  0
    8.3791  -18.4557   16.6317 O   0  0  0  0  0  0  0  0  0  0  0  0
    7.2216  -15.7366   23.1514 N   0  0  0  0  0  0  0  0  0  0  0  0
    7.8373  -15.5179   24.4197 C   0  0  1  0  0  0  0  0  0  0  0  0
    6.8890  -15.0919   25.4885 C   0  0  0  0  0  0  0  0  0  0  0  0
    7.0116  -13.7406   25.9987 C   0  0  0  0  0  0  0  0  0  0  0  0
    6.0655  -12.8074   25.6367 C   0  0  0  0  0  0  0  0  0  0  0  0
    6.1334  -11.4930   26.0965 C   0  0  0  0  0  0  0  0  0  0  0  0
    7.1561  -11.0945   26.9299 C   0  0  0  0  0  0  0  0  0  0  0  0
    8.0851  -12.0547   27.2716 C   0  0  0  0  0  0  0  0  0  0  0  0
    8.0437  -13.3411   26.8390 C   0  0  0  0  0  0  0  0  0  0  0  0
    8.7937  -16.5818   24.7991 C   0  0  0  0  0  0  0  0  0  0  0  0
    8.3519  -17.7756   24.9463 O   0  0  0  0  0  0  0  0  0  0  0  0
   14.1184  -17.0460   22.5857 N   0  0  0  0  0  0  0  0  0  0  0  0
   14.2482  -16.3685   23.8060 C   0  0  0  0  0  0  0  0  0  0  0  0
   15.1572  -15.5450   23.9906 O   0  0  0  0  0  0  0  0  0  0  0  0
   13.2840  -16.6314   24.9124 C   0  0  0  0  0  0  0  0  0  0  0  0
   12.2389  -17.6281   24.5100 C   0  0  0  0  0  0  0  0  0  0  0  0
   11.0490  -17.5401   25.3820 C   0  0  2  0  0  0  0  0  0  0  0  0
   10.1784  -16.4208   25.0189 N   0  0  0  0  0  0  0  0  0  0  0  0
   11.3928  -17.5412   26.7998 C   0  0  0  0  0  0  0  0  0  0  0  0
   12.0510  -18.6856   27.2843 O   0  0  0  0  0  0  0  0  0  0  0  0
   11.1838  -16.6656   27.6514 O   0  0  0  0  0  0  0  0  0  0  0  0
  2  1  1  6
  3  2  1  0
  3  4  1  0
  4  5  1  0
  5  6  2  0
  5  9  1  0
  7  2  1  0
  7  8  2  0
 10  7  1  0
 11 19  1  0
 11 10  1  0
 11 12  1  1
 13 18  2  0
 13 12  1  0
 14 13  1  0
 15 14  2  0
 16 15  1  0
 16 17  2  0
 17 18  1  0
 19 27  1  0
 20 19  2  0
 22 21  1  0
 22 23  2  0
 24 25  1  0
 24 22  1  0
 26 25  1  6
 26 28  1  0
 27 26  1  0
 28 30  2  0
 28 29  1  0
M  END
$$$$
