EFQ.pdb
     RDKit          3D

 30 30  0  0  1  0  0  0  0  0999 V2000
    8.9036  -18.8292   20.2868 N   0  0  0  0  0  0  0  0  0  0  0  0
   10.1709  -18.1997   20.5436 C   0  0  1  0  0  0  0  0  0  0  0  0
   10.5575  -17.3696   19.3381 C   0  0  0  0  0  0  0  0  0  0  0  0
   10.7495  -18.2041   18.1087 C   0  0  0  0  0  0  0  0  0  0  0  0
   11.3123  -17.3453   17.0366 C   0  0  0  0  0  0  0  0  0  0  0  0
   10.5784  -16.8052   16.1722 O   0  0  0  0  0  0  0  0  0  0  0  0
   10.0638  -17.2674   21.6976 C   0  0  0  0  0  0  0  0  0  0  0  0
   11.0706  -16.5624   21.9934 O   0  0  0  0  0  0  0  0  0  0  0  0
   12.6766  -17.1083   16.9522 O   0  0  0  0  0  0  0  0  0  0  0  0
    8.8861  -17.1396   22.4725 N   0  0  0  0  0  0  0  0  0  0  0  0
    8.8495  -16.3136   23.6352 C   0  0  1  0  0  0  0  0  0  0  0  0
    7.7227  -15.3374   23.6501 C   0  0  0  0  0  0  0  0  0  0  0  0
    7.5555  -14.4834   22.4908 C   0  0  0  0  0  0  0  0  0  0  0  0
    6.8069  -14.9446   21.4306 C   0  0  0  0  0  0  0  0  0  0  0  0
    6.6132  -14.1671   20.2898 C   0  0  0  0  0  0  0  0  0  0  0  0
    7.1703  -12.9100   20.1961 C   0  0  0  0  0  0  0  0  0  0  0  0
    7.9132  -12.4808   21.2757 C   0  0  0  0  0  0  0  0  0  0  0  0
    8.1182  -13.2161   22.3986 C   0  0  0  0  0  0  0  0  0  0  0  0
    9.0651  -17.0620   24.8938 C   0  0  0  0  0  0  0  0  0  0  0  0
    8.0670  -17.6675   25.4224 O   0  0  0  0  0  0  0  0  0  0  0  0
   13.8910  -18.7875   25.2758 N   0  0  0  0  0  0  0  0  0  0  0  0
   12.8646  -19.5946   24.7659 C   0  0  0  0  0  0  0  0  0  0  0  0
   13.0036  -20.2150   23.7009 O   0  0  0  0  0  0  0  0  0  0  0  0
   11.5761  -19.7201   25.5054 C   0  0  0  0  0  0  0  0  0  0  0  0
   11.5764  -18.8998   26.7602 C   0  0  0  0  0  0  0  0  0  0  0  0
   10.4109  -17.9924   26.8088 C   0  0  2  0  0  0  0  0  0  0  0  0
   10.2847  -17.1880   25.5924 N   0  0  0  0  0  0  0  0  0  0  0  0
   10.3849  -17.1790   28.0197 C   0  0  0  0  0  0  0  0  0  0  0  0
   10.4012  -17.8740   29.2421 O   0  0  0  0  0  0  0  0  0  0  0  0
   10.3489  -15.9450   28.1269 O   0  0  0  0  0  0  0  0  0  0  0  0
  2  1  1  6
  3  2  1  0
  3  4  1  0
  4  5  1  0
  5  6  2  0
  5  9  1  0
  7  2  1  0
  7  8  2  0
 10  7  1  0
 11 19  1  0
 11 10  1  0
 11 12  1  1
 13 18  2  0
 13 12  1  0
 14 13  1  0
 15 14  2  0
 16 15  1  0
 16 17  2  0
 17 18  1  0
 19 27  1  0
 20 19  2  0
 22 21  1  0
 22 23  2  0
 24 25  1  0
 24 22  1  0
 26 25  1  6
 26 28  1  0
 27 26  1  0
 28 30  2  0
 28 29  1  0
M  END
$$$$
