EFQ.pdb
     RDKit          3D

 30 30  0  0  1  0  0  0  0  0999 V2000
    8.9612  -16.8542   19.6858 N   0  0  0  0  0  0  0  0  0  0  0  0
    9.1014  -17.5578   20.9323 C   0  0  1  0  0  0  0  0  0  0  0  0
   10.4026  -18.3314   20.9132 C   0  0  0  0  0  0  0  0  0  0  0  0
   10.3093  -19.5843   20.0968 C   0  0  0  0  0  0  0  0  0  0  0  0
   11.6158  -19.8133   19.4302 C   0  0  0  0  0  0  0  0  0  0  0  0
   11.8842  -20.9018   18.8640 O   0  0  0  0  0  0  0  0  0  0  0  0
    9.1830  -16.5973   22.0650 C   0  0  0  0  0  0  0  0  0  0  0  0
   10.3236  -16.1792   22.4148 O   0  0  0  0  0  0  0  0  0  0  0  0
   12.5910  -18.8268   19.4096 O   0  0  0  0  0  0  0  0  0  0  0  0
    8.0406  -16.1360   22.7621 N   0  0  0  0  0  0  0  0  0  0  0  0
    8.1575  -15.2428   23.8685 C   0  0  1  0  0  0  0  0  0  0  0  0
    7.0168  -14.2923   24.0034 C   0  0  0  0  0  0  0  0  0  0  0  0
    7.0317  -13.3769   25.1272 C   0  0  0  0  0  0  0  0  0  0  0  0
    6.1561  -13.5917   26.1685 C   0  0  0  0  0  0  0  0  0  0  0  0
    6.1256  -12.7435   27.2744 C   0  0  0  0  0  0  0  0  0  0  0  0
    6.9774  -11.6628   27.3518 C   0  0  0  0  0  0  0  0  0  0  0  0
    7.8403  -11.4783   26.2920 C   0  0  0  0  0  0  0  0  0  0  0  0
    7.8916  -12.2878   25.2031 C   0  0  0  0  0  0  0  0  0  0  0  0
    8.5868  -15.9096   25.1182 C   0  0  0  0  0  0  0  0  0  0  0  0
    7.8282  -16.8123   25.6200 O   0  0  0  0  0  0  0  0  0  0  0  0
   13.7443  -18.1118   25.7459 N   0  0  0  0  0  0  0  0  0  0  0  0
   12.6083  -18.9327   25.7202 C   0  0  0  0  0  0  0  0  0  0  0  0
   12.6461  -20.0670   25.2196 O   0  0  0  0  0  0  0  0  0  0  0  0
   11.3236  -18.4482   26.3010 C   0  0  0  0  0  0  0  0  0  0  0  0
   11.4634  -17.0740   26.8836 C   0  0  0  0  0  0  0  0  0  0  0  0
   10.1481  -16.4160   27.0287 C   0  0  2  0  0  0  0  0  0  0  0  0
    9.7753  -15.6549   25.8352 N   0  0  0  0  0  0  0  0  0  0  0  0
   10.0512  -15.6217   28.2486 C   0  0  0  0  0  0  0  0  0  0  0  0
   10.2774  -16.3014   29.4588 O   0  0  0  0  0  0  0  0  0  0  0  0
    9.7931  -14.4161   28.3732 O   0  0  0  0  0  0  0  0  0  0  0  0
  2  1  1  6
  3  2  1  0
  3  4  1  0
  4  5  1  0
  5  6  2  0
  5  9  1  0
  7  2  1  0
  7  8  2  0
 10  7  1  0
 11 19  1  0
 11 10  1  0
 11 12  1  1
 13 18  2  0
 13 12  1  0
 14 13  1  0
 15 14  2  0
 16 15  1  0
 16 17  2  0
 17 18  1  0
 19 27  1  0
 20 19  2  0
 22 21  1  0
 22 23  2  0
 24 25  1  0
 24 22  1  0
 26 25  1  6
 26 28  1  0
 27 26  1  0
 28 30  2  0
 28 29  1  0
M  END
$$$$
