EFQ.pdb
     RDKit          3D

 30 30  0  0  1  0  0  0  0  0999 V2000
    6.9300  -17.9301   20.2092 N   0  0  0  0  0  0  0  0  0  0  0  0
    8.3295  -17.7109   20.4572 C   0  0  1  0  0  0  0  0  0  0  0  0
    8.9959  -17.2948   19.1631 C   0  0  0  0  0  0  0  0  0  0  0  0
    8.4377  -18.0182   17.9758 C   0  0  0  0  0  0  0  0  0  0  0  0
    9.1180  -17.5191   16.7544 C   0  0  0  0  0  0  0  0  0  0  0  0
    8.7615  -17.8835   15.6066 O   0  0  0  0  0  0  0  0  0  0  0  0
    8.5178  -16.5946   21.4220 C   0  0  0  0  0  0  0  0  0  0  0  0
    9.5237  -15.8424   21.2787 O   0  0  0  0  0  0  0  0  0  0  0  0
   10.1776  -16.6275   16.8395 O   0  0  0  0  0  0  0  0  0  0  0  0
    7.6204  -16.3435   22.4876 N   0  0  0  0  0  0  0  0  0  0  0  0
    7.9303  -15.3987   23.5108 C   0  0  1  0  0  0  0  0  0  0  0  0
    6.7722  -14.5591   23.9316 C   0  0  0  0  0  0  0  0  0  0  0  0
    6.9650  -13.6565   25.0492 C   0  0  0  0  0  0  0  0  0  0  0  0
    7.1273  -12.3125   24.7951 C   0  0  0  0  0  0  0  0  0  0  0  0
    7.3171  -11.3985   25.8305 C   0  0  0  0  0  0  0  0  0  0  0  0
    7.3468  -11.8219   27.1417 C   0  0  0  0  0  0  0  0  0  0  0  0
    7.1810  -13.1736   27.3590 C   0  0  0  0  0  0  0  0  0  0  0  0
    6.9946  -14.0857   26.3706 C   0  0  0  0  0  0  0  0  0  0  0  0
    8.7407  -15.9689   24.6102 C   0  0  0  0  0  0  0  0  0  0  0  0
    8.3318  -17.0436   25.1759 O   0  0  0  0  0  0  0  0  0  0  0  0
   14.8450  -15.4608   23.9839 N   0  0  0  0  0  0  0  0  0  0  0  0
   14.7521  -16.4810   24.9407 C   0  0  0  0  0  0  0  0  0  0  0  0
   15.7589  -17.0945   25.3261 O   0  0  0  0  0  0  0  0  0  0  0  0
   13.4261  -16.8474   25.5153 C   0  0  0  0  0  0  0  0  0  0  0  0
   12.3405  -15.9367   25.0257 C   0  0  0  0  0  0  0  0  0  0  0  0
   11.0308  -16.3031   25.6042 C   0  0  2  0  0  0  0  0  0  0  0  0
    9.9502  -15.4455   25.1147 N   0  0  0  0  0  0  0  0  0  0  0  0
   11.0642  -16.3805   27.0607 C   0  0  0  0  0  0  0  0  0  0  0  0
   11.8915  -17.3723   27.6169 O   0  0  0  0  0  0  0  0  0  0  0  0
   10.4580  -15.6878   27.8903 O   0  0  0  0  0  0  0  0  0  0  0  0
  2  1  1  6
  3  2  1  0
  3  4  1  0
  4  5  1  0
  5  6  2  0
  5  9  1  0
  7  2  1  0
  7  8  2  0
 10  7  1  0
 11 19  1  0
 11 10  1  0
 11 12  1  1
 13 18  2  0
 13 12  1  0
 14 13  1  0
 15 14  2  0
 16 15  1  0
 16 17  2  0
 17 18  1  0
 19 27  1  0
 20 19  2  0
 22 21  1  0
 22 23  2  0
 24 25  1  0
 24 22  1  0
 26 25  1  1
 26 28  1  0
 27 26  1  0
 28 30  2  0
 28 29  1  0
M  END
$$$$
