EFQ.pdb
     RDKit          3D

 30 30  0  0  1  0  0  0  0  0999 V2000
   10.3511  -16.8103   19.9238 N   0  0  0  0  0  0  0  0  0  0  0  0
    9.5601  -17.3287   21.0073 C   0  0  1  0  0  0  0  0  0  0  0  0
   10.1948  -18.6090   21.5069 C   0  0  0  0  0  0  0  0  0  0  0  0
    9.9424  -19.7665   20.5897 C   0  0  0  0  0  0  0  0  0  0  0  0
    9.6201  -20.9602   21.4114 C   0  0  0  0  0  0  0  0  0  0  0  0
   10.4691  -21.8605   21.6261 O   0  0  0  0  0  0  0  0  0  0  0  0
    9.5512  -16.3737   22.1476 C   0  0  0  0  0  0  0  0  0  0  0  0
   10.6472  -15.8513   22.4999 O   0  0  0  0  0  0  0  0  0  0  0  0
    8.3624  -21.1231   21.9738 O   0  0  0  0  0  0  0  0  0  0  0  0
    8.3710  -16.0293   22.8493 N   0  0  0  0  0  0  0  0  0  0  0  0
    8.3956  -15.0965   23.9286 C   0  0  1  0  0  0  0  0  0  0  0  0
    7.1239  -14.3379   24.1032 C   0  0  0  0  0  0  0  0  0  0  0  0
    7.0269  -13.4365   25.2342 C   0  0  0  0  0  0  0  0  0  0  0  0
    6.1788  -13.7614   26.2696 C   0  0  0  0  0  0  0  0  0  0  0  0
    6.0447  -12.9319   27.3820 C   0  0  0  0  0  0  0  0  0  0  0  0
    6.7631  -11.7592   27.4718 C   0  0  0  0  0  0  0  0  0  0  0  0
    7.6022  -11.4657   26.4175 C   0  0  0  0  0  0  0  0  0  0  0  0
    7.7524  -12.2545   25.3226 C   0  0  0  0  0  0  0  0  0  0  0  0
    8.9873  -15.6484   25.1679 C   0  0  0  0  0  0  0  0  0  0  0  0
    8.4626  -16.6999   25.6790 O   0  0  0  0  0  0  0  0  0  0  0  0
   14.1529  -15.6684   24.5592 N   0  0  0  0  0  0  0  0  0  0  0  0
   13.6990  -16.9714   24.8058 C   0  0  0  0  0  0  0  0  0  0  0  0
   14.1333  -17.9366   24.1591 O   0  0  0  0  0  0  0  0  0  0  0  0
   12.6757  -17.2185   25.8616 C   0  0  0  0  0  0  0  0  0  0  0  0
   12.2899  -15.9520   26.5650 C   0  0  0  0  0  0  0  0  0  0  0  0
   10.8406  -15.9174   26.8522 C   0  0  2  0  0  0  0  0  0  0  0  0
   10.0995  -15.1305   25.8651 N   0  0  0  0  0  0  0  0  0  0  0  0
   10.5511  -15.5078   28.2222 C   0  0  0  0  0  0  0  0  0  0  0  0
   10.4040  -14.1272   28.4458 O   0  0  0  0  0  0  0  0  0  0  0  0
   10.4153  -16.2126   29.2323 O   0  0  0  0  0  0  0  0  0  0  0  0
  2  1  1  6
  3  2  1  0
  3  4  1  0
  4  5  1  0
  5  6  2  0
  5  9  1  0
  7  2  1  0
  7  8  2  0
 10  7  1  0
 11 19  1  0
 11 10  1  0
 11 12  1  1
 13 18  2  0
 13 12  1  0
 14 13  1  0
 15 14  2  0
 16 15  1  0
 16 17  2  0
 17 18  1  0
 19 27  1  0
 20 19  2  0
 22 21  1  0
 22 23  2  0
 24 25  1  0
 24 22  1  0
 26 25  1  6
 26 28  1  0
 27 26  1  0
 28 30  2  0
 28 29  1  0
M  END
$$$$
