EFQ.pdb
     RDKit          3D

 30 30  0  0  1  0  0  0  0  0999 V2000
    8.4912  -18.2804   20.7225 N   0  0  0  0  0  0  0  0  0  0  0  0
    9.7074  -17.5131   20.7069 C   0  0  1  0  0  0  0  0  0  0  0  0
    9.9232  -16.9675   19.3113 C   0  0  0  0  0  0  0  0  0  0  0  0
    9.5891  -17.9699   18.2490 C   0  0  0  0  0  0  0  0  0  0  0  0
    9.9839  -17.4123   16.9310 C   0  0  0  0  0  0  0  0  0  0  0  0
    9.7464  -18.0233   15.8598 O   0  0  0  0  0  0  0  0  0  0  0  0
    9.5959  -16.3434   21.6189 C   0  0  0  0  0  0  0  0  0  0  0  0
   10.5819  -15.5574   21.7081 O   0  0  0  0  0  0  0  0  0  0  0  0
   10.6327  -16.1897   16.8369 O   0  0  0  0  0  0  0  0  0  0  0  0
    8.4361  -16.0779   22.3858 N   0  0  0  0  0  0  0  0  0  0  0  0
    8.4426  -15.1015   23.4261 C   0  0  1  0  0  0  0  0  0  0  0  0
    7.1032  -14.5126   23.7131 C   0  0  0  0  0  0  0  0  0  0  0  0
    7.0079  -13.5489   24.7916 C   0  0  0  0  0  0  0  0  0  0  0  0
    6.2931  -13.8856   25.9198 C   0  0  0  0  0  0  0  0  0  0  0  0
    6.1672  -12.9983   26.9877 C   0  0  0  0  0  0  0  0  0  0  0  0
    6.7596  -11.7549   26.9387 C   0  0  0  0  0  0  0  0  0  0  0  0
    7.4671  -11.4517   25.7945 C   0  0  0  0  0  0  0  0  0  0  0  0
    7.6061  -12.2956   24.7400 C   0  0  0  0  0  0  0  0  0  0  0  0
    9.2290  -15.5114   24.6109 C   0  0  0  0  0  0  0  0  0  0  0  0
    9.7850  -14.6000   25.3196 O   0  0  0  0  0  0  0  0  0  0  0  0
    8.1547  -19.3698   29.1484 N   0  0  0  0  0  0  0  0  0  0  0  0
    8.2999  -19.9367   27.8746 C   0  0  0  0  0  0  0  0  0  0  0  0
    7.8311  -21.0544   27.6112 O   0  0  0  0  0  0  0  0  0  0  0  0
    9.0284  -19.1952   26.8059 C   0  0  0  0  0  0  0  0  0  0  0  0
    9.4848  -17.8481   27.2801 C   0  0  0  0  0  0  0  0  0  0  0  0
   10.2538  -17.1427   26.2336 C   0  0  2  0  0  0  0  0  0  0  0  0
    9.4359  -16.8333   25.0597 N   0  0  0  0  0  0  0  0  0  0  0  0
   11.4896  -17.8350   25.8847 C   0  0  0  0  0  0  0  0  0  0  0  0
   12.4463  -17.9635   26.9073 O   0  0  0  0  0  0  0  0  0  0  0  0
   11.8226  -18.3326   24.7997 O   0  0  0  0  0  0  0  0  0  0  0  0
  2  1  1  6
  3  2  1  0
  3  4  1  0
  4  5  1  0
  5  6  2  0
  5  9  1  0
  7  2  1  0
  7  8  2  0
 10  7  1  0
 11 19  1  0
 11 10  1  0
 11 12  1  1
 13 18  2  0
 13 12  1  0
 14 13  1  0
 15 14  2  0
 16 15  1  0
 16 17  2  0
 17 18  1  0
 19 27  1  0
 20 19  2  0
 22 21  1  0
 22 23  2  0
 24 25  1  0
 24 22  1  0
 26 25  1  1
 26 28  1  0
 27 26  1  0
 28 30  2  0
 28 29  1  0
M  END
$$$$
