EFQ.pdb
     RDKit          3D

 30 30  0  0  1  0  0  0  0  0999 V2000
    9.1420  -17.8238   20.4595 N   0  0  0  0  0  0  0  0  0  0  0  0
   10.2779  -17.8165   21.3416 C   0  0  1  0  0  0  0  0  0  0  0  0
   11.5038  -17.4010   20.5565 C   0  0  0  0  0  0  0  0  0  0  0  0
   11.1666  -16.9540   19.1668 C   0  0  0  0  0  0  0  0  0  0  0  0
   11.4549  -18.0675   18.2283 C   0  0  0  0  0  0  0  0  0  0  0  0
   12.4509  -18.8170   18.3819 O   0  0  0  0  0  0  0  0  0  0  0  0
   10.0911  -16.8106   22.4213 C   0  0  0  0  0  0  0  0  0  0  0  0
   11.0980  -16.4755   23.1083 O   0  0  0  0  0  0  0  0  0  0  0  0
   10.6288  -18.3200   17.1427 O   0  0  0  0  0  0  0  0  0  0  0  0
    8.8380  -16.2177   22.7075 N   0  0  0  0  0  0  0  0  0  0  0  0
    8.6648  -15.3562   23.8315 C   0  0  1  0  0  0  0  0  0  0  0  0
    7.6469  -14.2865   23.6243 C   0  0  0  0  0  0  0  0  0  0  0  0
    7.3324  -13.4285   24.7494 C   0  0  0  0  0  0  0  0  0  0  0  0
    8.0565  -12.2695   24.9216 C   0  0  0  0  0  0  0  0  0  0  0  0
    7.7984  -11.4069   25.9859 C   0  0  0  0  0  0  0  0  0  0  0  0
    6.8054  -11.6962   26.8968 C   0  0  0  0  0  0  0  0  0  0  0  0
    6.1009  -12.8641   26.6936 C   0  0  0  0  0  0  0  0  0  0  0  0
    6.3306  -13.7222   25.6667 C   0  0  0  0  0  0  0  0  0  0  0  0
    8.5789  -16.0812   25.1189 C   0  0  0  0  0  0  0  0  0  0  0  0
    7.5814  -16.8615   25.3146 O   0  0  0  0  0  0  0  0  0  0  0  0
   10.3069  -20.8663   25.7203 N   0  0  0  0  0  0  0  0  0  0  0  0
   11.3901  -19.9839   25.8347 C   0  0  0  0  0  0  0  0  0  0  0  0
   12.5361  -20.3270   25.5070 O   0  0  0  0  0  0  0  0  0  0  0  0
   11.1772  -18.6042   26.3582 C   0  0  0  0  0  0  0  0  0  0  0  0
    9.7462  -18.3723   26.7402 C   0  0  0  0  0  0  0  0  0  0  0  0
    9.5434  -17.0021   27.2557 C   0  0  2  0  0  0  0  0  0  0  0  0
    9.5034  -16.0075   26.1825 N   0  0  0  0  0  0  0  0  0  0  0  0
   10.4952  -16.6521   28.3045 C   0  0  0  0  0  0  0  0  0  0  0  0
   10.5077  -17.4798   29.4413 O   0  0  0  0  0  0  0  0  0  0  0  0
   11.3057  -15.7153   28.3380 O   0  0  0  0  0  0  0  0  0  0  0  0
  2  1  1  6
  3  2  1  0
  3  4  1  0
  4  5  1  0
  5  6  2  0
  5  9  1  0
  7  2  1  0
  7  8  2  0
 10  7  1  0
 11 19  1  0
 11 10  1  0
 11 12  1  6
 13 18  2  0
 13 12  1  0
 14 13  1  0
 15 14  2  0
 16 15  1  0
 16 17  2  0
 17 18  1  0
 19 27  1  0
 20 19  2  0
 22 21  1  0
 22 23  2  0
 24 25  1  0
 24 22  1  0
 26 25  1  6
 26 28  1  0
 27 26  1  0
 28 30  2  0
 28 29  1  0
M  END
$$$$
