EFQ.pdb
     RDKit          3D

 30 30  0  0  1  0  0  0  0  0999 V2000
    9.9975  -16.6022   19.3219 N   0  0  0  0  0  0  0  0  0  0  0  0
    9.0073  -16.9500   20.3053 C   0  0  1  0  0  0  0  0  0  0  0  0
    9.2602  -18.3674   20.7732 C   0  0  0  0  0  0  0  0  0  0  0  0
    9.4158  -19.3257   19.6320 C   0  0  0  0  0  0  0  0  0  0  0  0
    8.5099  -20.4802   19.8564 C   0  0  0  0  0  0  0  0  0  0  0  0
    8.6800  -21.2740   20.8147 O   0  0  0  0  0  0  0  0  0  0  0  0
    9.1279  -16.0699   21.4983 C   0  0  0  0  0  0  0  0  0  0  0  0
   10.2854  -15.7989   21.9280 O   0  0  0  0  0  0  0  0  0  0  0  0
    7.4379  -20.7233   19.0100 O   0  0  0  0  0  0  0  0  0  0  0  0
    8.0042  -15.5276   22.1668 N   0  0  0  0  0  0  0  0  0  0  0  0
    8.1439  -14.8214   23.3987 C   0  0  1  0  0  0  0  0  0  0  0  0
    6.9286  -14.0565   23.8000 C   0  0  0  0  0  0  0  0  0  0  0  0
    6.9559  -13.3691   25.0759 C   0  0  0  0  0  0  0  0  0  0  0  0
    6.1733  -13.8476   26.1033 C   0  0  0  0  0  0  0  0  0  0  0  0
    6.1591  -13.2265   27.3513 C   0  0  0  0  0  0  0  0  0  0  0  0
    6.9336  -12.1113   27.5874 C   0  0  0  0  0  0  0  0  0  0  0  0
    7.7045  -11.6601   26.5367 C   0  0  0  0  0  0  0  0  0  0  0  0
    7.7378  -12.2447   25.3117 C   0  0  0  0  0  0  0  0  0  0  0  0
    8.7762  -15.6260   24.4679 C   0  0  0  0  0  0  0  0  0  0  0  0
    8.2767  -16.7731   24.7451 O   0  0  0  0  0  0  0  0  0  0  0  0
   15.2229  -17.1675   27.1715 N   0  0  0  0  0  0  0  0  0  0  0  0
   14.2380  -17.3676   26.1944 C   0  0  0  0  0  0  0  0  0  0  0  0
   14.5410  -17.6186   25.0181 O   0  0  0  0  0  0  0  0  0  0  0  0
   12.7952  -17.2803   26.5597 C   0  0  0  0  0  0  0  0  0  0  0  0
   12.0655  -16.2931   25.6991 C   0  0  0  0  0  0  0  0  0  0  0  0
   10.6345  -16.2197   26.0612 C   0  0  2  0  0  0  0  0  0  0  0  0
    9.9030  -15.2588   25.2341 N   0  0  0  0  0  0  0  0  0  0  0  0
   10.4290  -15.9966   27.4882 C   0  0  0  0  0  0  0  0  0  0  0  0
   10.9530  -16.9706   28.3568 O   0  0  0  0  0  0  0  0  0  0  0  0
    9.8491  -15.0584   28.0530 O   0  0  0  0  0  0  0  0  0  0  0  0
  2  1  1  6
  3  2  1  0
  3  4  1  0
  4  5  1  0
  5  6  2  0
  5  9  1  0
  7  2  1  0
  7  8  2  0
 10  7  1  0
 11 19  1  0
 11 10  1  0
 11 12  1  1
 13 18  2  0
 13 12  1  0
 14 13  1  0
 15 14  2  0
 16 15  1  0
 16 17  2  0
 17 18  1  0
 19 27  1  0
 20 19  2  0
 22 21  1  0
 22 23  2  0
 24 25  1  0
 24 22  1  0
 26 25  1  1
 26 28  1  0
 27 26  1  0
 28 30  2  0
 28 29  1  0
M  END
$$$$
