EFQ.pdb
     RDKit          3D

 30 30  0  0  1  0  0  0  0  0999 V2000
    8.3856  -14.7130   18.3779 N   0  0  0  0  0  0  0  0  0  0  0  0
    8.4126  -15.8053   19.3130 C   0  0  1  0  0  0  0  0  0  0  0  0
    9.4635  -16.8013   18.8708 C   0  0  0  0  0  0  0  0  0  0  0  0
    8.9070  -18.1827   18.7070 C   0  0  0  0  0  0  0  0  0  0  0  0
   10.0074  -19.0907   18.2966 C   0  0  0  0  0  0  0  0  0  0  0  0
   10.3808  -19.1741   17.1003 O   0  0  0  0  0  0  0  0  0  0  0  0
    8.8099  -15.3241   20.6631 C   0  0  0  0  0  0  0  0  0  0  0  0
    9.8596  -14.6272   20.7656 O   0  0  0  0  0  0  0  0  0  0  0  0
   10.6651  -19.8833   19.2261 O   0  0  0  0  0  0  0  0  0  0  0  0
    8.0632  -15.6143   21.8302 N   0  0  0  0  0  0  0  0  0  0  0  0
    8.2940  -14.9135   23.0514 C   0  0  1  0  0  0  0  0  0  0  0  0
    7.0612  -14.3400   23.6634 C   0  0  0  0  0  0  0  0  0  0  0  0
    7.2069  -13.5888   24.8945 C   0  0  0  0  0  0  0  0  0  0  0  0
    7.8161  -12.3543   24.8492 C   0  0  0  0  0  0  0  0  0  0  0  0
    7.9840  -11.5880   26.0016 C   0  0  0  0  0  0  0  0  0  0  0  0
    7.5408  -12.0515   27.2215 C   0  0  0  0  0  0  0  0  0  0  0  0
    6.9358  -13.2907   27.2296 C   0  0  0  0  0  0  0  0  0  0  0  0
    6.7592  -14.0581   26.1235 C   0  0  0  0  0  0  0  0  0  0  0  0
    9.1947  -15.6328   23.9796 C   0  0  0  0  0  0  0  0  0  0  0  0
    9.0652  -16.9025   24.0947 O   0  0  0  0  0  0  0  0  0  0  0  0
    9.3991  -16.3794   29.0389 N   0  0  0  0  0  0  0  0  0  0  0  0
   10.7921  -16.4841   29.1549 C   0  0  0  0  0  0  0  0  0  0  0  0
   11.3136  -17.1279   30.0779 O   0  0  0  0  0  0  0  0  0  0  0  0
   11.6768  -15.8150   28.1588 C   0  0  0  0  0  0  0  0  0  0  0  0
   10.8836  -15.0829   27.1183 C   0  0  0  0  0  0  0  0  0  0  0  0
   10.8980  -15.8023   25.8275 C   0  0  2  0  0  0  0  0  0  0  0  0
   10.2115  -15.0571   24.7710 N   0  0  0  0  0  0  0  0  0  0  0  0
   10.4151  -17.1738   25.9457 C   0  0  0  0  0  0  0  0  0  0  0  0
    9.0888  -17.3358   26.3841 O   0  0  0  0  0  0  0  0  0  0  0  0
   11.0155  -18.2325   25.7126 O   0  0  0  0  0  0  0  0  0  0  0  0
  2  1  1  6
  3  2  1  0
  3  4  1  0
  4  5  1  0
  5  6  2  0
  5  9  1  0
  7  2  1  0
  7  8  2  0
 10  7  1  0
 11 19  1  0
 11 10  1  0
 11 12  1  1
 13 18  2  0
 13 12  1  0
 14 13  1  0
 15 14  2  0
 16 15  1  0
 16 17  2  0
 17 18  1  0
 19 27  1  0
 20 19  2  0
 22 21  1  0
 22 23  2  0
 24 25  1  0
 24 22  1  0
 26 25  1  1
 26 28  1  0
 27 26  1  0
 28 30  2  0
 28 29  1  0
M  END
$$$$
