EFQ.pdb
     RDKit          3D

 30 30  0  0  1  0  0  0  0  0999 V2000
    8.8061  -16.2698   18.5181 N   0  0  0  0  0  0  0  0  0  0  0  0
    8.2017  -16.8677   19.6781 C   0  0  1  0  0  0  0  0  0  0  0  0
    8.8078  -18.2382   19.8933 C   0  0  0  0  0  0  0  0  0  0  0  0
    9.7749  -18.6106   18.8113 C   0  0  0  0  0  0  0  0  0  0  0  0
   10.2427  -19.9988   19.0517 C   0  0  0  0  0  0  0  0  0  0  0  0
   11.4652  -20.2848   19.0868 O   0  0  0  0  0  0  0  0  0  0  0  0
    8.5014  -16.0638   20.8931 C   0  0  0  0  0  0  0  0  0  0  0  0
    9.6669  -15.5931   21.0273 O   0  0  0  0  0  0  0  0  0  0  0  0
    9.3402  -21.0341   19.2468 O   0  0  0  0  0  0  0  0  0  0  0  0
    7.5385  -15.8070   21.8985 N   0  0  0  0  0  0  0  0  0  0  0  0
    7.8700  -15.0630   23.0698 C   0  0  1  0  0  0  0  0  0  0  0  0
    6.7056  -14.3822   23.7053 C   0  0  0  0  0  0  0  0  0  0  0  0
    6.9278  -13.7038   24.9668 C   0  0  0  0  0  0  0  0  0  0  0  0
    7.2787  -12.3720   24.9501 C   0  0  0  0  0  0  0  0  0  0  0  0
    7.5054  -11.6690   26.1324 C   0  0  0  0  0  0  0  0  0  0  0  0
    7.3826  -12.2952   27.3540 C   0  0  0  0  0  0  0  0  0  0  0  0
    7.0300  -13.6282   27.3330 C   0  0  0  0  0  0  0  0  0  0  0  0
    6.8033  -14.3372   26.1974 C   0  0  0  0  0  0  0  0  0  0  0  0
    8.7679  -15.7917   23.9934 C   0  0  0  0  0  0  0  0  0  0  0  0
    8.4424  -16.9782   24.3518 O   0  0  0  0  0  0  0  0  0  0  0  0
   15.7842  -16.7953   25.9089 N   0  0  0  0  0  0  0  0  0  0  0  0
   14.7295  -16.4618   25.0479 C   0  0  0  0  0  0  0  0  0  0  0  0
   14.9377  -15.8855   23.9695 O   0  0  0  0  0  0  0  0  0  0  0  0
   13.3260  -16.7993   25.4208 C   0  0  0  0  0  0  0  0  0  0  0  0
   12.3460  -15.8453   24.8067 C   0  0  0  0  0  0  0  0  0  0  0  0
   10.9570  -16.1926   25.1731 C   0  0  2  0  0  0  0  0  0  0  0  0
    9.9791  -15.3102   24.5345 N   0  0  0  0  0  0  0  0  0  0  0  0
   10.7652  -16.2845   26.6164 C   0  0  0  0  0  0  0  0  0  0  0  0
   11.4965  -17.2835   27.2835 O   0  0  0  0  0  0  0  0  0  0  0  0
   10.0385  -15.5990   27.3496 O   0  0  0  0  0  0  0  0  0  0  0  0
  2  1  1  6
  3  2  1  0
  3  4  1  0
  4  5  1  0
  5  6  2  0
  5  9  1  0
  7  2  1  0
  7  8  2  0
 10  7  1  0
 11 19  1  0
 11 10  1  0
 11 12  1  1
 13 18  2  0
 13 12  1  0
 14 13  1  0
 15 14  2  0
 16 15  1  0
 16 17  2  0
 17 18  1  0
 19 27  1  0
 20 19  2  0
 22 21  1  0
 22 23  2  0
 24 25  1  0
 24 22  1  0
 26 25  1  1
 26 28  1  0
 27 26  1  0
 28 30  2  0
 28 29  1  0
M  END
$$$$
