WPY.pdb
     RDKit          3D

 34 37  0  0  1  0  0  0  0  0999 V2000
    5.9637  -17.6668   24.4020 N   0  0  0  0  0  0  0  0  0  0  0  0
    6.6269  -16.4987   23.9414 C   0  0  1  0  0  0  0  0  0  0  0  0
    7.2935  -15.8438   25.1328 C   0  0  0  0  0  0  0  0  0  0  0  0
    6.4175  -14.8254   25.7587 C   0  0  0  0  0  0  0  0  0  0  0  0
    5.2986  -15.0868   26.5204 C   0  0  0  0  0  0  0  0  0  0  0  0
    4.7319  -13.9558   26.9351 N   0  0  0  0  0  0  0  0  0  0  0  0
    5.4743  -12.9485   26.4486 C   0  0  0  0  0  0  0  0  0  0  0  0
    5.3416  -11.5957   26.5702 C   0  0  0  0  0  0  0  0  0  0  0  0
    6.2493  -10.7565   25.9662 C   0  0  0  0  0  0  0  0  0  0  0  0
    7.2902  -11.2762   25.2402 C   0  0  0  0  0  0  0  0  0  0  0  0
    7.4607  -12.6411   25.0923 C   0  0  0  0  0  0  0  0  0  0  0  0
    6.5295  -13.4466   25.7132 C   0  0  0  0  0  0  0  0  0  0  0  0
    7.5182  -16.6492   22.7956 C   0  0  0  0  0  0  0  0  0  0  0  0
    7.7078  -17.8549   22.4022 O   0  0  0  0  0  0  0  0  0  0  0  0
    8.1867  -15.6283   22.0812 N   0  0  0  0  0  0  0  0  0  0  0  0
    8.2709  -14.2144   22.3382 C   0  0  0  0  0  0  0  0  0  0  0  0
    8.3922  -13.6105   20.9580 C   0  0  0  0  0  0  0  0  0  0  0  0
    8.4653  -14.7434   19.9915 C   0  0  0  0  0  0  0  0  0  0  0  0
    8.9631  -15.8606   20.8862 C   0  0  1  0  0  0  0  0  0  0  0  0
   10.3962  -15.7523   21.2201 C   0  0  0  0  0  0  0  0  0  0  0  0
   11.0552  -14.7905   20.7970 O   0  0  0  0  0  0  0  0  0  0  0  0
   10.7876  -17.2646   28.8622 O   0  0  0  0  0  0  0  0  0  0  0  0
   11.1035  -16.8025   27.5924 C   0  0  0  0  0  0  0  0  0  0  0  0
   12.0765  -17.3816   26.7981 C   0  0  0  0  0  0  0  0  0  0  0  0
   12.3637  -16.8958   25.5411 C   0  0  0  0  0  0  0  0  0  0  0  0
   11.6905  -15.8097   25.0240 C   0  0  0  0  0  0  0  0  0  0  0  0
   12.0531  -15.3398   23.6748 C   0  0  0  0  0  0  0  0  0  0  0  0
   12.3338  -16.4705   22.6973 C   0  0  2  0  0  0  0  0  0  0  0  0
   11.0775  -16.7145   22.0195 N   0  0  0  0  0  0  0  0  0  0  0  0
   12.7131  -17.7236   23.3986 C   0  0  0  0  0  0  0  0  0  0  0  0
   11.8753  -18.6699   23.5902 O   0  0  0  0  0  0  0  0  0  0  0  0
   10.7190  -15.2166   25.7939 C   0  0  0  0  0  0  0  0  0  0  0  0
   10.4523  -15.7165   27.0367 C   0  0  0  0  0  0  0  0  0  0  0  0
   13.9880  -17.9719   23.8974 O   0  0  0  0  0  0  0  0  0  0  0  0
  2  1  1  1
  2 13  1  0
  2  3  1  0
  4  3  1  0
  4  5  2  0
  6  5  1  0
  7  6  1  0
  8  7  2  0
  9  8  1  0
 10  9  2  0
 10 11  1  0
 11 12  2  0
 12  7  1  0
 12  4  1  0
 13 14  2  0
 15 13  1  0
 15 16  1  0
 17 16  1  0
 18 19  1  0
 18 17  1  0
 19 15  1  0
 19 20  1  1
 21 20  2  0
 22 23  1  0
 23 24  2  0
 24 25  1  0
 26 27  1  0
 26 25  2  0
 28 27  1  1
 28 29  1  0
 29 20  1  0
 30 28  1  0
 31 30  2  0
 32 26  1  0
 33 32  2  0
 33 23  1  0
 34 30  1  0
M  END
$$$$
