WPY.pdb
     RDKit          3D

 34 37  0  0  1  0  0  0  0  0999 V2000
   10.1564  -15.8848   22.4648 N   0  0  0  0  0  0  0  0  0  0  0  0
    9.5265  -15.3268   23.6085 C   0  0  1  0  0  0  0  0  0  0  0  0
    8.0569  -15.6871   23.5504 C   0  0  0  0  0  0  0  0  0  0  0  0
    7.4715  -15.3856   22.2228 C   0  0  0  0  0  0  0  0  0  0  0  0
    6.8627  -16.2977   21.3874 C   0  0  0  0  0  0  0  0  0  0  0  0
    6.4436  -15.7104   20.2686 N   0  0  0  0  0  0  0  0  0  0  0  0
    6.7746  -14.4127   20.3637 C   0  0  0  0  0  0  0  0  0  0  0  0
    6.5814  -13.3717   19.5027 C   0  0  0  0  0  0  0  0  0  0  0  0
    7.0207  -12.1110   19.8352 C   0  0  0  0  0  0  0  0  0  0  0  0
    7.6539  -11.8960   21.0325 C   0  0  0  0  0  0  0  0  0  0  0  0
    7.8695  -12.9237   21.9333 C   0  0  0  0  0  0  0  0  0  0  0  0
    7.4140  -14.1710   21.5618 C   0  0  0  0  0  0  0  0  0  0  0  0
   10.1354  -15.6063   24.9050 C   0  0  0  0  0  0  0  0  0  0  0  0
   11.1609  -16.3757   24.8754 O   0  0  0  0  0  0  0  0  0  0  0  0
    9.7265  -15.1303   26.1722 N   0  0  0  0  0  0  0  0  0  0  0  0
    8.5085  -14.4753   26.5718 C   0  0  0  0  0  0  0  0  0  0  0  0
    8.9463  -13.5736   27.7030 C   0  0  0  0  0  0  0  0  0  0  0  0
   10.3925  -13.8459   27.9426 C   0  0  0  0  0  0  0  0  0  0  0  0
   10.5271  -15.2419   27.3686 C   0  0  1  0  0  0  0  0  0  0  0  0
    9.9511  -16.2908   28.2318 C   0  0  0  0  0  0  0  0  0  0  0  0
    8.7248  -16.3333   28.4129 O   0  0  0  0  0  0  0  0  0  0  0  0
   15.5621  -19.0035   24.9444 O   0  0  0  0  0  0  0  0  0  0  0  0
   14.3094  -19.0310   25.5408 C   0  0  0  0  0  0  0  0  0  0  0  0
   13.1297  -18.9314   24.8256 C   0  0  0  0  0  0  0  0  0  0  0  0
   11.9027  -18.9624   25.4517 C   0  0  0  0  0  0  0  0  0  0  0  0
   11.8022  -19.0942   26.8202 C   0  0  0  0  0  0  0  0  0  0  0  0
   10.4576  -19.1144   27.4237 C   0  0  0  0  0  0  0  0  0  0  0  0
   10.4460  -18.6949   28.8854 C   0  0  2  0  0  0  0  0  0  0  0  0
   10.7457  -17.2781   28.8819 N   0  0  0  0  0  0  0  0  0  0  0  0
   11.5137  -19.3750   29.6622 C   0  0  0  0  0  0  0  0  0  0  0  0
   11.5206  -20.6417   29.8340 O   0  0  0  0  0  0  0  0  0  0  0  0
   12.9601  -19.1951   27.5533 C   0  0  0  0  0  0  0  0  0  0  0  0
   14.1644  -19.1618   26.9098 C   0  0  0  0  0  0  0  0  0  0  0  0
   12.5782  -18.7061   30.2580 O   0  0  0  0  0  0  0  0  0  0  0  0
  2  1  1  6
  2 13  1  0
  2  3  1  0
  4  3  1  0
  4  5  2  0
  6  5  1  0
  7  6  1  0
  8  7  2  0
  9  8  1  0
 10  9  2  0
 10 11  1  0
 11 12  2  0
 12  7  1  0
 12  4  1  0
 13 14  2  0
 15 13  1  0
 15 16  1  0
 17 16  1  0
 18 19  1  0
 18 17  1  0
 19 15  1  0
 19 20  1  1
 21 20  2  0
 22 23  1  0
 23 24  2  0
 24 25  1  0
 26 27  1  0
 26 25  2  0
 28 27  1  6
 28 29  1  0
 29 20  1  0
 30 28  1  0
 31 30  2  0
 32 26  1  0
 33 32  2  0
 33 23  1  0
 34 30  1  0
M  END
$$$$
