WPY.pdb
     RDKit          3D

 34 37  0  0  1  0  0  0  0  0999 V2000
    6.3858  -17.9496   24.7888 N   0  0  0  0  0  0  0  0  0  0  0  0
    6.8905  -16.7380   24.2470 C   0  0  1  0  0  0  0  0  0  0  0  0
    7.3704  -15.8797   25.3984 C   0  0  0  0  0  0  0  0  0  0  0  0
    6.3666  -14.8560   25.7735 C   0  0  0  0  0  0  0  0  0  0  0  0
    5.1567  -15.1039   26.3859 C   0  0  0  0  0  0  0  0  0  0  0  0
    4.4858  -13.9717   26.5868 N   0  0  0  0  0  0  0  0  0  0  0  0
    5.2503  -12.9772   26.1083 C   0  0  0  0  0  0  0  0  0  0  0  0
    5.0432  -11.6292   26.0609 C   0  0  0  0  0  0  0  0  0  0  0  0
    5.9960  -10.8039   25.5097 C   0  0  0  0  0  0  0  0  0  0  0  0
    7.1568  -11.3327   25.0060 C   0  0  0  0  0  0  0  0  0  0  0  0
    7.4057  -12.6933   25.0344 C   0  0  0  0  0  0  0  0  0  0  0  0
    6.4257  -13.4848   25.5952 C   0  0  0  0  0  0  0  0  0  0  0  0
    7.8663  -16.8488   23.1675 C   0  0  0  0  0  0  0  0  0  0  0  0
    8.3374  -18.0254   22.9719 O   0  0  0  0  0  0  0  0  0  0  0  0
    8.3439  -15.8181   22.3254 N   0  0  0  0  0  0  0  0  0  0  0  0
    8.1090  -14.3984   22.3670 C   0  0  0  0  0  0  0  0  0  0  0  0
    8.1822  -13.9852   20.9150 C   0  0  0  0  0  0  0  0  0  0  0  0
    8.5536  -15.1999   20.1343 C   0  0  0  0  0  0  0  0  0  0  0  0
    9.2229  -16.0415   21.2020 C   0  0  1  0  0  0  0  0  0  0  0  0
   10.5771  -15.5744   21.5558 C   0  0  0  0  0  0  0  0  0  0  0  0
   10.9168  -14.4124   21.2863 O   0  0  0  0  0  0  0  0  0  0  0  0
   11.6987  -15.8065   29.9860 O   0  0  0  0  0  0  0  0  0  0  0  0
   11.4593  -15.9168   28.6236 C   0  0  0  0  0  0  0  0  0  0  0  0
   11.2773  -14.8226   27.7974 C   0  0  0  0  0  0  0  0  0  0  0  0
   11.0415  -14.9699   26.4478 C   0  0  0  0  0  0  0  0  0  0  0  0
   10.9772  -16.2179   25.8661 C   0  0  0  0  0  0  0  0  0  0  0  0
   10.7160  -16.3016   24.4178 C   0  0  0  0  0  0  0  0  0  0  0  0
   11.9776  -16.2276   23.5719 C   0  0  2  0  0  0  0  0  0  0  0  0
   11.5353  -16.4053   22.2043 N   0  0  0  0  0  0  0  0  0  0  0  0
   12.9163  -17.3352   23.8847 C   0  0  0  0  0  0  0  0  0  0  0  0
   13.9316  -17.1654   24.6427 O   0  0  0  0  0  0  0  0  0  0  0  0
   11.1548  -17.3212   26.6659 C   0  0  0  0  0  0  0  0  0  0  0  0
   11.3873  -17.1494   28.0007 C   0  0  0  0  0  0  0  0  0  0  0  0
   12.7749  -18.6280   23.3905 O   0  0  0  0  0  0  0  0  0  0  0  0
  2  1  1  1
  2 13  1  0
  2  3  1  0
  4  3  1  0
  4  5  2  0
  6  5  1  0
  7  6  1  0
  8  7  2  0
  9  8  1  0
 10  9  2  0
 10 11  1  0
 11 12  2  0
 12  7  1  0
 12  4  1  0
 13 14  2  0
 15 13  1  0
 15 16  1  0
 17 16  1  0
 18 19  1  0
 18 17  1  0
 19 15  1  0
 19 20  1  1
 21 20  2  0
 22 23  1  0
 23 24  2  0
 24 25  1  0
 26 27  1  0
 26 25  2  0
 28 27  1  1
 28 29  1  0
 29 20  1  0
 30 28  1  0
 31 30  2  0
 32 26  1  0
 33 32  2  0
 33 23  1  0
 34 30  1  0
M  END
$$$$
