WPY.pdb
     RDKit          3D

 34 37  0  0  1  0  0  0  0  0999 V2000
    4.6640  -17.0115   22.5328 N   0  0  0  0  0  0  0  0  0  0  0  0
    5.7131  -16.3542   23.2284 C   0  0  1  0  0  0  0  0  0  0  0  0
    5.5506  -16.6545   24.7036 C   0  0  0  0  0  0  0  0  0  0  0  0
    6.5888  -15.9790   25.5172 C   0  0  0  0  0  0  0  0  0  0  0  0
    7.7471  -16.5613   25.9859 C   0  0  0  0  0  0  0  0  0  0  0  0
    8.4681  -15.6877   26.6854 N   0  0  0  0  0  0  0  0  0  0  0  0
    7.7880  -14.5301   26.6794 C   0  0  0  0  0  0  0  0  0  0  0  0
    8.0722  -13.3193   27.2413 C   0  0  0  0  0  0  0  0  0  0  0  0
    7.1988  -12.2670   27.0905 C   0  0  0  0  0  0  0  0  0  0  0  0
    6.0402  -12.4308   26.3755 C   0  0  0  0  0  0  0  0  0  0  0  0
    5.7146  -13.6414   25.7901 C   0  0  0  0  0  0  0  0  0  0  0  0
    6.6165  -14.6697   25.9650 C   0  0  0  0  0  0  0  0  0  0  0  0
    7.0718  -16.5749   22.7436 C   0  0  0  0  0  0  0  0  0  0  0  0
    7.3771  -17.7969   22.5029 O   0  0  0  0  0  0  0  0  0  0  0  0
    8.0750  -15.6053   22.5133 N   0  0  0  0  0  0  0  0  0  0  0  0
    8.0806  -14.1905   22.7789 C   0  0  0  0  0  0  0  0  0  0  0  0
    8.9670  -13.6298   21.6906 C   0  0  0  0  0  0  0  0  0  0  0  0
    9.4949  -14.7901   20.9174 C   0  0  0  0  0  0  0  0  0  0  0  0
    9.3638  -15.9050   21.9354 C   0  0  1  0  0  0  0  0  0  0  0  0
   10.3863  -15.8543   22.9980 C   0  0  0  0  0  0  0  0  0  0  0  0
   10.4463  -14.8676   23.7471 O   0  0  0  0  0  0  0  0  0  0  0  0
   12.2138  -22.8088   21.7247 O   0  0  0  0  0  0  0  0  0  0  0  0
   12.2127  -21.6783   22.5294 C   0  0  0  0  0  0  0  0  0  0  0  0
   13.3420  -21.2107   23.1769 C   0  0  0  0  0  0  0  0  0  0  0  0
   13.3040  -20.0837   23.9688 C   0  0  0  0  0  0  0  0  0  0  0  0
   12.1348  -19.3757   24.1477 C   0  0  0  0  0  0  0  0  0  0  0  0
   12.1654  -18.1826   25.0129 C   0  0  0  0  0  0  0  0  0  0  0  0
   12.3464  -16.8836   24.2432 C   0  0  2  0  0  0  0  0  0  0  0  0
   11.3282  -16.9009   23.2136 N   0  0  0  0  0  0  0  0  0  0  0  0
   13.6662  -16.8247   23.5645 C   0  0  0  0  0  0  0  0  0  0  0  0
   14.7608  -16.7628   24.2219 O   0  0  0  0  0  0  0  0  0  0  0  0
   10.9989  -19.8201   23.5149 C   0  0  0  0  0  0  0  0  0  0  0  0
   11.0619  -20.9397   22.7351 C   0  0  0  0  0  0  0  0  0  0  0  0
   13.8229  -16.8322   22.1821 O   0  0  0  0  0  0  0  0  0  0  0  0
  2  1  1  6
  2 13  1  0
  2  3  1  0
  4  3  1  0
  4  5  2  0
  6  5  1  0
  7  6  1  0
  8  7  2  0
  9  8  1  0
 10  9  2  0
 10 11  1  0
 11 12  2  0
 12  7  1  0
 12  4  1  0
 13 14  2  0
 15 13  1  0
 15 16  1  0
 17 16  1  0
 18 19  1  0
 18 17  1  0
 19 15  1  0
 19 20  1  1
 21 20  2  0
 22 23  1  0
 23 24  2  0
 24 25  1  0
 26 27  1  0
 26 25  2  0
 28 27  1  6
 28 29  1  0
 29 20  1  0
 30 28  1  0
 31 30  2  0
 32 26  1  0
 33 32  2  0
 33 23  1  0
 34 30  1  0
M  END
$$$$
