WPY.pdb
     RDKit          3D

 34 37  0  0  1  0  0  0  0  0999 V2000
    6.2768  -17.9769   25.1716 N   0  0  0  0  0  0  0  0  0  0  0  0
    6.8331  -16.8050   24.5940 C   0  0  1  0  0  0  0  0  0  0  0  0
    7.4396  -15.9810   25.7102 C   0  0  0  0  0  0  0  0  0  0  0  0
    6.5418  -14.8777   26.1261 C   0  0  0  0  0  0  0  0  0  0  0  0
    5.3790  -15.0189   26.8530 C   0  0  0  0  0  0  0  0  0  0  0  0
    4.8032  -13.8368   27.0613 N   0  0  0  0  0  0  0  0  0  0  0  0
    5.5833  -12.9158   26.4733 C   0  0  0  0  0  0  0  0  0  0  0  0
    5.4598  -11.5597   26.3841 C   0  0  0  0  0  0  0  0  0  0  0  0
    6.4096  -10.8231   25.7147 C   0  0  0  0  0  0  0  0  0  0  0  0
    7.4835  -11.4487   25.1349 C   0  0  0  0  0  0  0  0  0  0  0  0
    7.6461  -12.8210   25.2022 C   0  0  0  0  0  0  0  0  0  0  0  0
    6.6723  -13.5217   25.8820 C   0  0  0  0  0  0  0  0  0  0  0  0
    7.7334  -16.9866   23.4598 C   0  0  0  0  0  0  0  0  0  0  0  0
    8.0494  -18.2017   23.1987 O   0  0  0  0  0  0  0  0  0  0  0  0
    8.2885  -15.9862   22.6287 N   0  0  0  0  0  0  0  0  0  0  0  0
    8.2745  -14.5529   22.7610 C   0  0  0  0  0  0  0  0  0  0  0  0
    8.2871  -14.0655   21.3303 C   0  0  0  0  0  0  0  0  0  0  0  0
    8.4045  -15.2706   20.4603 C   0  0  0  0  0  0  0  0  0  0  0  0
    9.0265  -16.2653   21.4195 C   0  0  1  0  0  0  0  0  0  0  0  0
   10.4605  -16.0234   21.6694 C   0  0  0  0  0  0  0  0  0  0  0  0
   11.0413  -15.1021   21.0761 O   0  0  0  0  0  0  0  0  0  0  0  0
   10.6689  -17.7249   29.3804 O   0  0  0  0  0  0  0  0  0  0  0  0
   10.9206  -17.1454   28.1448 C   0  0  0  0  0  0  0  0  0  0  0  0
   11.2972  -17.8742   27.0312 C   0  0  0  0  0  0  0  0  0  0  0  0
   11.5392  -17.2648   25.8193 C   0  0  0  0  0  0  0  0  0  0  0  0
   11.4153  -15.9002   25.6686 C   0  0  0  0  0  0  0  0  0  0  0  0
   11.6951  -15.3147   24.3451 C   0  0  0  0  0  0  0  0  0  0  0  0
   12.3259  -16.2980   23.3715 C   0  0  2  0  0  0  0  0  0  0  0  0
   11.2294  -16.8090   22.5754 N   0  0  0  0  0  0  0  0  0  0  0  0
   12.9420  -17.4517   24.0753 C   0  0  0  0  0  0  0  0  0  0  0  0
   14.0415  -17.3413   24.7178 O   0  0  0  0  0  0  0  0  0  0  0  0
   11.0424  -15.1539   26.7605 C   0  0  0  0  0  0  0  0  0  0  0  0
   10.8079  -15.7808   27.9510 C   0  0  0  0  0  0  0  0  0  0  0  0
   12.3867  -18.7272   24.0967 O   0  0  0  0  0  0  0  0  0  0  0  0
  2  1  1  1
  2 13  1  0
  2  3  1  0
  4  3  1  0
  4  5  2  0
  6  5  1  0
  7  6  1  0
  8  7  2  0
  9  8  1  0
 10  9  2  0
 10 11  1  0
 11 12  2  0
 12  7  1  0
 12  4  1  0
 13 14  2  0
 15 13  1  0
 15 16  1  0
 17 16  1  0
 18 19  1  0
 18 17  1  0
 19 15  1  0
 19 20  1  1
 21 20  2  0
 22 23  1  0
 23 24  2  0
 24 25  1  0
 26 27  1  0
 26 25  2  0
 28 27  1  1
 28 29  1  0
 29 20  1  0
 30 28  1  0
 31 30  2  0
 32 26  1  0
 33 32  2  0
 33 23  1  0
 34 30  1  0
M  END
$$$$
