WPY.pdb
     RDKit          3D

 34 37  0  0  1  0  0  0  0  0999 V2000
    6.3407  -18.3915   24.9532 N   0  0  0  0  0  0  0  0  0  0  0  0
    6.9571  -17.2002   24.4871 C   0  0  1  0  0  0  0  0  0  0  0  0
    7.7457  -16.6064   25.6353 C   0  0  0  0  0  0  0  0  0  0  0  0
    7.1352  -15.3484   26.1259 C   0  0  0  0  0  0  0  0  0  0  0  0
    5.8316  -15.1996   26.5489 C   0  0  0  0  0  0  0  0  0  0  0  0
    5.5953  -13.9450   26.9263 N   0  0  0  0  0  0  0  0  0  0  0  0
    6.7402  -13.2654   26.7532 C   0  0  0  0  0  0  0  0  0  0  0  0
    7.0501  -11.9561   26.9818 C   0  0  0  0  0  0  0  0  0  0  0  0
    8.3182  -11.4916   26.7193 C   0  0  0  0  0  0  0  0  0  0  0  0
    9.2750  -12.3420   26.2273 C   0  0  0  0  0  0  0  0  0  0  0  0
    9.0021  -13.6759   25.9817 C   0  0  0  0  0  0  0  0  0  0  0  0
    7.7197  -14.1008   26.2582 C   0  0  0  0  0  0  0  0  0  0  0  0
    7.7245  -17.2899   23.2491 C   0  0  0  0  0  0  0  0  0  0  0  0
    7.9366  -18.4795   22.8196 O   0  0  0  0  0  0  0  0  0  0  0  0
    8.2531  -16.2266   22.4813 N   0  0  0  0  0  0  0  0  0  0  0  0
    8.0120  -14.8097   22.5633 C   0  0  0  0  0  0  0  0  0  0  0  0
    8.1787  -14.3394   21.1366 C   0  0  0  0  0  0  0  0  0  0  0  0
    8.6038  -15.5222   20.3346 C   0  0  0  0  0  0  0  0  0  0  0  0
    9.2043  -16.4052   21.4098 C   0  0  1  0  0  0  0  0  0  0  0  0
   10.5312  -15.9521   21.8695 C   0  0  0  0  0  0  0  0  0  0  0  0
   11.0219  -14.9130   21.4029 O   0  0  0  0  0  0  0  0  0  0  0  0
    8.6495  -15.7650   28.8270 O   0  0  0  0  0  0  0  0  0  0  0  0
    9.4352  -15.5292   27.7078 C   0  0  0  0  0  0  0  0  0  0  0  0
    9.7086  -14.2602   27.2304 C   0  0  0  0  0  0  0  0  0  0  0  0
   10.4935  -14.0635   26.1151 C   0  0  0  0  0  0  0  0  0  0  0  0
   11.0389  -15.1274   25.4288 C   0  0  0  0  0  0  0  0  0  0  0  0
   11.8641  -14.8439   24.2408 C   0  0  0  0  0  0  0  0  0  0  0  0
   12.4101  -16.0962   23.5727 C   0  0  2  0  0  0  0  0  0  0  0  0
   11.2946  -16.6602   22.8415 N   0  0  0  0  0  0  0  0  0  0  0  0
   12.8469  -17.1067   24.5697 C   0  0  0  0  0  0  0  0  0  0  0  0
   13.8679  -16.9208   25.3161 O   0  0  0  0  0  0  0  0  0  0  0  0
   10.7818  -16.3985   25.8834 C   0  0  0  0  0  0  0  0  0  0  0  0
   10.0009  -16.5678   26.9911 C   0  0  0  0  0  0  0  0  0  0  0  0
   12.1955  -18.3189   24.7745 O   0  0  0  0  0  0  0  0  0  0  0  0
  2  1  1  1
  2 13  1  0
  2  3  1  0
  4  3  1  0
  4  5  2  0
  6  5  1  0
  7  6  1  0
  8  7  2  0
  9  8  1  0
 10  9  2  0
 10 11  1  0
 11 12  2  0
 12  7  1  0
 12  4  1  0
 13 14  2  0
 15 13  1  0
 15 16  1  0
 17 16  1  0
 18 19  1  0
 18 17  1  0
 19 15  1  0
 19 20  1  1
 21 20  2  0
 22 23  1  0
 23 24  2  0
 24 25  1  0
 26 27  1  0
 26 25  2  0
 28 27  1  1
 28 29  1  0
 29 20  1  0
 30 28  1  0
 31 30  2  0
 32 26  1  0
 33 32  2  0
 33 23  1  0
 34 30  1  0
M  END
$$$$
