WPY.pdb
     RDKit          3D

 34 37  0  0  1  0  0  0  0  0999 V2000
    6.0311  -17.6790   24.5511 N   0  0  0  0  0  0  0  0  0  0  0  0
    6.7083  -16.5428   24.0344 C   0  0  1  0  0  0  0  0  0  0  0  0
    7.3227  -15.7990   25.2015 C   0  0  0  0  0  0  0  0  0  0  0  0
    6.3787  -14.8149   25.7814 C   0  0  0  0  0  0  0  0  0  0  0  0
    5.1538  -15.1099   26.3411 C   0  0  0  0  0  0  0  0  0  0  0  0
    4.5491  -14.0040   26.7695 N   0  0  0  0  0  0  0  0  0  0  0  0
    5.3721  -12.9797   26.4938 C   0  0  0  0  0  0  0  0  0  0  0  0
    5.2439  -11.6398   26.7186 C   0  0  0  0  0  0  0  0  0  0  0  0
    6.2453  -10.7774   26.3362 C   0  0  0  0  0  0  0  0  0  0  0  0
    7.3754  -11.2608   25.7280 C   0  0  0  0  0  0  0  0  0  0  0  0
    7.5447  -12.6117   25.4818 C   0  0  0  0  0  0  0  0  0  0  0  0
    6.5180  -13.4415   25.8805 C   0  0  0  0  0  0  0  0  0  0  0  0
    7.6464  -16.7696   22.9398 C   0  0  0  0  0  0  0  0  0  0  0  0
    7.8670  -17.9995   22.6517 O   0  0  0  0  0  0  0  0  0  0  0  0
    8.3299  -15.7981   22.1726 N   0  0  0  0  0  0  0  0  0  0  0  0
    8.3101  -14.3612   22.2588 C   0  0  0  0  0  0  0  0  0  0  0  0
    8.5425  -13.9181   20.8326 C   0  0  0  0  0  0  0  0  0  0  0  0
    8.7777  -15.1499   20.0263 C   0  0  0  0  0  0  0  0  0  0  0  0
    9.2387  -16.1179   21.0971 C   0  0  1  0  0  0  0  0  0  0  0  0
   10.6210  -15.8758   21.5530 C   0  0  0  0  0  0  0  0  0  0  0  0
   11.2225  -14.8577   21.1790 O   0  0  0  0  0  0  0  0  0  0  0  0
   10.0799  -16.5697   29.0814 O   0  0  0  0  0  0  0  0  0  0  0  0
   10.6072  -16.2393   27.8411 C   0  0  0  0  0  0  0  0  0  0  0  0
   11.1784  -15.0100   27.5661 C   0  0  0  0  0  0  0  0  0  0  0  0
   11.6925  -14.7165   26.3219 C   0  0  0  0  0  0  0  0  0  0  0  0
   11.6575  -15.6395   25.2986 C   0  0  0  0  0  0  0  0  0  0  0  0
   12.2207  -15.2560   23.9915 C   0  0  0  0  0  0  0  0  0  0  0  0
   12.5501  -16.4461   23.1040 C   0  0  2  0  0  0  0  0  0  0  0  0
   11.3160  -16.7687   22.4184 N   0  0  0  0  0  0  0  0  0  0  0  0
   12.9419  -17.6363   23.9013 C   0  0  0  0  0  0  0  0  0  0  0  0
   14.0298  -17.6712   24.5718 O   0  0  0  0  0  0  0  0  0  0  0  0
   11.0949  -16.8684   25.5467 C   0  0  0  0  0  0  0  0  0  0  0  0
   10.5921  -17.1358   26.7882 C   0  0  0  0  0  0  0  0  0  0  0  0
   12.1740  -18.7934   23.9869 O   0  0  0  0  0  0  0  0  0  0  0  0
  2  1  1  1
  2 13  1  0
  2  3  1  0
  4  3  1  0
  4  5  2  0
  6  5  1  0
  7  6  1  0
  8  7  2  0
  9  8  1  0
 10  9  2  0
 10 11  1  0
 11 12  2  0
 12  7  1  0
 12  4  1  0
 13 14  2  0
 15 13  1  0
 15 16  1  0
 17 16  1  0
 18 19  1  0
 18 17  1  0
 19 15  1  0
 19 20  1  1
 21 20  2  0
 22 23  1  0
 23 24  2  0
 24 25  1  0
 26 27  1  0
 26 25  2  0
 28 27  1  1
 28 29  1  0
 29 20  1  0
 30 28  1  0
 31 30  2  0
 32 26  1  0
 33 32  2  0
 33 23  1  0
 34 30  1  0
M  END
$$$$
