WPY.pdb
     RDKit          3D

 34 37  0  0  1  0  0  0  0  0999 V2000
    6.6616  -17.1687   25.2093 N   0  0  0  0  0  0  0  0  0  0  0  0
    6.5825  -16.6077   23.9073 C   0  0  1  0  0  0  0  0  0  0  0  0
    6.1143  -15.1745   24.0476 C   0  0  0  0  0  0  0  0  0  0  0  0
    6.3014  -14.6704   25.4286 C   0  0  0  0  0  0  0  0  0  0  0  0
    5.9779  -15.3508   26.5830 C   0  0  0  0  0  0  0  0  0  0  0  0
    6.2680  -14.6236   27.6597 N   0  0  0  0  0  0  0  0  0  0  0  0
    6.7823  -13.4646   27.2183 C   0  0  0  0  0  0  0  0  0  0  0  0
    7.2409  -12.3711   27.8939 C   0  0  0  0  0  0  0  0  0  0  0  0
    7.7285  -11.2870   27.2013 C   0  0  0  0  0  0  0  0  0  0  0  0
    7.7554  -11.3011   25.8303 C   0  0  0  0  0  0  0  0  0  0  0  0
    7.3001  -12.3894   25.1075 C   0  0  0  0  0  0  0  0  0  0  0  0
    6.8199  -13.4547   25.8396 C   0  0  0  0  0  0  0  0  0  0  0  0
    7.7564  -16.7471   23.0516 C   0  0  0  0  0  0  0  0  0  0  0  0
    8.3000  -17.9085   23.0502 O   0  0  0  0  0  0  0  0  0  0  0  0
    8.3531  -15.7582   22.2355 N   0  0  0  0  0  0  0  0  0  0  0  0
    7.9677  -14.3920   21.9965 C   0  0  0  0  0  0  0  0  0  0  0  0
    8.4296  -14.1368   20.5802 C   0  0  0  0  0  0  0  0  0  0  0  0
    9.1449  -15.3641   20.1272 C   0  0  0  0  0  0  0  0  0  0  0  0
    9.5475  -15.9754   21.4540 C   0  0  1  0  0  0  0  0  0  0  0  0
   10.6754  -15.2804   22.1037 C   0  0  0  0  0  0  0  0  0  0  0  0
   10.5089  -14.1452   22.5749 O   0  0  0  0  0  0  0  0  0  0  0  0
    9.4231  -13.9550   28.5691 O   0  0  0  0  0  0  0  0  0  0  0  0
    9.9910  -14.6747   27.5274 C   0  0  0  0  0  0  0  0  0  0  0  0
   11.0889  -14.2309   26.8127 C   0  0  0  0  0  0  0  0  0  0  0  0
   11.6267  -14.9726   25.7836 C   0  0  0  0  0  0  0  0  0  0  0  0
   11.0896  -16.1903   25.4243 C   0  0  0  0  0  0  0  0  0  0  0  0
   11.7122  -16.9276   24.3101 C   0  0  0  0  0  0  0  0  0  0  0  0
   12.6582  -16.0765   23.4773 C   0  0  2  0  0  0  0  0  0  0  0  0
   11.9729  -15.8563   22.2206 N   0  0  0  0  0  0  0  0  0  0  0  0
   13.9235  -16.7934   23.1759 C   0  0  0  0  0  0  0  0  0  0  0  0
   15.0188  -16.5080   23.7701 O   0  0  0  0  0  0  0  0  0  0  0  0
    9.9983  -16.6532   26.1193 C   0  0  0  0  0  0  0  0  0  0  0  0
    9.4832  -15.8998   27.1354 C   0  0  0  0  0  0  0  0  0  0  0  0
   14.0247  -17.8179   22.2400 O   0  0  0  0  0  0  0  0  0  0  0  0
  2  1  1  1
  2 13  1  0
  2  3  1  0
  4  3  1  0
  4  5  2  0
  6  5  1  0
  7  6  1  0
  8  7  2  0
  9  8  1  0
 10  9  2  0
 10 11  1  0
 11 12  2  0
 12  7  1  0
 12  4  1  0
 13 14  2  0
 15 13  1  0
 15 16  1  0
 17 16  1  0
 18 19  1  0
 18 17  1  0
 19 15  1  0
 19 20  1  1
 21 20  2  0
 22 23  1  0
 23 24  2  0
 24 25  1  0
 26 27  1  0
 26 25  2  0
 28 27  1  1
 28 29  1  0
 29 20  1  0
 30 28  1  0
 31 30  2  0
 32 26  1  0
 33 32  2  0
 33 23  1  0
 34 30  1  0
M  END
$$$$
