WPY.pdb
     RDKit          3D

 34 37  0  0  1  0  0  0  0  0999 V2000
    5.6305  -18.9348   21.0539 N   0  0  0  0  0  0  0  0  0  0  0  0
    6.6287  -17.9252   21.0277 C   0  0  1  0  0  0  0  0  0  0  0  0
    5.9293  -16.5825   20.9978 C   0  0  0  0  0  0  0  0  0  0  0  0
    6.8264  -15.5089   20.5091 C   0  0  0  0  0  0  0  0  0  0  0  0
    7.5307  -15.5279   19.3241 C   0  0  0  0  0  0  0  0  0  0  0  0
    8.2449  -14.4139   19.1788 N   0  0  0  0  0  0  0  0  0  0  0  0
    8.0136  -13.6597   20.2651 C   0  0  0  0  0  0  0  0  0  0  0  0
    8.4888  -12.4315   20.6229 C   0  0  0  0  0  0  0  0  0  0  0  0
    8.0949  -11.8586   21.8102 C   0  0  0  0  0  0  0  0  0  0  0  0
    7.2238  -12.5193   22.6379 C   0  0  0  0  0  0  0  0  0  0  0  0
    6.7189  -13.7657   22.3126 C   0  0  0  0  0  0  0  0  0  0  0  0
    7.1386  -14.3042   21.1146 C   0  0  0  0  0  0  0  0  0  0  0  0
    7.6790  -18.0032   22.0380 C   0  0  0  0  0  0  0  0  0  0  0  0
    7.2984  -18.4013   23.1961 O   0  0  0  0  0  0  0  0  0  0  0  0
    9.0501  -17.6930   21.8845 N   0  0  0  0  0  0  0  0  0  0  0  0
    9.7405  -17.0354   20.8061 C   0  0  0  0  0  0  0  0  0  0  0  0
   11.1137  -17.6664   20.8283 C   0  0  0  0  0  0  0  0  0  0  0  0
   11.1495  -18.5913   21.9972 C   0  0  0  0  0  0  0  0  0  0  0  0
   10.0588  -18.0036   22.8697 C   0  0  1  0  0  0  0  0  0  0  0  0
   10.4588  -16.7579   23.5519 C   0  0  0  0  0  0  0  0  0  0  0  0
   10.7901  -15.7686   22.8812 O   0  0  0  0  0  0  0  0  0  0  0  0
    5.3547  -13.9753   28.5775 O   0  0  0  0  0  0  0  0  0  0  0  0
    6.4673  -14.0730   27.7539 C   0  0  0  0  0  0  0  0  0  0  0  0
    6.5365  -14.9382   26.6770 C   0  0  0  0  0  0  0  0  0  0  0  0
    7.6584  -15.0086   25.8802 C   0  0  0  0  0  0  0  0  0  0  0  0
    8.7598  -14.2168   26.1258 C   0  0  0  0  0  0  0  0  0  0  0  0
    9.9278  -14.3483   25.2362 C   0  0  0  0  0  0  0  0  0  0  0  0
   10.9002  -15.4327   25.6735 C   0  0  2  0  0  0  0  0  0  0  0  0
   10.4851  -16.6286   24.9702 N   0  0  0  0  0  0  0  0  0  0  0  0
   10.7962  -15.7118   27.1285 C   0  0  0  0  0  0  0  0  0  0  0  0
   11.2342  -14.8919   28.0060 O   0  0  0  0  0  0  0  0  0  0  0  0
    8.7157  -13.3488   27.1902 C   0  0  0  0  0  0  0  0  0  0  0  0
    7.5924  -13.2972   27.9654 C   0  0  0  0  0  0  0  0  0  0  0  0
   10.2237  -16.8665   27.6526 O   0  0  0  0  0  0  0  0  0  0  0  0
  2  1  1  1
  2 13  1  0
  2  3  1  0
  4  3  1  0
  4  5  2  0
  6  5  1  0
  7  6  1  0
  8  7  2  0
  9  8  1  0
 10  9  2  0
 10 11  1  0
 11 12  2  0
 12  7  1  0
 12  4  1  0
 13 14  2  0
 15 13  1  0
 15 16  1  0
 17 16  1  0
 18 19  1  0
 18 17  1  0
 19 15  1  0
 19 20  1  6
 21 20  2  0
 22 23  1  0
 23 24  2  0
 24 25  1  0
 26 27  1  0
 26 25  2  0
 28 27  1  6
 28 29  1  0
 29 20  1  0
 30 28  1  0
 31 30  2  0
 32 26  1  0
 33 32  2  0
 33 23  1  0
 34 30  1  0
M  END
$$$$
