WPY.pdb
     RDKit          3D

 34 37  0  0  1  0  0  0  0  0999 V2000
    6.1237  -17.7215   25.0790 N   0  0  0  0  0  0  0  0  0  0  0  0
    6.0930  -16.9488   23.8881 C   0  0  1  0  0  0  0  0  0  0  0  0
    5.8074  -15.5128   24.2744 C   0  0  0  0  0  0  0  0  0  0  0  0
    6.6922  -15.0549   25.3715 C   0  0  0  0  0  0  0  0  0  0  0  0
    7.6652  -15.8122   25.9880 C   0  0  0  0  0  0  0  0  0  0  0  0
    8.2835  -15.1103   26.9354 N   0  0  0  0  0  0  0  0  0  0  0  0
    7.7206  -13.8915   26.9454 C   0  0  0  0  0  0  0  0  0  0  0  0
    7.9731  -12.7926   27.7142 C   0  0  0  0  0  0  0  0  0  0  0  0
    7.2457  -11.6395   27.5292 C   0  0  0  0  0  0  0  0  0  0  0  0
    6.2647  -11.5903   26.5722 C   0  0  0  0  0  0  0  0  0  0  0  0
    5.9772  -12.6818   25.7721 C   0  0  0  0  0  0  0  0  0  0  0  0
    6.7290  -13.8171   25.9896 C   0  0  0  0  0  0  0  0  0  0  0  0
    7.2265  -17.0844   22.9790 C   0  0  0  0  0  0  0  0  0  0  0  0
    7.6523  -18.2817   22.8071 O   0  0  0  0  0  0  0  0  0  0  0  0
    7.8984  -16.0572   22.2767 N   0  0  0  0  0  0  0  0  0  0  0  0
    7.7225  -14.6292   22.3228 C   0  0  0  0  0  0  0  0  0  0  0  0
    8.0850  -14.1829   20.9250 C   0  0  0  0  0  0  0  0  0  0  0  0
    8.5426  -15.3940   20.1857 C   0  0  0  0  0  0  0  0  0  0  0  0
    8.9620  -16.2950   21.3296 C   0  0  1  0  0  0  0  0  0  0  0  0
   10.2449  -15.9049   21.9454 C   0  0  0  0  0  0  0  0  0  0  0  0
   10.7870  -14.8396   21.6147 O   0  0  0  0  0  0  0  0  0  0  0  0
   10.4191  -15.7834   30.0283 O   0  0  0  0  0  0  0  0  0  0  0  0
   10.6600  -15.5870   28.6758 C   0  0  0  0  0  0  0  0  0  0  0  0
   10.1546  -14.5124   27.9667 C   0  0  0  0  0  0  0  0  0  0  0  0
   10.4145  -14.3491   26.6234 C   0  0  0  0  0  0  0  0  0  0  0  0
   11.1909  -15.2536   25.9310 C   0  0  0  0  0  0  0  0  0  0  0  0
   11.4235  -15.0197   24.4944 C   0  0  0  0  0  0  0  0  0  0  0  0
   11.9830  -16.2332   23.7684 C   0  0  2  0  0  0  0  0  0  0  0  0
   10.9079  -16.7044   22.9203 N   0  0  0  0  0  0  0  0  0  0  0  0
   12.3222  -17.3306   24.7101 C   0  0  0  0  0  0  0  0  0  0  0  0
   11.5500  -18.3347   24.8824 O   0  0  0  0  0  0  0  0  0  0  0  0
   11.7048  -16.3300   26.6133 C   0  0  0  0  0  0  0  0  0  0  0  0
   11.4331  -16.4700   27.9445 C   0  0  0  0  0  0  0  0  0  0  0  0
   13.4867  -17.3609   25.4707 O   0  0  0  0  0  0  0  0  0  0  0  0
  2  1  1  1
  2 13  1  0
  2  3  1  0
  4  3  1  0
  4  5  2  0
  6  5  1  0
  7  6  1  0
  8  7  2  0
  9  8  1  0
 10  9  2  0
 10 11  1  0
 11 12  2  0
 12  7  1  0
 12  4  1  0
 13 14  2  0
 15 13  1  0
 15 16  1  0
 17 16  1  0
 18 19  1  0
 18 17  1  0
 19 15  1  0
 19 20  1  1
 21 20  2  0
 22 23  1  0
 23 24  2  0
 24 25  1  0
 26 27  1  0
 26 25  2  0
 28 27  1  1
 28 29  1  0
 29 20  1  0
 30 28  1  0
 31 30  2  0
 32 26  1  0
 33 32  2  0
 33 23  1  0
 34 30  1  0
M  END
$$$$
