WPY.pdb
     RDKit          3D

 34 37  0  0  1  0  0  0  0  0999 V2000
    6.4081  -18.3937   24.9452 N   0  0  0  0  0  0  0  0  0  0  0  0
    6.2358  -17.4532   23.8954 C   0  0  1  0  0  0  0  0  0  0  0  0
    5.7648  -16.1524   24.5109 C   0  0  0  0  0  0  0  0  0  0  0  0
    6.7444  -15.6235   25.4891 C   0  0  0  0  0  0  0  0  0  0  0  0
    7.6087  -16.3812   26.2503 C   0  0  0  0  0  0  0  0  0  0  0  0
    8.3578  -15.6056   27.0310 N   0  0  0  0  0  0  0  0  0  0  0  0
    7.9899  -14.3377   26.7867 C   0  0  0  0  0  0  0  0  0  0  0  0
    8.4332  -13.1578   27.3099 C   0  0  0  0  0  0  0  0  0  0  0  0
    7.8863  -11.9678   26.8885 C   0  0  0  0  0  0  0  0  0  0  0  0
    6.8942  -11.9629   25.9417 C   0  0  0  0  0  0  0  0  0  0  0  0
    6.4165  -13.1365   25.3862 C   0  0  0  0  0  0  0  0  0  0  0  0
    6.9912  -14.3066   25.8358 C   0  0  0  0  0  0  0  0  0  0  0  0
    7.3502  -17.2799   22.9693 C   0  0  0  0  0  0  0  0  0  0  0  0
    7.8630  -18.3653   22.5180 O   0  0  0  0  0  0  0  0  0  0  0  0
    7.9200  -16.0659   22.5206 N   0  0  0  0  0  0  0  0  0  0  0  0
    7.6255  -14.7065   22.8915 C   0  0  0  0  0  0  0  0  0  0  0  0
    7.9225  -13.9242   21.6329 C   0  0  0  0  0  0  0  0  0  0  0  0
    8.4662  -14.8912   20.6367 C   0  0  0  0  0  0  0  0  0  0  0  0
    8.9815  -15.9893   21.5449 C   0  0  1  0  0  0  0  0  0  0  0  0
   10.2386  -15.6406   22.2344 C   0  0  0  0  0  0  0  0  0  0  0  0
   10.7884  -14.5541   21.9985 O   0  0  0  0  0  0  0  0  0  0  0  0
    9.6798  -15.7218   29.8109 O   0  0  0  0  0  0  0  0  0  0  0  0
   10.2022  -15.5240   28.5406 C   0  0  0  0  0  0  0  0  0  0  0  0
   11.1509  -16.3570   27.9757 C   0  0  0  0  0  0  0  0  0  0  0  0
   11.6477  -16.1299   26.7107 C   0  0  0  0  0  0  0  0  0  0  0  0
   11.2173  -15.0597   25.9559 C   0  0  0  0  0  0  0  0  0  0  0  0
   11.7956  -14.8739   24.6128 C   0  0  0  0  0  0  0  0  0  0  0  0
   12.0839  -16.1825   23.8937 C   0  0  2  0  0  0  0  0  0  0  0  0
   10.8675  -16.5041   23.1767 N   0  0  0  0  0  0  0  0  0  0  0  0
   12.3450  -17.2898   24.8485 C   0  0  0  0  0  0  0  0  0  0  0  0
   11.5004  -18.2304   25.0384 O   0  0  0  0  0  0  0  0  0  0  0  0
   10.2750  -14.2172   26.4950 C   0  0  0  0  0  0  0  0  0  0  0  0
    9.7978  -14.4633   27.7509 C   0  0  0  0  0  0  0  0  0  0  0  0
   13.5085  -17.3980   25.6036 O   0  0  0  0  0  0  0  0  0  0  0  0
  2  1  1  1
  2 13  1  0
  2  3  1  0
  4  3  1  0
  4  5  2  0
  6  5  1  0
  7  6  1  0
  8  7  2  0
  9  8  1  0
 10  9  2  0
 10 11  1  0
 11 12  2  0
 12  7  1  0
 12  4  1  0
 13 14  2  0
 15 13  1  0
 15 16  1  0
 17 16  1  0
 18 19  1  0
 18 17  1  0
 19 15  1  0
 19 20  1  1
 21 20  2  0
 22 23  1  0
 23 24  2  0
 24 25  1  0
 26 27  1  0
 26 25  2  0
 28 27  1  1
 28 29  1  0
 29 20  1  0
 30 28  1  0
 31 30  2  0
 32 26  1  0
 33 32  2  0
 33 23  1  0
 34 30  1  0
M  END
$$$$
