WPY.pdb
     RDKit          3D

 34 37  0  0  1  0  0  0  0  0999 V2000
    6.3622  -19.7672   24.0324 N   0  0  0  0  0  0  0  0  0  0  0  0
    6.2441  -18.4734   23.4593 C   0  0  1  0  0  0  0  0  0  0  0  0
    5.7743  -17.5270   24.5439 C   0  0  0  0  0  0  0  0  0  0  0  0
    6.6909  -17.5310   25.7084 C   0  0  0  0  0  0  0  0  0  0  0  0
    7.0756  -18.6446   26.4241 C   0  0  0  0  0  0  0  0  0  0  0  0
    7.9048  -18.3113   27.4109 N   0  0  0  0  0  0  0  0  0  0  0  0
    8.0681  -16.9802   27.3481 C   0  0  0  0  0  0  0  0  0  0  0  0
    8.8081  -16.1294   28.1168 C   0  0  0  0  0  0  0  0  0  0  0  0
    8.8105  -14.7805   27.8460 C   0  0  0  0  0  0  0  0  0  0  0  0
    8.0696  -14.2863   26.8032 C   0  0  0  0  0  0  0  0  0  0  0  0
    7.3060  -15.1144   25.9999 C   0  0  0  0  0  0  0  0  0  0  0  0
    7.3313  -16.4589   26.3050 C   0  0  0  0  0  0  0  0  0  0  0  0
    7.3939  -17.9690   22.7154 C   0  0  0  0  0  0  0  0  0  0  0  0
    8.1797  -18.8663   22.2444 O   0  0  0  0  0  0  0  0  0  0  0  0
    7.7335  -16.6202   22.4599 N   0  0  0  0  0  0  0  0  0  0  0  0
    7.2430  -15.4072   23.0602 C   0  0  0  0  0  0  0  0  0  0  0  0
    7.3396  -14.3950   21.9419 C   0  0  0  0  0  0  0  0  0  0  0  0
    7.9775  -15.0843   20.7840 C   0  0  0  0  0  0  0  0  0  0  0  0
    8.7134  -16.2102   21.4820 C   0  0  1  0  0  0  0  0  0  0  0  0
    9.9330  -15.7686   22.1852 C   0  0  0  0  0  0  0  0  0  0  0  0
   10.6966  -14.9566   21.6413 O   0  0  0  0  0  0  0  0  0  0  0  0
    6.7368  -13.3170   28.1233 O   0  0  0  0  0  0  0  0  0  0  0  0
    7.7670  -13.5311   27.2186 C   0  0  0  0  0  0  0  0  0  0  0  0
    7.5588  -13.6924   25.8608 C   0  0  0  0  0  0  0  0  0  0  0  0
    8.6065  -13.9034   24.9911 C   0  0  0  0  0  0  0  0  0  0  0  0
    9.9079  -13.9625   25.4417 C   0  0  0  0  0  0  0  0  0  0  0  0
   10.9790  -14.1968   24.4565 C   0  0  0  0  0  0  0  0  0  0  0  0
   11.3412  -15.6651   24.2967 C   0  0  2  0  0  0  0  0  0  0  0  0
   10.2875  -16.2355   23.4835 N   0  0  0  0  0  0  0  0  0  0  0  0
   11.3356  -16.3788   25.5992 C   0  0  0  0  0  0  0  0  0  0  0  0
   12.1795  -16.1085   26.5205 O   0  0  0  0  0  0  0  0  0  0  0  0
   10.1410  -13.8053   26.7868 C   0  0  0  0  0  0  0  0  0  0  0  0
    9.0860  -13.5972   27.6289 C   0  0  0  0  0  0  0  0  0  0  0  0
   10.4289  -17.3830   25.9238 O   0  0  0  0  0  0  0  0  0  0  0  0
  2  1  1  1
  2 13  1  0
  2  3  1  0
  4  3  1  0
  4  5  2  0
  6  5  1  0
  7  6  1  0
  8  7  2  0
  9  8  1  0
 10  9  2  0
 10 11  1  0
 11 12  2  0
 12  7  1  0
 12  4  1  0
 13 14  2  0
 15 13  1  0
 15 16  1  0
 17 16  1  0
 18 19  1  0
 18 17  1  0
 19 15  1  0
 19 20  1  1
 21 20  2  0
 22 23  1  0
 23 24  2  0
 24 25  1  0
 26 27  1  0
 26 25  2  0
 28 27  1  1
 28 29  1  0
 29 20  1  0
 30 28  1  0
 31 30  2  0
 32 26  1  0
 33 32  2  0
 33 23  1  0
 34 30  1  0
M  END
$$$$
