WPY.pdb
     RDKit          3D

 34 37  0  0  1  0  0  0  0  0999 V2000
    6.3467  -18.4372   24.7486 N   0  0  0  0  0  0  0  0  0  0  0  0
    6.2979  -17.4856   23.6958 C   0  0  1  0  0  0  0  0  0  0  0  0
    5.6452  -16.2303   24.2353 C   0  0  0  0  0  0  0  0  0  0  0  0
    6.4725  -15.5915   25.2859 C   0  0  0  0  0  0  0  0  0  0  0  0
    7.3692  -16.2404   26.1076 C   0  0  0  0  0  0  0  0  0  0  0  0
    7.9512  -15.3843   26.9447 N   0  0  0  0  0  0  0  0  0  0  0  0
    7.4405  -14.1718   26.6772 C   0  0  0  0  0  0  0  0  0  0  0  0
    7.6866  -12.9512   27.2357 C   0  0  0  0  0  0  0  0  0  0  0  0
    7.0223  -11.8367   26.7779 C   0  0  0  0  0  0  0  0  0  0  0  0
    6.1109  -11.9483   25.7593 C   0  0  0  0  0  0  0  0  0  0  0  0
    5.8324  -13.1668   25.1661 C   0  0  0  0  0  0  0  0  0  0  0  0
    6.5195  -14.2581   25.6541 C   0  0  0  0  0  0  0  0  0  0  0  0
    7.5419  -17.2235   22.9792 C   0  0  0  0  0  0  0  0  0  0  0  0
    8.3265  -18.2302   22.8548 O   0  0  0  0  0  0  0  0  0  0  0  0
    7.9728  -16.0005   22.4150 N   0  0  0  0  0  0  0  0  0  0  0  0
    7.4987  -14.6583   22.6296 C   0  0  0  0  0  0  0  0  0  0  0  0
    7.7422  -13.9804   21.3009 C   0  0  0  0  0  0  0  0  0  0  0  0
    8.4377  -14.9692   20.4281 C   0  0  0  0  0  0  0  0  0  0  0  0
    9.0516  -15.8918   21.4616 C   0  0  1  0  0  0  0  0  0  0  0  0
   10.2297  -15.3160   22.1381 C   0  0  0  0  0  0  0  0  0  0  0  0
   10.4085  -14.0887   22.1233 O   0  0  0  0  0  0  0  0  0  0  0  0
   11.2337  -15.1439   30.5722 O   0  0  0  0  0  0  0  0  0  0  0  0
   11.0123  -15.3249   29.2143 C   0  0  0  0  0  0  0  0  0  0  0  0
   10.6118  -16.5309   28.6683 C   0  0  0  0  0  0  0  0  0  0  0  0
   10.4012  -16.6743   27.3141 C   0  0  0  0  0  0  0  0  0  0  0  0
   10.5821  -15.6179   26.4473 C   0  0  0  0  0  0  0  0  0  0  0  0
   10.3442  -15.8439   25.0103 C   0  0  0  0  0  0  0  0  0  0  0  0
   11.6216  -15.8824   24.1860 C   0  0  2  0  0  0  0  0  0  0  0  0
   11.1930  -16.1119   22.8219 N   0  0  0  0  0  0  0  0  0  0  0  0
   12.4951  -17.0184   24.5764 C   0  0  0  0  0  0  0  0  0  0  0  0
   13.7162  -16.8461   24.9131 O   0  0  0  0  0  0  0  0  0  0  0  0
   10.9799  -14.4089   26.9654 C   0  0  0  0  0  0  0  0  0  0  0  0
   11.1822  -14.2916   28.3111 C   0  0  0  0  0  0  0  0  0  0  0  0
   12.0687  -18.3424   24.6096 O   0  0  0  0  0  0  0  0  0  0  0  0
  2  1  1  1
  2 13  1  0
  2  3  1  0
  4  3  1  0
  4  5  2  0
  6  5  1  0
  7  6  1  0
  8  7  2  0
  9  8  1  0
 10  9  2  0
 10 11  1  0
 11 12  2  0
 12  7  1  0
 12  4  1  0
 13 14  2  0
 15 13  1  0
 15 16  1  0
 17 16  1  0
 18 19  1  0
 18 17  1  0
 19 15  1  0
 19 20  1  1
 21 20  2  0
 22 23  1  0
 23 24  2  0
 24 25  1  0
 26 27  1  0
 26 25  2  0
 28 27  1  1
 28 29  1  0
 29 20  1  0
 30 28  1  0
 31 30  2  0
 32 26  1  0
 33 32  2  0
 33 23  1  0
 34 30  1  0
M  END
$$$$
