WPY.pdb
     RDKit          3D

 34 37  0  0  1  0  0  0  0  0999 V2000
    5.5402  -19.0961   20.7854 N   0  0  0  0  0  0  0  0  0  0  0  0
    6.0677  -18.1031   21.6526 C   0  0  1  0  0  0  0  0  0  0  0  0
    6.0297  -18.6520   23.0633 C   0  0  0  0  0  0  0  0  0  0  0  0
    6.3229  -17.6020   24.0672 C   0  0  0  0  0  0  0  0  0  0  0  0
    5.7637  -16.3423   24.0989 C   0  0  0  0  0  0  0  0  0  0  0  0
    6.2367  -15.6388   25.1254 N   0  0  0  0  0  0  0  0  0  0  0  0
    7.1069  -16.4314   25.7711 C   0  0  0  0  0  0  0  0  0  0  0  0
    7.8691  -16.2104   26.8814 C   0  0  0  0  0  0  0  0  0  0  0  0
    8.6982  -17.1999   27.3569 C   0  0  0  0  0  0  0  0  0  0  0  0
    8.7618  -18.4114   26.7174 C   0  0  0  0  0  0  0  0  0  0  0  0
    8.0060  -18.6761   25.5892 C   0  0  0  0  0  0  0  0  0  0  0  0
    7.1884  -17.6581   25.1457 C   0  0  0  0  0  0  0  0  0  0  0  0
    7.3603  -17.5277   21.2949 C   0  0  0  0  0  0  0  0  0  0  0  0
    8.2665  -18.3741   20.9680 O   0  0  0  0  0  0  0  0  0  0  0  0
    7.7199  -16.1603   21.2693 N   0  0  0  0  0  0  0  0  0  0  0  0
    7.0810  -15.0185   21.8695 C   0  0  0  0  0  0  0  0  0  0  0  0
    7.4056  -13.8904   20.9174 C   0  0  0  0  0  0  0  0  0  0  0  0
    8.3028  -14.4512   19.8669 C   0  0  0  0  0  0  0  0  0  0  0  0
    8.8861  -15.6493   20.5884 C   0  0  1  0  0  0  0  0  0  0  0  0
    9.9061  -15.2916   21.5928 C   0  0  0  0  0  0  0  0  0  0  0  0
   10.6694  -14.3372   21.3812 O   0  0  0  0  0  0  0  0  0  0  0  0
    5.9483  -13.8192   27.1375 O   0  0  0  0  0  0  0  0  0  0  0  0
    7.1381  -13.9407   26.4338 C   0  0  0  0  0  0  0  0  0  0  0  0
    7.9222  -15.0797   26.4664 C   0  0  0  0  0  0  0  0  0  0  0  0
    9.0987  -15.1653   25.7543 C   0  0  0  0  0  0  0  0  0  0  0  0
    9.5421  -14.1154   24.9788 C   0  0  0  0  0  0  0  0  0  0  0  0
   10.8124  -14.2738   24.2480 C   0  0  0  0  0  0  0  0  0  0  0  0
   11.0805  -15.7043   23.8070 C   0  0  2  0  0  0  0  0  0  0  0  0
   10.0640  -15.9996   22.8187 N   0  0  0  0  0  0  0  0  0  0  0  0
   10.9088  -16.6668   24.9250 C   0  0  0  0  0  0  0  0  0  0  0  0
   11.7125  -16.6973   25.9187 O   0  0  0  0  0  0  0  0  0  0  0  0
    8.7807  -12.9726   24.9298 C   0  0  0  0  0  0  0  0  0  0  0  0
    7.6183  -12.9119   25.6444 C   0  0  0  0  0  0  0  0  0  0  0  0
    9.8787  -17.5998   24.9873 O   0  0  0  0  0  0  0  0  0  0  0  0
  2  1  1  6
  2 13  1  0
  2  3  1  0
  4  3  1  0
  4  5  2  0
  6  5  1  0
  7  6  1  0
  8  7  2  0
  9  8  1  0
 10  9  2  0
 10 11  1  0
 11 12  2  0
 12  7  1  0
 12  4  1  0
 13 14  2  0
 15 13  1  0
 15 16  1  0
 17 16  1  0
 18 19  1  0
 18 17  1  0
 19 15  1  0
 19 20  1  1
 21 20  2  0
 22 23  1  0
 23 24  2  0
 24 25  1  0
 26 27  1  0
 26 25  2  0
 28 27  1  1
 28 29  1  0
 29 20  1  0
 30 28  1  0
 31 30  2  0
 32 26  1  0
 33 32  2  0
 33 23  1  0
 34 30  1  0
M  END
$$$$
