WPY.pdb
     RDKit          3D

 34 37  0  0  1  0  0  0  0  0999 V2000
    5.6954  -18.2333   23.9563 N   0  0  0  0  0  0  0  0  0  0  0  0
    6.6041  -17.1437   23.8967 C   0  0  1  0  0  0  0  0  0  0  0  0
    7.2902  -17.0382   25.2425 C   0  0  0  0  0  0  0  0  0  0  0  0
    6.8797  -15.8151   25.9716 C   0  0  0  0  0  0  0  0  0  0  0  0
    5.7367  -15.6773   26.7298 C   0  0  0  0  0  0  0  0  0  0  0  0
    5.6583  -14.4553   27.2523 N   0  0  0  0  0  0  0  0  0  0  0  0
    6.7470  -13.7864   26.8406 C   0  0  0  0  0  0  0  0  0  0  0  0
    7.1597  -12.5081   27.0818 C   0  0  0  0  0  0  0  0  0  0  0  0
    8.3354  -12.0481   26.5352 C   0  0  0  0  0  0  0  0  0  0  0  0
    9.0966  -12.8720   25.7462 C   0  0  0  0  0  0  0  0  0  0  0  0
    8.7143  -14.1740   25.4770 C   0  0  0  0  0  0  0  0  0  0  0  0
    7.5301  -14.5955   26.0439 C   0  0  0  0  0  0  0  0  0  0  0  0
    7.5355  -17.1163   22.7736 C   0  0  0  0  0  0  0  0  0  0  0  0
    7.7847  -18.2550   22.2391 O   0  0  0  0  0  0  0  0  0  0  0  0
    8.1848  -15.9901   22.2170 N   0  0  0  0  0  0  0  0  0  0  0  0
    8.0587  -14.5917   22.5346 C   0  0  0  0  0  0  0  0  0  0  0  0
    8.3284  -13.9038   21.2161 C   0  0  0  0  0  0  0  0  0  0  0  0
    8.6898  -14.9673   20.2356 C   0  0  0  0  0  0  0  0  0  0  0  0
    9.1655  -16.0694   21.1603 C   0  0  1  0  0  0  0  0  0  0  0  0
   10.5032  -15.8213   21.7315 C   0  0  0  0  0  0  0  0  0  0  0  0
   11.1521  -14.8284   21.3690 O   0  0  0  0  0  0  0  0  0  0  0  0
    9.2335  -15.2559   28.8621 O   0  0  0  0  0  0  0  0  0  0  0  0
    9.9564  -15.2091   27.6785 C   0  0  0  0  0  0  0  0  0  0  0  0
   11.0415  -16.0280   27.4230 C   0  0  0  0  0  0  0  0  0  0  0  0
   11.7363  -15.9540   26.2355 C   0  0  0  0  0  0  0  0  0  0  0  0
   11.3763  -15.0577   25.2520 C   0  0  0  0  0  0  0  0  0  0  0  0
   12.1676  -15.0289   24.0087 C   0  0  0  0  0  0  0  0  0  0  0  0
   12.3494  -16.4004   23.3772 C   0  0  2  0  0  0  0  0  0  0  0  0
   11.1014  -16.6801   22.6978 N   0  0  0  0  0  0  0  0  0  0  0  0
   12.5459  -17.4571   24.4022 C   0  0  0  0  0  0  0  0  0  0  0  0
   13.5825  -17.4878   25.1497 O   0  0  0  0  0  0  0  0  0  0  0  0
   10.3015  -14.2330   25.4818 C   0  0  0  0  0  0  0  0  0  0  0  0
    9.6287  -14.3252   26.6668 C   0  0  0  0  0  0  0  0  0  0  0  0
   11.6369  -18.4846   24.6339 O   0  0  0  0  0  0  0  0  0  0  0  0
  2  1  1  1
  2 13  1  0
  2  3  1  0
  4  3  1  0
  4  5  2  0
  6  5  1  0
  7  6  1  0
  8  7  2  0
  9  8  1  0
 10  9  2  0
 10 11  1  0
 11 12  2  0
 12  7  1  0
 12  4  1  0
 13 14  2  0
 15 13  1  0
 15 16  1  0
 17 16  1  0
 18 19  1  0
 18 17  1  0
 19 15  1  0
 19 20  1  1
 21 20  2  0
 22 23  1  0
 23 24  2  0
 24 25  1  0
 26 27  1  0
 26 25  2  0
 28 27  1  1
 28 29  1  0
 29 20  1  0
 30 28  1  0
 31 30  2  0
 32 26  1  0
 33 32  2  0
 33 23  1  0
 34 30  1  0
M  END
$$$$
