WPY.pdb
     RDKit          3D

 34 37  0  0  1  0  0  0  0  0999 V2000
    5.8232  -17.8336   24.5348 N   0  0  0  0  0  0  0  0  0  0  0  0
    6.5892  -16.7319   24.0701 C   0  0  1  0  0  0  0  0  0  0  0  0
    7.3898  -16.1979   25.2392 C   0  0  0  0  0  0  0  0  0  0  0  0
    6.7081  -15.0561   25.8933 C   0  0  0  0  0  0  0  0  0  0  0  0
    5.5080  -15.1169   26.5688 C   0  0  0  0  0  0  0  0  0  0  0  0
    5.1667  -13.9190   27.0388 N   0  0  0  0  0  0  0  0  0  0  0  0
    6.1390  -13.0677   26.6749 C   0  0  0  0  0  0  0  0  0  0  0  0
    6.2887  -11.7292   26.8947 C   0  0  0  0  0  0  0  0  0  0  0  0
    7.3947  -11.0701   26.4098 C   0  0  0  0  0  0  0  0  0  0  0  0
    8.3502  -11.7553   25.7042 C   0  0  0  0  0  0  0  0  0  0  0  0
    8.2367  -13.1123   25.4594 C   0  0  0  0  0  0  0  0  0  0  0  0
    7.1138  -13.7347   25.9625 C   0  0  0  0  0  0  0  0  0  0  0  0
    7.3940  -16.9413   22.8708 C   0  0  0  0  0  0  0  0  0  0  0  0
    7.4473  -18.1514   22.4498 O   0  0  0  0  0  0  0  0  0  0  0  0
    8.1115  -15.9724   22.1318 N   0  0  0  0  0  0  0  0  0  0  0  0
    8.2280  -14.5510   22.3275 C   0  0  0  0  0  0  0  0  0  0  0  0
    8.4064  -14.0145   20.9259 C   0  0  0  0  0  0  0  0  0  0  0  0
    8.4756  -15.1920   20.0139 C   0  0  0  0  0  0  0  0  0  0  0  0
    8.9155  -16.2799   20.9726 C   0  0  1  0  0  0  0  0  0  0  0  0
   10.3408  -16.1950   21.3447 C   0  0  0  0  0  0  0  0  0  0  0  0
   11.2129  -16.3293   20.4730 O   0  0  0  0  0  0  0  0  0  0  0  0
    9.3197  -16.2214   28.8283 O   0  0  0  0  0  0  0  0  0  0  0  0
   10.0248  -15.8658   27.6871 C   0  0  0  0  0  0  0  0  0  0  0  0
   11.3463  -16.2153   27.4759 C   0  0  0  0  0  0  0  0  0  0  0  0
   12.0154  -15.8447   26.3299 C   0  0  0  0  0  0  0  0  0  0  0  0
   11.3919  -15.1082   25.3454 C   0  0  0  0  0  0  0  0  0  0  0  0
   12.1697  -14.7417   24.1481 C   0  0  0  0  0  0  0  0  0  0  0  0
   12.1639  -15.8168   23.0725 C   0  0  2  0  0  0  0  0  0  0  0  0
   10.7774  -15.9620   22.6804 N   0  0  0  0  0  0  0  0  0  0  0  0
   12.6176  -17.1282   23.6019 C   0  0  0  0  0  0  0  0  0  0  0  0
   13.8179  -17.3169   23.9990 O   0  0  0  0  0  0  0  0  0  0  0  0
   10.0788  -14.7485   25.5316 C   0  0  0  0  0  0  0  0  0  0  0  0
    9.4370  -15.1279   26.6761 C   0  0  0  0  0  0  0  0  0  0  0  0
   11.7920  -18.2428   23.7102 O   0  0  0  0  0  0  0  0  0  0  0  0
  2  1  1  1
  2 13  1  0
  2  3  1  0
  4  3  1  0
  4  5  2  0
  6  5  1  0
  7  6  1  0
  8  7  2  0
  9  8  1  0
 10  9  2  0
 10 11  1  0
 11 12  2  0
 12  7  1  0
 12  4  1  0
 13 14  2  0
 15 13  1  0
 15 16  1  0
 17 16  1  0
 18 19  1  0
 18 17  1  0
 19 15  1  0
 19 20  1  1
 21 20  2  0
 22 23  1  0
 23 24  2  0
 24 25  1  0
 26 27  1  0
 26 25  2  0
 28 27  1  1
 28 29  1  0
 29 20  1  0
 30 28  1  0
 31 30  2  0
 32 26  1  0
 33 32  2  0
 33 23  1  0
 34 30  1  0
M  END
$$$$
