PKS.pdb
     RDKit          3D

 23 23  0  0  1  0  0  0  0  0999 V2000
   20.8147  -11.9734  -16.5441 N   0  0  0  0  0  0  0  0  0  0  0  0
   21.2154  -13.1716  -17.2977 C   0  0  0  0  0  0  0  0  0  0  0  0
   20.6583  -12.9592  -18.7010 C   0  0  0  0  0  0  0  0  0  0  0  0
   20.2834  -11.4928  -18.7263 C   0  0  0  0  0  0  0  0  0  0  0  0
   21.0525  -10.9445  -17.5466 C   0  0  1  0  0  0  0  0  0  0  0  0
   20.5350   -9.6275  -17.1099 C   0  0  0  0  0  0  0  0  0  0  0  0
   20.8346   -8.6294  -17.7980 O   0  0  0  0  0  0  0  0  0  0  0  0
   19.7272   -9.4283  -15.9692 N   0  0  0  0  0  0  0  0  0  0  0  0
   19.1617   -8.1270  -15.6265 C   0  0  1  0  0  0  0  0  0  0  0  0
   17.8269   -8.4025  -14.9673 C   0  0  0  0  0  0  0  0  0  0  0  0
   16.7249   -8.5898  -15.9590 C   0  0  0  0  0  0  0  0  0  0  0  0
   15.4673   -8.9494  -15.2257 C   0  0  0  0  0  0  0  0  0  0  0  0
   14.2833   -9.1070  -16.1552 C   0  0  0  0  0  0  0  0  0  0  0  0
   13.1316   -9.4221  -15.3081 N   0  0  0  0  0  0  0  0  0  0  0  0
   20.0822   -7.4388  -14.6849 C   0  0  0  0  0  0  0  0  0  0  0  0
   20.3877   -7.9858  -13.5702 O   0  0  0  0  0  0  0  0  0  0  0  0
   23.1703   -5.1071  -15.7796 O   0  0  0  0  0  0  0  0  0  0  0  0
   22.9418   -5.7594  -14.5763 C   0  0  0  0  0  0  0  0  0  0  0  0
   21.5228   -5.5410  -14.0854 C   0  0  2  0  0  0  0  0  0  0  0  0
   20.6339   -6.1716  -15.0046 N   0  0  0  0  0  0  0  0  0  0  0  0
   21.2416   -4.1294  -13.8389 C   0  0  0  0  0  0  0  0  0  0  0  0
   21.9473   -3.4363  -12.8802 O   0  0  0  0  0  0  0  0  0  0  0  0
   20.3592   -3.5412  -14.4958 O   0  0  0  0  0  0  0  0  0  0  0  0
  1  5  1  0
  1  2  1  0
  2  3  1  0
  4  3  1  0
  5  4  1  0
  5  6  1  1
  7  6  2  0
  8  6  1  0
  9  8  1  0
 10 11  1  0
  9 10  1  1
 11 12  1  0
 12 13  1  0
 13 14  1  0
 15  9  1  0
 15 16  2  0
 18 17  1  0
 19 18  1  6
 19 20  1  0
 20 15  1  0
 21 19  1  0
 22 21  1  0
 23 21  2  0
M  END
$$$$
