PKS.pdb
     RDKit          3D

 23 23  0  0  1  0  0  0  0  0999 V2000
   18.0109  -11.7983  -16.4268 N   0  0  0  0  0  0  0  0  0  0  0  0
   17.4801  -13.1311  -16.1013 C   0  0  0  0  0  0  0  0  0  0  0  0
   18.6903  -14.0577  -16.1410 C   0  0  0  0  0  0  0  0  0  0  0  0
   19.8729  -13.1128  -16.1444 C   0  0  0  0  0  0  0  0  0  0  0  0
   19.2526  -11.8204  -15.6666 C   0  0  1  0  0  0  0  0  0  0  0  0
   20.1029  -10.6483  -15.9765 C   0  0  0  0  0  0  0  0  0  0  0  0
   21.1977  -10.5528  -15.3834 O   0  0  0  0  0  0  0  0  0  0  0  0
   19.7565   -9.6349  -16.8965 N   0  0  0  0  0  0  0  0  0  0  0  0
   20.6521   -8.5277  -17.2173 C   0  0  1  0  0  0  0  0  0  0  0  0
   20.2659   -8.0547  -18.6028 C   0  0  0  0  0  0  0  0  0  0  0  0
   20.8319   -8.9188  -19.6826 C   0  0  0  0  0  0  0  0  0  0  0  0
   19.7752   -9.1543  -20.7202 C   0  0  0  0  0  0  0  0  0  0  0  0
   20.2495  -10.0697  -21.8282 C   0  0  0  0  0  0  0  0  0  0  0  0
   19.0869  -10.3241  -22.6807 N   0  0  0  0  0  0  0  0  0  0  0  0
   20.4533   -7.4470  -16.2173 C   0  0  0  0  0  0  0  0  0  0  0  0
   19.2938   -7.2360  -15.7215 O   0  0  0  0  0  0  0  0  0  0  0  0
   22.5081   -4.7497  -12.8655 O   0  0  0  0  0  0  0  0  0  0  0  0
   22.6240   -5.6368  -13.9264 C   0  0  0  0  0  0  0  0  0  0  0  0
   21.3477   -5.6952  -14.7450 C   0  0  2  0  0  0  0  0  0  0  0  0
   21.5397   -6.6364  -15.7985 N   0  0  0  0  0  0  0  0  0  0  0  0
   20.9198   -4.3699  -15.1843 C   0  0  0  0  0  0  0  0  0  0  0  0
   20.0409   -3.6338  -14.4207 O   0  0  0  0  0  0  0  0  0  0  0  0
   21.3479   -3.8952  -16.2555 O   0  0  0  0  0  0  0  0  0  0  0  0
  1  5  1  0
  1  2  1  0
  2  3  1  0
  4  3  1  0
  5  4  1  0
  5  6  1  6
  7  6  2  0
  8  6  1  0
  9  8  1  0
 10 11  1  0
  9 10  1  6
 11 12  1  0
 12 13  1  0
 13 14  1  0
 15  9  1  0
 15 16  2  0
 18 17  1  0
 19 18  1  6
 19 20  1  0
 20 15  1  0
 21 19  1  0
 22 21  1  0
 23 21  2  0
M  END
$$$$
