PKS.pdb
     RDKit          3D

 23 23  0  0  1  0  0  0  0  0999 V2000
   25.9980  -11.6003  -15.9672 N   0  0  0  0  0  0  0  0  0  0  0  0
   27.1557  -12.4992  -16.0923 C   0  0  0  0  0  0  0  0  0  0  0  0
   27.6763  -12.2768  -17.5080 C   0  0  0  0  0  0  0  0  0  0  0  0
   26.9808  -11.0095  -17.9572 C   0  0  0  0  0  0  0  0  0  0  0  0
   26.5112  -10.4196  -16.6475 C   0  0  1  0  0  0  0  0  0  0  0  0
   25.4544   -9.4011  -16.8444 C   0  0  0  0  0  0  0  0  0  0  0  0
   25.7673   -8.3479  -17.4381 O   0  0  0  0  0  0  0  0  0  0  0  0
   24.1201   -9.5436  -16.4055 N   0  0  0  0  0  0  0  0  0  0  0  0
   23.0652   -8.6096  -16.7874 C   0  0  1  0  0  0  0  0  0  0  0  0
   21.7739   -9.4000  -16.7825 C   0  0  0  0  0  0  0  0  0  0  0  0
   21.5582  -10.1546  -18.0541 C   0  0  0  0  0  0  0  0  0  0  0  0
   20.2920  -10.9495  -17.9385 C   0  0  0  0  0  0  0  0  0  0  0  0
   19.9790  -11.7217  -19.2020 C   0  0  0  0  0  0  0  0  0  0  0  0
   18.6766  -12.3550  -18.9877 N   0  0  0  0  0  0  0  0  0  0  0  0
   23.0144   -7.5115  -15.7879 C   0  0  0  0  0  0  0  0  0  0  0  0
   23.1548   -7.7686  -14.5432 O   0  0  0  0  0  0  0  0  0  0  0  0
   22.7733   -2.7530  -15.0001 O   0  0  0  0  0  0  0  0  0  0  0  0
   22.7852   -3.8021  -15.9084 C   0  0  0  0  0  0  0  0  0  0  0  0
   22.6949   -5.1453  -15.2084 C   0  0  2  0  0  0  0  0  0  0  0  0
   22.8106   -6.1679  -16.1952 N   0  0  0  0  0  0  0  0  0  0  0  0
   21.5051   -5.2439  -14.3675 C   0  0  0  0  0  0  0  0  0  0  0  0
   20.2742   -5.4999  -14.9305 O   0  0  0  0  0  0  0  0  0  0  0  0
   21.5958   -5.0967  -13.1321 O   0  0  0  0  0  0  0  0  0  0  0  0
  1  5  1  0
  1  2  1  0
  2  3  1  0
  4  3  1  0
  5  4  1  0
  5  6  1  6
  7  6  2  0
  8  6  1  0
  9  8  1  0
 10 11  1  0
  9 10  1  1
 11 12  1  0
 12 13  1  0
 13 14  1  0
 15  9  1  0
 15 16  2  0
 18 17  1  0
 19 18  1  6
 19 20  1  0
 20 15  1  0
 21 19  1  0
 22 21  1  0
 23 21  2  0
M  END
$$$$
