PKS.pdb
     RDKit          3D

 23 23  0  0  1  0  0  0  0  0999 V2000
   44.7777  -19.5543   -7.3569 N   0  0  0  0  0  0  0  0  0  0  0  0
   44.2856  -20.9219   -7.1301 C   0  0  0  0  0  0  0  0  0  0  0  0
   43.0194  -21.0301   -7.9727 C   0  0  0  0  0  0  0  0  0  0  0  0
   43.0853  -19.8245   -8.8859 C   0  0  0  0  0  0  0  0  0  0  0  0
   44.5398  -19.4265   -8.7877 C   0  0  1  0  0  0  0  0  0  0  0  0
   44.7694  -18.0410   -9.2573 C   0  0  0  0  0  0  0  0  0  0  0  0
   44.6403  -17.8135  -10.4784 O   0  0  0  0  0  0  0  0  0  0  0  0
   45.1237  -16.9640   -8.4159 N   0  0  0  0  0  0  0  0  0  0  0  0
   45.3456  -15.6132   -8.9228 C   0  0  1  0  0  0  0  0  0  0  0  0
   44.8637  -14.6681   -7.8426 C   0  0  0  0  0  0  0  0  0  0  0  0
   45.0732  -13.2326   -8.2010 C   0  0  0  0  0  0  0  0  0  0  0  0
   44.4108  -12.3721   -7.1668 C   0  0  0  0  0  0  0  0  0  0  0  0
   44.5058  -10.8981   -7.4969 C   0  0  0  0  0  0  0  0  0  0  0  0
   43.8546  -10.1851   -6.3966 N   0  0  0  0  0  0  0  0  0  0  0  0
   46.7985  -15.4296   -9.1737 C   0  0  0  0  0  0  0  0  0  0  0  0
   47.6498  -15.7313   -8.2687 O   0  0  0  0  0  0  0  0  0  0  0  0
   49.1200  -16.9472  -11.5200 O   0  0  0  0  0  0  0  0  0  0  0  0
   49.0515  -15.5975  -11.8349 C   0  0  0  0  0  0  0  0  0  0  0  0
   48.6633  -14.7635  -10.6282 C   0  0  2  0  0  0  0  0  0  0  0  0
   47.2624  -14.9197  -10.4136 N   0  0  0  0  0  0  0  0  0  0  0  0
   49.1079  -13.3784  -10.7558 C   0  0  0  0  0  0  0  0  0  0  0  0
   50.3046  -12.9780  -10.2035 O   0  0  0  0  0  0  0  0  0  0  0  0
   48.4060  -12.5477  -11.3668 O   0  0  0  0  0  0  0  0  0  0  0  0
  1  5  1  0
  1  2  1  0
  2  3  1  0
  4  3  1  0
  5  4  1  0
  5  6  1  1
  7  6  2  0
  8  6  1  0
  9  8  1  0
 10 11  1  0
  9 10  1  1
 11 12  1  0
 12 13  1  0
 13 14  1  0
 15  9  1  0
 15 16  2  0
 18 17  1  0
 19 18  1  6
 19 20  1  0
 20 15  1  0
 21 19  1  0
 22 21  1  0
 23 21  2  0
M  END
$$$$
