PKS.pdb
     RDKit          3D

 23 23  0  0  1  0  0  0  0  0999 V2000
   24.4404  -12.2368  -15.7443 N   0  0  0  0  0  0  0  0  0  0  0  0
   25.3486  -13.2748  -16.2560 C   0  0  0  0  0  0  0  0  0  0  0  0
   25.0405  -13.3682  -17.7464 C   0  0  0  0  0  0  0  0  0  0  0  0
   24.2224  -12.1260  -18.0280 C   0  0  0  0  0  0  0  0  0  0  0  0
   24.5235  -11.2635  -16.8242 C   0  0  1  0  0  0  0  0  0  0  0  0
   23.5312  -10.1772  -16.6570 C   0  0  0  0  0  0  0  0  0  0  0  0
   23.5759   -9.2220  -17.4603 O   0  0  0  0  0  0  0  0  0  0  0  0
   22.5408  -10.1519  -15.6511 N   0  0  0  0  0  0  0  0  0  0  0  0
   21.5006   -9.1291  -15.6005 C   0  0  1  0  0  0  0  0  0  0  0  0
   20.3039   -9.7709  -14.9310 C   0  0  0  0  0  0  0  0  0  0  0  0
   19.4737  -10.5694  -15.8829 C   0  0  0  0  0  0  0  0  0  0  0  0
   18.3180  -11.1663  -15.1368 C   0  0  0  0  0  0  0  0  0  0  0  0
   17.4125  -11.9821  -16.0340 C   0  0  0  0  0  0  0  0  0  0  0  0
   16.3346  -12.4892  -15.1828 N   0  0  0  0  0  0  0  0  0  0  0  0
   21.9985   -7.9803  -14.8006 C   0  0  0  0  0  0  0  0  0  0  0  0
   22.5812   -8.1820  -13.6804 O   0  0  0  0  0  0  0  0  0  0  0  0
   22.1491   -4.0709  -16.3593 O   0  0  0  0  0  0  0  0  0  0  0  0
   23.0450   -4.6025  -15.4425 C   0  0  0  0  0  0  0  0  0  0  0  0
   22.3622   -5.5699  -14.4936 C   0  0  2  0  0  0  0  0  0  0  0  0
   21.8368   -6.6490  -15.2632 N   0  0  0  0  0  0  0  0  0  0  0  0
   21.3851   -4.8995  -13.6402 C   0  0  0  0  0  0  0  0  0  0  0  0
   21.7872   -3.9215  -12.7573 O   0  0  0  0  0  0  0  0  0  0  0  0
   20.1783   -5.2085  -13.7053 O   0  0  0  0  0  0  0  0  0  0  0  0
  1  5  1  0
  1  2  1  0
  2  3  1  0
  4  3  1  0
  5  4  1  0
  5  6  1  1
  7  6  2  0
  8  6  1  0
  9  8  1  0
 10 11  1  0
  9 10  1  1
 11 12  1  0
 12 13  1  0
 13 14  1  0
 15  9  1  0
 15 16  2  0
 18 17  1  0
 19 18  1  6
 19 20  1  0
 20 15  1  0
 21 19  1  0
 22 21  1  0
 23 21  2  0
M  END
$$$$
