PKS.pdb
     RDKit          3D

 23 23  0  0  1  0  0  0  0  0999 V2000
   24.0831  -20.9979  -11.2190 N   0  0  0  0  0  0  0  0  0  0  0  0
   24.1990  -20.9721   -9.7527 C   0  0  0  0  0  0  0  0  0  0  0  0
   25.6763  -20.7129   -9.4786 C   0  0  0  0  0  0  0  0  0  0  0  0
   26.2222  -20.2644  -10.8175 C   0  0  0  0  0  0  0  0  0  0  0  0
   24.9647  -19.8931  -11.5688 C   0  0  1  0  0  0  0  0  0  0  0  0
   25.1924  -19.8185  -13.0301 C   0  0  0  0  0  0  0  0  0  0  0  0
   25.7919  -18.8167  -13.4733 O   0  0  0  0  0  0  0  0  0  0  0  0
   24.7765  -20.8040  -13.9516 N   0  0  0  0  0  0  0  0  0  0  0  0
   25.0375  -20.6980  -15.3839 C   0  0  1  0  0  0  0  0  0  0  0  0
   25.7110  -21.9913  -15.7913 C   0  0  0  0  0  0  0  0  0  0  0  0
   27.1736  -21.8212  -16.0457 C   0  0  0  0  0  0  0  0  0  0  0  0
   27.7558  -23.1463  -16.4378 C   0  0  0  0  0  0  0  0  0  0  0  0
   29.2417  -23.0639  -16.7135 C   0  0  0  0  0  0  0  0  0  0  0  0
   29.7065  -24.4409  -16.8899 N   0  0  0  0  0  0  0  0  0  0  0  0
   23.7433  -20.5315  -16.0944 C   0  0  0  0  0  0  0  0  0  0  0  0
   22.6791  -21.0615  -15.6236 O   0  0  0  0  0  0  0  0  0  0  0  0
   21.0707  -17.3261  -16.7473 O   0  0  0  0  0  0  0  0  0  0  0  0
   22.2022  -18.0882  -16.4928 C   0  0  0  0  0  0  0  0  0  0  0  0
   22.4700  -19.0777  -17.6116 C   0  0  2  0  0  0  0  0  0  0  0  0
   23.6670  -19.7864  -17.2993 N   0  0  0  0  0  0  0  0  0  0  0  0
   22.4693  -18.4334  -18.9221 C   0  0  0  0  0  0  0  0  0  0  0  0
   21.2926  -18.2805  -19.6218 O   0  0  0  0  0  0  0  0  0  0  0  0
   23.5358  -18.0168  -19.4171 O   0  0  0  0  0  0  0  0  0  0  0  0
  1  5  1  0
  1  2  1  0
  2  3  1  0
  4  3  1  0
  5  4  1  0
  5  6  1  6
  7  6  2  0
  8  6  1  0
  9  8  1  0
 10 11  1  0
  9 10  1  6
 11 12  1  0
 12 13  1  0
 13 14  1  0
 15  9  1  0
 15 16  2  0
 18 17  1  0
 19 18  1  1
 19 20  1  0
 20 15  1  0
 21 19  1  0
 22 21  1  0
 23 21  2  0
M  END
$$$$
