PKS.pdb
     RDKit          3D

 23 23  0  0  1  0  0  0  0  0999 V2000
   27.0469  -19.2981  -16.0803 N   0  0  0  0  0  0  0  0  0  0  0  0
   28.1440  -18.3529  -15.8216 C   0  0  0  0  0  0  0  0  0  0  0  0
   27.4872  -16.9769  -15.8221 C   0  0  0  0  0  0  0  0  0  0  0  0
   26.0065  -17.2798  -15.7352 C   0  0  0  0  0  0  0  0  0  0  0  0
   25.9996  -18.7127  -15.2552 C   0  0  1  0  0  0  0  0  0  0  0  0
   24.6925  -19.3694  -15.4858 C   0  0  0  0  0  0  0  0  0  0  0  0
   24.4761  -19.8492  -16.6182 O   0  0  0  0  0  0  0  0  0  0  0  0
   23.6783  -19.4875  -14.5106 N   0  0  0  0  0  0  0  0  0  0  0  0
   22.4290  -20.1997  -14.7612 C   0  0  1  0  0  0  0  0  0  0  0  0
   21.9415  -20.6917  -13.4148 C   0  0  0  0  0  0  0  0  0  0  0  0
   20.7477  -21.5834  -13.5277 C   0  0  0  0  0  0  0  0  0  0  0  0
   20.3320  -22.0149  -12.1531 C   0  0  0  0  0  0  0  0  0  0  0  0
   19.3326  -23.1510  -12.1834 C   0  0  0  0  0  0  0  0  0  0  0  0
   19.0652  -23.5040  -10.7880 N   0  0  0  0  0  0  0  0  0  0  0  0
   21.4524  -19.2548  -15.3619 C   0  0  0  0  0  0  0  0  0  0  0  0
   21.3506  -18.0628  -14.9104 O   0  0  0  0  0  0  0  0  0  0  0  0
   20.5712  -19.1698  -19.1832 O   0  0  0  0  0  0  0  0  0  0  0  0
   20.2865  -18.1659  -18.2685 C   0  0  0  0  0  0  0  0  0  0  0  0
   19.6906  -18.7289  -16.9917 C   0  0  2  0  0  0  0  0  0  0  0  0
   20.6218  -19.6566  -16.4395 N   0  0  0  0  0  0  0  0  0  0  0  0
   18.3503  -19.2674  -17.2059 C   0  0  0  0  0  0  0  0  0  0  0  0
   17.3327  -18.4482  -17.6427 O   0  0  0  0  0  0  0  0  0  0  0  0
   18.1178  -20.4746  -16.9944 O   0  0  0  0  0  0  0  0  0  0  0  0
  1  5  1  0
  1  2  1  0
  2  3  1  0
  4  3  1  0
  5  4  1  0
  5  6  1  6
  7  6  2  0
  8  6  1  0
  9  8  1  0
 10 11  1  0
  9 10  1  1
 11 12  1  0
 12 13  1  0
 13 14  1  0
 15  9  1  0
 15 16  2  0
 18 17  1  0
 19 18  1  6
 19 20  1  0
 20 15  1  0
 21 19  1  0
 22 21  1  0
 23 21  2  0
M  END
$$$$
