PKS.pdb
     RDKit          3D

 23 23  0  0  1  0  0  0  0  0999 V2000
   24.1514  -12.8287  -15.1999 N   0  0  0  0  0  0  0  0  0  0  0  0
   25.3115  -13.7218  -15.3432 C   0  0  0  0  0  0  0  0  0  0  0  0
   25.3613  -14.0682  -16.8273 C   0  0  0  0  0  0  0  0  0  0  0  0
   24.4290  -13.0621  -17.4678 C   0  0  0  0  0  0  0  0  0  0  0  0
   24.3068  -12.0076  -16.3923 C   0  0  1  0  0  0  0  0  0  0  0  0
   23.1340  -11.1293  -16.6065 C   0  0  0  0  0  0  0  0  0  0  0  0
   23.1788  -10.3239  -17.5599 O   0  0  0  0  0  0  0  0  0  0  0  0
   21.9720  -11.1437  -15.8047 N   0  0  0  0  0  0  0  0  0  0  0  0
   20.7986  -10.3309  -16.1101 C   0  0  1  0  0  0  0  0  0  0  0  0
   19.5919  -11.1765  -15.7619 C   0  0  0  0  0  0  0  0  0  0  0  0
   19.1326  -12.0198  -16.9067 C   0  0  0  0  0  0  0  0  0  0  0  0
   17.8614  -12.7144  -16.5192 C   0  0  0  0  0  0  0  0  0  0  0  0
   17.2514  -13.4845  -17.6704 C   0  0  0  0  0  0  0  0  0  0  0  0
   16.1423  -14.2579  -17.1092 N   0  0  0  0  0  0  0  0  0  0  0  0
   20.8386   -9.1016  -15.2765 C   0  0  0  0  0  0  0  0  0  0  0  0
   21.0535   -9.1850  -14.0188 O   0  0  0  0  0  0  0  0  0  0  0  0
   23.0451   -6.3540  -15.6365 O   0  0  0  0  0  0  0  0  0  0  0  0
   21.7957   -5.7501  -15.6399 C   0  0  0  0  0  0  0  0  0  0  0  0
   20.7370   -6.6580  -15.0423 C   0  0  2  0  0  0  0  0  0  0  0  0
   20.6403   -7.8231  -15.8583 N   0  0  0  0  0  0  0  0  0  0  0  0
   19.4733   -5.9575  -14.8305 C   0  0  0  0  0  0  0  0  0  0  0  0
   19.3973   -4.9151  -13.9333 O   0  0  0  0  0  0  0  0  0  0  0  0
   18.4530   -6.2990  -15.4617 O   0  0  0  0  0  0  0  0  0  0  0  0
  1  5  1  0
  1  2  1  0
  2  3  1  0
  4  3  1  0
  5  4  1  0
  5  6  1  6
  7  6  2  0
  8  6  1  0
  9  8  1  0
 10 11  1  0
  9 10  1  1
 11 12  1  0
 12 13  1  0
 13 14  1  0
 15  9  1  0
 15 16  2  0
 18 17  1  0
 19 18  1  6
 19 20  1  0
 20 15  1  0
 21 19  1  0
 22 21  1  0
 23 21  2  0
M  END
$$$$
