PKS.pdb
     RDKit          3D

 23 23  0  0  1  0  0  0  0  0999 V2000
   27.0126  -19.9367  -14.0609 N   0  0  0  0  0  0  0  0  0  0  0  0
   28.4723  -20.1093  -14.1206 C   0  0  0  0  0  0  0  0  0  0  0  0
   28.7469  -20.6649  -15.5138 C   0  0  0  0  0  0  0  0  0  0  0  0
   27.4499  -20.4352  -16.2599 C   0  0  0  0  0  0  0  0  0  0  0  0
   26.7588  -19.4077  -15.3936 C   0  0  1  0  0  0  0  0  0  0  0  0
   25.3084  -19.3246  -15.6804 C   0  0  0  0  0  0  0  0  0  0  0  0
   24.9613  -18.8533  -16.7836 O   0  0  0  0  0  0  0  0  0  0  0  0
   24.2959  -19.7426  -14.7896 N   0  0  0  0  0  0  0  0  0  0  0  0
   22.8825  -19.7445  -15.1546 C   0  0  1  0  0  0  0  0  0  0  0  0
   22.1514  -20.4380  -14.0245 C   0  0  0  0  0  0  0  0  0  0  0  0
   20.7066  -20.6659  -14.3303 C   0  0  0  0  0  0  0  0  0  0  0  0
   20.0919  -21.4538  -13.2123 C   0  0  0  0  0  0  0  0  0  0  0  0
   18.6729  -21.8804  -13.5203 C   0  0  0  0  0  0  0  0  0  0  0  0
   18.2010  -22.6230  -12.3501 N   0  0  0  0  0  0  0  0  0  0  0  0
   22.4232  -18.3385  -15.2947 C   0  0  0  0  0  0  0  0  0  0  0  0
   22.5761  -17.5136  -14.3298 O   0  0  0  0  0  0  0  0  0  0  0  0
   23.4007  -15.7458  -17.5272 O   0  0  0  0  0  0  0  0  0  0  0  0
   22.0385  -15.8812  -17.7547 C   0  0  0  0  0  0  0  0  0  0  0  0
   21.3420  -16.5473  -16.5827 C   0  0  2  0  0  0  0  0  0  0  0  0
   21.8111  -17.8906  -16.4936 N   0  0  0  0  0  0  0  0  0  0  0  0
   19.8900  -16.4145  -16.6634 C   0  0  0  0  0  0  0  0  0  0  0  0
   19.2979  -15.1748  -16.5637 O   0  0  0  0  0  0  0  0  0  0  0  0
   19.1754  -17.4244  -16.8233 O   0  0  0  0  0  0  0  0  0  0  0  0
  1  5  1  0
  1  2  1  0
  2  3  1  0
  4  3  1  0
  5  4  1  0
  5  6  1  6
  7  6  2  0
  8  6  1  0
  9  8  1  0
 10 11  1  0
  9 10  1  1
 11 12  1  0
 12 13  1  0
 13 14  1  0
 15  9  1  0
 15 16  2  0
 18 17  1  0
 19 18  1  6
 19 20  1  0
 20 15  1  0
 21 19  1  0
 22 21  1  0
 23 21  2  0
M  END
$$$$
