PKS.pdb
     RDKit          3D

 23 23  0  0  1  0  0  0  0  0999 V2000
   26.9563  -18.6530   -7.5274 N   0  0  0  0  0  0  0  0  0  0  0  0
   27.7087  -18.2921   -6.3159 C   0  0  0  0  0  0  0  0  0  0  0  0
   27.8741  -19.6003   -5.5504 C   0  0  0  0  0  0  0  0  0  0  0  0
   27.5029  -20.6639   -6.5617 C   0  0  0  0  0  0  0  0  0  0  0  0
   27.6024  -19.9123   -7.8690 C   0  0  1  0  0  0  0  0  0  0  0  0
   26.8927  -20.6096   -8.9659 C   0  0  0  0  0  0  0  0  0  0  0  0
   27.2835  -21.7550   -9.2737 O   0  0  0  0  0  0  0  0  0  0  0  0
   25.8060  -20.0644   -9.6837 N   0  0  0  0  0  0  0  0  0  0  0  0
   25.1539  -20.7759  -10.7788 C   0  0  1  0  0  0  0  0  0  0  0  0
   23.6822  -20.4302  -10.6952 C   0  0  0  0  0  0  0  0  0  0  0  0
   22.8928  -21.0043  -11.8266 C   0  0  0  0  0  0  0  0  0  0  0  0
   21.4699  -20.5459  -11.7080 C   0  0  0  0  0  0  0  0  0  0  0  0
   20.5994  -21.0732  -12.8281 C   0  0  0  0  0  0  0  0  0  0  0  0
   19.2611  -20.5230  -12.6058 N   0  0  0  0  0  0  0  0  0  0  0  0
   25.7327  -20.3079  -12.0646 C   0  0  0  0  0  0  0  0  0  0  0  0
   26.0895  -19.0877  -12.2021 O   0  0  0  0  0  0  0  0  0  0  0  0
   28.6708  -21.3596  -13.8739 O   0  0  0  0  0  0  0  0  0  0  0  0
   27.6221  -21.5538  -14.7616 C   0  0  0  0  0  0  0  0  0  0  0  0
   26.4152  -20.7126  -14.3899 C   0  0  2  0  0  0  0  0  0  0  0  0
   25.8981  -21.2011  -13.1543 N   0  0  0  0  0  0  0  0  0  0  0  0
   25.4394  -20.6486  -15.4744 C   0  0  0  0  0  0  0  0  0  0  0  0
   25.8129  -20.1967  -16.7209 O   0  0  0  0  0  0  0  0  0  0  0  0
   24.2595  -21.0032  -15.2788 O   0  0  0  0  0  0  0  0  0  0  0  0
  1  5  1  0
  1  2  1  0
  2  3  1  0
  4  3  1  0
  5  4  1  0
  5  6  1  6
  7  6  2  0
  8  6  1  0
  9  8  1  0
 10 11  1  0
  9 10  1  6
 11 12  1  0
 12 13  1  0
 13 14  1  0
 15  9  1  0
 15 16  2  0
 18 17  1  0
 19 18  1  6
 19 20  1  0
 20 15  1  0
 21 19  1  0
 22 21  1  0
 23 21  2  0
M  END
$$$$
