PKS.pdb
     RDKit          3D

 23 23  0  0  1  0  0  0  0  0999 V2000
   17.8957  -12.5615  -18.1144 N   0  0  0  0  0  0  0  0  0  0  0  0
   17.6498  -13.4347  -19.2724 C   0  0  0  0  0  0  0  0  0  0  0  0
   16.3239  -12.9553  -19.8530 C   0  0  0  0  0  0  0  0  0  0  0  0
   16.0948  -11.6176  -19.1825 C   0  0  0  0  0  0  0  0  0  0  0  0
   17.4723  -11.2800  -18.6608 C   0  0  1  0  0  0  0  0  0  0  0  0
   17.4291  -10.2298  -17.6176 C   0  0  0  0  0  0  0  0  0  0  0  0
   17.2123   -9.0560  -17.9849 O   0  0  0  0  0  0  0  0  0  0  0  0
   17.6166  -10.4693  -16.2389 N   0  0  0  0  0  0  0  0  0  0  0  0
   17.5822   -9.4002  -15.2457 C   0  0  1  0  0  0  0  0  0  0  0  0
   16.8706   -9.9660  -14.0349 C   0  0  0  0  0  0  0  0  0  0  0  0
   16.7383   -8.9694  -12.9294 C   0  0  0  0  0  0  0  0  0  0  0  0
   15.9027   -9.5650  -11.8359 C   0  0  0  0  0  0  0  0  0  0  0  0
   15.6412   -8.5855  -10.7121 C   0  0  0  0  0  0  0  0  0  0  0  0
   14.8747   -9.3133   -9.6992 N   0  0  0  0  0  0  0  0  0  0  0  0
   18.9773   -9.0185  -14.9059 C   0  0  0  0  0  0  0  0  0  0  0  0
   19.8911   -9.9109  -14.8462 O   0  0  0  0  0  0  0  0  0  0  0  0
   22.6067   -7.2966  -16.1068 O   0  0  0  0  0  0  0  0  0  0  0  0
   21.2702   -7.6571  -16.0092 C   0  0  0  0  0  0  0  0  0  0  0  0
   20.6862   -7.2698  -14.6633 C   0  0  2  0  0  0  0  0  0  0  0  0
   19.3167   -7.6662  -14.6439 N   0  0  0  0  0  0  0  0  0  0  0  0
   20.9159   -5.8615  -14.3533 C   0  0  0  0  0  0  0  0  0  0  0  0
   22.0499   -5.4744  -13.6737 O   0  0  0  0  0  0  0  0  0  0  0  0
   20.0855   -4.9985  -14.7023 O   0  0  0  0  0  0  0  0  0  0  0  0
  1  5  1  0
  1  2  1  0
  2  3  1  0
  4  3  1  0
  5  4  1  0
  5  6  1  1
  7  6  2  0
  8  6  1  0
  9  8  1  0
 10 11  1  0
  9 10  1  1
 11 12  1  0
 12 13  1  0
 13 14  1  0
 15  9  1  0
 15 16  2  0
 18 17  1  0
 19 18  1  6
 19 20  1  0
 20 15  1  0
 21 19  1  0
 22 21  1  0
 23 21  2  0
M  END
$$$$
