PKS.pdb
     RDKit          3D

 23 23  0  0  1  0  0  0  0  0999 V2000
   24.2472  -12.3558  -15.5294 N   0  0  0  0  0  0  0  0  0  0  0  0
   25.0700  -13.4959  -15.9619 C   0  0  0  0  0  0  0  0  0  0  0  0
   24.5190  -13.8832  -17.3298 C   0  0  0  0  0  0  0  0  0  0  0  0
   23.6502  -12.7063  -17.7193 C   0  0  0  0  0  0  0  0  0  0  0  0
   24.1372  -11.6242  -16.7835 C   0  0  1  0  0  0  0  0  0  0  0  0
   23.1733  -10.5049  -16.6793 C   0  0  0  0  0  0  0  0  0  0  0  0
   23.0422   -9.7581  -17.6716 O   0  0  0  0  0  0  0  0  0  0  0  0
   22.3955  -10.2285  -15.5339 N   0  0  0  0  0  0  0  0  0  0  0  0
   21.3642   -9.1955  -15.5172 C   0  0  1  0  0  0  0  0  0  0  0  0
   20.1420   -9.8236  -14.8815 C   0  0  0  0  0  0  0  0  0  0  0  0
   19.2260  -10.4420  -15.8872 C   0  0  0  0  0  0  0  0  0  0  0  0
   18.0793  -11.0872  -15.1678 C   0  0  0  0  0  0  0  0  0  0  0  0
   17.0988  -11.7418  -16.1167 C   0  0  0  0  0  0  0  0  0  0  0  0
   16.1674  -12.5072  -15.2860 N   0  0  0  0  0  0  0  0  0  0  0  0
   21.8493   -8.0490  -14.7061 C   0  0  0  0  0  0  0  0  0  0  0  0
   22.2678   -8.2378  -13.5127 O   0  0  0  0  0  0  0  0  0  0  0  0
   22.7991   -4.3962  -16.4522 O   0  0  0  0  0  0  0  0  0  0  0  0
   23.3813   -4.9036  -15.2992 C   0  0  0  0  0  0  0  0  0  0  0  0
   22.3743   -5.6620  -14.4547 C   0  0  2  0  0  0  0  0  0  0  0  0
   21.8563   -6.7342  -15.2388 N   0  0  0  0  0  0  0  0  0  0  0  0
   21.3597   -4.7772  -13.8890 C   0  0  0  0  0  0  0  0  0  0  0  0
   21.7094   -3.8207  -12.9614 O   0  0  0  0  0  0  0  0  0  0  0  0
   20.1680   -4.8819  -14.2425 O   0  0  0  0  0  0  0  0  0  0  0  0
  1  5  1  0
  1  2  1  0
  2  3  1  0
  4  3  1  0
  5  4  1  0
  5  6  1  1
  7  6  2  0
  8  6  1  0
  9  8  1  0
 10 11  1  0
  9 10  1  1
 11 12  1  0
 12 13  1  0
 13 14  1  0
 15  9  1  0
 15 16  2  0
 18 17  1  0
 19 18  1  6
 19 20  1  0
 20 15  1  0
 21 19  1  0
 22 21  1  0
 23 21  2  0
M  END
$$$$
