PKS.pdb
     RDKit          3D

 23 23  0  0  1  0  0  0  0  0999 V2000
   23.9715  -11.4484  -15.2349 N   0  0  0  0  0  0  0  0  0  0  0  0
   24.9546  -12.4715  -15.6231 C   0  0  0  0  0  0  0  0  0  0  0  0
   24.7242  -12.6941  -17.1138 C   0  0  0  0  0  0  0  0  0  0  0  0
   23.8589  -11.5230  -17.5277 C   0  0  0  0  0  0  0  0  0  0  0  0
   24.0574  -10.5567  -16.3828 C   0  0  1  0  0  0  0  0  0  0  0  0
   23.0045   -9.5162  -16.3453 C   0  0  0  0  0  0  0  0  0  0  0  0
   23.0242   -8.6386  -17.2336 O   0  0  0  0  0  0  0  0  0  0  0  0
   21.9828   -9.4526  -15.3729 N   0  0  0  0  0  0  0  0  0  0  0  0
   20.9191   -8.4539  -15.4175 C   0  0  1  0  0  0  0  0  0  0  0  0
   19.6543   -9.1583  -14.9742 C   0  0  0  0  0  0  0  0  0  0  0  0
   19.0408   -9.9760  -16.0642 C   0  0  0  0  0  0  0  0  0  0  0  0
   17.8622  -10.7189  -15.5095 C   0  0  0  0  0  0  0  0  0  0  0  0
   17.2867  -11.7082  -16.4996 C   0  0  0  0  0  0  0  0  0  0  0  0
   16.0967  -12.2810  -15.8678 N   0  0  0  0  0  0  0  0  0  0  0  0
   21.2613   -7.3492  -14.4848 C   0  0  0  0  0  0  0  0  0  0  0  0
   22.1189   -7.5359  -13.5549 O   0  0  0  0  0  0  0  0  0  0  0  0
   23.4398   -3.7889  -14.3609 O   0  0  0  0  0  0  0  0  0  0  0  0
   22.7063   -4.8903  -14.7785 C   0  0  0  0  0  0  0  0  0  0  0  0
   21.3303   -4.9176  -14.1395 C   0  0  2  0  0  0  0  0  0  0  0  0
   20.6463   -6.0769  -14.6096 N   0  0  0  0  0  0  0  0  0  0  0  0
   20.6100   -3.6634  -14.3406 C   0  0  0  0  0  0  0  0  0  0  0  0
   20.7016   -2.6514  -13.4105 O   0  0  0  0  0  0  0  0  0  0  0  0
   19.9061   -3.5000  -15.3574 O   0  0  0  0  0  0  0  0  0  0  0  0
  1  5  1  0
  1  2  1  0
  2  3  1  0
  4  3  1  0
  5  4  1  0
  5  6  1  1
  7  6  2  0
  8  6  1  0
  9  8  1  0
 10 11  1  0
  9 10  1  1
 11 12  1  0
 12 13  1  0
 13 14  1  0
 15  9  1  0
 15 16  2  0
 18 17  1  0
 19 18  1  6
 19 20  1  0
 20 15  1  0
 21 19  1  0
 22 21  1  0
 23 21  2  0
M  END
$$$$
