PKS.pdb
     RDKit          3D

 23 23  0  0  1  0  0  0  0  0999 V2000
   27.8918  -19.9272  -18.0692 N   0  0  0  0  0  0  0  0  0  0  0  0
   28.7496  -19.5682  -19.2091 C   0  0  0  0  0  0  0  0  0  0  0  0
   28.6483  -18.0506  -19.3161 C   0  0  0  0  0  0  0  0  0  0  0  0
   28.0131  -17.6345  -18.0065 C   0  0  0  0  0  0  0  0  0  0  0  0
   28.2288  -18.8556  -17.1428 C   0  0  1  0  0  0  0  0  0  0  0  0
   27.3420  -18.8608  -15.9569 C   0  0  0  0  0  0  0  0  0  0  0  0
   27.5004  -17.9566  -15.1102 O   0  0  0  0  0  0  0  0  0  0  0  0
   26.3322  -19.8193  -15.7225 N   0  0  0  0  0  0  0  0  0  0  0  0
   25.3440  -19.6727  -14.6582 C   0  0  1  0  0  0  0  0  0  0  0  0
   24.0426  -20.2187  -15.2067 C   0  0  0  0  0  0  0  0  0  0  0  0
   22.9675  -20.2876  -14.1712 C   0  0  0  0  0  0  0  0  0  0  0  0
   21.7554  -20.9347  -14.7717 C   0  0  0  0  0  0  0  0  0  0  0  0
   20.5561  -20.8784  -13.8503 C   0  0  0  0  0  0  0  0  0  0  0  0
   19.4551  -21.5276  -14.5644 N   0  0  0  0  0  0  0  0  0  0  0  0
   25.7904  -20.4598  -13.4798 C   0  0  0  0  0  0  0  0  0  0  0  0
   26.1987  -21.6624  -13.6278 O   0  0  0  0  0  0  0  0  0  0  0  0
   27.5850  -20.7561   -9.1680 O   0  0  0  0  0  0  0  0  0  0  0  0
   27.2272  -20.0334  -10.2973 C   0  0  0  0  0  0  0  0  0  0  0  0
   26.0983  -20.7073  -11.0548 C   0  0  2  0  0  0  0  0  0  0  0  0
   25.7714  -19.8938  -12.1791 N   0  0  0  0  0  0  0  0  0  0  0  0
   24.9693  -21.0237  -10.1845 C   0  0  0  0  0  0  0  0  0  0  0  0
   25.0961  -21.9779   -9.1991 O   0  0  0  0  0  0  0  0  0  0  0  0
   23.8810  -20.4310  -10.3278 O   0  0  0  0  0  0  0  0  0  0  0  0
  1  5  1  0
  1  2  1  0
  2  3  1  0
  4  3  1  0
  5  4  1  0
  5  6  1  1
  7  6  2  0
  8  6  1  0
  9  8  1  0
 10 11  1  0
  9 10  1  6
 11 12  1  0
 12 13  1  0
 13 14  1  0
 15  9  1  0
 15 16  2  0
 18 17  1  0
 19 18  1  1
 19 20  1  0
 20 15  1  0
 21 19  1  0
 22 21  1  0
 23 21  2  0
M  END
$$$$
