PKS.pdb
     RDKit          3D

 23 23  0  0  1  0  0  0  0  0999 V2000
   25.6011  -11.4708  -15.4316 N   0  0  0  0  0  0  0  0  0  0  0  0
   26.7237  -12.3365  -15.8247 C   0  0  0  0  0  0  0  0  0  0  0  0
   26.4770  -12.6590  -17.2944 C   0  0  0  0  0  0  0  0  0  0  0  0
   25.4161  -11.6634  -17.7128 C   0  0  0  0  0  0  0  0  0  0  0  0
   25.4962  -10.6284  -16.6146 C   0  0  1  0  0  0  0  0  0  0  0  0
   24.2888   -9.7722  -16.5693 C   0  0  0  0  0  0  0  0  0  0  0  0
   24.1174   -8.9612  -17.5033 O   0  0  0  0  0  0  0  0  0  0  0  0
   23.3220   -9.8138  -15.5412 N   0  0  0  0  0  0  0  0  0  0  0  0
   22.1047   -9.0089  -15.5768 C   0  0  1  0  0  0  0  0  0  0  0  0
   21.0024   -9.8780  -15.0095 C   0  0  0  0  0  0  0  0  0  0  0  0
   19.7569   -9.8362  -15.8342 C   0  0  0  0  0  0  0  0  0  0  0  0
   18.6884  -10.6273  -15.1408 C   0  0  0  0  0  0  0  0  0  0  0  0
   17.3863  -10.6368  -15.9121 C   0  0  0  0  0  0  0  0  0  0  0  0
   16.4789  -11.5232  -15.1810 N   0  0  0  0  0  0  0  0  0  0  0  0
   22.3067   -7.7996  -14.7376 C   0  0  0  0  0  0  0  0  0  0  0  0
   22.6489   -7.9185  -13.5113 O   0  0  0  0  0  0  0  0  0  0  0  0
   22.5507   -3.9450  -16.3860 O   0  0  0  0  0  0  0  0  0  0  0  0
   23.1946   -4.3722  -15.2333 C   0  0  0  0  0  0  0  0  0  0  0  0
   22.3452   -5.3593  -14.4545 C   0  0  2  0  0  0  0  0  0  0  0  0
   22.1244   -6.5012  -15.2793 N   0  0  0  0  0  0  0  0  0  0  0  0
   21.1290   -4.7412  -13.9338 C   0  0  0  0  0  0  0  0  0  0  0  0
   21.2063   -3.7322  -12.9992 O   0  0  0  0  0  0  0  0  0  0  0  0
   20.0104   -5.1234  -14.3325 O   0  0  0  0  0  0  0  0  0  0  0  0
  1  5  1  0
  1  2  1  0
  2  3  1  0
  4  3  1  0
  5  4  1  0
  5  6  1  1
  7  6  2  0
  8  6  1  0
  9  8  1  0
 10 11  1  0
  9 10  1  1
 11 12  1  0
 12 13  1  0
 13 14  1  0
 15  9  1  0
 15 16  2  0
 18 17  1  0
 19 18  1  6
 19 20  1  0
 20 15  1  0
 21 19  1  0
 22 21  1  0
 23 21  2  0
M  END
$$$$
