PKS.pdb
     RDKit          3D

 23 23  0  0  1  0  0  0  0  0999 V2000
   27.1119  -22.3251  -16.3242 N   0  0  0  0  0  0  0  0  0  0  0  0
   28.4469  -22.7388  -16.7830 C   0  0  0  0  0  0  0  0  0  0  0  0
   29.0376  -21.4991  -17.4457 C   0  0  0  0  0  0  0  0  0  0  0  0
   28.1239  -20.3773  -17.0003 C   0  0  0  0  0  0  0  0  0  0  0  0
   27.4122  -20.9933  -15.8180 C   0  0  1  0  0  0  0  0  0  0  0  0
   26.1793  -20.2532  -15.4647 C   0  0  0  0  0  0  0  0  0  0  0  0
   26.3085  -19.1178  -14.9608 O   0  0  0  0  0  0  0  0  0  0  0  0
   24.8711  -20.7469  -15.6603 N   0  0  0  0  0  0  0  0  0  0  0  0
   23.6815  -19.9580  -15.3544 C   0  0  1  0  0  0  0  0  0  0  0  0
   22.9285  -19.7994  -16.6583 C   0  0  0  0  0  0  0  0  0  0  0  0
   21.5752  -19.1945  -16.4693 C   0  0  0  0  0  0  0  0  0  0  0  0
   20.8910  -19.1093  -17.8010 C   0  0  0  0  0  0  0  0  0  0  0  0
   19.5118  -18.4940  -17.7018 C   0  0  0  0  0  0  0  0  0  0  0  0
   19.0167  -18.3654  -19.0735 N   0  0  0  0  0  0  0  0  0  0  0  0
   22.8617  -20.6959  -14.3590 C   0  0  0  0  0  0  0  0  0  0  0  0
   22.6789  -21.9552  -14.4842 O   0  0  0  0  0  0  0  0  0  0  0  0
   20.6878  -20.6064  -10.0608 O   0  0  0  0  0  0  0  0  0  0  0  0
   21.5134  -20.0059  -11.0007 C   0  0  0  0  0  0  0  0  0  0  0  0
   21.4927  -20.7558  -12.3197 C   0  0  2  0  0  0  0  0  0  0  0  0
   22.2717  -20.0200  -13.2601 N   0  0  0  0  0  0  0  0  0  0  0  0
   20.1317  -21.0527  -12.7577 C   0  0  0  0  0  0  0  0  0  0  0  0
   19.4942  -22.1939  -12.3234 O   0  0  0  0  0  0  0  0  0  0  0  0
   19.5367  -20.2735  -13.5291 O   0  0  0  0  0  0  0  0  0  0  0  0
  1  5  1  0
  1  2  1  0
  2  3  1  0
  4  3  1  0
  5  4  1  0
  5  6  1  6
  7  6  2  0
  8  6  1  0
  9  8  1  0
 10 11  1  0
  9 10  1  6
 11 12  1  0
 12 13  1  0
 13 14  1  0
 15  9  1  0
 15 16  2  0
 18 17  1  0
 19 18  1  1
 19 20  1  0
 20 15  1  0
 21 19  1  0
 22 21  1  0
 23 21  2  0
M  END
$$$$
