SIQ.pdb
     RDKit          3D

 24 23  0  0  1  0  0  0  0  0999 V2000
    7.2436  -17.1459   21.4903 O   0  0  0  0  0  0  0  0  0  0  0  0
    6.2955  -16.1517   21.2929 C   0  0  0  0  0  0  0  0  0  0  0  0
    7.0108  -14.8089   21.2685 C   0  0  2  0  0  0  0  0  0  0  0  0
    7.8499  -14.7388   20.0926 N   0  0  0  0  0  0  0  0  0  0  0  0
    7.8625  -14.6437   22.4669 C   0  0  0  0  0  0  0  0  0  0  0  0
    9.1014  -14.8155   22.3763 O   0  0  0  0  0  0  0  0  0  0  0  0
    6.0046  -11.4142   26.5825 C   0  0  0  0  0  0  0  0  0  0  0  0
    6.9520  -11.9870   25.5524 C   0  0  0  0  0  0  0  0  0  0  0  0
    7.3560  -13.3618   25.9962 C   0  0  2  0  0  0  0  0  0  0  0  0
    8.2181  -13.2591   27.2302 C   0  0  0  0  0  0  0  0  0  0  0  0
    8.0337  -14.1596   24.9267 C   0  0  2  0  0  0  0  0  0  0  0  0
    7.2776  -14.2906   23.7203 N   0  0  0  0  0  0  0  0  0  0  0  0
    8.3854  -15.5084   25.4853 C   0  0  0  0  0  0  0  0  0  0  0  0
    7.4198  -16.2948   25.6672 O   0  0  0  0  0  0  0  0  0  0  0  0
   13.2565  -18.8667   24.0733 N   0  0  0  0  0  0  0  0  0  0  0  0
   12.6379  -19.7186   25.0093 C   0  0  0  0  0  0  0  0  0  0  0  0
   13.0913  -20.8564   25.1906 O   0  0  0  0  0  0  0  0  0  0  0  0
   11.4452  -19.1724   25.7366 C   0  0  0  0  0  0  0  0  0  0  0  0
   11.1507  -17.7602   25.3271 C   0  0  0  0  0  0  0  0  0  0  0  0
    9.9813  -17.2509   26.1178 C   0  0  2  0  0  0  0  0  0  0  0  0
    9.7329  -15.8405   25.7777 N   0  0  0  0  0  0  0  0  0  0  0  0
   10.2709  -17.3072   27.5585 C   0  0  0  0  0  0  0  0  0  0  0  0
   10.2590  -18.4877   28.2729 O   0  0  0  0  0  0  0  0  0  0  0  0
   10.5379  -16.2271   28.1683 O   0  0  0  0  0  0  0  0  0  0  0  0
  2  1  1  0
  2  3  1  0
  3  4  1  6
  5 12  1  0
  5  3  1  0
  6  5  2  0
  7  8  1  0
  9  8  1  0
  9 11  1  0
  9 10  1  1
 11 12  1  6
 13 21  1  0
 13 11  1  0
 14 13  2  0
 16 15  1  0
 17 16  2  0
 18 16  1  0
 19 18  1  0
 20 19  1  6
 20 21  1  0
 22 20  1  0
 23 22  1  0
 24 22  2  0
M  END
$$$$
