SIQ.pdb
     RDKit          3D

 24 23  0  0  1  0  0  0  0  0999 V2000
    5.0915  -17.7980   21.0760 O   0  0  0  0  0  0  0  0  0  0  0  0
    5.7969  -17.1814   22.1000 C   0  0  0  0  0  0  0  0  0  0  0  0
    6.3503  -15.8656   21.5728 C   0  0  2  0  0  0  0  0  0  0  0  0
    6.9062  -16.0782   20.2546 N   0  0  0  0  0  0  0  0  0  0  0  0
    7.4178  -15.3506   22.4582 C   0  0  0  0  0  0  0  0  0  0  0  0
    8.6191  -15.5783   22.1793 O   0  0  0  0  0  0  0  0  0  0  0  0
    6.3496  -11.8472   27.0444 C   0  0  0  0  0  0  0  0  0  0  0  0
    6.4408  -13.0735   26.1643 C   0  0  0  0  0  0  0  0  0  0  0  0
    7.7173  -12.9972   25.3799 C   0  0  2  0  0  0  0  0  0  0  0  0
    7.6672  -11.8086   24.4518 C   0  0  0  0  0  0  0  0  0  0  0  0
    8.0356  -14.2545   24.6333 C   0  0  2  0  0  0  0  0  0  0  0  0
    7.0828  -14.5983   23.6242 N   0  0  0  0  0  0  0  0  0  0  0  0
    8.1919  -15.3729   25.6231 C   0  0  0  0  0  0  0  0  0  0  0  0
    7.1825  -16.1072   25.7840 O   0  0  0  0  0  0  0  0  0  0  0  0
   12.0458  -18.4262   23.2573 N   0  0  0  0  0  0  0  0  0  0  0  0
   11.9520  -19.2836   24.3712 C   0  0  0  0  0  0  0  0  0  0  0  0
   12.4928  -20.3968   24.3307 O   0  0  0  0  0  0  0  0  0  0  0  0
   11.1849  -18.7737   25.5549 C   0  0  0  0  0  0  0  0  0  0  0  0
   10.7074  -17.3689   25.3371 C   0  0  0  0  0  0  0  0  0  0  0  0
    9.8403  -16.9581   26.4910 C   0  0  2  0  0  0  0  0  0  0  0  0
    9.4157  -15.5597   26.3152 N   0  0  0  0  0  0  0  0  0  0  0  0
   10.5941  -17.0294   27.7517 C   0  0  0  0  0  0  0  0  0  0  0  0
   10.8988  -15.9103   28.4991 O   0  0  0  0  0  0  0  0  0  0  0  0
   10.9828  -18.1642   28.1651 O   0  0  0  0  0  0  0  0  0  0  0  0
  2  1  1  0
  2  3  1  0
  3  4  1  6
  5 12  1  0
  5  3  1  0
  6  5  2  0
  7  8  1  0
  9  8  1  0
  9 11  1  0
  9 10  1  6
 11 12  1  6
 13 21  1  0
 13 11  1  0
 14 13  2  0
 16 15  1  0
 17 16  2  0
 18 16  1  0
 19 18  1  0
 20 19  1  6
 20 21  1  0
 22 20  1  0
 23 22  1  0
 24 22  2  0
M  END
$$$$
