SIQ.pdb
     RDKit          3D

 24 23  0  0  1  0  0  0  0  0999 V2000
    7.8972  -19.5775   18.8933 O   0  0  0  0  0  0  0  0  0  0  0  0
    6.9086  -18.9970   18.1110 C   0  0  0  0  0  0  0  0  0  0  0  0
    7.4771  -17.7318   17.4855 C   0  0  2  0  0  0  0  0  0  0  0  0
    8.2546  -18.0867   16.3187 N   0  0  0  0  0  0  0  0  0  0  0  0
    8.3558  -17.0210   18.4401 C   0  0  0  0  0  0  0  0  0  0  0  0
    9.6003  -17.1481   18.3512 O   0  0  0  0  0  0  0  0  0  0  0  0
    6.8293  -12.1029   20.5158 C   0  0  0  0  0  0  0  0  0  0  0  0
    7.6541  -13.2069   19.8932 C   0  0  0  0  0  0  0  0  0  0  0  0
    7.9288  -14.2408   20.9449 C   0  0  2  0  0  0  0  0  0  0  0  0
    8.7494  -13.6264   22.0521 C   0  0  0  0  0  0  0  0  0  0  0  0
    8.5796  -15.4779   20.4107 C   0  0  2  0  0  0  0  0  0  0  0  0
    7.7906  -16.1945   19.4576 N   0  0  0  0  0  0  0  0  0  0  0  0
    8.9521  -16.3608   21.5670 C   0  0  0  0  0  0  0  0  0  0  0  0
    7.9906  -16.8723   22.1977 O   0  0  0  0  0  0  0  0  0  0  0  0
   13.8036  -19.9525   21.9077 N   0  0  0  0  0  0  0  0  0  0  0  0
   12.7611  -19.8717   20.9637 C   0  0  0  0  0  0  0  0  0  0  0  0
   12.8460  -20.5098   19.9059 O   0  0  0  0  0  0  0  0  0  0  0  0
   11.5949  -18.9970   21.3165 C   0  0  0  0  0  0  0  0  0  0  0  0
   11.7679  -18.3682   22.6669 C   0  0  0  0  0  0  0  0  0  0  0  0
   10.5554  -17.5434   22.9860 C   0  0  2  0  0  0  0  0  0  0  0  0
   10.3133  -16.5816   21.8983 N   0  0  0  0  0  0  0  0  0  0  0  0
   10.7715  -16.7657   24.2153 C   0  0  0  0  0  0  0  0  0  0  0  0
   10.6061  -17.3053   25.4744 O   0  0  0  0  0  0  0  0  0  0  0  0
   11.1195  -15.5498   24.1130 O   0  0  0  0  0  0  0  0  0  0  0  0
  2  1  1  0
  2  3  1  0
  3  4  1  6
  5 12  1  0
  5  3  1  0
  6  5  2  0
  7  8  1  0
  9  8  1  0
  9 11  1  0
  9 10  1  1
 11 12  1  6
 13 21  1  0
 13 11  1  0
 14 13  2  0
 16 15  1  0
 17 16  2  0
 18 16  1  0
 19 18  1  0
 20 19  1  6
 20 21  1  0
 22 20  1  0
 23 22  1  0
 24 22  2  0
M  END
$$$$
