SIQ.pdb
     RDKit          3D

 24 23  0  0  1  0  0  0  0  0999 V2000
    7.7314  -19.6692   21.5735 O   0  0  0  0  0  0  0  0  0  0  0  0
    8.6872  -20.0125   20.6276 C   0  0  0  0  0  0  0  0  0  0  0  0
    8.8235  -18.8574   19.6464 C   0  0  2  0  0  0  0  0  0  0  0  0
    9.8865  -19.1516   18.7109 N   0  0  0  0  0  0  0  0  0  0  0  0
    9.1519  -17.6007   20.3545 C   0  0  0  0  0  0  0  0  0  0  0  0
   10.3418  -17.3568   20.6665 O   0  0  0  0  0  0  0  0  0  0  0  0
    7.6348  -11.8108   20.6167 C   0  0  0  0  0  0  0  0  0  0  0  0
    8.1747  -12.9609   21.4369 C   0  0  0  0  0  0  0  0  0  0  0  0
    7.7324  -14.2442   20.7983 C   0  0  2  0  0  0  0  0  0  0  0  0
    6.2264  -14.3304   20.8327 C   0  0  0  0  0  0  0  0  0  0  0  0
    8.3587  -15.4603   21.4052 C   0  0  2  0  0  0  0  0  0  0  0  0
    8.1200  -16.6700   20.6813 N   0  0  0  0  0  0  0  0  0  0  0  0
    7.8851  -15.5853   22.8247 C   0  0  0  0  0  0  0  0  0  0  0  0
    6.6392  -15.6705   22.9811 O   0  0  0  0  0  0  0  0  0  0  0  0
    7.4971  -20.5349   26.9335 N   0  0  0  0  0  0  0  0  0  0  0  0
    6.9311  -19.5858   26.0598 C   0  0  0  0  0  0  0  0  0  0  0  0
    6.1087  -19.9536   25.2102 O   0  0  0  0  0  0  0  0  0  0  0  0
    7.3764  -18.1631   26.2257 C   0  0  0  0  0  0  0  0  0  0  0  0
    7.9080  -17.6001   24.9415 C   0  0  0  0  0  0  0  0  0  0  0  0
    8.3152  -16.1723   25.1600 C   0  0  2  0  0  0  0  0  0  0  0  0
    8.8130  -15.6029   23.8972 N   0  0  0  0  0  0  0  0  0  0  0  0
    9.4127  -16.0941   26.1357 C   0  0  0  0  0  0  0  0  0  0  0  0
   10.6388  -15.5390   25.8316 O   0  0  0  0  0  0  0  0  0  0  0  0
    9.2253  -16.5594   27.3012 O   0  0  0  0  0  0  0  0  0  0  0  0
  2  1  1  0
  2  3  1  0
  3  4  1  6
  5 12  1  0
  5  3  1  0
  6  5  2  0
  7  8  1  0
  9  8  1  0
  9 11  1  0
  9 10  1  1
 11 12  1  6
 13 21  1  0
 13 11  1  0
 14 13  2  0
 16 15  1  0
 17 16  2  0
 18 16  1  0
 19 18  1  0
 20 19  1  6
 20 21  1  0
 22 20  1  0
 23 22  1  0
 24 22  2  0
M  END
$$$$
