SIQ.pdb
     RDKit          3D

 24 23  0  0  1  0  0  0  0  0999 V2000
    8.5160  -19.8746   19.7177 O   0  0  0  0  0  0  0  0  0  0  0  0
    7.4580  -19.4378   18.9328 C   0  0  0  0  0  0  0  0  0  0  0  0
    7.9454  -18.2765   18.0789 C   0  0  2  0  0  0  0  0  0  0  0  0
    8.8254  -18.7813   17.0480 N   0  0  0  0  0  0  0  0  0  0  0  0
    8.6916  -17.2967   18.8985 C   0  0  0  0  0  0  0  0  0  0  0  0
    9.9454  -17.3203   18.9057 O   0  0  0  0  0  0  0  0  0  0  0  0
    6.5982  -12.2685   20.0170 C   0  0  0  0  0  0  0  0  0  0  0  0
    7.6082  -13.3330   19.6517 C   0  0  0  0  0  0  0  0  0  0  0  0
    7.8616  -14.1787   20.8646 C   0  0  2  0  0  0  0  0  0  0  0  0
    8.5399  -13.3469   21.9251 C   0  0  0  0  0  0  0  0  0  0  0  0
    8.6391  -15.4236   20.5728 C   0  0  2  0  0  0  0  0  0  0  0  0
    7.9885  -16.3289   19.6775 N   0  0  0  0  0  0  0  0  0  0  0  0
    8.9651  -16.1007   21.8730 C   0  0  0  0  0  0  0  0  0  0  0  0
    8.0595  -16.8315   22.3522 O   0  0  0  0  0  0  0  0  0  0  0  0
   10.4137  -21.5908   22.8610 N   0  0  0  0  0  0  0  0  0  0  0  0
   11.4557  -20.6476   22.7654 C   0  0  0  0  0  0  0  0  0  0  0  0
   12.4585  -20.9136   22.0895 O   0  0  0  0  0  0  0  0  0  0  0  0
   11.2708  -19.3573   23.5076 C   0  0  0  0  0  0  0  0  0  0  0  0
   10.8701  -18.2450   22.5851 C   0  0  0  0  0  0  0  0  0  0  0  0
   10.6715  -16.9896   23.3832 C   0  0  2  0  0  0  0  0  0  0  0  0
   10.2254  -15.9052   22.4934 N   0  0  0  0  0  0  0  0  0  0  0  0
   11.9401  -16.5605   23.9909 C   0  0  0  0  0  0  0  0  0  0  0  0
   12.3331  -16.9619   25.2512 O   0  0  0  0  0  0  0  0  0  0  0  0
   12.7001  -15.7876   23.3315 O   0  0  0  0  0  0  0  0  0  0  0  0
  2  1  1  0
  2  3  1  0
  3  4  1  6
  5 12  1  0
  5  3  1  0
  6  5  2  0
  7  8  1  0
  9  8  1  0
  9 11  1  0
  9 10  1  1
 11 12  1  6
 13 21  1  0
 13 11  1  0
 14 13  2  0
 16 15  1  0
 17 16  2  0
 18 16  1  0
 19 18  1  0
 20 19  1  6
 20 21  1  0
 22 20  1  0
 23 22  1  0
 24 22  2  0
M  END
$$$$
