SIQ.pdb
     RDKit          3D

 24 23  0  0  1  0  0  0  0  0999 V2000
    6.6392  -16.5663   21.4309 O   0  0  0  0  0  0  0  0  0  0  0  0
    7.1338  -15.7857   20.3954 C   0  0  0  0  0  0  0  0  0  0  0  0
    7.0709  -14.3275   20.8254 C   0  0  2  0  0  0  0  0  0  0  0  0
    7.5759  -13.4946   19.7562 N   0  0  0  0  0  0  0  0  0  0  0  0
    7.8951  -14.0980   22.0323 C   0  0  0  0  0  0  0  0  0  0  0  0
    9.1326  -13.9310   21.9162 O   0  0  0  0  0  0  0  0  0  0  0  0
    5.8118  -11.3889   26.3041 C   0  0  0  0  0  0  0  0  0  0  0  0
    6.7731  -11.8618   25.2369 C   0  0  0  0  0  0  0  0  0  0  0  0
    7.2857  -13.2157   25.6301 C   0  0  2  0  0  0  0  0  0  0  0  0
    8.1333  -13.0915   26.8722 C   0  0  0  0  0  0  0  0  0  0  0  0
    8.0284  -13.9144   24.5349 C   0  0  2  0  0  0  0  0  0  0  0  0
    7.2855  -14.0669   23.3228 N   0  0  0  0  0  0  0  0  0  0  0  0
    8.4944  -15.2472   25.0466 C   0  0  0  0  0  0  0  0  0  0  0  0
    7.5903  -16.0910   25.2800 O   0  0  0  0  0  0  0  0  0  0  0  0
   13.8542  -19.5644   23.9372 N   0  0  0  0  0  0  0  0  0  0  0  0
   12.4741  -19.3071   24.0531 C   0  0  0  0  0  0  0  0  0  0  0  0
   11.7059  -19.6882   23.1597 O   0  0  0  0  0  0  0  0  0  0  0  0
   12.0234  -18.5720   25.2804 C   0  0  0  0  0  0  0  0  0  0  0  0
   11.6284  -17.1608   24.9620 C   0  0  0  0  0  0  0  0  0  0  0  0
   10.2360  -16.9131   25.4643 C   0  0  2  0  0  0  0  0  0  0  0  0
    9.8756  -15.5033   25.2425 N   0  0  0  0  0  0  0  0  0  0  0  0
   10.1602  -17.1595   26.9121 C   0  0  0  0  0  0  0  0  0  0  0  0
   10.0564  -16.1389   27.8348 O   0  0  0  0  0  0  0  0  0  0  0  0
   10.1960  -18.3576   27.3283 O   0  0  0  0  0  0  0  0  0  0  0  0
  2  1  1  0
  2  3  1  0
  3  4  1  6
  5 12  1  0
  5  3  1  0
  6  5  2  0
  7  8  1  0
  9  8  1  0
  9 11  1  0
  9 10  1  1
 11 12  1  6
 13 21  1  0
 13 11  1  0
 14 13  2  0
 16 15  1  0
 17 16  2  0
 18 16  1  0
 19 18  1  0
 20 19  1  1
 20 21  1  0
 22 20  1  0
 23 22  1  0
 24 22  2  0
M  END
$$$$
