SIQ.pdb
     RDKit          3D

 24 23  0  0  1  0  0  0  0  0999 V2000
    6.5763  -17.2531   20.4521 O   0  0  0  0  0  0  0  0  0  0  0  0
    7.1413  -16.8563   21.6560 C   0  0  0  0  0  0  0  0  0  0  0  0
    7.4037  -15.3589   21.5890 C   0  0  2  0  0  0  0  0  0  0  0  0
    8.2109  -15.0697   20.4242 N   0  0  0  0  0  0  0  0  0  0  0  0
    8.1290  -14.8967   22.7928 C   0  0  0  0  0  0  0  0  0  0  0  0
    9.3830  -14.9047   22.8031 O   0  0  0  0  0  0  0  0  0  0  0  0
    5.5906  -11.4057   26.2699 C   0  0  0  0  0  0  0  0  0  0  0  0
    6.6738  -11.9975   25.3963 C   0  0  0  0  0  0  0  0  0  0  0  0
    7.1989  -13.2323   26.0673 C   0  0  2  0  0  0  0  0  0  0  0  0
    7.9549  -12.8445   27.3141 C   0  0  0  0  0  0  0  0  0  0  0  0
    8.0360  -14.0893   25.1705 C   0  0  2  0  0  0  0  0  0  0  0  0
    7.4057  -14.4439   23.9371 N   0  0  0  0  0  0  0  0  0  0  0  0
    8.4502  -15.3165   25.9305 C   0  0  0  0  0  0  0  0  0  0  0  0
    7.5510  -16.1780   26.1120 O   0  0  0  0  0  0  0  0  0  0  0  0
   13.3557  -18.3246   24.9197 N   0  0  0  0  0  0  0  0  0  0  0  0
   13.5518  -17.0530   25.4932 C   0  0  0  0  0  0  0  0  0  0  0  0
   14.6271  -16.4645   25.3177 O   0  0  0  0  0  0  0  0  0  0  0  0
   12.4161  -16.4896   26.2947 C   0  0  0  0  0  0  0  0  0  0  0  0
   11.2299  -17.4071   26.2878 C   0  0  0  0  0  0  0  0  0  0  0  0
   10.0976  -16.7550   27.0259 C   0  0  2  0  0  0  0  0  0  0  0  0
    9.7809  -15.4612   26.3994 N   0  0  0  0  0  0  0  0  0  0  0  0
   10.4813  -16.4821   28.4191 C   0  0  0  0  0  0  0  0  0  0  0  0
   10.8219  -17.4833   29.3054 O   0  0  0  0  0  0  0  0  0  0  0  0
   10.4953  -15.2791   28.8221 O   0  0  0  0  0  0  0  0  0  0  0  0
  2  1  1  0
  2  3  1  0
  3  4  1  6
  5 12  1  0
  5  3  1  0
  6  5  2  0
  7  8  1  0
  9  8  1  0
  9 11  1  0
  9 10  1  1
 11 12  1  6
 13 21  1  0
 13 11  1  0
 14 13  2  0
 16 15  1  0
 17 16  2  0
 18 16  1  0
 19 18  1  0
 20 19  1  6
 20 21  1  0
 22 20  1  0
 23 22  1  0
 24 22  2  0
M  END
$$$$
