SIQ.pdb
     RDKit          3D

 24 23  0  0  1  0  0  0  0  0999 V2000
    7.7620  -17.6693   21.9065 O   0  0  0  0  0  0  0  0  0  0  0  0
    6.7518  -16.8136   21.4900 C   0  0  0  0  0  0  0  0  0  0  0  0
    7.3214  -15.4046   21.4143 C   0  0  2  0  0  0  0  0  0  0  0  0
    8.1697  -15.2972   20.2478 N   0  0  0  0  0  0  0  0  0  0  0  0
    8.1288  -15.0975   22.6153 C   0  0  0  0  0  0  0  0  0  0  0  0
    9.3788  -15.1820   22.5610 O   0  0  0  0  0  0  0  0  0  0  0  0
    6.0163  -11.6610   26.3696 C   0  0  0  0  0  0  0  0  0  0  0  0
    7.0280  -12.2810   25.4322 C   0  0  0  0  0  0  0  0  0  0  0  0
    7.4769  -13.5865   26.0193 C   0  0  2  0  0  0  0  0  0  0  0  0
    8.3149  -13.3246   27.2464 C   0  0  0  0  0  0  0  0  0  0  0  0
    8.2011  -14.4619   25.0453 C   0  0  2  0  0  0  0  0  0  0  0  0
    7.4888  -14.7069   23.8300 N   0  0  0  0  0  0  0  0  0  0  0  0
    8.5503  -15.7526   25.7288 C   0  0  0  0  0  0  0  0  0  0  0  0
    7.5821  -16.5121   25.9928 O   0  0  0  0  0  0  0  0  0  0  0  0
   12.6239  -18.5991   22.7321 N   0  0  0  0  0  0  0  0  0  0  0  0
   12.4195  -19.0272   24.0586 C   0  0  0  0  0  0  0  0  0  0  0  0
   13.2766  -19.7294   24.6114 O   0  0  0  0  0  0  0  0  0  0  0  0
   11.1471  -18.5908   24.7221 C   0  0  0  0  0  0  0  0  0  0  0  0
   11.4110  -17.9628   26.0581 C   0  0  0  0  0  0  0  0  0  0  0  0
   10.1289  -17.4042   26.6025 C   0  0  2  0  0  0  0  0  0  0  0  0
    9.8983  -16.0628   26.0420 N   0  0  0  0  0  0  0  0  0  0  0  0
   10.2111  -17.2577   28.0634 C   0  0  0  0  0  0  0  0  0  0  0  0
   10.0930  -18.3289   28.9251 O   0  0  0  0  0  0  0  0  0  0  0  0
   10.3935  -16.1001   28.5498 O   0  0  0  0  0  0  0  0  0  0  0  0
  2  1  1  0
  2  3  1  0
  3  4  1  6
  5 12  1  0
  5  3  1  0
  6  5  2  0
  7  8  1  0
  9  8  1  0
  9 11  1  0
  9 10  1  1
 11 12  1  6
 13 21  1  0
 13 11  1  0
 14 13  2  0
 16 15  1  0
 17 16  2  0
 18 16  1  0
 19 18  1  0
 20 19  1  6
 20 21  1  0
 22 20  1  0
 23 22  1  0
 24 22  2  0
M  END
$$$$
