SIQ.pdb
     RDKit          3D

 24 23  0  0  1  0  0  0  0  0999 V2000
    5.8620  -17.0055   20.1772 O   0  0  0  0  0  0  0  0  0  0  0  0
    6.5544  -16.6734   21.3333 C   0  0  0  0  0  0  0  0  0  0  0  0
    6.9373  -15.2028   21.2540 C   0  0  2  0  0  0  0  0  0  0  0  0
    7.6697  -14.9680   20.0292 N   0  0  0  0  0  0  0  0  0  0  0  0
    7.7939  -14.8191   22.3975 C   0  0  0  0  0  0  0  0  0  0  0  0
    9.0379  -14.9545   22.3140 O   0  0  0  0  0  0  0  0  0  0  0  0
    5.9437  -11.3086   26.3764 C   0  0  0  0  0  0  0  0  0  0  0  0
    6.8634  -11.9432   25.3575 C   0  0  0  0  0  0  0  0  0  0  0  0
    7.2324  -13.3134   25.8440 C   0  0  2  0  0  0  0  0  0  0  0  0
    8.0569  -13.1954   27.1021 C   0  0  0  0  0  0  0  0  0  0  0  0
    7.9311  -14.1447   24.8142 C   0  0  2  0  0  0  0  0  0  0  0  0
    7.2082  -14.2973   23.5901 N   0  0  0  0  0  0  0  0  0  0  0  0
    8.2510  -15.4831   25.4156 C   0  0  0  0  0  0  0  0  0  0  0  0
    7.2880  -16.2884   25.5037 O   0  0  0  0  0  0  0  0  0  0  0  0
   11.4725  -19.3925   22.7298 N   0  0  0  0  0  0  0  0  0  0  0  0
   11.8526  -19.7357   24.0421 C   0  0  0  0  0  0  0  0  0  0  0  0
   12.8301  -20.4747   24.2200 O   0  0  0  0  0  0  0  0  0  0  0  0
   11.0254  -19.1674   25.1568 C   0  0  0  0  0  0  0  0  0  0  0  0
   10.6790  -17.7300   24.9066 C   0  0  0  0  0  0  0  0  0  0  0  0
    9.8580  -17.2139   26.0520 C   0  0  2  0  0  0  0  0  0  0  0  0
    9.5681  -15.7854   25.8464 N   0  0  0  0  0  0  0  0  0  0  0  0
   10.6050  -17.3296   27.3134 C   0  0  0  0  0  0  0  0  0  0  0  0
   10.7508  -18.5272   27.9831 O   0  0  0  0  0  0  0  0  0  0  0  0
   11.1321  -16.2862   27.8067 O   0  0  0  0  0  0  0  0  0  0  0  0
  2  1  1  0
  2  3  1  0
  3  4  1  6
  5 12  1  0
  5  3  1  0
  6  5  2  0
  7  8  1  0
  9  8  1  0
  9 11  1  0
  9 10  1  1
 11 12  1  6
 13 21  1  0
 13 11  1  0
 14 13  2  0
 16 15  1  0
 17 16  2  0
 18 16  1  0
 19 18  1  0
 20 19  1  6
 20 21  1  0
 22 20  1  0
 23 22  1  0
 24 22  2  0
M  END
$$$$
