SIQ.pdb
     RDKit          3D

 24 23  0  0  1  0  0  0  0  0999 V2000
    7.2892  -17.3306   21.4298 O   0  0  0  0  0  0  0  0  0  0  0  0
    6.3234  -16.3434   21.2921 C   0  0  0  0  0  0  0  0  0  0  0  0
    7.0266  -14.9964   21.2107 C   0  0  2  0  0  0  0  0  0  0  0  0
    7.8743  -14.9731   20.0391 N   0  0  0  0  0  0  0  0  0  0  0  0
    7.8671  -14.7678   22.4064 C   0  0  0  0  0  0  0  0  0  0  0  0
    9.1096  -14.9203   22.3301 O   0  0  0  0  0  0  0  0  0  0  0  0
    5.8273  -11.4029   26.2775 C   0  0  0  0  0  0  0  0  0  0  0  0
    6.8343  -11.9786   25.3073 C   0  0  0  0  0  0  0  0  0  0  0  0
    7.3131  -13.2930   25.8490 C   0  0  2  0  0  0  0  0  0  0  0  0
    8.1822  -13.0521   27.0586 C   0  0  0  0  0  0  0  0  0  0  0  0
    8.0190  -14.1359   24.8337 C   0  0  2  0  0  0  0  0  0  0  0  0
    7.2676  -14.3756   23.6411 N   0  0  0  0  0  0  0  0  0  0  0  0
    8.4201  -15.4302   25.4811 C   0  0  0  0  0  0  0  0  0  0  0  0
    7.4872  -16.2467   25.6975 O   0  0  0  0  0  0  0  0  0  0  0  0
   12.6248  -21.0239   25.2437 N   0  0  0  0  0  0  0  0  0  0  0  0
   12.3901  -19.6585   24.9885 C   0  0  0  0  0  0  0  0  0  0  0  0
   12.7328  -19.1739   23.9018 O   0  0  0  0  0  0  0  0  0  0  0  0
   11.7257  -18.8707   26.0784 C   0  0  0  0  0  0  0  0  0  0  0  0
   11.4014  -17.4770   25.6299 C   0  0  0  0  0  0  0  0  0  0  0  0
   10.0850  -17.0628   26.2198 C   0  0  2  0  0  0  0  0  0  0  0  0
    9.7756  -15.6821   25.8139 N   0  0  0  0  0  0  0  0  0  0  0  0
   10.1515  -17.0805   27.6888 C   0  0  0  0  0  0  0  0  0  0  0  0
   10.1570  -18.2519   28.4180 O   0  0  0  0  0  0  0  0  0  0  0  0
   10.2014  -15.9748   28.3092 O   0  0  0  0  0  0  0  0  0  0  0  0
  2  1  1  0
  2  3  1  0
  3  4  1  6
  5 12  1  0
  5  3  1  0
  6  5  2  0
  7  8  1  0
  9  8  1  0
  9 11  1  0
  9 10  1  1
 11 12  1  6
 13 21  1  0
 13 11  1  0
 14 13  2  0
 16 15  1  0
 17 16  2  0
 18 16  1  0
 19 18  1  0
 20 19  1  6
 20 21  1  0
 22 20  1  0
 23 22  1  0
 24 22  2  0
M  END
$$$$
