SIQ.pdb
     RDKit          3D

 24 23  0  0  1  0  0  0  0  0999 V2000
    7.2875  -16.2691   20.6942 O   0  0  0  0  0  0  0  0  0  0  0  0
    6.3507  -15.2518   20.5768 C   0  0  0  0  0  0  0  0  0  0  0  0
    7.0481  -13.9274   20.8503 C   0  0  2  0  0  0  0  0  0  0  0  0
    7.9655  -13.6414   19.7694 N   0  0  0  0  0  0  0  0  0  0  0  0
    7.8127  -13.9859   22.1155 C   0  0  0  0  0  0  0  0  0  0  0  0
    9.0558  -14.1482   22.0826 O   0  0  0  0  0  0  0  0  0  0  0  0
    5.5268  -11.4258   26.4813 C   0  0  0  0  0  0  0  0  0  0  0  0
    6.5678  -11.8025   25.4513 C   0  0  0  0  0  0  0  0  0  0  0  0
    7.0276  -13.2019   25.7353 C   0  0  2  0  0  0  0  0  0  0  0  0
    7.7973  -13.2251   27.0328 C   0  0  0  0  0  0  0  0  0  0  0  0
    7.8241  -13.8065   24.6219 C   0  0  2  0  0  0  0  0  0  0  0  0
    7.1394  -13.8585   23.3678 N   0  0  0  0  0  0  0  0  0  0  0  0
    8.2723  -15.1766   25.0426 C   0  0  0  0  0  0  0  0  0  0  0  0
    7.3706  -16.0521   25.1077 O   0  0  0  0  0  0  0  0  0  0  0  0
   11.9091  -18.6387   22.5643 N   0  0  0  0  0  0  0  0  0  0  0  0
   12.0279  -19.3203   23.7915 C   0  0  0  0  0  0  0  0  0  0  0  0
   12.4024  -20.5005   23.7994 O   0  0  0  0  0  0  0  0  0  0  0  0
   11.6838  -18.5481   25.0305 C   0  0  0  0  0  0  0  0  0  0  0  0
   11.2154  -17.1619   24.7021 C   0  0  0  0  0  0  0  0  0  0  0  0
    9.9943  -16.8480   25.5161 C   0  0  2  0  0  0  0  0  0  0  0  0
    9.6354  -15.4313   25.3403 N   0  0  0  0  0  0  0  0  0  0  0  0
   10.2631  -17.0549   26.9471 C   0  0  0  0  0  0  0  0  0  0  0  0
   10.2873  -18.3078   27.5247 O   0  0  0  0  0  0  0  0  0  0  0  0
   10.4768  -16.0409   27.6792 O   0  0  0  0  0  0  0  0  0  0  0  0
  2  1  1  0
  2  3  1  0
  3  4  1  6
  5 12  1  0
  5  3  1  0
  6  5  2  0
  7  8  1  0
  9  8  1  0
  9 11  1  0
  9 10  1  1
 11 12  1  6
 13 21  1  0
 13 11  1  0
 14 13  2  0
 16 15  1  0
 17 16  2  0
 18 16  1  0
 19 18  1  0
 20 19  1  6
 20 21  1  0
 22 20  1  0
 23 22  1  0
 24 22  2  0
M  END
$$$$
