SIQ.pdb
     RDKit          3D

 24 23  0  0  1  0  0  0  0  0999 V2000
    7.4232  -17.2010   21.8053 O   0  0  0  0  0  0  0  0  0  0  0  0
    6.5554  -16.2207   21.3445 C   0  0  0  0  0  0  0  0  0  0  0  0
    7.3045  -14.8966   21.3144 C   0  0  2  0  0  0  0  0  0  0  0  0
    8.2184  -14.8931   20.1934 N   0  0  0  0  0  0  0  0  0  0  0  0
    8.0819  -14.7027   22.5581 C   0  0  0  0  0  0  0  0  0  0  0  0
    9.3315  -14.6133   22.5014 O   0  0  0  0  0  0  0  0  0  0  0  0
    6.0413  -11.2135   26.0959 C   0  0  0  0  0  0  0  0  0  0  0  0
    6.9410  -12.0179   25.1848 C   0  0  0  0  0  0  0  0  0  0  0  0
    7.3034  -13.2936   25.8861 C   0  0  2  0  0  0  0  0  0  0  0  0
    8.0508  -12.9741   27.1573 C   0  0  0  0  0  0  0  0  0  0  0  0
    8.0745  -14.2479   25.0294 C   0  0  2  0  0  0  0  0  0  0  0  0
    7.4137  -14.6178   23.8167 N   0  0  0  0  0  0  0  0  0  0  0  0
    8.4092  -15.4625   25.8468 C   0  0  0  0  0  0  0  0  0  0  0  0
    8.6771  -15.2509   27.0581 O   0  0  0  0  0  0  0  0  0  0  0  0
   12.2685  -18.9263   22.3347 N   0  0  0  0  0  0  0  0  0  0  0  0
   12.6343  -17.8338   23.1451 C   0  0  0  0  0  0  0  0  0  0  0  0
   13.4865  -17.0322   22.7394 O   0  0  0  0  0  0  0  0  0  0  0  0
   11.9483  -17.7172   24.4739 C   0  0  0  0  0  0  0  0  0  0  0  0
   10.6629  -16.9528   24.3638 C   0  0  0  0  0  0  0  0  0  0  0  0
    9.6796  -17.4951   25.3595 C   0  0  2  0  0  0  0  0  0  0  0  0
    8.4131  -16.7521   25.2564 N   0  0  0  0  0  0  0  0  0  0  0  0
   10.1816  -17.3126   26.7297 C   0  0  0  0  0  0  0  0  0  0  0  0
   10.2670  -18.3514   27.6339 O   0  0  0  0  0  0  0  0  0  0  0  0
   10.5461  -16.1535   27.0950 O   0  0  0  0  0  0  0  0  0  0  0  0
  2  1  1  0
  2  3  1  0
  3  4  1  6
  5 12  1  0
  5  3  1  0
  6  5  2  0
  7  8  1  0
  9  8  1  0
  9 11  1  0
  9 10  1  1
 11 12  1  6
 13 21  1  0
 13 11  1  0
 14 13  2  0
 16 15  1  0
 17 16  2  0
 18 16  1  0
 19 18  1  0
 20 19  1  6
 20 21  1  0
 22 20  1  0
 23 22  1  0
 24 22  2  0
M  END
$$$$
