SIQ.pdb
     RDKit          3D

 24 23  0  0  1  0  0  0  0  0999 V2000
    6.9093  -16.7926   20.4694 O   0  0  0  0  0  0  0  0  0  0  0  0
    6.2016  -15.8188   21.1601 C   0  0  0  0  0  0  0  0  0  0  0  0
    7.0062  -14.5278   21.1225 C   0  0  2  0  0  0  0  0  0  0  0  0
    7.8601  -14.5341   19.9552 N   0  0  0  0  0  0  0  0  0  0  0  0
    7.8547  -14.4006   22.3277 C   0  0  0  0  0  0  0  0  0  0  0  0
    9.0783  -14.6664   22.2562 O   0  0  0  0  0  0  0  0  0  0  0  0
    6.1635  -11.2626   26.6592 C   0  0  0  0  0  0  0  0  0  0  0  0
    7.0580  -11.8397   25.5852 C   0  0  0  0  0  0  0  0  0  0  0  0
    7.3342  -13.2751   25.9224 C   0  0  2  0  0  0  0  0  0  0  0  0
    8.1543  -13.3461   27.1869 C   0  0  0  0  0  0  0  0  0  0  0  0
    7.9863  -14.0351   24.8103 C   0  0  2  0  0  0  0  0  0  0  0  0
    7.2843  -13.9775   23.5660 N   0  0  0  0  0  0  0  0  0  0  0  0
    8.1772  -15.4582   25.2501 C   0  0  0  0  0  0  0  0  0  0  0  0
    7.1354  -16.1630   25.2924 O   0  0  0  0  0  0  0  0  0  0  0  0
   11.6291  -19.3141   22.8321 N   0  0  0  0  0  0  0  0  0  0  0  0
   12.3497  -18.3356   23.5446 C   0  0  0  0  0  0  0  0  0  0  0  0
   13.5060  -18.0581   23.1991 O   0  0  0  0  0  0  0  0  0  0  0  0
   11.6472  -17.6842   24.6987 C   0  0  0  0  0  0  0  0  0  0  0  0
   10.2108  -18.1078   24.7778 C   0  0  0  0  0  0  0  0  0  0  0  0
    9.5429  -17.3783   25.9066 C   0  0  2  0  0  0  0  0  0  0  0  0
    9.4662  -15.9430   25.5891 N   0  0  0  0  0  0  0  0  0  0  0  0
   10.3307  -17.5098   27.1414 C   0  0  0  0  0  0  0  0  0  0  0  0
   10.4788  -18.7113   27.8035 O   0  0  0  0  0  0  0  0  0  0  0  0
   10.8922  -16.4767   27.6182 O   0  0  0  0  0  0  0  0  0  0  0  0
  2  1  1  0
  2  3  1  0
  3  4  1  6
  5 12  1  0
  5  3  1  0
  6  5  2  0
  7  8  1  0
  9  8  1  0
  9 11  1  0
  9 10  1  1
 11 12  1  6
 13 21  1  0
 13 11  1  0
 14 13  2  0
 16 15  1  0
 17 16  2  0
 18 16  1  0
 19 18  1  0
 20 19  1  6
 20 21  1  0
 22 20  1  0
 23 22  1  0
 24 22  2  0
M  END
$$$$
