SIQ.pdb
     RDKit          3D

 24 23  0  0  1  0  0  0  0  0999 V2000
    8.2009  -20.3185   17.5389 O   0  0  0  0  0  0  0  0  0  0  0  0
    8.9559  -19.4434   18.3073 C   0  0  0  0  0  0  0  0  0  0  0  0
    8.9576  -18.0856   17.6205 C   0  0  2  0  0  0  0  0  0  0  0  0
    9.7932  -18.1505   16.4417 N   0  0  0  0  0  0  0  0  0  0  0  0
    9.4917  -17.0403   18.5209 C   0  0  0  0  0  0  0  0  0  0  0  0
   10.6978  -16.7071   18.4384 O   0  0  0  0  0  0  0  0  0  0  0  0
    6.3686  -12.8340   20.4434 C   0  0  0  0  0  0  0  0  0  0  0  0
    7.5415  -13.6008   19.8750 C   0  0  0  0  0  0  0  0  0  0  0  0
    8.0643  -14.5200   20.9390 C   0  0  2  0  0  0  0  0  0  0  0  0
    8.5730  -13.7049   22.1024 C   0  0  0  0  0  0  0  0  0  0  0  0
    9.1090  -15.4713   20.4460 C   0  0  2  0  0  0  0  0  0  0  0  0
    8.6389  -16.4138   19.4791 N   0  0  0  0  0  0  0  0  0  0  0  0
    9.7123  -16.1747   21.6277 C   0  0  0  0  0  0  0  0  0  0  0  0
    9.0912  -17.1900   22.0367 O   0  0  0  0  0  0  0  0  0  0  0  0
   16.0989  -18.2765   23.8928 N   0  0  0  0  0  0  0  0  0  0  0  0
   15.2780  -17.1320   23.9207 C   0  0  0  0  0  0  0  0  0  0  0  0
   15.7988  -16.0087   23.9367 O   0  0  0  0  0  0  0  0  0  0  0  0
   13.7959  -17.3623   23.9293 C   0  0  0  0  0  0  0  0  0  0  0  0
   13.0925  -16.4521   22.9671 C   0  0  0  0  0  0  0  0  0  0  0  0
   11.6103  -16.6484   23.0962 C   0  0  2  0  0  0  0  0  0  0  0  0
   10.9088  -15.6960   22.2200 N   0  0  0  0  0  0  0  0  0  0  0  0
   11.1735  -16.3762   24.4738 C   0  0  0  0  0  0  0  0  0  0  0  0
   11.2971  -17.3025   25.4889 O   0  0  0  0  0  0  0  0  0  0  0  0
   10.6591  -15.2466   24.7372 O   0  0  0  0  0  0  0  0  0  0  0  0
  2  1  1  0
  2  3  1  0
  3  4  1  6
  5 12  1  0
  5  3  1  0
  6  5  2  0
  7  8  1  0
  9  8  1  0
  9 11  1  0
  9 10  1  1
 11 12  1  6
 13 21  1  0
 13 11  1  0
 14 13  2  0
 16 15  1  0
 17 16  2  0
 18 16  1  0
 19 18  1  0
 20 19  1  1
 20 21  1  0
 22 20  1  0
 23 22  1  0
 24 22  2  0
M  END
$$$$
