AFM.pdb
     RDKit          3D

 25 25  0  0  1  0  0  0  0  0999 V2000
   33.5300  -20.9398   12.2941 C   0  0  0  0  0  0  0  0  0  0  0  0
   32.7213  -20.7742   11.0265 C   0  0  2  0  0  0  0  0  0  0  0  0
   31.3118  -20.6193   11.2773 N   0  0  0  0  0  0  0  0  0  0  0  0
   32.9385  -21.9000   10.0788 C   0  0  0  0  0  0  0  0  0  0  0  0
   32.1987  -22.9342   10.1467 O   0  0  0  0  0  0  0  0  0  0  0  0
   33.9338  -21.9006    9.0838 N   0  0  0  0  0  0  0  0  0  0  0  0
   34.1224  -22.9731    8.1134 C   0  0  1  0  0  0  0  0  0  0  0  0
   34.5704  -22.3227    6.8399 C   0  0  0  0  0  0  0  0  0  0  0  0
   33.4904  -21.7674    6.0119 C   0  0  0  0  0  0  0  0  0  0  0  0
   32.8773  -20.5677    6.2952 C   0  0  0  0  0  0  0  0  0  0  0  0
   31.8578  -20.0594    5.4961 C   0  0  0  0  0  0  0  0  0  0  0  0
   31.4461  -20.7698    4.3912 C   0  0  0  0  0  0  0  0  0  0  0  0
   32.0551  -21.9645    4.1073 C   0  0  0  0  0  0  0  0  0  0  0  0
   33.0716  -22.4703    4.9049 C   0  0  0  0  0  0  0  0  0  0  0  0
   35.0316  -24.0116    8.6200 C   0  0  0  0  0  0  0  0  0  0  0  0
   35.6185  -23.8201    9.7147 O   0  0  0  0  0  0  0  0  0  0  0  0
   35.4482  -29.6918   12.9714 C   0  0  0  0  0  0  0  0  0  0  0  0
   34.7687  -28.2710   12.1041 S   0  0  0  0  0  0  0  0  0  0  0  0
   35.6375  -27.9277   10.5882 C   0  0  0  0  0  0  0  0  0  0  0  0
   35.2734  -26.7069    9.8497 C   0  0  0  0  0  0  0  0  0  0  0  0
   36.0100  -26.3545    8.5998 C   0  0  2  0  0  0  0  0  0  0  0  0
   35.2938  -25.2280    7.9490 N   0  0  0  0  0  0  0  0  0  0  0  0
   36.1785  -27.4408    7.6492 C   0  0  0  0  0  0  0  0  0  0  0  0
   35.6639  -27.5453    6.5095 O   0  0  0  0  0  0  0  0  0  0  0  0
   37.0073  -28.5186    8.0118 O   0  0  0  0  0  0  0  0  0  0  0  0
  2  1  1  1
  2  3  1  0
  4  2  1  0
  4  5  2  0
  6  4  1  0
  7  6  1  0
  7  8  1  6
  8  9  1  0
  9 10  2  0
  9 14  1  0
 10 11  1  0
 11 12  2  0
 13 12  1  0
 14 13  2  0
 15  7  1  0
 16 15  2  0
 18 17  1  0
 19 18  1  0
 20 19  1  0
 21 20  1  1
 21 22  1  0
 22 15  1  0
 23 21  1  0
 24 23  2  0
 25 23  1  0
M  END
$$$$
