AFM.pdb
     RDKit          3D

 25 25  0  0  1  0  0  0  0  0999 V2000
   26.3394  -19.8006  -13.5390 C   0  0  0  0  0  0  0  0  0  0  0  0
   27.1179  -20.9573  -12.9522 C   0  0  2  0  0  0  0  0  0  0  0  0
   26.9240  -22.1874  -13.6752 N   0  0  0  0  0  0  0  0  0  0  0  0
   26.7992  -21.1681  -11.5146 C   0  0  0  0  0  0  0  0  0  0  0  0
   25.9366  -22.0435  -11.1809 O   0  0  0  0  0  0  0  0  0  0  0  0
   27.4025  -20.4460  -10.4680 N   0  0  0  0  0  0  0  0  0  0  0  0
   27.1128  -20.6553   -9.0540 C   0  0  1  0  0  0  0  0  0  0  0  0
   28.2553  -20.0570   -8.2909 C   0  0  0  0  0  0  0  0  0  0  0  0
   28.0556  -19.9721   -6.8373 C   0  0  0  0  0  0  0  0  0  0  0  0
   28.9634  -19.3701   -5.9953 C   0  0  0  0  0  0  0  0  0  0  0  0
   28.7531  -19.2990   -4.6215 C   0  0  0  0  0  0  0  0  0  0  0  0
   27.6089  -19.8431   -4.0833 C   0  0  0  0  0  0  0  0  0  0  0  0
   26.7037  -20.4428   -4.9197 C   0  0  0  0  0  0  0  0  0  0  0  0
   26.9146  -20.5131   -6.2893 C   0  0  0  0  0  0  0  0  0  0  0  0
   25.7909  -20.1276   -8.6854 C   0  0  0  0  0  0  0  0  0  0  0  0
   25.4991  -18.9483   -9.0076 O   0  0  0  0  0  0  0  0  0  0  0  0
   22.3776  -19.5689  -12.8230 C   0  0  0  0  0  0  0  0  0  0  0  0
   21.4599  -20.8315  -11.9307 S   0  0  0  0  0  0  0  0  0  0  0  0
   21.7123  -20.7313  -10.1709 C   0  0  0  0  0  0  0  0  0  0  0  0
   23.0949  -20.8090   -9.6702 C   0  0  0  0  0  0  0  0  0  0  0  0
   23.3574  -20.6718   -8.2070 C   0  0  2  0  0  0  0  0  0  0  0  0
   24.8124  -20.8678   -7.9830 N   0  0  0  0  0  0  0  0  0  0  0  0
   22.6054  -21.5751   -7.3521 C   0  0  0  0  0  0  0  0  0  0  0  0
   21.3836  -21.5211   -7.0711 O   0  0  0  0  0  0  0  0  0  0  0  0
   23.2913  -22.6469   -6.7514 O   0  0  0  0  0  0  0  0  0  0  0  0
  2  1  1  6
  2  3  1  0
  4  2  1  0
  4  5  2  0
  6  4  1  0
  7  6  1  0
  7  8  1  1
  8  9  1  0
  9 10  2  0
  9 14  1  0
 10 11  1  0
 11 12  2  0
 13 12  1  0
 14 13  2  0
 15  7  1  0
 16 15  2  0
 18 17  1  0
 19 18  1  0
 20 19  1  0
 21 20  1  6
 21 22  1  0
 22 15  1  0
 23 21  1  0
 24 23  2  0
 25 23  1  0
M  END
$$$$
