AFM.pdb
     RDKit          3D

 25 25  0  0  1  0  0  0  0  0999 V2000
   19.6960   -7.3369  -19.2276 C   0  0  0  0  0  0  0  0  0  0  0  0
   20.7854   -7.5610  -18.2023 C   0  0  2  0  0  0  0  0  0  0  0  0
   21.1674   -8.9443  -18.0839 N   0  0  0  0  0  0  0  0  0  0  0  0
   20.4058   -7.0321  -16.8648 C   0  0  0  0  0  0  0  0  0  0  0  0
   19.3776   -7.4935  -16.2720 O   0  0  0  0  0  0  0  0  0  0  0  0
   21.1255   -6.0281  -16.1904 N   0  0  0  0  0  0  0  0  0  0  0  0
   20.7834   -5.5237  -14.8653 C   0  0  1  0  0  0  0  0  0  0  0  0
   21.9651   -5.7984  -13.9857 C   0  0  0  0  0  0  0  0  0  0  0  0
   22.0717   -7.1821  -13.5016 C   0  0  0  0  0  0  0  0  0  0  0  0
   21.3158   -7.6656  -12.4575 C   0  0  0  0  0  0  0  0  0  0  0  0
   21.4314   -8.9804  -12.0168 C   0  0  0  0  0  0  0  0  0  0  0  0
   22.3235   -9.8258  -12.6367 C   0  0  0  0  0  0  0  0  0  0  0  0
   23.0772   -9.3466  -13.6764 C   0  0  0  0  0  0  0  0  0  0  0  0
   22.9610   -8.0353  -14.1150 C   0  0  0  0  0  0  0  0  0  0  0  0
   20.3716   -4.1130  -14.9097 C   0  0  0  0  0  0  0  0  0  0  0  0
   21.1478   -3.2723  -15.4297 O   0  0  0  0  0  0  0  0  0  0  0  0
   17.5976    1.0473  -18.9761 C   0  0  0  0  0  0  0  0  0  0  0  0
   18.0562   -0.6144  -18.4652 S   0  0  0  0  0  0  0  0  0  0  0  0
   18.1508   -0.7734  -16.6942 C   0  0  0  0  0  0  0  0  0  0  0  0
   18.6178   -2.0570  -16.1442 C   0  0  0  0  0  0  0  0  0  0  0  0
   18.6609   -2.2527  -14.6648 C   0  0  2  0  0  0  0  0  0  0  0  0
   19.1440   -3.6318  -14.3997 N   0  0  0  0  0  0  0  0  0  0  0  0
   17.4028   -2.0338  -13.9709 C   0  0  0  0  0  0  0  0  0  0  0  0
   16.4793   -2.8625  -13.7838 O   0  0  0  0  0  0  0  0  0  0  0  0
   17.1544   -0.7579  -13.4321 O   0  0  0  0  0  0  0  0  0  0  0  0
  2  1  1  6
  2  3  1  0
  4  2  1  0
  4  5  2  0
  6  4  1  0
  7  6  1  0
  7  8  1  1
  8  9  1  0
  9 10  2  0
  9 14  1  0
 10 11  1  0
 11 12  2  0
 13 12  1  0
 14 13  2  0
 15  7  1  0
 16 15  2  0
 18 17  1  0
 19 18  1  0
 20 19  1  0
 21 20  1  6
 21 22  1  0
 22 15  1  0
 23 21  1  0
 24 23  2  0
 25 23  1  0
M  END
$$$$
