AFM.pdb
     RDKit          3D

 25 25  0  0  1  0  0  0  0  0999 V2000
   17.2827   -8.8868  -18.2935 C   0  0  0  0  0  0  0  0  0  0  0  0
   18.5790   -9.2350  -17.5960 C   0  0  2  0  0  0  0  0  0  0  0  0
   18.4911  -10.4462  -16.8222 N   0  0  0  0  0  0  0  0  0  0  0  0
   19.0592   -8.1243  -16.7309 C   0  0  0  0  0  0  0  0  0  0  0  0
   18.4569   -7.8691  -15.6384 O   0  0  0  0  0  0  0  0  0  0  0  0
   20.1652   -7.3128  -17.0459 N   0  0  0  0  0  0  0  0  0  0  0  0
   20.6539   -6.2289  -16.2011 C   0  0  1  0  0  0  0  0  0  0  0  0
   22.1113   -6.4910  -15.9708 C   0  0  0  0  0  0  0  0  0  0  0  0
   22.4115   -7.7212  -15.2247 C   0  0  0  0  0  0  0  0  0  0  0  0
   22.1841   -7.8457  -13.8726 C   0  0  0  0  0  0  0  0  0  0  0  0
   22.4739   -9.0211  -13.1862 C   0  0  0  0  0  0  0  0  0  0  0  0
   23.0023  -10.0918  -13.8711 C   0  0  0  0  0  0  0  0  0  0  0  0
   23.2296   -9.9701  -15.2173 C   0  0  0  0  0  0  0  0  0  0  0  0
   22.9401   -8.7976  -15.9006 C   0  0  0  0  0  0  0  0  0  0  0  0
   20.3559   -4.9108  -16.7805 C   0  0  0  0  0  0  0  0  0  0  0  0
   20.2211   -4.8142  -18.0263 O   0  0  0  0  0  0  0  0  0  0  0  0
   15.6486   -0.1689  -19.4383 C   0  0  0  0  0  0  0  0  0  0  0  0
   16.3307   -1.6933  -18.7721 S   0  0  0  0  0  0  0  0  0  0  0  0
   17.8740   -1.4276  -17.9247 C   0  0  0  0  0  0  0  0  0  0  0  0
   18.5719   -2.6060  -17.3839 C   0  0  0  0  0  0  0  0  0  0  0  0
   19.8529   -2.4261  -16.6386 C   0  0  2  0  0  0  0  0  0  0  0  0
   20.2088   -3.7283  -16.0197 N   0  0  0  0  0  0  0  0  0  0  0  0
   19.8407   -1.3885  -15.6210 C   0  0  0  0  0  0  0  0  0  0  0  0
   19.8316   -1.5403  -14.3753 O   0  0  0  0  0  0  0  0  0  0  0  0
   19.8388   -0.0456  -16.0412 O   0  0  0  0  0  0  0  0  0  0  0  0
  2  1  1  1
  2  3  1  0
  4  2  1  0
  4  5  2  0
  6  4  1  0
  7  6  1  0
  7  8  1  6
  8  9  1  0
  9 10  2  0
  9 14  1  0
 10 11  1  0
 11 12  2  0
 13 12  1  0
 14 13  2  0
 15  7  1  0
 16 15  2  0
 18 17  1  0
 19 18  1  0
 20 19  1  0
 21 20  1  1
 21 22  1  0
 22 15  1  0
 23 21  1  0
 24 23  2  0
 25 23  1  0
M  END
$$$$
