AFM.pdb
     RDKit          3D

 25 25  0  0  1  0  0  0  0  0999 V2000
   27.4508  -19.8109  -16.1406 C   0  0  0  0  0  0  0  0  0  0  0  0
   27.9945  -20.7307  -15.0698 C   0  0  2  0  0  0  0  0  0  0  0  0
   28.6344  -21.9023  -15.6096 N   0  0  0  0  0  0  0  0  0  0  0  0
   26.9412  -21.1389  -14.1019 C   0  0  0  0  0  0  0  0  0  0  0  0
   26.3347  -22.2475  -14.2590 O   0  0  0  0  0  0  0  0  0  0  0  0
   26.5581  -20.3620  -12.9927 N   0  0  0  0  0  0  0  0  0  0  0  0
   25.5556  -20.7680  -12.0142 C   0  0  1  0  0  0  0  0  0  0  0  0
   25.7802  -19.9232  -10.7971 C   0  0  0  0  0  0  0  0  0  0  0  0
   26.7539  -20.4622   -9.8370 C   0  0  0  0  0  0  0  0  0  0  0  0
   26.6774  -20.2197   -8.4840 C   0  0  0  0  0  0  0  0  0  0  0  0
   27.6094  -20.7421   -7.5923 C   0  0  0  0  0  0  0  0  0  0  0  0
   28.6379  -21.5230   -8.0690 C   0  0  0  0  0  0  0  0  0  0  0  0
   28.7159  -21.7659   -9.4157 C   0  0  0  0  0  0  0  0  0  0  0  0
   27.7860  -21.2444  -10.3038 C   0  0  0  0  0  0  0  0  0  0  0  0
   24.1948  -20.6923  -12.5659 C   0  0  0  0  0  0  0  0  0  0  0  0
   23.8650  -19.6741  -13.2248 O   0  0  0  0  0  0  0  0  0  0  0  0
   21.1629  -25.8181  -15.1529 C   0  0  0  0  0  0  0  0  0  0  0  0
   19.7482  -24.9455  -14.4674 S   0  0  0  0  0  0  0  0  0  0  0  0
   20.1513  -23.2784  -13.9889 C   0  0  0  0  0  0  0  0  0  0  0  0
   21.4823  -23.0337  -13.4083 C   0  0  0  0  0  0  0  0  0  0  0  0
   21.8933  -21.6390  -13.0696 C   0  0  2  0  0  0  0  0  0  0  0  0
   23.2188  -21.7020  -12.4029 N   0  0  0  0  0  0  0  0  0  0  0  0
   20.9608  -20.9005  -12.2345 C   0  0  0  0  0  0  0  0  0  0  0  0
   20.0177  -20.1629  -12.6104 O   0  0  0  0  0  0  0  0  0  0  0  0
   21.0987  -20.9982  -10.8376 O   0  0  0  0  0  0  0  0  0  0  0  0
  2  1  1  6
  2  3  1  0
  4  2  1  0
  4  5  2  0
  6  4  1  0
  7  6  1  0
  7  8  1  1
  8  9  1  0
  9 10  2  0
  9 14  1  0
 10 11  1  0
 11 12  2  0
 13 12  1  0
 14 13  2  0
 15  7  1  0
 16 15  2  0
 18 17  1  0
 19 18  1  0
 20 19  1  0
 21 20  1  1
 21 22  1  0
 22 15  1  0
 23 21  1  0
 24 23  2  0
 25 23  1  0
M  END
$$$$
