AFM.pdb
     RDKit          3D

 25 25  0  0  1  0  0  0  0  0999 V2000
   23.6073   -9.3198  -21.7521 C   0  0  0  0  0  0  0  0  0  0  0  0
   24.6818   -9.3784  -20.6889 C   0  0  2  0  0  0  0  0  0  0  0  0
   25.4630  -10.5866  -20.7478 N   0  0  0  0  0  0  0  0  0  0  0  0
   24.1190   -9.2144  -19.3218 C   0  0  0  0  0  0  0  0  0  0  0  0
   23.2022  -10.0005  -18.9179 O   0  0  0  0  0  0  0  0  0  0  0  0
   24.5423   -8.2219  -18.4182 N   0  0  0  0  0  0  0  0  0  0  0  0
   24.0368   -8.0828  -17.0571 C   0  0  1  0  0  0  0  0  0  0  0  0
   25.2335   -7.9003  -16.1738 C   0  0  0  0  0  0  0  0  0  0  0  0
   26.0714   -9.0962  -16.0070 C   0  0  0  0  0  0  0  0  0  0  0  0
   25.6988  -10.1620  -15.2192 C   0  0  0  0  0  0  0  0  0  0  0  0
   26.5071  -11.2858  -15.0771 C   0  0  0  0  0  0  0  0  0  0  0  0
   27.7128  -11.3401  -15.7390 C   0  0  0  0  0  0  0  0  0  0  0  0
   28.0858  -10.2801  -16.5239 C   0  0  0  0  0  0  0  0  0  0  0  0
   27.2790   -9.1601  -16.6648 C   0  0  0  0  0  0  0  0  0  0  0  0
   23.0352   -7.0113  -16.9555 C   0  0  0  0  0  0  0  0  0  0  0  0
   23.2656   -5.9123  -17.5201 O   0  0  0  0  0  0  0  0  0  0  0  0
   19.0903   -5.8413  -20.5686 C   0  0  0  0  0  0  0  0  0  0  0  0
   17.9834   -5.3463  -19.2410 S   0  0  0  0  0  0  0  0  0  0  0  0
   18.8054   -5.2932  -17.6624 C   0  0  0  0  0  0  0  0  0  0  0  0
   19.9257   -6.2226  -17.4401 C   0  0  0  0  0  0  0  0  0  0  0  0
   20.7953   -6.0546  -16.2383 C   0  0  2  0  0  0  0  0  0  0  0  0
   21.8132   -7.1357  -16.2554 N   0  0  0  0  0  0  0  0  0  0  0  0
   20.1005   -6.0577  -14.9617 C   0  0  0  0  0  0  0  0  0  0  0  0
   20.1284   -6.9493  -14.0791 O   0  0  0  0  0  0  0  0  0  0  0  0
   19.2933   -4.9505  -14.6418 O   0  0  0  0  0  0  0  0  0  0  0  0
  2  1  1  6
  2  3  1  0
  4  2  1  0
  4  5  2  0
  6  4  1  0
  7  6  1  0
  7  8  1  1
  8  9  1  0
  9 10  2  0
  9 14  1  0
 10 11  1  0
 11 12  2  0
 13 12  1  0
 14 13  2  0
 15  7  1  0
 16 15  2  0
 18 17  1  0
 19 18  1  0
 20 19  1  0
 21 20  1  6
 21 22  1  0
 22 15  1  0
 23 21  1  0
 24 23  2  0
 25 23  1  0
M  END
$$$$
