AFM.pdb
     RDKit          3D

 25 25  0  0  1  0  0  0  0  0999 V2000
   24.8262  -21.8428  -17.6420 C   0  0  0  0  0  0  0  0  0  0  0  0
   25.8642  -22.5538  -16.8021 C   0  0  2  0  0  0  0  0  0  0  0  0
   26.0665  -23.9224  -17.2014 N   0  0  0  0  0  0  0  0  0  0  0  0
   25.5359  -22.5006  -15.3522 C   0  0  0  0  0  0  0  0  0  0  0  0
   25.0350  -23.5222  -14.7803 O   0  0  0  0  0  0  0  0  0  0  0  0
   25.7469  -21.3665  -14.5459 N   0  0  0  0  0  0  0  0  0  0  0  0
   25.4536  -21.3093  -13.1183 C   0  0  1  0  0  0  0  0  0  0  0  0
   26.4964  -20.4262  -12.5033 C   0  0  0  0  0  0  0  0  0  0  0  0
   26.4096  -20.2857  -11.0428 C   0  0  0  0  0  0  0  0  0  0  0  0
   25.6135  -19.3431  -10.4319 C   0  0  0  0  0  0  0  0  0  0  0  0
   25.5448  -19.2290   -9.0467 C   0  0  0  0  0  0  0  0  0  0  0  0
   26.2901  -20.0780   -8.2601 C   0  0  0  0  0  0  0  0  0  0  0  0
   27.0833  -21.0172   -8.8662 C   0  0  0  0  0  0  0  0  0  0  0  0
   27.1510  -21.1300  -10.2475 C   0  0  0  0  0  0  0  0  0  0  0  0
   24.0689  -20.8855  -12.8639 C   0  0  0  0  0  0  0  0  0  0  0  0
   23.5992  -19.9250  -13.5245 O   0  0  0  0  0  0  0  0  0  0  0  0
   20.2335  -22.9380   -7.8322 C   0  0  0  0  0  0  0  0  0  0  0  0
   19.3027  -21.8299   -8.8991 S   0  0  0  0  0  0  0  0  0  0  0  0
   20.3314  -20.5710   -9.6253 C   0  0  0  0  0  0  0  0  0  0  0  0
   21.6359  -20.9811  -10.1714 C   0  0  0  0  0  0  0  0  0  0  0  0
   21.8420  -21.0027  -11.6499 C   0  0  2  0  0  0  0  0  0  0  0  0
   23.2184  -21.4944  -11.9127 N   0  0  0  0  0  0  0  0  0  0  0  0
   21.6396  -19.7319  -12.3254 C   0  0  0  0  0  0  0  0  0  0  0  0
   22.3465  -18.6989  -12.2374 O   0  0  0  0  0  0  0  0  0  0  0  0
   20.5339  -19.6058  -13.1865 O   0  0  0  0  0  0  0  0  0  0  0  0
  2  1  1  6
  2  3  1  0
  4  2  1  0
  4  5  2  0
  6  4  1  0
  7  6  1  0
  7  8  1  1
  8  9  1  0
  9 10  2  0
  9 14  1  0
 10 11  1  0
 11 12  2  0
 13 12  1  0
 14 13  2  0
 15  7  1  0
 16 15  2  0
 18 17  1  0
 19 18  1  0
 20 19  1  0
 21 20  1  1
 21 22  1  0
 22 15  1  0
 23 21  1  0
 24 23  2  0
 25 23  1  0
M  END
$$$$
