AFM.pdb
     RDKit          3D

 25 25  0  0  1  0  0  0  0  0999 V2000
   22.4550  -21.9129  -13.7794 C   0  0  0  0  0  0  0  0  0  0  0  0
   22.3489  -20.7157  -12.8608 C   0  0  2  0  0  0  0  0  0  0  0  0
   21.7454  -19.5733  -13.4966 N   0  0  0  0  0  0  0  0  0  0  0  0
   23.6700  -20.3317  -12.2951 C   0  0  0  0  0  0  0  0  0  0  0  0
   24.2674  -19.2959  -12.7330 O   0  0  0  0  0  0  0  0  0  0  0  0
   24.3237  -21.0551  -11.2801 N   0  0  0  0  0  0  0  0  0  0  0  0
   25.6746  -20.7701  -10.8101 C   0  0  1  0  0  0  0  0  0  0  0  0
   25.8186  -21.4538   -9.4844 C   0  0  0  0  0  0  0  0  0  0  0  0
   26.7381  -20.7986   -8.5434 C   0  0  0  0  0  0  0  0  0  0  0  0
   28.0645  -21.1503   -8.4322 C   0  0  0  0  0  0  0  0  0  0  0  0
   28.9182  -20.5148   -7.5355 C   0  0  0  0  0  0  0  0  0  0  0  0
   28.4301  -19.5067   -6.7354 C   0  0  0  0  0  0  0  0  0  0  0  0
   27.1098  -19.1549   -6.8444 C   0  0  0  0  0  0  0  0  0  0  0  0
   26.2596  -19.7893   -7.7389 C   0  0  0  0  0  0  0  0  0  0  0  0
   26.6884  -21.1499  -11.8050 C   0  0  0  0  0  0  0  0  0  0  0  0
   27.3173  -22.2265  -11.6471 O   0  0  0  0  0  0  0  0  0  0  0  0
   25.2088  -25.2669  -14.7720 C   0  0  0  0  0  0  0  0  0  0  0  0
   25.3763  -24.1099  -16.1381 S   0  0  0  0  0  0  0  0  0  0  0  0
   26.5759  -22.8379  -15.8011 C   0  0  0  0  0  0  0  0  0  0  0  0
   26.4284  -22.0683  -14.5543 C   0  0  0  0  0  0  0  0  0  0  0  0
   27.4090  -20.9890  -14.2344 C   0  0  2  0  0  0  0  0  0  0  0  0
   27.0078  -20.3746  -12.9432 N   0  0  0  0  0  0  0  0  0  0  0  0
   27.5482  -19.9543  -15.2455 C   0  0  0  0  0  0  0  0  0  0  0  0
   28.6019  -19.5785  -15.8139 O   0  0  0  0  0  0  0  0  0  0  0  0
   26.3901  -19.2722  -15.6620 O   0  0  0  0  0  0  0  0  0  0  0  0
  2  1  1  6
  2  3  1  0
  4  2  1  0
  4  5  2  0
  6  4  1  0
  7  6  1  0
  7  8  1  1
  8  9  1  0
  9 10  2  0
  9 14  1  0
 10 11  1  0
 11 12  2  0
 13 12  1  0
 14 13  2  0
 15  7  1  0
 16 15  2  0
 18 17  1  0
 19 18  1  0
 20 19  1  0
 21 20  1  6
 21 22  1  0
 22 15  1  0
 23 21  1  0
 24 23  2  0
 25 23  1  0
M  END
$$$$
