AFM.pdb
     RDKit          3D

 25 25  0  0  1  0  0  0  0  0999 V2000
   26.7115  -17.5214  -14.6513 C   0  0  0  0  0  0  0  0  0  0  0  0
   27.7271  -18.3573  -13.9042 C   0  0  2  0  0  0  0  0  0  0  0  0
   28.8442  -18.7473  -14.7247 N   0  0  0  0  0  0  0  0  0  0  0  0
   27.1103  -19.5657  -13.2943 C   0  0  0  0  0  0  0  0  0  0  0  0
   27.2500  -20.6989  -13.8581 O   0  0  0  0  0  0  0  0  0  0  0  0
   26.3614  -19.5421  -12.1029 N   0  0  0  0  0  0  0  0  0  0  0  0
   25.6791  -20.7018  -11.5401 C   0  0  1  0  0  0  0  0  0  0  0  0
   25.3766  -20.3674  -10.1110 C   0  0  0  0  0  0  0  0  0  0  0  0
   26.5461  -20.3226   -9.2219 C   0  0  0  0  0  0  0  0  0  0  0  0
   26.6504  -19.4363   -8.1737 C   0  0  0  0  0  0  0  0  0  0  0  0
   27.7664  -19.4126   -7.3426 C   0  0  0  0  0  0  0  0  0  0  0  0
   28.7973  -20.2963   -7.5690 C   0  0  0  0  0  0  0  0  0  0  0  0
   28.6955  -21.1796   -8.6121 C   0  0  0  0  0  0  0  0  0  0  0  0
   27.5823  -21.2022   -9.4400 C   0  0  0  0  0  0  0  0  0  0  0  0
   24.5048  -21.0827  -12.3386 C   0  0  0  0  0  0  0  0  0  0  0  0
   23.8169  -20.1766  -12.8730 O   0  0  0  0  0  0  0  0  0  0  0  0
   21.0719  -27.1527  -16.2423 C   0  0  0  0  0  0  0  0  0  0  0  0
   22.2342  -26.5906  -14.9910 S   0  0  0  0  0  0  0  0  0  0  0  0
   22.0709  -24.8501  -14.6523 C   0  0  0  0  0  0  0  0  0  0  0  0
   23.0702  -24.2259  -13.7691 C   0  0  0  0  0  0  0  0  0  0  0  0
   22.9731  -22.7684  -13.4609 C   0  0  2  0  0  0  0  0  0  0  0  0
   24.0915  -22.4183  -12.5487 N   0  0  0  0  0  0  0  0  0  0  0  0
   21.7135  -22.3379  -12.8774 C   0  0  0  0  0  0  0  0  0  0  0  0
   20.6243  -22.1432  -13.4694 O   0  0  0  0  0  0  0  0  0  0  0  0
   21.6697  -22.1019  -11.4909 O   0  0  0  0  0  0  0  0  0  0  0  0
  2  1  1  6
  2  3  1  0
  4  2  1  0
  4  5  2  0
  6  4  1  0
  7  6  1  0
  7  8  1  1
  8  9  1  0
  9 10  2  0
  9 14  1  0
 10 11  1  0
 11 12  2  0
 13 12  1  0
 14 13  2  0
 15  7  1  0
 16 15  2  0
 18 17  1  0
 19 18  1  0
 20 19  1  0
 21 20  1  1
 21 22  1  0
 22 15  1  0
 23 21  1  0
 24 23  2  0
 25 23  1  0
M  END
$$$$
