AFM.pdb
     RDKit          3D

 25 25  0  0  1  0  0  0  0  0999 V2000
   25.5599  -19.6651  -15.9334 C   0  0  0  0  0  0  0  0  0  0  0  0
   26.9258  -20.3111  -16.0053 C   0  0  2  0  0  0  0  0  0  0  0  0
   27.0289  -21.2878  -17.0584 N   0  0  0  0  0  0  0  0  0  0  0  0
   27.3152  -20.9309  -14.7103 C   0  0  0  0  0  0  0  0  0  0  0  0
   26.9521  -22.1225  -14.4461 O   0  0  0  0  0  0  0  0  0  0  0  0
   28.0793  -20.2721  -13.7290 N   0  0  0  0  0  0  0  0  0  0  0  0
   28.4840  -20.8743  -12.4638 C   0  0  1  0  0  0  0  0  0  0  0  0
   29.8718  -20.3842  -12.1822 C   0  0  0  0  0  0  0  0  0  0  0  0
   30.4979  -20.9479  -10.9778 C   0  0  0  0  0  0  0  0  0  0  0  0
   30.5747  -20.2600   -9.7877 C   0  0  0  0  0  0  0  0  0  0  0  0
   31.1703  -20.8140   -8.6585 C   0  0  0  0  0  0  0  0  0  0  0  0
   31.6989  -22.0832   -8.7262 C   0  0  0  0  0  0  0  0  0  0  0  0
   31.6235  -22.7699   -9.9101 C   0  0  0  0  0  0  0  0  0  0  0  0
   31.0293  -22.2164  -11.0353 C   0  0  0  0  0  0  0  0  0  0  0  0
   27.5122  -20.5999  -11.3951 C   0  0  0  0  0  0  0  0  0  0  0  0
   27.1381  -19.4148  -11.2074 O   0  0  0  0  0  0  0  0  0  0  0  0
   28.9433  -20.3219   -5.4468 C   0  0  0  0  0  0  0  0  0  0  0  0
   27.7140  -19.1540   -6.0447 S   0  0  0  0  0  0  0  0  0  0  0  0
   26.5639  -19.9063   -7.1770 C   0  0  0  0  0  0  0  0  0  0  0  0
   27.1033  -20.4900   -8.4166 C   0  0  0  0  0  0  0  0  0  0  0  0
   26.1996  -21.2578   -9.3235 C   0  0  2  0  0  0  0  0  0  0  0  0
   26.9626  -21.5934  -10.5527 N   0  0  0  0  0  0  0  0  0  0  0  0
   24.9624  -20.5860   -9.6845 C   0  0  0  0  0  0  0  0  0  0  0  0
   24.1300  -20.0516   -8.9124 O   0  0  0  0  0  0  0  0  0  0  0  0
   24.6237  -20.5047  -11.0478 O   0  0  0  0  0  0  0  0  0  0  0  0
  2  1  1  1
  2  3  1  0
  4  2  1  0
  4  5  2  0
  6  4  1  0
  7  6  1  0
  7  8  1  1
  8  9  1  0
  9 10  2  0
  9 14  1  0
 10 11  1  0
 11 12  2  0
 13 12  1  0
 14 13  2  0
 15  7  1  0
 16 15  2  0
 18 17  1  0
 19 18  1  0
 20 19  1  0
 21 20  1  1
 21 22  1  0
 22 15  1  0
 23 21  1  0
 24 23  2  0
 25 23  1  0
M  END
$$$$
