AFM.pdb
     RDKit          3D

 25 25  0  0  1  0  0  0  0  0999 V2000
   18.5204  -13.1210  -19.8463 C   0  0  0  0  0  0  0  0  0  0  0  0
   18.0149  -12.2929  -18.6857 C   0  0  2  0  0  0  0  0  0  0  0  0
   16.6024  -12.0241  -18.7623 N   0  0  0  0  0  0  0  0  0  0  0  0
   18.7598  -11.0123  -18.5518 C   0  0  0  0  0  0  0  0  0  0  0  0
   20.0167  -11.0312  -18.3483 O   0  0  0  0  0  0  0  0  0  0  0  0
   18.1537   -9.7450  -18.6372 N   0  0  0  0  0  0  0  0  0  0  0  0
   18.8656   -8.4828  -18.4722 C   0  0  1  0  0  0  0  0  0  0  0  0
   18.1513   -7.4756  -19.3213 C   0  0  0  0  0  0  0  0  0  0  0  0
   18.6647   -6.1020  -19.2212 C   0  0  0  0  0  0  0  0  0  0  0  0
   19.8005   -5.6825  -19.8765 C   0  0  0  0  0  0  0  0  0  0  0  0
   20.2677   -4.3760  -19.7693 C   0  0  0  0  0  0  0  0  0  0  0  0
   19.5808   -3.4738  -18.9889 C   0  0  0  0  0  0  0  0  0  0  0  0
   18.4497   -3.8893  -18.3356 C   0  0  0  0  0  0  0  0  0  0  0  0
   17.9849   -5.1922  -18.4433 C   0  0  0  0  0  0  0  0  0  0  0  0
   18.9883   -8.1083  -17.0557 C   0  0  0  0  0  0  0  0  0  0  0  0
   17.9555   -8.1041  -16.3395 O   0  0  0  0  0  0  0  0  0  0  0  0
   22.9489   -9.4927  -10.5515 C   0  0  0  0  0  0  0  0  0  0  0  0
   22.6731   -9.6906  -12.3172 S   0  0  0  0  0  0  0  0  0  0  0  0
   21.6529   -8.3953  -12.9895 C   0  0  0  0  0  0  0  0  0  0  0  0
   21.2356   -8.5108  -14.3969 C   0  0  0  0  0  0  0  0  0  0  0  0
   20.3102   -7.4930  -14.9770 C   0  0  2  0  0  0  0  0  0  0  0  0
   20.2070   -7.7478  -16.4365 N   0  0  0  0  0  0  0  0  0  0  0  0
   20.6858   -6.1078  -14.7481 C   0  0  0  0  0  0  0  0  0  0  0  0
   21.4254   -5.3888  -15.4627 O   0  0  0  0  0  0  0  0  0  0  0  0
   20.1817   -5.4631  -13.6034 O   0  0  0  0  0  0  0  0  0  0  0  0
  2  1  1  6
  2  3  1  0
  4  2  1  0
  4  5  2  0
  6  4  1  0
  7  6  1  0
  7  8  1  6
  8  9  1  0
  9 10  2  0
  9 14  1  0
 10 11  1  0
 11 12  2  0
 13 12  1  0
 14 13  2  0
 15  7  1  0
 16 15  2  0
 18 17  1  0
 19 18  1  0
 20 19  1  0
 21 20  1  6
 21 22  1  0
 22 15  1  0
 23 21  1  0
 24 23  2  0
 25 23  1  0
M  END
$$$$
