AFM.pdb
     RDKit          3D

 25 25  0  0  1  0  0  0  0  0999 V2000
   26.8593  -20.7354  -18.5167 C   0  0  0  0  0  0  0  0  0  0  0  0
   27.6637  -21.5362  -17.5168 C   0  0  2  0  0  0  0  0  0  0  0  0
   28.1696  -22.7688  -18.0631 N   0  0  0  0  0  0  0  0  0  0  0  0
   26.8872  -21.8204  -16.2802 C   0  0  0  0  0  0  0  0  0  0  0  0
   26.2370  -22.9107  -16.1795 O   0  0  0  0  0  0  0  0  0  0  0  0
   26.8196  -20.9420  -15.1827 N   0  0  0  0  0  0  0  0  0  0  0  0
   26.0421  -21.1966  -13.9753 C   0  0  1  0  0  0  0  0  0  0  0  0
   26.7061  -20.4322  -12.8706 C   0  0  0  0  0  0  0  0  0  0  0  0
   26.0870  -20.5884  -11.5468 C   0  0  0  0  0  0  0  0  0  0  0  0
   26.4903  -21.5474  -10.6452 C   0  0  0  0  0  0  0  0  0  0  0  0
   25.8912  -21.6763   -9.3957 C   0  0  0  0  0  0  0  0  0  0  0  0
   24.8674  -20.8255   -9.0454 C   0  0  0  0  0  0  0  0  0  0  0  0
   24.4642  -19.8700   -9.9415 C   0  0  0  0  0  0  0  0  0  0  0  0
   25.0623  -19.7425  -11.1870 C   0  0  0  0  0  0  0  0  0  0  0  0
   24.6195  -20.8784  -14.1671 C   0  0  0  0  0  0  0  0  0  0  0  0
   24.3104  -19.7713  -14.6753 O   0  0  0  0  0  0  0  0  0  0  0  0
   17.2193  -23.7760  -14.7356 C   0  0  0  0  0  0  0  0  0  0  0  0
   18.9715  -24.0521  -14.4416 S   0  0  0  0  0  0  0  0  0  0  0  0
   19.8742  -22.5273  -14.2662 C   0  0  0  0  0  0  0  0  0  0  0  0
   21.3430  -22.6034  -14.1950 C   0  0  0  0  0  0  0  0  0  0  0  0
   22.1349  -21.3595  -13.9614 C   0  0  2  0  0  0  0  0  0  0  0  0
   23.5610  -21.7463  -13.8132 N   0  0  0  0  0  0  0  0  0  0  0  0
   21.7225  -20.5647  -12.8167 C   0  0  0  0  0  0  0  0  0  0  0  0
   20.9587  -19.5690  -12.8133 O   0  0  0  0  0  0  0  0  0  0  0  0
   22.2154  -20.9213  -11.5479 O   0  0  0  0  0  0  0  0  0  0  0  0
  2  1  1  6
  2  3  1  0
  4  2  1  0
  4  5  2  0
  6  4  1  0
  7  6  1  0
  7  8  1  1
  8  9  1  0
  9 10  2  0
  9 14  1  0
 10 11  1  0
 11 12  2  0
 13 12  1  0
 14 13  2  0
 15  7  1  0
 16 15  2  0
 18 17  1  0
 19 18  1  0
 20 19  1  0
 21 20  1  1
 21 22  1  0
 22 15  1  0
 23 21  1  0
 24 23  2  0
 25 23  1  0
M  END
$$$$
