AFM.pdb
     RDKit          3D

 25 25  0  0  1  0  0  0  0  0999 V2000
   27.9061  -20.1111  -17.7705 C   0  0  0  0  0  0  0  0  0  0  0  0
   28.2521  -21.3105  -16.9161 C   0  0  2  0  0  0  0  0  0  0  0  0
   28.2662  -22.5432  -17.6601 N   0  0  0  0  0  0  0  0  0  0  0  0
   27.3389  -21.4425  -15.7493 C   0  0  0  0  0  0  0  0  0  0  0  0
   26.2805  -22.1431  -15.8520 O   0  0  0  0  0  0  0  0  0  0  0  0
   27.5707  -20.8287  -14.5042 N   0  0  0  0  0  0  0  0  0  0  0  0
   26.6743  -20.9343  -13.3585 C   0  0  1  0  0  0  0  0  0  0  0  0
   27.4717  -20.5346  -12.1543 C   0  0  0  0  0  0  0  0  0  0  0  0
   26.7430  -20.5912  -10.8791 C   0  0  0  0  0  0  0  0  0  0  0  0
   26.2327  -21.7619  -10.3650 C   0  0  0  0  0  0  0  0  0  0  0  0
   25.5475  -21.7930   -9.1541 C   0  0  0  0  0  0  0  0  0  0  0  0
   25.3716  -20.6256   -8.4462 C   0  0  0  0  0  0  0  0  0  0  0  0
   25.8788  -19.4588   -8.9563 C   0  0  0  0  0  0  0  0  0  0  0  0
   26.5618  -19.4292  -10.1637 C   0  0  0  0  0  0  0  0  0  0  0  0
   25.4419  -20.1579  -13.5584 C   0  0  0  0  0  0  0  0  0  0  0  0
   25.5027  -19.0828  -14.2066 O   0  0  0  0  0  0  0  0  0  0  0  0
   22.6215  -18.1397  -18.0117 C   0  0  0  0  0  0  0  0  0  0  0  0
   21.4247  -19.2469  -17.2538 S   0  0  0  0  0  0  0  0  0  0  0  0
   21.5463  -19.2574  -15.4774 C   0  0  0  0  0  0  0  0  0  0  0  0
   22.7779  -19.7963  -14.8768 C   0  0  0  0  0  0  0  0  0  0  0  0
   22.9338  -19.7988  -13.3920 C   0  0  2  0  0  0  0  0  0  0  0  0
   24.1753  -20.5448  -13.0637 N   0  0  0  0  0  0  0  0  0  0  0  0
   21.8166  -20.3584  -12.6497 C   0  0  0  0  0  0  0  0  0  0  0  0
   20.8350  -19.7431  -12.1675 O   0  0  0  0  0  0  0  0  0  0  0  0
   21.7972  -21.7473  -12.4249 O   0  0  0  0  0  0  0  0  0  0  0  0
  2  1  1  6
  2  3  1  0
  4  2  1  0
  4  5  2  0
  6  4  1  0
  7  6  1  0
  7  8  1  1
  8  9  1  0
  9 10  2  0
  9 14  1  0
 10 11  1  0
 11 12  2  0
 13 12  1  0
 14 13  2  0
 15  7  1  0
 16 15  2  0
 18 17  1  0
 19 18  1  0
 20 19  1  0
 21 20  1  6
 21 22  1  0
 22 15  1  0
 23 21  1  0
 24 23  2  0
 25 23  1  0
M  END
$$$$
