AFM.pdb
     RDKit          3D

 25 25  0  0  1  0  0  0  0  0999 V2000
   25.6528  -21.5710  -17.3711 C   0  0  0  0  0  0  0  0  0  0  0  0
   26.2658  -22.0120  -16.0604 C   0  0  2  0  0  0  0  0  0  0  0  0
   26.8771  -23.3135  -16.1375 N   0  0  0  0  0  0  0  0  0  0  0  0
   25.2761  -21.9909  -14.9501 C   0  0  0  0  0  0  0  0  0  0  0  0
   24.6407  -23.0530  -14.6503 O   0  0  0  0  0  0  0  0  0  0  0  0
   24.9853  -20.8451  -14.1864 N   0  0  0  0  0  0  0  0  0  0  0  0
   24.0463  -20.8199  -13.0706 C   0  0  1  0  0  0  0  0  0  0  0  0
   24.5469  -19.7802  -12.1146 C   0  0  0  0  0  0  0  0  0  0  0  0
   25.3677  -20.2954  -11.0096 C   0  0  0  0  0  0  0  0  0  0  0  0
   26.6842  -20.6648  -11.1699 C   0  0  0  0  0  0  0  0  0  0  0  0
   27.4439  -21.1482  -10.1088 C   0  0  0  0  0  0  0  0  0  0  0  0
   26.8700  -21.2628   -8.8629 C   0  0  0  0  0  0  0  0  0  0  0  0
   25.5594  -20.8957   -8.7010 C   0  0  0  0  0  0  0  0  0  0  0  0
   24.8030  -20.4137   -9.7597 C   0  0  0  0  0  0  0  0  0  0  0  0
   22.6641  -20.6129  -13.5272 C   0  0  0  0  0  0  0  0  0  0  0  0
   22.4157  -19.6386  -14.2814 O   0  0  0  0  0  0  0  0  0  0  0  0
   18.3780  -24.6539  -16.6053 C   0  0  0  0  0  0  0  0  0  0  0  0
   17.5651  -24.0825  -15.1068 S   0  0  0  0  0  0  0  0  0  0  0  0
   18.2078  -22.5198  -14.5451 C   0  0  0  0  0  0  0  0  0  0  0  0
   19.6116  -22.4737  -14.1032 C   0  0  0  0  0  0  0  0  0  0  0  0
   20.1920  -21.1837  -13.6258 C   0  0  2  0  0  0  0  0  0  0  0  0
   21.5805  -21.4477  -13.1700 N   0  0  0  0  0  0  0  0  0  0  0  0
   19.4483  -20.5201  -12.5680 C   0  0  0  0  0  0  0  0  0  0  0  0
   19.7466  -20.4525  -11.3510 O   0  0  0  0  0  0  0  0  0  0  0  0
   18.2497  -19.8661  -12.9080 O   0  0  0  0  0  0  0  0  0  0  0  0
  2  1  1  6
  2  3  1  0
  4  2  1  0
  4  5  2  0
  6  4  1  0
  7  6  1  0
  7  8  1  1
  8  9  1  0
  9 10  2  0
  9 14  1  0
 10 11  1  0
 11 12  2  0
 13 12  1  0
 14 13  2  0
 15  7  1  0
 16 15  2  0
 18 17  1  0
 19 18  1  0
 20 19  1  0
 21 20  1  1
 21 22  1  0
 22 15  1  0
 23 21  1  0
 24 23  2  0
 25 23  1  0
M  END
$$$$
