AFM.pdb
     RDKit          3D

 25 25  0  0  1  0  0  0  0  0999 V2000
   27.5198  -21.0237  -17.8588 C   0  0  0  0  0  0  0  0  0  0  0  0
   28.0285  -21.9806  -16.8033 C   0  0  2  0  0  0  0  0  0  0  0  0
   28.1922  -23.3235  -17.2966 N   0  0  0  0  0  0  0  0  0  0  0  0
   27.1548  -21.9944  -15.5995 C   0  0  0  0  0  0  0  0  0  0  0  0
   26.1888  -22.8212  -15.5299 O   0  0  0  0  0  0  0  0  0  0  0  0
   27.3272  -21.1318  -14.5009 N   0  0  0  0  0  0  0  0  0  0  0  0
   26.4878  -21.1453  -13.3082 C   0  0  1  0  0  0  0  0  0  0  0  0
   27.3135  -20.5690  -12.1984 C   0  0  0  0  0  0  0  0  0  0  0  0
   26.6346  -20.4842  -10.8976 C   0  0  0  0  0  0  0  0  0  0  0  0
   26.5268  -21.5582  -10.0430 C   0  0  0  0  0  0  0  0  0  0  0  0
   25.8812  -21.4550   -8.8146 C   0  0  0  0  0  0  0  0  0  0  0  0
   25.3332  -20.2498   -8.4374 C   0  0  0  0  0  0  0  0  0  0  0  0
   25.4393  -19.1792   -9.2867 C   0  0  0  0  0  0  0  0  0  0  0  0
   26.0833  -19.2834  -10.5113 C   0  0  0  0  0  0  0  0  0  0  0  0
   25.2081  -20.4581  -13.5357 C   0  0  0  0  0  0  0  0  0  0  0  0
   25.1954  -19.4240  -14.2499 O   0  0  0  0  0  0  0  0  0  0  0  0
   22.6358  -19.8920  -18.0879 C   0  0  0  0  0  0  0  0  0  0  0  0
   21.0767  -20.1140  -17.2203 S   0  0  0  0  0  0  0  0  0  0  0  0
   21.2509  -19.9156  -15.4593 C   0  0  0  0  0  0  0  0  0  0  0  0
   22.4846  -20.4169  -14.8308 C   0  0  0  0  0  0  0  0  0  0  0  0
   22.6837  -20.2482  -13.3609 C   0  0  2  0  0  0  0  0  0  0  0  0
   23.9736  -20.8883  -12.9976 N   0  0  0  0  0  0  0  0  0  0  0  0
   21.6214  -20.7799  -12.5235 C   0  0  0  0  0  0  0  0  0  0  0  0
   21.5127  -21.9475  -12.0769 O   0  0  0  0  0  0  0  0  0  0  0  0
   20.5756  -19.9163  -12.1487 O   0  0  0  0  0  0  0  0  0  0  0  0
  2  1  1  6
  2  3  1  0
  4  2  1  0
  4  5  2  0
  6  4  1  0
  7  6  1  0
  7  8  1  1
  8  9  1  0
  9 10  2  0
  9 14  1  0
 10 11  1  0
 11 12  2  0
 13 12  1  0
 14 13  2  0
 15  7  1  0
 16 15  2  0
 18 17  1  0
 19 18  1  0
 20 19  1  0
 21 20  1  6
 21 22  1  0
 22 15  1  0
 23 21  1  0
 24 23  2  0
 25 23  1  0
M  END
$$$$
