AFM.pdb
     RDKit          3D

 25 25  0  0  1  0  0  0  0  0999 V2000
   27.0561  -20.9927  -16.9129 C   0  0  0  0  0  0  0  0  0  0  0  0
   27.4904  -22.0540  -15.9264 C   0  0  2  0  0  0  0  0  0  0  0  0
   27.4001  -23.3876  -16.4622 N   0  0  0  0  0  0  0  0  0  0  0  0
   26.7246  -21.9750  -14.6536 C   0  0  0  0  0  0  0  0  0  0  0  0
   25.5838  -22.5342  -14.5673 O   0  0  0  0  0  0  0  0  0  0  0  0
   27.1874  -21.3056  -13.5054 N   0  0  0  0  0  0  0  0  0  0  0  0
   26.4760  -21.2732  -12.2325 C   0  0  1  0  0  0  0  0  0  0  0  0
   27.4834  -20.8941  -11.1899 C   0  0  0  0  0  0  0  0  0  0  0  0
   26.9277  -20.6311   -9.8549 C   0  0  0  0  0  0  0  0  0  0  0  0
   27.6844  -20.1315   -8.8190 C   0  0  0  0  0  0  0  0  0  0  0  0
   27.1370  -19.8878   -7.5630 C   0  0  0  0  0  0  0  0  0  0  0  0
   25.8039  -20.1512   -7.3434 C   0  0  0  0  0  0  0  0  0  0  0  0
   25.0485  -20.6487   -8.3732 C   0  0  0  0  0  0  0  0  0  0  0  0
   25.5955  -20.8911   -9.6252 C   0  0  0  0  0  0  0  0  0  0  0  0
   25.2982  -20.3950  -12.2897 C   0  0  0  0  0  0  0  0  0  0  0  0
   25.3984  -19.2856  -12.8717 O   0  0  0  0  0  0  0  0  0  0  0  0
   19.6952  -19.0197  -16.5646 C   0  0  0  0  0  0  0  0  0  0  0  0
   21.1803  -19.8202  -15.9430 S   0  0  0  0  0  0  0  0  0  0  0  0
   21.3757  -19.6077  -14.1860 C   0  0  0  0  0  0  0  0  0  0  0  0
   22.6105  -20.1170  -13.5660 C   0  0  0  0  0  0  0  0  0  0  0  0
   22.7988  -19.9943  -12.0902 C   0  0  2  0  0  0  0  0  0  0  0  0
   24.0428  -20.7191  -11.7260 N   0  0  0  0  0  0  0  0  0  0  0  0
   21.6950  -20.4801  -11.2791 C   0  0  0  0  0  0  0  0  0  0  0  0
   21.4863  -21.6578  -10.8995 O   0  0  0  0  0  0  0  0  0  0  0  0
   20.7275  -19.5529  -10.8498 O   0  0  0  0  0  0  0  0  0  0  0  0
  2  1  1  6
  2  3  1  0
  4  2  1  0
  4  5  2  0
  6  4  1  0
  7  6  1  0
  7  8  1  1
  8  9  1  0
  9 10  2  0
  9 14  1  0
 10 11  1  0
 11 12  2  0
 13 12  1  0
 14 13  2  0
 15  7  1  0
 16 15  2  0
 18 17  1  0
 19 18  1  0
 20 19  1  0
 21 20  1  6
 21 22  1  0
 22 15  1  0
 23 21  1  0
 24 23  2  0
 25 23  1  0
M  END
$$$$
