AFM.pdb
     RDKit          3D

 25 25  0  0  1  0  0  0  0  0999 V2000
   28.5099  -22.2768  -14.4945 C   0  0  0  0  0  0  0  0  0  0  0  0
   27.8741  -21.0904  -13.8041 C   0  0  2  0  0  0  0  0  0  0  0  0
   28.6909  -19.9058  -13.8597 N   0  0  0  0  0  0  0  0  0  0  0  0
   27.5283  -21.3919  -12.3890 C   0  0  0  0  0  0  0  0  0  0  0  0
   26.6226  -22.2484  -12.1291 O   0  0  0  0  0  0  0  0  0  0  0  0
   28.1511  -20.7779  -11.2863 N   0  0  0  0  0  0  0  0  0  0  0  0
   27.6713  -20.8789   -9.9127 C   0  0  1  0  0  0  0  0  0  0  0  0
   28.7343  -20.2781   -9.0439 C   0  0  0  0  0  0  0  0  0  0  0  0
   28.3685  -20.1267   -7.6285 C   0  0  0  0  0  0  0  0  0  0  0  0
   27.7233  -19.0122   -7.1417 C   0  0  0  0  0  0  0  0  0  0  0  0
   27.3843  -18.8907   -5.7975 C   0  0  0  0  0  0  0  0  0  0  0  0
   27.6995  -19.9082   -4.9256 C   0  0  0  0  0  0  0  0  0  0  0  0
   28.3419  -21.0187   -5.4080 C   0  0  0  0  0  0  0  0  0  0  0  0
   28.6793  -21.1387   -6.7486 C   0  0  0  0  0  0  0  0  0  0  0  0
   26.3409  -20.2732   -9.7550 C   0  0  0  0  0  0  0  0  0  0  0  0
   26.1642  -19.0916  -10.1450 O   0  0  0  0  0  0  0  0  0  0  0  0
   22.8724  -19.5062  -13.7867 C   0  0  0  0  0  0  0  0  0  0  0  0
   21.5368  -20.0151  -12.6959 S   0  0  0  0  0  0  0  0  0  0  0  0
   22.0216  -19.9971  -10.9826 C   0  0  0  0  0  0  0  0  0  0  0  0
   23.3829  -20.4492  -10.6496 C   0  0  0  0  0  0  0  0  0  0  0  0
   23.8577  -20.3783   -9.2360 C   0  0  2  0  0  0  0  0  0  0  0  0
   25.2316  -20.9399   -9.1862 N   0  0  0  0  0  0  0  0  0  0  0  0
   23.0175  -21.0552   -8.2622 C   0  0  0  0  0  0  0  0  0  0  0  0
   21.7819  -20.9171   -8.0922 O   0  0  0  0  0  0  0  0  0  0  0  0
   23.6225  -21.9802   -7.3914 O   0  0  0  0  0  0  0  0  0  0  0  0
  2  1  1  1
  2  3  1  0
  4  2  1  0
  4  5  2  0
  6  4  1  0
  7  6  1  0
  7  8  1  1
  8  9  1  0
  9 10  2  0
  9 14  1  0
 10 11  1  0
 11 12  2  0
 13 12  1  0
 14 13  2  0
 15  7  1  0
 16 15  2  0
 18 17  1  0
 19 18  1  0
 20 19  1  0
 21 20  1  6
 21 22  1  0
 22 15  1  0
 23 21  1  0
 24 23  2  0
 25 23  1  0
M  END
$$$$
