VPD.pdb
     RDKit          3D

 23 23  0  0  1  0  0  0  0  0999 V2000
   19.5713  -11.2432    5.9879 C   0  0  0  0  0  0  0  0  0  0  0  0
   19.1836  -12.6896    6.2858 C   0  0  2  0  0  0  0  0  0  0  0  0
   20.3930  -13.5632    6.2994 C   0  0  0  0  0  0  0  0  0  0  0  0
   18.1809  -13.0681    5.1922 C   0  0  2  0  0  0  0  0  0  0  0  0
   16.9771  -12.2490    5.4968 N   0  0  0  0  0  0  0  0  0  0  0  0
   17.7912  -14.4940    5.3699 C   0  0  0  0  0  0  0  0  0  0  0  0
   17.4206  -14.8162    6.5587 O   0  0  0  0  0  0  0  0  0  0  0  0
   17.8052  -15.4659    4.3404 N   0  0  0  0  0  0  0  0  0  0  0  0
   18.1214  -15.2778    2.9434 C   0  0  0  0  0  0  0  0  0  0  0  0
   17.2627  -16.3606    2.2447 C   0  0  0  0  0  0  0  0  0  0  0  0
   17.5018  -17.5105    3.1993 C   0  0  0  0  0  0  0  0  0  0  0  0
   17.4586  -16.8628    4.5359 C   0  0  1  0  0  0  0  0  0  0  0  0
   18.4008  -17.4427    5.5133 C   0  0  0  0  0  0  0  0  0  0  0  0
   19.5452  -16.9503    5.6957 O   0  0  0  0  0  0  0  0  0  0  0  0
   18.0799  -18.5879    6.3078 N   0  0  0  0  0  0  0  0  0  0  0  0
   18.9677  -19.1791    7.2554 C   0  0  1  0  0  0  0  0  0  0  0  0
   19.2942  -18.1596    8.3235 C   0  0  0  0  0  0  0  0  0  0  0  0
   20.0898  -18.8423    9.3747 C   0  0  0  0  0  0  0  0  0  0  0  0
   20.4557  -20.0456    9.2743 O   0  0  0  0  0  0  0  0  0  0  0  0
   18.4270  -20.4063    7.8850 C   0  0  0  0  0  0  0  0  0  0  0  0
   19.0656  -21.1322    8.6731 O   0  0  0  0  0  0  0  0  0  0  0  0
   20.4831  -18.1910   10.5437 O   0  0  0  0  0  0  0  0  0  0  0  0
   17.1245  -20.7776    7.5823 O   0  0  0  0  0  0  0  0  0  0  0  0
  2  1  1  6
  2  3  1  0
  4  2  1  0
  4  5  1  1
  6  4  1  0
  6  8  1  0
  7  6  2  0
  8 12  1  0
  9  8  1  0
 10 11  1  0
 10  9  1  0
 11 12  1  0
 12 13  1  1
 13 15  1  0
 14 13  2  0
 15 16  1  0
 16 20  1  0
 17 18  1  0
 16 17  1  1
 18 22  1  0
 19 18  2  0
 20 21  2  0
 20 23  1  0
M  END
$$$$
