VPD.pdb
     RDKit          3D

 23 23  0  0  1  0  0  0  0  0999 V2000
   18.0379  -10.4753  -18.0209 C   0  0  0  0  0  0  0  0  0  0  0  0
   19.4154  -11.1328  -17.9895 C   0  0  2  0  0  0  0  0  0  0  0  0
   19.4639  -12.2911  -18.9288 C   0  0  0  0  0  0  0  0  0  0  0  0
   19.6335  -11.5345  -16.5281 C   0  0  2  0  0  0  0  0  0  0  0  0
   18.4368  -12.3501  -16.1879 N   0  0  0  0  0  0  0  0  0  0  0  0
   19.5799  -10.3119  -15.6803 C   0  0  0  0  0  0  0  0  0  0  0  0
   18.4009   -9.9508  -15.3141 O   0  0  0  0  0  0  0  0  0  0  0  0
   20.7118   -9.5645  -15.2741 N   0  0  0  0  0  0  0  0  0  0  0  0
   22.1006   -9.8137  -15.5841 C   0  0  0  0  0  0  0  0  0  0  0  0
   22.8388   -9.2509  -14.3447 C   0  0  0  0  0  0  0  0  0  0  0  0
   22.0492   -7.9741  -14.1533 C   0  0  0  0  0  0  0  0  0  0  0  0
   20.6483   -8.3928  -14.4180 C   0  0  1  0  0  0  0  0  0  0  0  0
   19.8340   -7.3654  -15.0966 C   0  0  0  0  0  0  0  0  0  0  0  0
   19.6777   -7.3694  -16.3460 O   0  0  0  0  0  0  0  0  0  0  0  0
   19.1770   -6.3105  -14.3885 N   0  0  0  0  0  0  0  0  0  0  0  0
   18.4875   -5.2318  -15.0182 C   0  0  1  0  0  0  0  0  0  0  0  0
   17.1450   -5.0496  -14.3465 C   0  0  0  0  0  0  0  0  0  0  0  0
   16.4443   -3.9322  -15.0281 C   0  0  0  0  0  0  0  0  0  0  0  0
   16.9586   -3.2931  -15.9867 O   0  0  0  0  0  0  0  0  0  0  0  0
   19.2377   -3.9547  -14.9893 C   0  0  0  0  0  0  0  0  0  0  0  0
   18.9682   -2.9646  -15.6984 O   0  0  0  0  0  0  0  0  0  0  0  0
   15.1675   -3.5189  -14.6477 O   0  0  0  0  0  0  0  0  0  0  0  0
   20.3121   -3.8466  -14.1175 O   0  0  0  0  0  0  0  0  0  0  0  0
  2  1  1  1
  2  3  1  0
  4  2  1  0
  4  5  1  1
  6  4  1  0
  6  8  1  0
  7  6  2  0
  8 12  1  0
  9  8  1  0
 10 11  1  0
 10  9  1  0
 11 12  1  0
 12 13  1  6
 13 15  1  0
 14 13  2  0
 15 16  1  0
 16 20  1  0
 17 18  1  0
 16 17  1  1
 18 22  1  0
 19 18  2  0
 20 21  2  0
 20 23  1  0
M  END
$$$$
