VPD.pdb
     RDKit          3D

 23 23  0  0  1  0  0  0  0  0999 V2000
   18.0996  -11.4457  -19.0726 C   0  0  0  0  0  0  0  0  0  0  0  0
   18.6460  -10.4769  -18.0268 C   0  0  2  0  0  0  0  0  0  0  0  0
   19.6512   -9.5593  -18.6382 C   0  0  0  0  0  0  0  0  0  0  0  0
   19.2340  -11.3655  -16.9271 C   0  0  2  0  0  0  0  0  0  0  0  0
   18.0507  -12.0328  -16.3209 N   0  0  0  0  0  0  0  0  0  0  0  0
   19.8287  -10.4973  -15.8740 C   0  0  0  0  0  0  0  0  0  0  0  0
   18.9974   -9.7273  -15.2654 O   0  0  0  0  0  0  0  0  0  0  0  0
   21.2007  -10.4818  -15.5246 N   0  0  0  0  0  0  0  0  0  0  0  0
   22.2556  -11.3336  -16.0232 C   0  0  0  0  0  0  0  0  0  0  0  0
   23.2340  -11.4111  -14.8255 C   0  0  0  0  0  0  0  0  0  0  0  0
   23.2101   -9.9586  -14.4007 C   0  0  0  0  0  0  0  0  0  0  0  0
   21.7796   -9.5822  -14.5421 C   0  0  1  0  0  0  0  0  0  0  0  0
   21.5677   -8.1951  -15.0005 C   0  0  0  0  0  0  0  0  0  0  0  0
   21.4648   -7.9151  -16.2238 O   0  0  0  0  0  0  0  0  0  0  0  0
   21.4665   -7.0913  -14.0967 N   0  0  0  0  0  0  0  0  0  0  0  0
   21.4025   -5.7256  -14.5048 C   0  0  1  0  0  0  0  0  0  0  0  0
   19.9588   -5.2762  -14.4883 C   0  0  0  0  0  0  0  0  0  0  0  0
   19.9097   -3.8869  -15.0093 C   0  0  0  0  0  0  0  0  0  0  0  0
   20.2110   -3.5978  -16.1999 O   0  0  0  0  0  0  0  0  0  0  0  0
   22.2173   -4.8191  -13.6628 C   0  0  0  0  0  0  0  0  0  0  0  0
   22.6139   -5.0946  -12.5128 O   0  0  0  0  0  0  0  0  0  0  0  0
   19.5255   -2.8107  -14.2093 O   0  0  0  0  0  0  0  0  0  0  0  0
   22.5657   -3.5803  -14.1824 O   0  0  0  0  0  0  0  0  0  0  0  0
  2  1  1  6
  2  3  1  0
  4  2  1  0
  4  5  1  1
  6  4  1  0
  6  8  1  0
  7  6  2  0
  8 12  1  0
  9  8  1  0
 10 11  1  0
 10  9  1  0
 11 12  1  0
 12 13  1  6
 13 15  1  0
 14 13  2  0
 15 16  1  0
 16 20  1  0
 17 18  1  0
 16 17  1  1
 18 22  1  0
 19 18  2  0
 20 21  2  0
 20 23  1  0
M  END
$$$$
