VPD.pdb
     RDKit          3D

 23 23  0  0  1  0  0  0  0  0999 V2000
   24.5633  -26.0551  -16.4121 C   0  0  0  0  0  0  0  0  0  0  0  0
   25.9289  -25.3725  -16.3942 C   0  0  2  0  0  0  0  0  0  0  0  0
   25.7799  -23.9110  -16.1335 C   0  0  0  0  0  0  0  0  0  0  0  0
   26.5472  -25.6793  -17.7610 C   0  0  2  0  0  0  0  0  0  0  0  0
   25.5582  -25.1521  -18.7392 N   0  0  0  0  0  0  0  0  0  0  0  0
   26.5955  -27.1557  -17.9464 C   0  0  0  0  0  0  0  0  0  0  0  0
   25.5775  -27.6659  -18.5446 O   0  0  0  0  0  0  0  0  0  0  0  0
   27.6600  -27.9856  -17.5188 N   0  0  0  0  0  0  0  0  0  0  0  0
   28.9284  -27.5860  -16.9545 C   0  0  0  0  0  0  0  0  0  0  0  0
   29.8824  -28.7174  -17.4101 C   0  0  0  0  0  0  0  0  0  0  0  0
   28.9826  -29.9076  -17.1569 C   0  0  0  0  0  0  0  0  0  0  0  0
   27.6500  -29.4349  -17.6138 C   0  0  1  0  0  0  0  0  0  0  0  0
   26.5243  -29.9455  -16.8068 C   0  0  0  0  0  0  0  0  0  0  0  0
   26.4591  -29.7424  -15.5658 O   0  0  0  0  0  0  0  0  0  0  0  0
   25.4465  -30.6954  -17.3741 N   0  0  0  0  0  0  0  0  0  0  0  0
   24.3869  -31.2745  -16.6141 C   0  0  1  0  0  0  0  0  0  0  0  0
   23.0680  -30.7396  -17.1252 C   0  0  0  0  0  0  0  0  0  0  0  0
   21.9913  -31.2851  -16.2608 C   0  0  0  0  0  0  0  0  0  0  0  0
   22.2274  -32.0414  -15.2789 O   0  0  0  0  0  0  0  0  0  0  0  0
   24.3737  -32.7554  -16.6528 C   0  0  0  0  0  0  0  0  0  0  0  0
   24.1376  -33.4825  -15.6672 O   0  0  0  0  0  0  0  0  0  0  0  0
   20.6456  -30.9931  -16.4834 O   0  0  0  0  0  0  0  0  0  0  0  0
   24.6405  -33.3807  -17.8627 O   0  0  0  0  0  0  0  0  0  0  0  0
  2  1  1  6
  2  3  1  0
  4  2  1  0
  4  5  1  6
  6  4  1  0
  6  8  1  0
  7  6  2  0
  8 12  1  0
  9  8  1  0
 10 11  1  0
 10  9  1  0
 11 12  1  0
 12 13  1  1
 13 15  1  0
 14 13  2  0
 15 16  1  0
 16 20  1  0
 17 18  1  0
 16 17  1  6
 18 22  1  0
 19 18  2  0
 20 21  2  0
 20 23  1  0
M  END
$$$$
