VPD.pdb
     RDKit          3D

 23 23  0  0  1  0  0  0  0  0999 V2000
   19.1639  -11.8425    5.4834 C   0  0  0  0  0  0  0  0  0  0  0  0
   19.2689  -13.0187    6.4512 C   0  0  2  0  0  0  0  0  0  0  0  0
   20.6974  -13.3884    6.6723 C   0  0  0  0  0  0  0  0  0  0  0  0
   18.4503  -14.1409    5.8069 C   0  0  2  0  0  0  0  0  0  0  0  0
   17.0454  -13.6565    5.8730 N   0  0  0  0  0  0  0  0  0  0  0  0
   18.5322  -15.3517    6.6694 C   0  0  0  0  0  0  0  0  0  0  0  0
   17.9809  -15.2384    7.8259 O   0  0  0  0  0  0  0  0  0  0  0  0
   19.1559  -16.5661    6.2937 N   0  0  0  0  0  0  0  0  0  0  0  0
   19.8047  -16.8833    5.0425 C   0  0  0  0  0  0  0  0  0  0  0  0
   19.5756  -18.4090    4.9102 C   0  0  0  0  0  0  0  0  0  0  0  0
   19.8583  -18.8198    6.3392 C   0  0  0  0  0  0  0  0  0  0  0  0
   19.2157  -17.7453    7.1395 C   0  0  1  0  0  0  0  0  0  0  0  0
   19.9495  -17.3961    8.3720 C   0  0  0  0  0  0  0  0  0  0  0  0
   20.7405  -16.4173    8.4115 O   0  0  0  0  0  0  0  0  0  0  0  0
   19.8121  -18.1374    9.5874 N   0  0  0  0  0  0  0  0  0  0  0  0
   20.5766  -17.8904   10.7665 C   0  0  1  0  0  0  0  0  0  0  0  0
   19.7924  -16.9709   11.6754 C   0  0  0  0  0  0  0  0  0  0  0  0
   20.6033  -16.7408   12.8976 C   0  0  0  0  0  0  0  0  0  0  0  0
   21.7441  -17.2541   13.0613 O   0  0  0  0  0  0  0  0  0  0  0  0
   20.9443  -19.1235   11.5006 C   0  0  0  0  0  0  0  0  0  0  0  0
   20.5026  -20.2590   11.2337 O   0  0  0  0  0  0  0  0  0  0  0  0
   20.1502  -15.9386   13.9449 O   0  0  0  0  0  0  0  0  0  0  0  0
   21.8393  -19.0145   12.5558 O   0  0  0  0  0  0  0  0  0  0  0  0
  2  1  1  6
  2  3  1  0
  4  2  1  0
  4  5  1  1
  6  4  1  0
  6  8  1  0
  7  6  2  0
  8 12  1  0
  9  8  1  0
 10 11  1  0
 10  9  1  0
 11 12  1  0
 12 13  1  1
 13 15  1  0
 14 13  2  0
 15 16  1  0
 16 20  1  0
 17 18  1  0
 16 17  1  1
 18 22  1  0
 19 18  2  0
 20 21  2  0
 20 23  1  0
M  END
$$$$
