VPD.pdb
     RDKit          3D

 23 23  0  0  1  0  0  0  0  0999 V2000
   18.5206   -9.9016  -17.8487 C   0  0  0  0  0  0  0  0  0  0  0  0
   19.3775  -11.1256  -18.1627 C   0  0  2  0  0  0  0  0  0  0  0  0
   18.7217  -11.9704  -19.2031 C   0  0  0  0  0  0  0  0  0  0  0  0
   19.5498  -11.8473  -16.8233 C   0  0  2  0  0  0  0  0  0  0  0  0
   18.1599  -12.1390  -16.3807 N   0  0  0  0  0  0  0  0  0  0  0  0
   20.1285  -10.8956  -15.8354 C   0  0  0  0  0  0  0  0  0  0  0  0
   19.2805  -10.1128  -15.2677 O   0  0  0  0  0  0  0  0  0  0  0  0
   21.5029  -10.8172  -15.5040 N   0  0  0  0  0  0  0  0  0  0  0  0
   22.5890  -11.6199  -16.0166 C   0  0  0  0  0  0  0  0  0  0  0  0
   23.5856  -11.6521  -14.8319 C   0  0  0  0  0  0  0  0  0  0  0  0
   23.5007  -10.2021  -14.4064 C   0  0  0  0  0  0  0  0  0  0  0  0
   22.0528   -9.8917  -14.5289 C   0  0  1  0  0  0  0  0  0  0  0  0
   21.7715   -8.5159  -14.9841 C   0  0  0  0  0  0  0  0  0  0  0  0
   21.2908   -8.2859  -16.1250 O   0  0  0  0  0  0  0  0  0  0  0  0
   22.0233   -7.3675  -14.1696 N   0  0  0  0  0  0  0  0  0  0  0  0
   21.7860   -6.0235  -14.5854 C   0  0  1  0  0  0  0  0  0  0  0  0
   20.3085   -5.8476  -14.8551 C   0  0  0  0  0  0  0  0  0  0  0  0
   20.0902   -4.4450  -15.2902 C   0  0  0  0  0  0  0  0  0  0  0  0
   20.8876   -3.8416  -16.0595 O   0  0  0  0  0  0  0  0  0  0  0  0
   22.2376   -5.0126  -13.6011 C   0  0  0  0  0  0  0  0  0  0  0  0
   22.4499   -5.2509  -12.3953 O   0  0  0  0  0  0  0  0  0  0  0  0
   18.9841   -3.7052  -14.8722 O   0  0  0  0  0  0  0  0  0  0  0  0
   22.4401   -3.7130  -14.0440 O   0  0  0  0  0  0  0  0  0  0  0  0
  2  1  1  1
  2  3  1  0
  4  2  1  0
  4  5  1  1
  6  4  1  0
  6  8  1  0
  7  6  2  0
  8 12  1  0
  9  8  1  0
 10 11  1  0
 10  9  1  0
 11 12  1  0
 12 13  1  6
 13 15  1  0
 14 13  2  0
 15 16  1  0
 16 20  1  0
 17 18  1  0
 16 17  1  1
 18 22  1  0
 19 18  2  0
 20 21  2  0
 20 23  1  0
M  END
$$$$
