VPD.pdb
     RDKit          3D

 23 23  0  0  1  0  0  0  0  0999 V2000
   19.6383  -19.0062  -11.4508 C   0  0  0  0  0  0  0  0  0  0  0  0
   20.0532  -19.8533  -12.6514 C   0  0  2  0  0  0  0  0  0  0  0  0
   19.1005  -20.9847  -12.8476 C   0  0  0  0  0  0  0  0  0  0  0  0
   21.4795  -20.3156  -12.3408 C   0  0  2  0  0  0  0  0  0  0  0  0
   21.8853  -21.0914  -13.5435 N   0  0  0  0  0  0  0  0  0  0  0  0
   21.4373  -21.2729  -11.2014 C   0  0  0  0  0  0  0  0  0  0  0  0
   20.9614  -22.4349  -11.4801 O   0  0  0  0  0  0  0  0  0  0  0  0
   21.8783  -20.9802   -9.8882 N   0  0  0  0  0  0  0  0  0  0  0  0
   22.5147  -19.7741   -9.4114 C   0  0  0  0  0  0  0  0  0  0  0  0
   23.4111  -20.2878   -8.2579 C   0  0  0  0  0  0  0  0  0  0  0  0
   22.4419  -21.2541   -7.6118 C   0  0  0  0  0  0  0  0  0  0  0  0
   21.7795  -21.9044   -8.7721 C   0  0  1  0  0  0  0  0  0  0  0  0
   20.3533  -22.2149   -8.5510 C   0  0  0  0  0  0  0  0  0  0  0  0
   19.4489  -21.3825   -8.8243 O   0  0  0  0  0  0  0  0  0  0  0  0
   19.9101  -23.4661   -8.0184 N   0  0  0  0  0  0  0  0  0  0  0  0
   18.5485  -23.7729   -7.7225 C   0  0  1  0  0  0  0  0  0  0  0  0
   18.0371  -24.7659   -8.7420 C   0  0  0  0  0  0  0  0  0  0  0  0
   16.5858  -24.9610   -8.4975 C   0  0  0  0  0  0  0  0  0  0  0  0
   15.9480  -24.2972   -7.6347 O   0  0  0  0  0  0  0  0  0  0  0  0
   18.3479  -24.3113   -6.3570 C   0  0  0  0  0  0  0  0  0  0  0  0
   19.2488  -24.8260   -5.6647 O   0  0  0  0  0  0  0  0  0  0  0  0
   15.8353  -25.8956   -9.2108 O   0  0  0  0  0  0  0  0  0  0  0  0
   17.0761  -24.2407   -5.8061 O   0  0  0  0  0  0  0  0  0  0  0  0
  2  1  1  1
  2  3  1  0
  4  2  1  0
  4  5  1  6
  6  4  1  0
  6  8  1  0
  7  6  2  0
  8 12  1  0
  9  8  1  0
 10 11  1  0
 10  9  1  0
 11 12  1  0
 12 13  1  1
 13 15  1  0
 14 13  2  0
 15 16  1  0
 16 20  1  0
 17 18  1  0
 16 17  1  6
 18 22  1  0
 19 18  2  0
 20 21  2  0
 20 23  1  0
M  END
$$$$
