VPD.pdb
     RDKit          3D

 23 23  0  0  1  0  0  0  0  0999 V2000
   19.0236  -11.9706  -16.9919 C   0  0  0  0  0  0  0  0  0  0  0  0
   19.5262  -12.1402  -18.4235 C   0  0  2  0  0  0  0  0  0  0  0  0
   18.8534  -13.2986  -19.0805 C   0  0  0  0  0  0  0  0  0  0  0  0
   21.0418  -12.3182  -18.2968 C   0  0  2  0  0  0  0  0  0  0  0  0
   21.2006  -13.5338  -17.4541 N   0  0  0  0  0  0  0  0  0  0  0  0
   21.5966  -11.1763  -17.5191 C   0  0  0  0  0  0  0  0  0  0  0  0
   21.5847  -11.3267  -16.2417 O   0  0  0  0  0  0  0  0  0  0  0  0
   22.1154   -9.9898  -18.0917 N   0  0  0  0  0  0  0  0  0  0  0  0
   22.2314   -9.6545  -19.4921 C   0  0  0  0  0  0  0  0  0  0  0  0
   23.4738   -8.7309  -19.5257 C   0  0  0  0  0  0  0  0  0  0  0  0
   23.1862   -7.8956  -18.2968 C   0  0  0  0  0  0  0  0  0  0  0  0
   22.6635   -8.8872  -17.3213 C   0  0  1  0  0  0  0  0  0  0  0  0
   21.6004   -8.3604  -16.4431 C   0  0  0  0  0  0  0  0  0  0  0  0
   20.3952   -8.6903  -16.5985 O   0  0  0  0  0  0  0  0  0  0  0  0
   21.8657   -7.4518  -15.3708 N   0  0  0  0  0  0  0  0  0  0  0  0
   20.8668   -6.9384  -14.4909 C   0  0  1  0  0  0  0  0  0  0  0  0
   20.2757   -8.0831  -13.6991 C   0  0  0  0  0  0  0  0  0  0  0  0
   19.1970   -7.5321  -12.8407 C   0  0  0  0  0  0  0  0  0  0  0  0
   18.4362   -6.6005  -13.2216 O   0  0  0  0  0  0  0  0  0  0  0  0
   21.3739   -5.8997  -13.5643 C   0  0  0  0  0  0  0  0  0  0  0  0
   22.5825   -5.6674  -13.3617 O   0  0  0  0  0  0  0  0  0  0  0  0
   18.9581   -8.0138  -11.5536 O   0  0  0  0  0  0  0  0  0  0  0  0
   20.4478   -5.1308  -12.8734 O   0  0  0  0  0  0  0  0  0  0  0  0
  2  1  1  1
  2  3  1  0
  4  2  1  0
  4  5  1  1
  6  4  1  0
  6  8  1  0
  7  6  2  0
  8 12  1  0
  9  8  1  0
 10 11  1  0
 10  9  1  0
 11 12  1  0
 12 13  1  6
 13 15  1  0
 14 13  2  0
 15 16  1  0
 16 20  1  0
 17 18  1  0
 16 17  1  1
 18 22  1  0
 19 18  2  0
 20 21  2  0
 20 23  1  0
M  END
$$$$
