VPD.pdb
     RDKit          3D

 23 23  0  0  1  0  0  0  0  0999 V2000
   18.6988  -10.2338  -17.7977 C   0  0  0  0  0  0  0  0  0  0  0  0
   19.5709  -11.4340  -18.1584 C   0  0  2  0  0  0  0  0  0  0  0  0
   18.9009  -12.2758  -19.1922 C   0  0  0  0  0  0  0  0  0  0  0  0
   19.7998  -12.1733  -16.8372 C   0  0  2  0  0  0  0  0  0  0  0  0
   18.4304  -12.4954  -16.3534 N   0  0  0  0  0  0  0  0  0  0  0  0
   20.3954  -11.2274  -15.8539 C   0  0  0  0  0  0  0  0  0  0  0  0
   19.5514  -10.4894  -15.2236 O   0  0  0  0  0  0  0  0  0  0  0  0
   21.7814  -11.1092  -15.5894 N   0  0  0  0  0  0  0  0  0  0  0  0
   22.8682  -11.8463  -16.1916 C   0  0  0  0  0  0  0  0  0  0  0  0
   23.9258  -11.8897  -15.0614 C   0  0  0  0  0  0  0  0  0  0  0  0
   23.8099  -10.4635  -14.5682 C   0  0  0  0  0  0  0  0  0  0  0  0
   22.3470  -10.2052  -14.6032 C   0  0  1  0  0  0  0  0  0  0  0  0
   21.9916   -8.8234  -14.9820 C   0  0  0  0  0  0  0  0  0  0  0  0
   21.5648   -8.5462  -16.1338 O   0  0  0  0  0  0  0  0  0  0  0  0
   22.1072   -7.7218  -14.0772 N   0  0  0  0  0  0  0  0  0  0  0  0
   21.7961   -6.3713  -14.4161 C   0  0  1  0  0  0  0  0  0  0  0  0
   20.3268   -6.2787  -14.7615 C   0  0  0  0  0  0  0  0  0  0  0  0
   20.0311   -4.8668  -15.1126 C   0  0  0  0  0  0  0  0  0  0  0  0
   20.8904   -4.1025  -15.6315 O   0  0  0  0  0  0  0  0  0  0  0  0
   22.1184   -5.4037  -13.3415 C   0  0  0  0  0  0  0  0  0  0  0  0
   22.2799   -5.7113  -12.1436 O   0  0  0  0  0  0  0  0  0  0  0  0
   18.7780   -4.2965  -14.8885 O   0  0  0  0  0  0  0  0  0  0  0  0
   22.2508   -4.0654  -13.6843 O   0  0  0  0  0  0  0  0  0  0  0  0
  2  1  1  1
  2  3  1  0
  4  2  1  0
  4  5  1  1
  6  4  1  0
  6  8  1  0
  7  6  2  0
  8 12  1  0
  9  8  1  0
 10 11  1  0
 10  9  1  0
 11 12  1  0
 12 13  1  6
 13 15  1  0
 14 13  2  0
 15 16  1  0
 16 20  1  0
 17 18  1  0
 16 17  1  1
 18 22  1  0
 19 18  2  0
 20 21  2  0
 20 23  1  0
M  END
$$$$
