VPD.pdb
     RDKit          3D

 23 23  0  0  1  0  0  0  0  0999 V2000
   18.2048   -9.5174  -17.6929 C   0  0  0  0  0  0  0  0  0  0  0  0
   18.9227  -10.7845  -18.1515 C   0  0  2  0  0  0  0  0  0  0  0  0
   18.1009  -11.5155  -19.1598 C   0  0  0  0  0  0  0  0  0  0  0  0
   19.1641  -11.5921  -16.8733 C   0  0  2  0  0  0  0  0  0  0  0  0
   17.7994  -11.9390  -16.3935 N   0  0  0  0  0  0  0  0  0  0  0  0
   19.7701  -10.6992  -15.8476 C   0  0  0  0  0  0  0  0  0  0  0  0
   18.9337   -9.9861  -15.1796 O   0  0  0  0  0  0  0  0  0  0  0  0
   21.1578  -10.6044  -15.5826 N   0  0  0  0  0  0  0  0  0  0  0  0
   22.2277  -11.3931  -16.1484 C   0  0  0  0  0  0  0  0  0  0  0  0
   23.2804  -11.4146  -15.0131 C   0  0  0  0  0  0  0  0  0  0  0  0
   23.1985   -9.9664  -14.5812 C   0  0  0  0  0  0  0  0  0  0  0  0
   21.7427   -9.6736  -14.6333 C   0  0  1  0  0  0  0  0  0  0  0  0
   21.4231   -8.3007  -15.0718 C   0  0  0  0  0  0  0  0  0  0  0  0
   20.7475   -8.0829  -16.1118 O   0  0  0  0  0  0  0  0  0  0  0  0
   21.8544   -7.1416  -14.3533 N   0  0  0  0  0  0  0  0  0  0  0  0
   21.5562   -5.8017  -14.7422 C   0  0  1  0  0  0  0  0  0  0  0  0
   20.0566   -5.6082  -14.7239 C   0  0  0  0  0  0  0  0  0  0  0  0
   19.7729   -4.2177  -15.1600 C   0  0  0  0  0  0  0  0  0  0  0  0
   20.5685   -3.5580  -15.8836 O   0  0  0  0  0  0  0  0  0  0  0  0
   22.2020   -4.7806  -13.8848 C   0  0  0  0  0  0  0  0  0  0  0  0
   22.1447   -4.7703  -12.6389 O   0  0  0  0  0  0  0  0  0  0  0  0
   18.6028   -3.5525  -14.7939 O   0  0  0  0  0  0  0  0  0  0  0  0
   22.9197   -3.7663  -14.5029 O   0  0  0  0  0  0  0  0  0  0  0  0
  2  1  1  1
  2  3  1  0
  4  2  1  0
  4  5  1  1
  6  4  1  0
  6  8  1  0
  7  6  2  0
  8 12  1  0
  9  8  1  0
 10 11  1  0
 10  9  1  0
 11 12  1  0
 12 13  1  6
 13 15  1  0
 14 13  2  0
 15 16  1  0
 16 20  1  0
 17 18  1  0
 16 17  1  1
 18 22  1  0
 19 18  2  0
 20 21  2  0
 20 23  1  0
M  END
$$$$
