VPD.pdb
     RDKit          3D

 23 23  0  0  1  0  0  0  0  0999 V2000
   28.5721  -18.5897  -16.2607 C   0  0  0  0  0  0  0  0  0  0  0  0
   27.2632  -18.9851  -15.5813 C   0  0  2  0  0  0  0  0  0  0  0  0
   26.7393  -17.8565  -14.7579 C   0  0  0  0  0  0  0  0  0  0  0  0
   27.6024  -20.2271  -14.7524 C   0  0  2  0  0  0  0  0  0  0  0  0
   28.0403  -21.2324  -15.7576 N   0  0  0  0  0  0  0  0  0  0  0  0
   26.3524  -20.7486  -14.1341 C   0  0  0  0  0  0  0  0  0  0  0  0
   25.5189  -21.2851  -14.9537 O   0  0  0  0  0  0  0  0  0  0  0  0
   26.0529  -20.6878  -12.7516 N   0  0  0  0  0  0  0  0  0  0  0  0
   26.8858  -20.1891  -11.6818 C   0  0  0  0  0  0  0  0  0  0  0  0
   26.4388  -21.0410  -10.4685 C   0  0  0  0  0  0  0  0  0  0  0  0
   24.9425  -21.0145  -10.6938 C   0  0  0  0  0  0  0  0  0  0  0  0
   24.8134  -21.1680  -12.1661 C   0  0  1  0  0  0  0  0  0  0  0  0
   23.6957  -20.4025  -12.7525 C   0  0  0  0  0  0  0  0  0  0  0  0
   23.7679  -19.1566  -12.9198 O   0  0  0  0  0  0  0  0  0  0  0  0
   22.4719  -21.0178  -13.1642 N   0  0  0  0  0  0  0  0  0  0  0  0
   21.3160  -20.2965  -13.5877 C   0  0  1  0  0  0  0  0  0  0  0  0
   20.9333  -20.7559  -14.9766 C   0  0  0  0  0  0  0  0  0  0  0  0
   19.7275  -19.9949  -15.3903 C   0  0  0  0  0  0  0  0  0  0  0  0
   18.5584  -20.4488  -15.2520 O   0  0  0  0  0  0  0  0  0  0  0  0
   20.1588  -20.4477  -12.6752 C   0  0  0  0  0  0  0  0  0  0  0  0
   19.2123  -19.6388  -12.5998 O   0  0  0  0  0  0  0  0  0  0  0  0
   19.8146  -18.7249  -15.9604 O   0  0  0  0  0  0  0  0  0  0  0  0
   20.1193  -21.5610  -11.8475 O   0  0  0  0  0  0  0  0  0  0  0  0
  2  1  1  1
  2  3  1  0
  4  2  1  0
  4  5  1  6
  6  4  1  0
  6  8  1  0
  7  6  2  0
  8 12  1  0
  9  8  1  0
 10 11  1  0
 10  9  1  0
 11 12  1  0
 12 13  1  6
 13 15  1  0
 14 13  2  0
 15 16  1  0
 16 20  1  0
 17 18  1  0
 16 17  1  6
 18 22  1  0
 19 18  2  0
 20 21  2  0
 20 23  1  0
M  END
$$$$
