VPD.pdb
     RDKit          3D

 23 23  0  0  1  0  0  0  0  0999 V2000
   17.7478   -9.6675  -17.5524 C   0  0  0  0  0  0  0  0  0  0  0  0
   18.6475  -10.8581  -17.8749 C   0  0  2  0  0  0  0  0  0  0  0  0
   17.9903  -11.7567  -18.8682 C   0  0  0  0  0  0  0  0  0  0  0  0
   18.9077  -11.5389  -16.5283 C   0  0  2  0  0  0  0  0  0  0  0  0
   17.5500  -11.8298  -15.9944 N   0  0  0  0  0  0  0  0  0  0  0  0
   19.5347  -10.5539  -15.6047 C   0  0  0  0  0  0  0  0  0  0  0  0
   18.7098   -9.8191  -14.9458 O   0  0  0  0  0  0  0  0  0  0  0  0
   20.9301  -10.3968  -15.4230 N   0  0  0  0  0  0  0  0  0  0  0  0
   21.9975  -11.1603  -16.0268 C   0  0  0  0  0  0  0  0  0  0  0  0
   23.1127  -11.1057  -14.9539 C   0  0  0  0  0  0  0  0  0  0  0  0
   22.9965   -9.6491  -14.5597 C   0  0  0  0  0  0  0  0  0  0  0  0
   21.5293   -9.4151  -14.5360 C   0  0  1  0  0  0  0  0  0  0  0  0
   21.1298   -8.0699  -14.9944 C   0  0  0  0  0  0  0  0  0  0  0  0
   20.7836   -7.8570  -16.1861 O   0  0  0  0  0  0  0  0  0  0  0  0
   21.1099   -6.9337  -14.1259 N   0  0  0  0  0  0  0  0  0  0  0  0
   20.8747   -5.5960  -14.5629 C   0  0  1  0  0  0  0  0  0  0  0  0
   19.6926   -5.0337  -13.8059 C   0  0  0  0  0  0  0  0  0  0  0  0
   19.4089   -3.6806  -14.3469 C   0  0  0  0  0  0  0  0  0  0  0  0
   18.8747   -3.4996  -15.4755 O   0  0  0  0  0  0  0  0  0  0  0  0
   22.0460   -4.7050  -14.3930 C   0  0  0  0  0  0  0  0  0  0  0  0
   22.8390   -4.7614  -13.4319 O   0  0  0  0  0  0  0  0  0  0  0  0
   19.7177   -2.5209  -13.6362 O   0  0  0  0  0  0  0  0  0  0  0  0
   22.2819   -3.7421  -15.3642 O   0  0  0  0  0  0  0  0  0  0  0  0
  2  1  1  1
  2  3  1  0
  4  2  1  0
  4  5  1  1
  6  4  1  0
  6  8  1  0
  7  6  2  0
  8 12  1  0
  9  8  1  0
 10 11  1  0
 10  9  1  0
 11 12  1  0
 12 13  1  6
 13 15  1  0
 14 13  2  0
 15 16  1  0
 16 20  1  0
 17 18  1  0
 16 17  1  1
 18 22  1  0
 19 18  2  0
 20 21  2  0
 20 23  1  0
M  END
$$$$
