GKY.pdb
     RDKit          3D

 26 26  0  0  1  0  0  0  0  0999 V2000
    4.7346  -19.4296   22.5396 N   0  0  0  0  0  0  0  0  0  0  0  0
    4.7234  -17.9904   22.6525 C   0  0  0  0  0  0  0  0  0  0  0  0
    6.0354  -17.4007   22.2615 C   0  0  0  0  0  0  0  0  0  0  0  0
    6.9925  -18.1737   22.0840 O   0  0  0  0  0  0  0  0  0  0  0  0
    6.1917  -15.9994   22.0957 N   0  0  0  0  0  0  0  0  0  0  0  0
    7.4592  -15.3857   21.7794 C   0  0  1  0  0  0  0  0  0  0  0  0
    7.2158  -14.0708   21.0347 C   0  0  0  0  0  0  0  0  0  0  0  0
    6.8938  -14.3029   19.5783 C   0  0  0  0  0  0  0  0  0  0  0  0
    7.8520  -13.4782   18.7683 C   0  0  0  0  0  0  0  0  0  0  0  0
    7.6788  -13.6700   17.2783 C   0  0  0  0  0  0  0  0  0  0  0  0
    8.5389  -12.8464   16.4803 N   0  0  0  0  0  0  0  0  0  0  0  0
    8.1923  -15.0136   23.0131 C   0  0  0  0  0  0  0  0  0  0  0  0
    7.6009  -14.3152   23.8667 O   0  0  0  0  0  0  0  0  0  0  0  0
   11.0404  -14.7982   30.8905 O   0  0  0  0  0  0  0  0  0  0  0  0
   10.5740  -15.0676   29.5875 C   0  0  0  0  0  0  0  0  0  0  0  0
   10.1580  -14.0563   28.7556 C   0  0  0  0  0  0  0  0  0  0  0  0
    9.7053  -14.3327   27.4865 C   0  0  0  0  0  0  0  0  0  0  0  0
    9.6468  -15.6386   26.9867 C   0  0  0  0  0  0  0  0  0  0  0  0
    9.1392  -15.9095   25.6236 C   0  0  0  0  0  0  0  0  0  0  0  0
   10.0733  -15.3810   24.5924 C   0  0  2  0  0  0  0  0  0  0  0  0
    9.5178  -15.4114   23.2613 N   0  0  0  0  0  0  0  0  0  0  0  0
   11.4217  -15.9631   24.5846 C   0  0  0  0  0  0  0  0  0  0  0  0
   12.4633  -15.2607   25.1683 O   0  0  0  0  0  0  0  0  0  0  0  0
   10.0722  -16.6405   27.8459 C   0  0  0  0  0  0  0  0  0  0  0  0
   10.5246  -16.3624   29.1149 C   0  0  0  0  0  0  0  0  0  0  0  0
   11.6366  -17.0633   24.0676 O   0  0  0  0  0  0  0  0  0  0  0  0
  1  2  1  0
  3  4  2  0
  3  2  1  0
  5  3  1  0
  6  7  1  6
  6  5  1  0
  8  7  1  0
  8  9  1  0
  9 10  1  0
 11 10  1  0
 12  6  1  0
 12 21  1  0
 13 12  2  0
 15 14  1  0
 15 16  2  0
 17 16  1  0
 18 17  2  0
 19 18  1  0
 20 21  1  0
 20 19  1  1
 22 20  1  0
 23 22  1  0
 24 25  2  0
 24 18  1  0
 25 15  1  0
 26 22  2  0
M  END
$$$$
