GKY.pdb
     RDKit          3D

 26 26  0  0  1  0  0  0  0  0999 V2000
    7.7368  -16.5871   17.8485 N   0  0  0  0  0  0  0  0  0  0  0  0
    8.4479  -17.3427   18.8523 C   0  0  0  0  0  0  0  0  0  0  0  0
    7.6645  -17.4459   20.1164 C   0  0  0  0  0  0  0  0  0  0  0  0
    6.9589  -16.4772   20.4459 O   0  0  0  0  0  0  0  0  0  0  0  0
    7.7197  -18.6133   20.9224 N   0  0  0  0  0  0  0  0  0  0  0  0
    7.0361  -18.7224   22.1889 C   0  0  1  0  0  0  0  0  0  0  0  0
    6.9448  -20.1961   22.5923 C   0  0  0  0  0  0  0  0  0  0  0  0
    6.1600  -20.3800   23.8686 C   0  0  0  0  0  0  0  0  0  0  0  0
    6.1085  -21.8526   24.1573 C   0  0  0  0  0  0  0  0  0  0  0  0
    5.3378  -22.1782   25.4169 C   0  0  0  0  0  0  0  0  0  0  0  0
    5.2061  -23.5823   25.6736 N   0  0  0  0  0  0  0  0  0  0  0  0
    7.8085  -18.0622   23.2685 C   0  0  0  0  0  0  0  0  0  0  0  0
    9.0350  -18.2976   23.3496 O   0  0  0  0  0  0  0  0  0  0  0  0
    8.3714  -12.4352   20.2103 O   0  0  0  0  0  0  0  0  0  0  0  0
    8.1964  -13.0715   21.4562 C   0  0  0  0  0  0  0  0  0  0  0  0
    9.2178  -13.7756   22.0471 C   0  0  0  0  0  0  0  0  0  0  0  0
    9.0340  -14.3917   23.2631 C   0  0  0  0  0  0  0  0  0  0  0  0
    7.8155  -14.3330   23.9490 C   0  0  0  0  0  0  0  0  0  0  0  0
    7.6396  -15.0196   25.2477 C   0  0  0  0  0  0  0  0  0  0  0  0
    8.0241  -16.4540   25.1485 C   0  0  2  0  0  0  0  0  0  0  0  0
    7.2219  -17.1874   24.1999 N   0  0  0  0  0  0  0  0  0  0  0  0
    8.0972  -17.1913   26.4166 C   0  0  0  0  0  0  0  0  0  0  0  0
    9.0551  -16.8332   27.3511 O   0  0  0  0  0  0  0  0  0  0  0  0
    6.8014  -13.6167   23.3313 C   0  0  0  0  0  0  0  0  0  0  0  0
    6.9868  -13.0010   22.1151 C   0  0  0  0  0  0  0  0  0  0  0  0
    7.3206  -18.1200   26.6581 O   0  0  0  0  0  0  0  0  0  0  0  0
  1  2  1  0
  3  4  2  0
  3  2  1  0
  5  3  1  0
  6  7  1  1
  6  5  1  0
  8  7  1  0
  8  9  1  0
  9 10  1  0
 11 10  1  0
 12  6  1  0
 12 21  1  0
 13 12  2  0
 15 14  1  0
 15 16  2  0
 17 16  1  0
 18 17  2  0
 19 18  1  0
 20 21  1  0
 20 19  1  1
 22 20  1  0
 23 22  1  0
 24 25  2  0
 24 18  1  0
 25 15  1  0
 26 22  2  0
M  END
$$$$
