GKY.pdb
     RDKit          3D

 26 26  0  0  1  0  0  0  0  0999 V2000
    3.3273  -19.9029   22.2620 N   0  0  0  0  0  0  0  0  0  0  0  0
    3.6260  -18.5903   22.7835 C   0  0  0  0  0  0  0  0  0  0  0  0
    5.0015  -18.1533   22.4105 C   0  0  0  0  0  0  0  0  0  0  0  0
    5.9141  -18.9960   22.4578 O   0  0  0  0  0  0  0  0  0  0  0  0
    5.2659  -16.8164   22.0128 N   0  0  0  0  0  0  0  0  0  0  0  0
    6.5969  -16.3309   21.7373 C   0  0  1  0  0  0  0  0  0  0  0  0
    6.5118  -15.0984   20.8337 C   0  0  0  0  0  0  0  0  0  0  0  0
    7.8558  -14.7397   20.2473 C   0  0  0  0  0  0  0  0  0  0  0  0
    7.6320  -13.6439   19.2454 C   0  0  0  0  0  0  0  0  0  0  0  0
    8.8962  -13.2457   18.5175 C   0  0  0  0  0  0  0  0  0  0  0  0
    8.7124  -12.1919   17.5633 N   0  0  0  0  0  0  0  0  0  0  0  0
    7.2616  -15.8679   22.9790 C   0  0  0  0  0  0  0  0  0  0  0  0
    6.6021  -15.1668   23.7789 O   0  0  0  0  0  0  0  0  0  0  0  0
   10.8585  -14.5219   30.5943 O   0  0  0  0  0  0  0  0  0  0  0  0
   10.2312  -14.8888   29.3861 C   0  0  0  0  0  0  0  0  0  0  0  0
    9.6711  -13.9459   28.5583 C   0  0  0  0  0  0  0  0  0  0  0  0
    9.0621  -14.3172   27.3821 C   0  0  0  0  0  0  0  0  0  0  0  0
    8.9839  -15.6542   26.9760 C   0  0  0  0  0  0  0  0  0  0  0  0
    8.3077  -16.0278   25.7142 C   0  0  0  0  0  0  0  0  0  0  0  0
    9.1891  -15.7737   24.5420 C   0  0  2  0  0  0  0  0  0  0  0  0
    8.5956  -16.1828   23.2924 N   0  0  0  0  0  0  0  0  0  0  0  0
   10.5584  -16.2960   24.6395 C   0  0  0  0  0  0  0  0  0  0  0  0
   11.5714  -15.4567   25.0735 O   0  0  0  0  0  0  0  0  0  0  0  0
    9.5566  -16.5857   27.8290 C   0  0  0  0  0  0  0  0  0  0  0  0
   10.1652  -16.2127   29.0049 C   0  0  0  0  0  0  0  0  0  0  0  0
   10.8156  -17.4660   24.3413 O   0  0  0  0  0  0  0  0  0  0  0  0
  1  2  1  0
  3  4  2  0
  3  2  1  0
  5  3  1  0
  6  7  1  6
  6  5  1  0
  8  7  1  0
  8  9  1  0
  9 10  1  0
 11 10  1  0
 12  6  1  0
 12 21  1  0
 13 12  2  0
 15 14  1  0
 15 16  2  0
 17 16  1  0
 18 17  2  0
 19 18  1  0
 20 21  1  0
 20 19  1  1
 22 20  1  0
 23 22  1  0
 24 25  2  0
 24 18  1  0
 25 15  1  0
 26 22  2  0
M  END
$$$$
