GKY.pdb
     RDKit          3D

 26 26  0  0  1  0  0  0  0  0999 V2000
    6.1481  -18.8758   19.9008 N   0  0  0  0  0  0  0  0  0  0  0  0
    7.3113  -18.0759   19.5987 C   0  0  0  0  0  0  0  0  0  0  0  0
    8.4497  -18.4020   20.5043 C   0  0  0  0  0  0  0  0  0  0  0  0
    8.2072  -19.0545   21.5341 O   0  0  0  0  0  0  0  0  0  0  0  0
    9.7721  -17.9821   20.2036 N   0  0  0  0  0  0  0  0  0  0  0  0
   10.9021  -18.2936   21.0457 C   0  0  1  0  0  0  0  0  0  0  0  0
   12.1929  -18.1626   20.2336 C   0  0  0  0  0  0  0  0  0  0  0  0
   12.4367  -19.3760   19.3693 C   0  0  0  0  0  0  0  0  0  0  0  0
   13.6694  -19.1085   18.5549 C   0  0  0  0  0  0  0  0  0  0  0  0
   13.9696  -20.2102   17.5634 C   0  0  0  0  0  0  0  0  0  0  0  0
   15.0194  -19.8938   16.6400 N   0  0  0  0  0  0  0  0  0  0  0  0
   11.0274  -17.3137   22.1512 C   0  0  0  0  0  0  0  0  0  0  0  0
   10.6234  -16.1452   21.9567 O   0  0  0  0  0  0  0  0  0  0  0  0
   10.1181  -13.6743   29.9824 O   0  0  0  0  0  0  0  0  0  0  0  0
   10.1347  -14.4555   28.8088 C   0  0  0  0  0  0  0  0  0  0  0  0
    9.6728  -13.9577   27.6143 C   0  0  0  0  0  0  0  0  0  0  0  0
    9.6947  -14.7303   26.4764 C   0  0  0  0  0  0  0  0  0  0  0  0
   10.1813  -16.0425   26.4787 C   0  0  0  0  0  0  0  0  0  0  0  0
   10.1773  -16.8576   25.2439 C   0  0  0  0  0  0  0  0  0  0  0  0
   11.4762  -16.7439   24.5262 C   0  0  2  0  0  0  0  0  0  0  0  0
   11.5787  -17.6422   23.4021 N   0  0  0  0  0  0  0  0  0  0  0  0
   12.6831  -16.8437   25.3573 C   0  0  0  0  0  0  0  0  0  0  0  0
   13.0680  -18.0831   25.8419 O   0  0  0  0  0  0  0  0  0  0  0  0
   10.6412  -16.5207   27.6964 C   0  0  0  0  0  0  0  0  0  0  0  0
   10.6187  -15.7468   28.8335 C   0  0  0  0  0  0  0  0  0  0  0  0
   13.3540  -15.8433   25.6274 O   0  0  0  0  0  0  0  0  0  0  0  0
  1  2  1  0
  3  4  2  0
  3  2  1  0
  5  3  1  0
  6  7  1  6
  6  5  1  0
  8  7  1  0
  8  9  1  0
  9 10  1  0
 11 10  1  0
 12  6  1  0
 12 21  1  0
 13 12  2  0
 15 14  1  0
 15 16  2  0
 17 16  1  0
 18 17  2  0
 19 18  1  0
 20 21  1  0
 20 19  1  1
 22 20  1  0
 23 22  1  0
 24 25  2  0
 24 18  1  0
 25 15  1  0
 26 22  2  0
M  END
$$$$
