GKY.pdb
     RDKit          3D

 26 26  0  0  1  0  0  0  0  0999 V2000
    5.2460  -19.9697   23.1809 N   0  0  0  0  0  0  0  0  0  0  0  0
    5.0508  -18.5481   23.3391 C   0  0  0  0  0  0  0  0  0  0  0  0
    6.1672  -17.7713   22.7287 C   0  0  0  0  0  0  0  0  0  0  0  0
    7.2094  -18.3814   22.4343 O   0  0  0  0  0  0  0  0  0  0  0  0
    6.0480  -16.3771   22.4891 N   0  0  0  0  0  0  0  0  0  0  0  0
    7.1396  -15.5722   21.9955 C   0  0  1  0  0  0  0  0  0  0  0  0
    6.6068  -14.2054   21.5587 C   0  0  0  0  0  0  0  0  0  0  0  0
    7.6953  -13.3423   20.9681 C   0  0  0  0  0  0  0  0  0  0  0  0
    7.7744  -13.6577   19.5022 C   0  0  0  0  0  0  0  0  0  0  0  0
    8.8743  -12.8974   18.7958 C   0  0  0  0  0  0  0  0  0  0  0  0
    8.9528  -13.1585   17.3885 N   0  0  0  0  0  0  0  0  0  0  0  0
    8.1212  -15.2908   23.0704 C   0  0  0  0  0  0  0  0  0  0  0  0
    7.7158  -14.7248   24.1105 O   0  0  0  0  0  0  0  0  0  0  0  0
    9.8283  -14.1221   30.2950 O   0  0  0  0  0  0  0  0  0  0  0  0
    9.7923  -14.7528   29.0345 C   0  0  0  0  0  0  0  0  0  0  0  0
   10.5145  -15.8954   28.7880 C   0  0  0  0  0  0  0  0  0  0  0  0
   10.4706  -16.5012   27.5538 C   0  0  0  0  0  0  0  0  0  0  0  0
    9.6994  -15.9912   26.5031 C   0  0  0  0  0  0  0  0  0  0  0  0
    9.6837  -16.6530   25.1799 C   0  0  0  0  0  0  0  0  0  0  0  0
   10.3057  -15.7853   24.1429 C   0  0  2  0  0  0  0  0  0  0  0  0
    9.4813  -15.6320   22.9690 N   0  0  0  0  0  0  0  0  0  0  0  0
   11.6770  -16.1334   23.7485 C   0  0  0  0  0  0  0  0  0  0  0  0
   12.7385  -15.4666   24.3380 O   0  0  0  0  0  0  0  0  0  0  0  0
    8.9803  -14.8377   26.7778 C   0  0  0  0  0  0  0  0  0  0  0  0
    9.0254  -14.2331   28.0128 C   0  0  0  0  0  0  0  0  0  0  0  0
   11.8935  -17.0071   22.9037 O   0  0  0  0  0  0  0  0  0  0  0  0
  1  2  1  0
  3  4  2  0
  3  2  1  0
  5  3  1  0
  6  7  1  1
  6  5  1  0
  8  7  1  0
  8  9  1  0
  9 10  1  0
 11 10  1  0
 12  6  1  0
 12 21  1  0
 13 12  2  0
 15 14  1  0
 15 16  2  0
 17 16  1  0
 18 17  2  0
 19 18  1  0
 20 21  1  0
 20 19  1  1
 22 20  1  0
 23 22  1  0
 24 25  2  0
 24 18  1  0
 25 15  1  0
 26 22  2  0
M  END
$$$$
