GKY.pdb
     RDKit          3D

 26 26  0  0  1  0  0  0  0  0999 V2000
   11.8766  -19.2574   23.8044 N   0  0  0  0  0  0  0  0  0  0  0  0
   10.5476  -18.9060   24.2454 C   0  0  0  0  0  0  0  0  0  0  0  0
   10.2990  -17.4415   24.1203 C   0  0  0  0  0  0  0  0  0  0  0  0
   11.1308  -16.6641   24.6190 O   0  0  0  0  0  0  0  0  0  0  0  0
    9.1485  -16.9454   23.4527 N   0  0  0  0  0  0  0  0  0  0  0  0
    8.8407  -15.5380   23.3657 C   0  0  1  0  0  0  0  0  0  0  0  0
    7.8346  -15.3063   22.2357 C   0  0  0  0  0  0  0  0  0  0  0  0
    8.4374  -14.5114   21.1029 C   0  0  0  0  0  0  0  0  0  0  0  0
    8.4557  -15.3975   19.8908 C   0  0  0  0  0  0  0  0  0  0  0  0
    9.0184  -14.7090   18.6677 C   0  0  0  0  0  0  0  0  0  0  0  0
    9.0308  -15.5280   17.4913 N   0  0  0  0  0  0  0  0  0  0  0  0
    8.1689  -15.0634   24.5992 C   0  0  0  0  0  0  0  0  0  0  0  0
    7.3842  -15.8430   25.1846 O   0  0  0  0  0  0  0  0  0  0  0  0
   11.7693  -17.0840   29.4416 O   0  0  0  0  0  0  0  0  0  0  0  0
   10.9771  -16.0319   28.9380 C   0  0  0  0  0  0  0  0  0  0  0  0
    9.7578  -15.7283   29.4937 C   0  0  0  0  0  0  0  0  0  0  0  0
    8.9947  -14.6992   28.9930 C   0  0  0  0  0  0  0  0  0  0  0  0
    9.4162  -13.9216   27.9084 C   0  0  0  0  0  0  0  0  0  0  0  0
    8.5678  -12.8314   27.3786 C   0  0  0  0  0  0  0  0  0  0  0  0
    7.6646  -13.3322   26.3067 C   0  0  2  0  0  0  0  0  0  0  0  0
    8.3765  -13.7800   25.1346 N   0  0  0  0  0  0  0  0  0  0  0  0
    6.5701  -12.4349   25.9141 C   0  0  0  0  0  0  0  0  0  0  0  0
    5.6250  -12.0699   26.8590 O   0  0  0  0  0  0  0  0  0  0  0  0
   10.6499  -14.2485   27.3660 C   0  0  0  0  0  0  0  0  0  0  0  0
   11.4118  -15.2780   27.8680 C   0  0  0  0  0  0  0  0  0  0  0  0
    6.4829  -12.0049   24.7603 O   0  0  0  0  0  0  0  0  0  0  0  0
  1  2  1  0
  3  4  2  0
  3  2  1  0
  5  3  1  0
  6  7  1  6
  6  5  1  0
  8  7  1  0
  8  9  1  0
  9 10  1  0
 11 10  1  0
 12  6  1  0
 12 21  1  0
 13 12  2  0
 15 14  1  0
 15 16  2  0
 17 16  1  0
 18 17  2  0
 19 18  1  0
 20 21  1  0
 20 19  1  1
 22 20  1  0
 23 22  1  0
 24 25  2  0
 24 18  1  0
 25 15  1  0
 26 22  2  0
M  END
$$$$
