GKY.pdb
     RDKit          3D

 26 26  0  0  1  0  0  0  0  0999 V2000
    4.7956  -18.9063   21.1385 N   0  0  0  0  0  0  0  0  0  0  0  0
    4.9240  -17.7068   21.9315 C   0  0  0  0  0  0  0  0  0  0  0  0
    6.2732  -17.0917   21.7786 C   0  0  0  0  0  0  0  0  0  0  0  0
    7.2535  -17.8508   21.6892 O   0  0  0  0  0  0  0  0  0  0  0  0
    6.4383  -15.6823   21.7359 N   0  0  0  0  0  0  0  0  0  0  0  0
    7.7338  -15.0460   21.7426 C   0  0  1  0  0  0  0  0  0  0  0  0
    7.5897  -13.5942   21.2795 C   0  0  0  0  0  0  0  0  0  0  0  0
    7.1264  -13.5068   19.8455 C   0  0  0  0  0  0  0  0  0  0  0  0
    8.3446  -13.5980   18.9724 C   0  0  0  0  0  0  0  0  0  0  0  0
    8.0204  -13.5003   17.4987 C   0  0  0  0  0  0  0  0  0  0  0  0
    9.1672  -13.5817   16.6424 N   0  0  0  0  0  0  0  0  0  0  0  0
    8.2825  -14.9715   23.1179 C   0  0  0  0  0  0  0  0  0  0  0  0
    7.7619  -14.1654   23.9214 O   0  0  0  0  0  0  0  0  0  0  0  0
    5.9720  -11.1067   27.0441 O   0  0  0  0  0  0  0  0  0  0  0  0
    6.6402  -12.3159   26.7627 C   0  0  0  0  0  0  0  0  0  0  0  0
    8.0029  -12.4264   26.9004 C   0  0  0  0  0  0  0  0  0  0  0  0
    8.6427  -13.6120   26.6227 C   0  0  0  0  0  0  0  0  0  0  0  0
    7.9478  -14.7480   26.1924 C   0  0  0  0  0  0  0  0  0  0  0  0
    8.6629  -16.0059   25.8839 C   0  0  0  0  0  0  0  0  0  0  0  0
    9.7816  -15.7633   24.9325 C   0  0  2  0  0  0  0  0  0  0  0  0
    9.3580  -15.7653   23.5534 N   0  0  0  0  0  0  0  0  0  0  0  0
   10.9628  -16.6211   25.0937 C   0  0  0  0  0  0  0  0  0  0  0  0
   11.7243  -16.5113   26.2457 O   0  0  0  0  0  0  0  0  0  0  0  0
    6.5741  -14.6100   26.0616 C   0  0  0  0  0  0  0  0  0  0  0  0
    5.9357  -13.4236   26.3397 C   0  0  0  0  0  0  0  0  0  0  0  0
   11.2831  -17.4332   24.2209 O   0  0  0  0  0  0  0  0  0  0  0  0
  1  2  1  0
  3  4  2  0
  3  2  1  0
  5  3  1  0
  6  7  1  1
  6  5  1  0
  8  7  1  0
  8  9  1  0
  9 10  1  0
 11 10  1  0
 12  6  1  0
 12 21  1  0
 13 12  2  0
 15 14  1  0
 15 16  2  0
 17 16  1  0
 18 17  2  0
 19 18  1  0
 20 21  1  0
 20 19  1  1
 22 20  1  0
 23 22  1  0
 24 25  2  0
 24 18  1  0
 25 15  1  0
 26 22  2  0
M  END
$$$$
