GKY.pdb
     RDKit          3D

 26 26  0  0  1  0  0  0  0  0999 V2000
    5.1780  -20.2360   22.6576 N   0  0  0  0  0  0  0  0  0  0  0  0
    4.8351  -18.8388   22.7780 C   0  0  0  0  0  0  0  0  0  0  0  0
    5.9706  -17.9602   22.3768 C   0  0  0  0  0  0  0  0  0  0  0  0
    7.1132  -18.4497   22.3721 O   0  0  0  0  0  0  0  0  0  0  0  0
    5.7581  -16.6052   22.0106 N   0  0  0  0  0  0  0  0  0  0  0  0
    6.8397  -15.6940   21.7224 C   0  0  1  0  0  0  0  0  0  0  0  0
    6.2744  -14.4125   21.1052 C   0  0  0  0  0  0  0  0  0  0  0  0
    7.3698  -13.4656   20.6784 C   0  0  0  0  0  0  0  0  0  0  0  0
    7.8230  -13.8884   19.3108 C   0  0  0  0  0  0  0  0  0  0  0  0
    8.9318  -13.0179   18.7637 C   0  0  0  0  0  0  0  0  0  0  0  0
    9.3746  -13.3926   17.4528 N   0  0  0  0  0  0  0  0  0  0  0  0
    7.5217  -15.2676   22.9679 C   0  0  0  0  0  0  0  0  0  0  0  0
    6.8606  -14.6291   23.8174 O   0  0  0  0  0  0  0  0  0  0  0  0
   11.0628  -14.6292   30.6763 O   0  0  0  0  0  0  0  0  0  0  0  0
   10.4485  -14.9070   29.4381 C   0  0  0  0  0  0  0  0  0  0  0  0
   10.2119  -16.1986   29.0332 C   0  0  0  0  0  0  0  0  0  0  0  0
    9.6116  -16.4560   27.8227 C   0  0  0  0  0  0  0  0  0  0  0  0
    9.2176  -15.4304   26.9559 C   0  0  0  0  0  0  0  0  0  0  0  0
    8.5894  -15.7358   25.6516 C   0  0  0  0  0  0  0  0  0  0  0  0
    9.4553  -15.2903   24.5259 C   0  0  2  0  0  0  0  0  0  0  0  0
    8.8736  -15.5498   23.2316 N   0  0  0  0  0  0  0  0  0  0  0  0
   10.8447  -15.7659   24.5537 C   0  0  0  0  0  0  0  0  0  0  0  0
   11.1524  -16.9848   23.9718 O   0  0  0  0  0  0  0  0  0  0  0  0
    9.4676  -14.1365   27.3879 C   0  0  0  0  0  0  0  0  0  0  0  0
   10.0681  -13.8807   28.5988 C   0  0  0  0  0  0  0  0  0  0  0  0
   11.7354  -15.0971   25.0858 O   0  0  0  0  0  0  0  0  0  0  0  0
  1  2  1  0
  3  4  2  0
  3  2  1  0
  5  3  1  0
  6  7  1  1
  6  5  1  0
  8  7  1  0
  8  9  1  0
  9 10  1  0
 11 10  1  0
 12  6  1  0
 12 21  1  0
 13 12  2  0
 15 14  1  0
 15 16  2  0
 17 16  1  0
 18 17  2  0
 19 18  1  0
 20 21  1  0
 20 19  1  1
 22 20  1  0
 23 22  1  0
 24 25  2  0
 24 18  1  0
 25 15  1  0
 26 22  2  0
M  END
$$$$
