GKY.pdb
     RDKit          3D

 26 26  0  0  1  0  0  0  0  0999 V2000
    4.8252  -19.9771   23.4187 N   0  0  0  0  0  0  0  0  0  0  0  0
    4.7533  -18.5359   23.3773 C   0  0  0  0  0  0  0  0  0  0  0  0
    5.9702  -17.9451   22.7510 C   0  0  0  0  0  0  0  0  0  0  0  0
    6.9709  -18.6712   22.6225 O   0  0  0  0  0  0  0  0  0  0  0  0
    5.9901  -16.5948   22.3131 N   0  0  0  0  0  0  0  0  0  0  0  0
    7.2026  -15.9180   21.9194 C   0  0  1  0  0  0  0  0  0  0  0  0
    6.8469  -14.6485   21.1418 C   0  0  0  0  0  0  0  0  0  0  0  0
    8.0759  -13.9640   20.5942 C   0  0  0  0  0  0  0  0  0  0  0  0
    7.7947  -13.6119   19.1620 C   0  0  0  0  0  0  0  0  0  0  0  0
    8.9672  -12.9437   18.4797 C   0  0  0  0  0  0  0  0  0  0  0  0
    8.6653  -12.4218   17.1792 N   0  0  0  0  0  0  0  0  0  0  0  0
    7.9634  -15.4571   23.1056 C   0  0  0  0  0  0  0  0  0  0  0  0
    7.5505  -14.4478   23.7196 O   0  0  0  0  0  0  0  0  0  0  0  0
    5.6377  -11.2842   26.7835 O   0  0  0  0  0  0  0  0  0  0  0  0
    6.4738  -12.4032   26.5923 C   0  0  0  0  0  0  0  0  0  0  0  0
    7.8424  -12.2833   26.6163 C   0  0  0  0  0  0  0  0  0  0  0  0
    8.6469  -13.3830   26.4285 C   0  0  0  0  0  0  0  0  0  0  0  0
    8.1193  -14.6602   26.2069 C   0  0  0  0  0  0  0  0  0  0  0  0
    9.0077  -15.8234   25.9905 C   0  0  0  0  0  0  0  0  0  0  0  0
    9.8133  -15.6552   24.7504 C   0  0  2  0  0  0  0  0  0  0  0  0
    9.1234  -16.1046   23.5658 N   0  0  0  0  0  0  0  0  0  0  0  0
   11.1702  -16.2165   24.7817 C   0  0  0  0  0  0  0  0  0  0  0  0
   11.5727  -17.0656   23.7638 O   0  0  0  0  0  0  0  0  0  0  0  0
    6.7359  -14.7541   26.1873 C   0  0  0  0  0  0  0  0  0  0  0  0
    5.9327  -13.6532   26.3753 C   0  0  0  0  0  0  0  0  0  0  0  0
   11.9509  -15.9427   25.6978 O   0  0  0  0  0  0  0  0  0  0  0  0
  1  2  1  0
  3  4  2  0
  3  2  1  0
  5  3  1  0
  6  7  1  6
  6  5  1  0
  8  7  1  0
  8  9  1  0
  9 10  1  0
 11 10  1  0
 12  6  1  0
 12 21  1  0
 13 12  2  0
 15 14  1  0
 15 16  2  0
 17 16  1  0
 18 17  2  0
 19 18  1  0
 20 21  1  0
 20 19  1  1
 22 20  1  0
 23 22  1  0
 24 25  2  0
 24 18  1  0
 25 15  1  0
 26 22  2  0
M  END
$$$$
