GKY.pdb
     RDKit          3D

 26 26  0  0  1  0  0  0  0  0999 V2000
   11.8779  -16.9381   18.2913 N   0  0  0  0  0  0  0  0  0  0  0  0
   10.9295  -17.4412   19.2566 C   0  0  0  0  0  0  0  0  0  0  0  0
   10.5809  -16.4066   20.2716 C   0  0  0  0  0  0  0  0  0  0  0  0
   11.4924  -15.9679   20.9940 O   0  0  0  0  0  0  0  0  0  0  0  0
    9.2497  -15.9338   20.4124 N   0  0  0  0  0  0  0  0  0  0  0  0
    8.8858  -14.8842   21.3339 C   0  0  1  0  0  0  0  0  0  0  0  0
    7.4520  -14.4309   21.0480 C   0  0  0  0  0  0  0  0  0  0  0  0
    7.4095  -13.3135   20.0339 C   0  0  0  0  0  0  0  0  0  0  0  0
    7.4776  -13.9396   18.6709 C   0  0  0  0  0  0  0  0  0  0  0  0
    7.5534  -12.9185   17.5580 C   0  0  0  0  0  0  0  0  0  0  0  0
    8.5434  -13.2120   16.5636 N   0  0  0  0  0  0  0  0  0  0  0  0
    8.8735  -15.3832   22.7300 C   0  0  0  0  0  0  0  0  0  0  0  0
    8.6806  -16.6048   22.9216 O   0  0  0  0  0  0  0  0  0  0  0  0
   10.9060  -16.4372   31.1923 O   0  0  0  0  0  0  0  0  0  0  0  0
   10.5759  -15.8425   29.9573 C   0  0  0  0  0  0  0  0  0  0  0  0
   10.0527  -14.5735   29.8941 C   0  0  0  0  0  0  0  0  0  0  0  0
    9.7350  -14.0047   28.6826 C   0  0  0  0  0  0  0  0  0  0  0  0
    9.9260  -14.6802   27.4719 C   0  0  0  0  0  0  0  0  0  0  0  0
    9.5594  -14.0515   26.1838 C   0  0  0  0  0  0  0  0  0  0  0  0
    9.1899  -15.0811   25.1745 C   0  0  2  0  0  0  0  0  0  0  0  0
    9.0686  -14.5440   23.8411 N   0  0  0  0  0  0  0  0  0  0  0  0
    8.0140  -15.9020   25.4914 C   0  0  0  0  0  0  0  0  0  0  0  0
    8.1941  -17.1288   26.1093 O   0  0  0  0  0  0  0  0  0  0  0  0
   10.4551  -15.9589   27.5634 C   0  0  0  0  0  0  0  0  0  0  0  0
   10.7723  -16.5263   28.7757 C   0  0  0  0  0  0  0  0  0  0  0  0
    6.8747  -15.5147   25.2157 O   0  0  0  0  0  0  0  0  0  0  0  0
  1  2  1  0
  3  4  2  0
  3  2  1  0
  5  3  1  0
  6  7  1  6
  6  5  1  0
  8  7  1  0
  8  9  1  0
  9 10  1  0
 11 10  1  0
 12  6  1  0
 12 21  1  0
 13 12  2  0
 15 14  1  0
 15 16  2  0
 17 16  1  0
 18 17  2  0
 19 18  1  0
 20 21  1  0
 20 19  1  1
 22 20  1  0
 23 22  1  0
 24 25  2  0
 24 18  1  0
 25 15  1  0
 26 22  2  0
M  END
$$$$
