GKY.pdb
     RDKit          3D

 26 26  0  0  1  0  0  0  0  0999 V2000
    8.4345  -11.8490   18.1380 N   0  0  0  0  0  0  0  0  0  0  0  0
    8.8680  -13.1982   18.4133 C   0  0  0  0  0  0  0  0  0  0  0  0
    8.0909  -13.8052   19.5313 C   0  0  0  0  0  0  0  0  0  0  0  0
    7.3841  -13.0543   20.2253 O   0  0  0  0  0  0  0  0  0  0  0  0
    8.1532  -15.1980   19.7989 N   0  0  0  0  0  0  0  0  0  0  0  0
    7.4590  -15.8140   20.9043 C   0  0  1  0  0  0  0  0  0  0  0  0
    7.2512  -17.3014   20.6091 C   0  0  0  0  0  0  0  0  0  0  0  0
    6.2385  -17.9215   21.5410 C   0  0  0  0  0  0  0  0  0  0  0  0
    6.0104  -19.3332   21.0832 C   0  0  0  0  0  0  0  0  0  0  0  0
    5.0580  -20.0947   21.9776 C   0  0  0  0  0  0  0  0  0  0  0  0
    4.7727  -21.4253   21.5271 N   0  0  0  0  0  0  0  0  0  0  0  0
    8.2771  -15.7648   22.1397 C   0  0  0  0  0  0  0  0  0  0  0  0
    9.4996  -16.0181   22.0520 O   0  0  0  0  0  0  0  0  0  0  0  0
   11.1794  -14.7295   30.3835 O   0  0  0  0  0  0  0  0  0  0  0  0
   10.3873  -14.6954   29.2176 C   0  0  0  0  0  0  0  0  0  0  0  0
   10.7585  -13.9498   28.1248 C   0  0  0  0  0  0  0  0  0  0  0  0
    9.9768  -13.9252   26.9933 C   0  0  0  0  0  0  0  0  0  0  0  0
    8.7819  -14.6479   26.9002 C   0  0  0  0  0  0  0  0  0  0  0  0
    7.9510  -14.5900   25.6773 C   0  0  0  0  0  0  0  0  0  0  0  0
    8.5709  -15.3740   24.5744 C   0  0  2  0  0  0  0  0  0  0  0  0
    7.7381  -15.4471   23.3988 N   0  0  0  0  0  0  0  0  0  0  0  0
    9.0537  -16.7151   24.9289 C   0  0  0  0  0  0  0  0  0  0  0  0
   10.3964  -16.8940   25.2190 O   0  0  0  0  0  0  0  0  0  0  0  0
    8.4300  -15.3919   28.0163 C   0  0  0  0  0  0  0  0  0  0  0  0
    9.2130  -15.4154   29.1472 C   0  0  0  0  0  0  0  0  0  0  0  0
    8.2827  -17.6782   24.9710 O   0  0  0  0  0  0  0  0  0  0  0  0
  1  2  1  0
  3  4  2  0
  3  2  1  0
  5  3  1  0
  6  7  1  6
  6  5  1  0
  8  7  1  0
  8  9  1  0
  9 10  1  0
 11 10  1  0
 12  6  1  0
 12 21  1  0
 13 12  2  0
 15 14  1  0
 15 16  2  0
 17 16  1  0
 18 17  2  0
 19 18  1  0
 20 21  1  0
 20 19  1  1
 22 20  1  0
 23 22  1  0
 24 25  2  0
 24 18  1  0
 25 15  1  0
 26 22  2  0
M  END
$$$$
