RQE.pdb
     RDKit          3D

 30 29  0  0  1  0  0  0  0  0999 V2000
   30.0932  -25.4235  -15.8230 N   0  0  0  0  0  0  0  0  0  0  0  0
   29.4957  -25.7424  -17.0750 C   0  0  0  0  0  0  0  0  0  0  0  0
   29.5571  -26.9514  -17.5062 N   0  0  0  0  0  0  0  0  0  0  0  0
   28.8384  -24.7380  -17.8365 N   0  0  0  0  0  0  0  0  0  0  0  0
   28.4767  -23.4991  -17.1560 C   0  0  0  0  0  0  0  0  0  0  0  0
   27.2689  -23.6935  -16.3020 C   0  0  0  0  0  0  0  0  0  0  0  0
   26.1121  -22.9074  -16.8156 C   0  0  0  0  0  0  0  0  0  0  0  0
   25.9255  -21.6418  -16.0222 C   0  0  2  0  0  0  0  0  0  0  0  0
   27.2022  -21.3371  -15.4143 N   0  0  0  0  0  0  0  0  0  0  0  0
   24.9513  -21.8772  -14.8930 C   0  0  0  0  0  0  0  0  0  0  0  0
   23.9233  -22.5491  -15.1118 O   0  0  0  0  0  0  0  0  0  0  0  0
   29.2403  -27.2602  -18.4302 N   0  0  0  0  0  0  0  0  0  0  0  0
   25.4361  -20.1011   -8.9339 C   0  0  0  0  0  0  0  0  0  0  0  0
   26.4999  -20.6375   -9.7272 O   0  0  0  0  0  0  0  0  0  0  0  0
   27.6472  -20.6232   -9.2717 C   0  0  0  0  0  0  0  0  0  0  0  0
   26.1487  -21.1951  -11.0900 C   0  0  0  0  0  0  0  0  0  0  0  0
   24.6896  -21.0303  -11.2363 C   0  0  2  0  0  0  0  0  0  0  0  0
   24.0968  -21.4602  -12.5636 N   0  0  0  0  0  0  0  0  0  0  0  0
   25.1521  -21.3691  -13.5971 C   0  0  0  0  0  0  0  0  0  0  0  0
   22.9948  -20.5244  -12.8846 O   0  0  0  0  0  0  0  0  0  0  0  0
   23.2255  -19.5376  -13.6041 N   0  0  0  0  0  0  0  0  0  0  0  0
   21.6569  -20.6966  -12.4062 C   0  0  1  0  0  0  0  0  0  0  0  0
   20.5024  -20.1978  -13.1493 C   0  0  0  0  0  0  0  0  0  0  0  0
   20.6451  -20.6619  -14.5511 C   0  0  0  0  0  0  0  0  0  0  0  0
   19.6136  -20.2940  -15.5346 C   0  0  0  0  0  0  0  0  0  0  0  0
   19.7391  -20.7948  -16.8955 O   0  0  0  0  0  0  0  0  0  0  0  0
   18.9266  -21.4769  -17.5528 C   0  0  0  0  0  0  0  0  0  0  0  0
   19.2231  -20.3596  -12.4860 O   0  0  0  0  0  0  0  0  0  0  0  0
   19.0166  -21.4037  -11.7970 O   0  0  0  0  0  0  0  0  0  0  0  0
   20.9490  -20.4600  -17.5588 O   0  0  0  0  0  0  0  0  0  0  0  0
  1  2  1  0
  2  3  2  0
  4  5  1  0
  4  2  1  0
  6  5  1  0
  7  6  1  0
  8 10  1  0
  8  7  1  0
  8  9  1  1
 10 11  2  0
 13 15  1  0
 13 12  1  0
 14 13  2  0
 17 16  1  1
 16 15  1  0
 18 17  1  0
 18 10  1  0
 19 20  2  0
 19 17  1  0
 21 19  1  0
 22 27  1  0
 22 21  1  0
 22 23  1  1
 24 25  1  0
 24 23  1  0
 25 26  2  0
 27 30  1  0
 28 27  2  0
 29 25  1  0
M  END
$$$$
