RQE.pdb
     RDKit          3D

 30 29  0  0  1  0  0  0  0  0999 V2000
   27.8498  -16.6878  -19.5835 N   0  0  0  0  0  0  0  0  0  0  0  0
   26.7012  -16.2407  -18.8713 C   0  0  0  0  0  0  0  0  0  0  0  0
   25.7267  -15.7159  -19.5244 N   0  0  0  0  0  0  0  0  0  0  0  0
   26.6322  -16.3748  -17.4578 N   0  0  0  0  0  0  0  0  0  0  0  0
   27.7533  -17.0197  -16.7824 C   0  0  0  0  0  0  0  0  0  0  0  0
   27.8039  -18.4753  -17.1057 C   0  0  0  0  0  0  0  0  0  0  0  0
   26.7631  -19.2318  -16.3546 C   0  0  0  0  0  0  0  0  0  0  0  0
   27.3791  -20.0361  -15.2412 C   0  0  2  0  0  0  0  0  0  0  0  0
   28.2724  -20.9909  -15.8598 N   0  0  0  0  0  0  0  0  0  0  0  0
   26.3143  -20.8349  -14.5287 C   0  0  0  0  0  0  0  0  0  0  0  0
   25.9542  -21.9274  -15.0110 O   0  0  0  0  0  0  0  0  0  0  0  0
   24.9032  -15.2809  -19.0978 N   0  0  0  0  0  0  0  0  0  0  0  0
   24.7058  -20.7199   -8.5904 C   0  0  0  0  0  0  0  0  0  0  0  0
   25.9891  -21.0818   -9.1111 O   0  0  0  0  0  0  0  0  0  0  0  0
   26.9562  -21.1087   -8.3443 C   0  0  0  0  0  0  0  0  0  0  0  0
   26.0822  -21.4125  -10.5853 C   0  0  0  0  0  0  0  0  0  0  0  0
   24.7881  -21.0192  -11.1757 C   0  0  2  0  0  0  0  0  0  0  0  0
   24.6532  -21.2003  -12.6747 N   0  0  0  0  0  0  0  0  0  0  0  0
   25.7060  -20.3992  -13.3379 C   0  0  0  0  0  0  0  0  0  0  0  0
   23.3161  -20.6987  -13.0666 O   0  0  0  0  0  0  0  0  0  0  0  0
   23.0548  -19.4917  -12.9269 N   0  0  0  0  0  0  0  0  0  0  0  0
   22.2920  -21.5395  -13.6077 C   0  0  1  0  0  0  0  0  0  0  0  0
   20.9861  -21.0117  -13.9947 C   0  0  0  0  0  0  0  0  0  0  0  0
   20.5344  -21.7775  -15.1822 C   0  0  0  0  0  0  0  0  0  0  0  0
   20.2776  -21.0590  -16.4410 C   0  0  0  0  0  0  0  0  0  0  0  0
   19.2681  -20.0103  -16.4506 O   0  0  0  0  0  0  0  0  0  0  0  0
   18.6275  -19.5365  -15.4900 C   0  0  0  0  0  0  0  0  0  0  0  0
   20.0555  -20.8020  -12.9024 O   0  0  0  0  0  0  0  0  0  0  0  0
   20.1374  -21.5414  -11.8757 O   0  0  0  0  0  0  0  0  0  0  0  0
   18.9774  -19.4562  -17.7252 O   0  0  0  0  0  0  0  0  0  0  0  0
  1  2  1  0
  2  3  2  0
  4  5  1  0
  4  2  1  0
  6  5  1  0
  7  6  1  0
  8 10  1  0
  8  7  1  0
  8  9  1  6
 10 11  2  0
 13 15  1  0
 13 12  1  0
 14 13  2  0
 17 16  1  1
 16 15  1  0
 18 17  1  0
 18 10  1  0
 19 20  2  0
 19 17  1  0
 21 19  1  0
 22 27  1  0
 22 21  1  0
 22 23  1  1
 24 25  1  0
 24 23  1  0
 25 26  2  0
 27 30  1  0
 28 27  2  0
 29 25  1  0
M  END
$$$$
