RQE.pdb
     RDKit          3D

 30 29  0  0  1  0  0  0  0  0999 V2000
   30.6264  -25.0695  -15.7826 N   0  0  0  0  0  0  0  0  0  0  0  0
   29.9683  -25.2796  -17.0272 C   0  0  0  0  0  0  0  0  0  0  0  0
   29.8592  -26.4767  -17.4816 N   0  0  0  0  0  0  0  0  0  0  0  0
   29.4372  -24.1808  -17.7562 N   0  0  0  0  0  0  0  0  0  0  0  0
   29.1576  -22.9514  -17.0217 C   0  0  0  0  0  0  0  0  0  0  0  0
   27.9329  -23.0993  -16.1825 C   0  0  0  0  0  0  0  0  0  0  0  0
   26.8365  -22.2142  -16.6666 C   0  0  0  0  0  0  0  0  0  0  0  0
   27.0855  -20.7827  -16.2731 C   0  0  2  0  0  0  0  0  0  0  0  0
   28.0799  -20.8046  -15.2228 N   0  0  0  0  0  0  0  0  0  0  0  0
   25.8347  -20.1846  -15.6755 C   0  0  0  0  0  0  0  0  0  0  0  0
   25.4578  -20.5708  -14.5509 O   0  0  0  0  0  0  0  0  0  0  0  0
   29.5039  -26.7199  -18.4111 N   0  0  0  0  0  0  0  0  0  0  0  0
   23.3032  -15.1362  -17.8404 C   0  0  0  0  0  0  0  0  0  0  0  0
   22.3238  -15.2951  -16.8087 O   0  0  0  0  0  0  0  0  0  0  0  0
   21.4522  -14.4306  -16.6777 C   0  0  0  0  0  0  0  0  0  0  0  0
   22.4183  -16.5260  -15.9328 C   0  0  0  0  0  0  0  0  0  0  0  0
   23.6148  -17.2608  -16.3868 C   0  0  1  0  0  0  0  0  0  0  0  0
   23.9054  -18.5697  -15.6794 N   0  0  0  0  0  0  0  0  0  0  0  0
   25.0702  -19.2053  -16.3346 C   0  0  0  0  0  0  0  0  0  0  0  0
   22.7109  -19.4323  -15.8276 O   0  0  0  0  0  0  0  0  0  0  0  0
   22.5377  -20.0534  -16.8901 N   0  0  0  0  0  0  0  0  0  0  0  0
   21.7297  -19.5947  -14.7984 C   0  0  1  0  0  0  0  0  0  0  0  0
   20.6311  -20.5493  -14.9244 C   0  0  0  0  0  0  0  0  0  0  0  0
   20.4286  -21.1684  -13.5916 C   0  0  0  0  0  0  0  0  0  0  0  0
   19.3456  -22.1496  -13.4161 C   0  0  0  0  0  0  0  0  0  0  0  0
   19.2031  -22.8057  -12.1247 O   0  0  0  0  0  0  0  0  0  0  0  0
   19.9114  -22.6809  -11.1048 C   0  0  0  0  0  0  0  0  0  0  0  0
   19.4745  -20.0680  -15.6550 O   0  0  0  0  0  0  0  0  0  0  0  0
   19.0887  -18.8737  -15.4758 O   0  0  0  0  0  0  0  0  0  0  0  0
   18.1112  -23.7070  -12.0164 O   0  0  0  0  0  0  0  0  0  0  0  0
  1  2  1  0
  2  3  2  0
  4  5  1  0
  4  2  1  0
  6  5  1  0
  7  6  1  0
  8 10  1  0
  8  7  1  0
  8  9  1  1
 10 11  2  0
 13 15  1  0
 13 12  1  0
 14 13  2  0
 17 16  1  1
 16 15  1  0
 18 17  1  0
 18 10  1  0
 19 20  2  0
 19 17  1  0
 21 19  1  0
 22 27  1  0
 22 21  1  0
 22 23  1  6
 24 25  1  0
 24 23  1  0
 25 26  2  0
 27 30  1  0
 28 27  2  0
 29 25  1  0
M  END
$$$$
