RQE.pdb
     RDKit          3D

 30 29  0  0  1  0  0  0  0  0999 V2000
   26.9433  -23.8632  -16.5992 N   0  0  0  0  0  0  0  0  0  0  0  0
   27.4738  -23.3746  -17.8265 C   0  0  0  0  0  0  0  0  0  0  0  0
   27.1404  -23.9525  -18.9247 N   0  0  0  0  0  0  0  0  0  0  0  0
   28.3580  -22.2616  -17.8370 N   0  0  0  0  0  0  0  0  0  0  0  0
   28.4837  -21.4837  -16.6091 C   0  0  0  0  0  0  0  0  0  0  0  0
   29.0386  -20.1280  -16.8920 C   0  0  0  0  0  0  0  0  0  0  0  0
   28.0722  -19.2996  -17.6664 C   0  0  0  0  0  0  0  0  0  0  0  0
   27.0673  -18.6488  -16.7538 C   0  0  2  0  0  0  0  0  0  0  0  0
   27.6128  -18.7157  -15.4157 N   0  0  0  0  0  0  0  0  0  0  0  0
   25.7857  -19.4468  -16.7414 C   0  0  0  0  0  0  0  0  0  0  0  0
   25.2006  -19.6674  -17.8207 O   0  0  0  0  0  0  0  0  0  0  0  0
   27.5684  -23.7675  -19.8369 N   0  0  0  0  0  0  0  0  0  0  0  0
   24.9333  -24.2032  -13.6081 C   0  0  0  0  0  0  0  0  0  0  0  0
   23.5998  -24.2384  -14.1271 O   0  0  0  0  0  0  0  0  0  0  0  0
   22.9421  -25.2762  -14.0072 C   0  0  0  0  0  0  0  0  0  0  0  0
   23.0729  -22.9878  -14.7979 C   0  0  0  0  0  0  0  0  0  0  0  0
   24.1930  -22.0272  -14.8107 C   0  0  2  0  0  0  0  0  0  0  0  0
   23.9660  -20.7441  -15.5855 N   0  0  0  0  0  0  0  0  0  0  0  0
   25.2182  -19.9558  -15.5596 C   0  0  0  0  0  0  0  0  0  0  0  0
   22.8852  -19.9959  -14.9037 O   0  0  0  0  0  0  0  0  0  0  0  0
   23.0949  -19.5177  -13.7759 N   0  0  0  0  0  0  0  0  0  0  0  0
   21.5921  -19.7880  -15.4809 C   0  0  1  0  0  0  0  0  0  0  0  0
   20.5407  -19.0601  -14.7747 C   0  0  0  0  0  0  0  0  0  0  0  0
   20.1925  -17.8768  -15.5989 C   0  0  0  0  0  0  0  0  0  0  0  0
   21.0162  -16.6618  -15.4894 C   0  0  0  0  0  0  0  0  0  0  0  0
   20.5586  -15.4485  -16.1507 O   0  0  0  0  0  0  0  0  0  0  0  0
   19.5356  -15.2778  -16.8447 C   0  0  0  0  0  0  0  0  0  0  0  0
   19.4703  -19.8813  -14.2428 O   0  0  0  0  0  0  0  0  0  0  0  0
   19.1851  -20.9707  -14.8252 O   0  0  0  0  0  0  0  0  0  0  0  0
   21.3911  -14.3109  -15.9804 O   0  0  0  0  0  0  0  0  0  0  0  0
  1  2  1  0
  2  3  2  0
  4  5  1  0
  4  2  1  0
  6  5  1  0
  7  6  1  0
  8 10  1  0
  8  7  1  0
  8  9  1  1
 10 11  2  0
 13 15  1  0
 13 12  1  0
 14 13  2  0
 17 16  1  6
 16 15  1  0
 18 17  1  0
 18 10  1  0
 19 20  2  0
 19 17  1  0
 21 19  1  0
 22 27  1  0
 22 21  1  0
 22 23  1  1
 24 25  1  0
 24 23  1  0
 25 26  2  0
 27 30  1  0
 28 27  2  0
 29 25  1  0
M  END
$$$$
