RQE.pdb
     RDKit          3D

 30 29  0  0  1  0  0  0  0  0999 V2000
   25.7221  -15.2696  -16.9846 N   0  0  0  0  0  0  0  0  0  0  0  0
   24.8450  -16.3051  -17.4145 C   0  0  0  0  0  0  0  0  0  0  0  0
   23.9080  -16.0238  -18.2477 N   0  0  0  0  0  0  0  0  0  0  0  0
   25.0049  -17.6321  -16.9305 N   0  0  0  0  0  0  0  0  0  0  0  0
   26.0148  -17.8621  -15.9029 C   0  0  0  0  0  0  0  0  0  0  0  0
   27.0698  -18.7964  -16.3925 C   0  0  0  0  0  0  0  0  0  0  0  0
   26.6748  -20.2170  -16.1783 C   0  0  0  0  0  0  0  0  0  0  0  0
   27.3276  -20.7779  -14.9433 C   0  0  2  0  0  0  0  0  0  0  0  0
   28.0429  -21.9670  -15.3518 N   0  0  0  0  0  0  0  0  0  0  0  0
   26.2744  -21.2212  -13.9566 C   0  0  0  0  0  0  0  0  0  0  0  0
   25.6227  -22.2581  -14.1933 O   0  0  0  0  0  0  0  0  0  0  0  0
   23.2047  -16.6884  -18.5839 N   0  0  0  0  0  0  0  0  0  0  0  0
   26.3639  -19.2797   -8.4004 C   0  0  0  0  0  0  0  0  0  0  0  0
   27.0253  -20.5186   -8.6774 O   0  0  0  0  0  0  0  0  0  0  0  0
   27.9821  -20.8526   -7.9724 C   0  0  0  0  0  0  0  0  0  0  0  0
   26.5054  -21.3512   -9.8297 C   0  0  0  0  0  0  0  0  0  0  0  0
   25.3936  -20.5822  -10.4216 C   0  0  2  0  0  0  0  0  0  0  0  0
   24.9682  -20.9876  -11.8190 N   0  0  0  0  0  0  0  0  0  0  0  0
   25.9932  -20.5126  -12.7748 C   0  0  0  0  0  0  0  0  0  0  0  0
   23.6724  -20.3281  -12.1004 O   0  0  0  0  0  0  0  0  0  0  0  0
   23.6475  -19.1044  -12.3162 N   0  0  0  0  0  0  0  0  0  0  0  0
   22.4273  -21.0329  -12.1400 C   0  0  1  0  0  0  0  0  0  0  0  0
   21.1662  -20.3539  -12.4268 C   0  0  0  0  0  0  0  0  0  0  0  0
   20.7815  -20.7047  -13.8159 C   0  0  0  0  0  0  0  0  0  0  0  0
   19.4853  -20.2417  -14.3374 C   0  0  0  0  0  0  0  0  0  0  0  0
   19.0551  -20.7081  -15.6474 O   0  0  0  0  0  0  0  0  0  0  0  0
   19.0018  -21.8777  -16.0793 C   0  0  0  0  0  0  0  0  0  0  0  0
   20.1653  -20.4409  -11.3809 O   0  0  0  0  0  0  0  0  0  0  0  0
   19.2009  -19.6180  -11.3843 O   0  0  0  0  0  0  0  0  0  0  0  0
   18.6425  -19.6928  -16.5503 O   0  0  0  0  0  0  0  0  0  0  0  0
  1  2  1  0
  2  3  2  0
  4  5  1  0
  4  2  1  0
  6  5  1  0
  7  6  1  0
  8 10  1  0
  8  7  1  0
  8  9  1  6
 10 11  2  0
 13 15  1  0
 13 12  1  0
 14 13  2  0
 17 16  1  1
 16 15  1  0
 18 17  1  0
 18 10  1  0
 19 20  2  0
 19 17  1  0
 21 19  1  0
 22 27  1  0
 22 21  1  0
 22 23  1  1
 24 25  1  0
 24 23  1  0
 25 26  2  0
 27 30  1  0
 28 27  2  0
 29 25  1  0
M  END
$$$$
