RQE.pdb
     RDKit          3D

 30 29  0  0  1  0  0  0  0  0999 V2000
   18.2381  -18.1272    5.2741 N   0  0  0  0  0  0  0  0  0  0  0  0
   17.2609  -17.9399    6.2921 C   0  0  0  0  0  0  0  0  0  0  0  0
   17.5933  -18.1281    7.5190 N   0  0  0  0  0  0  0  0  0  0  0  0
   15.9364  -17.5479    5.9561 N   0  0  0  0  0  0  0  0  0  0  0  0
   15.7499  -16.7583    4.7434 C   0  0  0  0  0  0  0  0  0  0  0  0
   15.7541  -15.2987    5.0523 C   0  0  0  0  0  0  0  0  0  0  0  0
   17.0033  -14.6476    4.5670 C   0  0  0  0  0  0  0  0  0  0  0  0
   17.0945  -13.2259    5.0534 C   0  0  2  0  0  0  0  0  0  0  0  0
   17.0193  -12.3782    3.8838 N   0  0  0  0  0  0  0  0  0  0  0  0
   18.4444  -12.9795    5.6831 C   0  0  0  0  0  0  0  0  0  0  0  0
   19.2583  -12.2377    5.0974 O   0  0  0  0  0  0  0  0  0  0  0  0
   16.9644  -18.0157    8.3197 N   0  0  0  0  0  0  0  0  0  0  0  0
   21.4892  -10.3525    6.3354 C   0  0  0  0  0  0  0  0  0  0  0  0
   21.9925  -10.4259    7.6734 O   0  0  0  0  0  0  0  0  0  0  0  0
   23.0788   -9.8988    7.9301 C   0  0  0  0  0  0  0  0  0  0  0  0
   21.1528  -11.1531    8.7018 C   0  0  0  0  0  0  0  0  0  0  0  0
   19.9973  -11.7066    7.9696 C   0  0  1  0  0  0  0  0  0  0  0  0
   20.0912  -13.1676    7.5759 N   0  0  0  0  0  0  0  0  0  0  0  0
   18.8278  -13.5530    6.9087 C   0  0  0  0  0  0  0  0  0  0  0  0
   20.2656  -13.9545    8.8182 O   0  0  0  0  0  0  0  0  0  0  0  0
   19.3412  -13.9931    9.6481 N   0  0  0  0  0  0  0  0  0  0  0  0
   21.4579  -14.6863    9.1208 C   0  0  1  0  0  0  0  0  0  0  0  0
   21.5133  -15.6503   10.2169 C   0  0  0  0  0  0  0  0  0  0  0  0
   21.9795  -16.9390    9.6488 C   0  0  0  0  0  0  0  0  0  0  0  0
   22.1209  -18.1031   10.5384 C   0  0  0  0  0  0  0  0  0  0  0  0
   22.5933  -19.3583    9.9728 O   0  0  0  0  0  0  0  0  0  0  0  0
   22.9401  -19.6025    8.7991 C   0  0  0  0  0  0  0  0  0  0  0  0
   22.1240  -15.1630   11.4386 O   0  0  0  0  0  0  0  0  0  0  0  0
   22.8074  -14.0959   11.3999 O   0  0  0  0  0  0  0  0  0  0  0  0
   22.6672  -20.4466   10.8818 O   0  0  0  0  0  0  0  0  0  0  0  0
  1  2  1  0
  2  3  2  0
  4  5  1  0
  4  2  1  0
  6  5  1  0
  7  6  1  0
  8 10  1  0
  8  7  1  0
  8  9  1  6
 10 11  2  0
 13 15  1  0
 13 12  1  0
 14 13  2  0
 17 16  1  6
 16 15  1  0
 18 17  1  0
 18 10  1  0
 19 20  2  0
 19 17  1  0
 21 19  1  0
 22 27  1  0
 22 21  1  0
 22 23  1  1
 24 25  1  0
 24 23  1  0
 25 26  2  0
 27 30  1  0
 28 27  2  0
 29 25  1  0
M  END
$$$$
