RQE.pdb
     RDKit          3D

 30 29  0  0  1  0  0  0  0  0999 V2000
   30.3340  -22.5674  -11.1925 N   0  0  0  0  0  0  0  0  0  0  0  0
   29.6360  -22.2947   -9.9822 C   0  0  0  0  0  0  0  0  0  0  0  0
   30.2299  -22.4945   -8.8603 N   0  0  0  0  0  0  0  0  0  0  0  0
   28.3014  -21.8062  -10.0144 N   0  0  0  0  0  0  0  0  0  0  0  0
   27.7046  -21.5496  -11.3208 C   0  0  0  0  0  0  0  0  0  0  0  0
   27.4205  -20.0959  -11.5002 C   0  0  0  0  0  0  0  0  0  0  0  0
   26.1134  -19.8813  -12.1824 C   0  0  0  0  0  0  0  0  0  0  0  0
   26.2140  -20.1940  -13.6515 C   0  0  2  0  0  0  0  0  0  0  0  0
   27.4603  -19.6251  -14.1157 N   0  0  0  0  0  0  0  0  0  0  0  0
   25.1090  -19.4954  -14.4066 C   0  0  0  0  0  0  0  0  0  0  0  0
   25.2788  -18.3146  -14.7711 O   0  0  0  0  0  0  0  0  0  0  0  0
   29.7916  -22.3941   -7.9399 N   0  0  0  0  0  0  0  0  0  0  0  0
   23.5287  -18.1143  -19.1904 C   0  0  0  0  0  0  0  0  0  0  0  0
   24.0697  -19.4172  -18.9485 O   0  0  0  0  0  0  0  0  0  0  0  0
   24.5944  -20.0267  -19.8851 C   0  0  0  0  0  0  0  0  0  0  0  0
   23.9639  -19.9731  -17.5445 C   0  0  0  0  0  0  0  0  0  0  0  0
   23.2535  -18.9509  -16.7519 C   0  0  1  0  0  0  0  0  0  0  0  0
   22.7890  -19.3762  -15.3729 N   0  0  0  0  0  0  0  0  0  0  0  0
   23.8886  -20.1204  -14.7193 C   0  0  0  0  0  0  0  0  0  0  0  0
   21.6161  -20.2627  -15.5504 O   0  0  0  0  0  0  0  0  0  0  0  0
   21.7388  -21.4819  -15.3429 N   0  0  0  0  0  0  0  0  0  0  0  0
   20.3279  -19.7859  -15.9524 C   0  0  1  0  0  0  0  0  0  0  0  0
   19.0999  -20.4958  -15.6033 C   0  0  0  0  0  0  0  0  0  0  0  0
   19.1542  -20.7837  -14.1490 C   0  0  0  0  0  0  0  0  0  0  0  0
   19.2177  -22.1837  -13.6992 C   0  0  0  0  0  0  0  0  0  0  0  0
   19.1539  -22.4599  -12.2715 O   0  0  0  0  0  0  0  0  0  0  0  0
   19.0455  -21.6528  -11.3258 C   0  0  0  0  0  0  0  0  0  0  0  0
   17.8831  -19.9375  -16.1607 O   0  0  0  0  0  0  0  0  0  0  0  0
   17.7915  -18.6805  -16.2986 O   0  0  0  0  0  0  0  0  0  0  0  0
   19.2251  -23.8319  -11.9125 O   0  0  0  0  0  0  0  0  0  0  0  0
  1  2  1  0
  2  3  2  0
  4  5  1  0
  4  2  1  0
  6  5  1  0
  7  6  1  0
  8 10  1  0
  8  7  1  0
  8  9  1  6
 10 11  2  0
 13 15  1  0
 13 12  1  0
 14 13  2  0
 17 16  1  1
 16 15  1  0
 18 17  1  0
 18 10  1  0
 19 20  2  0
 19 17  1  0
 21 19  1  0
 22 27  1  0
 22 21  1  0
 22 23  1  6
 24 25  1  0
 24 23  1  0
 25 26  2  0
 27 30  1  0
 28 27  2  0
 29 25  1  0
M  END
$$$$
