RQE.pdb
     RDKit          3D

 30 29  0  0  1  0  0  0  0  0999 V2000
   28.3126  -24.4991  -18.4295 N   0  0  0  0  0  0  0  0  0  0  0  0
   28.3695  -24.5259  -17.0074 C   0  0  0  0  0  0  0  0  0  0  0  0
   28.4465  -25.6594  -16.4069 N   0  0  0  0  0  0  0  0  0  0  0  0
   28.3437  -23.3156  -16.2622 N   0  0  0  0  0  0  0  0  0  0  0  0
   28.1498  -22.0704  -16.9977 C   0  0  0  0  0  0  0  0  0  0  0  0
   28.1186  -20.9029  -16.0693 C   0  0  0  0  0  0  0  0  0  0  0  0
   26.8880  -20.9136  -15.2294 C   0  0  0  0  0  0  0  0  0  0  0  0
   25.7149  -20.3478  -15.9842 C   0  0  2  0  0  0  0  0  0  0  0  0
   25.7710  -18.9108  -15.8283 N   0  0  0  0  0  0  0  0  0  0  0  0
   24.4226  -20.8039  -15.3507 C   0  0  0  0  0  0  0  0  0  0  0  0
   24.1735  -22.0250  -15.2976 O   0  0  0  0  0  0  0  0  0  0  0  0
   28.4876  -25.7818  -15.3906 N   0  0  0  0  0  0  0  0  0  0  0  0
   21.1873  -18.4028  -10.3965 C   0  0  0  0  0  0  0  0  0  0  0  0
   21.2732  -19.8232  -10.5512 O   0  0  0  0  0  0  0  0  0  0  0  0
   21.5141  -20.5161   -9.5583 C   0  0  0  0  0  0  0  0  0  0  0  0
   21.0611  -20.3938  -11.9371 C   0  0  0  0  0  0  0  0  0  0  0  0
   22.1940  -19.9174  -12.7539 C   0  0  2  0  0  0  0  0  0  0  0  0
   22.2270  -20.3902  -14.1938 N   0  0  0  0  0  0  0  0  0  0  0  0
   23.4807  -19.9076  -14.8146 C   0  0  0  0  0  0  0  0  0  0  0  0
   21.0605  -19.7959  -14.8860 O   0  0  0  0  0  0  0  0  0  0  0  0
   20.8144  -18.5872  -14.7337 N   0  0  0  0  0  0  0  0  0  0  0  0
   20.1875  -20.5473  -15.7355 C   0  0  1  0  0  0  0  0  0  0  0  0
   18.8527  -20.0686  -16.0858 C   0  0  0  0  0  0  0  0  0  0  0  0
   18.2253  -21.1003  -16.9476 C   0  0  0  0  0  0  0  0  0  0  0  0
   19.0108  -21.6903  -18.0438 C   0  0  0  0  0  0  0  0  0  0  0  0
   18.3978  -22.7288  -18.8590 O   0  0  0  0  0  0  0  0  0  0  0  0
   18.8850  -23.3496  -19.8257 C   0  0  0  0  0  0  0  0  0  0  0  0
   18.0859  -19.5152  -14.9863 O   0  0  0  0  0  0  0  0  0  0  0  0
   17.4854  -18.4109  -15.1513 O   0  0  0  0  0  0  0  0  0  0  0  0
   17.0684  -23.0779  -18.5025 O   0  0  0  0  0  0  0  0  0  0  0  0
  1  2  1  0
  2  3  2  0
  4  5  1  0
  4  2  1  0
  6  5  1  0
  7  6  1  0
  8 10  1  0
  8  7  1  0
  8  9  1  1
 10 11  2  0
 13 15  1  0
 13 12  1  0
 14 13  2  0
 17 16  1  1
 16 15  1  0
 18 17  1  0
 18 10  1  0
 19 20  2  0
 19 17  1  0
 21 19  1  0
 22 27  1  0
 22 21  1  0
 22 23  1  1
 24 25  1  0
 24 23  1  0
 25 26  2  0
 27 30  1  0
 28 27  2  0
 29 25  1  0
M  END
$$$$
