RQE.pdb
     RDKit          3D

 30 29  0  0  1  0  0  0  0  0999 V2000
   19.3419  -21.9119   -9.1522 N   0  0  0  0  0  0  0  0  0  0  0  0
   18.8024  -22.5272  -10.3170 C   0  0  0  0  0  0  0  0  0  0  0  0
   19.2926  -22.2261  -11.4661 N   0  0  0  0  0  0  0  0  0  0  0  0
   17.7380  -23.4633  -10.2101 N   0  0  0  0  0  0  0  0  0  0  0  0
   17.2768  -23.8160   -8.8715 C   0  0  0  0  0  0  0  0  0  0  0  0
   18.3562  -24.4966   -8.0985 C   0  0  0  0  0  0  0  0  0  0  0  0
   17.8455  -25.0125   -6.7974 C   0  0  0  0  0  0  0  0  0  0  0  0
   17.9827  -26.5096   -6.7196 C   0  0  2  0  0  0  0  0  0  0  0  0
   17.0005  -27.0671   -7.6234 N   0  0  0  0  0  0  0  0  0  0  0  0
   17.6224  -26.9914   -5.3348 C   0  0  0  0  0  0  0  0  0  0  0  0
   16.4273  -26.9674   -4.9783 O   0  0  0  0  0  0  0  0  0  0  0  0
   18.9137  -22.5402  -12.3646 N   0  0  0  0  0  0  0  0  0  0  0  0
   21.1027  -30.6549   -2.0815 C   0  0  0  0  0  0  0  0  0  0  0  0
   20.1132  -30.5320   -1.0545 O   0  0  0  0  0  0  0  0  0  0  0  0
   20.2042  -31.2471   -0.0523 C   0  0  0  0  0  0  0  0  0  0  0  0
   19.0050  -29.5222   -1.2628 C   0  0  0  0  0  0  0  0  0  0  0  0
   19.2006  -28.9734   -2.6187 C   0  0  1  0  0  0  0  0  0  0  0  0
   18.1913  -27.9382   -3.0742 N   0  0  0  0  0  0  0  0  0  0  0  0
   18.5805  -27.4691   -4.4227 C   0  0  0  0  0  0  0  0  0  0  0  0
   18.2428  -26.8116   -2.1144 O   0  0  0  0  0  0  0  0  0  0  0  0
   19.2184  -26.0420   -2.1323 N   0  0  0  0  0  0  0  0  0  0  0  0
   17.2143  -26.5545   -1.1528 C   0  0  1  0  0  0  0  0  0  0  0  0
   17.3144  -25.4593   -0.1913 C   0  0  0  0  0  0  0  0  0  0  0  0
   16.0185  -24.7375   -0.2074 C   0  0  0  0  0  0  0  0  0  0  0  0
   15.8367  -23.5749    0.6769 C   0  0  0  0  0  0  0  0  0  0  0  0
   14.4960  -23.0353    0.8508 O   0  0  0  0  0  0  0  0  0  0  0  0
   13.4682  -23.6171    1.2541 C   0  0  0  0  0  0  0  0  0  0  0  0
   17.9036  -25.8102    1.0865 O   0  0  0  0  0  0  0  0  0  0  0  0
   17.9452  -27.0302    1.4289 O   0  0  0  0  0  0  0  0  0  0  0  0
   14.3428  -21.6641    0.5154 O   0  0  0  0  0  0  0  0  0  0  0  0
  1  2  1  0
  2  3  2  0
  4  5  1  0
  4  2  1  0
  6  5  1  0
  7  6  1  0
  8 10  1  0
  8  7  1  0
  8  9  1  6
 10 11  2  0
 13 15  1  0
 13 12  1  0
 14 13  2  0
 17 16  1  6
 16 15  1  0
 18 17  1  0
 18 10  1  0
 19 20  2  0
 19 17  1  0
 21 19  1  0
 22 27  1  0
 22 21  1  0
 22 23  1  1
 24 25  1  0
 24 23  1  0
 25 26  2  0
 27 30  1  0
 28 27  2  0
 29 25  1  0
M  END
$$$$
