RQE.pdb
     RDKit          3D

 30 29  0  0  1  0  0  0  0  0999 V2000
   30.7233  -22.0430  -18.6649 N   0  0  0  0  0  0  0  0  0  0  0  0
   30.6641  -20.9395  -19.5622 C   0  0  0  0  0  0  0  0  0  0  0  0
   31.3984  -20.9521  -20.6166 N   0  0  0  0  0  0  0  0  0  0  0  0
   29.8029  -19.8401  -19.2965 N   0  0  0  0  0  0  0  0  0  0  0  0
   28.9539  -19.9145  -18.1123 C   0  0  0  0  0  0  0  0  0  0  0  0
   27.7081  -20.6843  -18.3975 C   0  0  0  0  0  0  0  0  0  0  0  0
   26.7546  -20.6112  -17.2551 C   0  0  0  0  0  0  0  0  0  0  0  0
   27.1606  -21.5524  -16.1526 C   0  0  2  0  0  0  0  0  0  0  0  0
   27.4945  -22.8122  -16.7801 N   0  0  0  0  0  0  0  0  0  0  0  0
   25.9875  -21.8183  -15.2403 C   0  0  0  0  0  0  0  0  0  0  0  0
   25.1403  -22.6695  -15.5774 O   0  0  0  0  0  0  0  0  0  0  0  0
   31.4508  -20.1931  -21.3026 N   0  0  0  0  0  0  0  0  0  0  0  0
   25.9288  -20.4762   -9.3855 C   0  0  0  0  0  0  0  0  0  0  0  0
   24.5745  -20.9398   -9.3839 O   0  0  0  0  0  0  0  0  0  0  0  0
   23.9870  -21.0565   -8.3044 C   0  0  0  0  0  0  0  0  0  0  0  0
   23.9397  -21.2618  -10.7198 C   0  0  0  0  0  0  0  0  0  0  0  0
   24.9832  -21.0259  -11.7364 C   0  0  2  0  0  0  0  0  0  0  0  0
   24.6326  -21.4156  -13.1588 N   0  0  0  0  0  0  0  0  0  0  0  0
   25.8057  -21.1445  -14.0193 C   0  0  0  0  0  0  0  0  0  0  0  0
   23.4905  -20.5742  -13.5839 O   0  0  0  0  0  0  0  0  0  0  0  0
   23.6391  -19.3429  -13.6633 N   0  0  0  0  0  0  0  0  0  0  0  0
   22.2048  -21.1087  -13.9153 C   0  0  1  0  0  0  0  0  0  0  0  0
   21.0533  -20.2460  -14.1676 C   0  0  0  0  0  0  0  0  0  0  0  0
   20.7525  -20.3236  -15.6182 C   0  0  0  0  0  0  0  0  0  0  0  0
   21.7448  -19.8207  -16.5820 C   0  0  0  0  0  0  0  0  0  0  0  0
   21.3979  -19.8074  -17.9956 O   0  0  0  0  0  0  0  0  0  0  0  0
   20.3345  -20.1678  -18.5403 C   0  0  0  0  0  0  0  0  0  0  0  0
   19.9636  -20.3762  -13.2195 O   0  0  0  0  0  0  0  0  0  0  0  0
   19.9682  -21.3514  -12.4094 O   0  0  0  0  0  0  0  0  0  0  0  0
   22.4075  -19.3186  -18.8661 O   0  0  0  0  0  0  0  0  0  0  0  0
  1  2  1  0
  2  3  2  0
  4  5  1  0
  4  2  1  0
  6  5  1  0
  7  6  1  0
  8 10  1  0
  8  7  1  0
  8  9  1  6
 10 11  2  0
 13 15  1  0
 13 12  1  0
 14 13  2  0
 17 16  1  1
 16 15  1  0
 18 17  1  0
 18 10  1  0
 19 20  2  0
 19 17  1  0
 21 19  1  0
 22 27  1  0
 22 21  1  0
 22 23  1  1
 24 25  1  0
 24 23  1  0
 25 26  2  0
 27 30  1  0
 28 27  2  0
 29 25  1  0
M  END
$$$$
