RQE.pdb
     RDKit          3D

 30 29  0  0  1  0  0  0  0  0999 V2000
   31.2935  -21.5389   -9.7933 N   0  0  0  0  0  0  0  0  0  0  0  0
   31.4538  -21.9717  -11.1399 C   0  0  0  0  0  0  0  0  0  0  0  0
   32.3115  -22.8921  -11.4020 N   0  0  0  0  0  0  0  0  0  0  0  0
   30.6744  -21.3954  -12.1797 N   0  0  0  0  0  0  0  0  0  0  0  0
   29.4291  -20.7330  -11.8062 C   0  0  0  0  0  0  0  0  0  0  0  0
   28.3477  -21.0397  -12.7873 C   0  0  0  0  0  0  0  0  0  0  0  0
   27.0813  -20.3403  -12.4312 C   0  0  0  0  0  0  0  0  0  0  0  0
   26.0122  -21.3258  -12.0415 C   0  0  2  0  0  0  0  0  0  0  0  0
   26.0848  -22.4175  -12.9877 N   0  0  0  0  0  0  0  0  0  0  0  0
   24.6475  -20.7005  -12.2029 C   0  0  0  0  0  0  0  0  0  0  0  0
   24.4713  -19.5267  -11.8194 O   0  0  0  0  0  0  0  0  0  0  0  0
   32.5644  -23.2054  -12.3439 N   0  0  0  0  0  0  0  0  0  0  0  0
   23.8716  -18.2505  -16.2374 C   0  0  0  0  0  0  0  0  0  0  0  0
   22.4564  -18.0948  -16.0890 O   0  0  0  0  0  0  0  0  0  0  0  0
   21.8651  -17.2994  -16.8249 C   0  0  0  0  0  0  0  0  0  0  0  0
   21.7651  -18.9237  -15.0277 C   0  0  0  0  0  0  0  0  0  0  0  0
   22.8138  -19.7623  -14.4155 C   0  0  2  0  0  0  0  0  0  0  0  0
   22.3729  -20.6616  -13.2775 N   0  0  0  0  0  0  0  0  0  0  0  0
   23.5587  -21.3868  -12.7698 C   0  0  0  0  0  0  0  0  0  0  0  0
   21.3893  -21.6241  -13.8243 O   0  0  0  0  0  0  0  0  0  0  0  0
   21.7425  -22.4127  -14.7177 N   0  0  0  0  0  0  0  0  0  0  0  0
   20.0331  -21.6994  -13.3731 C   0  0  1  0  0  0  0  0  0  0  0  0
   19.0997  -22.6923  -13.8993 C   0  0  0  0  0  0  0  0  0  0  0  0
   18.6710  -23.5423  -12.7616 C   0  0  0  0  0  0  0  0  0  0  0  0
   17.4517  -23.1824  -12.0198 C   0  0  0  0  0  0  0  0  0  0  0  0
   16.9746  -24.0866  -10.9837 O   0  0  0  0  0  0  0  0  0  0  0  0
   17.4648  -25.1718  -10.6104 C   0  0  0  0  0  0  0  0  0  0  0  0
   18.0916  -22.1746  -14.8042 O   0  0  0  0  0  0  0  0  0  0  0  0
   17.8196  -20.9366  -14.7768 O   0  0  0  0  0  0  0  0  0  0  0  0
   15.7938  -23.6740  -10.3115 O   0  0  0  0  0  0  0  0  0  0  0  0
  1  2  1  0
  2  3  2  0
  4  5  1  0
  4  2  1  0
  6  5  1  0
  7  6  1  0
  8 10  1  0
  8  7  1  0
  8  9  1  6
 10 11  2  0
 13 15  1  0
 13 12  1  0
 14 13  2  0
 17 16  1  1
 16 15  1  0
 18 17  1  0
 18 10  1  0
 19 20  2  0
 19 17  1  0
 21 19  1  0
 22 27  1  0
 22 21  1  0
 22 23  1  6
 24 25  1  0
 24 23  1  0
 25 26  2  0
 27 30  1  0
 28 27  2  0
 29 25  1  0
M  END
$$$$
