RQE.pdb
     RDKit          3D

 30 29  0  0  1  0  0  0  0  0999 V2000
   25.9649  -25.8750  -15.1783 N   0  0  0  0  0  0  0  0  0  0  0  0
   26.0462  -24.8134  -16.1231 C   0  0  0  0  0  0  0  0  0  0  0  0
   27.1697  -24.5753  -16.6996 N   0  0  0  0  0  0  0  0  0  0  0  0
   24.9000  -24.0291  -16.4262 N   0  0  0  0  0  0  0  0  0  0  0  0
   23.5900  -24.6025  -16.1365 C   0  0  0  0  0  0  0  0  0  0  0  0
   22.9367  -23.8907  -14.9996 C   0  0  0  0  0  0  0  0  0  0  0  0
   21.5553  -24.3981  -14.7669 C   0  0  0  0  0  0  0  0  0  0  0  0
   21.5669  -25.5935  -13.8520 C   0  0  2  0  0  0  0  0  0  0  0  0
   21.6972  -26.7629  -14.6935 N   0  0  0  0  0  0  0  0  0  0  0  0
   20.2404  -25.7147  -13.1413 C   0  0  0  0  0  0  0  0  0  0  0  0
   19.4469  -26.6114  -13.4911 O   0  0  0  0  0  0  0  0  0  0  0  0
   27.3078  -23.8977  -17.4554 N   0  0  0  0  0  0  0  0  0  0  0  0
   19.3480  -25.0861   -7.4317 C   0  0  0  0  0  0  0  0  0  0  0  0
   17.9546  -24.8758   -7.6829 O   0  0  0  0  0  0  0  0  0  0  0  0
   17.1856  -24.7758   -6.7225 C   0  0  0  0  0  0  0  0  0  0  0  0
   17.5055  -24.7880   -9.1258 C   0  0  0  0  0  0  0  0  0  0  0  0
   18.7337  -24.8511   -9.9415 C   0  0  1  0  0  0  0  0  0  0  0  0
   18.5372  -24.9868  -11.4385 N   0  0  0  0  0  0  0  0  0  0  0  0
   19.8566  -24.8558  -12.0959 C   0  0  0  0  0  0  0  0  0  0  0  0
   17.6460  -23.8869  -11.8735 O   0  0  0  0  0  0  0  0  0  0  0  0
   18.0964  -22.7307  -11.9422 N   0  0  0  0  0  0  0  0  0  0  0  0
   16.2730  -24.0846  -12.2264 C   0  0  2  0  0  0  0  0  0  0  0  0
   15.4228  -22.9801  -12.6634 C   0  0  0  0  0  0  0  0  0  0  0  0
   14.9438  -22.2825  -11.4450 C   0  0  0  0  0  0  0  0  0  0  0  0
   14.0692  -21.1076  -11.5910 C   0  0  0  0  0  0  0  0  0  0  0  0
   13.0148  -20.8982  -10.6095 O   0  0  0  0  0  0  0  0  0  0  0  0
   12.1419  -20.0068  -10.5819 C   0  0  0  0  0  0  0  0  0  0  0  0
   15.9498  -22.1905  -13.7597 O   0  0  0  0  0  0  0  0  0  0  0  0
   16.8311  -21.3124  -13.5156 O   0  0  0  0  0  0  0  0  0  0  0  0
   12.9797  -21.8358   -9.5437 O   0  0  0  0  0  0  0  0  0  0  0  0
  1  2  1  0
  2  3  2  0
  4  5  1  0
  4  2  1  0
  6  5  1  0
  7  6  1  0
  8 10  1  0
  8  7  1  0
  8  9  1  6
 10 11  2  0
 13 15  1  0
 13 12  1  0
 14 13  2  0
 17 16  1  1
 16 15  1  0
 18 17  1  0
 18 10  1  0
 19 20  2  0
 19 17  1  0
 21 19  1  0
 22 27  1  0
 22 21  1  0
 22 23  1  1
 24 25  1  0
 24 23  1  0
 25 26  2  0
 27 30  1  0
 28 27  2  0
 29 25  1  0
M  END
$$$$
