RQE.pdb
     RDKit          3D

 30 29  0  0  1  0  0  0  0  0999 V2000
   28.8477  -22.2127  -15.4102 N   0  0  0  0  0  0  0  0  0  0  0  0
   29.6903  -22.4569  -16.5311 C   0  0  0  0  0  0  0  0  0  0  0  0
   30.3668  -23.5485  -16.5777 N   0  0  0  0  0  0  0  0  0  0  0  0
   29.7805  -21.5075  -17.5853 N   0  0  0  0  0  0  0  0  0  0  0  0
   28.5446  -20.8780  -18.0386 C   0  0  0  0  0  0  0  0  0  0  0  0
   28.0253  -19.9257  -17.0142 C   0  0  0  0  0  0  0  0  0  0  0  0
   26.5390  -19.9836  -16.9275 C   0  0  0  0  0  0  0  0  0  0  0  0
   26.0560  -21.4089  -16.8912 C   0  0  2  0  0  0  0  0  0  0  0  0
   25.3055  -21.6272  -18.1083 N   0  0  0  0  0  0  0  0  0  0  0  0
   25.0918  -21.6001  -15.7453 C   0  0  0  0  0  0  0  0  0  0  0  0
   23.9733  -22.1027  -15.9740 O   0  0  0  0  0  0  0  0  0  0  0  0
   31.0485  -23.7841  -17.3050 N   0  0  0  0  0  0  0  0  0  0  0  0
   26.5373  -20.5052   -9.9325 C   0  0  0  0  0  0  0  0  0  0  0  0
   25.1717  -20.8215   -9.6427 O   0  0  0  0  0  0  0  0  0  0  0  0
   24.8053  -20.8520   -8.4643 C   0  0  0  0  0  0  0  0  0  0  0  0
   24.2515  -21.1020  -10.8115 C   0  0  0  0  0  0  0  0  0  0  0  0
   25.0925  -21.0274  -12.0218 C   0  0  1  0  0  0  0  0  0  0  0  0
   24.4328  -21.4418  -13.3223 N   0  0  0  0  0  0  0  0  0  0  0  0
   25.4001  -21.2340  -14.4229 C   0  0  0  0  0  0  0  0  0  0  0  0
   23.2501  -20.5728  -13.5199 O   0  0  0  0  0  0  0  0  0  0  0  0
   23.4117  -19.3479  -13.6548 N   0  0  0  0  0  0  0  0  0  0  0  0
   21.9099  -21.0729  -13.5666 C   0  0  1  0  0  0  0  0  0  0  0  0
   20.7610  -20.1850  -13.7259 C   0  0  0  0  0  0  0  0  0  0  0  0
   20.3601  -20.2330  -15.1533 C   0  0  0  0  0  0  0  0  0  0  0  0
   19.1752  -19.4762  -15.5890 C   0  0  0  0  0  0  0  0  0  0  0  0
   18.7583  -19.5755  -16.9801 O   0  0  0  0  0  0  0  0  0  0  0  0
   18.3638  -20.5808  -17.6054 C   0  0  0  0  0  0  0  0  0  0  0  0
   19.7365  -20.3106  -12.7072 O   0  0  0  0  0  0  0  0  0  0  0  0
   19.5785  -21.4284  -12.1301 O   0  0  0  0  0  0  0  0  0  0  0  0
   18.8096  -18.3643  -17.7194 O   0  0  0  0  0  0  0  0  0  0  0  0
  1  2  1  0
  2  3  2  0
  4  5  1  0
  4  2  1  0
  6  5  1  0
  7  6  1  0
  8 10  1  0
  8  7  1  0
  8  9  1  6
 10 11  2  0
 13 15  1  0
 13 12  1  0
 14 13  2  0
 17 16  1  1
 16 15  1  0
 18 17  1  0
 18 10  1  0
 19 20  2  0
 19 17  1  0
 21 19  1  0
 22 27  1  0
 22 21  1  0
 22 23  1  1
 24 25  1  0
 24 23  1  0
 25 26  2  0
 27 30  1  0
 28 27  2  0
 29 25  1  0
M  END
$$$$
