RQE.pdb
     RDKit          3D

 30 29  0  0  1  0  0  0  0  0999 V2000
   31.7519  -22.4332  -11.0989 N   0  0  0  0  0  0  0  0  0  0  0  0
   30.5810  -22.2921  -10.3019 C   0  0  0  0  0  0  0  0  0  0  0  0
   30.7058  -22.0991   -9.0375 N   0  0  0  0  0  0  0  0  0  0  0  0
   29.2917  -22.3615  -10.8966 N   0  0  0  0  0  0  0  0  0  0  0  0
   29.1175  -21.7526  -12.2110 C   0  0  0  0  0  0  0  0  0  0  0  0
   29.3239  -20.2765  -12.1457 C   0  0  0  0  0  0  0  0  0  0  0  0
   28.2142  -19.5457  -12.8197 C   0  0  0  0  0  0  0  0  0  0  0  0
   27.1321  -20.4952  -13.2597 C   0  0  2  0  0  0  0  0  0  0  0  0
   27.6833  -21.2868  -14.3376 N   0  0  0  0  0  0  0  0  0  0  0  0
   25.9695  -19.7241  -13.8369 C   0  0  0  0  0  0  0  0  0  0  0  0
   25.4000  -18.8694  -13.1291 O   0  0  0  0  0  0  0  0  0  0  0  0
   29.9267  -22.0322   -8.3758 N   0  0  0  0  0  0  0  0  0  0  0  0
   24.4446  -19.8726  -19.7141 C   0  0  0  0  0  0  0  0  0  0  0  0
   23.3620  -19.0100  -19.3497 O   0  0  0  0  0  0  0  0  0  0  0  0
   22.5909  -18.6186  -20.2307 C   0  0  0  0  0  0  0  0  0  0  0  0
   23.2283  -18.6269  -17.8914 C   0  0  0  0  0  0  0  0  0  0  0  0
   24.2773  -19.3763  -17.1733 C   0  0  2  0  0  0  0  0  0  0  0  0
   24.3427  -19.1663  -15.6734 N   0  0  0  0  0  0  0  0  0  0  0  0
   25.4966  -19.9279  -15.1457 C   0  0  0  0  0  0  0  0  0  0  0  0
   23.0850  -19.6909  -15.0937 O   0  0  0  0  0  0  0  0  0  0  0  0
   22.9702  -20.9124  -14.8954 N   0  0  0  0  0  0  0  0  0  0  0  0
   21.9769  -18.8561  -14.7418 C   0  0  2  0  0  0  0  0  0  0  0  0
   20.7729  -19.3966  -14.1158 C   0  0  0  0  0  0  0  0  0  0  0  0
   19.8871  -18.2498  -13.7981 C   0  0  0  0  0  0  0  0  0  0  0  0
   18.5909  -18.5058  -13.1494 C   0  0  0  0  0  0  0  0  0  0  0  0
   17.6482  -17.4044  -13.0188 O   0  0  0  0  0  0  0  0  0  0  0  0
   17.7899  -16.2127  -13.3609 C   0  0  0  0  0  0  0  0  0  0  0  0
   20.2042  -20.5591  -14.7703 O   0  0  0  0  0  0  0  0  0  0  0  0
   20.1188  -20.5708  -16.0352 O   0  0  0  0  0  0  0  0  0  0  0  0
   16.4032  -17.7357  -12.4217 O   0  0  0  0  0  0  0  0  0  0  0  0
  1  2  1  0
  2  3  2  0
  4  5  1  0
  4  2  1  0
  6  5  1  0
  7  6  1  0
  8 10  1  0
  8  7  1  0
  8  9  1  6
 10 11  2  0
 13 15  1  0
 13 12  1  0
 14 13  2  0
 17 16  1  6
 16 15  1  0
 18 17  1  0
 18 10  1  0
 19 20  2  0
 19 17  1  0
 21 19  1  0
 22 27  1  0
 22 21  1  0
 22 23  1  6
 24 25  1  0
 24 23  1  0
 25 26  2  0
 27 30  1  0
 28 27  2  0
 29 25  1  0
M  END
$$$$
