IYS.pdb
     RDKit          3D

 27 27  0  0  1  0  0  0  0  0999 V2000
    7.0819  -16.6757   17.6298 C   0  0  0  0  0  0  0  0  0  0  0  0
    7.1828  -15.3609   18.3464 C   0  0  0  0  0  0  0  0  0  0  0  0
    7.4942  -15.5192   19.8144 C   0  0  2  0  0  0  0  0  0  0  0  0
    6.6428  -16.5485   20.4814 C   0  0  0  0  0  0  0  0  0  0  0  0
    7.4630  -14.1907   20.5026 C   0  0  2  0  0  0  0  0  0  0  0  0
    7.8478  -13.1594   19.5831 N   0  0  0  0  0  0  0  0  0  0  0  0
    8.2961  -14.1997   21.7311 C   0  0  0  0  0  0  0  0  0  0  0  0
    9.5455  -14.0807   21.6569 O   0  0  0  0  0  0  0  0  0  0  0  0
   10.8279  -15.0234   30.1783 O   0  0  0  0  0  0  0  0  0  0  0  0
   10.0617  -14.9175   29.0350 C   0  0  0  0  0  0  0  0  0  0  0  0
    9.9205  -13.6572   28.4683 C   0  0  0  0  0  0  0  0  0  0  0  0
    9.1667  -13.4960   27.3272 C   0  0  0  0  0  0  0  0  0  0  0  0
    8.5324  -14.5372   26.7045 C   0  0  0  0  0  0  0  0  0  0  0  0
    7.7376  -14.2810   25.4766 C   0  0  0  0  0  0  0  0  0  0  0  0
    8.5676  -14.5003   24.2251 C   0  0  2  0  0  0  0  0  0  0  0  0
    7.7371  -14.3403   23.0277 N   0  0  0  0  0  0  0  0  0  0  0  0
    9.0824  -15.8938   24.2037 C   0  0  0  0  0  0  0  0  0  0  0  0
    8.3378  -16.8938   23.9280 O   0  0  0  0  0  0  0  0  0  0  0  0
    8.6727  -15.7923   27.2682 C   0  0  0  0  0  0  0  0  0  0  0  0
    9.4314  -15.9707   28.4215 C   0  0  0  0  0  0  0  0  0  0  0  0
   11.9979  -18.9506   22.6976 O   0  0  0  0  0  0  0  0  0  0  0  0
   11.4485  -17.6759   22.8723 C   0  0  0  0  0  0  0  0  0  0  0  0
   10.9655  -17.5150   24.2996 C   0  0  2  0  0  0  0  0  0  0  0  0
   10.4443  -16.1815   24.4927 N   0  0  0  0  0  0  0  0  0  0  0  0
   12.0892  -17.7536   25.2449 C   0  0  0  0  0  0  0  0  0  0  0  0
   12.5659  -16.7108   26.0228 O   0  0  0  0  0  0  0  0  0  0  0  0
   12.5788  -18.9012   25.3130 O   0  0  0  0  0  0  0  0  0  0  0  0
  1  2  1  0
  3  4  1  1
  3  2  1  0
  5  6  1  6
  5  3  1  0
  7  5  1  0
  8  7  2  0
  9 10  1  0
 10 11  2  0
 10 20  1  0
 11 12  1  0
 12 13  2  0
 13 14  1  0
 15 14  1  1
 15 16  1  0
 16  7  1  0
 17 18  2  0
 17 15  1  0
 19 13  1  0
 20 19  2  0
 21 22  1  0
 23 22  1  6
 23 24  1  0
 24 17  1  0
 25 23  1  0
 26 25  1  0
 27 25  2  0
M  END
$$$$
