IYS.pdb
     RDKit          3D

 27 27  0  0  1  0  0  0  0  0999 V2000
    7.7476  -16.6628   17.3133 C   0  0  0  0  0  0  0  0  0  0  0  0
    7.4014  -15.5887   18.3025 C   0  0  0  0  0  0  0  0  0  0  0  0
    8.0872  -15.7781   19.6332 C   0  0  2  0  0  0  0  0  0  0  0  0
    7.9495  -17.1663   20.1655 C   0  0  0  0  0  0  0  0  0  0  0  0
    7.6474  -14.7271   20.6035 C   0  0  2  0  0  0  0  0  0  0  0  0
    7.7519  -13.4323   19.9956 N   0  0  0  0  0  0  0  0  0  0  0  0
    8.4008  -14.8211   21.8789 C   0  0  0  0  0  0  0  0  0  0  0  0
    9.5961  -14.4371   21.9450 O   0  0  0  0  0  0  0  0  0  0  0  0
    6.3301   -9.9860   26.7081 O   0  0  0  0  0  0  0  0  0  0  0  0
    6.5693  -11.3149   26.4211 C   0  0  0  0  0  0  0  0  0  0  0  0
    7.8854  -11.6994   26.1988 C   0  0  0  0  0  0  0  0  0  0  0  0
    8.1792  -13.0131   25.9087 C   0  0  0  0  0  0  0  0  0  0  0  0
    7.2199  -13.9863   25.8253 C   0  0  0  0  0  0  0  0  0  0  0  0
    7.6180  -15.3811   25.5076 C   0  0  0  0  0  0  0  0  0  0  0  0
    8.5687  -15.4292   24.3256 C   0  0  2  0  0  0  0  0  0  0  0  0
    7.8227  -15.3391   23.0669 N   0  0  0  0  0  0  0  0  0  0  0  0
    9.2792  -16.7339   24.3075 C   0  0  0  0  0  0  0  0  0  0  0  0
    8.6817  -17.8346   24.0590 O   0  0  0  0  0  0  0  0  0  0  0  0
    5.9093  -13.6041   26.0465 C   0  0  0  0  0  0  0  0  0  0  0  0
    5.5970  -12.2798   26.3407 C   0  0  0  0  0  0  0  0  0  0  0  0
   12.2983  -17.5572   22.4463 O   0  0  0  0  0  0  0  0  0  0  0  0
   12.6054  -18.0160   23.7318 C   0  0  0  0  0  0  0  0  0  0  0  0
   11.3418  -18.0989   24.5641 C   0  0  2  0  0  0  0  0  0  0  0  0
   10.6740  -16.8179   24.5694 N   0  0  0  0  0  0  0  0  0  0  0  0
   11.6784  -18.4924   25.9587 C   0  0  0  0  0  0  0  0  0  0  0  0
   11.2395  -17.7133   27.0173 O   0  0  0  0  0  0  0  0  0  0  0  0
   12.3556  -19.5266   26.1405 O   0  0  0  0  0  0  0  0  0  0  0  0
  1  2  1  0
  3  4  1  1
  3  2  1  0
  5  6  1  6
  5  3  1  0
  7  5  1  0
  8  7  2  0
  9 10  1  0
 10 11  2  0
 10 20  1  0
 11 12  1  0
 12 13  2  0
 13 14  1  0
 15 14  1  1
 15 16  1  0
 16  7  1  0
 17 18  2  0
 17 15  1  0
 19 13  1  0
 20 19  2  0
 21 22  1  0
 23 22  1  6
 23 24  1  0
 24 17  1  0
 25 23  1  0
 26 25  1  0
 27 25  2  0
M  END
$$$$
