IYS.pdb
     RDKit          3D

 27 27  0  0  1  0  0  0  0  0999 V2000
    9.0761  -12.6573   18.6891 C   0  0  0  0  0  0  0  0  0  0  0  0
    8.8821  -13.7900   19.6542 C   0  0  0  0  0  0  0  0  0  0  0  0
    7.4937  -13.8222   20.2444 C   0  0  2  0  0  0  0  0  0  0  0  0
    7.1205  -12.5451   20.9219 C   0  0  0  0  0  0  0  0  0  0  0  0
    7.3233  -15.0256   21.1173 C   0  0  2  0  0  0  0  0  0  0  0  0
    5.9319  -15.2237   21.4036 N   0  0  0  0  0  0  0  0  0  0  0  0
    8.1495  -14.9222   22.3461 C   0  0  0  0  0  0  0  0  0  0  0  0
    8.4745  -13.7976   22.8050 O   0  0  0  0  0  0  0  0  0  0  0  0
    5.9037  -11.3256   26.7209 O   0  0  0  0  0  0  0  0  0  0  0  0
    6.6592  -12.4477   26.4462 C   0  0  0  0  0  0  0  0  0  0  0  0
    5.9986  -13.5629   25.9467 C   0  0  0  0  0  0  0  0  0  0  0  0
    6.7050  -14.7086   25.6557 C   0  0  0  0  0  0  0  0  0  0  0  0
    8.0581  -14.8112   25.8365 C   0  0  0  0  0  0  0  0  0  0  0  0
    8.7474  -16.0822   25.4986 C   0  0  0  0  0  0  0  0  0  0  0  0
    9.5184  -15.9640   24.1968 C   0  0  2  0  0  0  0  0  0  0  0  0
    8.6068  -16.0644   23.0531 N   0  0  0  0  0  0  0  0  0  0  0  0
   10.4768  -17.0931   24.0783 C   0  0  0  0  0  0  0  0  0  0  0  0
   10.0991  -18.3127   24.0708 O   0  0  0  0  0  0  0  0  0  0  0  0
    8.7165  -13.7012   26.3338 C   0  0  0  0  0  0  0  0  0  0  0  0
    8.0158  -12.5361   26.6325 C   0  0  0  0  0  0  0  0  0  0  0  0
   14.0331  -16.6556   22.2762 O   0  0  0  0  0  0  0  0  0  0  0  0
   13.4613  -17.9178   22.4688 C   0  0  0  0  0  0  0  0  0  0  0  0
   12.7875  -17.9760   23.8249 C   0  0  2  0  0  0  0  0  0  0  0  0
   11.8755  -16.8646   23.9666 N   0  0  0  0  0  0  0  0  0  0  0  0
   13.8118  -17.9220   24.9025 C   0  0  0  0  0  0  0  0  0  0  0  0
   14.7810  -18.9092   24.9793 O   0  0  0  0  0  0  0  0  0  0  0  0
   13.7704  -16.9769   25.7189 O   0  0  0  0  0  0  0  0  0  0  0  0
  1  2  1  0
  3  4  1  1
  3  2  1  0
  5  6  1  1
  5  3  1  0
  7  5  1  0
  8  7  2  0
  9 10  1  0
 10 11  2  0
 10 20  1  0
 11 12  1  0
 12 13  2  0
 13 14  1  0
 15 14  1  1
 15 16  1  0
 16  7  1  0
 17 18  2  0
 17 15  1  0
 19 13  1  0
 20 19  2  0
 21 22  1  0
 23 22  1  6
 23 24  1  0
 24 17  1  0
 25 23  1  0
 26 25  1  0
 27 25  2  0
M  END
$$$$
