IYS.pdb
     RDKit          3D

 27 27  0  0  1  0  0  0  0  0999 V2000
    8.2384  -11.8452   19.9048 C   0  0  0  0  0  0  0  0  0  0  0  0
    8.0576  -13.1368   20.6473 C   0  0  0  0  0  0  0  0  0  0  0  0
    8.4598  -14.3402   19.8307 C   0  0  2  0  0  0  0  0  0  0  0  0
    7.7721  -14.4004   18.5068 C   0  0  0  0  0  0  0  0  0  0  0  0
    8.3058  -15.5935   20.6338 C   0  0  2  0  0  0  0  0  0  0  0  0
    6.9132  -15.8781   20.8255 N   0  0  0  0  0  0  0  0  0  0  0  0
    9.0524  -15.5091   21.9139 C   0  0  0  0  0  0  0  0  0  0  0  0
   10.3034  -15.3841   21.9171 O   0  0  0  0  0  0  0  0  0  0  0  0
   10.8932  -14.9589   30.5505 O   0  0  0  0  0  0  0  0  0  0  0  0
   10.2538  -14.8867   29.3294 C   0  0  0  0  0  0  0  0  0  0  0  0
    9.7587  -16.0674   28.7904 C   0  0  0  0  0  0  0  0  0  0  0  0
    9.1122  -16.0513   27.5746 C   0  0  0  0  0  0  0  0  0  0  0  0
    8.9260  -14.9054   26.8491 C   0  0  0  0  0  0  0  0  0  0  0  0
    8.2183  -14.9714   25.5454 C   0  0  0  0  0  0  0  0  0  0  0  0
    9.1420  -15.4447   24.4382 C   0  0  2  0  0  0  0  0  0  0  0  0
    8.4061  -15.5641   23.1760 N   0  0  0  0  0  0  0  0  0  0  0  0
    9.6568  -16.8004   24.7613 C   0  0  0  0  0  0  0  0  0  0  0  0
    8.8964  -17.8244   24.8213 O   0  0  0  0  0  0  0  0  0  0  0  0
    9.4187  -13.7295   27.3851 C   0  0  0  0  0  0  0  0  0  0  0  0
   10.0743  -13.7301   28.6131 C   0  0  0  0  0  0  0  0  0  0  0  0
   12.1006  -19.7574   22.8570 O   0  0  0  0  0  0  0  0  0  0  0  0
   11.4266  -18.5837   23.2111 C   0  0  0  0  0  0  0  0  0  0  0  0
   11.6497  -18.2854   24.6800 C   0  0  2  0  0  0  0  0  0  0  0  0
   11.0366  -17.0228   25.0217 N   0  0  0  0  0  0  0  0  0  0  0  0
   13.1078  -18.2271   24.9695 C   0  0  0  0  0  0  0  0  0  0  0  0
   13.6689  -17.0496   25.4371 O   0  0  0  0  0  0  0  0  0  0  0  0
   13.7955  -19.2532   24.7811 O   0  0  0  0  0  0  0  0  0  0  0  0
  1  2  1  0
  3  4  1  6
  3  2  1  0
  5  6  1  1
  5  3  1  0
  7  5  1  0
  8  7  2  0
  9 10  1  0
 10 11  2  0
 10 20  1  0
 11 12  1  0
 12 13  2  0
 13 14  1  0
 15 14  1  1
 15 16  1  0
 16  7  1  0
 17 18  2  0
 17 15  1  0
 19 13  1  0
 20 19  2  0
 21 22  1  0
 23 22  1  6
 23 24  1  0
 24 17  1  0
 25 23  1  0
 26 25  1  0
 27 25  2  0
M  END
$$$$
