IYS.pdb
     RDKit          3D

 27 27  0  0  1  0  0  0  0  0999 V2000
   10.6040  -14.7259   29.7809 C   0  0  0  0  0  0  0  0  0  0  0  0
    9.4920  -15.5517   29.2031 C   0  0  0  0  0  0  0  0  0  0  0  0
    9.4773  -15.5362   27.6943 C   0  0  2  0  0  0  0  0  0  0  0  0
    9.6205  -14.1631   27.1258 C   0  0  0  0  0  0  0  0  0  0  0  0
    8.2803  -16.2689   27.1747 C   0  0  2  0  0  0  0  0  0  0  0  0
    8.2426  -17.5908   27.7297 N   0  0  0  0  0  0  0  0  0  0  0  0
    8.2520  -16.2721   25.6906 C   0  0  0  0  0  0  0  0  0  0  0  0
    8.6042  -17.2931   25.0469 O   0  0  0  0  0  0  0  0  0  0  0  0
    7.4897  -13.7008   17.2736 O   0  0  0  0  0  0  0  0  0  0  0  0
    7.4930  -13.6814   18.6538 C   0  0  0  0  0  0  0  0  0  0  0  0
    6.5968  -14.5138   19.3121 C   0  0  0  0  0  0  0  0  0  0  0  0
    6.5588  -14.5332   20.6885 C   0  0  0  0  0  0  0  0  0  0  0  0
    7.3775  -13.7567   21.4637 C   0  0  0  0  0  0  0  0  0  0  0  0
    7.2751  -13.8352   22.9430 C   0  0  0  0  0  0  0  0  0  0  0  0
    7.8667  -15.1295   23.4703 C   0  0  2  0  0  0  0  0  0  0  0  0
    7.8343  -15.1455   24.9357 N   0  0  0  0  0  0  0  0  0  0  0  0
    9.2956  -15.2244   23.0745 C   0  0  0  0  0  0  0  0  0  0  0  0
   10.2159  -14.5728   23.6735 O   0  0  0  0  0  0  0  0  0  0  0  0
    8.2700  -12.9277   20.8089 C   0  0  0  0  0  0  0  0  0  0  0  0
    8.3200  -12.8973   19.4181 C   0  0  0  0  0  0  0  0  0  0  0  0
   12.8593  -17.8746   21.7645 O   0  0  0  0  0  0  0  0  0  0  0  0
   11.5347  -17.6401   22.1487 C   0  0  0  0  0  0  0  0  0  0  0  0
   11.1140  -16.2481   21.7222 C   0  0  2  0  0  0  0  0  0  0  0  0
    9.7091  -16.0554   21.9975 N   0  0  0  0  0  0  0  0  0  0  0  0
   11.3675  -16.0655   20.2677 C   0  0  0  0  0  0  0  0  0  0  0  0
   12.6676  -16.0865   19.7888 O   0  0  0  0  0  0  0  0  0  0  0  0
   10.3901  -15.8961   19.5078 O   0  0  0  0  0  0  0  0  0  0  0  0
  1  2  1  0
  3  4  1  1
  3  2  1  0
  5  6  1  6
  5  3  1  0
  7  5  1  0
  8  7  2  0
  9 10  1  0
 10 11  2  0
 10 20  1  0
 11 12  1  0
 12 13  2  0
 13 14  1  0
 15 14  1  1
 15 16  1  0
 16  7  1  0
 17 18  2  0
 17 15  1  0
 19 13  1  0
 20 19  2  0
 21 22  1  0
 23 22  1  6
 23 24  1  0
 24 17  1  0
 25 23  1  0
 26 25  1  0
 27 25  2  0
M  END
$$$$
