IYS.pdb
     RDKit          3D

 27 27  0  0  1  0  0  0  0  0999 V2000
    6.3419  -13.3216   19.7512 C   0  0  0  0  0  0  0  0  0  0  0  0
    7.2720  -13.5622   18.5983 C   0  0  0  0  0  0  0  0  0  0  0  0
    8.5977  -14.1401   19.0291 C   0  0  2  0  0  0  0  0  0  0  0  0
    9.2562  -13.3436   20.1066 C   0  0  0  0  0  0  0  0  0  0  0  0
    9.4793  -14.3704   17.8420 C   0  0  2  0  0  0  0  0  0  0  0  0
    8.7732  -15.1349   16.8550 N   0  0  0  0  0  0  0  0  0  0  0  0
   10.7645  -14.9983   18.2381 C   0  0  0  0  0  0  0  0  0  0  0  0
   10.8790  -16.2498   18.2777 O   0  0  0  0  0  0  0  0  0  0  0  0
   19.1082  -16.2385   20.8470 O   0  0  0  0  0  0  0  0  0  0  0  0
   17.9319  -15.6240   20.4675 C   0  0  0  0  0  0  0  0  0  0  0  0
   17.4315  -15.9142   19.2046 C   0  0  0  0  0  0  0  0  0  0  0  0
   16.2612  -15.3281   18.7764 C   0  0  0  0  0  0  0  0  0  0  0  0
   15.5454  -14.4523   19.5475 C   0  0  0  0  0  0  0  0  0  0  0  0
   14.2918  -13.8623   19.0132 C   0  0  0  0  0  0  0  0  0  0  0  0
   13.1440  -14.8532   19.0756 C   0  0  2  0  0  0  0  0  0  0  0  0
   11.9086  -14.2343   18.5860 N   0  0  0  0  0  0  0  0  0  0  0  0
   12.8951  -15.2426   20.4876 C   0  0  0  0  0  0  0  0  0  0  0  0
   12.4617  -14.4159   21.3588 O   0  0  0  0  0  0  0  0  0  0  0  0
   16.0431  -14.1629   20.8050 C   0  0  0  0  0  0  0  0  0  0  0  0
   17.2248  -14.7476   21.2516 C   0  0  0  0  0  0  0  0  0  0  0  0
   12.5925  -19.1858   21.4460 O   0  0  0  0  0  0  0  0  0  0  0  0
   11.9525  -18.2338   22.2468 C   0  0  0  0  0  0  0  0  0  0  0  0
   12.7701  -16.9584   22.2831 C   0  0  2  0  0  0  0  0  0  0  0  0
   13.1310  -16.5698   20.9393 N   0  0  0  0  0  0  0  0  0  0  0  0
   14.0021  -17.1691   23.0899 C   0  0  0  0  0  0  0  0  0  0  0  0
   13.9029  -17.3576   24.4590 O   0  0  0  0  0  0  0  0  0  0  0  0
   15.1062  -17.1703   22.5048 O   0  0  0  0  0  0  0  0  0  0  0  0
  1  2  1  0
  3  4  1  1
  3  2  1  0
  5  6  1  6
  5  3  1  0
  7  5  1  0
  8  7  2  0
  9 10  1  0
 10 11  2  0
 10 20  1  0
 11 12  1  0
 12 13  2  0
 13 14  1  0
 15 14  1  1
 15 16  1  0
 16  7  1  0
 17 18  2  0
 17 15  1  0
 19 13  1  0
 20 19  2  0
 21 22  1  0
 23 22  1  6
 23 24  1  0
 24 17  1  0
 25 23  1  0
 26 25  1  0
 27 25  2  0
M  END
$$$$
