IYS.pdb
     RDKit          3D

 27 27  0  0  1  0  0  0  0  0999 V2000
    7.6153  -16.7218   17.2755 C   0  0  0  0  0  0  0  0  0  0  0  0
    7.5074  -15.6043   18.2715 C   0  0  0  0  0  0  0  0  0  0  0  0
    8.1254  -15.9492   19.6043 C   0  0  2  0  0  0  0  0  0  0  0  0
    7.7274  -17.3013   20.0969 C   0  0  0  0  0  0  0  0  0  0  0  0
    7.8697  -14.8597   20.5977 C   0  0  2  0  0  0  0  0  0  0  0  0
    8.1984  -13.5892   20.0190 N   0  0  0  0  0  0  0  0  0  0  0  0
    8.5905  -15.1103   21.8708 C   0  0  0  0  0  0  0  0  0  0  0  0
    9.8271  -14.9002   21.9572 O   0  0  0  0  0  0  0  0  0  0  0  0
    6.2437  -10.2425   26.4742 O   0  0  0  0  0  0  0  0  0  0  0  0
    6.6616  -11.5389   26.2504 C   0  0  0  0  0  0  0  0  0  0  0  0
    5.7159  -12.4526   25.8028 C   0  0  0  0  0  0  0  0  0  0  0  0
    6.0800  -13.7591   25.5640 C   0  0  0  0  0  0  0  0  0  0  0  0
    7.3563  -14.2185   25.7485 C   0  0  0  0  0  0  0  0  0  0  0  0
    7.6692  -15.6428   25.4686 C   0  0  0  0  0  0  0  0  0  0  0  0
    8.6366  -15.7784   24.3071 C   0  0  2  0  0  0  0  0  0  0  0  0
    7.9347  -15.5906   23.0340 N   0  0  0  0  0  0  0  0  0  0  0  0
    9.2011  -17.1525   24.2839 C   0  0  0  0  0  0  0  0  0  0  0  0
    8.5960  -18.1313   23.7306 O   0  0  0  0  0  0  0  0  0  0  0  0
    8.2983  -13.3092   26.1941 C   0  0  0  0  0  0  0  0  0  0  0  0
    7.9452  -11.9853   26.4398 C   0  0  0  0  0  0  0  0  0  0  0  0
   12.3859  -18.2237   22.7881 O   0  0  0  0  0  0  0  0  0  0  0  0
   11.3096  -18.9986   23.2334 C   0  0  0  0  0  0  0  0  0  0  0  0
   11.0659  -18.7423   24.7069 C   0  0  2  0  0  0  0  0  0  0  0  0
   10.4565  -17.4445   24.8839 N   0  0  0  0  0  0  0  0  0  0  0  0
   12.3535  -18.7949   25.4502 C   0  0  0  0  0  0  0  0  0  0  0  0
   12.7526  -17.7077   26.2109 O   0  0  0  0  0  0  0  0  0  0  0  0
   13.0487  -19.8299   25.3679 O   0  0  0  0  0  0  0  0  0  0  0  0
  1  2  1  0
  3  4  1  1
  3  2  1  0
  5  6  1  6
  5  3  1  0
  7  5  1  0
  8  7  2  0
  9 10  1  0
 10 11  2  0
 10 20  1  0
 11 12  1  0
 12 13  2  0
 13 14  1  0
 15 14  1  1
 15 16  1  0
 16  7  1  0
 17 18  2  0
 17 15  1  0
 19 13  1  0
 20 19  2  0
 21 22  1  0
 23 22  1  6
 23 24  1  0
 24 17  1  0
 25 23  1  0
 26 25  1  0
 27 25  2  0
M  END
$$$$
