IYS.pdb
     RDKit          3D

 27 27  0  0  1  0  0  0  0  0999 V2000
    8.6849  -12.1100   19.6669 C   0  0  0  0  0  0  0  0  0  0  0  0
    7.9674  -12.9602   20.6741 C   0  0  0  0  0  0  0  0  0  0  0  0
    8.0384  -14.4325   20.3510 C   0  0  2  0  0  0  0  0  0  0  0  0
    7.5938  -14.7443   18.9602 C   0  0  0  0  0  0  0  0  0  0  0  0
    7.3224  -15.2326   21.3934 C   0  0  2  0  0  0  0  0  0  0  0  0
    5.9362  -14.8653   21.4190 N   0  0  0  0  0  0  0  0  0  0  0  0
    7.9735  -15.0957   22.7203 C   0  0  0  0  0  0  0  0  0  0  0  0
    8.1083  -13.9646   23.2524 O   0  0  0  0  0  0  0  0  0  0  0  0
    6.2636  -10.7955   26.8950 O   0  0  0  0  0  0  0  0  0  0  0  0
    6.6243  -12.0996   26.6218 C   0  0  0  0  0  0  0  0  0  0  0  0
    7.9557  -12.4516   26.8034 C   0  0  0  0  0  0  0  0  0  0  0  0
    8.3687  -13.7396   26.5453 C   0  0  0  0  0  0  0  0  0  0  0  0
    7.5165  -14.7178   26.1079 C   0  0  0  0  0  0  0  0  0  0  0  0
    8.0398  -16.0836   25.8518 C   0  0  0  0  0  0  0  0  0  0  0  0
    9.0952  -16.0758   24.7612 C   0  0  2  0  0  0  0  0  0  0  0  0
    8.4681  -16.2121   23.4433 N   0  0  0  0  0  0  0  0  0  0  0  0
    9.9957  -17.2457   24.9278 C   0  0  0  0  0  0  0  0  0  0  0  0
    9.6234  -18.4383   24.6643 O   0  0  0  0  0  0  0  0  0  0  0  0
    6.1908  -14.3680   25.9268 C   0  0  0  0  0  0  0  0  0  0  0  0
    5.7585  -13.0700   26.1837 C   0  0  0  0  0  0  0  0  0  0  0  0
   13.9983  -16.6676   25.1675 O   0  0  0  0  0  0  0  0  0  0  0  0
   13.5144  -17.9109   24.7465 C   0  0  0  0  0  0  0  0  0  0  0  0
   12.2169  -18.2273   25.4626 C   0  0  2  0  0  0  0  0  0  0  0  0
   11.3296  -17.0894   25.3940 N   0  0  0  0  0  0  0  0  0  0  0  0
   12.4920  -18.5609   26.8861 C   0  0  0  0  0  0  0  0  0  0  0  0
   13.3387  -19.6137   27.1938 O   0  0  0  0  0  0  0  0  0  0  0  0
   11.9460  -17.8750   27.7765 O   0  0  0  0  0  0  0  0  0  0  0  0
  1  2  1  0
  3  4  1  6
  3  2  1  0
  5  6  1  1
  5  3  1  0
  7  5  1  0
  8  7  2  0
  9 10  1  0
 10 11  2  0
 10 20  1  0
 11 12  1  0
 12 13  2  0
 13 14  1  0
 15 14  1  1
 15 16  1  0
 16  7  1  0
 17 18  2  0
 17 15  1  0
 19 13  1  0
 20 19  2  0
 21 22  1  0
 23 22  1  6
 23 24  1  0
 24 17  1  0
 25 23  1  0
 26 25  1  0
 27 25  2  0
M  END
$$$$
