IYS.pdb
     RDKit          3D

 27 27  0  0  1  0  0  0  0  0999 V2000
    7.0241  -16.3058   17.3546 C   0  0  0  0  0  0  0  0  0  0  0  0
    7.0075  -15.0668   18.2013 C   0  0  0  0  0  0  0  0  0  0  0  0
    7.7268  -15.2486   19.5153 C   0  0  2  0  0  0  0  0  0  0  0  0
    7.3129  -16.4879   20.2378 C   0  0  0  0  0  0  0  0  0  0  0  0
    7.6127  -14.0121   20.3503 C   0  0  2  0  0  0  0  0  0  0  0  0
    7.9870  -12.8662   19.5731 N   0  0  0  0  0  0  0  0  0  0  0  0
    8.3987  -14.1329   21.6037 C   0  0  0  0  0  0  0  0  0  0  0  0
    9.6550  -14.0898   21.5769 O   0  0  0  0  0  0  0  0  0  0  0  0
   10.4654  -15.0839   30.1695 O   0  0  0  0  0  0  0  0  0  0  0  0
    9.8155  -14.7789   28.9906 C   0  0  0  0  0  0  0  0  0  0  0  0
    9.0850  -15.7889   28.3775 C   0  0  0  0  0  0  0  0  0  0  0  0
    8.4175  -15.5379   27.1994 C   0  0  0  0  0  0  0  0  0  0  0  0
    8.4350  -14.3155   26.5834 C   0  0  0  0  0  0  0  0  0  0  0  0
    7.6889  -14.1249   25.3138 C   0  0  0  0  0  0  0  0  0  0  0  0
    8.5644  -14.4163   24.1089 C   0  0  2  0  0  0  0  0  0  0  0  0
    7.7856  -14.3002   22.8724 N   0  0  0  0  0  0  0  0  0  0  0  0
    9.0549  -15.8172   24.1738 C   0  0  0  0  0  0  0  0  0  0  0  0
    8.2641  -16.8197   24.1674 O   0  0  0  0  0  0  0  0  0  0  0  0
    9.1621  -13.3095   27.1933 C   0  0  0  0  0  0  0  0  0  0  0  0
    9.8419  -13.5482   28.3844 C   0  0  0  0  0  0  0  0  0  0  0  0
   12.7936  -16.7871   22.9813 O   0  0  0  0  0  0  0  0  0  0  0  0
   11.7733  -17.7420   23.0484 C   0  0  0  0  0  0  0  0  0  0  0  0
   10.9020  -17.4798   24.2602 C   0  0  2  0  0  0  0  0  0  0  0  0
   10.4443  -16.1096   24.2469 N   0  0  0  0  0  0  0  0  0  0  0  0
   11.6751  -17.7358   25.5052 C   0  0  0  0  0  0  0  0  0  0  0  0
   12.2187  -18.9902   25.7307 O   0  0  0  0  0  0  0  0  0  0  0  0
   11.8152  -16.8022   26.3238 O   0  0  0  0  0  0  0  0  0  0  0  0
  1  2  1  0
  3  4  1  1
  3  2  1  0
  5  6  1  6
  5  3  1  0
  7  5  1  0
  8  7  2  0
  9 10  1  0
 10 11  2  0
 10 20  1  0
 11 12  1  0
 12 13  2  0
 13 14  1  0
 15 14  1  1
 15 16  1  0
 16  7  1  0
 17 18  2  0
 17 15  1  0
 19 13  1  0
 20 19  2  0
 21 22  1  0
 23 22  1  6
 23 24  1  0
 24 17  1  0
 25 23  1  0
 26 25  1  0
 27 25  2  0
M  END
$$$$
