IYS.pdb
     RDKit          3D

 27 27  0  0  1  0  0  0  0  0999 V2000
   10.2537  -14.4859   30.1932 C   0  0  0  0  0  0  0  0  0  0  0  0
    9.2985  -15.4455   29.5459 C   0  0  0  0  0  0  0  0  0  0  0  0
    9.3476  -15.3899   28.0388 C   0  0  2  0  0  0  0  0  0  0  0  0
    9.3507  -13.9942   27.5085 C   0  0  0  0  0  0  0  0  0  0  0  0
    8.2703  -16.2440   27.4478 C   0  0  2  0  0  0  0  0  0  0  0  0
    8.3235  -17.5574   28.0216 N   0  0  0  0  0  0  0  0  0  0  0  0
    8.3505  -16.2652   25.9658 C   0  0  0  0  0  0  0  0  0  0  0  0
    8.8850  -17.2338   25.3684 O   0  0  0  0  0  0  0  0  0  0  0  0
    7.8182  -13.7485   17.4705 O   0  0  0  0  0  0  0  0  0  0  0  0
    7.6301  -13.8718   18.8324 C   0  0  0  0  0  0  0  0  0  0  0  0
    8.3131  -12.9895   19.6598 C   0  0  0  0  0  0  0  0  0  0  0  0
    8.1611  -13.0692   21.0261 C   0  0  0  0  0  0  0  0  0  0  0  0
    7.3525  -13.9947   21.6293 C   0  0  0  0  0  0  0  0  0  0  0  0
    7.2420  -14.0159   23.1100 C   0  0  0  0  0  0  0  0  0  0  0  0
    7.9554  -15.2183   23.7004 C   0  0  2  0  0  0  0  0  0  0  0  0
    7.8385  -15.2141   25.1616 N   0  0  0  0  0  0  0  0  0  0  0  0
    9.4061  -15.1424   23.3886 C   0  0  0  0  0  0  0  0  0  0  0  0
   10.2662  -14.7230   24.2340 O   0  0  0  0  0  0  0  0  0  0  0  0
    6.6722  -14.8735   20.8061 C   0  0  0  0  0  0  0  0  0  0  0  0
    6.8158  -14.8050   19.4232 C   0  0  0  0  0  0  0  0  0  0  0  0
   11.9387  -17.1396   23.9926 O   0  0  0  0  0  0  0  0  0  0  0  0
   11.3980  -17.3521   22.7199 C   0  0  0  0  0  0  0  0  0  0  0  0
   11.2616  -16.0303   21.9915 C   0  0  2  0  0  0  0  0  0  0  0  0
    9.9095  -15.5381   22.1193 N   0  0  0  0  0  0  0  0  0  0  0  0
   11.5944  -16.2081   20.5524 C   0  0  0  0  0  0  0  0  0  0  0  0
   12.9185  -16.1807   20.1450 O   0  0  0  0  0  0  0  0  0  0  0  0
   10.6604  -16.3792   19.7402 O   0  0  0  0  0  0  0  0  0  0  0  0
  1  2  1  0
  3  4  1  1
  3  2  1  0
  5  6  1  1
  5  3  1  0
  7  5  1  0
  8  7  2  0
  9 10  1  0
 10 11  2  0
 10 20  1  0
 11 12  1  0
 12 13  2  0
 13 14  1  0
 15 14  1  6
 15 16  1  0
 16  7  1  0
 17 18  2  0
 17 15  1  0
 19 13  1  0
 20 19  2  0
 21 22  1  0
 23 22  1  1
 23 24  1  0
 24 17  1  0
 25 23  1  0
 26 25  1  0
 27 25  2  0
M  END
$$$$
