IYS.pdb
     RDKit          3D

 27 27  0  0  1  0  0  0  0  0999 V2000
    7.3408  -15.8501   17.0785 C   0  0  0  0  0  0  0  0  0  0  0  0
    7.1617  -14.6766   17.9966 C   0  0  0  0  0  0  0  0  0  0  0  0
    7.8133  -14.8836   19.3418 C   0  0  2  0  0  0  0  0  0  0  0  0
    7.4466  -16.1872   19.9706 C   0  0  0  0  0  0  0  0  0  0  0  0
    7.5624  -13.7071   20.2319 C   0  0  2  0  0  0  0  0  0  0  0  0
    7.8366  -12.4930   19.5192 N   0  0  0  0  0  0  0  0  0  0  0  0
    8.3329  -13.8131   21.4961 C   0  0  0  0  0  0  0  0  0  0  0  0
    9.5891  -13.7631   21.4851 O   0  0  0  0  0  0  0  0  0  0  0  0
   10.3784  -15.1748   30.0078 O   0  0  0  0  0  0  0  0  0  0  0  0
    9.6827  -14.9528   28.8365 C   0  0  0  0  0  0  0  0  0  0  0  0
    9.6925  -13.6653   28.3153 C   0  0  0  0  0  0  0  0  0  0  0  0
    9.0144  -13.3894   27.1489 C   0  0  0  0  0  0  0  0  0  0  0  0
    8.3128  -14.3397   26.4570 C   0  0  0  0  0  0  0  0  0  0  0  0
    7.6073  -13.9624   25.2060 C   0  0  0  0  0  0  0  0  0  0  0  0
    8.4651  -14.2345   23.9839 C   0  0  2  0  0  0  0  0  0  0  0  0
    7.7045  -13.9730   22.7583 N   0  0  0  0  0  0  0  0  0  0  0  0
    8.8473  -15.6698   23.9503 C   0  0  0  0  0  0  0  0  0  0  0  0
    7.9835  -16.6056   23.8577 O   0  0  0  0  0  0  0  0  0  0  0  0
    8.3026  -15.6218   26.9753 C   0  0  0  0  0  0  0  0  0  0  0  0
    8.9834  -15.9157   28.1534 C   0  0  0  0  0  0  0  0  0  0  0  0
   12.4247  -17.0457   22.6312 O   0  0  0  0  0  0  0  0  0  0  0  0
   11.2891  -17.8493   22.7784 C   0  0  0  0  0  0  0  0  0  0  0  0
   10.5549  -17.4747   24.0500 C   0  0  2  0  0  0  0  0  0  0  0  0
   10.2090  -16.0724   24.0206 N   0  0  0  0  0  0  0  0  0  0  0  0
   11.4146  -17.7522   25.2320 C   0  0  0  0  0  0  0  0  0  0  0  0
   11.8816  -19.0375   25.4553 O   0  0  0  0  0  0  0  0  0  0  0  0
   11.6958  -16.8081   26.0008 O   0  0  0  0  0  0  0  0  0  0  0  0
  1  2  1  0
  3  4  1  1
  3  2  1  0
  5  6  1  6
  5  3  1  0
  7  5  1  0
  8  7  2  0
  9 10  1  0
 10 11  2  0
 10 20  1  0
 11 12  1  0
 12 13  2  0
 13 14  1  0
 15 14  1  1
 15 16  1  0
 16  7  1  0
 17 18  2  0
 17 15  1  0
 19 13  1  0
 20 19  2  0
 21 22  1  0
 23 22  1  6
 23 24  1  0
 24 17  1  0
 25 23  1  0
 26 25  1  0
 27 25  2  0
M  END
$$$$
