IYS.pdb
     RDKit          3D

 27 27  0  0  1  0  0  0  0  0999 V2000
    7.6333  -14.5355   21.4428 C   0  0  0  0  0  0  0  0  0  0  0  0
    8.2547  -14.9854   20.1529 C   0  0  0  0  0  0  0  0  0  0  0  0
    8.6103  -13.8344   19.2442 C   0  0  2  0  0  0  0  0  0  0  0  0
    7.4781  -12.8822   19.0422 C   0  0  0  0  0  0  0  0  0  0  0  0
    9.1928  -14.3401   17.9619 C   0  0  2  0  0  0  0  0  0  0  0  0
    8.2492  -15.1984   17.3062 N   0  0  0  0  0  0  0  0  0  0  0  0
   10.5032  -14.9996   18.1876 C   0  0  0  0  0  0  0  0  0  0  0  0
   10.6268  -16.2423   18.0417 O   0  0  0  0  0  0  0  0  0  0  0  0
   19.1141  -16.4806   19.2472 O   0  0  0  0  0  0  0  0  0  0  0  0
   17.8961  -15.8319   19.2148 C   0  0  0  0  0  0  0  0  0  0  0  0
   17.1605  -15.9007   18.0385 C   0  0  0  0  0  0  0  0  0  0  0  0
   15.9387  -15.2711   17.9527 C   0  0  0  0  0  0  0  0  0  0  0  0
   15.3954  -14.5627   18.9905 C   0  0  0  0  0  0  0  0  0  0  0  0
   14.0718  -13.9119   18.8188 C   0  0  0  0  0  0  0  0  0  0  0  0
   12.9495  -14.9336   18.8163 C   0  0  2  0  0  0  0  0  0  0  0  0
   11.6620  -14.2766   18.5722 N   0  0  0  0  0  0  0  0  0  0  0  0
   12.8539  -15.5754   20.1528 C   0  0  0  0  0  0  0  0  0  0  0  0
   12.4082  -14.9579   21.1777 O   0  0  0  0  0  0  0  0  0  0  0  0
   16.1273  -14.4938   20.1620 C   0  0  0  0  0  0  0  0  0  0  0  0
   17.3638  -15.1251   20.2636 C   0  0  0  0  0  0  0  0  0  0  0  0
   12.6702  -19.5452   20.4136 O   0  0  0  0  0  0  0  0  0  0  0  0
   12.2436  -18.7923   21.5129 C   0  0  0  0  0  0  0  0  0  0  0  0
   13.0979  -17.5480   21.6471 C   0  0  2  0  0  0  0  0  0  0  0  0
   13.2592  -16.9230   20.3546 N   0  0  0  0  0  0  0  0  0  0  0  0
   14.4324  -17.9064   22.1984 C   0  0  0  0  0  0  0  0  0  0  0  0
   14.5269  -18.4526   23.4683 O   0  0  0  0  0  0  0  0  0  0  0  0
   15.4439  -17.7031   21.4936 O   0  0  0  0  0  0  0  0  0  0  0  0
  1  2  1  0
  3  4  1  6
  3  2  1  0
  5  6  1  1
  5  3  1  0
  7  5  1  0
  8  7  2  0
  9 10  1  0
 10 11  2  0
 10 20  1  0
 11 12  1  0
 12 13  2  0
 13 14  1  0
 15 14  1  1
 15 16  1  0
 16  7  1  0
 17 18  2  0
 17 15  1  0
 19 13  1  0
 20 19  2  0
 21 22  1  0
 23 22  1  6
 23 24  1  0
 24 17  1  0
 25 23  1  0
 26 25  1  0
 27 25  2  0
M  END
$$$$
