IYS.pdb
     RDKit          3D

 27 27  0  0  1  0  0  0  0  0999 V2000
    6.9373  -15.8527   17.0403 C   0  0  0  0  0  0  0  0  0  0  0  0
    7.0095  -14.6354   17.9150 C   0  0  0  0  0  0  0  0  0  0  0  0
    7.5877  -14.9295   19.2774 C   0  0  2  0  0  0  0  0  0  0  0  0
    6.9720  -16.1262   19.9240 C   0  0  0  0  0  0  0  0  0  0  0  0
    7.5474  -13.7064   20.1387 C   0  0  2  0  0  0  0  0  0  0  0  0
    8.0593  -12.5828   19.4089 N   0  0  0  0  0  0  0  0  0  0  0  0
    8.2606  -13.9263   21.4218 C   0  0  0  0  0  0  0  0  0  0  0  0
    9.5061  -14.0972   21.4396 O   0  0  0  0  0  0  0  0  0  0  0  0
    9.9368  -14.9059   30.0612 O   0  0  0  0  0  0  0  0  0  0  0  0
    9.3426  -14.5689   28.8618 C   0  0  0  0  0  0  0  0  0  0  0  0
    8.6438  -15.5620   28.1873 C   0  0  0  0  0  0  0  0  0  0  0  0
    8.0321  -15.2790   26.9864 C   0  0  0  0  0  0  0  0  0  0  0  0
    8.0762  -14.0400   26.4059 C   0  0  0  0  0  0  0  0  0  0  0  0
    7.3904  -13.8148   25.1083 C   0  0  0  0  0  0  0  0  0  0  0  0
    8.2971  -14.1496   23.9383 C   0  0  2  0  0  0  0  0  0  0  0  0
    7.5874  -13.9545   22.6706 N   0  0  0  0  0  0  0  0  0  0  0  0
    8.6798  -15.5840   23.9961 C   0  0  0  0  0  0  0  0  0  0  0  0
    7.8250  -16.5252   23.8785 O   0  0  0  0  0  0  0  0  0  0  0  0
    8.7717  -13.0507   27.0770 C   0  0  0  0  0  0  0  0  0  0  0  0
    9.3952  -13.3218   28.2917 C   0  0  0  0  0  0  0  0  0  0  0  0
   12.0375  -17.0205   22.5607 O   0  0  0  0  0  0  0  0  0  0  0  0
   10.9426  -17.8208   22.9037 C   0  0  0  0  0  0  0  0  0  0  0  0
   10.3820  -17.3802   24.2409 C   0  0  2  0  0  0  0  0  0  0  0  0
   10.0319  -15.9796   24.1874 N   0  0  0  0  0  0  0  0  0  0  0  0
   11.3909  -17.6022   25.3114 C   0  0  0  0  0  0  0  0  0  0  0  0
   11.9042  -18.8724   25.5190 O   0  0  0  0  0  0  0  0  0  0  0  0
   11.7527  -16.6262   26.0027 O   0  0  0  0  0  0  0  0  0  0  0  0
  1  2  1  0
  3  4  1  1
  3  2  1  0
  5  6  1  6
  5  3  1  0
  7  5  1  0
  8  7  2  0
  9 10  1  0
 10 11  2  0
 10 20  1  0
 11 12  1  0
 12 13  2  0
 13 14  1  0
 15 14  1  1
 15 16  1  0
 16  7  1  0
 17 18  2  0
 17 15  1  0
 19 13  1  0
 20 19  2  0
 21 22  1  0
 23 22  1  6
 23 24  1  0
 24 17  1  0
 25 23  1  0
 26 25  1  0
 27 25  2  0
M  END
$$$$
