MMV.pdb
     RDKit          3D

 24 23  0  0  1  0  0  0  0  0999 V2000
   29.7279  -21.4425  -18.2778 C   0  0  0  0  0  0  0  0  0  0  0  0
   29.5192  -19.7856  -18.9474 S   0  0  0  0  0  0  0  0  0  0  0  0
   28.8172  -18.6523  -17.6964 C   0  0  0  0  0  0  0  0  0  0  0  0
   28.1939  -19.4962  -16.6296 C   0  0  0  0  0  0  0  0  0  0  0  0
   27.1902  -18.7536  -15.7948 C   0  0  2  0  0  0  0  0  0  0  0  0
   27.8343  -17.7872  -14.9590 N   0  0  0  0  0  0  0  0  0  0  0  0
   26.3217  -19.6840  -15.0102 C   0  0  0  0  0  0  0  0  0  0  0  0
   25.5869  -20.4848  -15.6339 O   0  0  0  0  0  0  0  0  0  0  0  0
   26.0544  -19.7597   -8.2807 C   0  0  0  0  0  0  0  0  0  0  0  0
   25.4384  -21.3793   -8.7533 S   0  0  0  0  0  0  0  0  0  0  0  0
   24.9342  -21.3253  -10.5091 C   0  0  0  0  0  0  0  0  0  0  0  0
   25.8842  -20.4497  -11.2726 C   0  0  0  0  0  0  0  0  0  0  0  0
   25.4359  -20.4001  -12.7239 C   0  0  2  0  0  0  0  0  0  0  0  0
   26.3048  -19.6870  -13.6010 N   0  0  0  0  0  0  0  0  0  0  0  0
   24.0082  -20.2016  -12.9204 C   0  0  0  0  0  0  0  0  0  0  0  0
   23.5269  -19.0658  -12.6249 O   0  0  0  0  0  0  0  0  0  0  0  0
   21.5040  -22.5058  -15.3804 C   0  0  0  0  0  0  0  0  0  0  0  0
   21.2555  -21.0555  -15.0259 C   0  0  2  0  0  0  0  0  0  0  0  0
   22.0398  -20.2167  -16.0040 C   0  0  0  0  0  0  0  0  0  0  0  0
   21.7021  -20.8261  -13.6013 C   0  0  2  0  0  0  0  0  0  0  0  0
   23.1010  -21.1742  -13.4174 N   0  0  0  0  0  0  0  0  0  0  0  0
   20.8427  -21.6342  -12.6988 C   0  0  0  0  0  0  0  0  0  0  0  0
   21.3048  -22.7633  -12.0753 O   0  0  0  0  0  0  0  0  0  0  0  0
   19.6536  -21.2684  -12.5026 O   0  0  0  0  0  0  0  0  0  0  0  0
  1  2  1  0
  2  3  1  0
  4  5  1  0
  4  3  1  0
  5  6  1  1
  7  5  1  0
  8  7  2  0
  9 10  1  0
 10 11  1  0
 13 12  1  1
 12 11  1  0
 13 14  1  0
 14  7  1  0
 15 21  1  0
 15 13  1  0
 16 15  2  0
 18 17  1  6
 18 20  1  0
 18 19  1  0
 20 22  1  0
 20 21  1  6
 22 23  1  0
 24 22  2  0
M  END
$$$$
