MMV.pdb
     RDKit          3D

 24 23  0  0  1  0  0  0  0  0999 V2000
   27.5124  -16.3383  -15.7340 C   0  0  0  0  0  0  0  0  0  0  0  0
   28.2720  -17.3635  -17.0024 S   0  0  0  0  0  0  0  0  0  0  0  0
   28.7320  -19.0030  -16.3372 C   0  0  0  0  0  0  0  0  0  0  0  0
   27.5109  -19.5830  -15.6959 C   0  0  0  0  0  0  0  0  0  0  0  0
   27.8118  -20.7268  -14.7702 C   0  0  2  0  0  0  0  0  0  0  0  0
   28.3671  -21.8334  -15.4876 N   0  0  0  0  0  0  0  0  0  0  0  0
   26.6143  -21.1228  -13.9672 C   0  0  0  0  0  0  0  0  0  0  0  0
   25.8327  -21.9794  -14.4421 O   0  0  0  0  0  0  0  0  0  0  0  0
   28.3612  -20.7689   -7.5366 C   0  0  0  0  0  0  0  0  0  0  0  0
   26.7631  -20.2286   -8.1531 S   0  0  0  0  0  0  0  0  0  0  0  0
   26.5621  -20.8300   -9.8671 C   0  0  0  0  0  0  0  0  0  0  0  0
   25.3184  -20.2354  -10.4601 C   0  0  0  0  0  0  0  0  0  0  0  0
   25.1801  -20.7305  -11.8903 C   0  0  2  0  0  0  0  0  0  0  0  0
   26.3405  -20.5655  -12.7021 N   0  0  0  0  0  0  0  0  0  0  0  0
   23.9003  -20.4432  -12.5197 C   0  0  0  0  0  0  0  0  0  0  0  0
   23.6979  -19.2584  -12.9251 O   0  0  0  0  0  0  0  0  0  0  0  0
   21.1727  -23.3619  -13.9200 C   0  0  0  0  0  0  0  0  0  0  0  0
   21.3834  -22.0151  -14.5778 C   0  0  2  0  0  0  0  0  0  0  0  0
   22.5274  -22.1673  -15.5491 C   0  0  0  0  0  0  0  0  0  0  0  0
   21.6876  -20.9982  -13.5031 C   0  0  2  0  0  0  0  0  0  0  0  0
   22.8519  -21.3791  -12.7214 N   0  0  0  0  0  0  0  0  0  0  0  0
   20.4955  -20.8626  -12.6274 C   0  0  0  0  0  0  0  0  0  0  0  0
   19.3614  -20.2145  -13.0408 O   0  0  0  0  0  0  0  0  0  0  0  0
   20.5309  -21.3590  -11.4705 O   0  0  0  0  0  0  0  0  0  0  0  0
  1  2  1  0
  2  3  1  0
  4  5  1  0
  4  3  1  0
  5  6  1  6
  7  5  1  0
  8  7  2  0
  9 10  1  0
 10 11  1  0
 13 12  1  1
 12 11  1  0
 13 14  1  0
 14  7  1  0
 15 21  1  0
 15 13  1  0
 16 15  2  0
 18 17  1  1
 18 20  1  0
 18 19  1  0
 20 22  1  0
 20 21  1  1
 22 23  1  0
 24 22  2  0
M  END
$$$$
