MMV.pdb
     RDKit          3D

 24 23  0  0  1  0  0  0  0  0999 V2000
   23.1921  -31.8512  -11.4319 C   0  0  0  0  0  0  0  0  0  0  0  0
   24.5365  -33.0041  -11.1148 S   0  0  0  0  0  0  0  0  0  0  0  0
   23.9173  -34.5451  -10.3506 C   0  0  0  0  0  0  0  0  0  0  0  0
   22.6935  -34.1933   -9.5650 C   0  0  0  0  0  0  0  0  0  0  0  0
   22.0710  -35.3726   -8.8742 C   0  0  2  0  0  0  0  0  0  0  0  0
   20.7295  -35.5813   -9.3264 N   0  0  0  0  0  0  0  0  0  0  0  0
   22.1489  -35.2508   -7.3860 C   0  0  0  0  0  0  0  0  0  0  0  0
   21.0835  -35.1124   -6.7410 O   0  0  0  0  0  0  0  0  0  0  0  0
   20.1864  -35.7124   -2.0174 C   0  0  0  0  0  0  0  0  0  0  0  0
   21.7357  -36.6169   -1.9320 S   0  0  0  0  0  0  0  0  0  0  0  0
   22.9663  -35.7728   -2.9870 C   0  0  0  0  0  0  0  0  0  0  0  0
   22.5877  -35.9461   -4.4287 C   0  0  0  0  0  0  0  0  0  0  0  0
   23.6044  -35.2121   -5.2874 C   0  0  2  0  0  0  0  0  0  0  0  0
   23.3752  -35.2865   -6.6926 N   0  0  0  0  0  0  0  0  0  0  0  0
   24.9854  -35.3355   -4.8466 C   0  0  0  0  0  0  0  0  0  0  0  0
   25.4896  -36.4990   -4.8136 O   0  0  0  0  0  0  0  0  0  0  0  0
   27.3735  -33.4885   -6.8078 C   0  0  0  0  0  0  0  0  0  0  0  0
   27.8824  -33.3247   -5.3918 C   0  0  2  0  0  0  0  0  0  0  0  0
   29.3859  -33.4348   -5.4427 C   0  0  0  0  0  0  0  0  0  0  0  0
   27.2667  -34.4038   -4.5326 C   0  0  2  0  0  0  0  0  0  0  0  0
   25.8231  -34.2607   -4.4481 N   0  0  0  0  0  0  0  0  0  0  0  0
   27.8755  -34.3376   -3.1795 C   0  0  0  0  0  0  0  0  0  0  0  0
   29.1311  -34.8228   -2.9241 O   0  0  0  0  0  0  0  0  0  0  0  0
   27.2155  -33.8196   -2.2402 O   0  0  0  0  0  0  0  0  0  0  0  0
  1  2  1  0
  2  3  1  0
  4  5  1  0
  4  3  1  0
  5  6  1  1
  7  5  1  0
  8  7  2  0
  9 10  1  0
 10 11  1  0
 13 12  1  1
 12 11  1  0
 13 14  1  0
 14  7  1  0
 15 21  1  0
 15 13  1  0
 16 15  2  0
 18 17  1  6
 18 20  1  0
 18 19  1  0
 20 22  1  0
 20 21  1  1
 22 23  1  0
 24 22  2  0
M  END
$$$$
