MMV.pdb
     RDKit          3D

 24 23  0  0  1  0  0  0  0  0999 V2000
   29.4464  -25.5069  -16.1420 C   0  0  0  0  0  0  0  0  0  0  0  0
   30.1143  -24.3070  -17.3045 S   0  0  0  0  0  0  0  0  0  0  0  0
   29.2491  -22.7024  -17.1661 C   0  0  0  0  0  0  0  0  0  0  0  0
   28.2566  -22.8252  -16.0532 C   0  0  0  0  0  0  0  0  0  0  0  0
   27.4432  -21.5804  -15.8421 C   0  0  2  0  0  0  0  0  0  0  0  0
   28.2792  -20.4788  -15.4747 N   0  0  0  0  0  0  0  0  0  0  0  0
   26.3377  -21.7980  -14.8592 C   0  0  0  0  0  0  0  0  0  0  0  0
   25.4434  -22.6298  -15.1398 O   0  0  0  0  0  0  0  0  0  0  0  0
   26.7730  -20.6130   -8.5194 C   0  0  0  0  0  0  0  0  0  0  0  0
   24.9894  -20.4360   -8.6332 S   0  0  0  0  0  0  0  0  0  0  0  0
   24.4729  -20.7944  -10.3491 C   0  0  0  0  0  0  0  0  0  0  0  0
   25.6721  -20.7451  -11.2500 C   0  0  0  0  0  0  0  0  0  0  0  0
   25.2359  -21.1198  -12.6568 C   0  0  2  0  0  0  0  0  0  0  0  0
   26.2718  -21.1009  -13.6362 N   0  0  0  0  0  0  0  0  0  0  0  0
   23.9463  -20.5836  -13.0644 C   0  0  0  0  0  0  0  0  0  0  0  0
   23.7870  -19.3267  -13.0034 O   0  0  0  0  0  0  0  0  0  0  0  0
   20.1075  -20.3051  -15.8864 C   0  0  0  0  0  0  0  0  0  0  0  0
   21.3718  -21.0191  -15.4590 C   0  0  2  0  0  0  0  0  0  0  0  0
   21.1355  -22.4967  -15.6494 C   0  0  0  0  0  0  0  0  0  0  0  0
   21.6532  -20.6743  -14.0156 C   0  0  2  0  0  0  0  0  0  0  0  0
   22.8440  -21.3493  -13.5275 N   0  0  0  0  0  0  0  0  0  0  0  0
   20.4711  -21.0506  -13.1989 C   0  0  0  0  0  0  0  0  0  0  0  0
   19.3350  -20.2853  -13.1709 O   0  0  0  0  0  0  0  0  0  0  0  0
   20.5169  -22.1054  -12.5122 O   0  0  0  0  0  0  0  0  0  0  0  0
  1  2  1  0
  2  3  1  0
  4  5  1  0
  4  3  1  0
  5  6  1  1
  7  5  1  0
  8  7  2  0
  9 10  1  0
 10 11  1  0
 13 12  1  1
 12 11  1  0
 13 14  1  0
 14  7  1  0
 15 21  1  0
 15 13  1  0
 16 15  2  0
 18 17  1  1
 18 20  1  0
 18 19  1  0
 20 22  1  0
 20 21  1  1
 22 23  1  0
 24 22  2  0
M  END
$$$$
