MMV.pdb
     RDKit          3D

 24 23  0  0  1  0  0  0  0  0999 V2000
   18.2669  -16.7241  -17.2961 C   0  0  0  0  0  0  0  0  0  0  0  0
   18.0438  -16.6073  -19.0775 S   0  0  0  0  0  0  0  0  0  0  0  0
   19.1187  -15.3132  -19.7933 C   0  0  0  0  0  0  0  0  0  0  0  0
   19.6335  -14.4834  -18.6596 C   0  0  0  0  0  0  0  0  0  0  0  0
   20.5860  -13.4071  -19.0954 C   0  0  2  0  0  0  0  0  0  0  0  0
   21.6714  -13.9579  -19.8477 N   0  0  0  0  0  0  0  0  0  0  0  0
   21.0635  -12.5857  -17.9408 C   0  0  0  0  0  0  0  0  0  0  0  0
   20.2108  -12.0595  -17.1883 O   0  0  0  0  0  0  0  0  0  0  0  0
   27.0139  -12.7665  -14.7903 C   0  0  0  0  0  0  0  0  0  0  0  0
   26.1745  -14.0898  -15.6677 S   0  0  0  0  0  0  0  0  0  0  0  0
   24.4694  -13.5525  -16.0469 C   0  0  0  0  0  0  0  0  0  0  0  0
   24.4519  -12.0672  -16.2605 C   0  0  0  0  0  0  0  0  0  0  0  0
   23.0357  -11.6465  -16.6169 C   0  0  2  0  0  0  0  0  0  0  0  0
   22.4333  -12.3870  -17.6759 N   0  0  0  0  0  0  0  0  0  0  0  0
   22.8009  -10.2107  -16.6124 C   0  0  0  0  0  0  0  0  0  0  0  0
   23.4298   -9.5100  -17.4624 O   0  0  0  0  0  0  0  0  0  0  0  0
   19.4113   -8.1419  -15.7198 C   0  0  0  0  0  0  0  0  0  0  0  0
   20.6099   -7.5816  -16.4548 C   0  0  2  0  0  0  0  0  0  0  0  0
   20.5236   -8.0638  -17.8815 C   0  0  0  0  0  0  0  0  0  0  0  0
   21.8644   -8.0697  -15.7695 C   0  0  2  0  0  0  0  0  0  0  0  0
   21.9237   -9.5212  -15.7343 N   0  0  0  0  0  0  0  0  0  0  0  0
   21.8991   -7.5147  -14.3922 C   0  0  0  0  0  0  0  0  0  0  0  0
   22.1914   -6.1987  -14.1472 O   0  0  0  0  0  0  0  0  0  0  0  0
   21.6521   -8.2789  -13.4220 O   0  0  0  0  0  0  0  0  0  0  0  0
  1  2  1  0
  2  3  1  0
  4  5  1  0
  4  3  1  0
  5  6  1  1
  7  5  1  0
  8  7  2  0
  9 10  1  0
 10 11  1  0
 13 12  1  6
 12 11  1  0
 13 14  1  0
 14  7  1  0
 15 21  1  0
 15 13  1  0
 16 15  2  0
 18 17  1  1
 18 20  1  0
 18 19  1  0
 20 22  1  0
 20 21  1  1
 22 23  1  0
 24 22  2  0
M  END
$$$$
