MMV.pdb
     RDKit          3D

 24 23  0  0  1  0  0  0  0  0999 V2000
   15.9576  -15.3684  -14.7890 C   0  0  0  0  0  0  0  0  0  0  0  0
   16.6644  -16.7767  -15.6576 S   0  0  0  0  0  0  0  0  0  0  0  0
   17.4949  -16.2515  -17.1993 C   0  0  0  0  0  0  0  0  0  0  0  0
   18.1684  -14.9449  -16.9205 C   0  0  0  0  0  0  0  0  0  0  0  0
   18.8570  -14.3628  -18.1216 C   0  0  2  0  0  0  0  0  0  0  0  0
   19.8122  -15.2824  -18.6598 N   0  0  0  0  0  0  0  0  0  0  0  0
   19.4674  -13.0311  -17.8223 C   0  0  0  0  0  0  0  0  0  0  0  0
   20.7049  -12.9691  -17.6355 O   0  0  0  0  0  0  0  0  0  0  0  0
   15.6522   -8.3204  -19.5066 C   0  0  0  0  0  0  0  0  0  0  0  0
   17.0534   -8.6304  -20.5866 S   0  0  0  0  0  0  0  0  0  0  0  0
   18.1815   -9.8069  -19.7603 C   0  0  0  0  0  0  0  0  0  0  0  0
   18.2723   -9.4676  -18.3013 C   0  0  0  0  0  0  0  0  0  0  0  0
   19.1467  -10.5054  -17.6169 C   0  0  2  0  0  0  0  0  0  0  0  0
   18.6983  -11.8528  -17.7444 N   0  0  0  0  0  0  0  0  0  0  0  0
   19.6628  -10.1126  -16.3146 C   0  0  0  0  0  0  0  0  0  0  0  0
   18.9295  -10.3291  -15.3025 O   0  0  0  0  0  0  0  0  0  0  0  0
   23.6535   -9.1059  -15.3568 C   0  0  0  0  0  0  0  0  0  0  0  0
   22.6485   -9.5976  -14.3376 C   0  0  2  0  0  0  0  0  0  0  0  0
   22.7132  -11.1047  -14.3388 C   0  0  0  0  0  0  0  0  0  0  0  0
   21.2804   -9.0916  -14.7296 C   0  0  2  0  0  0  0  0  0  0  0  0
   20.9236   -9.5047  -16.0763 N   0  0  0  0  0  0  0  0  0  0  0  0
   21.2737   -7.6103  -14.6216 C   0  0  0  0  0  0  0  0  0  0  0  0
   21.2360   -6.9711  -13.4103 O   0  0  0  0  0  0  0  0  0  0  0  0
   21.3035   -6.9232  -15.6768 O   0  0  0  0  0  0  0  0  0  0  0  0
  1  2  1  0
  2  3  1  0
  4  5  1  0
  4  3  1  0
  5  6  1  1
  7  5  1  0
  8  7  2  0
  9 10  1  0
 10 11  1  0
 13 12  1  1
 12 11  1  0
 13 14  1  0
 14  7  1  0
 15 21  1  0
 15 13  1  0
 16 15  2  0
 18 17  1  6
 18 20  1  0
 18 19  1  0
 20 22  1  0
 20 21  1  6
 22 23  1  0
 24 22  2  0
M  END
$$$$
