MMV.pdb
     RDKit          3D

 24 23  0  0  1  0  0  0  0  0999 V2000
   13.8928  -23.6700    4.7387 C   0  0  0  0  0  0  0  0  0  0  0  0
   12.9396  -22.4773    3.7869 S   0  0  0  0  0  0  0  0  0  0  0  0
   13.9631  -21.7042    2.4842 C   0  0  0  0  0  0  0  0  0  0  0  0
   14.9141  -20.7680    3.1606 C   0  0  0  0  0  0  0  0  0  0  0  0
   15.8528  -20.0837    2.2087 C   0  0  2  0  0  0  0  0  0  0  0  0
   16.4535  -21.0265    1.3155 N   0  0  0  0  0  0  0  0  0  0  0  0
   16.8747  -19.2629    2.9284 C   0  0  0  0  0  0  0  0  0  0  0  0
   18.0412  -19.7105    3.0245 O   0  0  0  0  0  0  0  0  0  0  0  0
   19.5315  -12.1202    4.4672 C   0  0  0  0  0  0  0  0  0  0  0  0
   18.1771  -13.0766    3.7769 S   0  0  0  0  0  0  0  0  0  0  0  0
   18.3251  -14.8041    4.3546 C   0  0  0  0  0  0  0  0  0  0  0  0
   17.2258  -15.6268    3.7492 C   0  0  0  0  0  0  0  0  0  0  0  0
   17.4454  -17.0819    4.1291 C   0  0  2  0  0  0  0  0  0  0  0  0
   16.5674  -18.0109    3.4975 N   0  0  0  0  0  0  0  0  0  0  0  0
   17.7337  -17.3136    5.5362 C   0  0  0  0  0  0  0  0  0  0  0  0
   16.7497  -17.3839    6.3335 O   0  0  0  0  0  0  0  0  0  0  0  0
   21.5892  -18.0141    7.2377 C   0  0  0  0  0  0  0  0  0  0  0  0
   20.3342  -18.6319    7.8156 C   0  0  2  0  0  0  0  0  0  0  0  0
   20.1637  -19.9836    7.1681 C   0  0  0  0  0  0  0  0  0  0  0  0
   19.1695  -17.7155    7.5232 C   0  0  2  0  0  0  0  0  0  0  0  0
   19.0283  -17.4692    6.0980 N   0  0  0  0  0  0  0  0  0  0  0  0
   19.3757  -16.4387    8.2533 C   0  0  0  0  0  0  0  0  0  0  0  0
   19.0344  -16.2935    9.5723 O   0  0  0  0  0  0  0  0  0  0  0  0
   19.8795  -15.4613    7.6391 O   0  0  0  0  0  0  0  0  0  0  0  0
  1  2  1  0
  2  3  1  0
  4  5  1  0
  4  3  1  0
  5  6  1  1
  7  5  1  0
  8  7  2  0
  9 10  1  0
 10 11  1  0
 13 12  1  1
 12 11  1  0
 13 14  1  0
 14  7  1  0
 15 21  1  0
 15 13  1  0
 16 15  2  0
 18 17  1  6
 18 20  1  0
 18 19  1  0
 20 22  1  0
 20 21  1  6
 22 23  1  0
 24 22  2  0
M  END
$$$$
