MMV.pdb
     RDKit          3D

 24 23  0  0  1  0  0  0  0  0999 V2000
   26.8475  -23.6850  -18.6492 C   0  0  0  0  0  0  0  0  0  0  0  0
   28.3461  -22.7507  -18.9927 S   0  0  0  0  0  0  0  0  0  0  0  0
   28.6290  -21.4673  -17.7218 C   0  0  0  0  0  0  0  0  0  0  0  0
   27.9534  -21.9247  -16.4676 C   0  0  0  0  0  0  0  0  0  0  0  0
   27.5806  -20.7973  -15.5480 C   0  0  2  0  0  0  0  0  0  0  0  0
   28.7295  -20.3014  -14.8540 N   0  0  0  0  0  0  0  0  0  0  0  0
   26.4823  -21.1841  -14.6101 C   0  0  0  0  0  0  0  0  0  0  0  0
   25.4923  -21.7994  -15.0701 O   0  0  0  0  0  0  0  0  0  0  0  0
   26.6184  -19.6692   -8.1393 C   0  0  0  0  0  0  0  0  0  0  0  0
   25.3855  -20.9752   -8.1575 S   0  0  0  0  0  0  0  0  0  0  0  0
   24.8719  -21.2724   -9.8860 C   0  0  0  0  0  0  0  0  0  0  0  0
   25.9686  -20.8361  -10.8127 C   0  0  0  0  0  0  0  0  0  0  0  0
   25.5268  -21.0996  -12.2428 C   0  0  2  0  0  0  0  0  0  0  0  0
   26.5268  -20.8797  -13.2349 N   0  0  0  0  0  0  0  0  0  0  0  0
   24.1818  -20.6477  -12.5644 C   0  0  0  0  0  0  0  0  0  0  0  0
   24.0066  -19.4039  -12.7411 O   0  0  0  0  0  0  0  0  0  0  0  0
   20.1737  -21.0096  -15.0846 C   0  0  0  0  0  0  0  0  0  0  0  0
   21.4929  -21.5686  -14.5967 C   0  0  2  0  0  0  0  0  0  0  0  0
   21.3318  -23.0648  -14.4921 C   0  0  0  0  0  0  0  0  0  0  0  0
   21.8154  -20.9414  -13.2609 C   0  0  2  0  0  0  0  0  0  0  0  0
   23.0413  -21.4826  -12.6987 N   0  0  0  0  0  0  0  0  0  0  0  0
   20.6740  -21.1745  -12.3395 C   0  0  0  0  0  0  0  0  0  0  0  0
   19.6445  -20.2787  -12.2183 O   0  0  0  0  0  0  0  0  0  0  0  0
   20.6544  -22.2282  -11.6498 O   0  0  0  0  0  0  0  0  0  0  0  0
  1  2  1  0
  2  3  1  0
  4  5  1  0
  4  3  1  0
  5  6  1  1
  7  5  1  0
  8  7  2  0
  9 10  1  0
 10 11  1  0
 13 12  1  1
 12 11  1  0
 13 14  1  0
 14  7  1  0
 15 21  1  0
 15 13  1  0
 16 15  2  0
 18 17  1  1
 18 20  1  0
 18 19  1  0
 20 22  1  0
 20 21  1  1
 22 23  1  0
 24 22  2  0
M  END
$$$$
