MMV.pdb
     RDKit          3D

 24 23  0  0  1  0  0  0  0  0999 V2000
   18.0370  -19.2035  -16.4762 C   0  0  0  0  0  0  0  0  0  0  0  0
   17.8058  -20.4215  -15.1723 S   0  0  0  0  0  0  0  0  0  0  0  0
   19.3080  -21.4387  -14.9462 C   0  0  0  0  0  0  0  0  0  0  0  0
   20.3764  -20.5423  -14.4042 C   0  0  0  0  0  0  0  0  0  0  0  0
   20.8331  -20.9275  -13.0263 C   0  0  2  0  0  0  0  0  0  0  0  0
   19.8855  -20.5119  -12.0379 N   0  0  0  0  0  0  0  0  0  0  0  0
   22.2085  -20.4193  -12.7335 C   0  0  0  0  0  0  0  0  0  0  0  0
   22.3777  -19.1828  -12.6217 O   0  0  0  0  0  0  0  0  0  0  0  0
   26.5350  -20.0497   -7.8797 C   0  0  0  0  0  0  0  0  0  0  0  0
   27.0698  -21.3544   -8.9922 S   0  0  0  0  0  0  0  0  0  0  0  0
   26.5394  -20.9318  -10.6892 C   0  0  0  0  0  0  0  0  0  0  0  0
   25.1584  -21.4688  -10.9269 C   0  0  0  0  0  0  0  0  0  0  0  0
   24.6627  -20.9522  -12.2675 C   0  0  2  0  0  0  0  0  0  0  0  0
   23.3117  -21.2828  -12.5807 N   0  0  0  0  0  0  0  0  0  0  0  0
   25.6236  -21.0449  -13.3559 C   0  0  0  0  0  0  0  0  0  0  0  0
   25.7142  -22.1528  -13.9668 O   0  0  0  0  0  0  0  0  0  0  0  0
   26.9873  -17.7779  -15.6083 C   0  0  0  0  0  0  0  0  0  0  0  0
   27.9852  -18.8926  -15.3793 C   0  0  2  0  0  0  0  0  0  0  0  0
   28.7795  -19.0485  -16.6521 C   0  0  0  0  0  0  0  0  0  0  0  0
   27.2270  -20.1514  -15.0299 C   0  0  2  0  0  0  0  0  0  0  0  0
   26.4738  -19.9967  -13.7968 N   0  0  0  0  0  0  0  0  0  0  0  0
   28.1959  -21.2708  -14.9101 C   0  0  0  0  0  0  0  0  0  0  0  0
   28.7147  -21.6553  -13.7017 O   0  0  0  0  0  0  0  0  0  0  0  0
   28.5497  -21.8833  -15.9521 O   0  0  0  0  0  0  0  0  0  0  0  0
  1  2  1  0
  2  3  1  0
  4  5  1  0
  4  3  1  0
  5  6  1  1
  7  5  1  0
  8  7  2  0
  9 10  1  0
 10 11  1  0
 13 12  1  1
 12 11  1  0
 13 14  1  0
 14  7  1  0
 15 21  1  0
 15 13  1  0
 16 15  2  0
 18 17  1  6
 18 20  1  0
 18 19  1  0
 20 22  1  0
 20 21  1  1
 22 23  1  0
 24 22  2  0
M  END
$$$$
