MMV.pdb
     RDKit          3D

 24 23  0  0  1  0  0  0  0  0999 V2000
   26.7462  -17.5679  -17.7154 C   0  0  0  0  0  0  0  0  0  0  0  0
   28.2890  -17.1370  -16.8963 S   0  0  0  0  0  0  0  0  0  0  0  0
   28.9485  -18.5524  -15.9455 C   0  0  0  0  0  0  0  0  0  0  0  0
   27.7792  -19.2859  -15.3683 C   0  0  0  0  0  0  0  0  0  0  0  0
   28.1720  -20.4922  -14.5644 C   0  0  2  0  0  0  0  0  0  0  0  0
   28.7980  -21.4774  -15.3921 N   0  0  0  0  0  0  0  0  0  0  0  0
   27.0150  -21.0534  -13.8015 C   0  0  0  0  0  0  0  0  0  0  0  0
   26.3547  -21.9854  -14.3169 O   0  0  0  0  0  0  0  0  0  0  0  0
   25.5276  -20.3297   -7.3269 C   0  0  0  0  0  0  0  0  0  0  0  0
   27.0824  -20.9025   -8.0200 S   0  0  0  0  0  0  0  0  0  0  0  0
   26.8224  -21.3150   -9.7813 C   0  0  0  0  0  0  0  0  0  0  0  0
   25.5921  -20.6150  -10.2797 C   0  0  0  0  0  0  0  0  0  0  0  0
   25.4720  -20.8544  -11.7757 C   0  0  2  0  0  0  0  0  0  0  0  0
   26.6478  -20.5693  -12.5300 N   0  0  0  0  0  0  0  0  0  0  0  0
   24.2065  -20.4442  -12.3647 C   0  0  0  0  0  0  0  0  0  0  0  0
   24.0470  -19.2108  -12.6138 O   0  0  0  0  0  0  0  0  0  0  0  0
   21.3179  -23.0015  -14.1460 C   0  0  0  0  0  0  0  0  0  0  0  0
   21.5673  -21.5670  -14.5594 C   0  0  2  0  0  0  0  0  0  0  0  0
   22.6783  -21.5837  -15.5796 C   0  0  0  0  0  0  0  0  0  0  0  0
   21.9415  -20.7716  -13.3310 C   0  0  2  0  0  0  0  0  0  0  0  0
   23.1281  -21.3095  -12.6873 N   0  0  0  0  0  0  0  0  0  0  0  0
   20.7913  -20.7807  -12.3914 C   0  0  0  0  0  0  0  0  0  0  0  0
   19.6554  -20.0518  -12.6276 O   0  0  0  0  0  0  0  0  0  0  0  0
   20.8647  -21.4803  -11.3467 O   0  0  0  0  0  0  0  0  0  0  0  0
  1  2  1  0
  2  3  1  0
  4  5  1  0
  4  3  1  0
  5  6  1  6
  7  5  1  0
  8  7  2  0
  9 10  1  0
 10 11  1  0
 13 12  1  1
 12 11  1  0
 13 14  1  0
 14  7  1  0
 15 21  1  0
 15 13  1  0
 16 15  2  0
 18 17  1  1
 18 20  1  0
 18 19  1  0
 20 22  1  0
 20 21  1  1
 22 23  1  0
 24 22  2  0
M  END
$$$$
