MMV.pdb
     RDKit          3D

 24 23  0  0  1  0  0  0  0  0999 V2000
   26.5772  -17.0059  -16.8469 C   0  0  0  0  0  0  0  0  0  0  0  0
   28.3635  -16.9533  -16.6385 S   0  0  0  0  0  0  0  0  0  0  0  0
   28.9418  -18.3111  -15.5595 C   0  0  0  0  0  0  0  0  0  0  0  0
   27.7294  -19.0342  -15.0635 C   0  0  0  0  0  0  0  0  0  0  0  0
   28.0558  -20.2285  -14.2134 C   0  0  2  0  0  0  0  0  0  0  0  0
   28.8127  -21.1917  -14.9528 N   0  0  0  0  0  0  0  0  0  0  0  0
   26.8301  -20.8279  -13.6017 C   0  0  0  0  0  0  0  0  0  0  0  0
   26.2502  -21.7561  -14.2119 O   0  0  0  0  0  0  0  0  0  0  0  0
   26.3121  -19.5249   -7.4353 C   0  0  0  0  0  0  0  0  0  0  0  0
   26.2933  -21.2822   -7.8057 S   0  0  0  0  0  0  0  0  0  0  0  0
   26.2330  -21.4986   -9.6193 C   0  0  0  0  0  0  0  0  0  0  0  0
   25.1461  -20.6339  -10.1875 C   0  0  0  0  0  0  0  0  0  0  0  0
   25.1282  -20.8088  -11.6971 C   0  0  2  0  0  0  0  0  0  0  0  0
   26.3115  -20.3834  -12.3691 N   0  0  0  0  0  0  0  0  0  0  0  0
   23.8638  -20.4841  -12.3392 C   0  0  0  0  0  0  0  0  0  0  0  0
   23.6784  -19.2813  -12.6968 O   0  0  0  0  0  0  0  0  0  0  0  0
   21.2404  -23.1913  -14.1938 C   0  0  0  0  0  0  0  0  0  0  0  0
   21.3543  -21.7236  -14.5455 C   0  0  2  0  0  0  0  0  0  0  0  0
   22.4902  -21.5875  -15.5286 C   0  0  0  0  0  0  0  0  0  0  0  0
   21.6099  -20.9444  -13.2770 C   0  0  2  0  0  0  0  0  0  0  0  0
   22.8128  -21.4018  -12.6022 N   0  0  0  0  0  0  0  0  0  0  0  0
   20.4292  -21.0861  -12.3872 C   0  0  0  0  0  0  0  0  0  0  0  0
   19.2258  -20.4996  -12.6791 O   0  0  0  0  0  0  0  0  0  0  0  0
   20.5400  -21.7664  -11.3331 O   0  0  0  0  0  0  0  0  0  0  0  0
  1  2  1  0
  2  3  1  0
  4  5  1  0
  4  3  1  0
  5  6  1  6
  7  5  1  0
  8  7  2  0
  9 10  1  0
 10 11  1  0
 13 12  1  1
 12 11  1  0
 13 14  1  0
 14  7  1  0
 15 21  1  0
 15 13  1  0
 16 15  2  0
 18 17  1  1
 18 20  1  0
 18 19  1  0
 20 22  1  0
 20 21  1  1
 22 23  1  0
 24 22  2  0
M  END
$$$$
