MMV.pdb
     RDKit          3D

 24 23  0  0  1  0  0  0  0  0999 V2000
   18.1567  -21.1255  -10.4050 C   0  0  0  0  0  0  0  0  0  0  0  0
   17.6190  -21.0422  -12.1199 S   0  0  0  0  0  0  0  0  0  0  0  0
   19.0069  -21.3733  -13.2629 C   0  0  0  0  0  0  0  0  0  0  0  0
   20.2496  -20.8408  -12.6221 C   0  0  0  0  0  0  0  0  0  0  0  0
   21.4909  -21.0979  -13.4275 C   0  0  2  0  0  0  0  0  0  0  0  0
   21.7157  -22.5020  -13.5875 N   0  0  0  0  0  0  0  0  0  0  0  0
   22.6820  -20.4010  -12.8520 C   0  0  0  0  0  0  0  0  0  0  0  0
   22.7199  -19.1492  -12.8931 O   0  0  0  0  0  0  0  0  0  0  0  0
   26.5354  -19.5801   -7.7526 C   0  0  0  0  0  0  0  0  0  0  0  0
   25.2972  -20.8569   -8.0023 S   0  0  0  0  0  0  0  0  0  0  0  0
   24.5990  -20.6761   -9.6814 C   0  0  0  0  0  0  0  0  0  0  0  0
   25.6732  -20.9338  -10.6971 C   0  0  0  0  0  0  0  0  0  0  0  0
   25.1018  -20.6756  -12.0815 C   0  0  2  0  0  0  0  0  0  0  0  0
   23.7551  -21.1046  -12.2695 N   0  0  0  0  0  0  0  0  0  0  0  0
   26.0214  -20.9202  -13.1820 C   0  0  0  0  0  0  0  0  0  0  0  0
   27.2590  -20.7503  -12.9621 O   0  0  0  0  0  0  0  0  0  0  0  0
   26.3390  -24.0190  -15.3124 C   0  0  0  0  0  0  0  0  0  0  0  0
   26.3909  -22.8480  -16.2700 C   0  0  2  0  0  0  0  0  0  0  0  0
   27.4739  -23.1436  -17.2775 C   0  0  0  0  0  0  0  0  0  0  0  0
   26.6827  -21.5942  -15.4798 C   0  0  2  0  0  0  0  0  0  0  0  0
   25.6521  -21.3353  -14.4886 N   0  0  0  0  0  0  0  0  0  0  0  0
   26.7935  -20.4533  -16.4243 C   0  0  0  0  0  0  0  0  0  0  0  0
   27.9785  -20.1228  -17.0275 O   0  0  0  0  0  0  0  0  0  0  0  0
   25.7657  -19.7706  -16.6767 O   0  0  0  0  0  0  0  0  0  0  0  0
  1  2  1  0
  2  3  1  0
  4  5  1  0
  4  3  1  0
  5  6  1  1
  7  5  1  0
  8  7  2  0
  9 10  1  0
 10 11  1  0
 13 12  1  1
 12 11  1  0
 13 14  1  0
 14  7  1  0
 15 21  1  0
 15 13  1  0
 16 15  2  0
 18 17  1  1
 18 20  1  0
 18 19  1  0
 20 22  1  0
 20 21  1  1
 22 23  1  0
 24 22  2  0
M  END
$$$$
