RQF.pdb
     RDKit          3D

 32 32  0  0  1  0  0  0  0  0999 V2000
   28.1408  -22.1331  -16.0302 N   0  0  0  0  0  0  0  0  0  0  0  0
   29.3562  -21.8068  -16.6829 C   0  0  0  0  0  0  0  0  0  0  0  0
   30.2783  -22.7104  -16.7208 N   0  0  0  0  0  0  0  0  0  0  0  0
   29.5857  -20.5340  -17.2960 N   0  0  0  0  0  0  0  0  0  0  0  0
   28.7830  -19.3824  -16.9888 C   0  0  0  0  0  0  0  0  0  0  0  0
   28.8798  -18.8941  -15.5748 C   0  0  0  0  0  0  0  0  0  0  0  0
   27.5951  -18.4750  -14.9516 C   0  0  0  0  0  0  0  0  0  0  0  0
   26.6281  -19.6340  -14.7856 C   0  0  2  0  0  0  0  0  0  0  0  0
   25.6932  -19.7351  -15.8511 N   0  0  0  0  0  0  0  0  0  0  0  0
   26.0490  -19.5442  -13.4324 C   0  0  0  0  0  0  0  0  0  0  0  0
   25.8863  -18.3923  -12.9556 O   0  0  0  0  0  0  0  0  0  0  0  0
   31.1677  -22.5074  -17.2137 N   0  0  0  0  0  0  0  0  0  0  0  0
   21.8022  -20.5398  -10.0175 C   0  0  0  0  0  0  0  0  0  0  0  0
   21.5561  -20.5785  -11.4210 O   0  0  0  0  0  0  0  0  0  0  0  0
   20.4723  -20.0785  -11.8542 C   0  0  0  0  0  0  0  0  0  0  0  0
   22.5504  -21.1880  -12.3083 C   0  0  0  0  0  0  0  0  0  0  0  0
   23.7938  -21.6661  -11.6549 C   0  0  2  0  0  0  0  0  0  0  0  0
   24.8634  -20.6221  -11.5575 N   0  0  0  0  0  0  0  0  0  0  0  0
   25.7046  -20.7071  -12.7308 C   0  0  0  0  0  0  0  0  0  0  0  0
   25.7896  -20.8477  -10.3971 O   0  0  0  0  0  0  0  0  0  0  0  0
   26.6518  -21.7492  -10.4949 N   0  0  0  0  0  0  0  0  0  0  0  0
   25.7448  -20.1024   -9.2039 C   0  0  1  0  0  0  0  0  0  0  0  0
   26.5838  -20.4223   -8.0548 C   0  0  0  0  0  0  0  0  0  0  0  0
   27.5107  -19.2807   -7.7235 C   0  0  0  0  0  0  0  0  0  0  0  0
   28.1777  -19.5992   -6.4202 C   0  0  0  0  0  0  0  0  0  0  0  0
   27.6611  -19.1824   -5.2149 C   0  0  0  0  0  0  0  0  0  0  0  0
   28.2424  -19.4625   -3.9901 C   0  0  0  0  0  0  0  0  0  0  0  0
   29.4117  -20.2053   -3.9737 C   0  0  0  0  0  0  0  0  0  0  0  0
   29.9389  -20.6291   -5.1829 C   0  0  0  0  0  0  0  0  0  0  0  0
   29.3488  -20.3417   -6.3900 C   0  0  0  0  0  0  0  0  0  0  0  0
   25.8065  -20.9251   -6.9229 O   0  0  0  0  0  0  0  0  0  0  0  0
   24.5687  -20.7108   -6.9159 O   0  0  0  0  0  0  0  0  0  0  0  0
  2  3  2  0
  2  1  1  0
  4  2  1  0
  5  4  1  0
  6  5  1  0
  7  6  1  0
  8  9  1  6
  8  7  1  0
 10 18  1  0
 10  8  1  0
 11 10  2  0
 13 12  1  0
 14 13  2  0
 15 13  1  0
 16 15  1  0
 17 18  1  0
 17 16  1  6
 19 17  1  0
 20 19  2  0
 21 19  1  0
 22 23  1  1
 22 21  1  0
 23 24  1  0
 24 25  2  0
 25 26  1  0
 27 26  2  0
 28 27  1  0
 29 24  1  0
 29 28  2  0
 30 32  1  0
 30 22  1  0
 31 30  2  0
M  END
$$$$
