RQF.pdb
     RDKit          3D

 32 32  0  0  1  0  0  0  0  0999 V2000
   26.4101  -15.1763  -18.5323 N   0  0  0  0  0  0  0  0  0  0  0  0
   25.8602  -14.0907  -17.8052 C   0  0  0  0  0  0  0  0  0  0  0  0
   25.0346  -13.3122  -18.4219 N   0  0  0  0  0  0  0  0  0  0  0  0
   26.1799  -13.8399  -16.4327 N   0  0  0  0  0  0  0  0  0  0  0  0
   27.1226  -14.6470  -15.7083 C   0  0  0  0  0  0  0  0  0  0  0  0
   26.9284  -16.1279  -15.8368 C   0  0  0  0  0  0  0  0  0  0  0  0
   26.3061  -16.7974  -14.6625 C   0  0  0  0  0  0  0  0  0  0  0  0
   27.1678  -17.9213  -14.1143 C   0  0  2  0  0  0  0  0  0  0  0  0
   27.8958  -18.6068  -15.1239 N   0  0  0  0  0  0  0  0  0  0  0  0
   26.3132  -18.7640  -13.2575 C   0  0  0  0  0  0  0  0  0  0  0  0
   25.4936  -18.1727  -12.5096 O   0  0  0  0  0  0  0  0  0  0  0  0
   24.6803  -12.4648  -17.9407 N   0  0  0  0  0  0  0  0  0  0  0  0
   25.1463  -24.9299  -14.1579 C   0  0  0  0  0  0  0  0  0  0  0  0
   24.4363  -24.6115  -12.9635 O   0  0  0  0  0  0  0  0  0  0  0  0
   23.7516  -25.5268  -12.4105 C   0  0  0  0  0  0  0  0  0  0  0  0
   24.5180  -23.2535  -12.4192 C   0  0  0  0  0  0  0  0  0  0  0  0
   25.3797  -22.3067  -13.1695 C   0  0  1  0  0  0  0  0  0  0  0  0
   25.5507  -20.9814  -12.4928 N   0  0  0  0  0  0  0  0  0  0  0  0
   26.4302  -20.1597  -13.2947 C   0  0  0  0  0  0  0  0  0  0  0  0
   26.2322  -21.0951  -11.1594 O   0  0  0  0  0  0  0  0  0  0  0  0
   27.4770  -21.2223  -11.1401 N   0  0  0  0  0  0  0  0  0  0  0  0
   25.5515  -21.0662   -9.9278 C   0  0  1  0  0  0  0  0  0  0  0  0
   26.2534  -21.0980   -8.6499 C   0  0  0  0  0  0  0  0  0  0  0  0
   27.3305  -20.0449   -8.5946 C   0  0  0  0  0  0  0  0  0  0  0  0
   27.9207  -20.0691   -7.2177 C   0  0  0  0  0  0  0  0  0  0  0  0
   28.8399  -21.0185   -6.8343 C   0  0  0  0  0  0  0  0  0  0  0  0
   29.4138  -21.0703   -5.5755 C   0  0  0  0  0  0  0  0  0  0  0  0
   29.0433  -20.1121   -4.6460 C   0  0  0  0  0  0  0  0  0  0  0  0
   28.1182  -19.1523   -5.0236 C   0  0  0  0  0  0  0  0  0  0  0  0
   27.5581  -19.1159   -6.2778 C   0  0  0  0  0  0  0  0  0  0  0  0
   25.3352  -21.0916   -7.5120 O   0  0  0  0  0  0  0  0  0  0  0  0
   24.2193  -20.5333   -7.6578 O   0  0  0  0  0  0  0  0  0  0  0  0
  2  3  2  0
  2  1  1  0
  4  2  1  0
  5  4  1  0
  6  5  1  0
  7  6  1  0
  8  9  1  6
  8  7  1  0
 10 18  1  0
 10  8  1  0
 11 10  2  0
 13 12  1  0
 14 13  2  0
 15 13  1  0
 16 15  1  0
 17 18  1  0
 17 16  1  6
 19 17  1  0
 20 19  2  0
 21 19  1  0
 22 23  1  1
 22 21  1  0
 23 24  1  0
 24 25  2  0
 25 26  1  0
 27 26  2  0
 28 27  1  0
 29 24  1  0
 29 28  2  0
 30 32  1  0
 30 22  1  0
 31 30  2  0
M  END
$$$$
