RQF.pdb
     RDKit          3D

 32 32  0  0  1  0  0  0  0  0999 V2000
   32.9896  -24.8864  -16.6537 N   0  0  0  0  0  0  0  0  0  0  0  0
   33.0137  -24.5074  -15.2879 C   0  0  0  0  0  0  0  0  0  0  0  0
   34.1002  -24.7241  -14.6241 N   0  0  0  0  0  0  0  0  0  0  0  0
   31.8951  -23.8969  -14.6363 N   0  0  0  0  0  0  0  0  0  0  0  0
   30.6310  -23.7185  -15.2959 C   0  0  0  0  0  0  0  0  0  0  0  0
   30.4192  -22.3716  -15.9191 C   0  0  0  0  0  0  0  0  0  0  0  0
   29.5761  -21.4280  -15.1360 C   0  0  0  0  0  0  0  0  0  0  0  0
   28.1541  -21.9318  -14.9616 C   0  0  2  0  0  0  0  0  0  0  0  0
   27.4944  -22.1732  -16.1969 N   0  0  0  0  0  0  0  0  0  0  0  0
   27.4641  -21.0145  -14.0360 C   0  0  0  0  0  0  0  0  0  0  0  0
   27.6134  -19.7821  -14.2353 O   0  0  0  0  0  0  0  0  0  0  0  0
   34.1572  -24.4259  -13.6327 N   0  0  0  0  0  0  0  0  0  0  0  0
   21.0522  -20.6724  -11.4010 C   0  0  0  0  0  0  0  0  0  0  0  0
   21.9804  -20.3084  -12.4198 O   0  0  0  0  0  0  0  0  0  0  0  0
   21.5589  -20.2293  -13.6150 C   0  0  0  0  0  0  0  0  0  0  0  0
   23.3753  -20.0411  -12.0590 C   0  0  0  0  0  0  0  0  0  0  0  0
   24.3935  -20.8603  -12.7617 C   0  0  1  0  0  0  0  0  0  0  0  0
   25.7895  -20.6443  -12.2636 N   0  0  0  0  0  0  0  0  0  0  0  0
   26.6829  -21.5204  -12.9887 C   0  0  0  0  0  0  0  0  0  0  0  0
   25.9556  -21.0261  -10.8207 O   0  0  0  0  0  0  0  0  0  0  0  0
   26.1807  -22.2266  -10.5485 N   0  0  0  0  0  0  0  0  0  0  0  0
   25.8736  -20.1107   -9.7547 C   0  0  1  0  0  0  0  0  0  0  0  0
   25.7496  -20.5416   -8.3670 C   0  0  0  0  0  0  0  0  0  0  0  0
   26.1863  -19.4542   -7.4187 C   0  0  0  0  0  0  0  0  0  0  0  0
   27.5574  -19.8035   -6.9258 C   0  0  0  0  0  0  0  0  0  0  0  0
   27.8064  -20.9565   -6.2173 C   0  0  0  0  0  0  0  0  0  0  0  0
   29.0589  -21.3186   -5.7518 C   0  0  0  0  0  0  0  0  0  0  0  0
   30.1251  -20.4734   -6.0128 C   0  0  0  0  0  0  0  0  0  0  0  0
   29.8833  -19.3101   -6.7255 C   0  0  0  0  0  0  0  0  0  0  0  0
   28.6332  -18.9659   -7.1801 C   0  0  0  0  0  0  0  0  0  0  0  0
   24.4341  -21.1108   -8.0779 O   0  0  0  0  0  0  0  0  0  0  0  0
   23.4396  -20.6321   -8.6780 O   0  0  0  0  0  0  0  0  0  0  0  0
  2  3  2  0
  2  1  1  0
  4  2  1  0
  5  4  1  0
  6  5  1  0
  7  6  1  0
  8  9  1  6
  8  7  1  0
 10 18  1  0
 10  8  1  0
 11 10  2  0
 13 12  1  0
 14 13  2  0
 15 13  1  0
 16 15  1  0
 17 18  1  0
 17 16  1  6
 19 17  1  0
 20 19  2  0
 21 19  1  0
 22 23  1  1
 22 21  1  0
 23 24  1  0
 24 25  2  0
 25 26  1  0
 27 26  2  0
 28 27  1  0
 29 24  1  0
 29 28  2  0
 30 32  1  0
 30 22  1  0
 31 30  2  0
M  END
$$$$
