RQF.pdb
     RDKit          3D

 32 32  0  0  1  0  0  0  0  0999 V2000
   19.0154  -16.5553  -14.3785 N   0  0  0  0  0  0  0  0  0  0  0  0
   17.9285  -17.2643  -14.9491 C   0  0  0  0  0  0  0  0  0  0  0  0
   16.7606  -16.7153  -14.8973 N   0  0  0  0  0  0  0  0  0  0  0  0
   18.0838  -18.5419  -15.5755 N   0  0  0  0  0  0  0  0  0  0  0  0
   19.2157  -19.3878  -15.3147 C   0  0  0  0  0  0  0  0  0  0  0  0
   19.7296  -19.3526  -13.9069 C   0  0  0  0  0  0  0  0  0  0  0  0
   20.8926  -20.2377  -13.6264 C   0  0  0  0  0  0  0  0  0  0  0  0
   22.1073  -19.8788  -14.4642 C   0  0  2  0  0  0  0  0  0  0  0  0
   21.9778  -20.2658  -15.8254 N   0  0  0  0  0  0  0  0  0  0  0  0
   23.3008  -20.3891  -13.7645 C   0  0  0  0  0  0  0  0  0  0  0  0
   23.1568  -21.4287  -13.0722 O   0  0  0  0  0  0  0  0  0  0  0  0
   15.9481  -17.2111  -15.3088 N   0  0  0  0  0  0  0  0  0  0  0  0
   26.8599  -22.2156  -15.5989 C   0  0  0  0  0  0  0  0  0  0  0  0
   28.0128  -21.9497  -14.8040 O   0  0  0  0  0  0  0  0  0  0  0  0
   28.9264  -22.8304  -14.7586 C   0  0  0  0  0  0  0  0  0  0  0  0
   28.1051  -20.6832  -14.0728 C   0  0  0  0  0  0  0  0  0  0  0  0
   26.9072  -19.8099  -14.1380 C   0  0  2  0  0  0  0  0  0  0  0  0
   25.7347  -20.3365  -13.3690 N   0  0  0  0  0  0  0  0  0  0  0  0
   24.5289  -19.7251  -13.8827 C   0  0  0  0  0  0  0  0  0  0  0  0
   25.7759  -19.9563  -11.9168 O   0  0  0  0  0  0  0  0  0  0  0  0
   25.4258  -18.7979  -11.5983 N   0  0  0  0  0  0  0  0  0  0  0  0
   26.1856  -20.8286  -10.8910 C   0  0  1  0  0  0  0  0  0  0  0  0
   27.0068  -20.3820   -9.7716 C   0  0  0  0  0  0  0  0  0  0  0  0
   26.2344  -20.4284   -8.4779 C   0  0  0  0  0  0  0  0  0  0  0  0
   27.1501  -19.9698   -7.3843 C   0  0  0  0  0  0  0  0  0  0  0  0
   27.5046  -18.6487   -7.2351 C   0  0  0  0  0  0  0  0  0  0  0  0
   28.3408  -18.1842   -6.2343 C   0  0  0  0  0  0  0  0  0  0  0  0
   28.8517  -19.1001   -5.3291 C   0  0  0  0  0  0  0  0  0  0  0  0
   28.5000  -20.4325   -5.4719 C   0  0  0  0  0  0  0  0  0  0  0  0
   27.6686  -20.8765   -6.4718 C   0  0  0  0  0  0  0  0  0  0  0  0
   28.3043  -21.0550   -9.7318 O   0  0  0  0  0  0  0  0  0  0  0  0
   28.3695  -22.2355  -10.1566 O   0  0  0  0  0  0  0  0  0  0  0  0
  2  3  2  0
  2  1  1  0
  4  2  1  0
  5  4  1  0
  6  5  1  0
  7  6  1  0
  8  9  1  6
  8  7  1  0
 10 18  1  0
 10  8  1  0
 11 10  2  0
 13 12  1  0
 14 13  2  0
 15 13  1  0
 16 15  1  0
 17 18  1  0
 17 16  1  6
 19 17  1  0
 20 19  2  0
 21 19  1  0
 22 23  1  6
 22 21  1  0
 23 24  1  0
 24 25  2  0
 25 26  1  0
 27 26  2  0
 28 27  1  0
 29 24  1  0
 29 28  2  0
 30 32  1  0
 30 22  1  0
 31 30  2  0
M  END
$$$$
