RQF.pdb
     RDKit          3D

 32 32  0  0  1  0  0  0  0  0999 V2000
   29.1614  -33.1020  -18.6807 N   0  0  0  0  0  0  0  0  0  0  0  0
   30.2920  -32.2563  -18.5533 C   0  0  0  0  0  0  0  0  0  0  0  0
   31.4018  -32.6548  -19.0802 N   0  0  0  0  0  0  0  0  0  0  0  0
   30.2407  -30.9952  -17.8783 N   0  0  0  0  0  0  0  0  0  0  0  0
   29.0531  -30.5316  -17.2153 C   0  0  0  0  0  0  0  0  0  0  0  0
   28.1504  -29.6714  -18.0474 C   0  0  0  0  0  0  0  0  0  0  0  0
   27.5061  -28.5372  -17.3313 C   0  0  0  0  0  0  0  0  0  0  0  0
   28.4595  -27.3756  -17.1123 C   0  0  2  0  0  0  0  0  0  0  0  0
   29.6155  -27.7377  -16.3693 N   0  0  0  0  0  0  0  0  0  0  0  0
   27.6769  -26.2496  -16.5701 C   0  0  0  0  0  0  0  0  0  0  0  0
   27.5797  -26.1710  -15.3190 O   0  0  0  0  0  0  0  0  0  0  0  0
   31.4583  -33.6081  -19.4841 N   0  0  0  0  0  0  0  0  0  0  0  0
   25.1437  -20.2158  -19.2260 C   0  0  0  0  0  0  0  0  0  0  0  0
   26.1833  -20.5979  -18.3288 O   0  0  0  0  0  0  0  0  0  0  0  0
   27.2574  -19.9207  -18.3316 C   0  0  0  0  0  0  0  0  0  0  0  0
   25.9814  -21.7475  -17.4427 C   0  0  0  0  0  0  0  0  0  0  0  0
   26.6753  -22.9982  -17.8376 C   0  0  1  0  0  0  0  0  0  0  0  0
   26.4416  -24.1401  -16.8967 N   0  0  0  0  0  0  0  0  0  0  0  0
   27.0780  -25.3227  -17.4333 C   0  0  0  0  0  0  0  0  0  0  0  0
   24.9892  -24.5014  -16.7733 O   0  0  0  0  0  0  0  0  0  0  0  0
   24.4807  -25.2201  -17.6625 N   0  0  0  0  0  0  0  0  0  0  0  0
   24.1652  -24.0786  -15.7134 C   0  0  1  0  0  0  0  0  0  0  0  0
   22.7394  -24.3815  -15.6679 C   0  0  0  0  0  0  0  0  0  0  0  0
   22.1459  -24.0063  -14.3340 C   0  0  0  0  0  0  0  0  0  0  0  0
   20.6809  -24.3164  -14.3840 C   0  0  0  0  0  0  0  0  0  0  0  0
   19.7436  -23.3623  -14.7073 C   0  0  0  0  0  0  0  0  0  0  0  0
   18.3832  -23.6104  -14.7720 C   0  0  0  0  0  0  0  0  0  0  0  0
   17.9366  -24.8924  -14.4959 C   0  0  0  0  0  0  0  0  0  0  0  0
   18.8736  -25.8594  -14.1694 C   0  0  0  0  0  0  0  0  0  0  0  0
   20.2208  -25.5956  -14.1095 C   0  0  0  0  0  0  0  0  0  0  0  0
   22.0219  -23.8500  -16.8258 O   0  0  0  0  0  0  0  0  0  0  0  0
   21.1789  -24.5921  -17.3888 O   0  0  0  0  0  0  0  0  0  0  0  0
  2  3  2  0
  2  1  1  0
  4  2  1  0
  5  4  1  0
  6  5  1  0
  7  6  1  0
  8  9  1  1
  8  7  1  0
 10 18  1  0
 10  8  1  0
 11 10  2  0
 13 12  1  0
 14 13  2  0
 15 13  1  0
 16 15  1  0
 17 18  1  0
 17 16  1  1
 19 17  1  0
 20 19  2  0
 21 19  1  0
 22 23  1  6
 22 21  1  0
 23 24  1  0
 24 25  2  0
 25 26  1  0
 27 26  2  0
 28 27  1  0
 29 24  1  0
 29 28  2  0
 30 32  1  0
 30 22  1  0
 31 30  2  0
M  END
$$$$
