RQF.pdb
     RDKit          3D

 32 32  0  0  1  0  0  0  0  0999 V2000
   29.5826  -26.3683  -19.3973 N   0  0  0  0  0  0  0  0  0  0  0  0
   29.5996  -27.2746  -18.3074 C   0  0  0  0  0  0  0  0  0  0  0  0
   29.9498  -28.4945  -18.5468 N   0  0  0  0  0  0  0  0  0  0  0  0
   29.2545  -26.8852  -16.9740 N   0  0  0  0  0  0  0  0  0  0  0  0
   28.8251  -25.5515  -16.6549 C   0  0  0  0  0  0  0  0  0  0  0  0
   29.9127  -24.5204  -16.6205 C   0  0  0  0  0  0  0  0  0  0  0  0
   29.4980  -23.1657  -16.1653 C   0  0  0  0  0  0  0  0  0  0  0  0
   28.4739  -22.5333  -17.0913 C   0  0  2  0  0  0  0  0  0  0  0  0
   29.0563  -21.9497  -18.2487 N   0  0  0  0  0  0  0  0  0  0  0  0
   27.6283  -21.6384  -16.2797 C   0  0  0  0  0  0  0  0  0  0  0  0
   28.0718  -20.4842  -16.0517 O   0  0  0  0  0  0  0  0  0  0  0  0
   29.9151  -29.1922  -17.7805 N   0  0  0  0  0  0  0  0  0  0  0  0
   21.4396  -21.4131  -16.2501 C   0  0  0  0  0  0  0  0  0  0  0  0
   21.7741  -20.6256  -15.1100 O   0  0  0  0  0  0  0  0  0  0  0  0
   20.8370  -20.0220  -14.5018 C   0  0  0  0  0  0  0  0  0  0  0  0
   23.1729  -20.5386  -14.6820 C   0  0  0  0  0  0  0  0  0  0  0  0
   24.1514  -21.2809  -15.5145 C   0  0  1  0  0  0  0  0  0  0  0  0
   25.5599  -21.1919  -15.0128 N   0  0  0  0  0  0  0  0  0  0  0  0
   26.3898  -22.0803  -15.7961 C   0  0  0  0  0  0  0  0  0  0  0  0
   25.7024  -21.6728  -13.5973 O   0  0  0  0  0  0  0  0  0  0  0  0
   26.5623  -22.5486  -13.3537 N   0  0  0  0  0  0  0  0  0  0  0  0
   24.9243  -21.1945  -12.5264 C   0  0  1  0  0  0  0  0  0  0  0  0
   25.4293  -21.1444  -11.1592 C   0  0  0  0  0  0  0  0  0  0  0  0
   26.7577  -20.4347  -11.0957 C   0  0  0  0  0  0  0  0  0  0  0  0
   27.1986  -20.4210   -9.6638 C   0  0  0  0  0  0  0  0  0  0  0  0
   28.2055  -21.2375   -9.2024 C   0  0  0  0  0  0  0  0  0  0  0  0
   28.6467  -21.2492   -7.8903 C   0  0  0  0  0  0  0  0  0  0  0  0
   28.0416  -20.3903   -6.9873 C   0  0  0  0  0  0  0  0  0  0  0  0
   27.0268  -19.5647   -7.4433 C   0  0  0  0  0  0  0  0  0  0  0  0
   26.6009  -19.5662   -8.7497 C   0  0  0  0  0  0  0  0  0  0  0  0
   24.4279  -20.6500  -10.2154 O   0  0  0  0  0  0  0  0  0  0  0  0
   23.7250  -19.6681  -10.5618 O   0  0  0  0  0  0  0  0  0  0  0  0
  2  3  2  0
  2  1  1  0
  4  2  1  0
  5  4  1  0
  6  5  1  0
  7  6  1  0
  8  9  1  6
  8  7  1  0
 10 18  1  0
 10  8  1  0
 11 10  2  0
 13 12  1  0
 14 13  2  0
 15 13  1  0
 16 15  1  0
 17 18  1  0
 17 16  1  6
 19 17  1  0
 20 19  2  0
 21 19  1  0
 22 23  1  1
 22 21  1  0
 23 24  1  0
 24 25  2  0
 25 26  1  0
 27 26  2  0
 28 27  1  0
 29 24  1  0
 29 28  2  0
 30 32  1  0
 30 22  1  0
 31 30  2  0
M  END
$$$$
