RQF.pdb
     RDKit          3D

 32 32  0  0  1  0  0  0  0  0999 V2000
   28.4914  -17.9527  -19.5617 N   0  0  0  0  0  0  0  0  0  0  0  0
   29.6606  -17.9096  -18.7612 C   0  0  0  0  0  0  0  0  0  0  0  0
   30.8006  -17.8603  -19.3662 N   0  0  0  0  0  0  0  0  0  0  0  0
   29.6172  -17.9114  -17.3306 N   0  0  0  0  0  0  0  0  0  0  0  0
   28.3777  -17.8830  -16.6041 C   0  0  0  0  0  0  0  0  0  0  0  0
   27.8058  -16.5176  -16.3679 C   0  0  0  0  0  0  0  0  0  0  0  0
   26.4868  -16.4850  -15.6796 C   0  0  0  0  0  0  0  0  0  0  0  0
   25.5588  -17.5885  -16.1561 C   0  0  2  0  0  0  0  0  0  0  0  0
   24.9029  -17.2748  -17.3771 N   0  0  0  0  0  0  0  0  0  0  0  0
   24.6773  -17.9499  -15.0305 C   0  0  0  0  0  0  0  0  0  0  0  0
   24.0806  -17.0095  -14.4470 O   0  0  0  0  0  0  0  0  0  0  0  0
   31.6686  -17.7680  -18.8065 N   0  0  0  0  0  0  0  0  0  0  0  0
   21.7579  -21.4035  -11.5005 C   0  0  0  0  0  0  0  0  0  0  0  0
   20.8453  -20.5465  -12.1822 O   0  0  0  0  0  0  0  0  0  0  0  0
   19.7358  -20.2850  -11.6228 C   0  0  0  0  0  0  0  0  0  0  0  0
   21.2126  -20.0019  -13.4921 C   0  0  0  0  0  0  0  0  0  0  0  0
   22.5239  -20.4405  -14.0303 C   0  0  2  0  0  0  0  0  0  0  0  0
   23.6819  -19.6338  -13.5284 N   0  0  0  0  0  0  0  0  0  0  0  0
   24.5295  -19.2898  -14.6486 C   0  0  0  0  0  0  0  0  0  0  0  0
   24.5664  -20.4086  -12.5942 O   0  0  0  0  0  0  0  0  0  0  0  0
   25.5976  -20.9417  -13.0615 N   0  0  0  0  0  0  0  0  0  0  0  0
   24.3032  -20.5698  -11.2210 C   0  0  1  0  0  0  0  0  0  0  0  0
   25.1929  -21.3187  -10.3409 C   0  0  0  0  0  0  0  0  0  0  0  0
   26.6154  -20.8361  -10.4670 C   0  0  0  0  0  0  0  0  0  0  0  0
   27.0350  -20.3016   -9.1317 C   0  0  0  0  0  0  0  0  0  0  0  0
   26.6049  -19.0802   -8.6666 C   0  0  0  0  0  0  0  0  0  0  0  0
   26.9632  -18.5551   -7.4367 C   0  0  0  0  0  0  0  0  0  0  0  0
   27.8030  -19.3002   -6.6251 C   0  0  0  0  0  0  0  0  0  0  0  0
   28.2409  -20.5314   -7.0856 C   0  0  0  0  0  0  0  0  0  0  0  0
   27.8755  -21.0375   -8.3097 C   0  0  0  0  0  0  0  0  0  0  0  0
   24.6905  -21.3844   -8.9693 O   0  0  0  0  0  0  0  0  0  0  0  0
   25.2488  -22.1810   -8.1743 O   0  0  0  0  0  0  0  0  0  0  0  0
  2  3  2  0
  2  1  1  0
  4  2  1  0
  5  4  1  0
  6  5  1  0
  7  6  1  0
  8  9  1  6
  8  7  1  0
 10 18  1  0
 10  8  1  0
 11 10  2  0
 13 12  1  0
 14 13  2  0
 15 13  1  0
 16 15  1  0
 17 18  1  0
 17 16  1  6
 19 17  1  0
 20 19  2  0
 21 19  1  0
 22 23  1  1
 22 21  1  0
 23 24  1  0
 24 25  2  0
 25 26  1  0
 27 26  2  0
 28 27  1  0
 29 24  1  0
 29 28  2  0
 30 32  1  0
 30 22  1  0
 31 30  2  0
M  END
$$$$
