RQF.pdb
     RDKit          3D

 32 32  0  0  1  0  0  0  0  0999 V2000
   31.4671  -24.4499  -16.0184 N   0  0  0  0  0  0  0  0  0  0  0  0
   31.3859  -24.2937  -17.4250 C   0  0  0  0  0  0  0  0  0  0  0  0
   32.4282  -24.5991  -18.1238 N   0  0  0  0  0  0  0  0  0  0  0  0
   30.2046  -23.8239  -18.0827 N   0  0  0  0  0  0  0  0  0  0  0  0
   29.0053  -23.5010  -17.3600 C   0  0  0  0  0  0  0  0  0  0  0  0
   28.6973  -22.0378  -17.2530 C   0  0  0  0  0  0  0  0  0  0  0  0
   27.4505  -21.6971  -16.5155 C   0  0  0  0  0  0  0  0  0  0  0  0
   26.6554  -22.9302  -16.1240 C   0  0  2  0  0  0  0  0  0  0  0  0
   26.1362  -23.6355  -17.2431 N   0  0  0  0  0  0  0  0  0  0  0  0
   25.6661  -22.5220  -15.1096 C   0  0  0  0  0  0  0  0  0  0  0  0
   24.4555  -22.7370  -15.3726 O   0  0  0  0  0  0  0  0  0  0  0  0
   32.4236  -24.4230  -19.1457 N   0  0  0  0  0  0  0  0  0  0  0  0
   25.1137  -21.1546   -8.2164 C   0  0  0  0  0  0  0  0  0  0  0  0
   24.5656  -20.9660   -9.5187 O   0  0  0  0  0  0  0  0  0  0  0  0
   23.3152  -21.1246   -9.6721 C   0  0  0  0  0  0  0  0  0  0  0  0
   25.4531  -20.6001  -10.6258 C   0  0  0  0  0  0  0  0  0  0  0  0
   25.8302  -21.7029  -11.5441 C   0  0  1  0  0  0  0  0  0  0  0  0
   25.1249  -21.6555  -12.8648 N   0  0  0  0  0  0  0  0  0  0  0  0
   26.0837  -21.9226  -13.9140 C   0  0  0  0  0  0  0  0  0  0  0  0
   24.5732  -20.2945  -13.1786 O   0  0  0  0  0  0  0  0  0  0  0  0
   25.3813  -19.3661  -13.4044 N   0  0  0  0  0  0  0  0  0  0  0  0
   23.1976  -20.0017  -13.2345 C   0  0  1  0  0  0  0  0  0  0  0  0
   22.5247  -19.6610  -14.4826 C   0  0  0  0  0  0  0  0  0  0  0  0
   23.2741  -20.2069  -15.6712 C   0  0  0  0  0  0  0  0  0  0  0  0
   22.5748  -19.7314  -16.9080 C   0  0  0  0  0  0  0  0  0  0  0  0
   21.6022  -20.4800  -17.5300 C   0  0  0  0  0  0  0  0  0  0  0  0
   20.9279  -20.0729  -18.6685 C   0  0  0  0  0  0  0  0  0  0  0  0
   21.2486  -18.8412  -19.2154 C   0  0  0  0  0  0  0  0  0  0  0  0
   22.2270  -18.0808  -18.5956 C   0  0  0  0  0  0  0  0  0  0  0  0
   22.8868  -18.5005  -17.4657 C   0  0  0  0  0  0  0  0  0  0  0  0
   21.1010  -19.9931  -14.4543 O   0  0  0  0  0  0  0  0  0  0  0  0
   20.7725  -21.1506  -14.0929 O   0  0  0  0  0  0  0  0  0  0  0  0
  2  3  2  0
  2  1  1  0
  4  2  1  0
  5  4  1  0
  6  5  1  0
  7  6  1  0
  8  9  1  6
  8  7  1  0
 10 18  1  0
 10  8  1  0
 11 10  2  0
 13 12  1  0
 14 13  2  0
 15 13  1  0
 16 15  1  0
 17 18  1  0
 17 16  1  1
 19 17  1  0
 20 19  2  0
 21 19  1  0
 22 23  1  1
 22 21  1  0
 23 24  1  0
 24 25  2  0
 25 26  1  0
 27 26  2  0
 28 27  1  0
 29 24  1  0
 29 28  2  0
 30 32  1  0
 30 22  1  0
 31 30  2  0
M  END
$$$$
