RQF.pdb
     RDKit          3D

 32 32  0  0  1  0  0  0  0  0999 V2000
   30.5229  -25.6982  -16.5164 N   0  0  0  0  0  0  0  0  0  0  0  0
   29.1182  -25.8869  -16.5473 C   0  0  0  0  0  0  0  0  0  0  0  0
   28.6742  -27.0984  -16.4925 N   0  0  0  0  0  0  0  0  0  0  0  0
   28.1944  -24.7966  -16.6282 N   0  0  0  0  0  0  0  0  0  0  0  0
   28.6311  -23.4328  -16.7474 C   0  0  0  0  0  0  0  0  0  0  0  0
   29.4568  -22.9233  -15.6046 C   0  0  0  0  0  0  0  0  0  0  0  0
   28.8370  -21.8352  -14.8006 C   0  0  0  0  0  0  0  0  0  0  0  0
   27.5177  -21.3636  -15.3862 C   0  0  2  0  0  0  0  0  0  0  0  0
   27.6729  -20.6601  -16.6111 N   0  0  0  0  0  0  0  0  0  0  0  0
   26.7869  -20.6470  -14.3247 C   0  0  0  0  0  0  0  0  0  0  0  0
   26.9760  -19.4071  -14.2374 O   0  0  0  0  0  0  0  0  0  0  0  0
   27.6576  -27.2717  -16.6005 N   0  0  0  0  0  0  0  0  0  0  0  0
   21.0439  -21.7943  -12.3977 C   0  0  0  0  0  0  0  0  0  0  0  0
   21.5121  -20.8781  -11.4111 O   0  0  0  0  0  0  0  0  0  0  0  0
   20.6853  -20.4538  -10.5458 C   0  0  0  0  0  0  0  0  0  0  0  0
   22.9164  -20.4597  -11.4278 C   0  0  0  0  0  0  0  0  0  0  0  0
   23.7561  -21.0551  -12.4965 C   0  0  1  0  0  0  0  0  0  0  0  0
   25.1906  -20.6272  -12.4447 N   0  0  0  0  0  0  0  0  0  0  0  0
   25.9262  -21.3416  -13.4645 C   0  0  0  0  0  0  0  0  0  0  0  0
   25.8591  -20.9962  -11.1516 O   0  0  0  0  0  0  0  0  0  0  0  0
   26.4417  -22.1014  -11.0811 N   0  0  0  0  0  0  0  0  0  0  0  0
   25.8694  -20.1696  -10.0125 C   0  0  1  0  0  0  0  0  0  0  0  0
   26.5242  -20.5644   -8.7706 C   0  0  0  0  0  0  0  0  0  0  0  0
   27.8227  -19.8227   -8.5806 C   0  0  0  0  0  0  0  0  0  0  0  0
   28.2526  -20.0142   -7.1582 C   0  0  0  0  0  0  0  0  0  0  0  0
   29.1226  -21.0135   -6.7870 C   0  0  0  0  0  0  0  0  0  0  0  0
   29.5497  -21.2185   -5.4862 C   0  0  0  0  0  0  0  0  0  0  0  0
   29.0756  -20.3700   -4.4990 C   0  0  0  0  0  0  0  0  0  0  0  0
   28.1991  -19.3610   -4.8639 C   0  0  0  0  0  0  0  0  0  0  0  0
   27.7852  -19.1720   -6.1604 C   0  0  0  0  0  0  0  0  0  0  0  0
   25.6181  -20.5112   -7.6242 O   0  0  0  0  0  0  0  0  0  0  0  0
   24.6793  -19.6769   -7.6527 O   0  0  0  0  0  0  0  0  0  0  0  0
  2  3  2  0
  2  1  1  0
  4  2  1  0
  5  4  1  0
  6  5  1  0
  7  6  1  0
  8  9  1  6
  8  7  1  0
 10 18  1  0
 10  8  1  0
 11 10  2  0
 13 12  1  0
 14 13  2  0
 15 13  1  0
 16 15  1  0
 17 18  1  0
 17 16  1  6
 19 17  1  0
 20 19  2  0
 21 19  1  0
 22 23  1  1
 22 21  1  0
 23 24  1  0
 24 25  2  0
 25 26  1  0
 27 26  2  0
 28 27  1  0
 29 24  1  0
 29 28  2  0
 30 32  1  0
 30 22  1  0
 31 30  2  0
M  END
$$$$
