RQF.pdb
     RDKit          3D

 32 32  0  0  1  0  0  0  0  0999 V2000
   29.5875  -26.9387  -16.6843 N   0  0  0  0  0  0  0  0  0  0  0  0
   30.6980  -26.2689  -17.2570 C   0  0  0  0  0  0  0  0  0  0  0  0
   31.6154  -26.9916  -17.8085 N   0  0  0  0  0  0  0  0  0  0  0  0
   30.8276  -24.8435  -17.2496 N   0  0  0  0  0  0  0  0  0  0  0  0
   29.7573  -23.9815  -16.8299 C   0  0  0  0  0  0  0  0  0  0  0  0
   29.4311  -22.8617  -17.7718 C   0  0  0  0  0  0  0  0  0  0  0  0
   28.2403  -22.0458  -17.4102 C   0  0  0  0  0  0  0  0  0  0  0  0
   26.9649  -22.8694  -17.3738 C   0  0  2  0  0  0  0  0  0  0  0  0
   26.8094  -23.7040  -18.5134 N   0  0  0  0  0  0  0  0  0  0  0  0
   25.8458  -21.9502  -17.0962 C   0  0  0  0  0  0  0  0  0  0  0  0
   26.0295  -20.7327  -17.3505 O   0  0  0  0  0  0  0  0  0  0  0  0
   32.3933  -26.5265  -18.3122 N   0  0  0  0  0  0  0  0  0  0  0  0
   19.9912  -22.9447  -18.3566 C   0  0  0  0  0  0  0  0  0  0  0  0
   19.9181  -21.7382  -17.6010 O   0  0  0  0  0  0  0  0  0  0  0  0
   18.7940  -21.1548  -17.5093 C   0  0  0  0  0  0  0  0  0  0  0  0
   21.1291  -21.2157  -16.9624 C   0  0  0  0  0  0  0  0  0  0  0  0
   22.3652  -22.0091  -17.1731 C   0  0  1  0  0  0  0  0  0  0  0  0
   23.5293  -21.5399  -16.3556 N   0  0  0  0  0  0  0  0  0  0  0  0
   24.6418  -22.4384  -16.5718 C   0  0  0  0  0  0  0  0  0  0  0  0
   23.2620  -21.5992  -14.8791 O   0  0  0  0  0  0  0  0  0  0  0  0
   23.4600  -22.6825  -14.2849 N   0  0  0  0  0  0  0  0  0  0  0  0
   22.8016  -20.5050  -14.1228 C   0  0  1  0  0  0  0  0  0  0  0  0
   22.4399  -20.6290  -12.7155 C   0  0  0  0  0  0  0  0  0  0  0  0
   23.2987  -19.7400  -11.8527 C   0  0  0  0  0  0  0  0  0  0  0  0
   24.6818  -20.3161  -11.8404 C   0  0  0  0  0  0  0  0  0  0  0  0
   25.0615  -21.2835  -10.9387 C   0  0  0  0  0  0  0  0  0  0  0  0
   26.3258  -21.8460  -10.8999 C   0  0  0  0  0  0  0  0  0  0  0  0
   27.2652  -21.4119  -11.8209 C   0  0  0  0  0  0  0  0  0  0  0  0
   26.8915  -20.4379  -12.7325 C   0  0  0  0  0  0  0  0  0  0  0  0
   25.6316  -19.8900  -12.7568 C   0  0  0  0  0  0  0  0  0  0  0  0
   21.0012  -20.4850  -12.4974 O   0  0  0  0  0  0  0  0  0  0  0  0
   20.3167  -19.9559  -13.4083 O   0  0  0  0  0  0  0  0  0  0  0  0
  2  3  2  0
  2  1  1  0
  4  2  1  0
  5  4  1  0
  6  5  1  0
  7  6  1  0
  8  9  1  6
  8  7  1  0
 10 18  1  0
 10  8  1  0
 11 10  2  0
 13 12  1  0
 14 13  2  0
 15 13  1  0
 16 15  1  0
 17 18  1  0
 17 16  1  6
 19 17  1  0
 20 19  2  0
 21 19  1  0
 22 23  1  1
 22 21  1  0
 23 24  1  0
 24 25  2  0
 25 26  1  0
 27 26  2  0
 28 27  1  0
 29 24  1  0
 29 28  2  0
 30 32  1  0
 30 22  1  0
 31 30  2  0
M  END
$$$$
