RQF.pdb
     RDKit          3D

 32 32  0  0  1  0  0  0  0  0999 V2000
   21.9956  -17.5983  -15.1260 N   0  0  0  0  0  0  0  0  0  0  0  0
   21.1157  -17.4682  -16.2298 C   0  0  0  0  0  0  0  0  0  0  0  0
   21.3054  -16.4760  -17.0347 N   0  0  0  0  0  0  0  0  0  0  0  0
   20.0487  -18.3890  -16.4793 N   0  0  0  0  0  0  0  0  0  0  0  0
   19.9445  -19.6432  -15.7858 C   0  0  0  0  0  0  0  0  0  0  0  0
   20.0031  -20.8623  -16.6563 C   0  0  0  0  0  0  0  0  0  0  0  0
   19.8718  -22.1638  -15.9469 C   0  0  0  0  0  0  0  0  0  0  0  0
   21.0871  -23.0534  -16.1417 C   0  0  2  0  0  0  0  0  0  0  0  0
   21.6541  -22.9434  -17.4401 N   0  0  0  0  0  0  0  0  0  0  0  0
   20.7170  -24.4165  -15.7182 C   0  0  0  0  0  0  0  0  0  0  0  0
   19.7405  -24.9513  -16.3023 O   0  0  0  0  0  0  0  0  0  0  0  0
   20.6256  -16.3054  -17.7989 N   0  0  0  0  0  0  0  0  0  0  0  0
   21.7507  -30.0723  -14.9046 C   0  0  0  0  0  0  0  0  0  0  0  0
   22.0407  -29.2378  -16.0232 O   0  0  0  0  0  0  0  0  0  0  0  0
   22.0512  -29.7650  -17.1784 C   0  0  0  0  0  0  0  0  0  0  0  0
   22.3151  -27.8148  -15.8063 C   0  0  0  0  0  0  0  0  0  0  0  0
   22.1527  -27.3297  -14.4134 C   0  0  2  0  0  0  0  0  0  0  0  0
   21.0188  -26.3667  -14.2388 N   0  0  0  0  0  0  0  0  0  0  0  0
   21.4385  -25.0642  -14.7067 C   0  0  0  0  0  0  0  0  0  0  0  0
   20.6487  -26.1622  -12.7978 O   0  0  0  0  0  0  0  0  0  0  0  0
   21.1947  -25.2249  -12.1740 N   0  0  0  0  0  0  0  0  0  0  0  0
   19.7212  -26.9643  -12.1069 C   0  0  1  0  0  0  0  0  0  0  0  0
   19.2857  -26.6567  -10.7495 C   0  0  0  0  0  0  0  0  0  0  0  0
   18.8863  -25.2088  -10.6214 C   0  0  0  0  0  0  0  0  0  0  0  0
   18.4601  -24.9778   -9.2037 C   0  0  0  0  0  0  0  0  0  0  0  0
   17.1343  -24.9199   -8.8403 C   0  0  0  0  0  0  0  0  0  0  0  0
   16.7002  -24.7162   -7.5417 C   0  0  0  0  0  0  0  0  0  0  0  0
   17.6533  -24.5615   -6.5483 C   0  0  0  0  0  0  0  0  0  0  0  0
   18.9908  -24.6183   -6.9053 C   0  0  0  0  0  0  0  0  0  0  0  0
   19.4043  -24.8211   -8.1999 C   0  0  0  0  0  0  0  0  0  0  0  0
   18.2922  -27.6094  -10.2560 O   0  0  0  0  0  0  0  0  0  0  0  0
   17.2789  -27.8258  -10.9664 O   0  0  0  0  0  0  0  0  0  0  0  0
  2  3  2  0
  2  1  1  0
  4  2  1  0
  5  4  1  0
  6  5  1  0
  7  6  1  0
  8  9  1  6
  8  7  1  0
 10 18  1  0
 10  8  1  0
 11 10  2  0
 13 12  1  0
 14 13  2  0
 15 13  1  0
 16 15  1  0
 17 18  1  0
 17 16  1  6
 19 17  1  0
 20 19  2  0
 21 19  1  0
 22 23  1  1
 22 21  1  0
 23 24  1  0
 24 25  2  0
 25 26  1  0
 27 26  2  0
 28 27  1  0
 29 24  1  0
 29 28  2  0
 30 32  1  0
 30 22  1  0
 31 30  2  0
M  END
$$$$
