RQF.pdb
     RDKit          3D

 32 32  0  0  1  0  0  0  0  0999 V2000
   29.4079  -18.6457  -21.4709 N   0  0  0  0  0  0  0  0  0  0  0  0
   28.9804  -19.9253  -21.0356 C   0  0  0  0  0  0  0  0  0  0  0  0
   29.6931  -20.9456  -21.3806 N   0  0  0  0  0  0  0  0  0  0  0  0
   27.8098  -20.1169  -20.2345 N   0  0  0  0  0  0  0  0  0  0  0  0
   26.9157  -19.0374  -19.9183 C   0  0  0  0  0  0  0  0  0  0  0  0
   27.4465  -18.0327  -18.9405 C   0  0  0  0  0  0  0  0  0  0  0  0
   26.7474  -17.9838  -17.6278 C   0  0  0  0  0  0  0  0  0  0  0  0
   25.2537  -17.7542  -17.7768 C   0  0  2  0  0  0  0  0  0  0  0  0
   24.9425  -16.5929  -18.5343 N   0  0  0  0  0  0  0  0  0  0  0  0
   24.6537  -17.8206  -16.4314 C   0  0  0  0  0  0  0  0  0  0  0  0
   24.3451  -16.7293  -15.8886 O   0  0  0  0  0  0  0  0  0  0  0  0
   29.3570  -21.8998  -21.1528 N   0  0  0  0  0  0  0  0  0  0  0  0
   19.5728  -20.1342  -15.2812 C   0  0  0  0  0  0  0  0  0  0  0  0
   20.0009  -19.8851  -13.9445 O   0  0  0  0  0  0  0  0  0  0  0  0
   19.1367  -19.9474  -13.0163 C   0  0  0  0  0  0  0  0  0  0  0  0
   21.4083  -19.5681  -13.6879 C   0  0  0  0  0  0  0  0  0  0  0  0
   22.2714  -19.4387  -14.8879 C   0  0  1  0  0  0  0  0  0  0  0  0
   23.7026  -19.1307  -14.5708 N   0  0  0  0  0  0  0  0  0  0  0  0
   24.4480  -19.0584  -15.8080 C   0  0  0  0  0  0  0  0  0  0  0  0
   24.3678  -20.2191  -13.7782 O   0  0  0  0  0  0  0  0  0  0  0  0
   24.6942  -21.2699  -14.3742 N   0  0  0  0  0  0  0  0  0  0  0  0
   24.6468  -20.1259  -12.4018 C   0  0  1  0  0  0  0  0  0  0  0  0
   24.7551  -21.3034  -11.5484 C   0  0  0  0  0  0  0  0  0  0  0  0
   26.1877  -21.5608  -11.1560 C   0  0  0  0  0  0  0  0  0  0  0  0
   26.5236  -20.6357  -10.0263 C   0  0  0  0  0  0  0  0  0  0  0  0
   27.8045  -20.1820   -9.8108 C   0  0  0  0  0  0  0  0  0  0  0  0
   28.1539  -19.3213   -8.7843 C   0  0  0  0  0  0  0  0  0  0  0  0
   27.1584  -18.8901   -7.9227 C   0  0  0  0  0  0  0  0  0  0  0  0
   25.8656  -19.3420   -8.1324 C   0  0  0  0  0  0  0  0  0  0  0  0
   25.5364  -20.1968   -9.1566 C   0  0  0  0  0  0  0  0  0  0  0  0
   23.8136  -21.2671  -10.4302 O   0  0  0  0  0  0  0  0  0  0  0  0
   23.7437  -22.2760   -9.6850 O   0  0  0  0  0  0  0  0  0  0  0  0
  2  3  2  0
  2  1  1  0
  4  2  1  0
  5  4  1  0
  6  5  1  0
  7  6  1  0
  8  9  1  1
  8  7  1  0
 10 18  1  0
 10  8  1  0
 11 10  2  0
 13 12  1  0
 14 13  2  0
 15 13  1  0
 16 15  1  0
 17 18  1  0
 17 16  1  6
 19 17  1  0
 20 19  2  0
 21 19  1  0
 22 23  1  1
 22 21  1  0
 23 24  1  0
 24 25  2  0
 25 26  1  0
 27 26  2  0
 28 27  1  0
 29 24  1  0
 29 28  2  0
 30 32  1  0
 30 22  1  0
 31 30  2  0
M  END
$$$$
