RQF.pdb
     RDKit          3D

 32 32  0  0  1  0  0  0  0  0999 V2000
   32.3785  -20.6924  -10.4906 N   0  0  0  0  0  0  0  0  0  0  0  0
   32.1426  -21.8354  -11.2953 C   0  0  0  0  0  0  0  0  0  0  0  0
   32.9720  -22.8204  -11.1964 N   0  0  0  0  0  0  0  0  0  0  0  0
   31.0307  -21.9325  -12.1914 N   0  0  0  0  0  0  0  0  0  0  0  0
   29.8123  -21.2010  -11.9787 C   0  0  0  0  0  0  0  0  0  0  0  0
   29.6655  -19.9518  -12.7943 C   0  0  0  0  0  0  0  0  0  0  0  0
   28.4546  -19.8875  -13.6568 C   0  0  0  0  0  0  0  0  0  0  0  0
   28.1286  -21.2258  -14.2960 C   0  0  2  0  0  0  0  0  0  0  0  0
   28.8112  -21.4362  -15.5245 N   0  0  0  0  0  0  0  0  0  0  0  0
   26.6603  -21.3507  -14.3501 C   0  0  0  0  0  0  0  0  0  0  0  0
   26.1203  -21.2627  -15.4822 O   0  0  0  0  0  0  0  0  0  0  0  0
   32.8394  -23.6575  -11.7939 N   0  0  0  0  0  0  0  0  0  0  0  0
   22.7885  -24.3493  -13.4415 C   0  0  0  0  0  0  0  0  0  0  0  0
   21.9340  -23.4734  -12.7105 O   0  0  0  0  0  0  0  0  0  0  0  0
   20.6788  -23.6369  -12.8118 C   0  0  0  0  0  0  0  0  0  0  0  0
   22.5250  -22.4240  -11.8758 C   0  0  0  0  0  0  0  0  0  0  0  0
   24.0007  -22.2900  -11.9535 C   0  0  1  0  0  0  0  0  0  0  0  0
   24.4850  -21.6940  -13.2396 N   0  0  0  0  0  0  0  0  0  0  0  0
   25.9234  -21.5577  -13.1765 C   0  0  0  0  0  0  0  0  0  0  0  0
   23.9711  -20.3007  -13.4625 O   0  0  0  0  0  0  0  0  0  0  0  0
   24.2929  -19.4129  -12.6414 N   0  0  0  0  0  0  0  0  0  0  0  0
   23.1476  -19.9341  -14.5435 C   0  0  1  0  0  0  0  0  0  0  0  0
   22.4690  -18.6446  -14.6024 C   0  0  0  0  0  0  0  0  0  0  0  0
   23.3490  -17.5950  -15.2317 C   0  0  0  0  0  0  0  0  0  0  0  0
   23.7298  -18.0793  -16.5975 C   0  0  0  0  0  0  0  0  0  0  0  0
   22.8703  -17.9928  -17.6685 C   0  0  0  0  0  0  0  0  0  0  0  0
   23.1869  -18.4213  -18.9462 C   0  0  0  0  0  0  0  0  0  0  0  0
   24.4409  -18.9691  -19.1622 C   0  0  0  0  0  0  0  0  0  0  0  0
   25.3128  -19.0602  -18.0894 C   0  0  0  0  0  0  0  0  0  0  0  0
   24.9819  -18.6300  -16.8270 C   0  0  0  0  0  0  0  0  0  0  0  0
   21.1312  -18.7475  -15.1837 O   0  0  0  0  0  0  0  0  0  0  0  0
   20.3922  -17.7322  -15.1462 O   0  0  0  0  0  0  0  0  0  0  0  0
  2  3  2  0
  2  1  1  0
  4  2  1  0
  5  4  1  0
  6  5  1  0
  7  6  1  0
  8  9  1  6
  8  7  1  0
 10 18  1  0
 10  8  1  0
 11 10  2  0
 13 12  1  0
 14 13  2  0
 15 13  1  0
 16 15  1  0
 17 18  1  0
 17 16  1  6
 19 17  1  0
 20 19  2  0
 21 19  1  0
 22 23  1  1
 22 21  1  0
 23 24  1  0
 24 25  2  0
 25 26  1  0
 27 26  2  0
 28 27  1  0
 29 24  1  0
 29 28  2  0
 30 32  1  0
 30 22  1  0
 31 30  2  0
M  END
$$$$
