DHS.pdb
     RDKit          3D

 25 25  0  0  1  0  0  0  0  0999 V2000
   12.9584  -16.9525   17.6529 N   0  0  0  0  0  0  0  0  0  0  0  0
   13.5149  -15.7127   18.1637 C   0  0  1  0  0  0  0  0  0  0  0  0
   13.5807  -14.6815   17.0811 C   0  0  0  0  0  0  0  0  0  0  0  0
   14.5236  -15.1709   16.0431 C   0  0  0  0  0  0  0  0  0  0  0  0
   15.4757  -14.4304   15.6585 O   0  0  0  0  0  0  0  0  0  0  0  0
   12.7040  -15.2735   19.3281 C   0  0  0  0  0  0  0  0  0  0  0  0
   13.0607  -14.2882   20.0622 O   0  0  0  0  0  0  0  0  0  0  0  0
   14.4325  -16.4160   15.4489 O   0  0  0  0  0  0  0  0  0  0  0  0
   11.4944  -15.9287   19.6793 N   0  0  0  0  0  0  0  0  0  0  0  0
   10.7167  -15.4974   20.8691 C   0  0  1  0  0  0  0  0  0  0  0  0
    9.2888  -15.3104   20.4828 C   0  0  0  0  0  0  0  0  0  0  0  0
    8.9420  -14.1214   19.7297 C   0  0  0  0  0  0  0  0  0  0  0  0
    9.6468  -13.0499   19.2497 C   0  0  0  0  0  0  0  0  0  0  0  0
    8.7827  -12.2579   18.5478 N   0  0  0  0  0  0  0  0  0  0  0  0
    7.5889  -12.8215   18.5926 C   0  0  0  0  0  0  0  0  0  0  0  0
    7.6608  -13.9331   19.2914 N   0  0  0  0  0  0  0  0  0  0  0  0
   10.7402  -16.6863   21.8146 C   0  0  0  0  0  0  0  0  0  0  0  0
   10.8762  -17.8164   21.3520 O   0  0  0  0  0  0  0  0  0  0  0  0
   13.2594  -18.2587   25.0644 O   0  0  0  0  0  0  0  0  0  0  0  0
   12.6918  -17.4575   24.0470 C   0  0  0  0  0  0  0  0  0  0  0  0
   11.1773  -17.4574   24.1787 C   0  0  2  0  0  0  0  0  0  0  0  0
   10.6102  -16.5361   23.2140 N   0  0  0  0  0  0  0  0  0  0  0  0
   10.8053  -17.0647   25.5694 C   0  0  0  0  0  0  0  0  0  0  0  0
   11.1407  -17.7702   26.5352 O   0  0  0  0  0  0  0  0  0  0  0  0
   10.0808  -15.9078   25.8028 O   0  0  0  0  0  0  0  0  0  0  0  0
  2  1  1  6
  2  3  1  0
  3  4  1  0
  4  5  2  0
  6  2  1  0
  7  6  2  0
  8  4  1  0
  9  6  1  0
 10 11  1  6
 10  9  1  0
 11 12  1  0
 12 13  2  0
 13 14  1  0
 15 14  1  0
 16 12  1  0
 16 15  2  0
 17 22  1  0
 17 10  1  0
 18 17  2  0
 19 20  1  0
 21 20  1  1
 21 22  1  0
 23 21  1  0
 23 25  1  0
 24 23  2  0
M  END
$$$$
