DHS.pdb
     RDKit          3D

 25 25  0  0  1  0  0  0  0  0999 V2000
   13.2222  -16.0676   17.7948 N   0  0  0  0  0  0  0  0  0  0  0  0
   13.9892  -15.2849   18.7469 C   0  0  1  0  0  0  0  0  0  0  0  0
   14.6257  -14.1116   18.0701 C   0  0  0  0  0  0  0  0  0  0  0  0
   15.6135  -14.6319   17.0906 C   0  0  0  0  0  0  0  0  0  0  0  0
   15.5647  -14.2502   15.8845 O   0  0  0  0  0  0  0  0  0  0  0  0
   13.0946  -14.8887   19.8645 C   0  0  0  0  0  0  0  0  0  0  0  0
   13.5005  -14.1354   20.8157 O   0  0  0  0  0  0  0  0  0  0  0  0
   16.6133  -15.5313   17.4124 O   0  0  0  0  0  0  0  0  0  0  0  0
   11.7463  -15.3289   19.9273 N   0  0  0  0  0  0  0  0  0  0  0  0
   10.9052  -15.0276   21.1140 C   0  0  1  0  0  0  0  0  0  0  0  0
    9.4664  -15.1393   20.7389 C   0  0  0  0  0  0  0  0  0  0  0  0
    8.9544  -14.2215   19.7407 C   0  0  0  0  0  0  0  0  0  0  0  0
    9.1576  -12.8964   19.4612 C   0  0  0  0  0  0  0  0  0  0  0  0
    8.4373  -12.5867   18.3424 N   0  0  0  0  0  0  0  0  0  0  0  0
    7.8136  -13.6816   17.9460 C   0  0  0  0  0  0  0  0  0  0  0  0
    8.1077  -14.6678   18.7645 N   0  0  0  0  0  0  0  0  0  0  0  0
   11.1703  -16.1608   22.0904 C   0  0  0  0  0  0  0  0  0  0  0  0
   11.6391  -17.2158   21.6698 O   0  0  0  0  0  0  0  0  0  0  0  0
    9.6154  -15.9229   25.8843 O   0  0  0  0  0  0  0  0  0  0  0  0
   10.8657  -16.5813   25.8349 C   0  0  0  0  0  0  0  0  0  0  0  0
   11.1135  -17.1075   24.4302 C   0  0  2  0  0  0  0  0  0  0  0  0
   10.8950  -16.0424   23.4717 N   0  0  0  0  0  0  0  0  0  0  0  0
   10.1963  -18.2547   24.1667 C   0  0  0  0  0  0  0  0  0  0  0  0
    9.3349  -18.1817   23.2746 O   0  0  0  0  0  0  0  0  0  0  0  0
   10.2926  -19.4171   24.9133 O   0  0  0  0  0  0  0  0  0  0  0  0
  2  1  1  6
  2  3  1  0
  3  4  1  0
  4  5  2  0
  6  2  1  0
  7  6  2  0
  8  4  1  0
  9  6  1  0
 10 11  1  6
 10  9  1  0
 11 12  1  0
 12 13  2  0
 13 14  1  0
 15 14  1  0
 16 12  1  0
 16 15  2  0
 17 22  1  0
 17 10  1  0
 18 17  2  0
 19 20  1  0
 21 20  1  1
 21 22  1  0
 23 21  1  0
 23 25  1  0
 24 23  2  0
M  END
$$$$
