DHS.pdb
     RDKit          3D

 25 25  0  0  1  0  0  0  0  0999 V2000
   10.0571  -18.7163   17.8439 N   0  0  0  0  0  0  0  0  0  0  0  0
   11.3961  -18.1760   17.9948 C   0  0  1  0  0  0  0  0  0  0  0  0
   11.8045  -17.4331   16.7615 C   0  0  0  0  0  0  0  0  0  0  0  0
   11.8067  -18.3954   15.6302 C   0  0  0  0  0  0  0  0  0  0  0  0
   11.8428  -17.9667   14.4395 O   0  0  0  0  0  0  0  0  0  0  0  0
   11.4308  -17.3292   19.2146 C   0  0  0  0  0  0  0  0  0  0  0  0
   12.5010  -16.7384   19.5925 O   0  0  0  0  0  0  0  0  0  0  0  0
   11.7709  -19.7684   15.7900 O   0  0  0  0  0  0  0  0  0  0  0  0
   10.2757  -17.1369   20.0173 N   0  0  0  0  0  0  0  0  0  0  0  0
   10.3143  -16.2352   21.1972 C   0  0  1  0  0  0  0  0  0  0  0  0
    8.9920  -15.5625   21.3464 C   0  0  0  0  0  0  0  0  0  0  0  0
    8.6845  -14.4685   20.4466 C   0  0  0  0  0  0  0  0  0  0  0  0
    9.3737  -13.8138   19.4610 C   0  0  0  0  0  0  0  0  0  0  0  0
    8.5350  -12.8913   18.9022 N   0  0  0  0  0  0  0  0  0  0  0  0
    7.3707  -12.9753   19.5202 C   0  0  0  0  0  0  0  0  0  0  0  0
    7.4371  -13.9088   20.4439 N   0  0  0  0  0  0  0  0  0  0  0  0
   10.4518  -17.1546   22.3988 C   0  0  0  0  0  0  0  0  0  0  0  0
    9.8957  -18.2501   22.3810 O   0  0  0  0  0  0  0  0  0  0  0  0
   13.7394  -17.3551   24.5189 O   0  0  0  0  0  0  0  0  0  0  0  0
   12.7200  -18.3276   24.6397 C   0  0  0  0  0  0  0  0  0  0  0  0
   11.3635  -17.6441   24.7017 C   0  0  2  0  0  0  0  0  0  0  0  0
   11.2006  -16.7912   23.5412 N   0  0  0  0  0  0  0  0  0  0  0  0
   11.2713  -16.8492   25.9613 C   0  0  0  0  0  0  0  0  0  0  0  0
   11.1779  -15.6112   25.9206 O   0  0  0  0  0  0  0  0  0  0  0  0
   11.2885  -17.4809   27.1936 O   0  0  0  0  0  0  0  0  0  0  0  0
  2  1  1  6
  2  3  1  0
  3  4  1  0
  4  5  2  0
  6  2  1  0
  7  6  2  0
  8  4  1  0
  9  6  1  0
 10 11  1  1
 10  9  1  0
 11 12  1  0
 12 13  2  0
 13 14  1  0
 15 14  1  0
 16 12  1  0
 16 15  2  0
 17 22  1  0
 17 10  1  0
 18 17  2  0
 19 20  1  0
 21 20  1  6
 21 22  1  0
 23 21  1  0
 23 25  1  0
 24 23  2  0
M  END
$$$$
