DHS.pdb
     RDKit          3D

 25 25  0  0  1  0  0  0  0  0999 V2000
   11.4374  -17.3260   14.7332 N   0  0  0  0  0  0  0  0  0  0  0  0
   10.0900  -17.3038   15.2731 C   0  0  1  0  0  0  0  0  0  0  0  0
    9.1445  -18.0121   14.3543 C   0  0  0  0  0  0  0  0  0  0  0  0
    9.0897  -17.2491   13.0812 C   0  0  0  0  0  0  0  0  0  0  0  0
   10.1422  -17.0938   12.3949 O   0  0  0  0  0  0  0  0  0  0  0  0
   10.1161  -17.8921   16.6367 C   0  0  0  0  0  0  0  0  0  0  0  0
    9.0556  -17.9940   17.3452 O   0  0  0  0  0  0  0  0  0  0  0  0
    7.9355  -16.6789   12.5769 O   0  0  0  0  0  0  0  0  0  0  0  0
   11.3214  -18.3686   17.2162 N   0  0  0  0  0  0  0  0  0  0  0  0
   11.3384  -18.8945   18.6053 C   0  0  1  0  0  0  0  0  0  0  0  0
   12.4703  -19.8535   18.7550 C   0  0  0  0  0  0  0  0  0  0  0  0
   12.6931  -20.4380   20.0626 C   0  0  0  0  0  0  0  0  0  0  0  0
   12.0827  -20.3209   21.2829 C   0  0  0  0  0  0  0  0  0  0  0  0
   12.7033  -21.1771   22.1480 N   0  0  0  0  0  0  0  0  0  0  0  0
   13.6606  -21.8002   21.4846 C   0  0  0  0  0  0  0  0  0  0  0  0
   13.6723  -21.3754   20.2402 N   0  0  0  0  0  0  0  0  0  0  0  0
   11.6845  -17.7018   19.4803 C   0  0  0  0  0  0  0  0  0  0  0  0
   12.5355  -16.9037   19.0950 O   0  0  0  0  0  0  0  0  0  0  0  0
    9.2166  -16.5053   22.5413 O   0  0  0  0  0  0  0  0  0  0  0  0
   10.2060  -15.6277   22.0411 C   0  0  0  0  0  0  0  0  0  0  0  0
   11.4404  -16.4202   21.6418 C   0  0  2  0  0  0  0  0  0  0  0  0
   11.0584  -17.4781   20.7276 N   0  0  0  0  0  0  0  0  0  0  0  0
   12.0801  -16.9831   22.8669 C   0  0  0  0  0  0  0  0  0  0  0  0
   12.1103  -18.2105   23.0555 O   0  0  0  0  0  0  0  0  0  0  0  0
   12.6491  -16.1447   23.8109 O   0  0  0  0  0  0  0  0  0  0  0  0
  2  1  1  6
  2  3  1  0
  3  4  1  0
  4  5  2  0
  6  2  1  0
  7  6  2  0
  8  4  1  0
  9  6  1  0
 10 11  1  6
 10  9  1  0
 11 12  1  0
 12 13  2  0
 13 14  1  0
 15 14  1  0
 16 12  1  0
 16 15  2  0
 17 22  1  0
 17 10  1  0
 18 17  2  0
 19 20  1  0
 21 20  1  1
 21 22  1  0
 23 21  1  0
 23 25  1  0
 24 23  2  0
M  END
$$$$
