DHS.pdb
     RDKit          3D

 25 25  0  0  1  0  0  0  0  0999 V2000
   12.4960  -20.2094   13.0727 N   0  0  0  0  0  0  0  0  0  0  0  0
   11.3125  -19.4991   13.5224 C   0  0  1  0  0  0  0  0  0  0  0  0
   10.2028  -19.6462   12.5291 C   0  0  0  0  0  0  0  0  0  0  0  0
   10.5136  -18.7746   11.3673 C   0  0  0  0  0  0  0  0  0  0  0  0
   11.5590  -18.9847   10.6849 O   0  0  0  0  0  0  0  0  0  0  0  0
   10.9455  -19.9970   14.8728 C   0  0  0  0  0  0  0  0  0  0  0  0
   10.0665  -19.4065   15.5909 O   0  0  0  0  0  0  0  0  0  0  0  0
    9.7177  -17.7176   10.9658 O   0  0  0  0  0  0  0  0  0  0  0  0
   11.5549  -21.1527   15.4284 N   0  0  0  0  0  0  0  0  0  0  0  0
   11.0457  -21.7448   16.6920 C   0  0  1  0  0  0  0  0  0  0  0  0
   10.9274  -23.2224   16.5309 C   0  0  0  0  0  0  0  0  0  0  0  0
    9.7846  -23.7338   15.8006 C   0  0  0  0  0  0  0  0  0  0  0  0
    8.4456  -23.4470   15.7902 C   0  0  0  0  0  0  0  0  0  0  0  0
    7.8560  -24.2234   14.8331 N   0  0  0  0  0  0  0  0  0  0  0  0
    8.7977  -24.9611   14.2730 C   0  0  0  0  0  0  0  0  0  0  0  0
    9.9546  -24.6855   14.8339 N   0  0  0  0  0  0  0  0  0  0  0  0
   12.1507  -21.5240   17.7109 C   0  0  0  0  0  0  0  0  0  0  0  0
   13.2022  -21.0009   17.3495 O   0  0  0  0  0  0  0  0  0  0  0  0
   13.1230  -19.1741   21.2448 O   0  0  0  0  0  0  0  0  0  0  0  0
   12.4275  -19.7884   20.1779 C   0  0  0  0  0  0  0  0  0  0  0  0
   12.7348  -21.2771   20.1547 C   0  0  2  0  0  0  0  0  0  0  0  0
   12.0100  -21.9014   19.0657 N   0  0  0  0  0  0  0  0  0  0  0  0
   12.3469  -21.8790   21.4639 C   0  0  0  0  0  0  0  0  0  0  0  0
   11.2022  -22.3295   21.6366 O   0  0  0  0  0  0  0  0  0  0  0  0
   13.2579  -21.9439   22.5049 O   0  0  0  0  0  0  0  0  0  0  0  0
  2  1  1  6
  2  3  1  0
  3  4  1  0
  4  5  2  0
  6  2  1  0
  7  6  2  0
  8  4  1  0
  9  6  1  0
 10 11  1  6
 10  9  1  0
 11 12  1  0
 12 13  2  0
 13 14  1  0
 15 14  1  0
 16 12  1  0
 16 15  2  0
 17 22  1  0
 17 10  1  0
 18 17  2  0
 19 20  1  0
 21 20  1  1
 21 22  1  0
 23 21  1  0
 23 25  1  0
 24 23  2  0
M  END
$$$$
