DHS.pdb
     RDKit          3D

 25 25  0  0  1  0  0  0  0  0999 V2000
   13.4360  -14.3306   17.9218 N   0  0  0  0  0  0  0  0  0  0  0  0
   12.7914  -15.5258   18.4350 C   0  0  1  0  0  0  0  0  0  0  0  0
   13.7992  -16.6080   18.6654 C   0  0  0  0  0  0  0  0  0  0  0  0
   14.8284  -16.5059   17.5994 C   0  0  0  0  0  0  0  0  0  0  0  0
   14.7933  -15.5404   16.7813 O   0  0  0  0  0  0  0  0  0  0  0  0
   12.0400  -15.1680   19.6652 C   0  0  0  0  0  0  0  0  0  0  0  0
   12.3353  -14.1322   20.3558 O   0  0  0  0  0  0  0  0  0  0  0  0
   15.8536  -17.4185   17.4320 O   0  0  0  0  0  0  0  0  0  0  0  0
   10.9584  -15.9610   20.1309 N   0  0  0  0  0  0  0  0  0  0  0  0
   10.1453  -15.5251   21.2952 C   0  0  1  0  0  0  0  0  0  0  0  0
    8.7487  -15.2559   20.8474 C   0  0  0  0  0  0  0  0  0  0  0  0
    8.5508  -14.2647   19.8084 C   0  0  0  0  0  0  0  0  0  0  0  0
    8.4016  -12.9036   19.7964 C   0  0  0  0  0  0  0  0  0  0  0  0
    8.3110  -12.5014   18.4938 N   0  0  0  0  0  0  0  0  0  0  0  0
    8.4024  -13.5756   17.7307 C   0  0  0  0  0  0  0  0  0  0  0  0
    8.5461  -14.6374   18.4930 N   0  0  0  0  0  0  0  0  0  0  0  0
   10.0645  -16.7399   22.2038 C   0  0  0  0  0  0  0  0  0  0  0  0
   10.1655  -17.8619   21.7134 O   0  0  0  0  0  0  0  0  0  0  0  0
   12.8753  -17.8624   25.2999 O   0  0  0  0  0  0  0  0  0  0  0  0
   12.1209  -17.0921   24.3851 C   0  0  0  0  0  0  0  0  0  0  0  0
   10.6390  -17.3696   24.5803 C   0  0  2  0  0  0  0  0  0  0  0  0
    9.8761  -16.6230   23.5997 N   0  0  0  0  0  0  0  0  0  0  0  0
   10.2451  -16.9814   25.9663 C   0  0  0  0  0  0  0  0  0  0  0  0
    9.8456  -15.8306   26.2096 O   0  0  0  0  0  0  0  0  0  0  0  0
   10.3196  -17.8989   27.0009 O   0  0  0  0  0  0  0  0  0  0  0  0
  2  1  1  1
  2  3  1  0
  3  4  1  0
  4  5  2  0
  6  2  1  0
  7  6  2  0
  8  4  1  0
  9  6  1  0
 10 11  1  6
 10  9  1  0
 11 12  1  0
 12 13  2  0
 13 14  1  0
 15 14  1  0
 16 12  1  0
 16 15  2  0
 17 22  1  0
 17 10  1  0
 18 17  2  0
 19 20  1  0
 21 20  1  6
 21 22  1  0
 23 21  1  0
 23 25  1  0
 24 23  2  0
M  END
$$$$
