DHS.pdb
     RDKit          3D

 25 25  0  0  1  0  0  0  0  0999 V2000
   13.5420  -19.8836   12.3158 N   0  0  0  0  0  0  0  0  0  0  0  0
   14.2609  -20.8538   13.1217 C   0  0  1  0  0  0  0  0  0  0  0  0
   15.7080  -20.4849   13.2205 C   0  0  0  0  0  0  0  0  0  0  0  0
   16.3384  -20.7593   11.9040 C   0  0  0  0  0  0  0  0  0  0  0  0
   15.6268  -21.1612   10.9371 O   0  0  0  0  0  0  0  0  0  0  0  0
   13.6000  -20.9507   14.4484 C   0  0  0  0  0  0  0  0  0  0  0  0
   13.1530  -19.9160   15.0539 O   0  0  0  0  0  0  0  0  0  0  0  0
   17.6888  -20.6022   11.6518 O   0  0  0  0  0  0  0  0  0  0  0  0
   13.4344  -22.1983   15.1053 N   0  0  0  0  0  0  0  0  0  0  0  0
   12.7856  -22.2721   16.4396 C   0  0  1  0  0  0  0  0  0  0  0  0
   12.2471  -23.6465   16.6500 C   0  0  0  0  0  0  0  0  0  0  0  0
   11.5714  -23.9239   17.9021 C   0  0  0  0  0  0  0  0  0  0  0  0
   11.9408  -24.5124   19.0821 C   0  0  0  0  0  0  0  0  0  0  0  0
   10.8811  -24.4353   19.9409 N   0  0  0  0  0  0  0  0  0  0  0  0
    9.8947  -23.8204   19.3134 C   0  0  0  0  0  0  0  0  0  0  0  0
   10.2843  -23.5065   18.0973 N   0  0  0  0  0  0  0  0  0  0  0  0
   13.9146  -22.1089   17.4429 C   0  0  0  0  0  0  0  0  0  0  0  0
   15.0079  -22.6148   17.2011 O   0  0  0  0  0  0  0  0  0  0  0  0
   15.3983  -18.9931   19.1585 O   0  0  0  0  0  0  0  0  0  0  0  0
   14.8272  -19.8231   20.1506 C   0  0  0  0  0  0  0  0  0  0  0  0
   14.7848  -21.2599   19.6556 C   0  0  2  0  0  0  0  0  0  0  0  0
   13.7494  -21.3923   18.6499 N   0  0  0  0  0  0  0  0  0  0  0  0
   14.5228  -22.1692   20.8095 C   0  0  0  0  0  0  0  0  0  0  0  0
   15.3891  -22.3471   21.6818 O   0  0  0  0  0  0  0  0  0  0  0  0
   13.3099  -22.8277   20.9239 O   0  0  0  0  0  0  0  0  0  0  0  0
  2  1  1  6
  2  3  1  0
  3  4  1  0
  4  5  2  0
  6  2  1  0
  7  6  2  0
  8  4  1  0
  9  6  1  0
 10 11  1  1
 10  9  1  0
 11 12  1  0
 12 13  2  0
 13 14  1  0
 15 14  1  0
 16 12  1  0
 16 15  2  0
 17 22  1  0
 17 10  1  0
 18 17  2  0
 19 20  1  0
 21 20  1  1
 21 22  1  0
 23 21  1  0
 23 25  1  0
 24 23  2  0
M  END
$$$$
