DHS.pdb
     RDKit          3D

 25 25  0  0  1  0  0  0  0  0999 V2000
   12.4302  -17.1092   16.9408 N   0  0  0  0  0  0  0  0  0  0  0  0
   13.1748  -15.9371   17.3642 C   0  0  1  0  0  0  0  0  0  0  0  0
   13.1435  -14.8833   16.3020 C   0  0  0  0  0  0  0  0  0  0  0  0
   13.9405  -15.3752   15.1492 C   0  0  0  0  0  0  0  0  0  0  0  0
   14.9151  -16.1587   15.3467 O   0  0  0  0  0  0  0  0  0  0  0  0
   12.6204  -15.4655   18.6590 C   0  0  0  0  0  0  0  0  0  0  0  0
   13.1931  -14.5464   19.3404 O   0  0  0  0  0  0  0  0  0  0  0  0
   13.6858  -15.0274   13.8354 O   0  0  0  0  0  0  0  0  0  0  0  0
   11.4279  -16.0145   19.1994 N   0  0  0  0  0  0  0  0  0  0  0  0
   10.8716  -15.5059   20.4794 C   0  0  1  0  0  0  0  0  0  0  0  0
    9.4005  -15.3104   20.3338 C   0  0  0  0  0  0  0  0  0  0  0  0
    8.9426  -14.2488   19.4596 C   0  0  0  0  0  0  0  0  0  0  0  0
    9.0646  -12.8849   19.4608 C   0  0  0  0  0  0  0  0  0  0  0  0
    8.4686  -12.4078   18.3277 N   0  0  0  0  0  0  0  0  0  0  0  0
    7.9975  -13.4405   17.6521 C   0  0  0  0  0  0  0  0  0  0  0  0
    8.2690  -14.5473   18.3080 N   0  0  0  0  0  0  0  0  0  0  0  0
   11.0444  -16.6439   21.4708 C   0  0  0  0  0  0  0  0  0  0  0  0
   10.7569  -17.7875   21.1254 O   0  0  0  0  0  0  0  0  0  0  0  0
   14.0185  -17.1626   23.5969 O   0  0  0  0  0  0  0  0  0  0  0  0
   13.0052  -18.1476   23.6447 C   0  0  0  0  0  0  0  0  0  0  0  0
   11.6459  -17.4796   23.7761 C   0  0  2  0  0  0  0  0  0  0  0  0
   11.5266  -16.4312   22.7823 N   0  0  0  0  0  0  0  0  0  0  0  0
   11.5030  -16.9235   25.1535 C   0  0  0  0  0  0  0  0  0  0  0  0
   11.3995  -15.6985   25.3316 O   0  0  0  0  0  0  0  0  0  0  0  0
   11.4840  -17.7656   26.2527 O   0  0  0  0  0  0  0  0  0  0  0  0
  2  1  1  6
  2  3  1  0
  3  4  1  0
  4  5  2  0
  6  2  1  0
  7  6  2  0
  8  4  1  0
  9  6  1  0
 10 11  1  6
 10  9  1  0
 11 12  1  0
 12 13  2  0
 13 14  1  0
 15 14  1  0
 16 12  1  0
 16 15  2  0
 17 22  1  0
 17 10  1  0
 18 17  2  0
 19 20  1  0
 21 20  1  1
 21 22  1  0
 23 21  1  0
 23 25  1  0
 24 23  2  0
M  END
$$$$
