DHS.pdb
     RDKit          3D

 25 25  0  0  1  0  0  0  0  0999 V2000
   13.2214  -16.6088   17.0059 N   0  0  0  0  0  0  0  0  0  0  0  0
   13.9754  -15.5031   17.5686 C   0  0  1  0  0  0  0  0  0  0  0  0
   14.2043  -14.4444   16.5358 C   0  0  0  0  0  0  0  0  0  0  0  0
   15.1962  -14.9663   15.5612 C   0  0  0  0  0  0  0  0  0  0  0  0
   15.4511  -16.2059   15.5255 O   0  0  0  0  0  0  0  0  0  0  0  0
   13.2523  -14.9953   18.7625 C   0  0  0  0  0  0  0  0  0  0  0  0
   13.7225  -14.0458   19.4796 O   0  0  0  0  0  0  0  0  0  0  0  0
   15.8819  -14.1701   14.6625 O   0  0  0  0  0  0  0  0  0  0  0  0
   12.0044  -15.5418   19.1621 N   0  0  0  0  0  0  0  0  0  0  0  0
   11.3694  -15.1268   20.4393 C   0  0  1  0  0  0  0  0  0  0  0  0
    9.8876  -15.2295   20.3087 C   0  0  0  0  0  0  0  0  0  0  0  0
    9.1868  -14.1309   19.6736 C   0  0  0  0  0  0  0  0  0  0  0  0
    9.5687  -12.9274   19.1435 C   0  0  0  0  0  0  0  0  0  0  0  0
    8.4591  -12.3274   18.6187 N   0  0  0  0  0  0  0  0  0  0  0  0
    7.4309  -13.1325   18.8171 C   0  0  0  0  0  0  0  0  0  0  0  0
    7.8417  -14.2131   19.4437 N   0  0  0  0  0  0  0  0  0  0  0  0
   11.7730  -16.1870   21.4497 C   0  0  0  0  0  0  0  0  0  0  0  0
   11.7592  -17.3691   21.1146 O   0  0  0  0  0  0  0  0  0  0  0  0
   14.8716  -16.0749   23.5058 O   0  0  0  0  0  0  0  0  0  0  0  0
   13.8480  -16.3160   24.4510 C   0  0  0  0  0  0  0  0  0  0  0  0
   12.6073  -16.8356   23.7426 C   0  0  2  0  0  0  0  0  0  0  0  0
   12.1652  -15.8587   22.7673 N   0  0  0  0  0  0  0  0  0  0  0  0
   11.5396  -17.0985   24.7515 C   0  0  0  0  0  0  0  0  0  0  0  0
   10.4737  -16.4613   24.7225 O   0  0  0  0  0  0  0  0  0  0  0  0
   11.7223  -18.0568   25.7344 O   0  0  0  0  0  0  0  0  0  0  0  0
  2  1  1  6
  2  3  1  0
  3  4  1  0
  4  5  2  0
  6  2  1  0
  7  6  2  0
  8  4  1  0
  9  6  1  0
 10 11  1  6
 10  9  1  0
 11 12  1  0
 12 13  2  0
 13 14  1  0
 15 14  1  0
 16 12  1  0
 16 15  2  0
 17 22  1  0
 17 10  1  0
 18 17  2  0
 19 20  1  0
 21 20  1  1
 21 22  1  0
 23 21  1  0
 23 25  1  0
 24 23  2  0
M  END
$$$$
