DHS.pdb
     RDKit          3D

 25 25  0  0  1  0  0  0  0  0999 V2000
   11.6714  -16.7633   16.8279 N   0  0  0  0  0  0  0  0  0  0  0  0
   12.4745  -17.2151   17.9497 C   0  0  1  0  0  0  0  0  0  0  0  0
   13.9313  -17.1457   17.6141 C   0  0  0  0  0  0  0  0  0  0  0  0
   14.1772  -18.0529   16.4641 C   0  0  0  0  0  0  0  0  0  0  0  0
   14.6592  -17.5897   15.3890 O   0  0  0  0  0  0  0  0  0  0  0  0
   12.1198  -16.4052   19.1432 C   0  0  0  0  0  0  0  0  0  0  0  0
   12.8605  -15.4433   19.5470 O   0  0  0  0  0  0  0  0  0  0  0  0
   13.9088  -19.4092   16.4851 O   0  0  0  0  0  0  0  0  0  0  0  0
   10.9406  -16.6627   19.8908 N   0  0  0  0  0  0  0  0  0  0  0  0
   10.5933  -15.8282   21.0696 C   0  0  1  0  0  0  0  0  0  0  0  0
    9.1793  -15.3705   20.9496 C   0  0  0  0  0  0  0  0  0  0  0  0
    8.8998  -14.2655   20.0541 C   0  0  0  0  0  0  0  0  0  0  0  0
    9.6658  -13.4651   19.2492 C   0  0  0  0  0  0  0  0  0  0  0  0
    8.8291  -12.6192   18.5777 N   0  0  0  0  0  0  0  0  0  0  0  0
    7.5921  -12.8894   18.9540 C   0  0  0  0  0  0  0  0  0  0  0  0
    7.6108  -13.8672   19.8330 N   0  0  0  0  0  0  0  0  0  0  0  0
   10.6246  -16.7779   22.2550 C   0  0  0  0  0  0  0  0  0  0  0  0
    9.8773  -17.7531   22.2604 O   0  0  0  0  0  0  0  0  0  0  0  0
   13.7089  -18.1429   23.6128 O   0  0  0  0  0  0  0  0  0  0  0  0
   12.4933  -18.6393   24.1376 C   0  0  0  0  0  0  0  0  0  0  0  0
   11.5737  -17.4801   24.4866 C   0  0  2  0  0  0  0  0  0  0  0  0
   11.4873  -16.5768   23.3563 N   0  0  0  0  0  0  0  0  0  0  0  0
   12.1067  -16.7754   25.6892 C   0  0  0  0  0  0  0  0  0  0  0  0
   12.4216  -15.5752   25.6291 O   0  0  0  0  0  0  0  0  0  0  0  0
   12.2577  -17.4497   26.8893 O   0  0  0  0  0  0  0  0  0  0  0  0
  2  1  1  6
  2  3  1  0
  3  4  1  0
  4  5  2  0
  6  2  1  0
  7  6  2  0
  8  4  1  0
  9  6  1  0
 10 11  1  6
 10  9  1  0
 11 12  1  0
 12 13  2  0
 13 14  1  0
 15 14  1  0
 16 12  1  0
 16 15  2  0
 17 22  1  0
 17 10  1  0
 18 17  2  0
 19 20  1  0
 21 20  1  6
 21 22  1  0
 23 21  1  0
 23 25  1  0
 24 23  2  0
M  END
$$$$
