DHS.pdb
     RDKit          3D

 25 25  0  0  1  0  0  0  0  0999 V2000
   10.1952  -18.6372   19.0313 N   0  0  0  0  0  0  0  0  0  0  0  0
   11.1512  -17.5831   18.7442 C   0  0  1  0  0  0  0  0  0  0  0  0
   11.1001  -17.2081   17.2962 C   0  0  0  0  0  0  0  0  0  0  0  0
   11.5861  -18.3694   16.5080 C   0  0  0  0  0  0  0  0  0  0  0  0
   11.7661  -19.4855   17.0777 O   0  0  0  0  0  0  0  0  0  0  0  0
   10.8760  -16.4352   19.6457 C   0  0  0  0  0  0  0  0  0  0  0  0
   11.7101  -15.4751   19.7854 O   0  0  0  0  0  0  0  0  0  0  0  0
   11.8643  -18.3164   15.1546 O   0  0  0  0  0  0  0  0  0  0  0  0
    9.6725  -16.3517   20.3943 N   0  0  0  0  0  0  0  0  0  0  0  0
    9.3945  -15.1721   21.2533 C   0  0  1  0  0  0  0  0  0  0  0  0
    8.0511  -14.6213   20.9138 C   0  0  0  0  0  0  0  0  0  0  0  0
    7.8556  -14.0895   19.5796 C   0  0  0  0  0  0  0  0  0  0  0  0
    8.0516  -12.8665   18.9957 C   0  0  0  0  0  0  0  0  0  0  0  0
    7.7448  -12.9792   17.6691 N   0  0  0  0  0  0  0  0  0  0  0  0
    7.3743  -14.2268   17.4434 C   0  0  0  0  0  0  0  0  0  0  0  0
    7.4331  -14.9061   18.5678 N   0  0  0  0  0  0  0  0  0  0  0  0
    9.2743  -15.7237   22.6636 C   0  0  0  0  0  0  0  0  0  0  0  0
    8.1641  -16.0232   23.0965 O   0  0  0  0  0  0  0  0  0  0  0  0
   10.7244  -18.6952   23.8360 O   0  0  0  0  0  0  0  0  0  0  0  0
    9.8391  -17.9588   24.6565 C   0  0  0  0  0  0  0  0  0  0  0  0
   10.3427  -16.5319   24.8037 C   0  0  2  0  0  0  0  0  0  0  0  0
   10.4006  -15.9048   23.4982 N   0  0  0  0  0  0  0  0  0  0  0  0
   11.6907  -16.5505   25.4434 C   0  0  0  0  0  0  0  0  0  0  0  0
   11.8565  -17.0906   26.5497 O   0  0  0  0  0  0  0  0  0  0  0  0
   12.7760  -15.9657   24.8126 O   0  0  0  0  0  0  0  0  0  0  0  0
  2  1  1  6
  2  3  1  0
  3  4  1  0
  4  5  2  0
  6  2  1  0
  7  6  2  0
  8  4  1  0
  9  6  1  0
 10 11  1  6
 10  9  1  0
 11 12  1  0
 12 13  2  0
 13 14  1  0
 15 14  1  0
 16 12  1  0
 16 15  2  0
 17 22  1  0
 17 10  1  0
 18 17  2  0
 19 20  1  0
 21 20  1  6
 21 22  1  0
 23 21  1  0
 23 25  1  0
 24 23  2  0
M  END
$$$$
