DHS.pdb
     RDKit          3D

 25 25  0  0  1  0  0  0  0  0999 V2000
   13.0461  -16.9952   17.6192 N   0  0  0  0  0  0  0  0  0  0  0  0
   13.6346  -15.7112   17.9546 C   0  0  1  0  0  0  0  0  0  0  0  0
   13.6618  -14.8168   16.7550 C   0  0  0  0  0  0  0  0  0  0  0  0
   14.5782  -15.4233   15.7558 C   0  0  0  0  0  0  0  0  0  0  0  0
   14.6286  -14.9531   14.5814 O   0  0  0  0  0  0  0  0  0  0  0  0
   12.8789  -15.1260   19.0916 C   0  0  0  0  0  0  0  0  0  0  0  0
   13.3530  -14.1645   19.7900 O   0  0  0  0  0  0  0  0  0  0  0  0
   15.4054  -16.4979   16.0255 O   0  0  0  0  0  0  0  0  0  0  0  0
   11.5940  -15.6082   19.4550 N   0  0  0  0  0  0  0  0  0  0  0  0
   10.8436  -14.9927   20.5795 C   0  0  1  0  0  0  0  0  0  0  0  0
    9.3810  -15.0831   20.3036 C   0  0  0  0  0  0  0  0  0  0  0  0
    8.8370  -14.2413   19.2566 C   0  0  0  0  0  0  0  0  0  0  0  0
    8.8518  -12.8958   19.0020 C   0  0  0  0  0  0  0  0  0  0  0  0
    8.2146  -12.6854   17.8119 N   0  0  0  0  0  0  0  0  0  0  0  0
    7.8225  -13.8588   17.3491 C   0  0  0  0  0  0  0  0  0  0  0  0
    8.1830  -14.7998   18.1938 N   0  0  0  0  0  0  0  0  0  0  0  0
   11.0989  -15.8970   21.7732 C   0  0  0  0  0  0  0  0  0  0  0  0
   11.6088  -16.9999   21.5903 O   0  0  0  0  0  0  0  0  0  0  0  0
   10.7395  -16.4239   26.6403 O   0  0  0  0  0  0  0  0  0  0  0  0
   10.5056  -15.6219   25.4995 C   0  0  0  0  0  0  0  0  0  0  0  0
   10.9543  -16.3632   24.2503 C   0  0  2  0  0  0  0  0  0  0  0  0
   10.7686  -15.5115   23.0923 N   0  0  0  0  0  0  0  0  0  0  0  0
   10.1638  -17.6216   24.1155 C   0  0  0  0  0  0  0  0  0  0  0  0
    9.1399  -17.6512   23.4127 O   0  0  0  0  0  0  0  0  0  0  0  0
   10.5607  -18.7745   24.7722 O   0  0  0  0  0  0  0  0  0  0  0  0
  2  1  1  6
  2  3  1  0
  3  4  1  0
  4  5  2  0
  6  2  1  0
  7  6  2  0
  8  4  1  0
  9  6  1  0
 10 11  1  6
 10  9  1  0
 11 12  1  0
 12 13  2  0
 13 14  1  0
 15 14  1  0
 16 12  1  0
 16 15  2  0
 17 22  1  0
 17 10  1  0
 18 17  2  0
 19 20  1  0
 21 20  1  1
 21 22  1  0
 23 21  1  0
 23 25  1  0
 24 23  2  0
M  END
$$$$
