DHS.pdb
     RDKit          3D

 25 25  0  0  1  0  0  0  0  0999 V2000
   14.1110  -16.0168   14.6495 N   0  0  0  0  0  0  0  0  0  0  0  0
   12.9459  -16.6922   15.1917 C   0  0  1  0  0  0  0  0  0  0  0  0
   13.2689  -18.1170   15.5166 C   0  0  0  0  0  0  0  0  0  0  0  0
   14.7457  -18.2693   15.4767 C   0  0  0  0  0  0  0  0  0  0  0  0
   15.2684  -19.3983   15.7113 O   0  0  0  0  0  0  0  0  0  0  0  0
   12.4614  -15.9290   16.3702 C   0  0  0  0  0  0  0  0  0  0  0  0
   13.2423  -15.1811   17.0540 O   0  0  0  0  0  0  0  0  0  0  0  0
   15.6170  -17.2339   15.1928 O   0  0  0  0  0  0  0  0  0  0  0  0
   11.1072  -15.9954   16.7915 N   0  0  0  0  0  0  0  0  0  0  0  0
   10.6075  -15.1144   17.8781 C   0  0  1  0  0  0  0  0  0  0  0  0
    9.1489  -14.8727   17.6845 C   0  0  0  0  0  0  0  0  0  0  0  0
    8.4530  -14.0945   18.6901 C   0  0  0  0  0  0  0  0  0  0  0  0
    7.5148  -14.3806   19.6456 C   0  0  0  0  0  0  0  0  0  0  0  0
    7.2740  -13.2379   20.3548 N   0  0  0  0  0  0  0  0  0  0  0  0
    8.0372  -12.2825   19.8552 C   0  0  0  0  0  0  0  0  0  0  0  0
    8.7481  -12.7708   18.8626 N   0  0  0  0  0  0  0  0  0  0  0  0
   10.7281  -15.9386   19.1486 C   0  0  0  0  0  0  0  0  0  0  0  0
   10.5349  -17.1509   19.0962 O   0  0  0  0  0  0  0  0  0  0  0  0
   13.2837  -15.1864   22.1880 O   0  0  0  0  0  0  0  0  0  0  0  0
   11.9519  -15.3123   22.6459 C   0  0  0  0  0  0  0  0  0  0  0  0
   11.1341  -16.1003   21.6352 C   0  0  2  0  0  0  0  0  0  0  0  0
   11.0563  -15.3561   20.3938 N   0  0  0  0  0  0  0  0  0  0  0  0
    9.7718  -16.3476   22.1917 C   0  0  0  0  0  0  0  0  0  0  0  0
    8.7771  -15.7943   21.6940 O   0  0  0  0  0  0  0  0  0  0  0  0
    9.5973  -17.1976   23.2710 O   0  0  0  0  0  0  0  0  0  0  0  0
  2  1  1  1
  2  3  1  0
  3  4  1  0
  4  5  2  0
  6  2  1  0
  7  6  2  0
  8  4  1  0
  9  6  1  0
 10 11  1  6
 10  9  1  0
 11 12  1  0
 12 13  2  0
 13 14  1  0
 15 14  1  0
 16 12  1  0
 16 15  2  0
 17 22  1  0
 17 10  1  0
 18 17  2  0
 19 20  1  0
 21 20  1  1
 21 22  1  0
 23 21  1  0
 23 25  1  0
 24 23  2  0
M  END
$$$$
