DHS.pdb
     RDKit          3D

 25 25  0  0  1  0  0  0  0  0999 V2000
   12.3434  -15.3457   18.2054 N   0  0  0  0  0  0  0  0  0  0  0  0
   11.7913  -16.3083   19.1414 C   0  0  1  0  0  0  0  0  0  0  0  0
   12.8426  -17.2809   19.5755 C   0  0  0  0  0  0  0  0  0  0  0  0
   13.5982  -17.7032   18.3686 C   0  0  0  0  0  0  0  0  0  0  0  0
   13.3927  -17.1225   17.2625 O   0  0  0  0  0  0  0  0  0  0  0  0
   11.1861  -15.5695   20.2791 C   0  0  0  0  0  0  0  0  0  0  0  0
   11.6343  -14.4322   20.6566 O   0  0  0  0  0  0  0  0  0  0  0  0
   14.5388  -18.7167   18.3671 O   0  0  0  0  0  0  0  0  0  0  0  0
   10.0809  -16.0935   20.9999 N   0  0  0  0  0  0  0  0  0  0  0  0
    9.4566  -15.3157   22.1008 C   0  0  1  0  0  0  0  0  0  0  0  0
    8.1551  -14.7582   21.6333 C   0  0  0  0  0  0  0  0  0  0  0  0
    8.1717  -13.8733   20.4853 C   0  0  0  0  0  0  0  0  0  0  0  0
    7.5993  -13.9039   19.2417 C   0  0  0  0  0  0  0  0  0  0  0  0
    7.9248  -12.7426   18.5996 N   0  0  0  0  0  0  0  0  0  0  0  0
    8.6697  -12.0219   19.4185 C   0  0  0  0  0  0  0  0  0  0  0  0
    8.8293  -12.6763   20.5478 N   0  0  0  0  0  0  0  0  0  0  0  0
    9.1115  -16.3399   23.1684 C   0  0  0  0  0  0  0  0  0  0  0  0
    8.2595  -17.1918   22.9275 O   0  0  0  0  0  0  0  0  0  0  0  0
   10.8795  -19.7183   25.3035 O   0  0  0  0  0  0  0  0  0  0  0  0
   10.7164  -18.5636   24.5038 C   0  0  0  0  0  0  0  0  0  0  0  0
    9.8881  -17.5328   25.2537 C   0  0  2  0  0  0  0  0  0  0  0  0
    9.7396  -16.3462   24.4346 N   0  0  0  0  0  0  0  0  0  0  0  0
   10.5622  -17.2056   26.5441 C   0  0  0  0  0  0  0  0  0  0  0  0
   11.2664  -16.1875   26.6476 O   0  0  0  0  0  0  0  0  0  0  0  0
   10.4122  -18.0326   27.6447 O   0  0  0  0  0  0  0  0  0  0  0  0
  2  1  1  6
  2  3  1  0
  3  4  1  0
  4  5  2  0
  6  2  1  0
  7  6  2  0
  8  4  1  0
  9  6  1  0
 10 11  1  6
 10  9  1  0
 11 12  1  0
 12 13  2  0
 13 14  1  0
 15 14  1  0
 16 12  1  0
 16 15  2  0
 17 22  1  0
 17 10  1  0
 18 17  2  0
 19 20  1  0
 21 20  1  6
 21 22  1  0
 23 21  1  0
 23 25  1  0
 24 23  2  0
M  END
$$$$
