VLM.pdb
     RDKit          3D

 24 23  0  0  1  0  0  0  0  0999 V2000
    6.8404  -16.8840   20.0512 C   0  0  0  0  0  0  0  0  0  0  0  0
    7.7360  -18.0702   20.1367 C   0  0  2  0  0  0  0  0  0  0  0  0
    6.9268  -19.2959   19.7486 C   0  0  0  0  0  0  0  0  0  0  0  0
    8.4078  -18.2819   21.4634 C   0  0  2  0  0  0  0  0  0  0  0  0
    7.3646  -18.6676   22.4614 N   0  0  0  0  0  0  0  0  0  0  0  0
    9.1481  -17.1211   21.9682 C   0  0  0  0  0  0  0  0  0  0  0  0
   10.2058  -16.7384   21.3917 O   0  0  0  0  0  0  0  0  0  0  0  0
    6.3907  -13.2874   24.9483 C   0  0  0  0  0  0  0  0  0  0  0  0
    7.1244  -14.0377   23.8110 C   0  0  1  0  0  0  0  0  0  0  0  0
    7.0642  -13.0763   22.6363 C   0  0  0  0  0  0  0  0  0  0  0  0
    8.5141  -14.2414   24.3149 C   0  0  0  0  0  0  0  0  0  0  0  0
    9.3675  -15.2083   23.5799 C   0  0  2  0  0  0  0  0  0  0  0  0
    8.7116  -16.3951   23.0976 N   0  0  0  0  0  0  0  0  0  0  0  0
   10.4997  -15.5820   24.4485 C   0  0  0  0  0  0  0  0  0  0  0  0
   11.4056  -14.7491   24.6760 O   0  0  0  0  0  0  0  0  0  0  0  0
    9.4007  -13.7351   29.0288 C   0  0  0  0  0  0  0  0  0  0  0  0
   10.6156  -14.8400   29.7721 S   0  0  0  0  0  0  0  0  0  0  0  0
   10.8939  -16.3045   28.7691 C   0  0  0  0  0  0  0  0  0  0  0  0
   10.4398  -16.0348   27.3566 C   0  0  0  0  0  0  0  0  0  0  0  0
   11.1753  -16.9721   26.3992 C   0  0  2  0  0  0  0  0  0  0  0  0
   10.6307  -16.8600   25.0588 N   0  0  0  0  0  0  0  0  0  0  0  0
   11.1556  -18.3704   26.8705 C   0  0  0  0  0  0  0  0  0  0  0  0
   10.4508  -19.3148   26.1717 O   0  0  0  0  0  0  0  0  0  0  0  0
   11.7943  -18.6668   27.9161 O   0  0  0  0  0  0  0  0  0  0  0  0
  2  1  1  1
  2  3  1  0
  4  6  1  0
  4  2  1  0
  4  5  1  1
  6  7  2  0
  9 11  1  0
  9  8  1  1
 10  9  1  0
 12 11  1  1
 13 12  1  0
 13  6  1  0
 14 15  2  0
 14 12  1  0
 16 17  1  0
 17 18  1  0
 18 19  1  0
 20 19  1  1
 20 21  1  0
 20 22  1  0
 21 14  1  0
 22 24  2  0
 22 23  1  0
M  END
$$$$
