VLM.pdb
     RDKit          3D

 24 23  0  0  1  0  0  0  0  0999 V2000
    8.4233  -20.1645   24.2374 C   0  0  0  0  0  0  0  0  0  0  0  0
    6.9731  -19.9191   24.4675 C   0  0  2  0  0  0  0  0  0  0  0  0
    6.2590  -21.2592   24.4210 C   0  0  0  0  0  0  0  0  0  0  0  0
    6.3229  -18.9439   23.5281 C   0  0  2  0  0  0  0  0  0  0  0  0
    6.3744  -19.5156   22.1484 N   0  0  0  0  0  0  0  0  0  0  0  0
    6.9273  -17.6079   23.5160 C   0  0  0  0  0  0  0  0  0  0  0  0
    7.7763  -17.2992   22.6320 O   0  0  0  0  0  0  0  0  0  0  0  0
    7.0352  -12.3085   24.2842 C   0  0  0  0  0  0  0  0  0  0  0  0
    7.2597  -13.0372   25.6307 C   0  0  1  0  0  0  0  0  0  0  0  0
    6.5729  -12.1459   26.6513 C   0  0  0  0  0  0  0  0  0  0  0  0
    6.5823  -14.3576   25.4742 C   0  0  0  0  0  0  0  0  0  0  0  0
    7.1898  -15.3237   24.5250 C   0  0  2  0  0  0  0  0  0  0  0  0
    6.5855  -16.6290   24.4742 N   0  0  0  0  0  0  0  0  0  0  0  0
    8.6241  -15.4500   24.8455 C   0  0  0  0  0  0  0  0  0  0  0  0
    9.3850  -14.4720   24.6714 O   0  0  0  0  0  0  0  0  0  0  0  0
   10.7680  -12.9764   29.3019 C   0  0  0  0  0  0  0  0  0  0  0  0
   11.0416  -14.6996   29.7548 S   0  0  0  0  0  0  0  0  0  0  0  0
   11.3479  -15.7317   28.3164 C   0  0  0  0  0  0  0  0  0  0  0  0
   10.1093  -15.7692   27.4572 C   0  0  0  0  0  0  0  0  0  0  0  0
   10.3967  -16.5693   26.1869 C   0  0  2  0  0  0  0  0  0  0  0  0
    9.2118  -16.6420   25.3523 N   0  0  0  0  0  0  0  0  0  0  0  0
   10.9234  -17.9145   26.4881 C   0  0  0  0  0  0  0  0  0  0  0  0
   12.1990  -18.0549   26.9679 O   0  0  0  0  0  0  0  0  0  0  0  0
   10.1798  -18.9140   26.2950 O   0  0  0  0  0  0  0  0  0  0  0  0
  2  1  1  6
  2  3  1  0
  4  6  1  0
  4  2  1  0
  4  5  1  6
  6  7  2  0
  9 11  1  0
  9  8  1  6
 10  9  1  0
 12 11  1  1
 13 12  1  0
 13  6  1  0
 14 15  2  0
 14 12  1  0
 16 17  1  0
 17 18  1  0
 18 19  1  0
 20 19  1  1
 20 21  1  0
 20 22  1  0
 21 14  1  0
 22 24  2  0
 22 23  1  0
M  END
$$$$
