VLM.pdb
     RDKit          3D

 24 23  0  0  1  0  0  0  0  0999 V2000
    6.4141  -15.3070   20.5158 C   0  0  0  0  0  0  0  0  0  0  0  0
    7.5539  -16.2006   20.1714 C   0  0  2  0  0  0  0  0  0  0  0  0
    7.0300  -17.2958   19.2583 C   0  0  0  0  0  0  0  0  0  0  0  0
    8.2878  -16.7957   21.3391 C   0  0  2  0  0  0  0  0  0  0  0  0
    7.3687  -17.7453   22.0366 N   0  0  0  0  0  0  0  0  0  0  0  0
    8.7930  -15.8184   22.3086 C   0  0  0  0  0  0  0  0  0  0  0  0
    9.8476  -15.1651   22.0662 O   0  0  0  0  0  0  0  0  0  0  0  0
    5.5842  -12.9453   26.1648 C   0  0  0  0  0  0  0  0  0  0  0  0
    6.4739  -13.2639   24.9395 C   0  0  1  0  0  0  0  0  0  0  0  0
    6.9734  -11.9038   24.4829 C   0  0  0  0  0  0  0  0  0  0  0  0
    7.5684  -14.1285   25.4698 C   0  0  0  0  0  0  0  0  0  0  0  0
    8.5834  -14.6101   24.4996 C   0  0  2  0  0  0  0  0  0  0  0  0
    8.1282  -15.5706   23.5292 N   0  0  0  0  0  0  0  0  0  0  0  0
    9.7216  -15.1657   25.2557 C   0  0  0  0  0  0  0  0  0  0  0  0
   10.6645  -14.4156   25.5936 O   0  0  0  0  0  0  0  0  0  0  0  0
   10.9034  -13.1229   30.0808 C   0  0  0  0  0  0  0  0  0  0  0  0
   11.0659  -14.8900   29.7641 S   0  0  0  0  0  0  0  0  0  0  0  0
   11.1896  -15.2491   28.0080 C   0  0  0  0  0  0  0  0  0  0  0  0
   10.9745  -16.7248   27.7847 C   0  0  0  0  0  0  0  0  0  0  0  0
   11.0184  -17.0232   26.2863 C   0  0  2  0  0  0  0  0  0  0  0  0
    9.8180  -16.5333   25.6345 N   0  0  0  0  0  0  0  0  0  0  0  0
   11.2280  -18.4584   26.0144 C   0  0  0  0  0  0  0  0  0  0  0  0
   12.3313  -19.0935   26.5207 O   0  0  0  0  0  0  0  0  0  0  0  0
   10.3783  -19.0735   25.3151 O   0  0  0  0  0  0  0  0  0  0  0  0
  2  1  1  1
  2  3  1  0
  4  6  1  0
  4  2  1  0
  4  5  1  1
  6  7  2  0
  9 11  1  0
  9  8  1  1
 10  9  1  0
 12 11  1  1
 13 12  1  0
 13  6  1  0
 14 15  2  0
 14 12  1  0
 16 17  1  0
 17 18  1  0
 18 19  1  0
 20 19  1  1
 20 21  1  0
 20 22  1  0
 21 14  1  0
 22 24  2  0
 22 23  1  0
M  END
$$$$
