VLM.pdb
     RDKit          3D

 24 23  0  0  1  0  0  0  0  0999 V2000
    6.6223  -19.6281   20.6506 C   0  0  0  0  0  0  0  0  0  0  0  0
    7.4022  -18.7069   21.5222 C   0  0  2  0  0  0  0  0  0  0  0  0
    7.4576  -19.3144   22.9134 C   0  0  0  0  0  0  0  0  0  0  0  0
    6.8997  -17.2927   21.5855 C   0  0  2  0  0  0  0  0  0  0  0  0
    6.8450  -16.7513   20.1938 N   0  0  0  0  0  0  0  0  0  0  0  0
    7.7040  -16.3928   22.4185 C   0  0  0  0  0  0  0  0  0  0  0  0
    8.8203  -15.9678   22.0054 O   0  0  0  0  0  0  0  0  0  0  0  0
    5.7560  -12.4235   26.1027 C   0  0  0  0  0  0  0  0  0  0  0  0
    6.5105  -13.0482   24.9048 C   0  0  1  0  0  0  0  0  0  0  0  0
    7.4695  -11.9560   24.4630 C   0  0  0  0  0  0  0  0  0  0  0  0
    7.2150  -14.2369   25.4681 C   0  0  0  0  0  0  0  0  0  0  0  0
    8.0108  -15.0634   24.5263 C   0  0  2  0  0  0  0  0  0  0  0  0
    7.2664  -15.9699   23.6924 N   0  0  0  0  0  0  0  0  0  0  0  0
    9.0178  -15.8118   25.3021 C   0  0  0  0  0  0  0  0  0  0  0  0
    8.6819  -16.3801   26.3652 O   0  0  0  0  0  0  0  0  0  0  0  0
   11.0874  -14.1967   30.5683 C   0  0  0  0  0  0  0  0  0  0  0  0
   10.2308  -13.8266   29.0259 S   0  0  0  0  0  0  0  0  0  0  0  0
   10.2677  -15.2157   27.8871 C   0  0  0  0  0  0  0  0  0  0  0  0
   11.4293  -15.0526   26.9395 C   0  0  0  0  0  0  0  0  0  0  0  0
   11.4039  -16.1790   25.9067 C   0  0  2  0  0  0  0  0  0  0  0  0
   10.3794  -15.9317   24.9091 N   0  0  0  0  0  0  0  0  0  0  0  0
   11.2307  -17.5024   26.5361 C   0  0  0  0  0  0  0  0  0  0  0  0
   12.0680  -17.8898   27.5490 O   0  0  0  0  0  0  0  0  0  0  0  0
   10.3066  -18.2539   26.1231 O   0  0  0  0  0  0  0  0  0  0  0  0
  2  1  1  6
  2  3  1  0
  4  6  1  0
  4  2  1  0
  4  5  1  6
  6  7  2  0
  9 11  1  0
  9  8  1  1
 10  9  1  0
 12 11  1  1
 13 12  1  0
 13  6  1  0
 14 15  2  0
 14 12  1  0
 16 17  1  0
 17 18  1  0
 18 19  1  0
 20 19  1  1
 20 21  1  0
 20 22  1  0
 21 14  1  0
 22 24  2  0
 22 23  1  0
M  END
$$$$
