VLM.pdb
     RDKit          3D

 24 23  0  0  1  0  0  0  0  0999 V2000
    6.7979  -14.4847   19.9018 C   0  0  0  0  0  0  0  0  0  0  0  0
    7.7058  -15.6179   19.5734 C   0  0  2  0  0  0  0  0  0  0  0  0
    7.0597  -16.4279   18.4624 C   0  0  0  0  0  0  0  0  0  0  0  0
    8.0763  -16.5076   20.7256 C   0  0  2  0  0  0  0  0  0  0  0  0
    6.8497  -17.2374   21.1683 N   0  0  0  0  0  0  0  0  0  0  0  0
    8.6604  -15.8103   21.8758 C   0  0  0  0  0  0  0  0  0  0  0  0
    9.8278  -15.3308   21.8062 O   0  0  0  0  0  0  0  0  0  0  0  0
    5.9312  -12.5570   25.8058 C   0  0  0  0  0  0  0  0  0  0  0  0
    6.8578  -13.0001   24.6484 C   0  0  1  0  0  0  0  0  0  0  0  0
    7.8832  -11.8836   24.5488 C   0  0  0  0  0  0  0  0  0  0  0  0
    7.4559  -14.2894   25.1030 C   0  0  0  0  0  0  0  0  0  0  0  0
    8.4649  -14.9198   24.2153 C   0  0  2  0  0  0  0  0  0  0  0  0
    7.9500  -15.6465   23.0848 N   0  0  0  0  0  0  0  0  0  0  0  0
    9.3141  -15.8060   25.0334 C   0  0  0  0  0  0  0  0  0  0  0  0
    8.8919  -16.9377   25.3604 O   0  0  0  0  0  0  0  0  0  0  0  0
   10.6388  -13.3891   30.1105 C   0  0  0  0  0  0  0  0  0  0  0  0
   10.1974  -15.0967   30.4831 S   0  0  0  0  0  0  0  0  0  0  0  0
   10.6883  -16.2193   29.1690 C   0  0  0  0  0  0  0  0  0  0  0  0
   10.1052  -15.7427   27.8626 C   0  0  0  0  0  0  0  0  0  0  0  0
   11.1172  -15.9736   26.7407 C   0  0  2  0  0  0  0  0  0  0  0  0
   10.6141  -15.4474   25.4854 N   0  0  0  0  0  0  0  0  0  0  0  0
   11.4883  -17.3963   26.6151 C   0  0  0  0  0  0  0  0  0  0  0  0
   10.5411  -18.3180   26.2541 O   0  0  0  0  0  0  0  0  0  0  0  0
   12.6807  -17.7345   26.8452 O   0  0  0  0  0  0  0  0  0  0  0  0
  2  1  1  1
  2  3  1  0
  4  6  1  0
  4  2  1  0
  4  5  1  1
  6  7  2  0
  9 11  1  0
  9  8  1  1
 10  9  1  0
 12 11  1  1
 13 12  1  0
 13  6  1  0
 14 15  2  0
 14 12  1  0
 16 17  1  0
 17 18  1  0
 18 19  1  0
 20 19  1  1
 20 21  1  0
 20 22  1  0
 21 14  1  0
 22 24  2  0
 22 23  1  0
M  END
$$$$
