VLM.pdb
     RDKit          3D

 24 23  0  0  1  0  0  0  0  0999 V2000
    6.9151  -13.7527   18.3676 C   0  0  0  0  0  0  0  0  0  0  0  0
    7.5434  -13.5360   19.6998 C   0  0  2  0  0  0  0  0  0  0  0  0
    8.5549  -12.4110   19.5623 C   0  0  0  0  0  0  0  0  0  0  0  0
    8.1830  -14.7453   20.3201 C   0  0  2  0  0  0  0  0  0  0  0  0
    7.1688  -15.8419   20.3645 N   0  0  0  0  0  0  0  0  0  0  0  0
    8.7180  -14.5325   21.6687 C   0  0  0  0  0  0  0  0  0  0  0  0
    9.8275  -13.9489   21.8306 O   0  0  0  0  0  0  0  0  0  0  0  0
    5.6347  -13.0224   26.2463 C   0  0  0  0  0  0  0  0  0  0  0  0
    6.6037  -13.0374   25.0399 C   0  0  1  0  0  0  0  0  0  0  0  0
    7.5405  -11.8711   25.3049 C   0  0  0  0  0  0  0  0  0  0  0  0
    7.2955  -14.3574   25.1151 C   0  0  0  0  0  0  0  0  0  0  0  0
    8.4055  -14.5973   24.1592 C   0  0  2  0  0  0  0  0  0  0  0  0
    8.0226  -14.9607   22.8203 N   0  0  0  0  0  0  0  0  0  0  0  0
    9.2890  -15.6345   24.7244 C   0  0  0  0  0  0  0  0  0  0  0  0
    9.3855  -16.7433   24.1524 O   0  0  0  0  0  0  0  0  0  0  0  0
   10.3759  -14.1214   31.2210 C   0  0  0  0  0  0  0  0  0  0  0  0
   11.4869  -14.9938   30.1011 S   0  0  0  0  0  0  0  0  0  0  0  0
   10.7324  -15.2821   28.4962 C   0  0  0  0  0  0  0  0  0  0  0  0
   11.6893  -16.0598   27.6282 C   0  0  0  0  0  0  0  0  0  0  0  0
   10.9793  -16.4826   26.3424 C   0  0  2  0  0  0  0  0  0  0  0  0
   10.0573  -15.4500   25.9071 N   0  0  0  0  0  0  0  0  0  0  0  0
   10.2970  -17.7828   26.4895 C   0  0  0  0  0  0  0  0  0  0  0  0
    8.9299  -17.8457   26.4265 O   0  0  0  0  0  0  0  0  0  0  0  0
   10.9951  -18.8166   26.6718 O   0  0  0  0  0  0  0  0  0  0  0  0
  2  1  1  6
  2  3  1  0
  4  6  1  0
  4  2  1  0
  4  5  1  1
  6  7  2  0
  9 11  1  0
  9  8  1  1
 10  9  1  0
 12 11  1  1
 13 12  1  0
 13  6  1  0
 14 15  2  0
 14 12  1  0
 16 17  1  0
 17 18  1  0
 18 19  1  0
 20 19  1  1
 20 21  1  0
 20 22  1  0
 21 14  1  0
 22 24  2  0
 22 23  1  0
M  END
$$$$
