VLM.pdb
     RDKit          3D

 24 23  0  0  1  0  0  0  0  0999 V2000
    7.6590  -18.3124   18.5814 C   0  0  0  0  0  0  0  0  0  0  0  0
    8.7399  -19.2815   18.9110 C   0  0  2  0  0  0  0  0  0  0  0  0
    8.1735  -20.6829   18.7594 C   0  0  0  0  0  0  0  0  0  0  0  0
    9.3721  -19.1133   20.2632 C   0  0  2  0  0  0  0  0  0  0  0  0
    8.3792  -19.5276   21.3004 N   0  0  0  0  0  0  0  0  0  0  0  0
    9.8351  -17.7537   20.5590 C   0  0  0  0  0  0  0  0  0  0  0  0
   10.7923  -17.2491   19.9059 O   0  0  0  0  0  0  0  0  0  0  0  0
    6.6781  -13.2485   21.4474 C   0  0  0  0  0  0  0  0  0  0  0  0
    7.8108  -14.1420   20.8877 C   0  0  1  0  0  0  0  0  0  0  0  0
    8.6504  -13.1919   20.0509 C   0  0  0  0  0  0  0  0  0  0  0  0
    8.5386  -14.6434   22.0900 C   0  0  0  0  0  0  0  0  0  0  0  0
    9.6359  -15.6167   21.8621 C   0  0  2  0  0  0  0  0  0  0  0  0
    9.2353  -16.9671   21.5662 N   0  0  0  0  0  0  0  0  0  0  0  0
   10.5191  -15.6058   23.0435 C   0  0  0  0  0  0  0  0  0  0  0  0
   11.0835  -14.5420   23.3837 O   0  0  0  0  0  0  0  0  0  0  0  0
    9.1856  -12.5224   28.4616 C   0  0  0  0  0  0  0  0  0  0  0  0
    8.7099  -13.9612   27.4854 S   0  0  0  0  0  0  0  0  0  0  0  0
   10.1278  -14.7436   26.7072 C   0  0  0  0  0  0  0  0  0  0  0  0
    9.6537  -15.8752   25.8306 C   0  0  0  0  0  0  0  0  0  0  0  0
   10.8623  -16.6344   25.2837 C   0  0  2  0  0  0  0  0  0  0  0  0
   10.7764  -16.7557   23.8402 N   0  0  0  0  0  0  0  0  0  0  0  0
   11.0220  -17.9543   25.9238 C   0  0  0  0  0  0  0  0  0  0  0  0
   11.5233  -18.0382   27.1961 O   0  0  0  0  0  0  0  0  0  0  0  0
   10.6902  -18.9853   25.2785 O   0  0  0  0  0  0  0  0  0  0  0  0
  2  1  1  1
  2  3  1  0
  4  6  1  0
  4  2  1  0
  4  5  1  1
  6  7  2  0
  9 11  1  0
  9  8  1  1
 10  9  1  0
 12 11  1  1
 13 12  1  0
 13  6  1  0
 14 15  2  0
 14 12  1  0
 16 17  1  0
 17 18  1  0
 18 19  1  0
 20 19  1  1
 20 21  1  0
 20 22  1  0
 21 14  1  0
 22 24  2  0
 22 23  1  0
M  END
$$$$
