VLM.pdb
     RDKit          3D

 24 23  0  0  1  0  0  0  0  0999 V2000
    9.6968  -20.1914   18.9388 C   0  0  0  0  0  0  0  0  0  0  0  0
    9.9953  -18.7929   19.3527 C   0  0  2  0  0  0  0  0  0  0  0  0
   11.3393  -18.4065   18.7593 C   0  0  0  0  0  0  0  0  0  0  0  0
    9.9809  -18.5371   20.8328 C   0  0  2  0  0  0  0  0  0  0  0  0
    8.6906  -19.0501   21.3852 N   0  0  0  0  0  0  0  0  0  0  0  0
   10.1394  -17.1299   21.2137 C   0  0  0  0  0  0  0  0  0  0  0  0
   11.2646  -16.5635   21.1106 O   0  0  0  0  0  0  0  0  0  0  0  0
    6.1739  -13.2952   20.4313 C   0  0  0  0  0  0  0  0  0  0  0  0
    7.5147  -14.0656   20.3738 C   0  0  1  0  0  0  0  0  0  0  0  0
    8.4019  -13.1967   19.4987 C   0  0  0  0  0  0  0  0  0  0  0  0
    7.9872  -14.1269   21.7879 C   0  0  0  0  0  0  0  0  0  0  0  0
    9.1685  -14.9794   22.0723 C   0  0  2  0  0  0  0  0  0  0  0  0
    9.0565  -16.3647   21.6983 N   0  0  0  0  0  0  0  0  0  0  0  0
    9.4815  -14.8746   23.5101 C   0  0  0  0  0  0  0  0  0  0  0  0
    9.6995  -13.7505   24.0150 O   0  0  0  0  0  0  0  0  0  0  0  0
    6.3382  -12.1856   26.5247 C   0  0  0  0  0  0  0  0  0  0  0  0
    8.0604  -12.5466   26.9163 S   0  0  0  0  0  0  0  0  0  0  0  0
    8.2975  -14.2662   27.3798 C   0  0  0  0  0  0  0  0  0  0  0  0
    8.1116  -15.1400   26.1650 C   0  0  0  0  0  0  0  0  0  0  0  0
    9.4390  -15.8121   25.8151 C   0  0  2  0  0  0  0  0  0  0  0  0
    9.5530  -15.9973   24.3804 N   0  0  0  0  0  0  0  0  0  0  0  0
    9.6201  -17.0869   26.5360 C   0  0  0  0  0  0  0  0  0  0  0  0
    9.7310  -17.0874   27.9016 O   0  0  0  0  0  0  0  0  0  0  0  0
    9.6691  -18.1574   25.8719 O   0  0  0  0  0  0  0  0  0  0  0  0
  2  1  1  1
  2  3  1  0
  4  6  1  0
  4  2  1  0
  4  5  1  6
  6  7  2  0
  9 11  1  0
  9  8  1  1
 10  9  1  0
 12 11  1  1
 13 12  1  0
 13  6  1  0
 14 15  2  0
 14 12  1  0
 16 17  1  0
 17 18  1  0
 18 19  1  0
 20 19  1  6
 20 21  1  0
 20 22  1  0
 21 14  1  0
 22 24  2  0
 22 23  1  0
M  END
$$$$
