VLM.pdb
     RDKit          3D

 24 23  0  0  1  0  0  0  0  0999 V2000
    5.7959  -18.1827   20.0002 C   0  0  0  0  0  0  0  0  0  0  0  0
    6.6042  -17.0472   20.5233 C   0  0  2  0  0  0  0  0  0  0  0  0
    7.2971  -16.3846   19.3449 C   0  0  0  0  0  0  0  0  0  0  0  0
    7.6015  -17.3979   21.5905 C   0  0  2  0  0  0  0  0  0  0  0  0
    6.8928  -18.1597   22.6631 N   0  0  0  0  0  0  0  0  0  0  0  0
    8.2863  -16.2489   22.1914 C   0  0  0  0  0  0  0  0  0  0  0  0
    9.1216  -15.5801   21.5187 O   0  0  0  0  0  0  0  0  0  0  0  0
    5.9373  -12.7244   25.9949 C   0  0  0  0  0  0  0  0  0  0  0  0
    6.6829  -13.1368   24.7031 C   0  0  1  0  0  0  0  0  0  0  0  0
    7.1625  -11.8195   24.1178 C   0  0  0  0  0  0  0  0  0  0  0  0
    7.8073  -14.0026   25.1644 C   0  0  0  0  0  0  0  0  0  0  0  0
    8.6190  -14.6749   24.1192 C   0  0  2  0  0  0  0  0  0  0  0  0
    8.0390  -15.8493   23.5227 N   0  0  0  0  0  0  0  0  0  0  0  0
    9.9357  -15.0066   24.6957 C   0  0  0  0  0  0  0  0  0  0  0  0
   10.7325  -14.0867   24.9870 O   0  0  0  0  0  0  0  0  0  0  0  0
   10.2950  -13.8137   29.3865 C   0  0  0  0  0  0  0  0  0  0  0  0
   10.7299  -15.4640   29.9669 S   0  0  0  0  0  0  0  0  0  0  0  0
   11.1981  -16.5500   28.6143 C   0  0  0  0  0  0  0  0  0  0  0  0
   10.3838  -16.2044   27.3931 C   0  0  0  0  0  0  0  0  0  0  0  0
   11.1419  -16.6370   26.1383 C   0  0  2  0  0  0  0  0  0  0  0  0
   10.3679  -16.3380   24.9478 N   0  0  0  0  0  0  0  0  0  0  0  0
   11.5226  -18.0619   26.1862 C   0  0  0  0  0  0  0  0  0  0  0  0
   12.4566  -18.4873   27.0937 O   0  0  0  0  0  0  0  0  0  0  0  0
   10.9739  -18.8634   25.3825 O   0  0  0  0  0  0  0  0  0  0  0  0
  2  1  1  6
  2  3  1  0
  4  6  1  0
  4  2  1  0
  4  5  1  1
  6  7  2  0
  9 11  1  0
  9  8  1  1
 10  9  1  0
 12 11  1  1
 13 12  1  0
 13  6  1  0
 14 15  2  0
 14 12  1  0
 16 17  1  0
 17 18  1  0
 18 19  1  0
 20 19  1  1
 20 21  1  0
 20 22  1  0
 21 14  1  0
 22 24  2  0
 22 23  1  0
M  END
$$$$
