VLM.pdb
     RDKit          3D

 24 23  0  0  1  0  0  0  0  0999 V2000
    6.3598  -18.1964   20.3648 C   0  0  0  0  0  0  0  0  0  0  0  0
    6.9705  -17.6876   21.6236 C   0  0  2  0  0  0  0  0  0  0  0  0
    6.0916  -18.1289   22.7813 C   0  0  0  0  0  0  0  0  0  0  0  0
    7.2062  -16.2051   21.6776 C   0  0  2  0  0  0  0  0  0  0  0  0
    8.0547  -15.8219   20.5086 N   0  0  0  0  0  0  0  0  0  0  0  0
    7.8446  -15.7299   22.9093 C   0  0  0  0  0  0  0  0  0  0  0  0
    9.0637  -15.9773   23.1329 O   0  0  0  0  0  0  0  0  0  0  0  0
    5.7675  -11.4313   26.1862 C   0  0  0  0  0  0  0  0  0  0  0  0
    6.6268  -12.2324   25.1790 C   0  0  1  0  0  0  0  0  0  0  0  0
    7.8616  -11.3700   24.9802 C   0  0  0  0  0  0  0  0  0  0  0  0
    6.9316  -13.5203   25.8682 C   0  0  0  0  0  0  0  0  0  0  0  0
    7.7151  -14.5272   25.1095 C   0  0  2  0  0  0  0  0  0  0  0  0
    7.1335  -14.9856   23.8754 N   0  0  0  0  0  0  0  0  0  0  0  0
    7.9753  -15.6772   25.9959 C   0  0  0  0  0  0  0  0  0  0  0  0
    7.0135  -16.3168   26.4773 O   0  0  0  0  0  0  0  0  0  0  0  0
    6.7826  -21.6261   26.3385 C   0  0  0  0  0  0  0  0  0  0  0  0
    8.4835  -21.1853   25.9360 S   0  0  0  0  0  0  0  0  0  0  0  0
    9.0828  -19.8271   26.9480 C   0  0  0  0  0  0  0  0  0  0  0  0
    8.9559  -18.5374   26.1770 C   0  0  0  0  0  0  0  0  0  0  0  0
    9.4622  -17.3798   27.0371 C   0  0  2  0  0  0  0  0  0  0  0  0
    9.2819  -16.1162   26.3469 N   0  0  0  0  0  0  0  0  0  0  0  0
   10.8666  -17.5700   27.4487 C   0  0  0  0  0  0  0  0  0  0  0  0
   11.1756  -18.4984   28.4076 O   0  0  0  0  0  0  0  0  0  0  0  0
   11.7589  -16.8664   26.9029 O   0  0  0  0  0  0  0  0  0  0  0  0
  2  1  1  6
  2  3  1  0
  4  6  1  0
  4  2  1  0
  4  5  1  6
  6  7  2  0
  9 11  1  0
  9  8  1  1
 10  9  1  0
 12 11  1  1
 13 12  1  0
 13  6  1  0
 14 15  2  0
 14 12  1  0
 16 17  1  0
 17 18  1  0
 18 19  1  0
 20 19  1  6
 20 21  1  0
 20 22  1  0
 21 14  1  0
 22 24  2  0
 22 23  1  0
M  END
$$$$
