VLM.pdb
     RDKit          3D

 24 23  0  0  1  0  0  0  0  0999 V2000
    7.0809  -13.6554   20.9455 C   0  0  0  0  0  0  0  0  0  0  0  0
    8.0387  -14.7128   20.5200 C   0  0  2  0  0  0  0  0  0  0  0  0
    7.5208  -15.3201   19.2274 C   0  0  0  0  0  0  0  0  0  0  0  0
    8.3115  -15.7873   21.5336 C   0  0  2  0  0  0  0  0  0  0  0  0
    7.0542  -16.5680   21.7399 N   0  0  0  0  0  0  0  0  0  0  0  0
    8.7910  -15.2994   22.8307 C   0  0  0  0  0  0  0  0  0  0  0  0
    9.9832  -14.9007   22.9617 O   0  0  0  0  0  0  0  0  0  0  0  0
    5.7020  -12.4830   26.6926 C   0  0  0  0  0  0  0  0  0  0  0  0
    6.7883  -12.8428   25.6509 C   0  0  1  0  0  0  0  0  0  0  0  0
    7.7976  -11.7132   25.7656 C   0  0  0  0  0  0  0  0  0  0  0  0
    7.3401  -14.1533   26.1035 C   0  0  0  0  0  0  0  0  0  0  0  0
    8.3825  -14.7808   25.2532 C   0  0  2  0  0  0  0  0  0  0  0  0
    7.9505  -15.2530   23.9640 N   0  0  0  0  0  0  0  0  0  0  0  0
    8.9949  -15.8884   26.0107 C   0  0  0  0  0  0  0  0  0  0  0  0
    8.3053  -16.8892   26.3087 O   0  0  0  0  0  0  0  0  0  0  0  0
   14.7337  -15.6964   25.5072 C   0  0  0  0  0  0  0  0  0  0  0  0
   13.4599  -16.2079   24.3388 S   0  0  0  0  0  0  0  0  0  0  0  0
   12.3535  -17.4344   25.0456 C   0  0  0  0  0  0  0  0  0  0  0  0
   12.3536  -17.2989   26.5475 C   0  0  0  0  0  0  0  0  0  0  0  0
   10.9222  -17.0821   27.0377 C   0  0  2  0  0  0  0  0  0  0  0  0
   10.3526  -15.8915   26.4345 N   0  0  0  0  0  0  0  0  0  0  0  0
   10.8448  -17.0262   28.5103 C   0  0  0  0  0  0  0  0  0  0  0  0
   11.2834  -18.0883   29.2563 O   0  0  0  0  0  0  0  0  0  0  0  0
   10.3717  -15.9916   29.0537 O   0  0  0  0  0  0  0  0  0  0  0  0
  2  1  1  1
  2  3  1  0
  4  6  1  0
  4  2  1  0
  4  5  1  1
  6  7  2  0
  9 11  1  0
  9  8  1  1
 10  9  1  0
 12 11  1  1
 13 12  1  0
 13  6  1  0
 14 15  2  0
 14 12  1  0
 16 17  1  0
 17 18  1  0
 18 19  1  0
 20 19  1  1
 20 21  1  0
 20 22  1  0
 21 14  1  0
 22 24  2  0
 22 23  1  0
M  END
$$$$
