VLM.pdb
     RDKit          3D

 24 23  0  0  1  0  0  0  0  0999 V2000
    8.0350  -15.8197   19.1766 C   0  0  0  0  0  0  0  0  0  0  0  0
    7.1872  -16.4656   20.2161 C   0  0  2  0  0  0  0  0  0  0  0  0
    6.1930  -15.4320   20.7169 C   0  0  0  0  0  0  0  0  0  0  0  0
    7.9292  -17.0826   21.3672 C   0  0  2  0  0  0  0  0  0  0  0  0
    6.9560  -17.8665   22.1867 N   0  0  0  0  0  0  0  0  0  0  0  0
    8.6232  -16.1246   22.2338 C   0  0  0  0  0  0  0  0  0  0  0  0
    9.7055  -15.5912   21.8576 O   0  0  0  0  0  0  0  0  0  0  0  0
    5.9514  -12.8009   26.1044 C   0  0  0  0  0  0  0  0  0  0  0  0
    6.7640  -13.1975   24.8486 C   0  0  1  0  0  0  0  0  0  0  0  0
    7.3404  -11.8825   24.3521 C   0  0  0  0  0  0  0  0  0  0  0  0
    7.8147  -14.1327   25.3466 C   0  0  0  0  0  0  0  0  0  0  0  0
    8.7068  -14.7520   24.3346 C   0  0  2  0  0  0  0  0  0  0  0  0
    8.1140  -15.7638   23.5001 N   0  0  0  0  0  0  0  0  0  0  0  0
    9.8840  -15.3056   25.0300 C   0  0  0  0  0  0  0  0  0  0  0  0
   10.7077  -14.5298   25.5645 O   0  0  0  0  0  0  0  0  0  0  0  0
   10.3637  -13.1696   29.4931 C   0  0  0  0  0  0  0  0  0  0  0  0
   10.1979  -14.9580   29.3386 S   0  0  0  0  0  0  0  0  0  0  0  0
   11.2233  -15.6160   28.0181 C   0  0  0  0  0  0  0  0  0  0  0  0
   10.6308  -16.9124   27.5260 C   0  0  0  0  0  0  0  0  0  0  0  0
   11.1156  -17.1839   26.1021 C   0  0  2  0  0  0  0  0  0  0  0  0
   10.1490  -16.6991   25.1344 N   0  0  0  0  0  0  0  0  0  0  0  0
   11.4217  -18.6110   25.8850 C   0  0  0  0  0  0  0  0  0  0  0  0
   12.3826  -19.2248   26.6446 O   0  0  0  0  0  0  0  0  0  0  0  0
   10.7854  -19.2392   24.9963 O   0  0  0  0  0  0  0  0  0  0  0  0
  2  1  1  6
  2  3  1  0
  4  6  1  0
  4  2  1  0
  4  5  1  1
  6  7  2  0
  9 11  1  0
  9  8  1  1
 10  9  1  0
 12 11  1  1
 13 12  1  0
 13  6  1  0
 14 15  2  0
 14 12  1  0
 16 17  1  0
 17 18  1  0
 18 19  1  0
 20 19  1  1
 20 21  1  0
 20 22  1  0
 21 14  1  0
 22 24  2  0
 22 23  1  0
M  END
$$$$
