FSN.pdb
     RDKit          3D

 26 26  0  0  1  0  0  0  0  0999 V2000
    5.6340  -17.4921   24.3192 N   0  0  0  0  0  0  0  0  0  0  0  0
    6.7011  -16.5520   24.4763 C   0  0  1  0  0  0  0  0  0  0  0  0
    6.6535  -15.9841   25.8750 C   0  0  0  0  0  0  0  0  0  0  0  0
    6.6884  -14.5035   25.7893 C   0  0  0  0  0  0  0  0  0  0  0  0
    6.7417  -13.8273   24.5754 C   0  0  0  0  0  0  0  0  0  0  0  0
    6.7735  -12.4541   24.5193 C   0  0  0  0  0  0  0  0  0  0  0  0
    6.7534  -11.6901   25.6800 C   0  0  0  0  0  0  0  0  0  0  0  0
    6.7012  -12.3441   26.8754 C   0  0  0  0  0  0  0  0  0  0  0  0
    6.6693  -13.7238   26.9319 C   0  0  0  0  0  0  0  0  0  0  0  0
    8.0414  -17.1324   24.1671 C   0  0  0  0  0  0  0  0  0  0  0  0
    8.4347  -18.1171   24.8044 O   0  0  0  0  0  0  0  0  0  0  0  0
   10.8603  -15.0944   21.6591 O   0  0  0  0  0  0  0  0  0  0  0  0
   10.7267  -16.4650   21.5253 C   0  0  0  0  0  0  0  0  0  0  0  0
   10.1474  -17.1297   22.7530 C   0  0  2  0  0  0  0  0  0  0  0  0
    8.8917  -16.5940   23.1605 N   0  0  0  0  0  0  0  0  0  0  0  0
   11.1864  -17.0962   23.8146 C   0  0  0  0  0  0  0  0  0  0  0  0
   11.3867  -16.0182   24.4243 O   0  0  0  0  0  0  0  0  0  0  0  0
   11.1186  -20.4465   26.5550 N   0  0  0  0  0  0  0  0  0  0  0  0
   12.1101  -19.4530   26.8857 C   0  0  0  0  0  0  0  0  0  0  0  0
   11.9438  -18.7599   27.9012 O   0  0  0  0  0  0  0  0  0  0  0  0
   13.2490  -19.3718   25.9450 C   0  0  0  0  0  0  0  0  0  0  0  0
   13.1160  -18.1406   25.0776 C   0  0  2  0  0  0  0  0  0  0  0  0
   11.9752  -18.2118   24.1897 N   0  0  0  0  0  0  0  0  0  0  0  0
   14.3738  -17.8875   24.3620 C   0  0  0  0  0  0  0  0  0  0  0  0
   15.5674  -17.7002   25.0259 O   0  0  0  0  0  0  0  0  0  0  0  0
   14.3703  -17.8389   23.1141 O   0  0  0  0  0  0  0  0  0  0  0  0
  2  1  1  1
  3  2  1  0
  4  5  2  0
  4  3  1  0
  6  5  1  0
  7  6  2  0
  8  7  1  0
  8  9  2  0
  9  4  1  0
 10  2  1  0
 11 10  2  0
 13 12  1  0
 14 15  1  0
 14 13  1  6
 15 10  1  0
 16 14  1  0
 17 16  2  0
 19 21  1  0
 19 18  1  0
 20 19  2  0
 22 21  1  6
 22 24  1  0
 22 23  1  0
 23 16  1  0
 24 25  1  0
 26 24  2  0
M  END
$$$$
