FSN.pdb
     RDKit          3D

 26 26  0  0  1  0  0  0  0  0999 V2000
    6.4101  -17.2102   25.5900 N   0  0  0  0  0  0  0  0  0  0  0  0
    6.9929  -16.1089   24.8867 C   0  0  1  0  0  0  0  0  0  0  0  0
    8.0336  -15.4589   25.7673 C   0  0  0  0  0  0  0  0  0  0  0  0
    7.6273  -14.0564   26.0289 C   0  0  0  0  0  0  0  0  0  0  0  0
    6.3327  -13.7115   26.4013 C   0  0  0  0  0  0  0  0  0  0  0  0
    5.9779  -12.4047   26.6389 C   0  0  0  0  0  0  0  0  0  0  0  0
    6.9058  -11.3777   26.5144 C   0  0  0  0  0  0  0  0  0  0  0  0
    8.1781  -11.7058   26.1496 C   0  0  0  0  0  0  0  0  0  0  0  0
    8.5347  -13.0187   25.9109 C   0  0  0  0  0  0  0  0  0  0  0  0
    7.5624  -16.4970   23.5622 C   0  0  0  0  0  0  0  0  0  0  0  0
    8.2436  -17.5260   23.4760 O   0  0  0  0  0  0  0  0  0  0  0  0
    7.9280  -13.7331   20.2669 O   0  0  0  0  0  0  0  0  0  0  0  0
    7.4664  -15.0160   20.0313 C   0  0  0  0  0  0  0  0  0  0  0  0
    7.8857  -16.0047   21.0949 C   0  0  2  0  0  0  0  0  0  0  0  0
    7.3513  -15.7245   22.3855 N   0  0  0  0  0  0  0  0  0  0  0  0
    9.3685  -16.0936   21.0663 C   0  0  0  0  0  0  0  0  0  0  0  0
    9.9243  -16.5168   20.0241 O   0  0  0  0  0  0  0  0  0  0  0  0
   11.8323  -13.0011   19.7717 N   0  0  0  0  0  0  0  0  0  0  0  0
   12.3871  -14.2145   20.3189 C   0  0  0  0  0  0  0  0  0  0  0  0
   12.9427  -15.0150   19.5509 O   0  0  0  0  0  0  0  0  0  0  0  0
   12.2246  -14.3702   21.7810 C   0  0  0  0  0  0  0  0  0  0  0  0
   11.6538  -15.7347   22.0950 C   0  0  2  0  0  0  0  0  0  0  0  0
   10.2074  -15.7287   22.1483 N   0  0  0  0  0  0  0  0  0  0  0  0
   12.2619  -16.2676   23.3215 C   0  0  0  0  0  0  0  0  0  0  0  0
   11.5021  -16.6630   24.4017 O   0  0  0  0  0  0  0  0  0  0  0  0
   13.5043  -16.3688   23.3960 O   0  0  0  0  0  0  0  0  0  0  0  0
  2  1  1  1
  3  2  1  0
  4  5  2  0
  4  3  1  0
  6  5  1  0
  7  6  2  0
  8  7  1  0
  8  9  2  0
  9  4  1  0
 10  2  1  0
 11 10  2  0
 13 12  1  0
 14 15  1  0
 14 13  1  6
 15 10  1  0
 16 14  1  0
 17 16  2  0
 19 21  1  0
 19 18  1  0
 20 19  2  0
 22 21  1  1
 22 24  1  0
 22 23  1  0
 23 16  1  0
 24 25  1  0
 26 24  2  0
M  END
$$$$
