FSN.pdb
     RDKit          3D

 26 26  0  0  1  0  0  0  0  0999 V2000
    7.8776  -16.1511   21.6130 N   0  0  0  0  0  0  0  0  0  0  0  0
    8.9927  -15.4880   22.2164 C   0  0  1  0  0  0  0  0  0  0  0  0
    8.7790  -13.9951   22.1354 C   0  0  0  0  0  0  0  0  0  0  0  0
    8.3139  -13.6541   20.7686 C   0  0  0  0  0  0  0  0  0  0  0  0
    9.1939  -13.4131   19.7193 C   0  0  0  0  0  0  0  0  0  0  0  0
    8.7407  -13.0984   18.4600 C   0  0  0  0  0  0  0  0  0  0  0  0
    7.3803  -13.0099   18.1908 C   0  0  0  0  0  0  0  0  0  0  0  0
    6.5093  -13.2446   19.2134 C   0  0  0  0  0  0  0  0  0  0  0  0
    6.9644  -13.5607   20.4787 C   0  0  0  0  0  0  0  0  0  0  0  0
    9.2448  -15.9289   23.6204 C   0  0  0  0  0  0  0  0  0  0  0  0
   10.2404  -15.5021   24.2178 O   0  0  0  0  0  0  0  0  0  0  0  0
    6.2872  -18.1896   25.6176 O   0  0  0  0  0  0  0  0  0  0  0  0
    7.2019  -17.4720   26.3679 C   0  0  0  0  0  0  0  0  0  0  0  0
    8.5176  -17.2563   25.6561 C   0  0  2  0  0  0  0  0  0  0  0  0
    8.3787  -16.8277   24.3045 N   0  0  0  0  0  0  0  0  0  0  0  0
    9.3216  -18.4960   25.8122 C   0  0  0  0  0  0  0  0  0  0  0  0
    9.0504  -19.4825   25.0859 O   0  0  0  0  0  0  0  0  0  0  0  0
   12.8450  -20.0419   24.4302 N   0  0  0  0  0  0  0  0  0  0  0  0
   12.8251  -19.1986   25.5998 C   0  0  0  0  0  0  0  0  0  0  0  0
   13.0744  -17.9904   25.4677 O   0  0  0  0  0  0  0  0  0  0  0  0
   12.4990  -19.8939   26.8641 C   0  0  0  0  0  0  0  0  0  0  0  0
   11.0019  -19.9067   27.0755 C   0  0  2  0  0  0  0  0  0  0  0  0
   10.3860  -18.6417   26.7360 N   0  0  0  0  0  0  0  0  0  0  0  0
   10.6878  -20.3385   28.4441 C   0  0  0  0  0  0  0  0  0  0  0  0
   11.0711  -21.5713   28.9275 O   0  0  0  0  0  0  0  0  0  0  0  0
   10.0546  -19.5714   29.1991 O   0  0  0  0  0  0  0  0  0  0  0  0
  2  1  1  1
  3  2  1  0
  4  5  2  0
  4  3  1  0
  6  5  1  0
  7  6  2  0
  8  7  1  0
  8  9  2  0
  9  4  1  0
 10  2  1  0
 11 10  2  0
 13 12  1  0
 14 15  1  0
 14 13  1  6
 15 10  1  0
 16 14  1  0
 17 16  2  0
 19 21  1  0
 19 18  1  0
 20 19  2  0
 22 21  1  1
 22 24  1  0
 22 23  1  0
 23 16  1  0
 24 25  1  0
 26 24  2  0
M  END
$$$$
