FSN.pdb
     RDKit          3D

 26 26  0  0  1  0  0  0  0  0999 V2000
    6.7234  -14.3841   20.6417 N   0  0  0  0  0  0  0  0  0  0  0  0
    7.2993  -14.2241   21.9417 C   0  0  1  0  0  0  0  0  0  0  0  0
    6.2051  -13.8825   22.9250 C   0  0  0  0  0  0  0  0  0  0  0  0
    6.8058  -13.7344   24.2734 C   0  0  0  0  0  0  0  0  0  0  0  0
    7.5381  -12.6124   24.6450 C   0  0  0  0  0  0  0  0  0  0  0  0
    8.0862  -12.4961   25.9004 C   0  0  0  0  0  0  0  0  0  0  0  0
    7.9265  -13.5013   26.8465 C   0  0  0  0  0  0  0  0  0  0  0  0
    7.2098  -14.6058   26.4915 C   0  0  0  0  0  0  0  0  0  0  0  0
    6.6591  -14.7228   25.2303 C   0  0  0  0  0  0  0  0  0  0  0  0
    8.0805  -15.4166   22.3854 C   0  0  0  0  0  0  0  0  0  0  0  0
    7.5483  -16.5329   22.3542 O   0  0  0  0  0  0  0  0  0  0  0  0
   12.3703  -15.5824   22.3268 O   0  0  0  0  0  0  0  0  0  0  0  0
   11.4380  -16.6019   22.2501 C   0  0  0  0  0  0  0  0  0  0  0  0
   10.2699  -16.4130   23.1905 C   0  0  2  0  0  0  0  0  0  0  0  0
    9.4236  -15.3198   22.8466 N   0  0  0  0  0  0  0  0  0  0  0  0
   10.8124  -16.3398   24.5718 C   0  0  0  0  0  0  0  0  0  0  0  0
   10.5656  -15.3203   25.2602 O   0  0  0  0  0  0  0  0  0  0  0  0
   10.9144  -18.9671   28.8308 N   0  0  0  0  0  0  0  0  0  0  0  0
    9.7406  -18.9775   27.9931 C   0  0  0  0  0  0  0  0  0  0  0  0
    8.6760  -19.4062   28.4642 O   0  0  0  0  0  0  0  0  0  0  0  0
    9.9478  -18.4586   26.6233 C   0  0  0  0  0  0  0  0  0  0  0  0
   11.3491  -17.9075   26.4860 C   0  0  2  0  0  0  0  0  0  0  0  0
   11.5982  -17.3549   25.1716 N   0  0  0  0  0  0  0  0  0  0  0  0
   12.3342  -18.9292   26.8650 C   0  0  0  0  0  0  0  0  0  0  0  0
   13.0360  -19.6524   25.9242 O   0  0  0  0  0  0  0  0  0  0  0  0
   12.5484  -19.1559   28.0742 O   0  0  0  0  0  0  0  0  0  0  0  0
  2  1  1  6
  3  2  1  0
  4  5  2  0
  4  3  1  0
  6  5  1  0
  7  6  2  0
  8  7  1  0
  8  9  2  0
  9  4  1  0
 10  2  1  0
 11 10  2  0
 13 12  1  0
 14 15  1  0
 14 13  1  6
 15 10  1  0
 16 14  1  0
 17 16  2  0
 19 21  1  0
 19 18  1  0
 20 19  2  0
 22 21  1  6
 22 24  1  0
 22 23  1  0
 23 16  1  0
 24 25  1  0
 26 24  2  0
M  END
$$$$
