FSN.pdb
     RDKit          3D

 26 26  0  0  1  0  0  0  0  0999 V2000
    6.1501  -17.3221   25.8228 N   0  0  0  0  0  0  0  0  0  0  0  0
    6.8446  -16.2082   25.2535 C   0  0  1  0  0  0  0  0  0  0  0  0
    7.5788  -15.4744   26.3505 C   0  0  0  0  0  0  0  0  0  0  0  0
    7.0321  -14.0990   26.4518 C   0  0  0  0  0  0  0  0  0  0  0  0
    6.5957  -13.3857   25.3409 C   0  0  0  0  0  0  0  0  0  0  0  0
    6.0925  -12.1116   25.4579 C   0  0  0  0  0  0  0  0  0  0  0  0
    6.0021  -11.4893   26.6971 C   0  0  0  0  0  0  0  0  0  0  0  0
    6.4275  -12.1808   27.7927 C   0  0  0  0  0  0  0  0  0  0  0  0
    6.9331  -13.4608   27.6753 C   0  0  0  0  0  0  0  0  0  0  0  0
    7.7658  -16.5986   24.1453 C   0  0  0  0  0  0  0  0  0  0  0  0
    8.5933  -17.4981   24.3364 O   0  0  0  0  0  0  0  0  0  0  0  0
    8.9231  -14.3980   20.1194 O   0  0  0  0  0  0  0  0  0  0  0  0
    8.2945  -15.5683   20.5063 C   0  0  0  0  0  0  0  0  0  0  0  0
    8.7377  -16.0615   21.8646 C   0  0  2  0  0  0  0  0  0  0  0  0
    7.7299  -15.9723   22.8676 N   0  0  0  0  0  0  0  0  0  0  0  0
    9.9947  -15.3500   22.2128 C   0  0  0  0  0  0  0  0  0  0  0  0
    9.9175  -14.2742   22.8539 O   0  0  0  0  0  0  0  0  0  0  0  0
   13.3011  -19.2066   24.2999 N   0  0  0  0  0  0  0  0  0  0  0  0
   12.7134  -17.9270   24.6108 C   0  0  0  0  0  0  0  0  0  0  0  0
   13.0905  -17.3301   25.6310 O   0  0  0  0  0  0  0  0  0  0  0  0
   11.6950  -17.4578   23.6459 C   0  0  0  0  0  0  0  0  0  0  0  0
   12.2526  -16.3228   22.8171 C   0  0  2  0  0  0  0  0  0  0  0  0
   11.2897  -15.8090   21.8665 N   0  0  0  0  0  0  0  0  0  0  0  0
   13.5116  -16.7322   22.1804 C   0  0  0  0  0  0  0  0  0  0  0  0
   13.5555  -17.7101   21.2097 O   0  0  0  0  0  0  0  0  0  0  0  0
   14.5793  -16.1826   22.5232 O   0  0  0  0  0  0  0  0  0  0  0  0
  2  1  1  1
  3  2  1  0
  4  5  2  0
  4  3  1  0
  6  5  1  0
  7  6  2  0
  8  7  1  0
  8  9  2  0
  9  4  1  0
 10  2  1  0
 11 10  2  0
 13 12  1  0
 14 15  1  0
 14 13  1  6
 15 10  1  0
 16 14  1  0
 17 16  2  0
 19 21  1  0
 19 18  1  0
 20 19  2  0
 22 21  1  6
 22 24  1  0
 22 23  1  0
 23 16  1  0
 24 25  1  0
 26 24  2  0
M  END
$$$$
