FSN.pdb
     RDKit          3D

 26 26  0  0  1  0  0  0  0  0999 V2000
    6.3384  -16.4098   25.3039 N   0  0  0  0  0  0  0  0  0  0  0  0
    7.4475  -15.6236   24.8579 C   0  0  1  0  0  0  0  0  0  0  0  0
    8.0039  -14.8498   26.0296 C   0  0  0  0  0  0  0  0  0  0  0  0
    7.2624  -13.5707   26.1507 C   0  0  0  0  0  0  0  0  0  0  0  0
    7.5933  -12.4430   25.4075 C   0  0  0  0  0  0  0  0  0  0  0  0
    6.8923  -11.2674   25.5358 C   0  0  0  0  0  0  0  0  0  0  0  0
    5.8230  -11.1648   26.4175 C   0  0  0  0  0  0  0  0  0  0  0  0
    5.4908  -12.2653   27.1509 C   0  0  0  0  0  0  0  0  0  0  0  0
    6.1950  -13.4466   27.0220 C   0  0  0  0  0  0  0  0  0  0  0  0
    8.5058  -16.4346   24.1861 C   0  0  0  0  0  0  0  0  0  0  0  0
    8.8672  -17.5003   24.6998 O   0  0  0  0  0  0  0  0  0  0  0  0
   10.6920  -14.8864   20.7743 O   0  0  0  0  0  0  0  0  0  0  0  0
   10.4291  -16.2395   20.8948 C   0  0  0  0  0  0  0  0  0  0  0  0
   10.2115  -16.6791   22.3245 C   0  0  2  0  0  0  0  0  0  0  0  0
    9.1206  -16.0274   22.9685 N   0  0  0  0  0  0  0  0  0  0  0  0
   11.5048  -16.5330   23.0412 C   0  0  0  0  0  0  0  0  0  0  0  0
   11.6888  -15.5106   23.7447 O   0  0  0  0  0  0  0  0  0  0  0  0
   16.1147  -18.6187   25.6673 N   0  0  0  0  0  0  0  0  0  0  0  0
   15.9663  -18.3610   24.2563 C   0  0  0  0  0  0  0  0  0  0  0  0
   16.9506  -17.9587   23.6171 O   0  0  0  0  0  0  0  0  0  0  0  0
   14.6129  -18.6144   23.7153 C   0  0  0  0  0  0  0  0  0  0  0  0
   13.8339  -17.3205   23.6450 C   0  0  2  0  0  0  0  0  0  0  0  0
   12.5564  -17.4808   22.9838 N   0  0  0  0  0  0  0  0  0  0  0  0
   14.6568  -16.2669   23.0359 C   0  0  0  0  0  0  0  0  0  0  0  0
   14.4559  -15.8398   21.7406 O   0  0  0  0  0  0  0  0  0  0  0  0
   15.5683  -15.7368   23.7049 O   0  0  0  0  0  0  0  0  0  0  0  0
  2  1  1  1
  3  2  1  0
  4  5  2  0
  4  3  1  0
  6  5  1  0
  7  6  2  0
  8  7  1  0
  8  9  2  0
  9  4  1  0
 10  2  1  0
 11 10  2  0
 13 12  1  0
 14 15  1  0
 14 13  1  6
 15 10  1  0
 16 14  1  0
 17 16  2  0
 19 21  1  0
 19 18  1  0
 20 19  2  0
 22 21  1  6
 22 24  1  0
 22 23  1  0
 23 16  1  0
 24 25  1  0
 26 24  2  0
M  END
$$$$
