FSN.pdb
     RDKit          3D

 26 26  0  0  1  0  0  0  0  0999 V2000
   10.4201  -17.1064   19.2468 N   0  0  0  0  0  0  0  0  0  0  0  0
    9.8389  -16.1721   20.1614 C   0  0  1  0  0  0  0  0  0  0  0  0
    8.3344  -16.2518   20.0552 C   0  0  0  0  0  0  0  0  0  0  0  0
    7.7720  -14.8901   20.2293 C   0  0  0  0  0  0  0  0  0  0  0  0
    7.2963  -14.4299   21.4521 C   0  0  0  0  0  0  0  0  0  0  0  0
    6.7790  -13.1637   21.5908 C   0  0  0  0  0  0  0  0  0  0  0  0
    6.7132  -12.2954   20.5078 C   0  0  0  0  0  0  0  0  0  0  0  0
    7.1772  -12.7376   19.3042 C   0  0  0  0  0  0  0  0  0  0  0  0
    7.6971  -14.0096   19.1647 C   0  0  0  0  0  0  0  0  0  0  0  0
   10.2989  -16.3683   21.5682 C   0  0  0  0  0  0  0  0  0  0  0  0
   11.0849  -17.2888   21.8236 O   0  0  0  0  0  0  0  0  0  0  0  0
    8.3820  -15.2969   25.1246 O   0  0  0  0  0  0  0  0  0  0  0  0
    9.6261  -14.7184   24.9460 C   0  0  0  0  0  0  0  0  0  0  0  0
   10.4743  -15.4345   23.9201 C   0  0  2  0  0  0  0  0  0  0  0  0
    9.8659  -15.5322   22.6356 N   0  0  0  0  0  0  0  0  0  0  0  0
   10.8678  -16.7453   24.4984 C   0  0  0  0  0  0  0  0  0  0  0  0
   10.1150  -17.7322   24.3152 O   0  0  0  0  0  0  0  0  0  0  0  0
   14.3729  -18.2869   23.3665 N   0  0  0  0  0  0  0  0  0  0  0  0
   14.5588  -17.6736   24.6584 C   0  0  0  0  0  0  0  0  0  0  0  0
   15.1875  -16.6062   24.7265 O   0  0  0  0  0  0  0  0  0  0  0  0
   13.9587  -18.4121   25.7911 C   0  0  0  0  0  0  0  0  0  0  0  0
   12.4561  -18.2437   25.7796 C   0  0  2  0  0  0  0  0  0  0  0  0
   12.0489  -16.9593   25.2512 N   0  0  0  0  0  0  0  0  0  0  0  0
   11.9076  -18.5037   27.1173 C   0  0  0  0  0  0  0  0  0  0  0  0
   12.0740  -19.7160   27.7525 O   0  0  0  0  0  0  0  0  0  0  0  0
   11.2698  -17.6046   27.7041 O   0  0  0  0  0  0  0  0  0  0  0  0
  2  1  1  6
  3  2  1  0
  4  5  2  0
  4  3  1  0
  6  5  1  0
  7  6  2  0
  8  7  1  0
  8  9  2  0
  9  4  1  0
 10  2  1  0
 11 10  2  0
 13 12  1  0
 14 15  1  0
 14 13  1  1
 15 10  1  0
 16 14  1  0
 17 16  2  0
 19 21  1  0
 19 18  1  0
 20 19  2  0
 22 21  1  1
 22 24  1  0
 22 23  1  0
 23 16  1  0
 24 25  1  0
 26 24  2  0
M  END
$$$$
