FSN.pdb
     RDKit          3D

 26 26  0  0  1  0  0  0  0  0999 V2000
    6.5706  -16.8959   25.8743 N   0  0  0  0  0  0  0  0  0  0  0  0
    7.1118  -15.9157   24.9835 C   0  0  1  0  0  0  0  0  0  0  0  0
    8.0656  -15.0295   25.7489 C   0  0  0  0  0  0  0  0  0  0  0  0
    7.3823  -13.7495   26.0580 C   0  0  0  0  0  0  0  0  0  0  0  0
    7.5163  -12.6200   25.2582 C   0  0  0  0  0  0  0  0  0  0  0  0
    6.8737  -11.4436   25.5636 C   0  0  0  0  0  0  0  0  0  0  0  0
    6.0638  -11.3421   26.6883 C   0  0  0  0  0  0  0  0  0  0  0  0
    5.9261  -12.4445   27.4790 C   0  0  0  0  0  0  0  0  0  0  0  0
    6.5716  -13.6265   27.1723 C   0  0  0  0  0  0  0  0  0  0  0  0
    7.7664  -16.5153   23.7830 C   0  0  0  0  0  0  0  0  0  0  0  0
    8.4596  -17.5311   23.9174 O   0  0  0  0  0  0  0  0  0  0  0  0
    7.9201  -14.6008   19.7630 O   0  0  0  0  0  0  0  0  0  0  0  0
    7.6189  -15.9268   20.0189 C   0  0  0  0  0  0  0  0  0  0  0  0
    8.2457  -16.4448   21.2931 C   0  0  2  0  0  0  0  0  0  0  0  0
    7.6239  -15.9607   22.4799 N   0  0  0  0  0  0  0  0  0  0  0  0
    9.7032  -16.1650   21.2229 C   0  0  0  0  0  0  0  0  0  0  0  0
   10.0815  -15.0708   20.7394 O   0  0  0  0  0  0  0  0  0  0  0  0
   14.1496  -14.2787   20.1473 N   0  0  0  0  0  0  0  0  0  0  0  0
   13.0214  -15.1742   20.2159 C   0  0  0  0  0  0  0  0  0  0  0  0
   12.6946  -15.8005   19.1960 O   0  0  0  0  0  0  0  0  0  0  0  0
   12.3617  -15.2454   21.5381 C   0  0  0  0  0  0  0  0  0  0  0  0
   12.0859  -16.6871   21.9010 C   0  0  2  0  0  0  0  0  0  0  0  0
   10.7065  -17.0599   21.6702 N   0  0  0  0  0  0  0  0  0  0  0  0
   12.5202  -16.9541   23.2787 C   0  0  0  0  0  0  0  0  0  0  0  0
   13.8402  -16.8490   23.6622 O   0  0  0  0  0  0  0  0  0  0  0  0
   11.6742  -17.2869   24.1349 O   0  0  0  0  0  0  0  0  0  0  0  0
  2  1  1  1
  3  2  1  0
  4  5  2  0
  4  3  1  0
  6  5  1  0
  7  6  2  0
  8  7  1  0
  8  9  2  0
  9  4  1  0
 10  2  1  0
 11 10  2  0
 13 12  1  0
 14 15  1  0
 14 13  1  6
 15 10  1  0
 16 14  1  0
 17 16  2  0
 19 21  1  0
 19 18  1  0
 20 19  2  0
 22 21  1  1
 22 24  1  0
 22 23  1  0
 23 16  1  0
 24 25  1  0
 26 24  2  0
M  END
$$$$
