FSN.pdb
     RDKit          3D

 26 26  0  0  1  0  0  0  0  0999 V2000
    5.9236  -16.3112   25.5662 N   0  0  0  0  0  0  0  0  0  0  0  0
    6.5676  -16.1181   24.3032 C   0  0  1  0  0  0  0  0  0  0  0  0
    6.3339  -14.6982   23.8446 C   0  0  0  0  0  0  0  0  0  0  0  0
    6.7535  -13.7734   24.9260 C   0  0  0  0  0  0  0  0  0  0  0  0
    5.8613  -13.2724   25.8675 C   0  0  0  0  0  0  0  0  0  0  0  0
    6.2721  -12.4161   26.8615 C   0  0  0  0  0  0  0  0  0  0  0  0
    7.6003  -12.0194   26.9602 C   0  0  0  0  0  0  0  0  0  0  0  0
    8.4829  -12.5054   26.0414 C   0  0  0  0  0  0  0  0  0  0  0  0
    8.0704  -13.3658   25.0427 C   0  0  0  0  0  0  0  0  0  0  0  0
    8.0228  -16.4508   24.3325 C   0  0  0  0  0  0  0  0  0  0  0  0
    8.5092  -16.9428   25.3579 O   0  0  0  0  0  0  0  0  0  0  0  0
   12.1413  -16.7947   21.6214 O   0  0  0  0  0  0  0  0  0  0  0  0
   10.9447  -16.1506   21.8819 C   0  0  0  0  0  0  0  0  0  0  0  0
   10.2027  -16.7280   23.0654 C   0  0  2  0  0  0  0  0  0  0  0  0
    8.8796  -16.2227   23.2189 N   0  0  0  0  0  0  0  0  0  0  0  0
   11.0583  -16.5429   24.2659 C   0  0  0  0  0  0  0  0  0  0  0  0
   11.1094  -15.4074   24.7970 O   0  0  0  0  0  0  0  0  0  0  0  0
    9.8529  -16.8940   28.0523 N   0  0  0  0  0  0  0  0  0  0  0  0
   11.2926  -16.9602   28.1033 C   0  0  0  0  0  0  0  0  0  0  0  0
   11.9018  -16.1457   28.8138 O   0  0  0  0  0  0  0  0  0  0  0  0
   11.8972  -18.0266   27.2754 C   0  0  0  0  0  0  0  0  0  0  0  0
   12.5934  -17.4195   26.0783 C   0  0  2  0  0  0  0  0  0  0  0  0
   11.8291  -17.5734   24.8589 N   0  0  0  0  0  0  0  0  0  0  0  0
   13.9570  -17.9533   25.9614 C   0  0  0  0  0  0  0  0  0  0  0  0
   14.3687  -18.6711   24.8588 O   0  0  0  0  0  0  0  0  0  0  0  0
   14.7744  -17.7552   26.8845 O   0  0  0  0  0  0  0  0  0  0  0  0
  2  1  1  1
  3  2  1  0
  4  5  2  0
  4  3  1  0
  6  5  1  0
  7  6  2  0
  8  7  1  0
  8  9  2  0
  9  4  1  0
 10  2  1  0
 11 10  2  0
 13 12  1  0
 14 15  1  0
 14 13  1  6
 15 10  1  0
 16 14  1  0
 17 16  2  0
 19 21  1  0
 19 18  1  0
 20 19  2  0
 22 21  1  1
 22 24  1  0
 22 23  1  0
 23 16  1  0
 24 25  1  0
 26 24  2  0
M  END
$$$$
