FSN.pdb
     RDKit          3D

 26 26  0  0  1  0  0  0  0  0999 V2000
    7.3455  -17.4232   20.6170 N   0  0  0  0  0  0  0  0  0  0  0  0
    8.1352  -16.6119   21.4918 C   0  0  1  0  0  0  0  0  0  0  0  0
    7.2497  -15.5633   22.1220 C   0  0  0  0  0  0  0  0  0  0  0  0
    7.3124  -14.3303   21.2995 C   0  0  0  0  0  0  0  0  0  0  0  0
    6.7444  -14.2484   20.0330 C   0  0  0  0  0  0  0  0  0  0  0  0
    6.8145  -13.0952   19.2878 C   0  0  0  0  0  0  0  0  0  0  0  0
    7.4590  -11.9655   19.7771 C   0  0  0  0  0  0  0  0  0  0  0  0
    8.0192  -12.0359   21.0183 C   0  0  0  0  0  0  0  0  0  0  0  0
    7.9489  -13.1944   21.7672 C   0  0  0  0  0  0  0  0  0  0  0  0
    8.8638  -17.4055   22.5255 C   0  0  0  0  0  0  0  0  0  0  0  0
    8.2407  -18.2333   23.2014 O   0  0  0  0  0  0  0  0  0  0  0  0
   12.8277  -16.2765   23.7686 O   0  0  0  0  0  0  0  0  0  0  0  0
   12.4890  -17.6177   23.7364 C   0  0  0  0  0  0  0  0  0  0  0  0
   10.9990  -17.8579   23.8182 C   0  0  2  0  0  0  0  0  0  0  0  0
   10.2577  -17.2465   22.7664 N   0  0  0  0  0  0  0  0  0  0  0  0
   10.5531  -17.4569   25.1776 C   0  0  0  0  0  0  0  0  0  0  0  0
    9.8029  -16.4578   25.2926 O   0  0  0  0  0  0  0  0  0  0  0  0
    6.6994  -19.3447   27.6568 N   0  0  0  0  0  0  0  0  0  0  0  0
    7.9739  -20.0174   27.7092 C   0  0  0  0  0  0  0  0  0  0  0  0
    8.1517  -20.8909   28.5722 O   0  0  0  0  0  0  0  0  0  0  0  0
    8.9549  -19.5740   26.6946 C   0  0  0  0  0  0  0  0  0  0  0  0
    9.9778  -18.6595   27.3298 C   0  0  2  0  0  0  0  0  0  0  0  0
   10.9215  -18.1339   26.3665 N   0  0  0  0  0  0  0  0  0  0  0  0
   10.6368  -19.3400   28.4527 C   0  0  0  0  0  0  0  0  0  0  0  0
   11.9432  -19.7740   28.3790 O   0  0  0  0  0  0  0  0  0  0  0  0
   10.0012  -19.5351   29.5098 O   0  0  0  0  0  0  0  0  0  0  0  0
  2  1  1  1
  3  2  1  0
  4  5  2  0
  4  3  1  0
  6  5  1  0
  7  6  2  0
  8  7  1  0
  8  9  2  0
  9  4  1  0
 10  2  1  0
 11 10  2  0
 13 12  1  0
 14 15  1  0
 14 13  1  6
 15 10  1  0
 16 14  1  0
 17 16  2  0
 19 21  1  0
 19 18  1  0
 20 19  2  0
 22 21  1  6
 22 24  1  0
 22 23  1  0
 23 16  1  0
 24 25  1  0
 26 24  2  0
M  END
$$$$
