FSN.pdb
     RDKit          3D

 26 26  0  0  1  0  0  0  0  0999 V2000
    6.4596  -16.0272   24.5216 N   0  0  0  0  0  0  0  0  0  0  0  0
    7.3653  -15.3543   23.6417 C   0  0  1  0  0  0  0  0  0  0  0  0
    6.8872  -13.9367   23.4350 C   0  0  0  0  0  0  0  0  0  0  0  0
    6.9764  -13.2111   24.7259 C   0  0  0  0  0  0  0  0  0  0  0  0
    8.0281  -12.3534   25.0288 C   0  0  0  0  0  0  0  0  0  0  0  0
    8.0907  -11.6910   26.2319 C   0  0  0  0  0  0  0  0  0  0  0  0
    7.0998  -11.8567   27.1920 C   0  0  0  0  0  0  0  0  0  0  0  0
    6.0642  -12.6959   26.9043 C   0  0  0  0  0  0  0  0  0  0  0  0
    6.0011  -13.3614   25.6956 C   0  0  0  0  0  0  0  0  0  0  0  0
    8.7793  -15.3904   24.1195 C   0  0  0  0  0  0  0  0  0  0  0  0
    9.6639  -14.8714   23.4277 O   0  0  0  0  0  0  0  0  0  0  0  0
    9.7322  -17.3894   27.7774 O   0  0  0  0  0  0  0  0  0  0  0  0
   10.5837  -16.4035   27.3113 C   0  0  0  0  0  0  0  0  0  0  0  0
   10.4856  -16.1886   25.8183 C   0  0  2  0  0  0  0  0  0  0  0  0
    9.1534  -16.0028   25.3487 N   0  0  0  0  0  0  0  0  0  0  0  0
   11.2045  -17.3071   25.1552 C   0  0  0  0  0  0  0  0  0  0  0  0
   10.5772  -18.3679   24.9198 O   0  0  0  0  0  0  0  0  0  0  0  0
   14.9960  -15.8008   22.3023 N   0  0  0  0  0  0  0  0  0  0  0  0
   14.1067  -16.9307   22.4116 C   0  0  0  0  0  0  0  0  0  0  0  0
   13.1051  -16.9736   21.6807 O   0  0  0  0  0  0  0  0  0  0  0  0
   14.5041  -17.9419   23.4156 C   0  0  0  0  0  0  0  0  0  0  0  0
   13.2974  -18.3778   24.2156 C   0  0  2  0  0  0  0  0  0  0  0  0
   12.5659  -17.2566   24.7658 N   0  0  0  0  0  0  0  0  0  0  0  0
   13.6951  -19.3510   25.2416 C   0  0  0  0  0  0  0  0  0  0  0  0
   13.4059  -19.1649   26.5766 O   0  0  0  0  0  0  0  0  0  0  0  0
   14.3143  -20.3811   24.9026 O   0  0  0  0  0  0  0  0  0  0  0  0
  2  1  1  1
  3  2  1  0
  4  5  2  0
  4  3  1  0
  6  5  1  0
  7  6  2  0
  8  7  1  0
  8  9  2  0
  9  4  1  0
 10  2  1  0
 11 10  2  0
 13 12  1  0
 14 15  1  0
 14 13  1  1
 15 10  1  0
 16 14  1  0
 17 16  2  0
 19 21  1  0
 19 18  1  0
 20 19  2  0
 22 21  1  1
 22 24  1  0
 22 23  1  0
 23 16  1  0
 24 25  1  0
 26 24  2  0
M  END
$$$$
