FSN.pdb
     RDKit          3D

 26 26  0  0  1  0  0  0  0  0999 V2000
    6.5093  -16.2506   26.0452 N   0  0  0  0  0  0  0  0  0  0  0  0
    7.0625  -15.4507   24.9957 C   0  0  1  0  0  0  0  0  0  0  0  0
    7.9871  -14.4200   25.5989 C   0  0  0  0  0  0  0  0  0  0  0  0
    7.1686  -13.3238   26.1725 C   0  0  0  0  0  0  0  0  0  0  0  0
    7.3567  -12.8504   27.4664 C   0  0  0  0  0  0  0  0  0  0  0  0
    6.5863  -11.8332   27.9779 C   0  0  0  0  0  0  0  0  0  0  0  0
    5.5875  -11.2395   27.2155 C   0  0  0  0  0  0  0  0  0  0  0  0
    5.3954  -11.6969   25.9453 C   0  0  0  0  0  0  0  0  0  0  0  0
    6.1693  -12.7189   25.4312 C   0  0  0  0  0  0  0  0  0  0  0  0
    7.7537  -16.2587   23.9477 C   0  0  0  0  0  0  0  0  0  0  0  0
    8.2469  -17.3509   24.2547 O   0  0  0  0  0  0  0  0  0  0  0  0
    8.6031  -14.2977   20.3131 O   0  0  0  0  0  0  0  0  0  0  0  0
    8.6538  -15.6797   20.2701 C   0  0  0  0  0  0  0  0  0  0  0  0
    8.7948  -16.3133   21.6351 C   0  0  2  0  0  0  0  0  0  0  0  0
    7.8690  -15.8193   22.5987 N   0  0  0  0  0  0  0  0  0  0  0  0
   10.2163  -16.1817   22.0470 C   0  0  0  0  0  0  0  0  0  0  0  0
   10.5976  -15.0969   22.5489 O   0  0  0  0  0  0  0  0  0  0  0  0
   11.5715  -19.9494   23.8260 N   0  0  0  0  0  0  0  0  0  0  0  0
   12.4664  -18.8329   24.0054 C   0  0  0  0  0  0  0  0  0  0  0  0
   12.5876  -18.3423   25.1384 O   0  0  0  0  0  0  0  0  0  0  0  0
   13.1598  -18.3864   22.7773 C   0  0  0  0  0  0  0  0  0  0  0  0
   12.5702  -17.0795   22.2972 C   0  0  2  0  0  0  0  0  0  0  0  0
   11.1816  -17.2098   21.9102 N   0  0  0  0  0  0  0  0  0  0  0  0
   13.4032  -16.5106   21.2292 C   0  0  0  0  0  0  0  0  0  0  0  0
   12.9120  -16.2853   19.9609 O   0  0  0  0  0  0  0  0  0  0  0  0
   14.5936  -16.2193   21.4692 O   0  0  0  0  0  0  0  0  0  0  0  0
  2  1  1  1
  3  2  1  0
  4  5  2  0
  4  3  1  0
  6  5  1  0
  7  6  2  0
  8  7  1  0
  8  9  2  0
  9  4  1  0
 10  2  1  0
 11 10  2  0
 13 12  1  0
 14 15  1  0
 14 13  1  6
 15 10  1  0
 16 14  1  0
 17 16  2  0
 19 21  1  0
 19 18  1  0
 20 19  2  0
 22 21  1  6
 22 24  1  0
 22 23  1  0
 23 16  1  0
 24 25  1  0
 26 24  2  0
M  END
$$$$
