CYA.pdb
     RDKit          3D

 24 24  0  0  1  0  0  0  0  0999 V2000
    8.4452  -12.7823   18.0423 N   0  0  0  0  0  0  0  0  0  0  0  0
    7.9403  -13.8940   18.7982 C   0  0  1  0  0  0  0  0  0  0  0  0
    8.5447  -15.1845   18.2649 C   0  0  0  0  0  0  0  0  0  0  0  0
    7.9212  -16.5855   19.2308 S   0  0  0  0  0  0  0  0  0  0  0  0
    8.2722  -13.7587   20.2405 C   0  0  0  0  0  0  0  0  0  0  0  0
    9.3514  -13.2055   20.5722 O   0  0  0  0  0  0  0  0  0  0  0  0
    7.0196  -12.5582   28.8792 O   0  0  0  0  0  0  0  0  0  0  0  0
    6.8833  -12.8452   27.5263 C   0  0  0  0  0  0  0  0  0  0  0  0
    6.3012  -14.0174   27.1334 C   0  0  0  0  0  0  0  0  0  0  0  0
    6.1732  -14.2879   25.7680 C   0  0  0  0  0  0  0  0  0  0  0  0
    6.6297  -13.3812   24.8429 C   0  0  0  0  0  0  0  0  0  0  0  0
    6.5359  -13.6711   23.4110 C   0  0  0  0  0  0  0  0  0  0  0  0
    7.8041  -13.9715   22.6977 C   0  0  2  0  0  0  0  0  0  0  0  0
    7.4284  -14.2248   21.2769 N   0  0  0  0  0  0  0  0  0  0  0  0
    8.6172  -15.0813   23.1918 C   0  0  0  0  0  0  0  0  0  0  0  0
    8.9679  -15.1530   24.4328 O   0  0  0  0  0  0  0  0  0  0  0  0
    7.2095  -12.2129   25.2714 C   0  0  0  0  0  0  0  0  0  0  0  0
    7.3461  -11.9254   26.6134 C   0  0  0  0  0  0  0  0  0  0  0  0
   10.0431  -18.3460   21.9109 C   0  0  0  0  0  0  0  0  0  0  0  0
    9.8907  -17.2263   22.9159 C   0  0  2  0  0  0  0  0  0  0  0  0
    9.0782  -16.1457   22.4041 N   0  0  0  0  0  0  0  0  0  0  0  0
   11.2077  -16.8562   23.4149 C   0  0  0  0  0  0  0  0  0  0  0  0
   11.9873  -17.6993   23.8896 O   0  0  0  0  0  0  0  0  0  0  0  0
   11.6043  -15.5322   23.3607 O   0  0  0  0  0  0  0  0  0  0  0  0
  2  1  1  6
  2  3  1  0
  3  4  1  0
  5  6  2  0
  5  2  1  0
  7  8  1  0
  8 18  2  0
  9 10  2  0
  9  8  1  0
 10 11  1  0
 11 12  1  0
 11 17  2  0
 13 14  1  0
 13 12  1  1
 14  5  1  0
 15 13  1  0
 16 15  2  0
 18 17  1  0
 20 19  1  6
 20 21  1  0
 21 15  1  0
 22 24  1  0
 22 20  1  0
 23 22  2  0
M  END
$$$$
