CYA.pdb
     RDKit          3D

 24 24  0  0  1  0  0  0  0  0999 V2000
   10.7039  -16.7863   18.6557 N   0  0  0  0  0  0  0  0  0  0  0  0
    9.7340  -17.2749   19.5953 C   0  0  1  0  0  0  0  0  0  0  0  0
   10.0462  -18.7243   19.9371 C   0  0  0  0  0  0  0  0  0  0  0  0
    9.6970  -19.7707   18.4992 S   0  0  0  0  0  0  0  0  0  0  0  0
    9.7393  -16.4669   20.8427 C   0  0  0  0  0  0  0  0  0  0  0  0
   10.8306  -16.0211   21.2800 O   0  0  0  0  0  0  0  0  0  0  0  0
    6.4612  -11.9378   27.8060 O   0  0  0  0  0  0  0  0  0  0  0  0
    6.7145  -12.6027   26.6122 C   0  0  0  0  0  0  0  0  0  0  0  0
    7.5448  -12.0423   25.6828 C   0  0  0  0  0  0  0  0  0  0  0  0
    7.7870  -12.7266   24.4882 C   0  0  0  0  0  0  0  0  0  0  0  0
    7.1936  -13.9444   24.2622 C   0  0  0  0  0  0  0  0  0  0  0  0
    7.4095  -14.6520   22.9989 C   0  0  0  0  0  0  0  0  0  0  0  0
    8.6775  -15.4135   22.8588 C   0  0  2  0  0  0  0  0  0  0  0  0
    8.5669  -16.1670   21.5767 N   0  0  0  0  0  0  0  0  0  0  0  0
    9.0420  -16.3337   23.9347 C   0  0  0  0  0  0  0  0  0  0  0  0
    8.3447  -17.3946   24.1725 O   0  0  0  0  0  0  0  0  0  0  0  0
    6.3648  -14.4794   25.2170 C   0  0  0  0  0  0  0  0  0  0  0  0
    6.1116  -13.8218   26.4027 C   0  0  0  0  0  0  0  0  0  0  0  0
   12.0320  -17.3698   25.7959 C   0  0  0  0  0  0  0  0  0  0  0  0
   10.5370  -17.1422   25.7813 C   0  0  2  0  0  0  0  0  0  0  0  0
   10.1462  -16.1721   24.7835 N   0  0  0  0  0  0  0  0  0  0  0  0
   10.0852  -16.8801   27.1406 C   0  0  0  0  0  0  0  0  0  0  0  0
   10.3218  -17.6686   28.0714 O   0  0  0  0  0  0  0  0  0  0  0  0
    9.3738  -15.7241   27.4061 O   0  0  0  0  0  0  0  0  0  0  0  0
  2  1  1  6
  2  3  1  0
  3  4  1  0
  5  6  2  0
  5  2  1  0
  7  8  1  0
  8 18  2  0
  9 10  2  0
  9  8  1  0
 10 11  1  0
 11 12  1  0
 11 17  2  0
 13 14  1  0
 13 12  1  1
 14  5  1  0
 15 13  1  0
 16 15  2  0
 18 17  1  0
 20 19  1  1
 20 21  1  0
 21 15  1  0
 22 24  1  0
 22 20  1  0
 23 22  2  0
M  END
$$$$
