CYA.pdb
     RDKit          3D

 24 24  0  0  1  0  0  0  0  0999 V2000
    9.7893  -16.7441   18.1706 N   0  0  0  0  0  0  0  0  0  0  0  0
    8.9328  -17.2360   19.2130 C   0  0  1  0  0  0  0  0  0  0  0  0
    9.2280  -18.7085   19.4576 C   0  0  0  0  0  0  0  0  0  0  0  0
    8.1353  -19.3332   20.7615 S   0  0  0  0  0  0  0  0  0  0  0  0
    9.1357  -16.4808   20.4769 C   0  0  0  0  0  0  0  0  0  0  0  0
   10.3063  -16.2195   20.8541 O   0  0  0  0  0  0  0  0  0  0  0  0
    7.0352  -11.9228   27.8581 O   0  0  0  0  0  0  0  0  0  0  0  0
    7.0835  -12.5504   26.6190 C   0  0  0  0  0  0  0  0  0  0  0  0
    7.1965  -11.8032   25.4805 C   0  0  0  0  0  0  0  0  0  0  0  0
    7.2434  -12.4528   24.2437 C   0  0  0  0  0  0  0  0  0  0  0  0
    7.1760  -13.8233   24.1853 C   0  0  0  0  0  0  0  0  0  0  0  0
    7.1855  -14.5122   22.8936 C   0  0  0  0  0  0  0  0  0  0  0  0
    8.3690  -15.3561   22.5862 C   0  0  2  0  0  0  0  0  0  0  0  0
    8.0687  -16.0325   21.2916 N   0  0  0  0  0  0  0  0  0  0  0  0
    8.7694  -16.3546   23.5761 C   0  0  0  0  0  0  0  0  0  0  0  0
    8.0485  -17.4030   23.7981 O   0  0  0  0  0  0  0  0  0  0  0  0
    7.0630  -14.5442   25.3481 C   0  0  0  0  0  0  0  0  0  0  0  0
    7.0148  -13.9241   26.5793 C   0  0  0  0  0  0  0  0  0  0  0  0
   11.6769  -17.8470   25.0900 C   0  0  0  0  0  0  0  0  0  0  0  0
   10.2980  -17.2781   25.3394 C   0  0  2  0  0  0  0  0  0  0  0  0
    9.9347  -16.2859   24.3530 N   0  0  0  0  0  0  0  0  0  0  0  0
   10.2028  -16.8618   26.7315 C   0  0  0  0  0  0  0  0  0  0  0  0
    9.8917  -15.7008   27.0466 O   0  0  0  0  0  0  0  0  0  0  0  0
   10.4651  -17.7802   27.7319 O   0  0  0  0  0  0  0  0  0  0  0  0
  2  1  1  6
  2  3  1  0
  3  4  1  0
  5  6  2  0
  5  2  1  0
  7  8  1  0
  8 18  2  0
  9 10  2  0
  9  8  1  0
 10 11  1  0
 11 12  1  0
 11 17  2  0
 13 14  1  0
 13 12  1  1
 14  5  1  0
 15 13  1  0
 16 15  2  0
 18 17  1  0
 20 19  1  6
 20 21  1  0
 21 15  1  0
 22 24  1  0
 22 20  1  0
 23 22  2  0
M  END
$$$$
