CYA.pdb
     RDKit          3D

 24 24  0  0  1  0  0  0  0  0999 V2000
    9.5390  -18.0613   17.5735 N   0  0  0  0  0  0  0  0  0  0  0  0
    9.2099  -18.5971   18.8646 C   0  0  1  0  0  0  0  0  0  0  0  0
    9.7181  -20.0279   18.9630 C   0  0  0  0  0  0  0  0  0  0  0  0
    9.1670  -20.7562   20.5283 S   0  0  0  0  0  0  0  0  0  0  0  0
    9.8165  -17.7874   19.9533 C   0  0  0  0  0  0  0  0  0  0  0  0
   11.0117  -17.4122   19.8457 O   0  0  0  0  0  0  0  0  0  0  0  0
    7.3352  -12.0271   18.3040 O   0  0  0  0  0  0  0  0  0  0  0  0
    7.7127  -12.8694   19.3430 C   0  0  0  0  0  0  0  0  0  0  0  0
    9.0037  -12.8629   19.7909 C   0  0  0  0  0  0  0  0  0  0  0  0
    9.3639  -13.7174   20.8368 C   0  0  0  0  0  0  0  0  0  0  0  0
    8.4254  -14.5477   21.3991 C   0  0  0  0  0  0  0  0  0  0  0  0
    8.8001  -15.4741   22.4689 C   0  0  0  0  0  0  0  0  0  0  0  0
    9.7814  -16.5368   22.1297 C   0  0  2  0  0  0  0  0  0  0  0  0
    9.1131  -17.4094   21.1220 N   0  0  0  0  0  0  0  0  0  0  0  0
   10.2979  -17.3607   23.2213 C   0  0  0  0  0  0  0  0  0  0  0  0
    9.5188  -18.1333   23.9028 O   0  0  0  0  0  0  0  0  0  0  0  0
    7.1370  -14.5292   20.9255 C   0  0  0  0  0  0  0  0  0  0  0  0
    6.7594  -13.6944   19.8945 C   0  0  0  0  0  0  0  0  0  0  0  0
   13.5938  -18.6373   24.4457 C   0  0  0  0  0  0  0  0  0  0  0  0
   12.1389  -18.2824   24.6566 C   0  0  2  0  0  0  0  0  0  0  0  0
   11.6405  -17.4028   23.6234 N   0  0  0  0  0  0  0  0  0  0  0  0
   11.9571  -17.8271   26.0277 C   0  0  0  0  0  0  0  0  0  0  0  0
   12.2398  -18.5488   26.9989 O   0  0  0  0  0  0  0  0  0  0  0  0
   11.4567  -16.5585   26.2587 O   0  0  0  0  0  0  0  0  0  0  0  0
  2  1  1  6
  2  3  1  0
  3  4  1  0
  5  6  2  0
  5  2  1  0
  7  8  1  0
  8 18  2  0
  9 10  2  0
  9  8  1  0
 10 11  1  0
 11 12  1  0
 11 17  2  0
 13 14  1  0
 13 12  1  1
 14  5  1  0
 15 13  1  0
 16 15  2  0
 18 17  1  0
 20 19  1  6
 20 21  1  0
 21 15  1  0
 22 24  1  0
 22 20  1  0
 23 22  2  0
M  END
$$$$
