CYA.pdb
     RDKit          3D

 24 24  0  0  1  0  0  0  0  0999 V2000
    9.8811  -27.8311   28.2516 N   0  0  0  0  0  0  0  0  0  0  0  0
   10.7668  -27.3227   29.2612 C   0  0  1  0  0  0  0  0  0  0  0  0
   12.1915  -27.7565   28.9493 C   0  0  0  0  0  0  0  0  0  0  0  0
   13.2548  -27.4000   30.3729 S   0  0  0  0  0  0  0  0  0  0  0  0
   10.7115  -25.8390   29.3275 C   0  0  0  0  0  0  0  0  0  0  0  0
   10.8100  -25.1735   28.2653 O   0  0  0  0  0  0  0  0  0  0  0  0
    7.7956  -26.1235   35.7016 O   0  0  0  0  0  0  0  0  0  0  0  0
    8.1587  -25.3985   34.5729 C   0  0  0  0  0  0  0  0  0  0  0  0
    7.6194  -25.7138   33.3576 C   0  0  0  0  0  0  0  0  0  0  0  0
    7.9972  -24.9730   32.2340 C   0  0  0  0  0  0  0  0  0  0  0  0
    8.8986  -23.9446   32.3613 C   0  0  0  0  0  0  0  0  0  0  0  0
    9.3307  -23.1870   31.1856 C   0  0  0  0  0  0  0  0  0  0  0  0
   10.5804  -23.6320   30.5165 C   0  0  2  0  0  0  0  0  0  0  0  0
   10.5516  -25.1228   30.5377 N   0  0  0  0  0  0  0  0  0  0  0  0
   11.8513  -23.1616   31.0646 C   0  0  0  0  0  0  0  0  0  0  0  0
   12.1251  -21.9011   31.1323 O   0  0  0  0  0  0  0  0  0  0  0  0
    9.4214  -23.6538   33.5969 C   0  0  0  0  0  0  0  0  0  0  0  0
    9.0630  -24.3716   34.7189 C   0  0  0  0  0  0  0  0  0  0  0  0
   14.0762  -23.0788   33.4862 C   0  0  0  0  0  0  0  0  0  0  0  0
   14.1389  -23.5078   32.0374 C   0  0  2  0  0  0  0  0  0  0  0  0
   12.8640  -23.9948   31.5609 N   0  0  0  0  0  0  0  0  0  0  0  0
   15.2737  -24.4024   31.8577 C   0  0  0  0  0  0  0  0  0  0  0  0
   16.4052  -24.1165   32.2843 O   0  0  0  0  0  0  0  0  0  0  0  0
   15.0909  -25.6027   31.1952 O   0  0  0  0  0  0  0  0  0  0  0  0
  2  1  1  6
  2  3  1  0
  3  4  1  0
  5  6  2  0
  5  2  1  0
  7  8  1  0
  8 18  2  0
  9 10  2  0
  9  8  1  0
 10 11  1  0
 11 12  1  0
 11 17  2  0
 13 14  1  0
 13 12  1  1
 14  5  1  0
 15 13  1  0
 16 15  2  0
 18 17  1  0
 20 19  1  1
 20 21  1  0
 21 15  1  0
 22 24  1  0
 22 20  1  0
 23 22  2  0
M  END
$$$$
