CYA.pdb
     RDKit          3D

 24 24  0  0  1  0  0  0  0  0999 V2000
    9.6963  -16.9154   17.9736 N   0  0  0  0  0  0  0  0  0  0  0  0
    9.0410  -17.5272   19.0953 C   0  0  1  0  0  0  0  0  0  0  0  0
    9.6292  -18.9104   19.3321 C   0  0  0  0  0  0  0  0  0  0  0  0
    8.5382  -20.1613   18.6044 S   0  0  0  0  0  0  0  0  0  0  0  0
    9.2051  -16.7096   20.3255 C   0  0  0  0  0  0  0  0  0  0  0  0
   10.3499  -16.2933   20.6371 O   0  0  0  0  0  0  0  0  0  0  0  0
    7.0821  -11.9373   27.5004 O   0  0  0  0  0  0  0  0  0  0  0  0
    7.0837  -12.6620   26.3145 C   0  0  0  0  0  0  0  0  0  0  0  0
    6.5643  -13.9257   26.2872 C   0  0  0  0  0  0  0  0  0  0  0  0
    6.5751  -14.6385   25.0848 C   0  0  0  0  0  0  0  0  0  0  0  0
    7.1028  -14.0672   23.9529 C   0  0  0  0  0  0  0  0  0  0  0  0
    7.1544  -14.8186   22.6975 C   0  0  0  0  0  0  0  0  0  0  0  0
    8.3961  -15.5856   22.4194 C   0  0  2  0  0  0  0  0  0  0  0  0
    8.1285  -16.3683   21.1786 N   0  0  0  0  0  0  0  0  0  0  0  0
    8.8917  -16.4813   23.4629 C   0  0  0  0  0  0  0  0  0  0  0  0
    8.2778  -17.5816   23.7472 O   0  0  0  0  0  0  0  0  0  0  0  0
    7.6165  -12.7956   24.0147 C   0  0  0  0  0  0  0  0  0  0  0  0
    7.6163  -12.0740   25.1902 C   0  0  0  0  0  0  0  0  0  0  0  0
   12.0031  -17.3851   25.1751 C   0  0  0  0  0  0  0  0  0  0  0  0
   10.5107  -17.1554   25.2583 C   0  0  2  0  0  0  0  0  0  0  0  0
   10.0431  -16.2535   24.2300 N   0  0  0  0  0  0  0  0  0  0  0  0
   10.1622  -16.8016   26.6272 C   0  0  0  0  0  0  0  0  0  0  0  0
    9.5604  -15.7485   26.8970 O   0  0  0  0  0  0  0  0  0  0  0  0
   10.5088  -17.6580   27.6565 O   0  0  0  0  0  0  0  0  0  0  0  0
  2  1  1  6
  2  3  1  0
  3  4  1  0
  5  6  2  0
  5  2  1  0
  7  8  1  0
  8 18  2  0
  9 10  2  0
  9  8  1  0
 10 11  1  0
 11 12  1  0
 11 17  2  0
 13 14  1  0
 13 12  1  1
 14  5  1  0
 15 13  1  0
 16 15  2  0
 18 17  1  0
 20 19  1  1
 20 21  1  0
 21 15  1  0
 22 24  1  0
 22 20  1  0
 23 22  2  0
M  END
$$$$
