CYA.pdb
     RDKit          3D

 24 24  0  0  1  0  0  0  0  0999 V2000
   10.9370  -17.1181   19.5573 N   0  0  0  0  0  0  0  0  0  0  0  0
    9.8086  -17.3894   20.4029 C   0  0  1  0  0  0  0  0  0  0  0  0
    9.9193  -18.8024   20.9565 C   0  0  0  0  0  0  0  0  0  0  0  0
   11.4063  -18.9315   21.9845 S   0  0  0  0  0  0  0  0  0  0  0  0
    9.7393  -16.4263   21.5327 C   0  0  0  0  0  0  0  0  0  0  0  0
   10.7732  -15.7903   21.8607 O   0  0  0  0  0  0  0  0  0  0  0  0
    6.1545  -11.0015   27.5705 O   0  0  0  0  0  0  0  0  0  0  0  0
    6.3866  -11.9209   26.5544 C   0  0  0  0  0  0  0  0  0  0  0  0
    5.9466  -13.2078   26.6861 C   0  0  0  0  0  0  0  0  0  0  0  0
    6.1898  -14.1177   25.6532 C   0  0  0  0  0  0  0  0  0  0  0  0
    6.8625  -13.7130   24.5262 C   0  0  0  0  0  0  0  0  0  0  0  0
    7.1565  -14.6666   23.4551 C   0  0  0  0  0  0  0  0  0  0  0  0
    8.5606  -15.1377   23.3360 C   0  0  2  0  0  0  0  0  0  0  0  0
    8.5568  -16.1814   22.2710 N   0  0  0  0  0  0  0  0  0  0  0  0
    9.2051  -15.6685   24.5359 C   0  0  0  0  0  0  0  0  0  0  0  0
    9.6156  -14.8849   25.4771 O   0  0  0  0  0  0  0  0  0  0  0  0
    7.2909  -12.4126   24.4258 C   0  0  0  0  0  0  0  0  0  0  0  0
    7.0620  -11.4980   25.4326 C   0  0  0  0  0  0  0  0  0  0  0  0
    9.1688  -18.7784   26.4849 C   0  0  0  0  0  0  0  0  0  0  0  0
    9.9204  -17.5420   26.0451 C   0  0  2  0  0  0  0  0  0  0  0  0
    9.4308  -17.0298   24.7851 N   0  0  0  0  0  0  0  0  0  0  0  0
   11.3504  -17.8075   26.1160 C   0  0  0  0  0  0  0  0  0  0  0  0
   12.0893  -17.6764   25.1257 O   0  0  0  0  0  0  0  0  0  0  0  0
   11.9039  -18.2167   27.3157 O   0  0  0  0  0  0  0  0  0  0  0  0
  2  1  1  6
  2  3  1  0
  3  4  1  0
  5  6  2  0
  5  2  1  0
  7  8  1  0
  8 18  2  0
  9 10  2  0
  9  8  1  0
 10 11  1  0
 11 12  1  0
 11 17  2  0
 13 14  1  0
 13 12  1  1
 14  5  1  0
 15 13  1  0
 16 15  2  0
 18 17  1  0
 20 19  1  6
 20 21  1  0
 21 15  1  0
 22 24  1  0
 22 20  1  0
 23 22  2  0
M  END
$$$$
