CYA.pdb
     RDKit          3D

 24 24  0  0  1  0  0  0  0  0999 V2000
    8.1046  -12.5310   19.5084 N   0  0  0  0  0  0  0  0  0  0  0  0
    7.6536  -13.7451   20.1286 C   0  0  1  0  0  0  0  0  0  0  0  0
    7.8760  -14.9119   19.1776 C   0  0  0  0  0  0  0  0  0  0  0  0
    7.2655  -16.4371   19.9427 S   0  0  0  0  0  0  0  0  0  0  0  0
    8.3824  -14.0037   21.3977 C   0  0  0  0  0  0  0  0  0  0  0  0
    9.5176  -13.4908   21.5685 O   0  0  0  0  0  0  0  0  0  0  0  0
    6.0073  -10.5750   27.5971 O   0  0  0  0  0  0  0  0  0  0  0  0
    6.3917  -11.7082   26.8904 C   0  0  0  0  0  0  0  0  0  0  0  0
    5.4549  -12.6325   26.5225 C   0  0  0  0  0  0  0  0  0  0  0  0
    5.8613  -13.7657   25.8123 C   0  0  0  0  0  0  0  0  0  0  0  0
    7.1861  -13.9378   25.4939 C   0  0  0  0  0  0  0  0  0  0  0  0
    7.6287  -15.1392   24.7841 C   0  0  0  0  0  0  0  0  0  0  0  0
    8.6353  -14.9555   23.7069 C   0  0  2  0  0  0  0  0  0  0  0  0
    7.8621  -14.8070   22.4404 N   0  0  0  0  0  0  0  0  0  0  0  0
    9.6504  -15.9939   23.5388 C   0  0  0  0  0  0  0  0  0  0  0  0
   10.3725  -16.3909   24.5334 O   0  0  0  0  0  0  0  0  0  0  0  0
    8.1017  -12.9899   25.8785 C   0  0  0  0  0  0  0  0  0  0  0  0
    7.7232  -11.8642   26.5800 C   0  0  0  0  0  0  0  0  0  0  0  0
   10.7571  -18.4346   20.8678 C   0  0  0  0  0  0  0  0  0  0  0  0
   10.8524  -17.7556   22.2157 C   0  0  2  0  0  0  0  0  0  0  0  0
    9.9318  -16.6472   22.3304 N   0  0  0  0  0  0  0  0  0  0  0  0
   12.2498  -17.4591   22.4982 C   0  0  0  0  0  0  0  0  0  0  0  0
   13.1231  -18.3428   22.4747 O   0  0  0  0  0  0  0  0  0  0  0  0
   12.6183  -16.1608   22.8010 O   0  0  0  0  0  0  0  0  0  0  0  0
  2  1  1  6
  2  3  1  0
  3  4  1  0
  5  6  2  0
  5  2  1  0
  7  8  1  0
  8 18  2  0
  9 10  2  0
  9  8  1  0
 10 11  1  0
 11 12  1  0
 11 17  2  0
 13 14  1  0
 13 12  1  1
 14  5  1  0
 15 13  1  0
 16 15  2  0
 18 17  1  0
 20 19  1  6
 20 21  1  0
 21 15  1  0
 22 24  1  0
 22 20  1  0
 23 22  2  0
M  END
$$$$
