CYA.pdb
     RDKit          3D

 24 24  0  0  1  0  0  0  0  0999 V2000
   11.0651  -17.3952   20.0705 N   0  0  0  0  0  0  0  0  0  0  0  0
    9.9082  -17.6490   20.8825 C   0  0  1  0  0  0  0  0  0  0  0  0
    9.9855  -19.0602   21.4463 C   0  0  0  0  0  0  0  0  0  0  0  0
    8.5260  -19.3797   22.4720 S   0  0  0  0  0  0  0  0  0  0  0  0
    9.8157  -16.6791   22.0049 C   0  0  0  0  0  0  0  0  0  0  0  0
   10.8680  -16.3138   22.5881 O   0  0  0  0  0  0  0  0  0  0  0  0
    6.1952  -10.7046   27.5555 O   0  0  0  0  0  0  0  0  0  0  0  0
    6.5131  -11.5984   26.5399 C   0  0  0  0  0  0  0  0  0  0  0  0
    7.4332  -11.2525   25.5906 C   0  0  0  0  0  0  0  0  0  0  0  0
    7.7393  -12.1651   24.5771 C   0  0  0  0  0  0  0  0  0  0  0  0
    7.1180  -13.3896   24.5454 C   0  0  0  0  0  0  0  0  0  0  0  0
    7.4022  -14.3381   23.4671 C   0  0  0  0  0  0  0  0  0  0  0  0
    8.5884  -15.2168   23.6350 C   0  0  2  0  0  0  0  0  0  0  0  0
    8.5908  -16.1358   22.4606 N   0  0  0  0  0  0  0  0  0  0  0  0
    8.6879  -15.9992   24.8658 C   0  0  0  0  0  0  0  0  0  0  0  0
    9.0515  -15.4528   25.9783 O   0  0  0  0  0  0  0  0  0  0  0  0
    6.1984  -13.7057   25.5145 C   0  0  0  0  0  0  0  0  0  0  0  0
    5.8810  -12.8206   26.5237 C   0  0  0  0  0  0  0  0  0  0  0  0
    7.3362  -19.1829   26.2247 C   0  0  0  0  0  0  0  0  0  0  0  0
    8.3828  -18.0913   26.2181 C   0  0  2  0  0  0  0  0  0  0  0  0
    8.4041  -17.3686   24.9664 N   0  0  0  0  0  0  0  0  0  0  0  0
    9.6536  -18.6519   26.6555 C   0  0  0  0  0  0  0  0  0  0  0  0
   10.6834  -18.5516   25.9676 O   0  0  0  0  0  0  0  0  0  0  0  0
    9.7195  -19.3139   27.8681 O   0  0  0  0  0  0  0  0  0  0  0  0
  2  1  1  1
  2  3  1  0
  3  4  1  0
  5  6  2  0
  5  2  1  0
  7  8  1  0
  8 18  2  0
  9 10  2  0
  9  8  1  0
 10 11  1  0
 11 12  1  0
 11 17  2  0
 13 14  1  0
 13 12  1  1
 14  5  1  0
 15 13  1  0
 16 15  2  0
 18 17  1  0
 20 19  1  6
 20 21  1  0
 21 15  1  0
 22 24  1  0
 22 20  1  0
 23 22  2  0
M  END
$$$$
