CYA.pdb
     RDKit          3D

 24 24  0  0  1  0  0  0  0  0999 V2000
   10.5742  -16.7779   18.6482 N   0  0  0  0  0  0  0  0  0  0  0  0
    9.7078  -17.3677   19.6298 C   0  0  1  0  0  0  0  0  0  0  0  0
   10.1778  -18.7825   19.9346 C   0  0  0  0  0  0  0  0  0  0  0  0
    9.1099  -19.5111   21.2047 S   0  0  0  0  0  0  0  0  0  0  0  0
    9.7002  -16.5743   20.8865 C   0  0  0  0  0  0  0  0  0  0  0  0
   10.7858  -16.1261   21.3355 O   0  0  0  0  0  0  0  0  0  0  0  0
    6.6515  -11.8357   27.7303 O   0  0  0  0  0  0  0  0  0  0  0  0
    6.8028  -12.5746   26.5630 C   0  0  0  0  0  0  0  0  0  0  0  0
    6.2651  -13.8277   26.4749 C   0  0  0  0  0  0  0  0  0  0  0  0
    6.4281  -14.5551   25.2925 C   0  0  0  0  0  0  0  0  0  0  0  0
    7.1208  -14.0083   24.2402 C   0  0  0  0  0  0  0  0  0  0  0  0
    7.3308  -14.7757   23.0112 C   0  0  0  0  0  0  0  0  0  0  0  0
    8.6146  -15.5128   22.8857 C   0  0  2  0  0  0  0  0  0  0  0  0
    8.5214  -16.2907   21.6168 N   0  0  0  0  0  0  0  0  0  0  0  0
    8.9968  -16.4063   23.9778 C   0  0  0  0  0  0  0  0  0  0  0  0
    8.3222  -17.4778   24.2327 O   0  0  0  0  0  0  0  0  0  0  0  0
    7.6483  -12.7467   24.3615 C   0  0  0  0  0  0  0  0  0  0  0  0
    7.4997  -12.0110   25.5188 C   0  0  0  0  0  0  0  0  0  0  0  0
   12.0097  -17.1821   26.0083 C   0  0  0  0  0  0  0  0  0  0  0  0
   10.5073  -17.1520   25.8382 C   0  0  2  0  0  0  0  0  0  0  0  0
   10.0956  -16.2062   24.8255 N   0  0  0  0  0  0  0  0  0  0  0  0
    9.8861  -17.0002   27.1464 C   0  0  0  0  0  0  0  0  0  0  0  0
    9.1405  -16.0414   27.4086 O   0  0  0  0  0  0  0  0  0  0  0  0
   10.1303  -17.9465   28.1253 O   0  0  0  0  0  0  0  0  0  0  0  0
  2  1  1  6
  2  3  1  0
  3  4  1  0
  5  6  2  0
  5  2  1  0
  7  8  1  0
  8 18  2  0
  9 10  2  0
  9  8  1  0
 10 11  1  0
 11 12  1  0
 11 17  2  0
 13 14  1  0
 13 12  1  1
 14  5  1  0
 15 13  1  0
 16 15  2  0
 18 17  1  0
 20 19  1  1
 20 21  1  0
 21 15  1  0
 22 24  1  0
 22 20  1  0
 23 22  2  0
M  END
$$$$
