CYA.pdb
     RDKit          3D

 24 24  0  0  1  0  0  0  0  0999 V2000
   11.2123  -17.2234   19.9975 N   0  0  0  0  0  0  0  0  0  0  0  0
   10.0882  -17.5580   20.8260 C   0  0  1  0  0  0  0  0  0  0  0  0
   10.2494  -18.9781   21.3481 C   0  0  0  0  0  0  0  0  0  0  0  0
    9.1463  -20.0857   20.4312 S   0  0  0  0  0  0  0  0  0  0  0  0
    9.9716  -16.6248   21.9768 C   0  0  0  0  0  0  0  0  0  0  0  0
   11.0158  -16.1347   22.4772 O   0  0  0  0  0  0  0  0  0  0  0  0
    6.2408  -10.7699   27.4956 O   0  0  0  0  0  0  0  0  0  0  0  0
    6.4972  -11.7317   26.5257 C   0  0  0  0  0  0  0  0  0  0  0  0
    5.9485  -12.9780   26.6398 C   0  0  0  0  0  0  0  0  0  0  0  0
    6.2183  -13.9316   25.6541 C   0  0  0  0  0  0  0  0  0  0  0  0
    7.0249  -13.6098   24.5901 C   0  0  0  0  0  0  0  0  0  0  0  0
    7.3454  -14.6119   23.5722 C   0  0  0  0  0  0  0  0  0  0  0  0
    8.7024  -15.2149   23.6210 C   0  0  2  0  0  0  0  0  0  0  0  0
    8.7322  -16.2515   22.5494 N   0  0  0  0  0  0  0  0  0  0  0  0
    9.1397  -15.8071   24.8839 C   0  0  0  0  0  0  0  0  0  0  0  0
    9.1589  -15.1168   25.9754 O   0  0  0  0  0  0  0  0  0  0  0  0
    7.5601  -12.3484   24.5056 C   0  0  0  0  0  0  0  0  0  0  0  0
    7.3073  -11.3918   25.4666 C   0  0  0  0  0  0  0  0  0  0  0  0
    8.5834  -17.6396   27.2312 C   0  0  0  0  0  0  0  0  0  0  0  0
    9.7875  -17.7579   26.3239 C   0  0  2  0  0  0  0  0  0  0  0  0
    9.5611  -17.1355   25.0391 N   0  0  0  0  0  0  0  0  0  0  0  0
   10.2228  -19.1472   26.2945 C   0  0  0  0  0  0  0  0  0  0  0  0
    9.7152  -19.9748   25.5189 O   0  0  0  0  0  0  0  0  0  0  0  0
   11.2273  -19.5599   27.1510 O   0  0  0  0  0  0  0  0  0  0  0  0
  2  1  1  1
  2  3  1  0
  3  4  1  0
  5  6  2  0
  5  2  1  0
  7  8  1  0
  8 18  2  0
  9 10  2  0
  9  8  1  0
 10 11  1  0
 11 12  1  0
 11 17  2  0
 13 14  1  0
 13 12  1  1
 14  5  1  0
 15 13  1  0
 16 15  2  0
 18 17  1  0
 20 19  1  1
 20 21  1  0
 21 15  1  0
 22 24  1  0
 22 20  1  0
 23 22  2  0
M  END
$$$$
