CHL.pdb
     RDKit          3D

 25 25  0  0  1  0  0  0  0  0999 V2000
    7.7694  -14.8799   17.2730 N   0  0  0  0  0  0  0  0  0  0  0  0
    8.4727  -14.3084   18.4024 C   0  0  1  0  0  0  0  0  0  0  0  0
    8.0669  -12.8578   18.5449 C   0  0  0  0  0  0  0  0  0  0  0  0
    8.7892  -12.1095   20.0328 S   0  0  0  0  0  0  0  0  0  0  0  0
    8.1615  -15.0626   19.6551 C   0  0  0  0  0  0  0  0  0  0  0  0
    6.9273  -15.2323   19.9277 O   0  0  0  0  0  0  0  0  0  0  0  0
    9.1817  -15.5634   20.4967 N   0  0  0  0  0  0  0  0  0  0  0  0
    8.8592  -16.2653   21.6903 C   0  0  1  0  0  0  0  0  0  0  0  0
    9.6794  -17.5419   21.7247 C   0  0  0  0  0  0  0  0  0  0  0  0
    9.3870  -18.3859   22.9035 C   0  0  0  0  0  0  0  0  0  0  0  0
    8.1375  -18.4792   23.5103 C   0  0  0  0  0  0  0  0  0  0  0  0
    8.2681  -19.3361   24.5398 N   0  0  0  0  0  0  0  0  0  0  0  0
    9.5531  -19.7685   24.5820 C   0  0  0  0  0  0  0  0  0  0  0  0
   10.2209  -19.1863   23.5863 N   0  0  0  0  0  0  0  0  0  0  0  0
    9.0356  -15.4598   22.9159 C   0  0  0  0  0  0  0  0  0  0  0  0
   10.0759  -14.7697   23.0177 O   0  0  0  0  0  0  0  0  0  0  0  0
    7.8205  -11.7866   26.7537 C   0  0  0  0  0  0  0  0  0  0  0  0
    7.0157  -13.0423   26.7018 C   0  0  1  0  0  0  0  0  0  0  0  0
    5.5585  -12.6127   26.9387 C   0  0  0  0  0  0  0  0  0  0  0  0
    7.1678  -13.8542   25.4996 C   0  0  0  0  0  0  0  0  0  0  0  0
    8.3834  -14.6505   25.2312 C   0  0  2  0  0  0  0  0  0  0  0  0
    8.1051  -15.4225   23.9737 N   0  0  0  0  0  0  0  0  0  0  0  0
    8.6943  -15.6561   26.2345 C   0  0  0  0  0  0  0  0  0  0  0  0
    7.9979  -16.7290   26.2608 O   0  0  0  0  0  0  0  0  0  0  0  0
    9.7007  -15.5863   27.1941 O   0  0  0  0  0  0  0  0  0  0  0  0
  2  1  1  6
  2  5  1  0
  3  2  1  0
  4  3  1  0
  5  7  1  0
  6  5  2  0
  7  8  1  0
  8  9  1  1
  9 10  1  0
 10 11  2  0
 12 11  1  0
 13 12  1  0
 14 10  1  0
 14 13  2  0
 15 22  1  0
 15  8  1  0
 16 15  2  0
 18 19  1  6
 18 17  1  0
 20 18  1  0
 21 20  1  1
 21 22  1  0
 23 21  1  0
 24 23  2  0
 25 23  1  0
M  END
$$$$
