CHL.pdb
     RDKit          3D

 25 25  0  0  1  0  0  0  0  0999 V2000
    7.7639  -14.7809   17.5295 N   0  0  0  0  0  0  0  0  0  0  0  0
    8.5809  -14.2557   18.6034 C   0  0  1  0  0  0  0  0  0  0  0  0
    8.2341  -12.7976   18.8105 C   0  0  0  0  0  0  0  0  0  0  0  0
    9.1294  -12.0966   20.2255 S   0  0  0  0  0  0  0  0  0  0  0  0
    8.3579  -15.0289   19.8634 C   0  0  0  0  0  0  0  0  0  0  0  0
    7.1454  -15.2573   20.1861 O   0  0  0  0  0  0  0  0  0  0  0  0
    9.4347  -15.4850   20.6586 N   0  0  0  0  0  0  0  0  0  0  0  0
    9.1957  -16.2187   21.8528 C   0  0  1  0  0  0  0  0  0  0  0  0
   10.1453  -17.4024   21.8788 C   0  0  0  0  0  0  0  0  0  0  0  0
    9.6819  -18.5343   21.0471 C   0  0  0  0  0  0  0  0  0  0  0  0
    8.3623  -18.7235   20.6459 C   0  0  0  0  0  0  0  0  0  0  0  0
    8.3373  -19.8502   19.9102 N   0  0  0  0  0  0  0  0  0  0  0  0
    9.5950  -20.3545   19.8488 C   0  0  0  0  0  0  0  0  0  0  0  0
   10.4004  -19.5491   20.5410 N   0  0  0  0  0  0  0  0  0  0  0  0
    9.2953  -15.4010   23.0791 C   0  0  0  0  0  0  0  0  0  0  0  0
   10.3590  -14.7700   23.2766 O   0  0  0  0  0  0  0  0  0  0  0  0
    7.8423  -11.7823   26.9536 C   0  0  0  0  0  0  0  0  0  0  0  0
    6.9594  -12.9599   26.7068 C   0  0  1  0  0  0  0  0  0  0  0  0
    5.5208  -12.4195   26.7585 C   0  0  0  0  0  0  0  0  0  0  0  0
    7.2250  -13.7189   25.4899 C   0  0  0  0  0  0  0  0  0  0  0  0
    8.4610  -14.5071   25.3029 C   0  0  2  0  0  0  0  0  0  0  0  0
    8.2670  -15.2898   24.0363 N   0  0  0  0  0  0  0  0  0  0  0  0
    8.7170  -15.5033   26.3308 C   0  0  0  0  0  0  0  0  0  0  0  0
    9.4598  -15.1822   27.3218 O   0  0  0  0  0  0  0  0  0  0  0  0
    8.2234  -16.8047   26.3651 O   0  0  0  0  0  0  0  0  0  0  0  0
  2  1  1  6
  2  5  1  0
  3  2  1  0
  4  3  1  0
  5  7  1  0
  6  5  2  0
  7  8  1  0
  8  9  1  1
  9 10  1  0
 10 11  2  0
 12 11  1  0
 13 12  1  0
 14 10  1  0
 14 13  2  0
 15 22  1  0
 15  8  1  0
 16 15  2  0
 18 19  1  6
 18 17  1  0
 20 18  1  0
 21 20  1  1
 21 22  1  0
 23 21  1  0
 24 23  2  0
 25 23  1  0
M  END
$$$$
