CHL.pdb
     RDKit          3D

 25 25  0  0  1  0  0  0  0  0999 V2000
    7.8186  -15.5156   18.1277 N   0  0  0  0  0  0  0  0  0  0  0  0
    8.4076  -14.7572   19.2115 C   0  0  1  0  0  0  0  0  0  0  0  0
    7.8378  -13.3557   19.1907 C   0  0  0  0  0  0  0  0  0  0  0  0
    8.8647  -12.2073   20.1509 S   0  0  0  0  0  0  0  0  0  0  0  0
    8.1313  -15.4131   20.5263 C   0  0  0  0  0  0  0  0  0  0  0  0
    6.9197  -15.7348   20.7604 O   0  0  0  0  0  0  0  0  0  0  0  0
    9.1593  -15.6651   21.4642 N   0  0  0  0  0  0  0  0  0  0  0  0
    8.8656  -16.2621   22.7206 C   0  0  1  0  0  0  0  0  0  0  0  0
    9.5830  -17.5979   22.7890 C   0  0  0  0  0  0  0  0  0  0  0  0
    8.9577  -18.6347   21.9396 C   0  0  0  0  0  0  0  0  0  0  0  0
    7.8163  -18.4328   21.1685 C   0  0  0  0  0  0  0  0  0  0  0  0
    7.5579  -19.5966   20.5441 N   0  0  0  0  0  0  0  0  0  0  0  0
    8.5014  -20.5009   20.9073 C   0  0  0  0  0  0  0  0  0  0  0  0
    9.3435  -19.9068   21.7525 N   0  0  0  0  0  0  0  0  0  0  0  0
    9.1889  -15.3993   23.8753 C   0  0  0  0  0  0  0  0  0  0  0  0
   10.3193  -14.8607   23.9045 O   0  0  0  0  0  0  0  0  0  0  0  0
    5.3296  -12.5783   26.6081 C   0  0  0  0  0  0  0  0  0  0  0  0
    6.6348  -12.9187   25.9696 C   0  0  1  0  0  0  0  0  0  0  0  0
    7.2958  -11.5724   25.6305 C   0  0  0  0  0  0  0  0  0  0  0  0
    7.5159  -13.7938   26.7347 C   0  0  0  0  0  0  0  0  0  0  0  0
    8.7421  -14.3828   26.1573 C   0  0  2  0  0  0  0  0  0  0  0  0
    8.3031  -15.1477   24.9420 N   0  0  0  0  0  0  0  0  0  0  0  0
    9.4118  -15.3597   27.0009 C   0  0  0  0  0  0  0  0  0  0  0  0
    9.2020  -16.6026   26.7818 O   0  0  0  0  0  0  0  0  0  0  0  0
   10.2898  -15.0885   28.0469 O   0  0  0  0  0  0  0  0  0  0  0  0
  2  1  1  6
  2  5  1  0
  3  2  1  0
  4  3  1  0
  5  7  1  0
  6  5  2  0
  7  8  1  0
  8  9  1  1
  9 10  1  0
 10 11  2  0
 12 11  1  0
 13 12  1  0
 14 10  1  0
 14 13  2  0
 15 22  1  0
 15  8  1  0
 16 15  2  0
 18 19  1  1
 18 17  1  0
 20 18  1  0
 21 20  1  1
 21 22  1  0
 23 21  1  0
 24 23  2  0
 25 23  1  0
M  END
$$$$
