CHL.pdb
     RDKit          3D

 25 25  0  0  1  0  0  0  0  0999 V2000
    6.7963  -16.0326   18.3232 N   0  0  0  0  0  0  0  0  0  0  0  0
    7.8209  -15.2601   18.9943 C   0  0  1  0  0  0  0  0  0  0  0  0
    7.4211  -13.8010   18.9754 C   0  0  0  0  0  0  0  0  0  0  0  0
    8.5614  -12.7874   19.9590 S   0  0  0  0  0  0  0  0  0  0  0  0
    8.0026  -15.7330   20.4009 C   0  0  0  0  0  0  0  0  0  0  0  0
    6.9405  -15.9286   21.0792 O   0  0  0  0  0  0  0  0  0  0  0  0
    9.2856  -15.9529   20.9535 N   0  0  0  0  0  0  0  0  0  0  0  0
    9.4304  -16.4877   22.2629 C   0  0  1  0  0  0  0  0  0  0  0  0
   10.7083  -17.3057   22.3012 C   0  0  0  0  0  0  0  0  0  0  0  0
   10.9396  -17.9568   23.6088 C   0  0  0  0  0  0  0  0  0  0  0  0
    9.9272  -18.3314   24.4879 C   0  0  0  0  0  0  0  0  0  0  0  0
   10.5266  -18.8861   25.5577 N   0  0  0  0  0  0  0  0  0  0  0  0
   11.8685  -18.8629   25.3617 C   0  0  0  0  0  0  0  0  0  0  0  0
   12.1064  -18.2979   24.1783 N   0  0  0  0  0  0  0  0  0  0  0  0
    9.3954  -15.4638   23.3271 C   0  0  0  0  0  0  0  0  0  0  0  0
    9.7651  -14.3033   23.0346 O   0  0  0  0  0  0  0  0  0  0  0  0
    5.8608  -12.4033   26.3865 C   0  0  0  0  0  0  0  0  0  0  0  0
    7.2520  -12.6101   25.8876 C   0  0  1  0  0  0  0  0  0  0  0  0
    8.1753  -12.1866   27.0419 C   0  0  0  0  0  0  0  0  0  0  0  0
    7.5638  -13.9441   25.3868 C   0  0  0  0  0  0  0  0  0  0  0  0
    8.8568  -14.6076   25.6546 C   0  0  2  0  0  0  0  0  0  0  0  0
    8.9719  -15.7153   24.6474 N   0  0  0  0  0  0  0  0  0  0  0  0
    8.9573  -15.2593   26.9506 C   0  0  0  0  0  0  0  0  0  0  0  0
    8.3429  -16.3677   27.1268 O   0  0  0  0  0  0  0  0  0  0  0  0
    9.6755  -14.8050   28.0535 O   0  0  0  0  0  0  0  0  0  0  0  0
  2  1  1  1
  2  5  1  0
  3  2  1  0
  4  3  1  0
  5  7  1  0
  6  5  2  0
  7  8  1  0
  8  9  1  6
  9 10  1  0
 10 11  2  0
 12 11  1  0
 13 12  1  0
 14 10  1  0
 14 13  2  0
 15 22  1  0
 15  8  1  0
 16 15  2  0
 18 19  1  1
 18 17  1  0
 20 18  1  0
 21 20  1  1
 21 22  1  0
 23 21  1  0
 24 23  2  0
 25 23  1  0
M  END
$$$$
