CHL.pdb
     RDKit          3D

 25 25  0  0  1  0  0  0  0  0999 V2000
    7.9042  -14.8059   17.6310 N   0  0  0  0  0  0  0  0  0  0  0  0
    8.5471  -14.3661   18.8517 C   0  0  1  0  0  0  0  0  0  0  0  0
    8.3893  -12.8662   18.9717 C   0  0  0  0  0  0  0  0  0  0  0  0
    9.1096  -12.2444   20.5177 S   0  0  0  0  0  0  0  0  0  0  0  0
    7.9497  -15.0501   20.0393 C   0  0  0  0  0  0  0  0  0  0  0  0
    6.6853  -15.2156   20.0267 O   0  0  0  0  0  0  0  0  0  0  0  0
    8.7439  -15.4921   21.1226 N   0  0  0  0  0  0  0  0  0  0  0  0
    8.1547  -16.1639   22.2285 C   0  0  1  0  0  0  0  0  0  0  0  0
    8.4773  -17.6423   22.1106 C   0  0  0  0  0  0  0  0  0  0  0  0
    7.9201  -18.4463   23.2198 C   0  0  0  0  0  0  0  0  0  0  0  0
    7.1150  -17.9327   24.2329 C   0  0  0  0  0  0  0  0  0  0  0  0
    6.8104  -18.9607   25.0464 N   0  0  0  0  0  0  0  0  0  0  0  0
    7.4012  -20.0827   24.5650 C   0  0  0  0  0  0  0  0  0  0  0  0
    8.0703  -19.7588   23.4588 N   0  0  0  0  0  0  0  0  0  0  0  0
    8.5564  -15.6114   23.5383 C   0  0  0  0  0  0  0  0  0  0  0  0
    9.7807  -15.4760   23.7654 O   0  0  0  0  0  0  0  0  0  0  0  0
    5.5239  -11.8848   26.4976 C   0  0  0  0  0  0  0  0  0  0  0  0
    6.7182  -12.5583   25.9086 C   0  0  1  0  0  0  0  0  0  0  0  0
    7.8885  -11.5815   26.1104 C   0  0  0  0  0  0  0  0  0  0  0  0
    7.0161  -13.8946   26.4116 C   0  0  0  0  0  0  0  0  0  0  0  0
    8.1206  -14.7150   25.8723 C   0  0  2  0  0  0  0  0  0  0  0  0
    7.6459  -15.2291   24.5437 N   0  0  0  0  0  0  0  0  0  0  0  0
    8.4407  -15.9027   26.6479 C   0  0  0  0  0  0  0  0  0  0  0  0
    7.8263  -16.9922   26.3791 O   0  0  0  0  0  0  0  0  0  0  0  0
    9.3751  -15.9944   27.6760 O   0  0  0  0  0  0  0  0  0  0  0  0
  2  1  1  6
  2  5  1  0
  3  2  1  0
  4  3  1  0
  5  7  1  0
  6  5  2  0
  7  8  1  0
  8  9  1  1
  9 10  1  0
 10 11  2  0
 12 11  1  0
 13 12  1  0
 14 10  1  0
 14 13  2  0
 15 22  1  0
 15  8  1  0
 16 15  2  0
 18 19  1  1
 18 17  1  0
 20 18  1  0
 21 20  1  1
 21 22  1  0
 23 21  1  0
 24 23  2  0
 25 23  1  0
M  END
$$$$
