CHL.pdb
     RDKit          3D

 25 25  0  0  1  0  0  0  0  0999 V2000
    7.8891  -15.0497   18.1206 N   0  0  0  0  0  0  0  0  0  0  0  0
    8.4121  -14.3984   19.3034 C   0  0  1  0  0  0  0  0  0  0  0  0
    7.5865  -13.1618   19.5833 C   0  0  0  0  0  0  0  0  0  0  0  0
    8.1578  -12.3067   21.0793 S   0  0  0  0  0  0  0  0  0  0  0  0
    8.3771  -15.3254   20.4759 C   0  0  0  0  0  0  0  0  0  0  0  0
    7.3128  -16.0108   20.6302 O   0  0  0  0  0  0  0  0  0  0  0  0
    9.4671  -15.4383   21.3697 N   0  0  0  0  0  0  0  0  0  0  0  0
    9.3717  -16.2510   22.5323 C   0  0  1  0  0  0  0  0  0  0  0  0
   10.3933  -17.3673   22.4144 C   0  0  0  0  0  0  0  0  0  0  0  0
   10.0047  -18.4064   21.4362 C   0  0  0  0  0  0  0  0  0  0  0  0
   10.5402  -18.5171   20.1559 C   0  0  0  0  0  0  0  0  0  0  0  0
    9.9425  -19.5734   19.5744 N   0  0  0  0  0  0  0  0  0  0  0  0
    9.0616  -20.1105   20.4550 C   0  0  0  0  0  0  0  0  0  0  0  0
    9.1082  -19.3954   21.5787 N   0  0  0  0  0  0  0  0  0  0  0  0
    9.5174  -15.4971   23.7943 C   0  0  0  0  0  0  0  0  0  0  0  0
   10.5660  -14.8328   23.9611 O   0  0  0  0  0  0  0  0  0  0  0  0
    5.7709  -12.3365   26.2039 C   0  0  0  0  0  0  0  0  0  0  0  0
    7.0900  -12.8876   25.7757 C   0  0  1  0  0  0  0  0  0  0  0  0
    8.0898  -11.7273   25.9125 C   0  0  0  0  0  0  0  0  0  0  0  0
    7.5381  -14.0921   26.4654 C   0  0  0  0  0  0  0  0  0  0  0  0
    8.8008  -14.7780   26.1203 C   0  0  2  0  0  0  0  0  0  0  0  0
    8.5489  -15.4816   24.8180 N   0  0  0  0  0  0  0  0  0  0  0  0
    9.2061  -15.8237   27.0460 C   0  0  0  0  0  0  0  0  0  0  0  0
    8.8755  -17.0319   26.7860 O   0  0  0  0  0  0  0  0  0  0  0  0
    9.9436  -15.6558   28.2150 O   0  0  0  0  0  0  0  0  0  0  0  0
  2  1  1  6
  2  5  1  0
  3  2  1  0
  4  3  1  0
  5  7  1  0
  6  5  2  0
  7  8  1  0
  8  9  1  6
  9 10  1  0
 10 11  2  0
 12 11  1  0
 13 12  1  0
 14 10  1  0
 14 13  2  0
 15 22  1  0
 15  8  1  0
 16 15  2  0
 18 19  1  1
 18 17  1  0
 20 18  1  0
 21 20  1  1
 21 22  1  0
 23 21  1  0
 24 23  2  0
 25 23  1  0
M  END
$$$$
