CHL.pdb
     RDKit          3D

 25 25  0  0  1  0  0  0  0  0999 V2000
    6.8277  -15.9464   19.6704 N   0  0  0  0  0  0  0  0  0  0  0  0
    7.7907  -15.1932   20.4463 C   0  0  1  0  0  0  0  0  0  0  0  0
    7.0878  -14.0139   21.0822 C   0  0  0  0  0  0  0  0  0  0  0  0
    8.1999  -13.0922   22.1818 S   0  0  0  0  0  0  0  0  0  0  0  0
    8.4146  -16.0563   21.4955 C   0  0  0  0  0  0  0  0  0  0  0  0
    7.6232  -16.7866   22.1788 O   0  0  0  0  0  0  0  0  0  0  0  0
    9.8106  -16.0645   21.7209 N   0  0  0  0  0  0  0  0  0  0  0  0
   10.3674  -16.8011   22.8020 C   0  0  1  0  0  0  0  0  0  0  0  0
   11.6570  -17.4424   22.3231 C   0  0  0  0  0  0  0  0  0  0  0  0
   11.4330  -18.5478   21.3663 C   0  0  0  0  0  0  0  0  0  0  0  0
   10.2632  -19.2995   21.2968 C   0  0  0  0  0  0  0  0  0  0  0  0
   10.4380  -20.2007   20.3127 N   0  0  0  0  0  0  0  0  0  0  0  0
   11.6728  -20.0249   19.7798 C   0  0  0  0  0  0  0  0  0  0  0  0
   12.2658  -19.0213   20.4259 N   0  0  0  0  0  0  0  0  0  0  0  0
   10.5690  -15.9962   24.0242 C   0  0  0  0  0  0  0  0  0  0  0  0
   10.9889  -14.8239   23.8899 O   0  0  0  0  0  0  0  0  0  0  0  0
    7.6381  -13.0772   27.4134 C   0  0  0  0  0  0  0  0  0  0  0  0
    9.0663  -13.3661   27.0912 C   0  0  1  0  0  0  0  0  0  0  0  0
    9.7757  -13.5201   28.4466 C   0  0  0  0  0  0  0  0  0  0  0  0
    9.3090  -14.4985   26.2045 C   0  0  0  0  0  0  0  0  0  0  0  0
   10.3131  -15.5396   26.5075 C   0  0  2  0  0  0  0  0  0  0  0  0
   10.3173  -16.4686   25.3278 N   0  0  0  0  0  0  0  0  0  0  0  0
   10.0022  -16.3798   27.6529 C   0  0  0  0  0  0  0  0  0  0  0  0
    9.0513  -17.2292   27.5477 O   0  0  0  0  0  0  0  0  0  0  0  0
   10.6472  -16.3711   28.8867 O   0  0  0  0  0  0  0  0  0  0  0  0
  2  1  1  1
  2  5  1  0
  3  2  1  0
  4  3  1  0
  5  7  1  0
  6  5  2  0
  7  8  1  0
  8  9  1  6
  9 10  1  0
 10 11  2  0
 12 11  1  0
 13 12  1  0
 14 10  1  0
 14 13  2  0
 15 22  1  0
 15  8  1  0
 16 15  2  0
 18 19  1  1
 18 17  1  0
 20 18  1  0
 21 20  1  6
 21 22  1  0
 23 21  1  0
 24 23  2  0
 25 23  1  0
M  END
$$$$
