CHL.pdb
     RDKit          3D

 25 25  0  0  1  0  0  0  0  0999 V2000
   14.9418  -18.3584   12.7681 N   0  0  0  0  0  0  0  0  0  0  0  0
   14.3851  -19.4636   13.5202 C   0  0  1  0  0  0  0  0  0  0  0  0
   15.4680  -20.4972   13.7399 C   0  0  0  0  0  0  0  0  0  0  0  0
   16.7806  -19.8636   14.8220 S   0  0  0  0  0  0  0  0  0  0  0  0
   13.8419  -18.9906   14.8302 C   0  0  0  0  0  0  0  0  0  0  0  0
   13.6805  -17.7323   14.9605 O   0  0  0  0  0  0  0  0  0  0  0  0
   13.5224  -19.8904   15.8733 N   0  0  0  0  0  0  0  0  0  0  0  0
   12.9230  -19.4251   17.0756 C   0  0  1  0  0  0  0  0  0  0  0  0
   12.2822  -20.6104   17.7743 C   0  0  0  0  0  0  0  0  0  0  0  0
   11.4255  -20.2164   18.9138 C   0  0  0  0  0  0  0  0  0  0  0  0
   11.1845  -18.8992   19.2948 C   0  0  0  0  0  0  0  0  0  0  0  0
   10.3662  -18.9466   20.3622 N   0  0  0  0  0  0  0  0  0  0  0  0
   10.0999  -20.2461   20.6454 C   0  0  0  0  0  0  0  0  0  0  0  0
   10.7469  -21.0056   19.7617 N   0  0  0  0  0  0  0  0  0  0  0  0
   13.8576  -18.6992   17.9598 C   0  0  0  0  0  0  0  0  0  0  0  0
   15.0317  -19.1267   18.0470 O   0  0  0  0  0  0  0  0  0  0  0  0
   15.3789  -13.1227   18.1545 C   0  0  0  0  0  0  0  0  0  0  0  0
   15.5949  -14.4360   18.8295 C   0  0  1  0  0  0  0  0  0  0  0  0
   15.9591  -14.1006   20.2853 C   0  0  0  0  0  0  0  0  0  0  0  0
   14.4993  -15.3944   18.7369 C   0  0  0  0  0  0  0  0  0  0  0  0
   14.5502  -16.7196   19.3889 C   0  0  2  0  0  0  0  0  0  0  0  0
   13.5067  -17.5579   18.7083 N   0  0  0  0  0  0  0  0  0  0  0  0
   14.1861  -16.7273   20.7967 C   0  0  0  0  0  0  0  0  0  0  0  0
   12.9452  -16.7037   21.1073 O   0  0  0  0  0  0  0  0  0  0  0  0
   15.0610  -16.7674   21.8791 O   0  0  0  0  0  0  0  0  0  0  0  0
  2  1  1  1
  2  5  1  0
  3  2  1  0
  4  3  1  0
  5  7  1  0
  6  5  2  0
  7  8  1  0
  8  9  1  1
  9 10  1  0
 10 11  2  0
 12 11  1  0
 13 12  1  0
 14 10  1  0
 14 13  2  0
 15 22  1  0
 15  8  1  0
 16 15  2  0
 18 19  1  1
 18 17  1  0
 20 18  1  0
 21 20  1  6
 21 22  1  0
 23 21  1  0
 24 23  2  0
 25 23  1  0
M  END
$$$$
