CHL.pdb
     RDKit          3D

 25 25  0  0  1  0  0  0  0  0999 V2000
    6.3931  -15.5650   20.0684 N   0  0  0  0  0  0  0  0  0  0  0  0
    7.6602  -15.0079   20.4938 C   0  0  1  0  0  0  0  0  0  0  0  0
    7.4466  -13.5656   20.8980 C   0  0  0  0  0  0  0  0  0  0  0  0
    6.6138  -13.4433   22.5064 S   0  0  0  0  0  0  0  0  0  0  0  0
    8.2252  -15.7913   21.6349 C   0  0  0  0  0  0  0  0  0  0  0  0
    7.4113  -16.5365   22.2742 O   0  0  0  0  0  0  0  0  0  0  0  0
    9.5918  -15.7117   21.9896 N   0  0  0  0  0  0  0  0  0  0  0  0
   10.1092  -16.4847   23.0648 C   0  0  1  0  0  0  0  0  0  0  0  0
   11.5188  -16.9154   22.7025 C   0  0  0  0  0  0  0  0  0  0  0  0
   11.5515  -18.0691   21.7776 C   0  0  0  0  0  0  0  0  0  0  0  0
   10.4870  -18.9437   21.5773 C   0  0  0  0  0  0  0  0  0  0  0  0
   10.8954  -19.8527   20.6727 N   0  0  0  0  0  0  0  0  0  0  0  0
   12.1712  -19.5631   20.3145 C   0  0  0  0  0  0  0  0  0  0  0  0
   12.5576  -18.4811   20.9901 N   0  0  0  0  0  0  0  0  0  0  0  0
   10.0590  -15.7921   24.3687 C   0  0  0  0  0  0  0  0  0  0  0  0
   10.9286  -14.9215   24.6024 O   0  0  0  0  0  0  0  0  0  0  0  0
    5.8471  -13.4100   26.3141 C   0  0  0  0  0  0  0  0  0  0  0  0
    7.3009  -13.7059   26.1523 C   0  0  1  0  0  0  0  0  0  0  0  0
    8.0292  -12.3821   26.4377 C   0  0  0  0  0  0  0  0  0  0  0  0
    7.8243  -14.8112   26.9472 C   0  0  0  0  0  0  0  0  0  0  0  0
    9.1615  -15.3934   26.7088 C   0  0  2  0  0  0  0  0  0  0  0  0
    9.0934  -16.0527   25.3614 N   0  0  0  0  0  0  0  0  0  0  0  0
    9.5460  -16.4501   27.6308 C   0  0  0  0  0  0  0  0  0  0  0  0
    9.8186  -16.1363   28.8408 O   0  0  0  0  0  0  0  0  0  0  0  0
    9.6458  -17.8081   27.3403 O   0  0  0  0  0  0  0  0  0  0  0  0
  2  1  1  1
  2  5  1  0
  3  2  1  0
  4  3  1  0
  5  7  1  0
  6  5  2  0
  7  8  1  0
  8  9  1  6
  9 10  1  0
 10 11  2  0
 12 11  1  0
 13 12  1  0
 14 10  1  0
 14 13  2  0
 15 22  1  0
 15  8  1  0
 16 15  2  0
 18 19  1  1
 18 17  1  0
 20 18  1  0
 21 20  1  1
 21 22  1  0
 23 21  1  0
 24 23  2  0
 25 23  1  0
M  END
$$$$
