CHL.pdb
     RDKit          3D

 25 25  0  0  1  0  0  0  0  0999 V2000
    7.5970  -14.7763   18.0918 N   0  0  0  0  0  0  0  0  0  0  0  0
    8.4265  -14.2217   19.1412 C   0  0  1  0  0  0  0  0  0  0  0  0
    8.0251  -12.7808   19.3686 C   0  0  0  0  0  0  0  0  0  0  0  0
    8.9445  -12.0457   20.7505 S   0  0  0  0  0  0  0  0  0  0  0  0
    8.2790  -15.0097   20.4031 C   0  0  0  0  0  0  0  0  0  0  0  0
    7.0975  -15.3772   20.7119 O   0  0  0  0  0  0  0  0  0  0  0  0
    9.3912  -15.3324   21.2147 N   0  0  0  0  0  0  0  0  0  0  0  0
    9.2403  -16.1691   22.3542 C   0  0  1  0  0  0  0  0  0  0  0  0
   10.2313  -17.3126   22.2362 C   0  0  0  0  0  0  0  0  0  0  0  0
    9.8316  -18.3235   21.2332 C   0  0  0  0  0  0  0  0  0  0  0  0
    8.5126  -18.6639   20.9460 C   0  0  0  0  0  0  0  0  0  0  0  0
    8.5545  -19.6099   19.9897 N   0  0  0  0  0  0  0  0  0  0  0  0
    9.8525  -19.8583   19.6839 C   0  0  0  0  0  0  0  0  0  0  0  0
   10.6163  -19.0734   20.4433 N   0  0  0  0  0  0  0  0  0  0  0  0
    9.3738  -15.4500   23.6377 C   0  0  0  0  0  0  0  0  0  0  0  0
   10.4454  -14.8401   23.8577 O   0  0  0  0  0  0  0  0  0  0  0  0
    5.3279  -12.8060   26.1797 C   0  0  0  0  0  0  0  0  0  0  0  0
    6.7255  -13.1251   25.7647 C   0  0  1  0  0  0  0  0  0  0  0  0
    7.5191  -11.8195   25.9376 C   0  0  0  0  0  0  0  0  0  0  0  0
    7.3556  -14.2529   26.4418 C   0  0  0  0  0  0  0  0  0  0  0  0
    8.6356  -14.8343   25.9865 C   0  0  2  0  0  0  0  0  0  0  0  0
    8.3695  -15.4102   24.6255 N   0  0  0  0  0  0  0  0  0  0  0  0
    9.1233  -15.9489   26.7830 C   0  0  0  0  0  0  0  0  0  0  0  0
    8.8665  -17.1392   26.3904 O   0  0  0  0  0  0  0  0  0  0  0  0
    9.8685  -15.8660   27.9561 O   0  0  0  0  0  0  0  0  0  0  0  0
  2  1  1  6
  2  5  1  0
  3  2  1  0
  4  3  1  0
  5  7  1  0
  6  5  2  0
  7  8  1  0
  8  9  1  6
  9 10  1  0
 10 11  2  0
 12 11  1  0
 13 12  1  0
 14 10  1  0
 14 13  2  0
 15 22  1  0
 15  8  1  0
 16 15  2  0
 18 19  1  1
 18 17  1  0
 20 18  1  0
 21 20  1  1
 21 22  1  0
 23 21  1  0
 24 23  2  0
 25 23  1  0
M  END
$$$$
