CHL.pdb
     RDKit          3D

 25 25  0  0  1  0  0  0  0  0999 V2000
    6.4121  -18.9683   20.0470 N   0  0  0  0  0  0  0  0  0  0  0  0
    6.2491  -17.8897   20.9993 C   0  0  1  0  0  0  0  0  0  0  0  0
    5.8092  -18.4726   22.3243 C   0  0  0  0  0  0  0  0  0  0  0  0
    5.3492  -17.1704   23.5025 S   0  0  0  0  0  0  0  0  0  0  0  0
    7.5271  -17.1310   21.1617 C   0  0  0  0  0  0  0  0  0  0  0  0
    8.6057  -17.8077   21.0903 O   0  0  0  0  0  0  0  0  0  0  0  0
    7.5419  -15.7345   21.3834 N   0  0  0  0  0  0  0  0  0  0  0  0
    8.7652  -15.0497   21.6203 C   0  0  1  0  0  0  0  0  0  0  0  0
    8.7328  -13.7428   20.8492 C   0  0  0  0  0  0  0  0  0  0  0  0
    8.5561  -13.9341   19.3933 C   0  0  0  0  0  0  0  0  0  0  0  0
    7.5158  -13.3822   18.6507 C   0  0  0  0  0  0  0  0  0  0  0  0
    7.6948  -13.7777   17.3769 N   0  0  0  0  0  0  0  0  0  0  0  0
    8.8075  -14.5512   17.3167 C   0  0  0  0  0  0  0  0  0  0  0  0
    9.3202  -14.6387   18.5438 N   0  0  0  0  0  0  0  0  0  0  0  0
    9.0581  -14.8410   23.0530 C   0  0  0  0  0  0  0  0  0  0  0  0
   10.1394  -14.2852   23.3541 O   0  0  0  0  0  0  0  0  0  0  0  0
    7.6562  -12.1037   27.3509 C   0  0  0  0  0  0  0  0  0  0  0  0
    6.8828  -13.3571   27.1103 C   0  0  1  0  0  0  0  0  0  0  0  0
    5.4079  -12.9859   27.3364 C   0  0  0  0  0  0  0  0  0  0  0  0
    7.1011  -14.0105   25.8246 C   0  0  0  0  0  0  0  0  0  0  0  0
    8.3667  -14.6965   25.4906 C   0  0  2  0  0  0  0  0  0  0  0  0
    8.1952  -15.2294   24.0973 N   0  0  0  0  0  0  0  0  0  0  0  0
    8.6707  -15.8598   26.3085 C   0  0  0  0  0  0  0  0  0  0  0  0
    8.0435  -16.9506   26.0770 O   0  0  0  0  0  0  0  0  0  0  0  0
    9.6019  -15.9265   27.3415 O   0  0  0  0  0  0  0  0  0  0  0  0
  2  1  1  6
  2  5  1  0
  3  2  1  0
  4  3  1  0
  5  7  1  0
  6  5  2  0
  7  8  1  0
  8  9  1  6
  9 10  1  0
 10 11  2  0
 12 11  1  0
 13 12  1  0
 14 10  1  0
 14 13  2  0
 15 22  1  0
 15  8  1  0
 16 15  2  0
 18 19  1  6
 18 17  1  0
 20 18  1  0
 21 20  1  1
 21 22  1  0
 23 21  1  0
 24 23  2  0
 25 23  1  0
M  END
$$$$
