CHL.pdb
     RDKit          3D

 25 25  0  0  1  0  0  0  0  0999 V2000
    7.8667  -13.8343   17.6425 N   0  0  0  0  0  0  0  0  0  0  0  0
    8.9364  -14.1786   18.5557 C   0  0  1  0  0  0  0  0  0  0  0  0
    9.6098  -12.9053   19.0187 C   0  0  0  0  0  0  0  0  0  0  0  0
    8.4897  -11.8891   20.0229 S   0  0  0  0  0  0  0  0  0  0  0  0
    8.4063  -14.9435   19.7258 C   0  0  0  0  0  0  0  0  0  0  0  0
    7.1704  -14.7860   19.9983 O   0  0  0  0  0  0  0  0  0  0  0  0
    9.2309  -15.7986   20.4929 N   0  0  0  0  0  0  0  0  0  0  0  0
    8.7364  -16.4175   21.6734 C   0  0  1  0  0  0  0  0  0  0  0  0
    9.3461  -17.8039   21.7719 C   0  0  0  0  0  0  0  0  0  0  0  0
    8.5995  -18.8205   20.9994 C   0  0  0  0  0  0  0  0  0  0  0  0
    7.4687  -18.5490   20.2341 C   0  0  0  0  0  0  0  0  0  0  0  0
    7.0789  -19.7160   19.6887 N   0  0  0  0  0  0  0  0  0  0  0  0
    7.9320  -20.6892   20.0946 C   0  0  0  0  0  0  0  0  0  0  0  0
    8.8485  -20.1349   20.8878 N   0  0  0  0  0  0  0  0  0  0  0  0
    8.9650  -15.6231   22.8977 C   0  0  0  0  0  0  0  0  0  0  0  0
   10.0868  -15.0858   23.0454 O   0  0  0  0  0  0  0  0  0  0  0  0
    7.6545  -11.5959   26.3602 C   0  0  0  0  0  0  0  0  0  0  0  0
    6.8292  -12.8389   26.3929 C   0  0  1  0  0  0  0  0  0  0  0  0
    5.3728  -12.3676   26.5376 C   0  0  0  0  0  0  0  0  0  0  0  0
    7.0077  -13.7586   25.2749 C   0  0  0  0  0  0  0  0  0  0  0  0
    8.2544  -14.5260   25.0731 C   0  0  2  0  0  0  0  0  0  0  0  0
    7.9983  -15.4350   23.9057 N   0  0  0  0  0  0  0  0  0  0  0  0
    8.6185  -15.4083   26.1701 C   0  0  0  0  0  0  0  0  0  0  0  0
    7.9885  -16.5143   26.2999 O   0  0  0  0  0  0  0  0  0  0  0  0
    9.6115  -15.1839   27.1199 O   0  0  0  0  0  0  0  0  0  0  0  0
  2  1  1  6
  2  5  1  0
  3  2  1  0
  4  3  1  0
  5  7  1  0
  6  5  2  0
  7  8  1  0
  8  9  1  1
  9 10  1  0
 10 11  2  0
 12 11  1  0
 13 12  1  0
 14 10  1  0
 14 13  2  0
 15 22  1  0
 15  8  1  0
 16 15  2  0
 18 19  1  6
 18 17  1  0
 20 18  1  0
 21 20  1  1
 21 22  1  0
 23 21  1  0
 24 23  2  0
 25 23  1  0
M  END
$$$$
