CHL.pdb
     RDKit          3D

 25 25  0  0  1  0  0  0  0  0999 V2000
    6.0912  -19.1470   21.2926 N   0  0  0  0  0  0  0  0  0  0  0  0
    5.9549  -17.7349   21.5825 C   0  0  1  0  0  0  0  0  0  0  0  0
    5.0801  -17.5715   22.8061 C   0  0  0  0  0  0  0  0  0  0  0  0
    5.8889  -18.2277   24.2929 S   0  0  0  0  0  0  0  0  0  0  0  0
    7.2941  -17.1111   21.8116 C   0  0  0  0  0  0  0  0  0  0  0  0
    8.2812  -17.9085   21.9388 O   0  0  0  0  0  0  0  0  0  0  0  0
    7.4607  -15.7086   21.8841 N   0  0  0  0  0  0  0  0  0  0  0  0
    8.7489  -15.1394   22.0786 C   0  0  1  0  0  0  0  0  0  0  0  0
    8.7999  -13.8185   21.3327 C   0  0  0  0  0  0  0  0  0  0  0  0
    8.5278  -13.9601   19.8859 C   0  0  0  0  0  0  0  0  0  0  0  0
    7.6244  -13.1727   19.1774 C   0  0  0  0  0  0  0  0  0  0  0  0
    7.6549  -13.5985   17.9011 N   0  0  0  0  0  0  0  0  0  0  0  0
    8.5449  -14.6177   17.8065 C   0  0  0  0  0  0  0  0  0  0  0  0
    9.0671  -14.8275   19.0147 N   0  0  0  0  0  0  0  0  0  0  0  0
    9.1199  -14.9879   23.5004 C   0  0  0  0  0  0  0  0  0  0  0  0
   10.2512  -14.5189   23.7629 O   0  0  0  0  0  0  0  0  0  0  0  0
    5.4626  -13.0070   26.7297 C   0  0  0  0  0  0  0  0  0  0  0  0
    6.8665  -13.2400   26.2802 C   0  0  1  0  0  0  0  0  0  0  0  0
    7.6764  -12.0444   26.8083 C   0  0  0  0  0  0  0  0  0  0  0  0
    7.4571  -14.5203   26.6538 C   0  0  0  0  0  0  0  0  0  0  0  0
    8.6682  -15.0547   25.9969 C   0  0  2  0  0  0  0  0  0  0  0  0
    8.2784  -15.3391   24.5750 N   0  0  0  0  0  0  0  0  0  0  0  0
    9.1441  -16.3242   26.5225 C   0  0  0  0  0  0  0  0  0  0  0  0
    9.5232  -16.3768   27.7433 O   0  0  0  0  0  0  0  0  0  0  0  0
    9.2288  -17.5289   25.8296 O   0  0  0  0  0  0  0  0  0  0  0  0
  2  1  1  1
  2  5  1  0
  3  2  1  0
  4  3  1  0
  5  7  1  0
  6  5  2  0
  7  8  1  0
  8  9  1  1
  9 10  1  0
 10 11  2  0
 12 11  1  0
 13 12  1  0
 14 10  1  0
 14 13  2  0
 15 22  1  0
 15  8  1  0
 16 15  2  0
 18 19  1  1
 18 17  1  0
 20 18  1  0
 21 20  1  1
 21 22  1  0
 23 21  1  0
 24 23  2  0
 25 23  1  0
M  END
$$$$
