CHL.pdb
     RDKit          3D

 25 25  0  0  1  0  0  0  0  0999 V2000
    7.5088  -13.8668   17.9169 N   0  0  0  0  0  0  0  0  0  0  0  0
    8.6806  -14.1884   18.7046 C   0  0  1  0  0  0  0  0  0  0  0  0
    9.3867  -12.9023   19.0740 C   0  0  0  0  0  0  0  0  0  0  0  0
    8.2890  -11.7807   19.9866 S   0  0  0  0  0  0  0  0  0  0  0  0
    8.2980  -14.9456   19.9356 C   0  0  0  0  0  0  0  0  0  0  0  0
    7.1173  -14.7560   20.3786 O   0  0  0  0  0  0  0  0  0  0  0  0
    9.1976  -15.8277   20.5779 N   0  0  0  0  0  0  0  0  0  0  0  0
    8.8330  -16.4849   21.7848 C   0  0  1  0  0  0  0  0  0  0  0  0
    9.6170  -17.7815   21.8729 C   0  0  0  0  0  0  0  0  0  0  0  0
    9.3026  -18.5666   23.0862 C   0  0  0  0  0  0  0  0  0  0  0  0
    8.0441  -18.6234   23.6788 C   0  0  0  0  0  0  0  0  0  0  0  0
    8.1546  -19.4309   24.7498 N   0  0  0  0  0  0  0  0  0  0  0  0
    9.4360  -19.8683   24.8310 C   0  0  0  0  0  0  0  0  0  0  0  0
   10.1215  -19.3382   23.8184 N   0  0  0  0  0  0  0  0  0  0  0  0
    9.0077  -15.6484   22.9897 C   0  0  0  0  0  0  0  0  0  0  0  0
    9.9739  -14.8517   23.0137 O   0  0  0  0  0  0  0  0  0  0  0  0
    7.8864  -11.8683   26.6108 C   0  0  0  0  0  0  0  0  0  0  0  0
    7.0848  -13.1257   26.6717 C   0  0  1  0  0  0  0  0  0  0  0  0
    5.6296  -12.6810   26.8932 C   0  0  0  0  0  0  0  0  0  0  0  0
    7.2230  -14.0319   25.5371 C   0  0  0  0  0  0  0  0  0  0  0  0
    8.4255  -14.8661   25.3328 C   0  0  2  0  0  0  0  0  0  0  0  0
    8.1538  -15.6941   24.1099 N   0  0  0  0  0  0  0  0  0  0  0  0
    8.6953  -15.8265   26.3908 C   0  0  0  0  0  0  0  0  0  0  0  0
    7.9697  -16.8778   26.4616 O   0  0  0  0  0  0  0  0  0  0  0  0
    9.6901  -15.7339   27.3605 O   0  0  0  0  0  0  0  0  0  0  0  0
  2  1  1  1
  2  5  1  0
  3  2  1  0
  4  3  1  0
  5  7  1  0
  6  5  2  0
  7  8  1  0
  8  9  1  1
  9 10  1  0
 10 11  2  0
 12 11  1  0
 13 12  1  0
 14 10  1  0
 14 13  2  0
 15 22  1  0
 15  8  1  0
 16 15  2  0
 18 19  1  6
 18 17  1  0
 20 18  1  0
 21 20  1  1
 21 22  1  0
 23 21  1  0
 24 23  2  0
 25 23  1  0
M  END
$$$$
