CHL.pdb
     RDKit          3D

 25 25  0  0  1  0  0  0  0  0999 V2000
    7.5458  -15.0820   18.1397 N   0  0  0  0  0  0  0  0  0  0  0  0
    8.2924  -14.5049   19.2380 C   0  0  1  0  0  0  0  0  0  0  0  0
    7.7122  -13.1451   19.5597 C   0  0  0  0  0  0  0  0  0  0  0  0
    8.5782  -12.3662   20.9521 S   0  0  0  0  0  0  0  0  0  0  0  0
    8.2366  -15.3933   20.4391 C   0  0  0  0  0  0  0  0  0  0  0  0
    7.1279  -15.9826   20.6624 O   0  0  0  0  0  0  0  0  0  0  0  0
    9.3547  -15.5727   21.2862 N   0  0  0  0  0  0  0  0  0  0  0  0
    9.2756  -16.4229   22.4229 C   0  0  1  0  0  0  0  0  0  0  0  0
   10.3560  -17.4816   22.2980 C   0  0  0  0  0  0  0  0  0  0  0  0
    9.9629  -18.6094   21.4256 C   0  0  0  0  0  0  0  0  0  0  0  0
   10.3171  -18.7230   20.0840 C   0  0  0  0  0  0  0  0  0  0  0  0
    9.7784  -19.8718   19.6355 N   0  0  0  0  0  0  0  0  0  0  0  0
    9.1083  -20.4625   20.6562 C   0  0  0  0  0  0  0  0  0  0  0  0
    9.2272  -19.6888   21.7349 N   0  0  0  0  0  0  0  0  0  0  0  0
    9.3538  -15.6999   23.7087 C   0  0  0  0  0  0  0  0  0  0  0  0
   10.2973  -14.8918   23.8689 O   0  0  0  0  0  0  0  0  0  0  0  0
    5.4827  -12.6385   26.0682 C   0  0  0  0  0  0  0  0  0  0  0  0
    6.8813  -13.0938   25.8156 C   0  0  1  0  0  0  0  0  0  0  0  0
    7.7870  -12.0493   26.4888 C   0  0  0  0  0  0  0  0  0  0  0  0
    7.1990  -14.4556   26.2308 C   0  0  0  0  0  0  0  0  0  0  0  0
    8.5333  -15.0553   26.0222 C   0  0  2  0  0  0  0  0  0  0  0  0
    8.4323  -15.8655   24.7620 N   0  0  0  0  0  0  0  0  0  0  0  0
    8.9519  -15.9972   27.0480 C   0  0  0  0  0  0  0  0  0  0  0  0
    8.5749  -17.2158   26.9493 O   0  0  0  0  0  0  0  0  0  0  0  0
    9.7484  -15.7173   28.1552 O   0  0  0  0  0  0  0  0  0  0  0  0
  2  1  1  6
  2  5  1  0
  3  2  1  0
  4  3  1  0
  5  7  1  0
  6  5  2  0
  7  8  1  0
  8  9  1  6
  9 10  1  0
 10 11  2  0
 12 11  1  0
 13 12  1  0
 14 10  1  0
 14 13  2  0
 15 22  1  0
 15  8  1  0
 16 15  2  0
 18 19  1  1
 18 17  1  0
 20 18  1  0
 21 20  1  1
 21 22  1  0
 23 21  1  0
 24 23  2  0
 25 23  1  0
M  END
$$$$
