VGC.pdb
     RDKit          3D

 18 17  0  0  1  0  0  0  0  0999 V2000
   24.1252  -18.5561  -18.7623 C   0  0  0  0  0  0  0  0  0  0  0  0
   24.9587  -19.4377  -17.8581 C   0  0  1  0  0  0  0  0  0  0  0  0
   26.3138  -18.7645  -17.7208 C   0  0  0  0  0  0  0  0  0  0  0  0
   24.2914  -19.6282  -16.5140 C   0  0  2  0  0  0  0  0  0  0  0  0
   24.0589  -18.3391  -15.9317 N   0  0  0  0  0  0  0  0  0  0  0  0
   25.1071  -20.5062  -15.6313 C   0  0  0  0  0  0  0  0  0  0  0  0
   25.1961  -21.7316  -15.8806 O   0  0  0  0  0  0  0  0  0  0  0  0
   25.7877  -19.9703  -14.5066 N   0  0  0  0  0  0  0  0  0  0  0  0
   26.4898  -20.7327  -13.5378 C   0  0  0  0  0  0  0  0  0  0  0  0
   25.7116  -21.1779  -12.3686 C   0  0  0  0  0  0  0  0  0  0  0  0
   24.8307  -22.0924  -12.5488 O   0  0  0  0  0  0  0  0  0  0  0  0
   25.8459  -20.6886  -11.0451 N   0  0  0  0  0  0  0  0  0  0  0  0
   24.9638  -20.9664   -9.9473 C   0  0  1  0  0  0  0  0  0  0  0  0
   25.4250  -20.5171   -8.6105 C   0  0  0  0  0  0  0  0  0  0  0  0
   27.2281  -20.2012   -8.7442 S   0  0  0  0  0  0  0  0  0  0  0  0
   23.5377  -20.5655  -10.2093 C   0  0  0  0  0  0  0  0  0  0  0  0
   23.2621  -19.7634  -11.2907 O   0  0  0  0  0  0  0  0  0  0  0  0
   22.6048  -20.9387   -9.4821 O   0  0  0  0  0  0  0  0  0  0  0  0
  2  1  1  6
  2  3  1  0
  4  2  1  0
  4  5  1  1
  6  7  2  0
  6  4  1  0
  8  6  1  0
  9  8  1  0
  9 10  1  0
 10 12  1  0
 11 10  2  0
 12 13  1  0
 13 14  1  1
 13 16  1  0
 14 15  1  0
 16 18  2  0
 16 17  1  0
M  END
$$$$
