VGC.pdb
     RDKit          3D

 18 17  0  0  1  0  0  0  0  0999 V2000
   12.4831  -11.6722   -9.1190 C   0  0  0  0  0  0  0  0  0  0  0  0
   13.8240  -11.0996   -9.5235 C   0  0  1  0  0  0  0  0  0  0  0  0
   13.9533  -11.3087  -11.0228 C   0  0  0  0  0  0  0  0  0  0  0  0
   13.9279   -9.6367   -9.1530 C   0  0  2  0  0  0  0  0  0  0  0  0
   12.8669   -8.9239   -9.8019 N   0  0  0  0  0  0  0  0  0  0  0  0
   15.2683   -9.0906   -9.5003 C   0  0  0  0  0  0  0  0  0  0  0  0
   16.2430   -9.2993   -8.7400 O   0  0  0  0  0  0  0  0  0  0  0  0
   15.4563   -8.3338  -10.6866 N   0  0  0  0  0  0  0  0  0  0  0  0
   16.6892   -7.7749  -11.1114 C   0  0  0  0  0  0  0  0  0  0  0  0
   16.7184   -7.2197  -12.4759 C   0  0  0  0  0  0  0  0  0  0  0  0
   16.0887   -7.8558  -13.3944 O   0  0  0  0  0  0  0  0  0  0  0  0
   17.3819   -6.0331  -12.8769 N   0  0  0  0  0  0  0  0  0  0  0  0
   17.4243   -5.4963  -14.2074 C   0  0  1  0  0  0  0  0  0  0  0  0
   17.2474   -4.0278  -14.3239 C   0  0  0  0  0  0  0  0  0  0  0  0
   15.9096   -3.5553  -13.1594 S   0  0  0  0  0  0  0  0  0  0  0  0
   18.5991   -5.9824  -15.0117 C   0  0  0  0  0  0  0  0  0  0  0  0
   18.5866   -5.8098  -16.3750 O   0  0  0  0  0  0  0  0  0  0  0  0
   19.5776   -6.5306  -14.4822 O   0  0  0  0  0  0  0  0  0  0  0  0
  2  1  1  6
  2  3  1  0
  4  2  1  0
  4  5  1  6
  6  7  2  0
  6  4  1  0
  8  6  1  0
  9  8  1  0
  9 10  1  0
 10 12  1  0
 11 10  2  0
 12 13  1  0
 13 14  1  1
 13 16  1  0
 14 15  1  0
 16 18  2  0
 16 17  1  0
M  END
$$$$
