VGC.pdb
     RDKit          3D

 18 17  0  0  1  0  0  0  0  0999 V2000
   18.3111  -17.3908  -16.7522 C   0  0  0  0  0  0  0  0  0  0  0  0
   18.3175  -15.9326  -17.1558 C   0  0  1  0  0  0  0  0  0  0  0  0
   17.2484  -15.7706  -18.2230 C   0  0  0  0  0  0  0  0  0  0  0  0
   18.0590  -15.0350  -15.9660 C   0  0  2  0  0  0  0  0  0  0  0  0
   16.8754  -15.4905  -15.2977 N   0  0  0  0  0  0  0  0  0  0  0  0
   17.9572  -13.6098  -16.3830 C   0  0  0  0  0  0  0  0  0  0  0  0
   16.9994  -13.2368  -17.1009 O   0  0  0  0  0  0  0  0  0  0  0  0
   18.9353  -12.6648  -15.9759 N   0  0  0  0  0  0  0  0  0  0  0  0
   19.0060  -11.3197  -16.4216 C   0  0  0  0  0  0  0  0  0  0  0  0
   20.0037  -10.4634  -15.7565 C   0  0  0  0  0  0  0  0  0  0  0  0
   20.5838  -10.9229  -14.7091 O   0  0  0  0  0  0  0  0  0  0  0  0
   20.3917   -9.1641  -16.1693 N   0  0  0  0  0  0  0  0  0  0  0  0
   21.3949   -8.3447  -15.5508 C   0  0  1  0  0  0  0  0  0  0  0  0
   21.9384   -7.2415  -16.3808 C   0  0  0  0  0  0  0  0  0  0  0  0
   22.2240   -7.9251  -18.0601 S   0  0  0  0  0  0  0  0  0  0  0  0
   21.0164   -7.8726  -14.1735 C   0  0  0  0  0  0  0  0  0  0  0  0
   22.0026   -7.7286  -13.2272 O   0  0  0  0  0  0  0  0  0  0  0  0
   19.8440   -7.6073  -13.8677 O   0  0  0  0  0  0  0  0  0  0  0  0
  2  1  1  1
  2  3  1  0
  4  2  1  0
  4  5  1  6
  6  7  2  0
  6  4  1  0
  8  6  1  0
  9  8  1  0
  9 10  1  0
 10 12  1  0
 11 10  2  0
 12 13  1  0
 13 14  1  6
 13 16  1  0
 14 15  1  0
 16 18  2  0
 16 17  1  0
M  END
$$$$
