VGC.pdb
     RDKit          3D

 18 17  0  0  1  0  0  0  0  0999 V2000
   16.5404   -9.6640  -14.0738 C   0  0  0  0  0  0  0  0  0  0  0  0
   16.1690   -8.8388  -12.8611 C   0  0  1  0  0  0  0  0  0  0  0  0
   14.6711   -8.5972  -12.9400 C   0  0  0  0  0  0  0  0  0  0  0  0
   16.5536   -9.5457  -11.5803 C   0  0  2  0  0  0  0  0  0  0  0  0
   16.0168  -10.8745  -11.6120 N   0  0  0  0  0  0  0  0  0  0  0  0
   16.0947   -8.7811  -10.3886 C   0  0  0  0  0  0  0  0  0  0  0  0
   15.0163   -9.0883   -9.8277 O   0  0  0  0  0  0  0  0  0  0  0  0
   16.8664   -7.7044   -9.8780 N   0  0  0  0  0  0  0  0  0  0  0  0
   16.4933   -6.8783   -8.7866 C   0  0  0  0  0  0  0  0  0  0  0  0
   15.5401   -5.7948   -9.0842 C   0  0  0  0  0  0  0  0  0  0  0  0
   15.1675   -5.6431  -10.3020 O   0  0  0  0  0  0  0  0  0  0  0  0
   14.9855   -4.8931   -8.1417 N   0  0  0  0  0  0  0  0  0  0  0  0
   14.1364   -3.7748   -8.4396 C   0  0  1  0  0  0  0  0  0  0  0  0
   13.2384   -3.3284   -7.3461 C   0  0  0  0  0  0  0  0  0  0  0  0
   12.4047   -4.8271   -6.6921 S   0  0  0  0  0  0  0  0  0  0  0  0
   14.8667   -2.6197   -9.0685 C   0  0  0  0  0  0  0  0  0  0  0  0
   14.1377   -1.6246   -9.6744 O   0  0  0  0  0  0  0  0  0  0  0  0
   16.1042   -2.5371   -9.0542 O   0  0  0  0  0  0  0  0  0  0  0  0
  2  1  1  6
  2  3  1  0
  4  2  1  0
  4  5  1  6
  6  7  2  0
  6  4  1  0
  8  6  1  0
  9  8  1  0
  9 10  1  0
 10 12  1  0
 11 10  2  0
 12 13  1  0
 13 14  1  1
 13 16  1  0
 14 15  1  0
 16 18  2  0
 16 17  1  0
M  END
$$$$
