VGC.pdb
     RDKit          3D

 18 17  0  0  1  0  0  0  0  0999 V2000
   22.1642  -34.8015  -10.8351 C   0  0  0  0  0  0  0  0  0  0  0  0
   23.5618  -34.5405  -10.3174 C   0  0  1  0  0  0  0  0  0  0  0  0
   24.3731  -35.7934  -10.6009 C   0  0  0  0  0  0  0  0  0  0  0  0
   24.1695  -33.3214  -10.9751 C   0  0  2  0  0  0  0  0  0  0  0  0
   24.0543  -33.4631  -12.3969 N   0  0  0  0  0  0  0  0  0  0  0  0
   25.5798  -33.1263  -10.5410 C   0  0  0  0  0  0  0  0  0  0  0  0
   26.5171  -33.5568  -11.2536 O   0  0  0  0  0  0  0  0  0  0  0  0
   25.8769  -32.4560   -9.3252 N   0  0  0  0  0  0  0  0  0  0  0  0
   27.1737  -32.3129   -8.7678 C   0  0  0  0  0  0  0  0  0  0  0  0
   27.4816  -33.1635   -7.6048 C   0  0  0  0  0  0  0  0  0  0  0  0
   28.3882  -34.0601   -7.7423 O   0  0  0  0  0  0  0  0  0  0  0  0
   26.8663  -33.0841   -6.3304 N   0  0  0  0  0  0  0  0  0  0  0  0
   27.1493  -33.9234   -5.2009 C   0  0  1  0  0  0  0  0  0  0  0  0
   26.6705  -33.4304   -3.8859 C   0  0  0  0  0  0  0  0  0  0  0  0
   26.7761  -31.5985   -3.9298 S   0  0  0  0  0  0  0  0  0  0  0  0
   26.7861  -35.3665   -5.4218 C   0  0  0  0  0  0  0  0  0  0  0  0
   27.3206  -36.3200   -4.5888 O   0  0  0  0  0  0  0  0  0  0  0  0
   26.0184  -35.7205   -6.3293 O   0  0  0  0  0  0  0  0  0  0  0  0
  2  1  1  6
  2  3  1  0
  4  2  1  0
  4  5  1  6
  6  7  2  0
  6  4  1  0
  8  6  1  0
  9  8  1  0
  9 10  1  0
 10 12  1  0
 11 10  2  0
 12 13  1  0
 13 14  1  1
 13 16  1  0
 14 15  1  0
 16 18  2  0
 16 17  1  0
M  END
$$$$
