VGC.pdb
     RDKit          3D

 18 17  0  0  1  0  0  0  0  0999 V2000
   12.9306   -6.6572   -7.2586 C   0  0  0  0  0  0  0  0  0  0  0  0
   13.5556   -6.6669   -8.6365 C   0  0  1  0  0  0  0  0  0  0  0  0
   14.4054   -5.4116   -8.7390 C   0  0  0  0  0  0  0  0  0  0  0  0
   14.3784   -7.9172   -8.8549 C   0  0  2  0  0  0  0  0  0  0  0  0
   15.4324   -7.9468   -7.8837 N   0  0  0  0  0  0  0  0  0  0  0  0
   14.8953   -7.9809  -10.2492 C   0  0  0  0  0  0  0  0  0  0  0  0
   14.0993   -8.1531  -11.2023 O   0  0  0  0  0  0  0  0  0  0  0  0
   16.2840   -7.8486  -10.5131 N   0  0  0  0  0  0  0  0  0  0  0  0
   16.8665   -7.7821  -11.8051 C   0  0  0  0  0  0  0  0  0  0  0  0
   18.3362   -7.6886  -11.8542 C   0  0  0  0  0  0  0  0  0  0  0  0
   18.9339   -7.1324  -10.8653 O   0  0  0  0  0  0  0  0  0  0  0  0
   19.1649   -8.1626  -12.9019 N   0  0  0  0  0  0  0  0  0  0  0  0
   20.5892   -8.0072  -12.9896 C   0  0  1  0  0  0  0  0  0  0  0  0
   21.3521   -9.2105  -13.4037 C   0  0  0  0  0  0  0  0  0  0  0  0
   23.0786   -8.9749  -12.8269 S   0  0  0  0  0  0  0  0  0  0  0  0
   21.0116   -6.7861  -13.7602 C   0  0  0  0  0  0  0  0  0  0  0  0
   20.2861   -6.4166  -14.8673 O   0  0  0  0  0  0  0  0  0  0  0  0
   21.9911   -6.1029  -13.4255 O   0  0  0  0  0  0  0  0  0  0  0  0
  2  1  1  1
  2  3  1  0
  4  2  1  0
  4  5  1  1
  6  7  2  0
  6  4  1  0
  8  6  1  0
  9  8  1  0
  9 10  1  0
 10 12  1  0
 11 10  2  0
 12 13  1  0
 13 14  1  6
 13 16  1  0
 14 15  1  0
 16 18  2  0
 16 17  1  0
M  END
$$$$
