VGC.pdb
     RDKit          3D

 18 17  0  0  1  0  0  0  0  0999 V2000
   26.8692  -12.6510  -16.7648 C   0  0  0  0  0  0  0  0  0  0  0  0
   27.7605  -11.4376  -16.9162 C   0  0  1  0  0  0  0  0  0  0  0  0
   28.6387  -11.6901  -18.1301 C   0  0  0  0  0  0  0  0  0  0  0  0
   26.9428  -10.1746  -17.0718 C   0  0  2  0  0  0  0  0  0  0  0  0
   27.8367   -9.0735  -17.2797 N   0  0  0  0  0  0  0  0  0  0  0  0
   26.0540   -9.9644  -15.8965 C   0  0  0  0  0  0  0  0  0  0  0  0
   26.4819   -9.3460  -14.8935 O   0  0  0  0  0  0  0  0  0  0  0  0
   24.7228  -10.4578  -15.8983 N   0  0  0  0  0  0  0  0  0  0  0  0
   23.8176  -10.3680  -14.8095 C   0  0  0  0  0  0  0  0  0  0  0  0
   22.9029   -9.2129  -14.8148 C   0  0  0  0  0  0  0  0  0  0  0  0
   21.9093   -9.2325  -14.0042 O   0  0  0  0  0  0  0  0  0  0  0  0
   23.0178   -8.0651  -15.6384 N   0  0  0  0  0  0  0  0  0  0  0  0
   22.0956   -6.9664  -15.6912 C   0  0  1  0  0  0  0  0  0  0  0  0
   22.6940   -5.6210  -15.8733 C   0  0  0  0  0  0  0  0  0  0  0  0
   23.8691   -5.3652  -14.4867 S   0  0  0  0  0  0  0  0  0  0  0  0
   20.9436   -7.1966  -16.6309 C   0  0  0  0  0  0  0  0  0  0  0  0
   19.6925   -6.7602  -16.2661 O   0  0  0  0  0  0  0  0  0  0  0  0
   21.0892   -7.7647  -17.7238 O   0  0  0  0  0  0  0  0  0  0  0  0
  2  1  1  6
  2  3  1  0
  4  2  1  0
  4  5  1  1
  6  7  2  0
  6  4  1  0
  8  6  1  0
  9  8  1  0
  9 10  1  0
 10 12  1  0
 11 10  2  0
 12 13  1  0
 13 14  1  6
 13 16  1  0
 14 15  1  0
 16 18  2  0
 16 17  1  0
M  END
$$$$
