VGC.pdb
     RDKit          3D

 18 17  0  0  1  0  0  0  0  0999 V2000
   22.3556  -19.0751  -15.2123 C   0  0  0  0  0  0  0  0  0  0  0  0
   23.2406  -19.9066  -14.3094 C   0  0  1  0  0  0  0  0  0  0  0  0
   22.4657  -21.1724  -13.9844 C   0  0  0  0  0  0  0  0  0  0  0  0
   24.5628  -20.2170  -14.9752 C   0  0  2  0  0  0  0  0  0  0  0  0
   24.3036  -20.8618  -16.2290 N   0  0  0  0  0  0  0  0  0  0  0  0
   25.4290  -21.0397  -14.0873 C   0  0  0  0  0  0  0  0  0  0  0  0
   25.3069  -22.2874  -14.0785 O   0  0  0  0  0  0  0  0  0  0  0  0
   26.3950  -20.4257  -13.2474 N   0  0  0  0  0  0  0  0  0  0  0  0
   27.1758  -21.0996  -12.2732 C   0  0  0  0  0  0  0  0  0  0  0  0
   26.5778  -21.2289  -10.9328 C   0  0  0  0  0  0  0  0  0  0  0  0
   25.3521  -21.5989  -10.8575 O   0  0  0  0  0  0  0  0  0  0  0  0
   27.2355  -20.9832   -9.7016 N   0  0  0  0  0  0  0  0  0  0  0  0
   26.6385  -21.0413   -8.3975 C   0  0  1  0  0  0  0  0  0  0  0  0
   27.5143  -20.6610   -7.2619 C   0  0  0  0  0  0  0  0  0  0  0  0
   27.8611  -18.8665   -7.4304 S   0  0  0  0  0  0  0  0  0  0  0  0
   25.2992  -20.3603   -8.3217 C   0  0  0  0  0  0  0  0  0  0  0  0
   24.3485  -20.8600   -7.4644 O   0  0  0  0  0  0  0  0  0  0  0  0
   25.0288  -19.3619   -9.0062 O   0  0  0  0  0  0  0  0  0  0  0  0
  2  1  1  6
  2  3  1  0
  4  2  1  0
  4  5  1  6
  6  7  2  0
  6  4  1  0
  8  6  1  0
  9  8  1  0
  9 10  1  0
 10 12  1  0
 11 10  2  0
 12 13  1  0
 13 14  1  1
 13 16  1  0
 14 15  1  0
 16 18  2  0
 16 17  1  0
M  END
$$$$
