VGC.pdb
     RDKit          3D

 18 17  0  0  1  0  0  0  0  0999 V2000
   26.3262  -21.8910  -16.7431 C   0  0  0  0  0  0  0  0  0  0  0  0
   25.0703  -21.3780  -16.0730 C   0  0  1  0  0  0  0  0  0  0  0  0
   23.8979  -22.0320  -16.7846 C   0  0  0  0  0  0  0  0  0  0  0  0
   25.0719  -21.6939  -14.5938 C   0  0  2  0  0  0  0  0  0  0  0  0
   25.2155  -23.1106  -14.4285 N   0  0  0  0  0  0  0  0  0  0  0  0
   23.8444  -21.1714  -13.9336 C   0  0  0  0  0  0  0  0  0  0  0  0
   23.6786  -19.9344  -13.8146 O   0  0  0  0  0  0  0  0  0  0  0  0
   22.8560  -22.0605  -13.4356 N   0  0  0  0  0  0  0  0  0  0  0  0
   21.5788  -21.6740  -12.9539 C   0  0  0  0  0  0  0  0  0  0  0  0
   20.7311  -22.7518  -12.4148 C   0  0  0  0  0  0  0  0  0  0  0  0
   20.8292  -23.9140  -12.9481 O   0  0  0  0  0  0  0  0  0  0  0  0
   19.8067  -22.6276  -11.3474 N   0  0  0  0  0  0  0  0  0  0  0  0
   18.9524  -23.6652  -10.8436 C   0  0  1  0  0  0  0  0  0  0  0  0
   18.5379  -23.5369   -9.4247 C   0  0  0  0  0  0  0  0  0  0  0  0
   19.0719  -25.0709   -8.5699 S   0  0  0  0  0  0  0  0  0  0  0  0
   17.7835  -23.9666  -11.7414 C   0  0  0  0  0  0  0  0  0  0  0  0
   17.4222  -25.2772  -11.9427 O   0  0  0  0  0  0  0  0  0  0  0  0
   17.1357  -23.0696  -12.3019 O   0  0  0  0  0  0  0  0  0  0  0  0
  2  1  1  6
  2  3  1  0
  4  2  1  0
  4  5  1  6
  6  7  2  0
  6  4  1  0
  8  6  1  0
  9  8  1  0
  9 10  1  0
 10 12  1  0
 11 10  2  0
 12 13  1  0
 13 14  1  1
 13 16  1  0
 14 15  1  0
 16 18  2  0
 16 17  1  0
M  END
$$$$
