VGC.pdb
     RDKit          3D

 18 17  0  0  1  0  0  0  0  0999 V2000
   28.0567  -18.0580  -16.4589 C   0  0  0  0  0  0  0  0  0  0  0  0
   27.4449  -18.9543  -15.4044 C   0  0  1  0  0  0  0  0  0  0  0  0
   28.4296  -19.0029  -14.2484 C   0  0  0  0  0  0  0  0  0  0  0  0
   26.0931  -18.4372  -14.9648 C   0  0  2  0  0  0  0  0  0  0  0  0
   26.2464  -17.0877  -14.5062 N   0  0  0  0  0  0  0  0  0  0  0  0
   25.4941  -19.3201  -13.9270 C   0  0  0  0  0  0  0  0  0  0  0  0
   25.1377  -20.4838  -14.2280 O   0  0  0  0  0  0  0  0  0  0  0  0
   25.3210  -18.8582  -12.5958 N   0  0  0  0  0  0  0  0  0  0  0  0
   24.7878  -19.6257  -11.5283 C   0  0  0  0  0  0  0  0  0  0  0  0
   25.7620  -20.1738  -10.5684 C   0  0  0  0  0  0  0  0  0  0  0  0
   26.6912  -20.9307  -11.0248 O   0  0  0  0  0  0  0  0  0  0  0  0
   25.7735  -19.9402   -9.1704 N   0  0  0  0  0  0  0  0  0  0  0  0
   26.5144  -20.6876   -8.1942 C   0  0  1  0  0  0  0  0  0  0  0  0
   27.7614  -20.0553   -7.6977 C   0  0  0  0  0  0  0  0  0  0  0  0
   27.2609  -18.7085   -6.5555 S   0  0  0  0  0  0  0  0  0  0  0  0
   25.6645  -21.2065   -7.0665 C   0  0  0  0  0  0  0  0  0  0  0  0
   26.1981  -22.1372   -6.2076 O   0  0  0  0  0  0  0  0  0  0  0  0
   24.5002  -20.8183   -6.8873 O   0  0  0  0  0  0  0  0  0  0  0  0
  2  1  1  6
  2  3  1  0
  4  2  1  0
  4  5  1  1
  6  7  2  0
  6  4  1  0
  8  6  1  0
  9  8  1  0
  9 10  1  0
 10 12  1  0
 11 10  2  0
 12 13  1  0
 13 14  1  1
 13 16  1  0
 14 15  1  0
 16 18  2  0
 16 17  1  0
M  END
$$$$
