VGC.pdb
     RDKit          3D

 18 17  0  0  1  0  0  0  0  0999 V2000
   15.4128  -15.6190  -17.2209 C   0  0  0  0  0  0  0  0  0  0  0  0
   16.5133  -14.6621  -17.6238 C   0  0  1  0  0  0  0  0  0  0  0  0
   15.8327  -13.3895  -18.0990 C   0  0  0  0  0  0  0  0  0  0  0  0
   17.4544  -14.3943  -16.4703 C   0  0  2  0  0  0  0  0  0  0  0  0
   16.6884  -13.9192  -15.3556 N   0  0  0  0  0  0  0  0  0  0  0  0
   18.5265  -13.4400  -16.8647 C   0  0  0  0  0  0  0  0  0  0  0  0
   19.5308  -13.8540  -17.4905 O   0  0  0  0  0  0  0  0  0  0  0  0
   18.4245  -12.0619  -16.5393 N   0  0  0  0  0  0  0  0  0  0  0  0
   19.3309  -11.0547  -16.9597 C   0  0  0  0  0  0  0  0  0  0  0  0
   19.8816  -10.1895  -15.9018 C   0  0  0  0  0  0  0  0  0  0  0  0
   19.1733  -10.0075  -14.8483 O   0  0  0  0  0  0  0  0  0  0  0  0
   21.1367   -9.5317  -15.9351 N   0  0  0  0  0  0  0  0  0  0  0  0
   21.6964   -8.7247  -14.8883 C   0  0  1  0  0  0  0  0  0  0  0  0
   23.1575   -8.8622  -14.6695 C   0  0  0  0  0  0  0  0  0  0  0  0
   23.4952  -10.6482  -14.4146 S   0  0  0  0  0  0  0  0  0  0  0  0
   21.2755   -7.2819  -14.9549 C   0  0  0  0  0  0  0  0  0  0  0  0
   21.3301   -6.5215  -13.8114 O   0  0  0  0  0  0  0  0  0  0  0  0
   20.8842   -6.7585  -16.0090 O   0  0  0  0  0  0  0  0  0  0  0  0
  2  1  1  1
  2  3  1  0
  4  2  1  0
  4  5  1  1
  6  7  2  0
  6  4  1  0
  8  6  1  0
  9  8  1  0
  9 10  1  0
 10 12  1  0
 11 10  2  0
 12 13  1  0
 13 14  1  6
 13 16  1  0
 14 15  1  0
 16 18  2  0
 16 17  1  0
M  END
$$$$
