VGC.pdb
     RDKit          3D

 18 17  0  0  1  0  0  0  0  0999 V2000
   24.1367  -31.5335   -9.0985 C   0  0  0  0  0  0  0  0  0  0  0  0
   24.9492  -32.4703   -8.2314 C   0  0  1  0  0  0  0  0  0  0  0  0
   24.1956  -33.7889   -8.1886 C   0  0  0  0  0  0  0  0  0  0  0  0
   26.3489  -32.6448   -8.7777 C   0  0  2  0  0  0  0  0  0  0  0  0
   26.2587  -33.1773  -10.1056 N   0  0  0  0  0  0  0  0  0  0  0  0
   27.1700  -33.5035   -7.8811 C   0  0  0  0  0  0  0  0  0  0  0  0
   27.9817  -34.3224   -8.3732 O   0  0  0  0  0  0  0  0  0  0  0  0
   27.0442  -33.4055   -6.4704 N   0  0  0  0  0  0  0  0  0  0  0  0
   27.8149  -34.1360   -5.5295 C   0  0  0  0  0  0  0  0  0  0  0  0
   27.4554  -33.9569   -4.1119 C   0  0  0  0  0  0  0  0  0  0  0  0
   27.0288  -32.8049   -3.7436 O   0  0  0  0  0  0  0  0  0  0  0  0
   27.5341  -34.9488   -3.1024 N   0  0  0  0  0  0  0  0  0  0  0  0
   27.1778  -34.7806   -1.7221 C   0  0  1  0  0  0  0  0  0  0  0  0
   25.8776  -35.3636   -1.3087 C   0  0  0  0  0  0  0  0  0  0  0  0
   25.4022  -34.5496    0.2662 S   0  0  0  0  0  0  0  0  0  0  0  0
   28.2826  -35.1489   -0.7698 C   0  0  0  0  0  0  0  0  0  0  0  0
   28.2847  -34.5973    0.4890 O   0  0  0  0  0  0  0  0  0  0  0  0
   29.1881  -35.9358   -1.0849 O   0  0  0  0  0  0  0  0  0  0  0  0
  2  1  1  6
  2  3  1  0
  4  2  1  0
  4  5  1  6
  6  7  2  0
  6  4  1  0
  8  6  1  0
  9  8  1  0
  9 10  1  0
 10 12  1  0
 11 10  2  0
 12 13  1  0
 13 14  1  1
 13 16  1  0
 14 15  1  0
 16 18  2  0
 16 17  1  0
M  END
$$$$
