VGC.pdb
     RDKit          3D

 18 17  0  0  1  0  0  0  0  0999 V2000
   27.5547  -27.7123  -18.5001 C   0  0  0  0  0  0  0  0  0  0  0  0
   27.6724  -26.2089  -18.3762 C   0  0  1  0  0  0  0  0  0  0  0  0
   26.2579  -25.6698  -18.2455 C   0  0  0  0  0  0  0  0  0  0  0  0
   28.5283  -25.8235  -17.1900 C   0  0  2  0  0  0  0  0  0  0  0  0
   27.9799  -26.4312  -16.0132 N   0  0  0  0  0  0  0  0  0  0  0  0
   28.6326  -24.3441  -17.0635 C   0  0  0  0  0  0  0  0  0  0  0  0
   29.2454  -23.6851  -17.9364 O   0  0  0  0  0  0  0  0  0  0  0  0
   28.0443  -23.6685  -15.9622 N   0  0  0  0  0  0  0  0  0  0  0  0
   28.0209  -22.2609  -15.7860 C   0  0  0  0  0  0  0  0  0  0  0  0
   26.7454  -21.5869  -16.0854 C   0  0  0  0  0  0  0  0  0  0  0  0
   25.6698  -22.2816  -16.0126 O   0  0  0  0  0  0  0  0  0  0  0  0
   26.5894  -20.2257  -16.4486 N   0  0  0  0  0  0  0  0  0  0  0  0
   25.3464  -19.5156  -16.5536 C   0  0  1  0  0  0  0  0  0  0  0  0
   24.6038  -19.3101  -15.2857 C   0  0  0  0  0  0  0  0  0  0  0  0
   23.0413  -18.4473  -15.7138 S   0  0  0  0  0  0  0  0  0  0  0  0
   25.4487  -18.2450  -17.3526 C   0  0  0  0  0  0  0  0  0  0  0  0
   26.6046  -17.5055  -17.2775 O   0  0  0  0  0  0  0  0  0  0  0  0
   24.5243  -17.8471  -18.0775 O   0  0  0  0  0  0  0  0  0  0  0  0
  2  1  1  1
  2  3  1  0
  4  2  1  0
  4  5  1  1
  6  7  2  0
  6  4  1  0
  8  6  1  0
  9  8  1  0
  9 10  1  0
 10 12  1  0
 11 10  2  0
 12 13  1  0
 13 14  1  1
 13 16  1  0
 14 15  1  0
 16 18  2  0
 16 17  1  0
M  END
$$$$
