VGC.pdb
     RDKit          3D

 18 17  0  0  1  0  0  0  0  0999 V2000
   18.5397  -13.3519  -16.1498 C   0  0  0  0  0  0  0  0  0  0  0  0
   18.4263  -11.8470  -16.2588 C   0  0  1  0  0  0  0  0  0  0  0  0
   18.9161  -11.2759  -14.9388 C   0  0  0  0  0  0  0  0  0  0  0  0
   19.2307  -11.3213  -17.4270 C   0  0  2  0  0  0  0  0  0  0  0  0
   20.5669  -11.8310  -17.3288 N   0  0  0  0  0  0  0  0  0  0  0  0
   19.1972   -9.8340  -17.4738 C   0  0  0  0  0  0  0  0  0  0  0  0
   18.1293   -9.2428  -17.7599 O   0  0  0  0  0  0  0  0  0  0  0  0
   20.3643   -9.0746  -17.1972 N   0  0  0  0  0  0  0  0  0  0  0  0
   20.4575   -7.6614  -17.2809 C   0  0  0  0  0  0  0  0  0  0  0  0
   20.3223   -6.9222  -16.0135 C   0  0  0  0  0  0  0  0  0  0  0  0
   19.6895   -7.4906  -15.0536 O   0  0  0  0  0  0  0  0  0  0  0  0
   20.8331   -5.6271  -15.7476 N   0  0  0  0  0  0  0  0  0  0  0  0
   20.7416   -4.9214  -14.5010 C   0  0  1  0  0  0  0  0  0  0  0  0
   21.9848   -4.2604  -14.0332 C   0  0  0  0  0  0  0  0  0  0  0  0
   23.3796   -5.3690  -14.4744 S   0  0  0  0  0  0  0  0  0  0  0  0
   19.5554   -3.9996  -14.4209 C   0  0  0  0  0  0  0  0  0  0  0  0
   19.1024   -3.6074  -13.1841 O   0  0  0  0  0  0  0  0  0  0  0  0
   18.9769   -3.5816  -15.4353 O   0  0  0  0  0  0  0  0  0  0  0  0
  2  1  1  1
  2  3  1  0
  4  2  1  0
  4  5  1  1
  6  7  2  0
  6  4  1  0
  8  6  1  0
  9  8  1  0
  9 10  1  0
 10 12  1  0
 11 10  2  0
 12 13  1  0
 13 14  1  6
 13 16  1  0
 14 15  1  0
 16 18  2  0
 16 17  1  0
M  END
$$$$
