VGC.pdb
     RDKit          3D

 18 17  0  0  1  0  0  0  0  0999 V2000
   17.9544  -11.2846  -17.6964 C   0  0  0  0  0  0  0  0  0  0  0  0
   18.5128  -10.4459  -16.5675 C   0  0  1  0  0  0  0  0  0  0  0  0
   18.1625   -9.0015  -16.8827 C   0  0  0  0  0  0  0  0  0  0  0  0
   17.9470  -10.8791  -15.2332 C   0  0  2  0  0  0  0  0  0  0  0  0
   16.5162  -10.8279  -15.3046 N   0  0  0  0  0  0  0  0  0  0  0  0
   18.4861  -10.0425  -14.1265 C   0  0  0  0  0  0  0  0  0  0  0  0
   19.7016  -10.1115  -13.8275 O   0  0  0  0  0  0  0  0  0  0  0  0
   17.6369   -9.1644  -13.4031 N   0  0  0  0  0  0  0  0  0  0  0  0
   18.0367   -8.3666  -12.3002 C   0  0  0  0  0  0  0  0  0  0  0  0
   16.9985   -7.5059  -11.7068 C   0  0  0  0  0  0  0  0  0  0  0  0
   16.1901   -6.9078  -12.5028 O   0  0  0  0  0  0  0  0  0  0  0  0
   16.8022   -7.2736  -10.3224 N   0  0  0  0  0  0  0  0  0  0  0  0
   15.7958   -6.4315   -9.7406 C   0  0  1  0  0  0  0  0  0  0  0  0
   15.4201   -6.7379   -8.3384 C   0  0  0  0  0  0  0  0  0  0  0  0
   15.2477   -8.5611   -8.2162 S   0  0  0  0  0  0  0  0  0  0  0  0
   16.0553   -4.9632   -9.9407 C   0  0  0  0  0  0  0  0  0  0  0  0
   15.0071   -4.0822   -9.8228 O   0  0  0  0  0  0  0  0  0  0  0  0
   17.1848   -4.5245  -10.2056 O   0  0  0  0  0  0  0  0  0  0  0  0
  2  1  1  6
  2  3  1  0
  4  2  1  0
  4  5  1  6
  6  7  2  0
  6  4  1  0
  8  6  1  0
  9  8  1  0
  9 10  1  0
 10 12  1  0
 11 10  2  0
 12 13  1  0
 13 14  1  1
 13 16  1  0
 14 15  1  0
 16 18  2  0
 16 17  1  0
M  END
$$$$
