VGC.pdb
     RDKit          3D

 18 17  0  0  1  0  0  0  0  0999 V2000
   17.6939  -16.2858  -17.6910 C   0  0  0  0  0  0  0  0  0  0  0  0
   17.4510  -14.7935  -17.6295 C   0  0  1  0  0  0  0  0  0  0  0  0
   15.9638  -14.5838  -17.8590 C   0  0  0  0  0  0  0  0  0  0  0  0
   17.8971  -14.2213  -16.3023 C   0  0  2  0  0  0  0  0  0  0  0  0
   17.2260  -14.9275  -15.2507 N   0  0  0  0  0  0  0  0  0  0  0  0
   17.6510  -12.7546  -16.2421 C   0  0  0  0  0  0  0  0  0  0  0  0
   16.6091  -12.3187  -15.6980 O   0  0  0  0  0  0  0  0  0  0  0  0
   18.5857  -11.8405  -16.7956 N   0  0  0  0  0  0  0  0  0  0  0  0
   18.4399  -10.4293  -16.8046 C   0  0  0  0  0  0  0  0  0  0  0  0
   19.2007   -9.6880  -15.7835 C   0  0  0  0  0  0  0  0  0  0  0  0
   18.9993   -9.9871  -14.5527 O   0  0  0  0  0  0  0  0  0  0  0  0
   20.1485   -8.6641  -16.0330 N   0  0  0  0  0  0  0  0  0  0  0  0
   20.9057   -7.9531  -15.0424 C   0  0  1  0  0  0  0  0  0  0  0  0
   22.3416   -7.7392  -15.3488 C   0  0  0  0  0  0  0  0  0  0  0  0
   23.0615   -9.3865  -15.7191 S   0  0  0  0  0  0  0  0  0  0  0  0
   20.2403   -6.6873  -14.5751 C   0  0  0  0  0  0  0  0  0  0  0  0
   20.5482   -6.1972  -13.3286 O   0  0  0  0  0  0  0  0  0  0  0  0
   19.4261   -6.0727  -15.2805 O   0  0  0  0  0  0  0  0  0  0  0  0
  2  1  1  1
  2  3  1  0
  4  2  1  0
  4  5  1  1
  6  7  2  0
  6  4  1  0
  8  6  1  0
  9  8  1  0
  9 10  1  0
 10 12  1  0
 11 10  2  0
 12 13  1  0
 13 14  1  6
 13 16  1  0
 14 15  1  0
 16 18  2  0
 16 17  1  0
M  END
$$$$
