SIM.pdb
     RDKit          3D

 23 22  0  0  1  0  0  0  0  0999 V2000
    7.0728  -19.4352   24.5778 O   0  0  0  0  0  0  0  0  0  0  0  0
    5.8227  -18.8943   24.7942 C   0  0  0  0  0  0  0  0  0  0  0  0
    5.5003  -17.8830   23.7098 C   0  0  2  0  0  0  0  0  0  0  0  0
    5.4512  -18.4701   22.4096 N   0  0  0  0  0  0  0  0  0  0  0  0
    6.5128  -16.7962   23.8162 C   0  0  0  0  0  0  0  0  0  0  0  0
    7.4559  -16.8453   22.9831 O   0  0  0  0  0  0  0  0  0  0  0  0
    5.3098  -11.9343   26.1125 C   0  0  0  0  0  0  0  0  0  0  0  0
    5.7882  -12.9831   25.0867 C   0  0  0  0  0  0  0  0  0  0  0  0
    7.0167  -13.5924   25.7094 C   0  0  2  0  0  0  0  0  0  0  0  0
    8.1032  -12.5175   25.6543 C   0  0  0  0  0  0  0  0  0  0  0  0
    7.4926  -14.8324   25.0095 C   0  0  2  0  0  0  0  0  0  0  0  0
    6.4334  -15.7692   24.7846 N   0  0  0  0  0  0  0  0  0  0  0  0
    8.6489  -15.4860   25.6193 C   0  0  0  0  0  0  0  0  0  0  0  0
    8.5470  -16.2522   26.6040 O   0  0  0  0  0  0  0  0  0  0  0  0
   10.9912  -13.8492   29.5629 C   0  0  0  0  0  0  0  0  0  0  0  0
   11.4117  -15.6007   29.7471 S   0  0  0  0  0  0  0  0  0  0  0  0
   11.6973  -16.4717   28.2523 C   0  0  0  0  0  0  0  0  0  0  0  0
   10.8260  -16.3989   27.0943 C   0  0  0  0  0  0  0  0  0  0  0  0
   11.1514  -15.7138   25.8527 C   0  0  2  0  0  0  0  0  0  0  0  0
    9.9660  -15.2775   25.1125 N   0  0  0  0  0  0  0  0  0  0  0  0
   12.1143  -16.3367   24.9455 C   0  0  0  0  0  0  0  0  0  0  0  0
   13.3485  -16.3338   24.9624 O   0  0  0  0  0  0  0  0  0  0  0  0
   11.5931  -17.0896   23.8318 O   0  0  0  0  0  0  0  0  0  0  0  0
  2  1  1  0
  3  4  1  6
  3  2  1  0
  5  3  1  0
  6  5  2  0
  8  7  1  0
  9  8  1  0
  9 11  1  0
  9 10  1  6
 11 13  1  0
 11 12  1  1
 12  5  1  0
 13 20  1  0
 14 13  2  0
 15 16  1  0
 17 16  1  0
 18 17  1  0
 19 18  1  1
 19 21  1  0
 20 19  1  0
 21 22  2  0
 21 23  1  0
M  END
$$$$
