SIM.pdb
     RDKit          3D

 23 22  0  0  1  0  0  0  0  0999 V2000
    7.6438  -17.2754   21.6528 O   0  0  0  0  0  0  0  0  0  0  0  0
    6.7529  -16.2531   21.4011 C   0  0  0  0  0  0  0  0  0  0  0  0
    7.4777  -14.9200   21.4074 C   0  0  2  0  0  0  0  0  0  0  0  0
    8.3827  -14.7828   20.3120 N   0  0  0  0  0  0  0  0  0  0  0  0
    8.1488  -14.7981   22.7311 C   0  0  0  0  0  0  0  0  0  0  0  0
    9.3948  -14.9805   22.7304 O   0  0  0  0  0  0  0  0  0  0  0  0
    5.9329  -11.4355   26.5190 C   0  0  0  0  0  0  0  0  0  0  0  0
    6.9203  -12.0504   25.5051 C   0  0  0  0  0  0  0  0  0  0  0  0
    7.2748  -13.3943   26.0854 C   0  0  2  0  0  0  0  0  0  0  0  0
    8.0518  -13.1139   27.3724 C   0  0  0  0  0  0  0  0  0  0  0  0
    8.1030  -14.2454   25.1669 C   0  0  2  0  0  0  0  0  0  0  0  0
    7.4455  -14.4973   23.9202 N   0  0  0  0  0  0  0  0  0  0  0  0
    8.6064  -15.4858   25.7534 C   0  0  0  0  0  0  0  0  0  0  0  0
    7.8773  -16.4862   25.9399 O   0  0  0  0  0  0  0  0  0  0  0  0
   14.9515  -19.6304   28.1616 C   0  0  0  0  0  0  0  0  0  0  0  0
   14.0713  -18.0921   27.7907 S   0  0  0  0  0  0  0  0  0  0  0  0
   12.6617  -18.2561   26.7608 C   0  0  0  0  0  0  0  0  0  0  0  0
   11.8662  -17.1361   26.2936 C   0  0  0  0  0  0  0  0  0  0  0  0
   10.4962  -16.8642   26.7007 C   0  0  2  0  0  0  0  0  0  0  0  0
    9.9717  -15.6150   26.1459 N   0  0  0  0  0  0  0  0  0  0  0  0
   10.1575  -16.9701   28.1193 C   0  0  0  0  0  0  0  0  0  0  0  0
    9.9936  -17.9646   28.8317 O   0  0  0  0  0  0  0  0  0  0  0  0
    9.9731  -15.7442   28.8558 O   0  0  0  0  0  0  0  0  0  0  0  0
  2  1  1  0
  3  4  1  6
  3  2  1  0
  5  3  1  0
  6  5  2  0
  8  7  1  0
  9  8  1  0
  9 11  1  0
  9 10  1  1
 11 13  1  0
 11 12  1  6
 12  5  1  0
 13 20  1  0
 14 13  2  0
 15 16  1  0
 17 16  1  0
 18 17  1  0
 19 18  1  1
 19 21  1  0
 20 19  1  0
 21 22  2  0
 21 23  1  0
M  END
$$$$
