SIM.pdb
     RDKit          3D

 23 22  0  0  1  0  0  0  0  0999 V2000
    8.7500  -18.5229   21.3534 O   0  0  0  0  0  0  0  0  0  0  0  0
    9.4695  -17.7920   20.4312 C   0  0  0  0  0  0  0  0  0  0  0  0
    9.0475  -16.3354   20.4805 C   0  0  2  0  0  0  0  0  0  0  0  0
    9.6662  -15.5504   19.4613 N   0  0  0  0  0  0  0  0  0  0  0  0
    9.3492  -15.8432   21.8532 C   0  0  0  0  0  0  0  0  0  0  0  0
   10.5589  -15.5818   22.0858 O   0  0  0  0  0  0  0  0  0  0  0  0
    6.5149  -12.9388   26.3623 C   0  0  0  0  0  0  0  0  0  0  0  0
    7.8421  -13.5983   25.9326 C   0  0  0  0  0  0  0  0  0  0  0  0
    7.4684  -14.4889   24.7769 C   0  0  2  0  0  0  0  0  0  0  0  0
    6.4784  -15.5153   25.3294 C   0  0  0  0  0  0  0  0  0  0  0  0
    8.6407  -15.1949   24.1593 C   0  0  2  0  0  0  0  0  0  0  0  0
    8.3524  -15.6752   22.8417 N   0  0  0  0  0  0  0  0  0  0  0  0
    9.2372  -16.2461   24.9809 C   0  0  0  0  0  0  0  0  0  0  0  0
    8.9308  -17.4534   24.8556 O   0  0  0  0  0  0  0  0  0  0  0  0
   10.3888  -12.5702   29.4378 C   0  0  0  0  0  0  0  0  0  0  0  0
   10.4303  -14.3800   29.3999 S   0  0  0  0  0  0  0  0  0  0  0  0
   11.6158  -15.0874   28.3187 C   0  0  0  0  0  0  0  0  0  0  0  0
   11.6025  -16.4769   27.9011 C   0  0  0  0  0  0  0  0  0  0  0  0
   10.8750  -16.9908   26.7507 C   0  0  2  0  0  0  0  0  0  0  0  0
   10.2104  -15.9397   25.9780 N   0  0  0  0  0  0  0  0  0  0  0  0
    9.9710  -18.1232   26.9478 C   0  0  0  0  0  0  0  0  0  0  0  0
    8.7409  -18.1592   27.0418 O   0  0  0  0  0  0  0  0  0  0  0  0
   10.5578  -19.4357   27.0568 O   0  0  0  0  0  0  0  0  0  0  0  0
  2  1  1  0
  3  4  1  6
  3  2  1  0
  5  3  1  0
  6  5  2  0
  8  7  1  0
  9  8  1  0
  9 11  1  0
  9 10  1  1
 11 13  1  0
 11 12  1  6
 12  5  1  0
 13 20  1  0
 14 13  2  0
 15 16  1  0
 17 16  1  0
 18 17  1  0
 19 18  1  1
 19 21  1  0
 20 19  1  0
 21 22  2  0
 21 23  1  0
M  END
$$$$
