SIM.pdb
     RDKit          3D

 23 22  0  0  1  0  0  0  0  0999 V2000
   10.4634  -17.7420   18.4031 O   0  0  0  0  0  0  0  0  0  0  0  0
    9.6587  -17.1893   19.3774 C   0  0  0  0  0  0  0  0  0  0  0  0
    8.3001  -17.8649   19.3730 C   0  0  2  0  0  0  0  0  0  0  0  0
    7.4805  -17.4412   18.2837 N   0  0  0  0  0  0  0  0  0  0  0  0
    7.6802  -17.6000   20.7008 C   0  0  0  0  0  0  0  0  0  0  0  0
    6.8872  -16.6229   20.7478 O   0  0  0  0  0  0  0  0  0  0  0  0
    5.7034  -21.6166   23.7043 C   0  0  0  0  0  0  0  0  0  0  0  0
    5.8776  -20.2959   22.9255 C   0  0  0  0  0  0  0  0  0  0  0  0
    6.8901  -19.5150   23.7212 C   0  0  2  0  0  0  0  0  0  0  0  0
    6.2572  -19.2627   25.0903 C   0  0  0  0  0  0  0  0  0  0  0  0
    7.2719  -18.2078   23.0892 C   0  0  2  0  0  0  0  0  0  0  0  0
    7.9548  -18.3861   21.8434 N   0  0  0  0  0  0  0  0  0  0  0  0
    8.0005  -17.2858   23.9582 C   0  0  0  0  0  0  0  0  0  0  0  0
    9.2349  -17.3728   24.1472 O   0  0  0  0  0  0  0  0  0  0  0  0
    5.8696  -10.8953   25.7200 C   0  0  0  0  0  0  0  0  0  0  0  0
    6.7633  -11.6337   27.1108 S   0  0  0  0  0  0  0  0  0  0  0  0
    7.7185  -13.0537   26.7284 C   0  0  0  0  0  0  0  0  0  0  0  0
    7.2785  -14.1080   25.8339 C   0  0  0  0  0  0  0  0  0  0  0  0
    8.0458  -15.3033   25.5192 C   0  0  2  0  0  0  0  0  0  0  0  0
    7.3280  -16.2292   24.6410 N   0  0  0  0  0  0  0  0  0  0  0  0
    8.6782  -16.0337   26.6168 C   0  0  0  0  0  0  0  0  0  0  0  0
    8.2717  -16.9913   27.2810 O   0  0  0  0  0  0  0  0  0  0  0  0
    9.9917  -15.6089   27.0331 O   0  0  0  0  0  0  0  0  0  0  0  0
  2  1  1  0
  3  4  1  6
  3  2  1  0
  5  3  1  0
  6  5  2  0
  8  7  1  0
  9  8  1  0
  9 11  1  0
  9 10  1  1
 11 13  1  0
 11 12  1  6
 12  5  1  0
 13 20  1  0
 14 13  2  0
 15 16  1  0
 17 16  1  0
 18 17  1  0
 19 18  1  1
 19 21  1  0
 20 19  1  0
 21 22  2  0
 21 23  1  0
M  END
$$$$
