SIM.pdb
     RDKit          3D

 23 22  0  0  1  0  0  0  0  0999 V2000
    7.3973  -20.1661   21.7374 O   0  0  0  0  0  0  0  0  0  0  0  0
    6.4248  -19.3780   21.1580 C   0  0  0  0  0  0  0  0  0  0  0  0
    7.0164  -18.5869   20.0063 C   0  0  2  0  0  0  0  0  0  0  0  0
    7.8203  -19.3917   19.1439 N   0  0  0  0  0  0  0  0  0  0  0  0
    7.7689  -17.4492   20.6037 C   0  0  0  0  0  0  0  0  0  0  0  0
    8.9945  -17.6530   20.8089 O   0  0  0  0  0  0  0  0  0  0  0  0
    7.3671  -12.3591   18.9909 C   0  0  0  0  0  0  0  0  0  0  0  0
    7.8510  -13.7552   19.4355 C   0  0  0  0  0  0  0  0  0  0  0  0
    7.5525  -13.8101   20.9107 C   0  0  2  0  0  0  0  0  0  0  0  0
    8.3957  -12.7117   21.5597 C   0  0  0  0  0  0  0  0  0  0  0  0
    7.8730  -15.1353   21.5394 C   0  0  2  0  0  0  0  0  0  0  0  0
    7.1601  -16.2142   20.9248 N   0  0  0  0  0  0  0  0  0  0  0  0
    7.7409  -15.1818   22.9942 C   0  0  0  0  0  0  0  0  0  0  0  0
    6.6302  -15.2548   23.5670 O   0  0  0  0  0  0  0  0  0  0  0  0
    7.4449  -11.0042   27.0474 C   0  0  0  0  0  0  0  0  0  0  0  0
    6.5122  -12.4555   27.5972 S   0  0  0  0  0  0  0  0  0  0  0  0
    7.1035  -14.0003   27.0151 C   0  0  0  0  0  0  0  0  0  0  0  0
    7.5400  -14.2380   25.6519 C   0  0  0  0  0  0  0  0  0  0  0  0
    8.7733  -14.9152   25.2815 C   0  0  2  0  0  0  0  0  0  0  0  0
    8.8888  -15.1456   23.8403 N   0  0  0  0  0  0  0  0  0  0  0  0
    9.1552  -16.1186   26.0191 C   0  0  0  0  0  0  0  0  0  0  0  0
    9.4275  -17.2529   25.6157 O   0  0  0  0  0  0  0  0  0  0  0  0
    9.2442  -16.0225   27.4551 O   0  0  0  0  0  0  0  0  0  0  0  0
  2  1  1  0
  3  4  1  1
  3  2  1  0
  5  3  1  0
  6  5  2  0
  8  7  1  0
  9  8  1  0
  9 11  1  0
  9 10  1  1
 11 13  1  0
 11 12  1  6
 12  5  1  0
 13 20  1  0
 14 13  2  0
 15 16  1  0
 17 16  1  0
 18 17  1  0
 19 18  1  6
 19 21  1  0
 20 19  1  0
 21 22  2  0
 21 23  1  0
M  END
$$$$
