SIM.pdb
     RDKit          3D

 23 22  0  0  1  0  0  0  0  0999 V2000
    5.5931  -18.5683   22.7561 O   0  0  0  0  0  0  0  0  0  0  0  0
    5.6075  -19.2538   21.5594 C   0  0  0  0  0  0  0  0  0  0  0  0
    5.7804  -18.2821   20.4069 C   0  0  2  0  0  0  0  0  0  0  0  0
    5.8567  -18.9395   19.1421 N   0  0  0  0  0  0  0  0  0  0  0  0
    6.9877  -17.4639   20.7076 C   0  0  0  0  0  0  0  0  0  0  0  0
    8.0882  -18.0734   20.6507 O   0  0  0  0  0  0  0  0  0  0  0  0
    7.9678  -12.0639   19.4352 C   0  0  0  0  0  0  0  0  0  0  0  0
    7.3736  -13.1170   20.3938 C   0  0  0  0  0  0  0  0  0  0  0  0
    8.3696  -14.2467   20.3836 C   0  0  2  0  0  0  0  0  0  0  0  0
    8.3342  -14.8366   18.9731 C   0  0  0  0  0  0  0  0  0  0  0  0
    8.0714  -15.3194   21.3908 C   0  0  2  0  0  0  0  0  0  0  0  0
    6.9183  -16.0908   21.0370 N   0  0  0  0  0  0  0  0  0  0  0  0
    7.9924  -14.8657   22.7779 C   0  0  0  0  0  0  0  0  0  0  0  0
    7.4969  -13.7614   23.0974 O   0  0  0  0  0  0  0  0  0  0  0  0
    7.6726  -11.7619   27.4339 C   0  0  0  0  0  0  0  0  0  0  0  0
    6.1805  -12.7760   27.2794 S   0  0  0  0  0  0  0  0  0  0  0  0
    6.4470  -14.4526   26.8402 C   0  0  0  0  0  0  0  0  0  0  0  0
    6.9220  -14.8822   25.5382 C   0  0  0  0  0  0  0  0  0  0  0  0
    8.2866  -15.2946   25.2474 C   0  0  2  0  0  0  0  0  0  0  0  0
    8.4838  -15.6726   23.8467 N   0  0  0  0  0  0  0  0  0  0  0  0
    8.9216  -16.2722   26.1301 C   0  0  0  0  0  0  0  0  0  0  0  0
    9.0598  -17.4925   26.0063 O   0  0  0  0  0  0  0  0  0  0  0  0
    9.4970  -15.7876   27.3602 O   0  0  0  0  0  0  0  0  0  0  0  0
  2  1  1  0
  3  4  1  6
  3  2  1  0
  5  3  1  0
  6  5  2  0
  8  7  1  0
  9  8  1  0
  9 11  1  0
  9 10  1  6
 11 13  1  0
 11 12  1  6
 12  5  1  0
 13 20  1  0
 14 13  2  0
 15 16  1  0
 17 16  1  0
 18 17  1  0
 19 18  1  1
 19 21  1  0
 20 19  1  0
 21 22  2  0
 21 23  1  0
M  END
$$$$
