SIM.pdb
     RDKit          3D

 23 22  0  0  1  0  0  0  0  0999 V2000
    7.2541  -17.8187   20.6481 O   0  0  0  0  0  0  0  0  0  0  0  0
    7.6452  -17.3205   21.8733 C   0  0  0  0  0  0  0  0  0  0  0  0
    7.8825  -15.8251   21.7734 C   0  0  2  0  0  0  0  0  0  0  0  0
    8.6726  -15.4699   20.6388 N   0  0  0  0  0  0  0  0  0  0  0  0
    8.4944  -15.3967   23.0616 C   0  0  0  0  0  0  0  0  0  0  0  0
    9.7507  -15.4622   23.1178 O   0  0  0  0  0  0  0  0  0  0  0  0
    5.9497  -11.7190   26.1927 C   0  0  0  0  0  0  0  0  0  0  0  0
    7.0881  -12.3766   25.3849 C   0  0  0  0  0  0  0  0  0  0  0  0
    7.4570  -13.6039   26.1759 C   0  0  2  0  0  0  0  0  0  0  0  0
    8.2123  -13.1077   27.4096 C   0  0  0  0  0  0  0  0  0  0  0  0
    8.3110  -14.5754   25.4137 C   0  0  2  0  0  0  0  0  0  0  0  0
    7.7272  -14.9433   24.1592 N   0  0  0  0  0  0  0  0  0  0  0  0
    8.7286  -15.7582   26.1638 C   0  0  0  0  0  0  0  0  0  0  0  0
    7.9226  -16.6456   26.5242 O   0  0  0  0  0  0  0  0  0  0  0  0
   14.8614  -18.6920   25.6115 C   0  0  0  0  0  0  0  0  0  0  0  0
   14.1087  -19.1948   27.1797 S   0  0  0  0  0  0  0  0  0  0  0  0
   12.3836  -18.9117   27.3163 C   0  0  0  0  0  0  0  0  0  0  0  0
   11.7009  -17.7755   26.7262 C   0  0  0  0  0  0  0  0  0  0  0  0
   10.5226  -17.1323   27.2873 C   0  0  2  0  0  0  0  0  0  0  0  0
   10.0941  -15.9582   26.5249 N   0  0  0  0  0  0  0  0  0  0  0  0
   10.5046  -16.8403   28.7200 C   0  0  0  0  0  0  0  0  0  0  0  0
   10.5458  -15.7615   29.3182 O   0  0  0  0  0  0  0  0  0  0  0  0
   10.4269  -17.9570   29.6288 O   0  0  0  0  0  0  0  0  0  0  0  0
  2  1  1  0
  3  4  1  6
  3  2  1  0
  5  3  1  0
  6  5  2  0
  8  7  1  0
  9  8  1  0
  9 11  1  0
  9 10  1  1
 11 13  1  0
 11 12  1  6
 12  5  1  0
 13 20  1  0
 14 13  2  0
 15 16  1  0
 17 16  1  0
 18 17  1  0
 19 18  1  6
 19 21  1  0
 20 19  1  0
 21 22  2  0
 21 23  1  0
M  END
$$$$
