SIM.pdb
     RDKit          3D

 23 22  0  0  1  0  0  0  0  0999 V2000
    8.0138  -18.0767   21.7651 O   0  0  0  0  0  0  0  0  0  0  0  0
    8.4504  -17.4547   20.6141 C   0  0  0  0  0  0  0  0  0  0  0  0
    8.0383  -15.9944   20.6253 C   0  0  2  0  0  0  0  0  0  0  0  0
    8.4945  -15.2870   19.4724 N   0  0  0  0  0  0  0  0  0  0  0  0
    8.5434  -15.4115   21.8992 C   0  0  0  0  0  0  0  0  0  0  0  0
    9.7781  -15.1668   21.9358 O   0  0  0  0  0  0  0  0  0  0  0  0
    6.5792  -11.7153   26.1217 C   0  0  0  0  0  0  0  0  0  0  0  0
    7.7627  -12.4259   25.4321 C   0  0  0  0  0  0  0  0  0  0  0  0
    7.1799  -13.7094   24.9017 C   0  0  2  0  0  0  0  0  0  0  0  0
    6.5698  -14.4319   26.1036 C   0  0  0  0  0  0  0  0  0  0  0  0
    8.1901  -14.5969   24.2341 C   0  0  2  0  0  0  0  0  0  0  0  0
    7.7029  -15.1447   23.0043 N   0  0  0  0  0  0  0  0  0  0  0  0
    8.7584  -15.6415   25.0838 C   0  0  0  0  0  0  0  0  0  0  0  0
    8.0723  -16.5825   25.5431 O   0  0  0  0  0  0  0  0  0  0  0  0
    9.9560  -12.9889   28.5445 C   0  0  0  0  0  0  0  0  0  0  0  0
   10.6962  -14.3057   29.5428 S   0  0  0  0  0  0  0  0  0  0  0  0
   11.2279  -15.7210   28.6546 C   0  0  0  0  0  0  0  0  0  0  0  0
   10.3940  -16.4470   27.7149 C   0  0  0  0  0  0  0  0  0  0  0  0
   10.7150  -16.6579   26.3116 C   0  0  2  0  0  0  0  0  0  0  0  0
   10.1413  -15.6362   25.4338 N   0  0  0  0  0  0  0  0  0  0  0  0
   10.5081  -17.9889   25.7426 C   0  0  0  0  0  0  0  0  0  0  0  0
    9.4663  -18.5779   25.4406 O   0  0  0  0  0  0  0  0  0  0  0  0
   11.6767  -18.7880   25.4694 O   0  0  0  0  0  0  0  0  0  0  0  0
  2  1  1  0
  3  4  1  6
  3  2  1  0
  5  3  1  0
  6  5  2  0
  8  7  1  0
  9  8  1  0
  9 11  1  0
  9 10  1  1
 11 13  1  0
 11 12  1  6
 12  5  1  0
 13 20  1  0
 14 13  2  0
 15 16  1  0
 17 16  1  0
 18 17  1  0
 19 18  1  1
 19 21  1  0
 20 19  1  0
 21 22  2  0
 21 23  1  0
M  END
$$$$
