SIM.pdb
     RDKit          3D

 23 22  0  0  1  0  0  0  0  0999 V2000
    8.5724  -17.7398   20.4535 O   0  0  0  0  0  0  0  0  0  0  0  0
    7.3976  -17.0944   20.7786 C   0  0  0  0  0  0  0  0  0  0  0  0
    7.5946  -15.5916   20.7077 C   0  0  2  0  0  0  0  0  0  0  0  0
    8.3190  -15.1876   19.5459 N   0  0  0  0  0  0  0  0  0  0  0  0
    8.2592  -15.1816   21.9756 C   0  0  0  0  0  0  0  0  0  0  0  0
    9.4850  -14.9073   21.8856 O   0  0  0  0  0  0  0  0  0  0  0  0
    5.6116  -12.1164   25.6574 C   0  0  0  0  0  0  0  0  0  0  0  0
    6.6728  -12.6236   24.6586 C   0  0  0  0  0  0  0  0  0  0  0  0
    7.2171  -13.8799   25.2861 C   0  0  2  0  0  0  0  0  0  0  0  0
    7.9143  -13.4471   26.5766 C   0  0  0  0  0  0  0  0  0  0  0  0
    8.1855  -14.6186   24.4084 C   0  0  2  0  0  0  0  0  0  0  0  0
    7.5714  -15.1009   23.2082 N   0  0  0  0  0  0  0  0  0  0  0  0
    8.9425  -15.6784   25.0715 C   0  0  0  0  0  0  0  0  0  0  0  0
    8.4874  -16.8341   25.2270 O   0  0  0  0  0  0  0  0  0  0  0  0
   10.6540  -14.0546   30.6549 C   0  0  0  0  0  0  0  0  0  0  0  0
   11.8064  -15.4442   30.5157 S   0  0  0  0  0  0  0  0  0  0  0  0
   11.8691  -16.2211   28.9448 C   0  0  0  0  0  0  0  0  0  0  0  0
   11.4079  -15.6012   27.7167 C   0  0  0  0  0  0  0  0  0  0  0  0
   10.8629  -16.3226   26.5768 C   0  0  2  0  0  0  0  0  0  0  0  0
   10.2542  -15.4405   25.5794 N   0  0  0  0  0  0  0  0  0  0  0  0
    9.9976  -17.4737   26.8305 C   0  0  0  0  0  0  0  0  0  0  0  0
   10.2678  -18.6747   26.9199 O   0  0  0  0  0  0  0  0  0  0  0  0
    8.5894  -17.2238   27.0139 O   0  0  0  0  0  0  0  0  0  0  0  0
  2  1  1  0
  3  4  1  6
  3  2  1  0
  5  3  1  0
  6  5  2  0
  8  7  1  0
  9  8  1  0
  9 11  1  0
  9 10  1  1
 11 13  1  0
 11 12  1  6
 12  5  1  0
 13 20  1  0
 14 13  2  0
 15 16  1  0
 17 16  1  0
 18 17  1  0
 19 18  1  1
 19 21  1  0
 20 19  1  0
 21 22  2  0
 21 23  1  0
M  END
$$$$
