SIM.pdb
     RDKit          3D

 23 22  0  0  1  0  0  0  0  0999 V2000
    6.8419  -17.6751   20.4885 O   0  0  0  0  0  0  0  0  0  0  0  0
    8.0471  -17.0067   20.4330 C   0  0  0  0  0  0  0  0  0  0  0  0
    7.8171  -15.5116   20.5521 C   0  0  2  0  0  0  0  0  0  0  0  0
    8.3458  -14.7854   19.4428 N   0  0  0  0  0  0  0  0  0  0  0  0
    8.4015  -15.0858   21.8539 C   0  0  0  0  0  0  0  0  0  0  0  0
    9.6197  -14.7678   21.8275 O   0  0  0  0  0  0  0  0  0  0  0  0
    5.6170  -12.2004   25.6095 C   0  0  0  0  0  0  0  0  0  0  0  0
    6.6886  -12.6727   24.6047 C   0  0  0  0  0  0  0  0  0  0  0  0
    7.2214  -13.9541   25.1899 C   0  0  2  0  0  0  0  0  0  0  0  0
    7.8814  -13.5774   26.5170 C   0  0  0  0  0  0  0  0  0  0  0  0
    8.2165  -14.6496   24.3067 C   0  0  2  0  0  0  0  0  0  0  0  0
    7.6495  -15.0368   23.0502 N   0  0  0  0  0  0  0  0  0  0  0  0
    8.9255  -15.7666   24.9277 C   0  0  0  0  0  0  0  0  0  0  0  0
    8.5487  -16.9541   24.8055 O   0  0  0  0  0  0  0  0  0  0  0  0
    9.7742  -13.9177   30.1794 C   0  0  0  0  0  0  0  0  0  0  0  0
   11.3589  -14.3401   29.4122 S   0  0  0  0  0  0  0  0  0  0  0  0
   11.4638  -15.9521   28.7301 C   0  0  0  0  0  0  0  0  0  0  0  0
   11.7780  -16.2235   27.3398 C   0  0  0  0  0  0  0  0  0  0  0  0
   10.8145  -16.6618   26.3416 C   0  0  2  0  0  0  0  0  0  0  0  0
   10.0968  -15.5513   25.7130 N   0  0  0  0  0  0  0  0  0  0  0  0
    9.8825  -17.7314   26.6961 C   0  0  0  0  0  0  0  0  0  0  0  0
    8.7268  -17.6770   27.1258 O   0  0  0  0  0  0  0  0  0  0  0  0
   10.3343  -19.0914   26.5375 O   0  0  0  0  0  0  0  0  0  0  0  0
  2  1  1  0
  3  4  1  6
  3  2  1  0
  5  3  1  0
  6  5  2  0
  8  7  1  0
  9  8  1  0
  9 11  1  0
  9 10  1  1
 11 13  1  0
 11 12  1  6
 12  5  1  0
 13 20  1  0
 14 13  2  0
 15 16  1  0
 17 16  1  0
 18 17  1  0
 19 18  1  1
 19 21  1  0
 20 19  1  0
 21 22  2  0
 21 23  1  0
M  END
$$$$
