GRP.pdb
     RDKit          3D

 23 23  0  0  1  0  0  0  0  0999 V2000
   27.5361  -21.9233  -15.3998 N   0  0  0  0  0  0  0  0  0  0  0  0
   27.0107  -22.5099  -14.1901 C   0  0  0  0  0  0  0  0  0  0  0  0
   26.7674  -21.4455  -13.1666 C   0  0  0  0  0  0  0  0  0  0  0  0
   27.4827  -20.3986  -13.1444 O   0  0  0  0  0  0  0  0  0  0  0  0
   21.0925  -22.0125  -15.0465 N   0  0  0  0  0  0  0  0  0  0  0  0
   20.6717  -21.2831  -13.9030 C   0  0  0  0  0  0  0  0  0  0  0  0
   19.4435  -21.2715  -13.5180 N   0  0  0  0  0  0  0  0  0  0  0  0
   21.6188  -20.5286  -13.1355 N   0  0  0  0  0  0  0  0  0  0  0  0
   22.9445  -20.2619  -13.6049 C   0  0  0  0  0  0  0  0  0  0  0  0
   23.6439  -19.3323  -12.6461 C   0  0  0  0  0  0  0  0  0  0  0  0
   23.9596  -20.1033  -11.4022 C   0  0  0  0  0  0  0  0  0  0  0  0
   25.4516  -20.4039  -11.2815 C   0  0  2  0  0  0  0  0  0  0  0  0
   25.7595  -21.5340  -12.1913 N   0  0  0  0  0  0  0  0  0  0  0  0
   25.6546  -20.9343   -9.9231 C   0  0  0  0  0  0  0  0  0  0  0  0
   25.1486  -22.1053   -9.7368 O   0  0  0  0  0  0  0  0  0  0  0  0
   19.2035  -20.7286  -12.6712 N   0  0  0  0  0  0  0  0  0  0  0  0
   26.3394  -20.2836   -8.8465 C   0  0  0  0  0  0  0  0  0  0  0  0
   26.9067  -18.9927   -9.0219 C   0  0  0  0  0  0  0  0  0  0  0  0
   27.0851  -18.4781   -7.6146 C   0  0  0  0  0  0  0  0  0  0  0  0
   27.5097  -19.7768   -6.8943 C   0  0  2  0  0  0  0  0  0  0  0  0
   26.5271  -20.7356   -7.5374 C   0  0  0  0  0  0  0  0  0  0  0  0
   25.3023  -20.8789   -6.7290 O   0  0  0  0  0  0  0  0  0  0  0  0
   24.2071  -20.5160   -7.1913 O   0  0  0  0  0  0  0  0  0  0  0  0
  1  2  1  0
  3  4  2  0
  3  2  1  0
  5  6  1  0
  6  8  1  0
  7  6  2  0
  8  9  1  0
  9 10  1  0
 10 11  1  0
 12 11  1  1
 12 13  1  0
 13  3  1  0
 14 16  1  0
 14 12  1  0
 15 14  2  0
 16 17  1  0
 18 17  1  0
 19 20  1  0
 19 18  1  0
 20 16  1  0
 20 21  1  1
 21 23  1  0
 22 21  2  0
M  END
$$$$
