GRP.pdb
     RDKit          3D

 23 23  0  0  1  0  0  0  0  0999 V2000
   19.6424  -19.6794  -14.2404 N   0  0  0  0  0  0  0  0  0  0  0  0
   20.6835  -19.9580  -15.2006 C   0  0  0  0  0  0  0  0  0  0  0  0
   22.0094  -19.5194  -14.6625 C   0  0  0  0  0  0  0  0  0  0  0  0
   22.1781  -18.3291  -14.2589 O   0  0  0  0  0  0  0  0  0  0  0  0
   26.0632  -19.7882   -8.3504 N   0  0  0  0  0  0  0  0  0  0  0  0
   25.4710  -20.7035   -9.2604 C   0  0  0  0  0  0  0  0  0  0  0  0
   24.8133  -21.7338   -8.8572 N   0  0  0  0  0  0  0  0  0  0  0  0
   25.5922  -20.5006  -10.6745 N   0  0  0  0  0  0  0  0  0  0  0  0
   26.6363  -21.1026  -11.4468 C   0  0  0  0  0  0  0  0  0  0  0  0
   26.4897  -20.7052  -12.8936 C   0  0  0  0  0  0  0  0  0  0  0  0
   25.0986  -21.0478  -13.3284 C   0  0  0  0  0  0  0  0  0  0  0  0
   24.4356  -19.8944  -14.0775 C   0  0  2  0  0  0  0  0  0  0  0  0
   23.1218  -20.3731  -14.5719 N   0  0  0  0  0  0  0  0  0  0  0  0
   25.2459  -19.6707  -15.2862 C   0  0  0  0  0  0  0  0  0  0  0  0
   25.2690  -20.6745  -16.0947 O   0  0  0  0  0  0  0  0  0  0  0  0
   24.4637  -22.3978   -9.5687 N   0  0  0  0  0  0  0  0  0  0  0  0
   25.9724  -18.4818  -15.6186 C   0  0  0  0  0  0  0  0  0  0  0  0
   26.0818  -17.4140  -14.6877 C   0  0  0  0  0  0  0  0  0  0  0  0
   27.2610  -16.6148  -15.1858 C   0  0  0  0  0  0  0  0  0  0  0  0
   27.0485  -16.7256  -16.7117 C   0  0  1  0  0  0  0  0  0  0  0  0
   26.6740  -18.1924  -16.7921 C   0  0  0  0  0  0  0  0  0  0  0  0
   27.8522  -19.0385  -17.0575 O   0  0  0  0  0  0  0  0  0  0  0  0
   28.2932  -19.7858  -16.1677 O   0  0  0  0  0  0  0  0  0  0  0  0
  1  2  1  0
  3  4  2  0
  3  2  1  0
  5  6  1  0
  6  8  1  0
  7  6  2  0
  8  9  1  0
  9 10  1  0
 10 11  1  0
 12 11  1  1
 12 13  1  0
 13  3  1  0
 14 16  1  0
 14 12  1  0
 15 14  2  0
 16 17  1  0
 18 17  1  0
 19 20  1  0
 19 18  1  0
 20 16  1  0
 20 21  1  6
 21 23  1  0
 22 21  2  0
M  END
$$$$
