GRP.pdb
     RDKit          3D

 23 23  0  0  1  0  0  0  0  0999 V2000
   18.7535  -17.3312  -16.1219 N   0  0  0  0  0  0  0  0  0  0  0  0
   19.8665  -17.7492  -16.9404 C   0  0  0  0  0  0  0  0  0  0  0  0
   21.1297  -17.7311  -16.1379 C   0  0  0  0  0  0  0  0  0  0  0  0
   21.3218  -16.8358  -15.2606 O   0  0  0  0  0  0  0  0  0  0  0  0
   28.0960  -20.3002  -12.6948 N   0  0  0  0  0  0  0  0  0  0  0  0
   26.9546  -20.6573  -11.9290 C   0  0  0  0  0  0  0  0  0  0  0  0
   27.0583  -21.2176  -10.7749 N   0  0  0  0  0  0  0  0  0  0  0  0
   25.6362  -20.3989  -12.4294 N   0  0  0  0  0  0  0  0  0  0  0  0
   25.3764  -19.3988  -13.4199 C   0  0  0  0  0  0  0  0  0  0  0  0
   25.3228  -20.0386  -14.7839 C   0  0  0  0  0  0  0  0  0  0  0  0
   23.9017  -20.0070  -15.2537 C   0  0  0  0  0  0  0  0  0  0  0  0
   23.4298  -18.5847  -15.5460 C   0  0  2  0  0  0  0  0  0  0  0  0
   22.1557  -18.6776  -16.2995 N   0  0  0  0  0  0  0  0  0  0  0  0
   24.4009  -18.0175  -16.4962 C   0  0  0  0  0  0  0  0  0  0  0  0
   24.3606  -18.5522  -17.6685 O   0  0  0  0  0  0  0  0  0  0  0  0
   26.1998  -21.3317  -10.2097 N   0  0  0  0  0  0  0  0  0  0  0  0
   25.3387  -16.9673  -16.2330 C   0  0  0  0  0  0  0  0  0  0  0  0
   25.4580  -16.4101  -14.9314 C   0  0  0  0  0  0  0  0  0  0  0  0
   26.8060  -15.7320  -14.9468 C   0  0  0  0  0  0  0  0  0  0  0  0
   26.8213  -15.1742  -16.3870 C   0  0  2  0  0  0  0  0  0  0  0  0
   26.2506  -16.3770  -17.1122 C   0  0  0  0  0  0  0  0  0  0  0  0
   27.3171  -17.2619  -17.6160 O   0  0  0  0  0  0  0  0  0  0  0  0
   27.5088  -18.3687  -17.0840 O   0  0  0  0  0  0  0  0  0  0  0  0
  1  2  1  0
  3  4  2  0
  3  2  1  0
  5  6  1  0
  6  8  1  0
  7  6  2  0
  8  9  1  0
  9 10  1  0
 10 11  1  0
 12 11  1  6
 12 13  1  0
 13  3  1  0
 14 16  1  0
 14 12  1  0
 15 14  2  0
 16 17  1  0
 18 17  1  0
 19 20  1  0
 19 18  1  0
 20 16  1  0
 20 21  1  6
 21 23  1  0
 22 21  2  0
M  END
$$$$
