GRP.pdb
     RDKit          3D

 23 23  0  0  1  0  0  0  0  0999 V2000
   23.9343  -17.5065  -17.5926 N   0  0  0  0  0  0  0  0  0  0  0  0
   23.0334  -17.2243  -16.5006 C   0  0  0  0  0  0  0  0  0  0  0  0
   22.7620  -18.4737  -15.7226 C   0  0  0  0  0  0  0  0  0  0  0  0
   23.2381  -19.5855  -16.1041 O   0  0  0  0  0  0  0  0  0  0  0  0
   25.6404  -20.8633   -9.2240 N   0  0  0  0  0  0  0  0  0  0  0  0
   25.4513  -21.1441  -10.6031 C   0  0  0  0  0  0  0  0  0  0  0  0
   26.4095  -21.5740  -11.3472 N   0  0  0  0  0  0  0  0  0  0  0  0
   24.1676  -20.9531  -11.2124 N   0  0  0  0  0  0  0  0  0  0  0  0
   22.9952  -20.6533  -10.4479 C   0  0  0  0  0  0  0  0  0  0  0  0
   21.8091  -20.5234  -11.3694 C   0  0  0  0  0  0  0  0  0  0  0  0
   22.0583  -19.3637  -12.2829 C   0  0  0  0  0  0  0  0  0  0  0  0
   21.8215  -19.7299  -13.7460 C   0  0  2  0  0  0  0  0  0  0  0  0
   21.9844  -18.4959  -14.5524 N   0  0  0  0  0  0  0  0  0  0  0  0
   20.3954  -20.0787  -13.8559 C   0  0  0  0  0  0  0  0  0  0  0  0
   19.5962  -19.1464  -13.4637 O   0  0  0  0  0  0  0  0  0  0  0  0
   26.2237  -21.7001  -12.3566 N   0  0  0  0  0  0  0  0  0  0  0  0
   19.8536  -21.3118  -14.3435 C   0  0  0  0  0  0  0  0  0  0  0  0
   20.7078  -22.3922  -14.6925 C   0  0  0  0  0  0  0  0  0  0  0  0
   19.7970  -23.5954  -14.6829 C   0  0  0  0  0  0  0  0  0  0  0  0
   18.5106  -22.9763  -15.2725 C   0  0  1  0  0  0  0  0  0  0  0  0
   18.5118  -21.6631  -14.5150 C   0  0  0  0  0  0  0  0  0  0  0  0
   17.7110  -21.7496  -13.2799 O   0  0  0  0  0  0  0  0  0  0  0  0
   18.2747  -21.7386  -12.1722 O   0  0  0  0  0  0  0  0  0  0  0  0
  1  2  1  0
  3  4  2  0
  3  2  1  0
  5  6  1  0
  6  8  1  0
  7  6  2  0
  8  9  1  0
  9 10  1  0
 10 11  1  0
 12 11  1  1
 12 13  1  0
 13  3  1  0
 14 16  1  0
 14 12  1  0
 15 14  2  0
 16 17  1  0
 18 17  1  0
 19 20  1  0
 19 18  1  0
 20 16  1  0
 20 21  1  1
 21 23  1  0
 22 21  2  0
M  END
$$$$
