GRP.pdb
     RDKit          3D

 23 23  0  0  1  0  0  0  0  0999 V2000
   19.1138  -23.2651   -6.6886 N   0  0  0  0  0  0  0  0  0  0  0  0
   20.0305  -23.6035   -7.7510 C   0  0  0  0  0  0  0  0  0  0  0  0
   20.5561  -22.3575   -8.3923 C   0  0  0  0  0  0  0  0  0  0  0  0
   19.8675  -21.2926   -8.3894 O   0  0  0  0  0  0  0  0  0  0  0  0
   26.7979  -19.6572  -13.8363 N   0  0  0  0  0  0  0  0  0  0  0  0
   26.8133  -20.8054  -13.0007 C   0  0  0  0  0  0  0  0  0  0  0  0
   27.7789  -21.6559  -13.0317 N   0  0  0  0  0  0  0  0  0  0  0  0
   25.7368  -21.0511  -12.0864 N   0  0  0  0  0  0  0  0  0  0  0  0
   24.6125  -20.1722  -11.9748 C   0  0  0  0  0  0  0  0  0  0  0  0
   24.3239  -19.9011  -10.5202 C   0  0  0  0  0  0  0  0  0  0  0  0
   23.7637  -21.1526   -9.9190 C   0  0  0  0  0  0  0  0  0  0  0  0
   22.2466  -21.0805   -9.7638 C   0  0  2  0  0  0  0  0  0  0  0  0
   21.8108  -22.2882   -9.0213 N   0  0  0  0  0  0  0  0  0  0  0  0
   21.6880  -21.2357  -11.1172 C   0  0  0  0  0  0  0  0  0  0  0  0
   22.0141  -22.3409  -11.6950 O   0  0  0  0  0  0  0  0  0  0  0  0
   27.7185  -22.4844  -12.4158 N   0  0  0  0  0  0  0  0  0  0  0  0
   20.8494  -20.3013  -11.8065 C   0  0  0  0  0  0  0  0  0  0  0  0
   20.4882  -19.0671  -11.2023 C   0  0  0  0  0  0  0  0  0  0  0  0
   20.0463  -18.2084  -12.3619 C   0  0  0  0  0  0  0  0  0  0  0  0
   19.3216  -19.2617  -13.2286 C   0  0  2  0  0  0  0  0  0  0  0  0
   20.3121  -20.4013  -13.0928 C   0  0  0  0  0  0  0  0  0  0  0  0
   21.2907  -20.4027  -14.1958 O   0  0  0  0  0  0  0  0  0  0  0  0
   22.4712  -20.0797  -13.9791 O   0  0  0  0  0  0  0  0  0  0  0  0
  1  2  1  0
  3  4  2  0
  3  2  1  0
  5  6  1  0
  6  8  1  0
  7  6  2  0
  8  9  1  0
  9 10  1  0
 10 11  1  0
 12 11  1  6
 12 13  1  0
 13  3  1  0
 14 16  1  0
 14 12  1  0
 15 14  2  0
 16 17  1  0
 18 17  1  0
 19 20  1  0
 19 18  1  0
 20 16  1  0
 20 21  1  6
 21 23  1  0
 22 21  2  0
M  END
$$$$
