GRP.pdb
     RDKit          3D

 23 23  0  0  1  0  0  0  0  0999 V2000
   19.3681  -18.1807  -15.9744 N   0  0  0  0  0  0  0  0  0  0  0  0
   20.4131  -19.0491  -16.4615 C   0  0  0  0  0  0  0  0  0  0  0  0
   21.7026  -18.7405  -15.7673 C   0  0  0  0  0  0  0  0  0  0  0  0
   21.9054  -17.5931  -15.2668 O   0  0  0  0  0  0  0  0  0  0  0  0
   27.2018  -20.7003   -9.9853 N   0  0  0  0  0  0  0  0  0  0  0  0
   25.8163  -21.0094  -10.0237 C   0  0  0  0  0  0  0  0  0  0  0  0
   25.0576  -20.8605   -8.9947 N   0  0  0  0  0  0  0  0  0  0  0  0
   25.2169  -21.5032  -11.2288 N   0  0  0  0  0  0  0  0  0  0  0  0
   25.9252  -21.5499  -12.4718 C   0  0  0  0  0  0  0  0  0  0  0  0
   25.6284  -20.3066  -13.2711 C   0  0  0  0  0  0  0  0  0  0  0  0
   24.3886  -20.5571  -14.0721 C   0  0  0  0  0  0  0  0  0  0  0  0
   23.9999  -19.3444  -14.9144 C   0  0  2  0  0  0  0  0  0  0  0  0
   22.7429  -19.6751  -15.6287 N   0  0  0  0  0  0  0  0  0  0  0  0
   25.0241  -19.2300  -15.9659 C   0  0  0  0  0  0  0  0  0  0  0  0
   24.9725  -20.1654  -16.8515 O   0  0  0  0  0  0  0  0  0  0  0  0
   24.0541  -21.0903   -9.0918 N   0  0  0  0  0  0  0  0  0  0  0  0
   26.0222  -18.2088  -16.0774 C   0  0  0  0  0  0  0  0  0  0  0  0
   26.1563  -17.2123  -15.0736 C   0  0  0  0  0  0  0  0  0  0  0  0
   27.5446  -16.6614  -15.2892 C   0  0  0  0  0  0  0  0  0  0  0  0
   27.6175  -16.6846  -16.8319 C   0  0  1  0  0  0  0  0  0  0  0  0
   26.9831  -18.0394  -17.0779 C   0  0  0  0  0  0  0  0  0  0  0  0
   27.9992  -19.1035  -17.1750 O   0  0  0  0  0  0  0  0  0  0  0  0
   28.1397  -19.9149  -16.2439 O   0  0  0  0  0  0  0  0  0  0  0  0
  1  2  1  0
  3  4  2  0
  3  2  1  0
  5  6  1  0
  6  8  1  0
  7  6  2  0
  8  9  1  0
  9 10  1  0
 10 11  1  0
 12 11  1  1
 12 13  1  0
 13  3  1  0
 14 16  1  0
 14 12  1  0
 15 14  2  0
 16 17  1  0
 18 17  1  0
 19 20  1  0
 19 18  1  0
 20 16  1  0
 20 21  1  1
 21 23  1  0
 22 21  2  0
M  END
$$$$
