GRP.pdb
     RDKit          3D

 23 23  0  0  1  0  0  0  0  0999 V2000
   20.5613  -17.8511  -15.4036 N   0  0  0  0  0  0  0  0  0  0  0  0
   21.4238  -18.8554  -15.9790 C   0  0  0  0  0  0  0  0  0  0  0  0
   22.7740  -18.8028  -15.3356 C   0  0  0  0  0  0  0  0  0  0  0  0
   23.4575  -17.7349  -15.3606 O   0  0  0  0  0  0  0  0  0  0  0  0
   25.5136  -20.4550   -8.1911 N   0  0  0  0  0  0  0  0  0  0  0  0
   24.5302  -20.8352   -9.1426 C   0  0  0  0  0  0  0  0  0  0  0  0
   23.2852  -20.9336   -8.8314 N   0  0  0  0  0  0  0  0  0  0  0  0
   24.9046  -21.1238  -10.4960 N   0  0  0  0  0  0  0  0  0  0  0  0
   26.1947  -20.7922  -11.0200 C   0  0  0  0  0  0  0  0  0  0  0  0
   26.2195  -21.0490  -12.5053 C   0  0  0  0  0  0  0  0  0  0  0  0
   24.8217  -20.9069  -13.0224 C   0  0  0  0  0  0  0  0  0  0  0  0
   24.7205  -19.8338  -14.1036 C   0  0  2  0  0  0  0  0  0  0  0  0
   23.3559  -19.9015  -14.6807 N   0  0  0  0  0  0  0  0  0  0  0  0
   25.6209  -20.2584  -15.1884 C   0  0  0  0  0  0  0  0  0  0  0  0
   25.2771  -21.3659  -15.7514 O   0  0  0  0  0  0  0  0  0  0  0  0
   22.6197  -21.2201   -9.5692 N   0  0  0  0  0  0  0  0  0  0  0  0
   26.7900  -19.5688  -15.6461 C   0  0  0  0  0  0  0  0  0  0  0  0
   27.2327  -18.3831  -15.0004 C   0  0  0  0  0  0  0  0  0  0  0  0
   28.6734  -18.2501  -15.4292 C   0  0  0  0  0  0  0  0  0  0  0  0
   28.5746  -18.7334  -16.8929 C   0  0  1  0  0  0  0  0  0  0  0  0
   27.6526  -19.9194  -16.6883 C   0  0  0  0  0  0  0  0  0  0  0  0
   28.4118  -21.1688  -16.4966 O   0  0  0  0  0  0  0  0  0  0  0  0
   28.4371  -21.7152  -15.3805 O   0  0  0  0  0  0  0  0  0  0  0  0
  1  2  1  0
  3  4  2  0
  3  2  1  0
  5  6  1  0
  6  8  1  0
  7  6  2  0
  8  9  1  0
  9 10  1  0
 10 11  1  0
 12 11  1  1
 12 13  1  0
 13  3  1  0
 14 16  1  0
 14 12  1  0
 15 14  2  0
 16 17  1  0
 18 17  1  0
 19 20  1  0
 19 18  1  0
 20 16  1  0
 20 21  1  1
 21 23  1  0
 22 21  2  0
M  END
$$$$
