GRP.pdb
     RDKit          3D

 23 23  0  0  1  0  0  0  0  0999 V2000
   18.3761  -23.1287  -12.5291 N   0  0  0  0  0  0  0  0  0  0  0  0
   19.1471  -22.4541  -13.5459 C   0  0  0  0  0  0  0  0  0  0  0  0
   20.6045  -22.7383  -13.3586 C   0  0  0  0  0  0  0  0  0  0  0  0
   21.0372  -23.1773  -12.2504 O   0  0  0  0  0  0  0  0  0  0  0  0
   25.3511  -26.5713  -15.7988 N   0  0  0  0  0  0  0  0  0  0  0  0
   26.5966  -26.0087  -16.1848 C   0  0  0  0  0  0  0  0  0  0  0  0
   27.7048  -26.6476  -16.0419 N   0  0  0  0  0  0  0  0  0  0  0  0
   26.6530  -24.6935  -16.7526 N   0  0  0  0  0  0  0  0  0  0  0  0
   25.4969  -23.8562  -16.8591 C   0  0  0  0  0  0  0  0  0  0  0  0
   25.0438  -23.4407  -15.4826 C   0  0  0  0  0  0  0  0  0  0  0  0
   23.5474  -23.3930  -15.4833 C   0  0  0  0  0  0  0  0  0  0  0  0
   22.9937  -22.8656  -14.1619 C   0  0  2  0  0  0  0  0  0  0  0  0
   21.5610  -22.5430  -14.3694 N   0  0  0  0  0  0  0  0  0  0  0  0
   23.6525  -21.5697  -13.9291 C   0  0  0  0  0  0  0  0  0  0  0  0
   23.3356  -20.6595  -14.7852 O   0  0  0  0  0  0  0  0  0  0  0  0
   28.5712  -26.2044  -16.3915 N   0  0  0  0  0  0  0  0  0  0  0  0
   24.5707  -21.2563  -12.8753 C   0  0  0  0  0  0  0  0  0  0  0  0
   24.8961  -22.2219  -11.8851 C   0  0  0  0  0  0  0  0  0  0  0  0
   26.1849  -21.7124  -11.2879 C   0  0  0  0  0  0  0  0  0  0  0  0
   25.9129  -20.1920  -11.2933 C   0  0  2  0  0  0  0  0  0  0  0  0
   25.2793  -20.0702  -12.6652 C   0  0  0  0  0  0  0  0  0  0  0  0
   26.2787  -19.7318  -13.6952 O   0  0  0  0  0  0  0  0  0  0  0  0
   26.5475  -20.5493  -14.5921 O   0  0  0  0  0  0  0  0  0  0  0  0
  1  2  1  0
  3  4  2  0
  3  2  1  0
  5  6  1  0
  6  8  1  0
  7  6  2  0
  8  9  1  0
  9 10  1  0
 10 11  1  0
 12 11  1  6
 12 13  1  0
 13  3  1  0
 14 16  1  0
 14 12  1  0
 15 14  2  0
 16 17  1  0
 18 17  1  0
 19 20  1  0
 19 18  1  0
 20 16  1  0
 20 21  1  1
 21 23  1  0
 22 21  2  0
M  END
$$$$
