GRP.pdb
     RDKit          3D

 23 23  0  0  1  0  0  0  0  0999 V2000
   20.0686  -20.3342  -15.8292 N   0  0  0  0  0  0  0  0  0  0  0  0
   20.9502  -19.3636  -15.2258 C   0  0  0  0  0  0  0  0  0  0  0  0
   22.2318  -20.0188  -14.8155 C   0  0  0  0  0  0  0  0  0  0  0  0
   22.2361  -21.2133  -14.3895 O   0  0  0  0  0  0  0  0  0  0  0  0
   29.2050  -21.8489  -16.5865 N   0  0  0  0  0  0  0  0  0  0  0  0
   28.9618  -20.8262  -17.5414 C   0  0  0  0  0  0  0  0  0  0  0  0
   29.0848  -21.0333  -18.8058 N   0  0  0  0  0  0  0  0  0  0  0  0
   28.5665  -19.5157  -17.1152 N   0  0  0  0  0  0  0  0  0  0  0  0
   28.1475  -19.2414  -15.7743 C   0  0  0  0  0  0  0  0  0  0  0  0
   26.9500  -20.0917  -15.4339 C   0  0  0  0  0  0  0  0  0  0  0  0
   25.9025  -19.1996  -14.8436 C   0  0  0  0  0  0  0  0  0  0  0  0
   24.7067  -19.9928  -14.3221 C   0  0  2  0  0  0  0  0  0  0  0  0
   23.4779  -19.3720  -14.8737 N   0  0  0  0  0  0  0  0  0  0  0  0
   24.6494  -19.7427  -12.8723 C   0  0  0  0  0  0  0  0  0  0  0  0
   24.2400  -18.5609  -12.5602 O   0  0  0  0  0  0  0  0  0  0  0  0
   28.8908  -20.2475  -19.4494 N   0  0  0  0  0  0  0  0  0  0  0  0
   24.9935  -20.6662  -11.8328 C   0  0  0  0  0  0  0  0  0  0  0  0
   25.4556  -21.9727  -12.1464 C   0  0  0  0  0  0  0  0  0  0  0  0
   26.1417  -22.4303  -10.8826 C   0  0  0  0  0  0  0  0  0  0  0  0
   25.2010  -21.8228   -9.8188 C   0  0  1  0  0  0  0  0  0  0  0  0
   24.9773  -20.4628  -10.4503 C   0  0  0  0  0  0  0  0  0  0  0  0
   25.9352  -19.4646   -9.9399 O   0  0  0  0  0  0  0  0  0  0  0  0
   26.8987  -19.1128  -10.6419 O   0  0  0  0  0  0  0  0  0  0  0  0
  1  2  1  0
  3  4  2  0
  3  2  1  0
  5  6  1  0
  6  8  1  0
  7  6  2  0
  8  9  1  0
  9 10  1  0
 10 11  1  0
 12 11  1  6
 12 13  1  0
 13  3  1  0
 14 16  1  0
 14 12  1  0
 15 14  2  0
 16 17  1  0
 18 17  1  0
 19 20  1  0
 19 18  1  0
 20 16  1  0
 20 21  1  1
 21 23  1  0
 22 21  2  0
M  END
$$$$
