GRP.pdb
     RDKit          3D

 23 23  0  0  1  0  0  0  0  0999 V2000
   23.1426  -17.5073  -16.9652 N   0  0  0  0  0  0  0  0  0  0  0  0
   21.9719  -17.4022  -16.1273 C   0  0  0  0  0  0  0  0  0  0  0  0
   21.8279  -18.6337  -15.2892 C   0  0  0  0  0  0  0  0  0  0  0  0
   22.2402  -19.7544  -15.7161 O   0  0  0  0  0  0  0  0  0  0  0  0
   25.4238  -21.6310   -9.3964 N   0  0  0  0  0  0  0  0  0  0  0  0
   25.2981  -21.4107  -10.7937 C   0  0  0  0  0  0  0  0  0  0  0  0
   26.0486  -22.0144  -11.6475 N   0  0  0  0  0  0  0  0  0  0  0  0
   24.3164  -20.4955  -11.2978 N   0  0  0  0  0  0  0  0  0  0  0  0
   23.2521  -19.9910  -10.4843 C   0  0  0  0  0  0  0  0  0  0  0  0
   21.9389  -20.5597  -10.9584 C   0  0  0  0  0  0  0  0  0  0  0  0
   21.2310  -19.4978  -11.7411 C   0  0  0  0  0  0  0  0  0  0  0  0
   21.0956  -19.8715  -13.2152 C   0  0  2  0  0  0  0  0  0  0  0  0
   21.2432  -18.6289  -14.0114 N   0  0  0  0  0  0  0  0  0  0  0  0
   19.6967  -20.2893  -13.4057 C   0  0  0  0  0  0  0  0  0  0  0  0
   18.8326  -19.3858  -13.0917 O   0  0  0  0  0  0  0  0  0  0  0  0
   25.9553  -21.7585  -12.6450 N   0  0  0  0  0  0  0  0  0  0  0  0
   19.2439  -21.5584  -13.8916 C   0  0  0  0  0  0  0  0  0  0  0  0
   20.1732  -22.5642  -14.2703 C   0  0  0  0  0  0  0  0  0  0  0  0
   19.3622  -23.8367  -14.2502 C   0  0  0  0  0  0  0  0  0  0  0  0
   18.0166  -23.3187  -14.8039 C   0  0  1  0  0  0  0  0  0  0  0  0
   17.9309  -22.0151  -14.0348 C   0  0  0  0  0  0  0  0  0  0  0  0
   17.1695  -22.1744  -12.7821 O   0  0  0  0  0  0  0  0  0  0  0  0
   17.7601  -22.1483  -11.6888 O   0  0  0  0  0  0  0  0  0  0  0  0
  1  2  1  0
  3  4  2  0
  3  2  1  0
  5  6  1  0
  6  8  1  0
  7  6  2  0
  8  9  1  0
  9 10  1  0
 10 11  1  0
 12 11  1  1
 12 13  1  0
 13  3  1  0
 14 16  1  0
 14 12  1  0
 15 14  2  0
 16 17  1  0
 18 17  1  0
 19 20  1  0
 19 18  1  0
 20 16  1  0
 20 21  1  1
 21 23  1  0
 22 21  2  0
M  END
$$$$
