GRP.pdb
     RDKit          3D

 23 23  0  0  1  0  0  0  0  0999 V2000
   21.8523  -28.9430  -11.1289 N   0  0  0  0  0  0  0  0  0  0  0  0
   20.4587  -28.6076  -11.2984 C   0  0  0  0  0  0  0  0  0  0  0  0
   20.1369  -27.3539  -10.5469 C   0  0  0  0  0  0  0  0  0  0  0  0
   20.9213  -26.9232   -9.6483 O   0  0  0  0  0  0  0  0  0  0  0  0
   17.6279  -20.8192  -14.7957 N   0  0  0  0  0  0  0  0  0  0  0  0
   18.8608  -21.5195  -14.8741 C   0  0  0  0  0  0  0  0  0  0  0  0
   19.6488  -21.3979  -15.8845 N   0  0  0  0  0  0  0  0  0  0  0  0
   19.2664  -22.3942  -13.8131 N   0  0  0  0  0  0  0  0  0  0  0  0
   18.5106  -22.5334  -12.6055 C   0  0  0  0  0  0  0  0  0  0  0  0
   19.1837  -23.5322  -11.6989 C   0  0  0  0  0  0  0  0  0  0  0  0
   18.1163  -24.3340  -11.0211 C   0  0  0  0  0  0  0  0  0  0  0  0
   18.7009  -25.3426  -10.0353 C   0  0  2  0  0  0  0  0  0  0  0  0
   18.9782  -26.5942  -10.7811 N   0  0  0  0  0  0  0  0  0  0  0  0
   17.6138  -25.6811   -9.1018 C   0  0  0  0  0  0  0  0  0  0  0  0
   16.5553  -26.1421   -9.6752 O   0  0  0  0  0  0  0  0  0  0  0  0
   20.5332  -21.9339  -15.8801 N   0  0  0  0  0  0  0  0  0  0  0  0
   17.6408  -25.5472   -7.6759 C   0  0  0  0  0  0  0  0  0  0  0  0
   18.8301  -25.1519   -7.0064 C   0  0  0  0  0  0  0  0  0  0  0  0
   18.3483  -24.6726   -5.6590 C   0  0  0  0  0  0  0  0  0  0  0  0
   17.2208  -25.6925   -5.3869 C   0  0  1  0  0  0  0  0  0  0  0  0
   16.5943  -25.7259   -6.7670 C   0  0  0  0  0  0  0  0  0  0  0  0
   15.4797  -24.7671   -6.8792 O   0  0  0  0  0  0  0  0  0  0  0  0
   14.4042  -24.9945   -6.2992 O   0  0  0  0  0  0  0  0  0  0  0  0
  1  2  1  0
  3  4  2  0
  3  2  1  0
  5  6  1  0
  6  8  1  0
  7  6  2  0
  8  9  1  0
  9 10  1  0
 10 11  1  0
 12 11  1  6
 12 13  1  0
 13  3  1  0
 14 16  1  0
 14 12  1  0
 15 14  2  0
 16 17  1  0
 18 17  1  0
 19 20  1  0
 19 18  1  0
 20 16  1  0
 20 21  1  1
 21 23  1  0
 22 21  2  0
M  END
$$$$
