GRP.pdb
     RDKit          3D

 23 23  0  0  1  0  0  0  0  0999 V2000
   28.7534  -23.5025  -16.3243 N   0  0  0  0  0  0  0  0  0  0  0  0
   28.4759  -22.2955  -15.5829 C   0  0  0  0  0  0  0  0  0  0  0  0
   27.0723  -22.3226  -15.0640 C   0  0  0  0  0  0  0  0  0  0  0  0
   26.2182  -23.1181  -15.5600 O   0  0  0  0  0  0  0  0  0  0  0  0
   23.9439  -20.1263   -7.2329 N   0  0  0  0  0  0  0  0  0  0  0  0
   23.7868  -21.3922   -7.8570 C   0  0  0  0  0  0  0  0  0  0  0  0
   23.6153  -22.4701   -7.1747 N   0  0  0  0  0  0  0  0  0  0  0  0
   23.8155  -21.5045   -9.2859 N   0  0  0  0  0  0  0  0  0  0  0  0
   23.9395  -20.3628  -10.1405 C   0  0  0  0  0  0  0  0  0  0  0  0
   23.8396  -20.7952  -11.5812 C   0  0  0  0  0  0  0  0  0  0  0  0
   25.2255  -21.0612  -12.0811 C   0  0  0  0  0  0  0  0  0  0  0  0
   25.2254  -21.5487  -13.5280 C   0  0  2  0  0  0  0  0  0  0  0  0
   26.6222  -21.4924  -14.0235 N   0  0  0  0  0  0  0  0  0  0  0  0
   24.4981  -20.5305  -14.3038 C   0  0  0  0  0  0  0  0  0  0  0  0
   24.9447  -19.3319  -14.1437 O   0  0  0  0  0  0  0  0  0  0  0  0
   23.4088  -23.3439   -7.6878 N   0  0  0  0  0  0  0  0  0  0  0  0
   23.3893  -20.7576  -15.1818 C   0  0  0  0  0  0  0  0  0  0  0  0
   22.8306  -22.0562  -15.3244 C   0  0  0  0  0  0  0  0  0  0  0  0
   21.4625  -21.8028  -15.9088 C   0  0  0  0  0  0  0  0  0  0  0  0
   21.7799  -20.6315  -16.8644 C   0  0  2  0  0  0  0  0  0  0  0  0
   22.6922  -19.8282  -15.9585 C   0  0  0  0  0  0  0  0  0  0  0  0
   21.9442  -18.8020  -15.2090 O   0  0  0  0  0  0  0  0  0  0  0  0
   21.7803  -18.9244  -13.9830 O   0  0  0  0  0  0  0  0  0  0  0  0
  1  2  1  0
  3  4  2  0
  3  2  1  0
  5  6  1  0
  6  8  1  0
  7  6  2  0
  8  9  1  0
  9 10  1  0
 10 11  1  0
 12 11  1  1
 12 13  1  0
 13  3  1  0
 14 16  1  0
 14 12  1  0
 15 14  2  0
 16 17  1  0
 18 17  1  0
 19 20  1  0
 19 18  1  0
 20 16  1  0
 20 21  1  1
 21 23  1  0
 22 21  2  0
M  END
$$$$
