GRP.pdb
     RDKit          3D

 23 23  0  0  1  0  0  0  0  0999 V2000
   18.3373  -18.3432  -15.3607 N   0  0  0  0  0  0  0  0  0  0  0  0
   19.3727  -18.0479  -16.3221 C   0  0  0  0  0  0  0  0  0  0  0  0
   20.6596  -17.7535  -15.6169 C   0  0  0  0  0  0  0  0  0  0  0  0
   20.6738  -17.0165  -14.5850 O   0  0  0  0  0  0  0  0  0  0  0  0
   25.9153  -23.2034  -12.7254 N   0  0  0  0  0  0  0  0  0  0  0  0
   25.4789  -22.8338  -14.0253 C   0  0  0  0  0  0  0  0  0  0  0  0
   25.3443  -23.6988  -14.9689 N   0  0  0  0  0  0  0  0  0  0  0  0
   25.1719  -21.4659  -14.3253 N   0  0  0  0  0  0  0  0  0  0  0  0
   25.3276  -20.4182  -13.3625 C   0  0  0  0  0  0  0  0  0  0  0  0
   24.9626  -19.0964  -13.9887 C   0  0  0  0  0  0  0  0  0  0  0  0
   23.7008  -19.2884  -14.7713 C   0  0  0  0  0  0  0  0  0  0  0  0
   23.1550  -17.9664  -15.3056 C   0  0  2  0  0  0  0  0  0  0  0  0
   21.9003  -18.2598  -16.0399 N   0  0  0  0  0  0  0  0  0  0  0  0
   24.1081  -17.5144  -16.3328 C   0  0  0  0  0  0  0  0  0  0  0  0
   24.1494  -18.2687  -17.3774 O   0  0  0  0  0  0  0  0  0  0  0  0
   25.0142  -23.3667  -15.8909 N   0  0  0  0  0  0  0  0  0  0  0  0
   24.9493  -16.3570  -16.2661 C   0  0  0  0  0  0  0  0  0  0  0  0
   25.0445  -15.5969  -15.0694 C   0  0  0  0  0  0  0  0  0  0  0  0
   26.3226  -14.8122  -15.2361 C   0  0  0  0  0  0  0  0  0  0  0  0
   26.2543  -14.4847  -16.7440 C   0  0  2  0  0  0  0  0  0  0  0  0
   25.7826  -15.8310  -17.2570 C   0  0  0  0  0  0  0  0  0  0  0  0
   26.9158  -16.6848  -17.6585 O   0  0  0  0  0  0  0  0  0  0  0  0
   27.2046  -17.6900  -16.9869 O   0  0  0  0  0  0  0  0  0  0  0  0
  1  2  1  0
  3  4  2  0
  3  2  1  0
  5  6  1  0
  6  8  1  0
  7  6  2  0
  8  9  1  0
  9 10  1  0
 10 11  1  0
 12 11  1  6
 12 13  1  0
 13  3  1  0
 14 16  1  0
 14 12  1  0
 15 14  2  0
 16 17  1  0
 18 17  1  0
 19 20  1  0
 19 18  1  0
 20 16  1  0
 20 21  1  6
 21 23  1  0
 22 21  2  0
M  END
$$$$
