VRC.pdb
     RDKit          3D

 25 24  0  0  1  0  0  0  0  0999 V2000
   26.3094  -16.7635  -18.0660 C   0  0  0  0  0  0  0  0  0  0  0  0
   27.6088  -17.1116  -17.4415 C   0  0  2  0  0  0  0  0  0  0  0  0
   28.6800  -16.2673  -18.1141 C   0  0  0  0  0  0  0  0  0  0  0  0
   27.9703  -18.5501  -17.3724 C   0  0  2  0  0  0  0  0  0  0  0  0
   28.1390  -18.9640  -18.7904 N   0  0  0  0  0  0  0  0  0  0  0  0
   26.9981  -19.4494  -16.7557 C   0  0  0  0  0  0  0  0  0  0  0  0
   26.0230  -19.9009  -17.4547 O   0  0  0  0  0  0  0  0  0  0  0  0
   25.9060  -20.0443   -8.7877 N   0  0  0  0  0  0  0  0  0  0  0  0
   24.9252  -20.7610   -9.5388 C   0  0  0  0  0  0  0  0  0  0  0  0
   23.7010  -20.7107   -9.1686 N   0  0  0  0  0  0  0  0  0  0  0  0
   25.2745  -21.5248  -10.6824 N   0  0  0  0  0  0  0  0  0  0  0  0
   26.6518  -21.5040  -11.1902 C   0  0  0  0  0  0  0  0  0  0  0  0
   26.6857  -20.6670  -12.4705 C   0  0  0  0  0  0  0  0  0  0  0  0
   26.4544  -21.5188  -13.6766 C   0  0  0  0  0  0  0  0  0  0  0  0
   25.9115  -20.7124  -14.8376 C   0  0  2  0  0  0  0  0  0  0  0  0
   27.0097  -19.9044  -15.4126 N   0  0  0  0  0  0  0  0  0  0  0  0
   24.7592  -19.8751  -14.5211 C   0  0  0  0  0  0  0  0  0  0  0  0
   24.8466  -18.8636  -13.7882 O   0  0  0  0  0  0  0  0  0  0  0  0
   22.9302  -21.2050   -9.6710 N   0  0  0  0  0  0  0  0  0  0  0  0
   23.4544  -20.1568  -15.0291 C   0  0  1  0  0  0  0  0  0  0  0  0
   22.3158  -19.3173  -14.7294 C   0  0  0  0  0  0  0  0  0  0  0  0
   21.7382  -18.6984  -15.9906 S   0  0  0  0  0  0  0  0  0  0  0  0
   22.9177  -17.5993  -16.7990 C   0  0  0  0  0  0  0  0  0  0  0  0
   21.2752  -20.0535  -13.9703 O   0  0  0  0  0  0  0  0  0  0  0  0
   21.2188  -21.3075  -13.9538 O   0  0  0  0  0  0  0  0  0  0  0  0
  2  1  1  6
  2  3  1  0
  4  2  1  0
  4  5  1  6
  6  4  1  0
  6 16  1  0
  7  6  2  0
  9  8  1  0
 10  9  2  0
 11  9  1  0
 12 11  1  0
 13 12  1  0
 13 14  1  0
 15 16  1  0
 15 14  1  1
 17 15  1  0
 18 17  2  0
 19 17  1  0
 20 19  1  0
 20 21  1  6
 22 21  1  0
 23 20  1  0
 23 25  1  0
 24 23  2  0
M  END
$$$$
