VRC.pdb
     RDKit          3D

 25 24  0  0  1  0  0  0  0  0999 V2000
   21.6054  -18.6242  -20.2487 C   0  0  0  0  0  0  0  0  0  0  0  0
   22.9428  -18.9096  -19.6747 C   0  0  2  0  0  0  0  0  0  0  0  0
   23.8077  -17.6785  -19.8963 C   0  0  0  0  0  0  0  0  0  0  0  0
   23.6131  -20.1659  -20.0953 C   0  0  2  0  0  0  0  0  0  0  0  0
   23.8598  -19.9914  -21.5511 N   0  0  0  0  0  0  0  0  0  0  0  0
   22.8672  -21.4088  -19.9131 C   0  0  0  0  0  0  0  0  0  0  0  0
   21.9195  -21.7017  -20.7251 O   0  0  0  0  0  0  0  0  0  0  0  0
   20.8924  -26.6237  -14.7995 N   0  0  0  0  0  0  0  0  0  0  0  0
   20.9377  -27.8189  -15.5800 C   0  0  0  0  0  0  0  0  0  0  0  0
   20.1129  -28.7622  -15.3194 N   0  0  0  0  0  0  0  0  0  0  0  0
   21.8723  -27.9848  -16.6346 N   0  0  0  0  0  0  0  0  0  0  0  0
   22.8059  -26.9023  -16.9692 C   0  0  0  0  0  0  0  0  0  0  0  0
   22.0239  -25.7798  -17.6544 C   0  0  0  0  0  0  0  0  0  0  0  0
   22.9062  -24.6088  -17.9446 C   0  0  0  0  0  0  0  0  0  0  0  0
   22.1605  -23.5116  -18.6746 C   0  0  2  0  0  0  0  0  0  0  0  0
   23.0814  -22.3749  -18.8974 N   0  0  0  0  0  0  0  0  0  0  0  0
   20.9305  -23.0665  -18.0279 C   0  0  0  0  0  0  0  0  0  0  0  0
   20.9334  -22.4115  -16.9608 O   0  0  0  0  0  0  0  0  0  0  0  0
   20.0013  -29.6080  -15.9220 N   0  0  0  0  0  0  0  0  0  0  0  0
   19.6413  -23.3504  -18.5730 C   0  0  2  0  0  0  0  0  0  0  0  0
   18.4215  -22.9378  -17.9152 C   0  0  0  0  0  0  0  0  0  0  0  0
   17.2679  -22.8432  -18.8988 S   0  0  0  0  0  0  0  0  0  0  0  0
   15.6794  -22.6969  -18.0572 C   0  0  0  0  0  0  0  0  0  0  0  0
   18.0826  -23.8280  -16.7777 O   0  0  0  0  0  0  0  0  0  0  0  0
   17.5942  -23.3909  -15.7070 O   0  0  0  0  0  0  0  0  0  0  0  0
  2  1  1  6
  2  3  1  0
  4  2  1  0
  4  5  1  6
  6  4  1  0
  6 16  1  0
  7  6  2  0
  9  8  1  0
 10  9  2  0
 11  9  1  0
 12 11  1  0
 13 12  1  0
 13 14  1  0
 15 16  1  0
 15 14  1  1
 17 15  1  0
 18 17  2  0
 19 17  1  0
 20 19  1  0
 20 21  1  6
 22 21  1  0
 23 20  1  0
 23 25  1  0
 24 23  2  0
M  END
$$$$
