VRC.pdb
     RDKit          3D

 25 24  0  0  1  0  0  0  0  0999 V2000
   18.5052  -30.5309   -9.9493 C   0  0  0  0  0  0  0  0  0  0  0  0
   19.9019  -30.1096  -10.2161 C   0  0  2  0  0  0  0  0  0  0  0  0
   20.6364  -30.0917   -8.8845 C   0  0  0  0  0  0  0  0  0  0  0  0
   20.1023  -28.8643  -10.9995 C   0  0  2  0  0  0  0  0  0  0  0  0
   21.5760  -28.7570  -11.1648 N   0  0  0  0  0  0  0  0  0  0  0  0
   19.6269  -27.6197  -10.4000 C   0  0  0  0  0  0  0  0  0  0  0  0
   20.3895  -26.9732   -9.5978 O   0  0  0  0  0  0  0  0  0  0  0  0
   18.6386  -21.9892  -12.8142 N   0  0  0  0  0  0  0  0  0  0  0  0
   17.9700  -21.0203  -12.0055 C   0  0  0  0  0  0  0  0  0  0  0  0
   18.4564  -19.8395  -11.9216 N   0  0  0  0  0  0  0  0  0  0  0  0
   16.7827  -21.3348  -11.2950 N   0  0  0  0  0  0  0  0  0  0  0  0
   16.1815  -22.6685  -11.4179 C   0  0  0  0  0  0  0  0  0  0  0  0
   16.8078  -23.5835  -10.3637 C   0  0  0  0  0  0  0  0  0  0  0  0
   17.3152  -24.8468  -10.9805 C   0  0  0  0  0  0  0  0  0  0  0  0
   17.9638  -25.7516   -9.9540 C   0  0  2  0  0  0  0  0  0  0  0  0
   18.3626  -27.0142  -10.6145 N   0  0  0  0  0  0  0  0  0  0  0  0
   17.1561  -26.0166   -8.7680 C   0  0  0  0  0  0  0  0  0  0  0  0
   16.1427  -26.7514   -8.7975 O   0  0  0  0  0  0  0  0  0  0  0  0
   18.0378  -19.0886  -11.3283 N   0  0  0  0  0  0  0  0  0  0  0  0
   17.4715  -25.4531   -7.4941 C   0  0  2  0  0  0  0  0  0  0  0  0
   16.6547  -25.6921   -6.3251 C   0  0  0  0  0  0  0  0  0  0  0  0
   17.4288  -25.4245   -5.0458 S   0  0  0  0  0  0  0  0  0  0  0  0
   19.0526  -26.2090   -5.0681 C   0  0  0  0  0  0  0  0  0  0  0  0
   15.3972  -24.9056   -6.3634 O   0  0  0  0  0  0  0  0  0  0  0  0
   15.1285  -24.1167   -7.3023 O   0  0  0  0  0  0  0  0  0  0  0  0
  2  1  1  1
  2  3  1  0
  4  2  1  0
  4  5  1  1
  6  4  1  0
  6 16  1  0
  7  6  2  0
  9  8  1  0
 10  9  2  0
 11  9  1  0
 12 11  1  0
 13 12  1  0
 13 14  1  0
 15 16  1  0
 15 14  1  6
 17 15  1  0
 18 17  2  0
 19 17  1  0
 20 19  1  0
 20 21  1  6
 22 21  1  0
 23 20  1  0
 23 25  1  0
 24 23  2  0
M  END
$$$$
