VRC.pdb
     RDKit          3D

 25 24  0  0  1  0  0  0  0  0999 V2000
   25.8488  -18.6205  -17.1604 C   0  0  0  0  0  0  0  0  0  0  0  0
   27.0442  -19.0616  -16.4014 C   0  0  2  0  0  0  0  0  0  0  0  0
   28.1267  -19.4054  -17.4127 C   0  0  0  0  0  0  0  0  0  0  0  0
   26.8527  -20.1234  -15.3814 C   0  0  2  0  0  0  0  0  0  0  0  0
   26.5034  -21.3383  -16.1643 N   0  0  0  0  0  0  0  0  0  0  0  0
   25.7996  -19.9102  -14.3916 C   0  0  0  0  0  0  0  0  0  0  0  0
   25.9169  -18.9602  -13.5390 O   0  0  0  0  0  0  0  0  0  0  0  0
   19.2333  -18.3928  -17.8009 N   0  0  0  0  0  0  0  0  0  0  0  0
   19.3629  -17.4915  -16.7007 C   0  0  0  0  0  0  0  0  0  0  0  0
   18.8404  -16.3264  -16.7877 N   0  0  0  0  0  0  0  0  0  0  0  0
   20.0548  -17.8560  -15.5167 N   0  0  0  0  0  0  0  0  0  0  0  0
   20.7275  -19.1579  -15.4272 C   0  0  0  0  0  0  0  0  0  0  0  0
   21.4258  -19.2523  -14.0691 C   0  0  0  0  0  0  0  0  0  0  0  0
   22.1953  -20.5278  -13.9473 C   0  0  0  0  0  0  0  0  0  0  0  0
   23.5436  -20.3095  -13.2934 C   0  0  2  0  0  0  0  0  0  0  0  0
   24.6062  -20.6648  -14.2599 N   0  0  0  0  0  0  0  0  0  0  0  0
   23.7353  -21.0096  -12.0276 C   0  0  0  0  0  0  0  0  0  0  0  0
   23.9859  -22.2351  -11.9707 O   0  0  0  0  0  0  0  0  0  0  0  0
   18.8471  -15.6358  -16.0041 N   0  0  0  0  0  0  0  0  0  0  0  0
   23.6494  -20.3393  -10.7694 C   0  0  2  0  0  0  0  0  0  0  0  0
   23.6531  -21.0579   -9.5145 C   0  0  0  0  0  0  0  0  0  0  0  0
   24.5328  -20.3688   -8.4856 S   0  0  0  0  0  0  0  0  0  0  0  0
   24.3170  -21.0732   -6.8394 C   0  0  0  0  0  0  0  0  0  0  0  0
   22.2789  -21.2602   -8.9933 O   0  0  0  0  0  0  0  0  0  0  0  0
   21.9931  -22.1902   -8.2000 O   0  0  0  0  0  0  0  0  0  0  0  0
  2  1  1  6
  2  3  1  0
  4  2  1  0
  4  5  1  6
  6  4  1  0
  6 16  1  0
  7  6  2  0
  9  8  1  0
 10  9  2  0
 11  9  1  0
 12 11  1  0
 13 12  1  0
 13 14  1  0
 15 16  1  0
 15 14  1  6
 17 15  1  0
 18 17  2  0
 19 17  1  0
 20 19  1  0
 20 21  1  1
 22 21  1  0
 23 20  1  0
 23 25  1  0
 24 23  2  0
M  END
$$$$
