VRC.pdb
     RDKit          3D

 25 24  0  0  1  0  0  0  0  0999 V2000
   28.6460  -20.4920  -12.1509 C   0  0  0  0  0  0  0  0  0  0  0  0
   27.4324  -20.8155  -12.9397 C   0  0  2  0  0  0  0  0  0  0  0  0
   27.4195  -19.9009  -14.1547 C   0  0  0  0  0  0  0  0  0  0  0  0
   26.1339  -20.8326  -12.2198 C   0  0  2  0  0  0  0  0  0  0  0  0
   26.3162  -21.8376  -11.1392 N   0  0  0  0  0  0  0  0  0  0  0  0
   24.9528  -21.2131  -12.9910 C   0  0  0  0  0  0  0  0  0  0  0  0
   24.3913  -20.3495  -13.7539 O   0  0  0  0  0  0  0  0  0  0  0  0
   25.4511  -25.6917  -16.3423 N   0  0  0  0  0  0  0  0  0  0  0  0
   24.5279  -26.7636  -16.1465 C   0  0  0  0  0  0  0  0  0  0  0  0
   24.9802  -27.9364  -15.9055 N   0  0  0  0  0  0  0  0  0  0  0  0
   23.1252  -26.5599  -16.2124 N   0  0  0  0  0  0  0  0  0  0  0  0
   22.5858  -25.2138  -16.4415 C   0  0  0  0  0  0  0  0  0  0  0  0
   22.0771  -24.6603  -15.1089 C   0  0  0  0  0  0  0  0  0  0  0  0
   23.2133  -24.2727  -14.2184 C   0  0  0  0  0  0  0  0  0  0  0  0
   23.1723  -22.8009  -13.8647 C   0  0  2  0  0  0  0  0  0  0  0  0
   24.3282  -22.4862  -12.9962 N   0  0  0  0  0  0  0  0  0  0  0  0
   21.9255  -22.3473  -13.2574 C   0  0  0  0  0  0  0  0  0  0  0  0
   21.6518  -22.5554  -12.0534 O   0  0  0  0  0  0  0  0  0  0  0  0
   24.3678  -28.7490  -15.6696 N   0  0  0  0  0  0  0  0  0  0  0  0
   20.9353  -21.6347  -14.0000 C   0  0  1  0  0  0  0  0  0  0  0  0
   19.6837  -21.2178  -13.4080 C   0  0  0  0  0  0  0  0  0  0  0  0
   19.4315  -19.7370  -13.6339 S   0  0  0  0  0  0  0  0  0  0  0  0
   18.7067  -18.9509  -12.1814 C   0  0  0  0  0  0  0  0  0  0  0  0
   18.5456  -22.0345  -13.8969 O   0  0  0  0  0  0  0  0  0  0  0  0
   18.6238  -22.7416  -14.9312 O   0  0  0  0  0  0  0  0  0  0  0  0
  2  1  1  1
  2  3  1  0
  4  2  1  0
  4  5  1  1
  6  4  1  0
  6 16  1  0
  7  6  2  0
  9  8  1  0
 10  9  2  0
 11  9  1  0
 12 11  1  0
 13 12  1  0
 13 14  1  0
 15 16  1  0
 15 14  1  1
 17 15  1  0
 18 17  2  0
 19 17  1  0
 20 19  1  0
 20 21  1  6
 22 21  1  0
 23 20  1  0
 23 25  1  0
 24 23  2  0
M  END
$$$$
