VRC.pdb
     RDKit          3D

 25 24  0  0  1  0  0  0  0  0999 V2000
   14.5735  -14.9473  -12.6019 C   0  0  0  0  0  0  0  0  0  0  0  0
   15.3010  -13.6556  -12.5614 C   0  0  2  0  0  0  0  0  0  0  0  0
   16.7638  -13.9631  -12.2811 C   0  0  0  0  0  0  0  0  0  0  0  0
   14.7579  -12.5927  -11.6782 C   0  0  2  0  0  0  0  0  0  0  0  0
   13.3717  -12.3692  -12.1674 N   0  0  0  0  0  0  0  0  0  0  0  0
   15.4491  -11.3057  -11.6869 C   0  0  0  0  0  0  0  0  0  0  0  0
   16.6031  -11.2046  -11.1383 O   0  0  0  0  0  0  0  0  0  0  0  0
   17.7857   -5.4662  -17.7252 N   0  0  0  0  0  0  0  0  0  0  0  0
   18.0367   -4.8225  -16.4752 C   0  0  0  0  0  0  0  0  0  0  0  0
   18.6218   -3.6842  -16.4695 N   0  0  0  0  0  0  0  0  0  0  0  0
   17.6535   -5.4129  -15.2432 N   0  0  0  0  0  0  0  0  0  0  0  0
   16.9242   -6.6870  -15.2317 C   0  0  0  0  0  0  0  0  0  0  0  0
   16.6910   -7.1009  -13.7773 C   0  0  0  0  0  0  0  0  0  0  0  0
   15.9448   -8.3935  -13.6987 C   0  0  0  0  0  0  0  0  0  0  0  0
   15.7666   -8.8526  -12.2667 C   0  0  2  0  0  0  0  0  0  0  0  0
   14.9710  -10.1002  -12.2607 N   0  0  0  0  0  0  0  0  0  0  0  0
   15.1855   -7.8598  -11.3690 C   0  0  0  0  0  0  0  0  0  0  0  0
   13.9870   -7.5059  -11.4466 O   0  0  0  0  0  0  0  0  0  0  0  0
   18.8059   -3.1394  -15.5976 N   0  0  0  0  0  0  0  0  0  0  0  0
   15.9493   -7.2271  -10.3413 C   0  0  2  0  0  0  0  0  0  0  0  0
   15.3971   -6.1843   -9.5055 C   0  0  0  0  0  0  0  0  0  0  0  0
   15.7296   -6.4152   -8.0415 S   0  0  0  0  0  0  0  0  0  0  0  0
   15.2214   -8.0552   -7.4890 C   0  0  0  0  0  0  0  0  0  0  0  0
   15.8346   -4.8371   -9.9470 O   0  0  0  0  0  0  0  0  0  0  0  0
   16.6650   -4.6724  -10.8740 O   0  0  0  0  0  0  0  0  0  0  0  0
  2  1  1  1
  2  3  1  0
  4  2  1  0
  4  5  1  6
  6  4  1  0
  6 16  1  0
  7  6  2  0
  9  8  1  0
 10  9  2  0
 11  9  1  0
 12 11  1  0
 13 12  1  0
 13 14  1  0
 15 16  1  0
 15 14  1  6
 17 15  1  0
 18 17  2  0
 19 17  1  0
 20 19  1  0
 20 21  1  1
 22 21  1  0
 23 20  1  0
 23 25  1  0
 24 23  2  0
M  END
$$$$
