VRC.pdb
     RDKit          3D

 25 24  0  0  1  0  0  0  0  0999 V2000
   20.5074  -18.5306  -13.6995 C   0  0  0  0  0  0  0  0  0  0  0  0
   20.6738  -19.7976  -14.4522 C   0  0  2  0  0  0  0  0  0  0  0  0
   21.1746  -20.8484  -13.4735 C   0  0  0  0  0  0  0  0  0  0  0  0
   21.4730  -19.7498  -15.7026 C   0  0  2  0  0  0  0  0  0  0  0  0
   21.3617  -21.1185  -16.2727 N   0  0  0  0  0  0  0  0  0  0  0  0
   22.8932  -19.4336  -15.5704 C   0  0  0  0  0  0  0  0  0  0  0  0
   23.2631  -18.2088  -15.4925 O   0  0  0  0  0  0  0  0  0  0  0  0
   25.9468  -20.5424   -8.9565 N   0  0  0  0  0  0  0  0  0  0  0  0
   25.0857  -21.1890   -9.8947 C   0  0  0  0  0  0  0  0  0  0  0  0
   23.8383  -21.2889   -9.6261 N   0  0  0  0  0  0  0  0  0  0  0  0
   25.5787  -21.7215  -11.1140 N   0  0  0  0  0  0  0  0  0  0  0  0
   26.6324  -21.0160  -11.8539 C   0  0  0  0  0  0  0  0  0  0  0  0
   25.9741  -20.1423  -12.9236 C   0  0  0  0  0  0  0  0  0  0  0  0
   25.9966  -20.8163  -14.2574 C   0  0  0  0  0  0  0  0  0  0  0  0
   25.3685  -19.9543  -15.3324 C   0  0  2  0  0  0  0  0  0  0  0  0
   23.9590  -20.3672  -15.5126 N   0  0  0  0  0  0  0  0  0  0  0  0
   26.0763  -19.9468  -16.6083 C   0  0  0  0  0  0  0  0  0  0  0  0
   26.1544  -20.9616  -17.3376 O   0  0  0  0  0  0  0  0  0  0  0  0
   23.1507  -21.7503  -10.2627 N   0  0  0  0  0  0  0  0  0  0  0  0
   26.7268  -18.7777  -17.1081 C   0  0  2  0  0  0  0  0  0  0  0  0
   27.4632  -18.7811  -18.3526 C   0  0  0  0  0  0  0  0  0  0  0  0
   27.9528  -17.3880  -18.7089 S   0  0  0  0  0  0  0  0  0  0  0  0
   29.0180  -16.7028  -17.4248 C   0  0  0  0  0  0  0  0  0  0  0  0
   28.5853  -19.7512  -18.3242 O   0  0  0  0  0  0  0  0  0  0  0  0
   29.1614  -20.0787  -17.2580 O   0  0  0  0  0  0  0  0  0  0  0  0
  2  1  1  1
  2  3  1  0
  4  2  1  0
  4  5  1  1
  6  4  1  0
  6 16  1  0
  7  6  2  0
  9  8  1  0
 10  9  2  0
 11  9  1  0
 12 11  1  0
 13 12  1  0
 13 14  1  0
 15 16  1  0
 15 14  1  1
 17 15  1  0
 18 17  2  0
 19 17  1  0
 20 19  1  0
 20 21  1  6
 22 21  1  0
 23 20  1  0
 23 25  1  0
 24 23  2  0
M  END
$$$$
