VRC.pdb
     RDKit          3D

 25 24  0  0  1  0  0  0  0  0999 V2000
   24.9065  -26.2506  -16.1810 C   0  0  0  0  0  0  0  0  0  0  0  0
   25.2388  -25.5465  -17.4433 C   0  0  2  0  0  0  0  0  0  0  0  0
   26.1141  -26.4766  -18.2689 C   0  0  0  0  0  0  0  0  0  0  0  0
   25.7999  -24.1761  -17.3341 C   0  0  2  0  0  0  0  0  0  0  0  0
   27.1715  -24.3731  -16.7952 N   0  0  0  0  0  0  0  0  0  0  0  0
   25.1024  -23.2420  -16.4536 C   0  0  0  0  0  0  0  0  0  0  0  0
   23.9392  -22.8140  -16.7808 O   0  0  0  0  0  0  0  0  0  0  0  0
   25.0870  -20.3561   -7.8061 N   0  0  0  0  0  0  0  0  0  0  0  0
   23.8339  -20.2369   -8.4810 C   0  0  0  0  0  0  0  0  0  0  0  0
   22.7666  -20.0977   -7.7886 N   0  0  0  0  0  0  0  0  0  0  0  0
   23.7445  -20.2690   -9.8967 N   0  0  0  0  0  0  0  0  0  0  0  0
   24.6520  -21.1224  -10.6736 C   0  0  0  0  0  0  0  0  0  0  0  0
   24.3899  -20.8832  -12.1619 C   0  0  0  0  0  0  0  0  0  0  0  0
   25.2385  -21.7765  -13.0080 C   0  0  0  0  0  0  0  0  0  0  0  0
   24.8835  -21.6625  -14.4757 C   0  0  2  0  0  0  0  0  0  0  0  0
   25.5833  -22.7325  -15.2207 N   0  0  0  0  0  0  0  0  0  0  0  0
   25.1426  -20.3567  -15.0729 C   0  0  0  0  0  0  0  0  0  0  0  0
   26.2759  -19.8245  -15.0553 O   0  0  0  0  0  0  0  0  0  0  0  0
   21.8180  -19.9941   -8.2133 N   0  0  0  0  0  0  0  0  0  0  0  0
   24.1169  -19.6005  -15.7178 C   0  0  1  0  0  0  0  0  0  0  0  0
   24.4082  -18.4127  -16.4893 C   0  0  0  0  0  0  0  0  0  0  0  0
   25.2955  -18.7311  -17.6804 S   0  0  0  0  0  0  0  0  0  0  0  0
   27.0439  -18.5262  -17.2879 C   0  0  0  0  0  0  0  0  0  0  0  0
   23.1691  -17.7175  -16.9165 O   0  0  0  0  0  0  0  0  0  0  0  0
   22.0264  -18.1881  -16.6956 O   0  0  0  0  0  0  0  0  0  0  0  0
  2  1  1  1
  2  3  1  0
  4  2  1  0
  4  5  1  1
  6  4  1  0
  6 16  1  0
  7  6  2  0
  9  8  1  0
 10  9  2  0
 11  9  1  0
 12 11  1  0
 13 12  1  0
 13 14  1  0
 15 16  1  0
 15 14  1  1
 17 15  1  0
 18 17  2  0
 19 17  1  0
 20 19  1  0
 20 21  1  6
 22 21  1  0
 23 20  1  0
 23 25  1  0
 24 23  2  0
M  END
$$$$
