VRC.pdb
     RDKit          3D

 25 24  0  0  1  0  0  0  0  0999 V2000
   19.4201  -32.5837  -11.9591 C   0  0  0  0  0  0  0  0  0  0  0  0
   20.4621  -31.8783  -12.7441 C   0  0  2  0  0  0  0  0  0  0  0  0
   21.5479  -32.8901  -13.0760 C   0  0  0  0  0  0  0  0  0  0  0  0
   21.0055  -30.6167  -12.1803 C   0  0  2  0  0  0  0  0  0  0  0  0
   22.0020  -31.0557  -11.1679 N   0  0  0  0  0  0  0  0  0  0  0  0
   20.0576  -29.7237  -11.5182 C   0  0  0  0  0  0  0  0  0  0  0  0
   19.1572  -29.1314  -12.2120 O   0  0  0  0  0  0  0  0  0  0  0  0
   18.3360  -25.2304   -5.2596 N   0  0  0  0  0  0  0  0  0  0  0  0
   17.0234  -25.7782   -5.1308 C   0  0  0  0  0  0  0  0  0  0  0  0
   16.0731  -25.0240   -4.7233 N   0  0  0  0  0  0  0  0  0  0  0  0
   16.7485  -27.1348   -5.4433 N   0  0  0  0  0  0  0  0  0  0  0  0
   17.8142  -28.0030   -5.9589 C   0  0  0  0  0  0  0  0  0  0  0  0
   18.0477  -27.6639   -7.4325 C   0  0  0  0  0  0  0  0  0  0  0  0
   18.9522  -28.6634   -8.0779 C   0  0  0  0  0  0  0  0  0  0  0  0
   19.0894  -28.4178   -9.5658 C   0  0  2  0  0  0  0  0  0  0  0  0
   20.0140  -29.4244  -10.1327 N   0  0  0  0  0  0  0  0  0  0  0  0
   19.5017  -27.0669   -9.9321 C   0  0  0  0  0  0  0  0  0  0  0  0
   20.6337  -26.6120   -9.6503 O   0  0  0  0  0  0  0  0  0  0  0  0
   15.0953  -25.3620   -4.5794 N   0  0  0  0  0  0  0  0  0  0  0  0
   18.6377  -26.1751  -10.6378 C   0  0  2  0  0  0  0  0  0  0  0  0
   19.0407  -24.8310  -10.9871 C   0  0  0  0  0  0  0  0  0  0  0  0
   19.6607  -24.7825  -12.3729 S   0  0  0  0  0  0  0  0  0  0  0  0
   19.9191  -23.0876  -12.9329 C   0  0  0  0  0  0  0  0  0  0  0  0
   17.9143  -23.8723  -10.8715 O   0  0  0  0  0  0  0  0  0  0  0  0
   16.7281  -24.1986  -11.1215 O   0  0  0  0  0  0  0  0  0  0  0  0
  2  1  1  1
  2  3  1  0
  4  2  1  0
  4  5  1  1
  6  4  1  0
  6 16  1  0
  7  6  2  0
  9  8  1  0
 10  9  2  0
 11  9  1  0
 12 11  1  0
 13 12  1  0
 13 14  1  0
 15 16  1  0
 15 14  1  1
 17 15  1  0
 18 17  2  0
 19 17  1  0
 20 19  1  0
 20 21  1  6
 22 21  1  0
 23 20  1  0
 23 25  1  0
 24 23  2  0
M  END
$$$$
