VRC.pdb
     RDKit          3D

 25 24  0  0  1  0  0  0  0  0999 V2000
   18.5827  -22.0861  -13.2317 C   0  0  0  0  0  0  0  0  0  0  0  0
   19.9534  -22.6520  -13.2536 C   0  0  2  0  0  0  0  0  0  0  0  0
   20.7553  -21.8682  -14.2809 C   0  0  0  0  0  0  0  0  0  0  0  0
   20.0835  -24.1214  -13.4227 C   0  0  2  0  0  0  0  0  0  0  0  0
   19.5479  -24.3923  -14.7830 N   0  0  0  0  0  0  0  0  0  0  0  0
   19.3550  -24.9649  -12.4782 C   0  0  0  0  0  0  0  0  0  0  0  0
   18.0733  -24.9723  -12.4963 O   0  0  0  0  0  0  0  0  0  0  0  0
   21.1407  -32.7788  -11.6000 N   0  0  0  0  0  0  0  0  0  0  0  0
   21.7710  -31.5919  -12.0833 C   0  0  0  0  0  0  0  0  0  0  0  0
   22.9342  -31.6770  -12.6101 N   0  0  0  0  0  0  0  0  0  0  0  0
   21.1399  -30.3242  -11.9938 N   0  0  0  0  0  0  0  0  0  0  0  0
   19.6791  -30.2346  -11.8770 C   0  0  0  0  0  0  0  0  0  0  0  0
   19.2778  -28.7586  -11.9140 C   0  0  0  0  0  0  0  0  0  0  0  0
   19.6285  -28.0733  -10.6329 C   0  0  0  0  0  0  0  0  0  0  0  0
   19.1063  -26.6524  -10.5953 C   0  0  2  0  0  0  0  0  0  0  0  0
   19.9272  -25.8178  -11.5005 N   0  0  0  0  0  0  0  0  0  0  0  0
   19.0308  -26.0585   -9.2646 C   0  0  0  0  0  0  0  0  0  0  0  0
   19.9974  -25.4575   -8.7429 O   0  0  0  0  0  0  0  0  0  0  0  0
   23.4501  -30.8544  -12.9951 N   0  0  0  0  0  0  0  0  0  0  0  0
   17.8456  -26.1249   -8.4705 C   0  0  2  0  0  0  0  0  0  0  0  0
   17.7605  -25.5095   -7.1647 C   0  0  0  0  0  0  0  0  0  0  0  0
   16.5515  -24.5957   -7.0621 S   0  0  0  0  0  0  0  0  0  0  0  0
   16.2834  -24.0254   -5.3722 C   0  0  0  0  0  0  0  0  0  0  0  0
   17.7594  -26.5213   -6.0796 O   0  0  0  0  0  0  0  0  0  0  0  0
   17.2780  -27.6702   -6.2349 O   0  0  0  0  0  0  0  0  0  0  0  0
  2  1  1  6
  2  3  1  0
  4  2  1  0
  4  5  1  6
  6  4  1  0
  6 16  1  0
  7  6  2  0
  9  8  1  0
 10  9  2  0
 11  9  1  0
 12 11  1  0
 13 12  1  0
 13 14  1  0
 15 16  1  0
 15 14  1  1
 17 15  1  0
 18 17  2  0
 19 17  1  0
 20 19  1  0
 20 21  1  1
 22 21  1  0
 23 20  1  0
 23 25  1  0
 24 23  2  0
M  END
$$$$
