VRC.pdb
     RDKit          3D

 25 24  0  0  1  0  0  0  0  0999 V2000
   28.1081  -24.7566  -18.5278 C   0  0  0  0  0  0  0  0  0  0  0  0
   27.1106  -23.9494  -17.7840 C   0  0  2  0  0  0  0  0  0  0  0  0
   27.2979  -22.4977  -18.1965 C   0  0  0  0  0  0  0  0  0  0  0  0
   27.0511  -24.1249  -16.3107 C   0  0  2  0  0  0  0  0  0  0  0  0
   26.6162  -25.5335  -16.1171 N   0  0  0  0  0  0  0  0  0  0  0  0
   26.1252  -23.2652  -15.5773 C   0  0  0  0  0  0  0  0  0  0  0  0
   24.8637  -23.3848  -15.7712 O   0  0  0  0  0  0  0  0  0  0  0  0
   22.6809  -20.5378   -9.9442 N   0  0  0  0  0  0  0  0  0  0  0  0
   23.6087  -21.0115   -8.9672 C   0  0  0  0  0  0  0  0  0  0  0  0
   23.1616  -21.5660   -7.9039 N   0  0  0  0  0  0  0  0  0  0  0  0
   25.0103  -20.8825   -9.1469 N   0  0  0  0  0  0  0  0  0  0  0  0
   25.5434  -20.2714  -10.3707 C   0  0  0  0  0  0  0  0  0  0  0  0
   25.4912  -21.3081  -11.4948 C   0  0  0  0  0  0  0  0  0  0  0  0
   26.0875  -20.7669  -12.7539 C   0  0  0  0  0  0  0  0  0  0  0  0
   25.4695  -21.3981  -13.9840 C   0  0  2  0  0  0  0  0  0  0  0  0
   26.4756  -22.2700  -14.6299 N   0  0  0  0  0  0  0  0  0  0  0  0
   24.9049  -20.4547  -14.9433 C   0  0  0  0  0  0  0  0  0  0  0  0
   25.6120  -19.6359  -15.5738 O   0  0  0  0  0  0  0  0  0  0  0  0
   23.7801  -21.9591   -7.1596 N   0  0  0  0  0  0  0  0  0  0  0  0
   23.5057  -20.4054  -15.2251 C   0  0  2  0  0  0  0  0  0  0  0  0
   22.9484  -19.4829  -16.1891 C   0  0  0  0  0  0  0  0  0  0  0  0
   21.9513  -20.1740  -17.1032 S   0  0  0  0  0  0  0  0  0  0  0  0
   22.6585  -21.6397  -17.8807 C   0  0  0  0  0  0  0  0  0  0  0  0
   22.3397  -18.3011  -15.5304 O   0  0  0  0  0  0  0  0  0  0  0  0
   21.9925  -18.3109  -14.3240 O   0  0  0  0  0  0  0  0  0  0  0  0
  2  1  1  1
  2  3  1  0
  4  2  1  0
  4  5  1  6
  6  4  1  0
  6 16  1  0
  7  6  2  0
  9  8  1  0
 10  9  2  0
 11  9  1  0
 12 11  1  0
 13 12  1  0
 13 14  1  0
 15 16  1  0
 15 14  1  1
 17 15  1  0
 18 17  2  0
 19 17  1  0
 20 19  1  0
 20 21  1  6
 22 21  1  0
 23 20  1  0
 23 25  1  0
 24 23  2  0
M  END
$$$$
