VRC.pdb
     RDKit          3D

 25 24  0  0  1  0  0  0  0  0999 V2000
   20.8947  -20.2241  -13.3804 C   0  0  0  0  0  0  0  0  0  0  0  0
   21.9092  -20.6711  -14.3655 C   0  0  2  0  0  0  0  0  0  0  0  0
   23.1077  -21.1881  -13.5850 C   0  0  0  0  0  0  0  0  0  0  0  0
   22.2897  -19.7153  -15.4362 C   0  0  2  0  0  0  0  0  0  0  0  0
   22.8500  -20.5668  -16.5187 N   0  0  0  0  0  0  0  0  0  0  0  0
   23.2890  -18.7046  -15.0986 C   0  0  0  0  0  0  0  0  0  0  0  0
   23.0074  -17.8022  -14.2328 O   0  0  0  0  0  0  0  0  0  0  0  0
   25.6683  -20.3430  -10.5195 N   0  0  0  0  0  0  0  0  0  0  0  0
   26.1521  -21.1965  -11.5574 C   0  0  0  0  0  0  0  0  0  0  0  0
   25.6342  -22.3584  -11.6976 N   0  0  0  0  0  0  0  0  0  0  0  0
   27.1899  -20.7879  -12.4345 N   0  0  0  0  0  0  0  0  0  0  0  0
   27.1911  -19.4303  -12.9932 C   0  0  0  0  0  0  0  0  0  0  0  0
   26.9083  -19.5216  -14.4941 C   0  0  0  0  0  0  0  0  0  0  0  0
   26.9370  -18.1694  -15.1303 C   0  0  0  0  0  0  0  0  0  0  0  0
   25.5537  -17.5588  -15.2131 C   0  0  2  0  0  0  0  0  0  0  0  0
   24.5957  -18.6026  -15.6400 N   0  0  0  0  0  0  0  0  0  0  0  0
   25.4512  -16.3780  -16.0642 C   0  0  0  0  0  0  0  0  0  0  0  0
   25.4383  -16.4517  -17.3141 O   0  0  0  0  0  0  0  0  0  0  0  0
   25.9624  -23.0497  -12.4085 N   0  0  0  0  0  0  0  0  0  0  0  0
   25.3584  -15.0592  -15.5239 C   0  0  1  0  0  0  0  0  0  0  0  0
   25.1689  -13.8970  -16.3631 C   0  0  0  0  0  0  0  0  0  0  0  0
   24.7277  -12.6931  -15.5486 S   0  0  0  0  0  0  0  0  0  0  0  0
   23.2279  -13.0339  -14.6067 C   0  0  0  0  0  0  0  0  0  0  0  0
   26.3836  -13.5890  -17.1574 O   0  0  0  0  0  0  0  0  0  0  0  0
   27.5030  -14.0915  -16.8923 O   0  0  0  0  0  0  0  0  0  0  0  0
  2  1  1  1
  2  3  1  0
  4  2  1  0
  4  5  1  6
  6  4  1  0
  6 16  1  0
  7  6  2  0
  9  8  1  0
 10  9  2  0
 11  9  1  0
 12 11  1  0
 13 12  1  0
 13 14  1  0
 15 16  1  0
 15 14  1  6
 17 15  1  0
 18 17  2  0
 19 17  1  0
 20 19  1  0
 20 21  1  6
 22 21  1  0
 23 20  1  0
 23 25  1  0
 24 23  2  0
M  END
$$$$
