VRC.pdb
     RDKit          3D

 25 24  0  0  1  0  0  0  0  0999 V2000
   22.7745  -19.6542  -18.7389 C   0  0  0  0  0  0  0  0  0  0  0  0
   21.5720  -19.8771  -17.8998 C   0  0  2  0  0  0  0  0  0  0  0  0
   20.3714  -19.3545  -18.6734 C   0  0  0  0  0  0  0  0  0  0  0  0
   21.6137  -19.3821  -16.5006 C   0  0  2  0  0  0  0  0  0  0  0  0
   21.1897  -17.9599  -16.5920 N   0  0  0  0  0  0  0  0  0  0  0  0
   22.9065  -19.4215  -15.8213 C   0  0  0  0  0  0  0  0  0  0  0  0
   23.4201  -20.5527  -15.5056 O   0  0  0  0  0  0  0  0  0  0  0  0
   28.3566  -18.0560  -17.5827 N   0  0  0  0  0  0  0  0  0  0  0  0
   28.1369  -16.8243  -18.2715 C   0  0  0  0  0  0  0  0  0  0  0  0
   28.2742  -16.7913  -19.5435 N   0  0  0  0  0  0  0  0  0  0  0  0
   27.7709  -15.6399  -17.5811 N   0  0  0  0  0  0  0  0  0  0  0  0
   27.1851  -15.7211  -16.2374 C   0  0  0  0  0  0  0  0  0  0  0  0
   26.3768  -17.0162  -16.1365 C   0  0  0  0  0  0  0  0  0  0  0  0
   25.7353  -17.1468  -14.7929 C   0  0  0  0  0  0  0  0  0  0  0  0
   24.9446  -18.4326  -14.6711 C   0  0  2  0  0  0  0  0  0  0  0  0
   23.6973  -18.3023  -15.4564 N   0  0  0  0  0  0  0  0  0  0  0  0
   24.6577  -18.8525  -13.3034 C   0  0  0  0  0  0  0  0  0  0  0  0
   23.7134  -18.3695  -12.6380 O   0  0  0  0  0  0  0  0  0  0  0  0
   28.2037  -15.9130  -20.1044 N   0  0  0  0  0  0  0  0  0  0  0  0
   25.4381  -19.8445  -12.6350 C   0  0  1  0  0  0  0  0  0  0  0  0
   25.2304  -20.1756  -11.2428 C   0  0  0  0  0  0  0  0  0  0  0  0
   23.8056  -20.6382  -10.9913 S   0  0  0  0  0  0  0  0  0  0  0  0
   23.5706  -21.1919   -9.2910 C   0  0  0  0  0  0  0  0  0  0  0  0
   26.2111  -21.1811  -10.7651 O   0  0  0  0  0  0  0  0  0  0  0  0
   26.8152  -21.9534  -11.5492 O   0  0  0  0  0  0  0  0  0  0  0  0
  2  1  1  6
  2  3  1  0
  4  2  1  0
  4  5  1  6
  6  4  1  0
  6 16  1  0
  7  6  2  0
  9  8  1  0
 10  9  2  0
 11  9  1  0
 12 11  1  0
 13 12  1  0
 13 14  1  0
 15 16  1  0
 15 14  1  1
 17 15  1  0
 18 17  2  0
 19 17  1  0
 20 19  1  0
 20 21  1  1
 22 21  1  0
 23 20  1  0
 23 25  1  0
 24 23  2  0
M  END
$$$$
