VRC.pdb
     RDKit          3D

 25 24  0  0  1  0  0  0  0  0999 V2000
   19.6253  -19.2035  -17.5369 C   0  0  0  0  0  0  0  0  0  0  0  0
   20.1251  -19.9448  -16.3536 C   0  0  2  0  0  0  0  0  0  0  0  0
   18.9150  -20.4905  -15.6114 C   0  0  0  0  0  0  0  0  0  0  0  0
   21.0786  -19.2413  -15.4590 C   0  0  2  0  0  0  0  0  0  0  0  0
   21.7181  -18.2146  -16.3238 N   0  0  0  0  0  0  0  0  0  0  0  0
   22.1402  -20.0449  -14.8577 C   0  0  0  0  0  0  0  0  0  0  0  0
   21.8350  -20.9918  -14.0494 O   0  0  0  0  0  0  0  0  0  0  0  0
   29.0792  -21.2454  -17.9852 N   0  0  0  0  0  0  0  0  0  0  0  0
   28.5993  -22.4901  -17.4753 C   0  0  0  0  0  0  0  0  0  0  0  0
   28.5908  -23.5139  -18.2433 N   0  0  0  0  0  0  0  0  0  0  0  0
   28.1332  -22.6185  -16.1412 N   0  0  0  0  0  0  0  0  0  0  0  0
   28.1988  -21.4739  -15.2242 C   0  0  0  0  0  0  0  0  0  0  0  0
   26.9112  -21.4378  -14.3984 C   0  0  0  0  0  0  0  0  0  0  0  0
   25.8219  -20.7234  -15.1310 C   0  0  0  0  0  0  0  0  0  0  0  0
   24.5446  -20.6650  -14.3198 C   0  0  2  0  0  0  0  0  0  0  0  0
   23.5332  -19.8942  -15.0765 N   0  0  0  0  0  0  0  0  0  0  0  0
   24.6966  -20.1383  -12.9676 C   0  0  0  0  0  0  0  0  0  0  0  0
   24.8890  -18.9222  -12.7396 O   0  0  0  0  0  0  0  0  0  0  0  0
   28.3198  -24.4696  -17.9206 N   0  0  0  0  0  0  0  0  0  0  0  0
   24.6351  -20.9790  -11.8147 C   0  0  2  0  0  0  0  0  0  0  0  0
   24.8488  -20.4677  -10.4791 C   0  0  0  0  0  0  0  0  0  0  0  0
   23.8018  -20.9930   -9.5121 S   0  0  0  0  0  0  0  0  0  0  0  0
   22.1523  -20.3844   -9.9141 C   0  0  0  0  0  0  0  0  0  0  0  0
   26.2198  -20.7586   -9.9923 O   0  0  0  0  0  0  0  0  0  0  0  0
   27.0236  -21.4728  -10.6403 O   0  0  0  0  0  0  0  0  0  0  0  0
  2  1  1  6
  2  3  1  0
  4  2  1  0
  4  5  1  6
  6  4  1  0
  6 16  1  0
  7  6  2  0
  9  8  1  0
 10  9  2  0
 11  9  1  0
 12 11  1  0
 13 12  1  0
 13 14  1  0
 15 16  1  0
 15 14  1  6
 17 15  1  0
 18 17  2  0
 19 17  1  0
 20 19  1  0
 20 21  1  6
 22 21  1  0
 23 20  1  0
 23 25  1  0
 24 23  2  0
M  END
$$$$
