VRC.pdb
     RDKit          3D

 25 24  0  0  1  0  0  0  0  0999 V2000
   24.3725   -7.2319    9.2907 C   0  0  0  0  0  0  0  0  0  0  0  0
   23.3579   -8.3133    9.3215 C   0  0  2  0  0  0  0  0  0  0  0  0
   23.1711   -8.7239   10.7738 C   0  0  0  0  0  0  0  0  0  0  0  0
   23.5680   -9.4734    8.4189 C   0  0  2  0  0  0  0  0  0  0  0  0
   23.5967   -8.8869    7.0530 N   0  0  0  0  0  0  0  0  0  0  0  0
   22.5488  -10.5200    8.4358 C   0  0  0  0  0  0  0  0  0  0  0  0
   22.4940  -11.3326    9.4257 O   0  0  0  0  0  0  0  0  0  0  0  0
   15.1908  -12.7566    3.5957 N   0  0  0  0  0  0  0  0  0  0  0  0
   15.6339  -13.9101    4.3120 C   0  0  0  0  0  0  0  0  0  0  0  0
   15.0272  -15.0227    4.1334 N   0  0  0  0  0  0  0  0  0  0  0  0
   16.7278  -13.8520    5.2139 N   0  0  0  0  0  0  0  0  0  0  0  0
   17.5769  -12.6555    5.2669 C   0  0  0  0  0  0  0  0  0  0  0  0
   18.6004  -12.8346    6.3899 C   0  0  0  0  0  0  0  0  0  0  0  0
   19.5486  -11.6805    6.4428 C   0  0  0  0  0  0  0  0  0  0  0  0
   20.5890  -11.8583    7.5287 C   0  0  2  0  0  0  0  0  0  0  0  0
   21.5660  -10.7505    7.4399 N   0  0  0  0  0  0  0  0  0  0  0  0
   21.2658  -13.1510    7.5282 C   0  0  0  0  0  0  0  0  0  0  0  0
   22.0803  -13.4809    6.6363 O   0  0  0  0  0  0  0  0  0  0  0  0
   15.2948  -15.9058    4.6229 N   0  0  0  0  0  0  0  0  0  0  0  0
   21.0415  -14.1250    8.5484 C   0  0  1  0  0  0  0  0  0  0  0  0
   21.6132  -15.4516    8.4828 C   0  0  0  0  0  0  0  0  0  0  0  0
   22.9117  -15.5333    9.2668 S   0  0  0  0  0  0  0  0  0  0  0  0
   23.6624  -17.1692    9.1522 C   0  0  0  0  0  0  0  0  0  0  0  0
   20.6510  -16.4873    8.9328 O   0  0  0  0  0  0  0  0  0  0  0  0
   20.8360  -17.7110    8.7218 O   0  0  0  0  0  0  0  0  0  0  0  0
  2  1  1  1
  2  3  1  0
  4  2  1  0
  4  5  1  6
  6  4  1  0
  6 16  1  0
  7  6  2  0
  9  8  1  0
 10  9  2  0
 11  9  1  0
 12 11  1  0
 13 12  1  0
 13 14  1  0
 15 16  1  0
 15 14  1  6
 17 15  1  0
 18 17  2  0
 19 17  1  0
 20 19  1  0
 20 21  1  1
 22 21  1  0
 23 20  1  0
 23 25  1  0
 24 23  2  0
M  END
$$$$
