VRC.pdb
     RDKit          3D

 25 24  0  0  1  0  0  0  0  0999 V2000
   10.0810  -20.2030   -0.3308 C   0  0  0  0  0  0  0  0  0  0  0  0
    9.7653  -18.9139    0.3310 C   0  0  2  0  0  0  0  0  0  0  0  0
    8.9910  -18.0656   -0.6658 C   0  0  0  0  0  0  0  0  0  0  0  0
   10.8890  -18.1765    0.9621 C   0  0  2  0  0  0  0  0  0  0  0  0
   11.5851  -17.5106   -0.1704 N   0  0  0  0  0  0  0  0  0  0  0  0
   11.8763  -18.9692    1.6910 C   0  0  0  0  0  0  0  0  0  0  0  0
   11.6027  -19.3896    2.8707 O   0  0  0  0  0  0  0  0  0  0  0  0
   14.5747  -25.4620   -0.5269 N   0  0  0  0  0  0  0  0  0  0  0  0
   13.9065  -24.7224   -1.5498 C   0  0  0  0  0  0  0  0  0  0  0  0
   13.0819  -25.3299   -2.3173 N   0  0  0  0  0  0  0  0  0  0  0  0
   14.1342  -23.3341   -1.7347 N   0  0  0  0  0  0  0  0  0  0  0  0
   15.0024  -22.5994   -0.8063 C   0  0  0  0  0  0  0  0  0  0  0  0
   14.1218  -21.7648    0.1260 C   0  0  0  0  0  0  0  0  0  0  0  0
   14.9509  -20.9932    1.1012 C   0  0  0  0  0  0  0  0  0  0  0  0
   14.0935  -20.1618    2.0323 C   0  0  2  0  0  0  0  0  0  0  0  0
   13.1601  -19.3477    1.2226 N   0  0  0  0  0  0  0  0  0  0  0  0
   14.8347  -19.3257    2.9707 C   0  0  0  0  0  0  0  0  0  0  0  0
   15.5022  -18.3329    2.6012 O   0  0  0  0  0  0  0  0  0  0  0  0
   12.5387  -24.8494   -3.0689 N   0  0  0  0  0  0  0  0  0  0  0  0
   14.8455  -19.5872    4.3747 C   0  0  1  0  0  0  0  0  0  0  0  0
   15.5977  -18.7717    5.3021 C   0  0  0  0  0  0  0  0  0  0  0  0
   14.6859  -17.8481    6.0913 S   0  0  0  0  0  0  0  0  0  0  0  0
   14.0977  -16.4691    5.0885 C   0  0  0  0  0  0  0  0  0  0  0  0
   16.4342  -19.5981    6.2069 O   0  0  0  0  0  0  0  0  0  0  0  0
   16.4196  -20.8529    6.1734 O   0  0  0  0  0  0  0  0  0  0  0  0
  2  1  1  6
  2  3  1  0
  4  2  1  0
  4  5  1  6
  6  4  1  0
  6 16  1  0
  7  6  2  0
  9  8  1  0
 10  9  2  0
 11  9  1  0
 12 11  1  0
 13 12  1  0
 13 14  1  0
 15 16  1  0
 15 14  1  6
 17 15  1  0
 18 17  2  0
 19 17  1  0
 20 19  1  0
 20 21  1  6
 22 21  1  0
 23 20  1  0
 23 25  1  0
 24 23  2  0
M  END
$$$$
