MLR.pdb
     RDKit          3D

 28 27  0  0  1  0  0  0  0  0999 V2000
   -1.2649  -29.1863   22.1860 C   0  0  0  0  0  0  0  0  0  0  0  0
    0.5032  -29.1540   22.5294 S   0  0  0  0  0  0  0  0  0  0  0  0
    1.1540  -27.4770   22.6017 C   0  0  0  0  0  0  0  0  0  0  0  0
    2.6639  -27.4726   22.8224 C   0  0  0  0  0  0  0  0  0  0  0  0
    3.1745  -28.8681   22.5099 C   0  0  2  0  0  0  0  0  0  0  0  0
    3.3374  -29.5246   23.7983 N   0  0  0  0  0  0  0  0  0  0  0  0
    4.5178  -28.8208   21.8764 C   0  0  0  0  0  0  0  0  0  0  0  0
    4.7013  -28.3410   20.7409 O   0  0  0  0  0  0  0  0  0  0  0  0
    9.1192  -29.8443   24.1534 C   0  0  0  0  0  0  0  0  0  0  0  0
    8.2466  -30.9074   23.5361 C   0  0  2  0  0  0  0  0  0  0  0  0
    9.0507  -32.2164   23.5568 C   0  0  0  0  0  0  0  0  0  0  0  0
    7.7972  -30.5848   22.1722 C   0  0  0  0  0  0  0  0  0  0  0  0
    6.9763  -29.3658   21.9596 C   0  0  2  0  0  0  0  0  0  0  0  0
    5.6864  -29.3351   22.5564 N   0  0  0  0  0  0  0  0  0  0  0  0
    6.9385  -28.9757   20.5032 C   0  0  0  0  0  0  0  0  0  0  0  0
    6.0427  -29.4206   19.7394 O   0  0  0  0  0  0  0  0  0  0  0  0
   10.8314  -22.8949   13.8365 N   0  0  0  0  0  0  0  0  0  0  0  0
   10.2065  -22.9952   15.1274 C   0  0  0  0  0  0  0  0  0  0  0  0
   10.2824  -21.9947   15.9352 N   0  0  0  0  0  0  0  0  0  0  0  0
    9.5164  -24.1764   15.5086 N   0  0  0  0  0  0  0  0  0  0  0  0
    8.9964  -24.3860   16.8251 C   0  0  0  0  0  0  0  0  0  0  0  0
    8.3885  -25.7211   17.0359 C   0  0  0  0  0  0  0  0  0  0  0  0
    8.5609  -26.3527   18.3633 C   0  0  0  0  0  0  0  0  0  0  0  0
    7.9397  -27.6941   18.5548 C   0  0  2  0  0  0  0  0  0  0  0  0
    7.8934  -28.1053   19.9393 N   0  0  0  0  0  0  0  0  0  0  0  0
    8.4424  -28.7002   17.6250 C   0  0  0  0  0  0  0  0  0  0  0  0
    8.1454  -28.7330   16.4051 O   0  0  0  0  0  0  0  0  0  0  0  0
    9.2981  -29.6811   18.0973 O   0  0  0  0  0  0  0  0  0  0  0  0
  2  1  1  0
  3  2  1  0
  4  3  1  0
  5  6  1  1
  5  4  1  0
  7  5  1  0
  8  7  2  0
 10 12  1  0
 10  9  1  6
 11 10  1  0
 13 12  1  6
 13 14  1  0
 14  7  1  0
 15 13  1  0
 15 16  2  0
 18 20  1  0
 18 17  1  0
 19 18  2  0
 21 20  1  0
 22 21  1  0
 23 22  1  0
 24 23  1  1
 24 25  1  0
 25 15  1  0
 26 24  1  0
 27 26  2  0
 28 26  1  0
M  END
$$$$
