MLR.pdb
     RDKit          3D

 28 27  0  0  1  0  0  0  0  0999 V2000
    8.0277  -20.3478   27.3233 C   0  0  0  0  0  0  0  0  0  0  0  0
    6.3856  -20.6069   26.6294 S   0  0  0  0  0  0  0  0  0  0  0  0
    6.4403  -20.9903   24.8712 C   0  0  0  0  0  0  0  0  0  0  0  0
    7.0567  -19.8477   24.0692 C   0  0  0  0  0  0  0  0  0  0  0  0
    5.9782  -18.7978   23.8682 C   0  0  2  0  0  0  0  0  0  0  0  0
    5.4283  -19.0477   22.5444 N   0  0  0  0  0  0  0  0  0  0  0  0
    6.5565  -17.4293   23.8444 C   0  0  0  0  0  0  0  0  0  0  0  0
    7.2193  -17.0039   22.8785 O   0  0  0  0  0  0  0  0  0  0  0  0
    6.6497  -12.1329   27.2633 C   0  0  0  0  0  0  0  0  0  0  0  0
    7.2039  -12.9843   26.1495 C   0  0  2  0  0  0  0  0  0  0  0  0
    7.1783  -12.1278   24.8741 C   0  0  0  0  0  0  0  0  0  0  0  0
    6.4751  -14.2477   25.9523 C   0  0  0  0  0  0  0  0  0  0  0  0
    7.0567  -15.2754   25.0521 C   0  0  2  0  0  0  0  0  0  0  0  0
    6.3743  -16.5185   24.9534 N   0  0  0  0  0  0  0  0  0  0  0  0
    8.5328  -15.4553   25.3047 C   0  0  0  0  0  0  0  0  0  0  0  0
    8.9598  -15.7477   26.4518 O   0  0  0  0  0  0  0  0  0  0  0  0
   11.0239  -23.1133   24.0443 N   0  0  0  0  0  0  0  0  0  0  0  0
   10.6267  -22.0298   24.9017 C   0  0  0  0  0  0  0  0  0  0  0  0
    9.8459  -22.2768   25.8961 N   0  0  0  0  0  0  0  0  0  0  0  0
   11.0860  -20.7080   24.6593 N   0  0  0  0  0  0  0  0  0  0  0  0
   10.7659  -19.6023   25.5093 C   0  0  0  0  0  0  0  0  0  0  0  0
   11.3475  -18.3102   25.0753 C   0  0  0  0  0  0  0  0  0  0  0  0
   10.5723  -17.4967   24.1121 C   0  0  0  0  0  0  0  0  0  0  0  0
   10.7429  -16.0180   24.1912 C   0  0  2  0  0  0  0  0  0  0  0  0
    9.4885  -15.3062   24.2791 N   0  0  0  0  0  0  0  0  0  0  0  0
   11.6868  -15.4934   23.2096 C   0  0  0  0  0  0  0  0  0  0  0  0
   11.3710  -14.6879   22.2993 O   0  0  0  0  0  0  0  0  0  0  0  0
   13.0106  -15.8950   23.2717 O   0  0  0  0  0  0  0  0  0  0  0  0
  2  1  1  0
  3  2  1  0
  4  3  1  0
  5  6  1  6
  5  4  1  0
  7  5  1  0
  8  7  2  0
 10 12  1  0
 10  9  1  1
 11 10  1  0
 13 12  1  1
 13 14  1  0
 14  7  1  0
 15 13  1  0
 15 16  2  0
 18 20  1  0
 18 17  1  0
 19 18  2  0
 21 20  1  0
 22 21  1  0
 23 22  1  0
 24 23  1  6
 24 25  1  0
 25 15  1  0
 26 24  1  0
 27 26  2  0
 28 26  1  0
M  END
$$$$
