MLR.pdb
     RDKit          3D

 28 27  0  0  1  0  0  0  0  0999 V2000
    5.6611  -18.5069   19.9425 C   0  0  0  0  0  0  0  0  0  0  0  0
    7.4159  -18.4808   20.3490 S   0  0  0  0  0  0  0  0  0  0  0  0
    7.9895  -16.8328   20.7919 C   0  0  0  0  0  0  0  0  0  0  0  0
    6.8375  -15.8331   20.8351 C   0  0  0  0  0  0  0  0  0  0  0  0
    7.4278  -14.4703   21.1512 C   0  0  2  0  0  0  0  0  0  0  0  0
    8.5029  -14.2752   20.1902 N   0  0  0  0  0  0  0  0  0  0  0  0
    8.0472  -14.4518   22.5018 C   0  0  0  0  0  0  0  0  0  0  0  0
    9.2706  -14.6151   22.6749 O   0  0  0  0  0  0  0  0  0  0  0  0
    7.6468  -11.3465   26.1920 C   0  0  0  0  0  0  0  0  0  0  0  0
    6.5323  -12.3454   26.0111 C   0  0  2  0  0  0  0  0  0  0  0  0
    5.4677  -12.0277   27.0725 C   0  0  0  0  0  0  0  0  0  0  0  0
    6.9727  -13.7465   26.1074 C   0  0  0  0  0  0  0  0  0  0  0  0
    7.7863  -14.3174   25.0042 C   0  0  2  0  0  0  0  0  0  0  0  0
    7.2496  -14.2408   23.6900 N   0  0  0  0  0  0  0  0  0  0  0  0
    8.2714  -15.7054   25.3404 C   0  0  0  0  0  0  0  0  0  0  0  0
    7.4910  -16.6914   25.2888 O   0  0  0  0  0  0  0  0  0  0  0  0
   14.9591  -20.2255   22.3822 N   0  0  0  0  0  0  0  0  0  0  0  0
   13.5619  -20.0536   22.0904 C   0  0  0  0  0  0  0  0  0  0  0  0
   13.1168  -20.4202   20.9384 N   0  0  0  0  0  0  0  0  0  0  0  0
   12.6845  -19.4892   23.0539 N   0  0  0  0  0  0  0  0  0  0  0  0
   13.0342  -19.3359   24.4329 C   0  0  0  0  0  0  0  0  0  0  0  0
   11.9022  -18.9574   25.3113 C   0  0  0  0  0  0  0  0  0  0  0  0
   11.2763  -17.6340   25.0939 C   0  0  0  0  0  0  0  0  0  0  0  0
   10.1634  -17.2581   26.0114 C   0  0  2  0  0  0  0  0  0  0  0  0
    9.6048  -15.9572   25.7225 N   0  0  0  0  0  0  0  0  0  0  0  0
   10.4672  -17.5048   27.4174 C   0  0  0  0  0  0  0  0  0  0  0  0
   10.8888  -18.6028   27.8576 O   0  0  0  0  0  0  0  0  0  0  0  0
   10.2877  -16.4803   28.3315 O   0  0  0  0  0  0  0  0  0  0  0  0
  2  1  1  0
  3  2  1  0
  4  3  1  0
  5  6  1  6
  5  4  1  0
  7  5  1  0
  8  7  2  0
 10 12  1  0
 10  9  1  1
 11 10  1  0
 13 12  1  1
 13 14  1  0
 14  7  1  0
 15 13  1  0
 15 16  2  0
 18 20  1  0
 18 17  1  0
 19 18  2  0
 21 20  1  0
 22 21  1  0
 23 22  1  0
 24 23  1  6
 24 25  1  0
 25 15  1  0
 26 24  1  0
 27 26  2  0
 28 26  1  0
M  END
$$$$
