MLR.pdb
     RDKit          3D

 28 27  0  0  1  0  0  0  0  0999 V2000
    7.6072  -17.4192   18.3486 C   0  0  0  0  0  0  0  0  0  0  0  0
    8.1642  -15.9143   17.5299 S   0  0  0  0  0  0  0  0  0  0  0  0
    7.8765  -14.4461   18.5313 C   0  0  0  0  0  0  0  0  0  0  0  0
    8.2184  -14.6941   19.9977 C   0  0  0  0  0  0  0  0  0  0  0  0
    7.8772  -13.4295   20.7657 C   0  0  2  0  0  0  0  0  0  0  0  0
    8.7076  -12.3830   20.1887 N   0  0  0  0  0  0  0  0  0  0  0  0
    8.2627  -13.5473   22.1959 C   0  0  0  0  0  0  0  0  0  0  0  0
    9.3487  -13.1166   22.6298 O   0  0  0  0  0  0  0  0  0  0  0  0
    7.2640  -11.4813   26.0636 C   0  0  0  0  0  0  0  0  0  0  0  0
    6.2205  -12.4206   25.5144 C   0  0  2  0  0  0  0  0  0  0  0  0
    4.9533  -12.2293   26.3618 C   0  0  0  0  0  0  0  0  0  0  0  0
    6.6414  -13.8309   25.5040 C   0  0  0  0  0  0  0  0  0  0  0  0
    7.6929  -14.2560   24.5456 C   0  0  2  0  0  0  0  0  0  0  0  0
    7.3852  -14.1741   23.1602 N   0  0  0  0  0  0  0  0  0  0  0  0
    8.2694  -15.5981   24.9218 C   0  0  0  0  0  0  0  0  0  0  0  0
    8.5774  -15.8563   26.1144 O   0  0  0  0  0  0  0  0  0  0  0  0
   13.7362  -14.3327   19.6516 N   0  0  0  0  0  0  0  0  0  0  0  0
   14.0505  -15.7351   19.6922 C   0  0  0  0  0  0  0  0  0  0  0  0
   15.2870  -16.0955   19.7144 N   0  0  0  0  0  0  0  0  0  0  0  0
   13.0172  -16.7091   19.7076 N   0  0  0  0  0  0  0  0  0  0  0  0
   11.6857  -16.4276   20.1498 C   0  0  0  0  0  0  0  0  0  0  0  0
   11.3949  -16.8728   21.5331 C   0  0  0  0  0  0  0  0  0  0  0  0
   10.0867  -16.4980   22.1149 C   0  0  0  0  0  0  0  0  0  0  0  0
    9.7751  -17.0353   23.4699 C   0  0  2  0  0  0  0  0  0  0  0  0
    8.4858  -16.6112   23.9656 N   0  0  0  0  0  0  0  0  0  0  0  0
   10.8796  -16.8952   24.4135 C   0  0  0  0  0  0  0  0  0  0  0  0
   11.3016  -15.7897   24.8343 O   0  0  0  0  0  0  0  0  0  0  0  0
   11.5086  -18.0360   24.8830 O   0  0  0  0  0  0  0  0  0  0  0  0
  2  1  1  0
  3  2  1  0
  4  3  1  0
  5  6  1  6
  5  4  1  0
  7  5  1  0
  8  7  2  0
 10 12  1  0
 10  9  1  1
 11 10  1  0
 13 12  1  1
 13 14  1  0
 14  7  1  0
 15 13  1  0
 15 16  2  0
 18 20  1  0
 18 17  1  0
 19 18  2  0
 21 20  1  0
 22 21  1  0
 23 22  1  0
 24 23  1  6
 24 25  1  0
 25 15  1  0
 26 24  1  0
 27 26  2  0
 28 26  1  0
M  END
$$$$
