MLR.pdb
     RDKit          3D

 28 27  0  0  1  0  0  0  0  0999 V2000
    8.7512  -11.2688   19.2559 C   0  0  0  0  0  0  0  0  0  0  0  0
    7.3076  -12.3427   19.3451 S   0  0  0  0  0  0  0  0  0  0  0  0
    7.5141  -13.6651   20.5491 C   0  0  0  0  0  0  0  0  0  0  0  0
    8.8860  -14.3221   20.4277 C   0  0  0  0  0  0  0  0  0  0  0  0
    8.9712  -15.4005   21.4933 C   0  0  2  0  0  0  0  0  0  0  0  0
    7.7924  -16.2328   21.3052 N   0  0  0  0  0  0  0  0  0  0  0  0
    8.8759  -14.8187   22.8572 C   0  0  0  0  0  0  0  0  0  0  0  0
    9.2737  -13.6668   23.1184 O   0  0  0  0  0  0  0  0  0  0  0  0
    5.4966  -12.6555   26.7235 C   0  0  0  0  0  0  0  0  0  0  0  0
    6.8722  -13.2674   26.6455 C   0  0  2  0  0  0  0  0  0  0  0  0
    7.8735  -12.1743   27.0492 C   0  0  0  0  0  0  0  0  0  0  0  0
    7.1990  -13.8205   25.3213 C   0  0  0  0  0  0  0  0  0  0  0  0
    8.0857  -15.0089   25.2421 C   0  0  2  0  0  0  0  0  0  0  0  0
    8.3107  -15.5711   23.9559 N   0  0  0  0  0  0  0  0  0  0  0  0
    7.6977  -16.0530   26.2591 C   0  0  0  0  0  0  0  0  0  0  0  0
    6.4977  -16.1971   26.6097 O   0  0  0  0  0  0  0  0  0  0  0  0
    8.6610  -23.4530   21.3756 N   0  0  0  0  0  0  0  0  0  0  0  0
    9.3332  -22.2509   21.7882 C   0  0  0  0  0  0  0  0  0  0  0  0
   10.5205  -22.0184   21.3459 N   0  0  0  0  0  0  0  0  0  0  0  0
    8.7013  -21.3331   22.6687 N   0  0  0  0  0  0  0  0  0  0  0  0
    9.3212  -20.1208   23.1087 C   0  0  0  0  0  0  0  0  0  0  0  0
    9.2314  -19.8843   24.5689 C   0  0  0  0  0  0  0  0  0  0  0  0
    8.9371  -18.5074   25.0252 C   0  0  0  0  0  0  0  0  0  0  0  0
    8.8814  -18.2851   26.4980 C   0  0  2  0  0  0  0  0  0  0  0  0
    8.6506  -16.9041   26.8549 N   0  0  0  0  0  0  0  0  0  0  0  0
    9.9668  -18.9400   27.2212 C   0  0  0  0  0  0  0  0  0  0  0  0
   10.1173  -20.1857   27.2747 O   0  0  0  0  0  0  0  0  0  0  0  0
   10.8932  -18.1586   27.8907 O   0  0  0  0  0  0  0  0  0  0  0  0
  2  1  1  0
  3  2  1  0
  4  3  1  0
  5  6  1  6
  5  4  1  0
  7  5  1  0
  8  7  2  0
 10 12  1  0
 10  9  1  6
 11 10  1  0
 13 12  1  6
 13 14  1  0
 14  7  1  0
 15 13  1  0
 15 16  2  0
 18 20  1  0
 18 17  1  0
 19 18  2  0
 21 20  1  0
 22 21  1  0
 23 22  1  0
 24 23  1  6
 24 25  1  0
 25 15  1  0
 26 24  1  0
 27 26  2  0
 28 26  1  0
M  END
$$$$
