MLR.pdb
     RDKit          3D

 28 27  0  0  1  0  0  0  0  0999 V2000
   10.6494  -15.1865   31.3541 C   0  0  0  0  0  0  0  0  0  0  0  0
   11.2755  -14.4586   29.8298 S   0  0  0  0  0  0  0  0  0  0  0  0
   10.4690  -15.1345   28.3691 C   0  0  0  0  0  0  0  0  0  0  0  0
    9.3189  -16.0641   28.7456 C   0  0  0  0  0  0  0  0  0  0  0  0
    9.2518  -17.1562   27.6928 C   0  0  2  0  0  0  0  0  0  0  0  0
   10.5901  -17.2401   27.1277 N   0  0  0  0  0  0  0  0  0  0  0  0
    8.3376  -16.7796   26.5836 C   0  0  0  0  0  0  0  0  0  0  0  0
    7.4356  -17.5381   26.1783 O   0  0  0  0  0  0  0  0  0  0  0  0
    5.7156  -13.0285   26.6478 C   0  0  0  0  0  0  0  0  0  0  0  0
    7.0821  -12.8953   26.0252 C   0  0  2  0  0  0  0  0  0  0  0  0
    7.3239  -11.3965   25.7889 C   0  0  0  0  0  0  0  0  0  0  0  0
    7.2402  -13.6593   24.7772 C   0  0  0  0  0  0  0  0  0  0  0  0
    7.5916  -15.0996   24.8604 C   0  0  2  0  0  0  0  0  0  0  0  0
    8.4541  -15.5012   25.9166 N   0  0  0  0  0  0  0  0  0  0  0  0
    8.0423  -15.6336   23.5238 C   0  0  0  0  0  0  0  0  0  0  0  0
    7.3485  -15.4521   22.4896 O   0  0  0  0  0  0  0  0  0  0  0  0
    6.6556  -13.1521   19.0446 N   0  0  0  0  0  0  0  0  0  0  0  0
    7.8593  -13.1670   18.2585 C   0  0  0  0  0  0  0  0  0  0  0  0
    8.1117  -12.1662   17.4876 N   0  0  0  0  0  0  0  0  0  0  0  0
    8.7571  -14.2650   18.3286 N   0  0  0  0  0  0  0  0  0  0  0  0
    8.4173  -15.5132   18.9405 C   0  0  0  0  0  0  0  0  0  0  0  0
    8.5015  -15.5107   20.4200 C   0  0  0  0  0  0  0  0  0  0  0  0
    9.7966  -15.8777   21.0352 C   0  0  0  0  0  0  0  0  0  0  0  0
    9.7574  -16.8850   22.1333 C   0  0  2  0  0  0  0  0  0  0  0  0
    9.2469  -16.3508   23.3750 N   0  0  0  0  0  0  0  0  0  0  0  0
   10.9895  -17.6584   22.2502 C   0  0  0  0  0  0  0  0  0  0  0  0
   11.6615  -17.7441   23.3077 O   0  0  0  0  0  0  0  0  0  0  0  0
   11.4578  -18.3443   21.1422 O   0  0  0  0  0  0  0  0  0  0  0  0
  2  1  1  0
  3  2  1  0
  4  3  1  0
  5  6  1  6
  5  4  1  0
  7  5  1  0
  8  7  2  0
 10 12  1  0
 10  9  1  6
 11 10  1  0
 13 12  1  6
 13 14  1  0
 14  7  1  0
 15 13  1  0
 15 16  2  0
 18 20  1  0
 18 17  1  0
 19 18  2  0
 21 20  1  0
 22 21  1  0
 23 22  1  0
 24 23  1  6
 24 25  1  0
 25 15  1  0
 26 24  1  0
 27 26  2  0
 28 26  1  0
M  END
$$$$
