MLR.pdb
     RDKit          3D

 28 27  0  0  1  0  0  0  0  0999 V2000
    8.6292  -19.5689   29.1808 C   0  0  0  0  0  0  0  0  0  0  0  0
    8.8142  -20.5154   27.6593 S   0  0  0  0  0  0  0  0  0  0  0  0
    7.8195  -19.8482   26.3152 C   0  0  0  0  0  0  0  0  0  0  0  0
    6.5589  -19.1659   26.8384 C   0  0  0  0  0  0  0  0  0  0  0  0
    5.8422  -18.5562   25.6467 C   0  0  2  0  0  0  0  0  0  0  0  0
    5.8127  -19.5976   24.6308 N   0  0  0  0  0  0  0  0  0  0  0  0
    6.6128  -17.4201   25.0782 C   0  0  0  0  0  0  0  0  0  0  0  0
    7.0327  -17.4220   23.9048 O   0  0  0  0  0  0  0  0  0  0  0  0
    6.3706  -12.2482   24.9505 C   0  0  0  0  0  0  0  0  0  0  0  0
    6.5457  -13.0547   26.2121 C   0  0  2  0  0  0  0  0  0  0  0  0
    6.6093  -12.0563   27.3783 C   0  0  0  0  0  0  0  0  0  0  0  0
    7.7319  -13.9259   26.1970 C   0  0  0  0  0  0  0  0  0  0  0  0
    7.6974  -15.1662   25.3813 C   0  0  2  0  0  0  0  0  0  0  0  0
    6.9139  -16.2472   25.8696 N   0  0  0  0  0  0  0  0  0  0  0  0
    9.0860  -15.6030   24.9864 C   0  0  0  0  0  0  0  0  0  0  0  0
    9.7308  -16.4198   25.6941 O   0  0  0  0  0  0  0  0  0  0  0  0
   13.8273  -15.6990   16.9301 N   0  0  0  0  0  0  0  0  0  0  0  0
   13.9297  -14.7874   18.0372 C   0  0  0  0  0  0  0  0  0  0  0  0
   15.0125  -14.1053   18.1838 N   0  0  0  0  0  0  0  0  0  0  0  0
   12.8566  -14.6392   18.9554 N   0  0  0  0  0  0  0  0  0  0  0  0
   12.2202  -15.7482   19.5979 C   0  0  0  0  0  0  0  0  0  0  0  0
   12.2800  -15.7125   21.0783 C   0  0  0  0  0  0  0  0  0  0  0  0
   11.1008  -15.1855   21.8010 C   0  0  0  0  0  0  0  0  0  0  0  0
   10.8444  -15.7381   23.1615 C   0  0  2  0  0  0  0  0  0  0  0  0
    9.7158  -15.1219   23.8205 N   0  0  0  0  0  0  0  0  0  0  0  0
   12.0512  -15.8522   23.9741 C   0  0  0  0  0  0  0  0  0  0  0  0
   12.2024  -15.2813   25.0824 O   0  0  0  0  0  0  0  0  0  0  0  0
   13.0986  -16.6317   23.5126 O   0  0  0  0  0  0  0  0  0  0  0  0
  2  1  1  0
  3  2  1  0
  4  3  1  0
  5  6  1  6
  5  4  1  0
  7  5  1  0
  8  7  2  0
 10 12  1  0
 10  9  1  6
 11 10  1  0
 13 12  1  1
 13 14  1  0
 14  7  1  0
 15 13  1  0
 15 16  2  0
 18 20  1  0
 18 17  1  0
 19 18  2  0
 21 20  1  0
 22 21  1  0
 23 22  1  0
 24 23  1  6
 24 25  1  0
 25 15  1  0
 26 24  1  0
 27 26  2  0
 28 26  1  0
M  END
$$$$
