MLR.pdb
     RDKit          3D

 28 27  0  0  1  0  0  0  0  0999 V2000
    9.9376  -14.9887   17.6329 C   0  0  0  0  0  0  0  0  0  0  0  0
    8.4566  -14.0013   17.3557 S   0  0  0  0  0  0  0  0  0  0  0  0
    7.3764  -13.9722   18.7956 C   0  0  0  0  0  0  0  0  0  0  0  0
    8.1757  -13.8756   20.0919 C   0  0  0  0  0  0  0  0  0  0  0  0
    7.1906  -13.9721   21.2434 C   0  0  2  0  0  0  0  0  0  0  0  0
    6.3632  -12.7785   21.1538 N   0  0  0  0  0  0  0  0  0  0  0  0
    7.8876  -13.9171   22.5545 C   0  0  0  0  0  0  0  0  0  0  0  0
    8.9565  -13.2964   22.7142 O   0  0  0  0  0  0  0  0  0  0  0  0
    8.6255  -11.6707   25.8540 C   0  0  0  0  0  0  0  0  0  0  0  0
    7.3377  -12.4504   25.9343 C   0  0  2  0  0  0  0  0  0  0  0  0
    6.5323  -11.8679   27.1059 C   0  0  0  0  0  0  0  0  0  0  0  0
    7.5334  -13.9000   26.0966 C   0  0  0  0  0  0  0  0  0  0  0  0
    8.0563  -14.6836   24.9487 C   0  0  2  0  0  0  0  0  0  0  0  0
    7.3511  -14.5887   23.7180 N   0  0  0  0  0  0  0  0  0  0  0  0
    8.3292  -16.1147   25.3390 C   0  0  0  0  0  0  0  0  0  0  0  0
    7.4323  -16.9921   25.2411 O   0  0  0  0  0  0  0  0  0  0  0  0
   12.5187  -19.1657   19.1440 N   0  0  0  0  0  0  0  0  0  0  0  0
   12.7258  -20.2032   20.1175 C   0  0  0  0  0  0  0  0  0  0  0  0
   13.3284  -21.2834   19.7575 N   0  0  0  0  0  0  0  0  0  0  0  0
   12.2750  -20.0428   21.4545 N   0  0  0  0  0  0  0  0  0  0  0  0
   11.5693  -18.8829   21.9065 C   0  0  0  0  0  0  0  0  0  0  0  0
   11.3360  -18.8417   23.3694 C   0  0  0  0  0  0  0  0  0  0  0  0
   10.5209  -17.7280   23.9041 C   0  0  0  0  0  0  0  0  0  0  0  0
   10.3152  -17.6943   25.3800 C   0  0  2  0  0  0  0  0  0  0  0  0
    9.5863  -16.5285   25.8246 N   0  0  0  0  0  0  0  0  0  0  0  0
   11.5255  -17.9959   26.1377 C   0  0  0  0  0  0  0  0  0  0  0  0
   12.1961  -19.0476   25.9914 O   0  0  0  0  0  0  0  0  0  0  0  0
   11.9753  -17.0806   27.0743 O   0  0  0  0  0  0  0  0  0  0  0  0
  2  1  1  0
  3  2  1  0
  4  3  1  0
  5  6  1  1
  5  4  1  0
  7  5  1  0
  8  7  2  0
 10 12  1  0
 10  9  1  1
 11 10  1  0
 13 12  1  1
 13 14  1  0
 14  7  1  0
 15 13  1  0
 15 16  2  0
 18 20  1  0
 18 17  1  0
 19 18  2  0
 21 20  1  0
 22 21  1  0
 23 22  1  0
 24 23  1  6
 24 25  1  0
 25 15  1  0
 26 24  1  0
 27 26  2  0
 28 26  1  0
M  END
$$$$
