MLR.pdb
     RDKit          3D

 28 27  0  0  1  0  0  0  0  0999 V2000
    6.8921  -19.7216   20.6179 C   0  0  0  0  0  0  0  0  0  0  0  0
    6.9354  -18.6112   19.1999 S   0  0  0  0  0  0  0  0  0  0  0  0
    6.6949  -16.8908   19.6727 C   0  0  0  0  0  0  0  0  0  0  0  0
    7.6064  -16.4972   20.8315 C   0  0  0  0  0  0  0  0  0  0  0  0
    7.2215  -15.0914   21.2573 C   0  0  2  0  0  0  0  0  0  0  0  0
    7.7056  -14.2147   20.2015 N   0  0  0  0  0  0  0  0  0  0  0  0
    7.9250  -14.6947   22.5045 C   0  0  0  0  0  0  0  0  0  0  0  0
    9.1630  -14.5605   22.5561 O   0  0  0  0  0  0  0  0  0  0  0  0
    7.5827  -11.2611   25.6956 C   0  0  0  0  0  0  0  0  0  0  0  0
    6.5234  -12.3221   25.8545 C   0  0  2  0  0  0  0  0  0  0  0  0
    5.6209  -11.8848   27.0185 C   0  0  0  0  0  0  0  0  0  0  0  0
    7.0669  -13.6703   26.0848 C   0  0  0  0  0  0  0  0  0  0  0  0
    7.8321  -14.3282   24.9955 C   0  0  2  0  0  0  0  0  0  0  0  0
    7.1969  -14.4434   23.7289 N   0  0  0  0  0  0  0  0  0  0  0  0
    8.4275  -15.6359   25.4543 C   0  0  0  0  0  0  0  0  0  0  0  0
    7.7014  -16.6488   25.6293 O   0  0  0  0  0  0  0  0  0  0  0  0
   15.1717  -15.0467   23.4009 N   0  0  0  0  0  0  0  0  0  0  0  0
   15.2525  -16.4403   23.7450 C   0  0  0  0  0  0  0  0  0  0  0  0
   16.3954  -16.9350   24.0744 N   0  0  0  0  0  0  0  0  0  0  0  0
   14.0934  -17.2605   23.7232 N   0  0  0  0  0  0  0  0  0  0  0  0
   12.8174  -16.7967   23.2711 C   0  0  0  0  0  0  0  0  0  0  0  0
   11.6656  -17.3499   24.0218 C   0  0  0  0  0  0  0  0  0  0  0  0
   11.7197  -17.2975   25.4999 C   0  0  0  0  0  0  0  0  0  0  0  0
   10.4486  -16.9731   26.2077 C   0  0  2  0  0  0  0  0  0  0  0  0
    9.8074  -15.7802   25.7040 N   0  0  0  0  0  0  0  0  0  0  0  0
   10.5620  -17.0505   27.6606 C   0  0  0  0  0  0  0  0  0  0  0  0
   10.2249  -16.1227   28.4370 O   0  0  0  0  0  0  0  0  0  0  0  0
   11.0666  -18.2061   28.2327 O   0  0  0  0  0  0  0  0  0  0  0  0
  2  1  1  0
  3  2  1  0
  4  3  1  0
  5  6  1  6
  5  4  1  0
  7  5  1  0
  8  7  2  0
 10 12  1  0
 10  9  1  1
 11 10  1  0
 13 12  1  1
 13 14  1  0
 14  7  1  0
 15 13  1  0
 15 16  2  0
 18 20  1  0
 18 17  1  0
 19 18  2  0
 21 20  1  0
 22 21  1  0
 23 22  1  0
 24 23  1  6
 24 25  1  0
 25 15  1  0
 26 24  1  0
 27 26  2  0
 28 26  1  0
M  END
$$$$
