MLR.pdb
     RDKit          3D

 28 27  0  0  1  0  0  0  0  0999 V2000
    3.9238  -18.0634   19.7303 C   0  0  0  0  0  0  0  0  0  0  0  0
    5.1356  -18.0175   21.0625 S   0  0  0  0  0  0  0  0  0  0  0  0
    6.6029  -17.0738   20.6182 C   0  0  0  0  0  0  0  0  0  0  0  0
    7.4695  -16.7804   21.8395 C   0  0  0  0  0  0  0  0  0  0  0  0
    7.7744  -15.2929   21.8358 C   0  0  2  0  0  0  0  0  0  0  0  0
    8.8692  -15.1185   20.8932 N   0  0  0  0  0  0  0  0  0  0  0  0
    8.2700  -14.8413   23.1617 C   0  0  0  0  0  0  0  0  0  0  0  0
    9.4735  -14.9055   23.4793 O   0  0  0  0  0  0  0  0  0  0  0  0
    6.0992  -10.8629   26.9436 C   0  0  0  0  0  0  0  0  0  0  0  0
    7.2030  -11.7004   26.3494 C   0  0  2  0  0  0  0  0  0  0  0  0
    7.4820  -11.1444   24.9445 C   0  0  0  0  0  0  0  0  0  0  0  0
    6.8915  -13.1378   26.2966 C   0  0  0  0  0  0  0  0  0  0  0  0
    7.7656  -14.0295   25.4930 C   0  0  2  0  0  0  0  0  0  0  0  0
    7.3683  -14.3005   24.1552 N   0  0  0  0  0  0  0  0  0  0  0  0
    8.1113  -15.2877   26.2495 C   0  0  0  0  0  0  0  0  0  0  0  0
    8.6181  -15.2298   27.4000 O   0  0  0  0  0  0  0  0  0  0  0  0
    4.3567  -22.1638   22.8256 N   0  0  0  0  0  0  0  0  0  0  0  0
    5.5186  -21.6662   22.1404 C   0  0  0  0  0  0  0  0  0  0  0  0
    5.6650  -21.9329   20.8887 N   0  0  0  0  0  0  0  0  0  0  0  0
    6.4905  -20.8932   22.8293 N   0  0  0  0  0  0  0  0  0  0  0  0
    6.3239  -20.4546   24.1812 C   0  0  0  0  0  0  0  0  0  0  0  0
    7.2933  -19.4194   24.6110 C   0  0  0  0  0  0  0  0  0  0  0  0
    7.1741  -18.8968   25.9905 C   0  0  0  0  0  0  0  0  0  0  0  0
    8.1277  -17.8219   26.3866 C   0  0  2  0  0  0  0  0  0  0  0  0
    7.8845  -16.5695   25.7081 N   0  0  0  0  0  0  0  0  0  0  0  0
    9.5193  -18.2615   26.3983 C   0  0  0  0  0  0  0  0  0  0  0  0
    9.9411  -19.2235   27.0867 O   0  0  0  0  0  0  0  0  0  0  0  0
   10.4401  -17.5920   25.6102 O   0  0  0  0  0  0  0  0  0  0  0  0
  2  1  1  0
  3  2  1  0
  4  3  1  0
  5  6  1  6
  5  4  1  0
  7  5  1  0
  8  7  2  0
 10 12  1  0
 10  9  1  6
 11 10  1  0
 13 12  1  1
 13 14  1  0
 14  7  1  0
 15 13  1  0
 15 16  2  0
 18 20  1  0
 18 17  1  0
 19 18  2  0
 21 20  1  0
 22 21  1  0
 23 22  1  0
 24 23  1  6
 24 25  1  0
 25 15  1  0
 26 24  1  0
 27 26  2  0
 28 26  1  0
M  END
$$$$
