MLR.pdb
     RDKit          3D

 28 27  0  0  1  0  0  0  0  0999 V2000
    6.8890  -11.7442   18.5726 C   0  0  0  0  0  0  0  0  0  0  0  0
    7.4379  -13.1772   17.6290 S   0  0  0  0  0  0  0  0  0  0  0  0
    7.9980  -14.5194   18.6900 C   0  0  0  0  0  0  0  0  0  0  0  0
    8.5220  -13.9956   20.0240 C   0  0  0  0  0  0  0  0  0  0  0  0
    8.8165  -15.1987   20.9024 C   0  0  2  0  0  0  0  0  0  0  0  0
    7.6057  -16.0056   20.8825 N   0  0  0  0  0  0  0  0  0  0  0  0
    9.0418  -14.7928   22.3139 C   0  0  0  0  0  0  0  0  0  0  0  0
   10.1557  -14.4181   22.7286 O   0  0  0  0  0  0  0  0  0  0  0  0
    5.9413  -12.7690   27.3195 C   0  0  0  0  0  0  0  0  0  0  0  0
    7.1970  -13.3596   26.7305 C   0  0  2  0  0  0  0  0  0  0  0  0
    8.3386  -12.3750   27.0275 C   0  0  0  0  0  0  0  0  0  0  0  0
    7.1000  -13.6367   25.2883 C   0  0  0  0  0  0  0  0  0  0  0  0
    8.1503  -14.4686   24.6481 C   0  0  2  0  0  0  0  0  0  0  0  0
    7.9666  -14.8142   23.2814 N   0  0  0  0  0  0  0  0  0  0  0  0
    8.4950  -15.6672   25.4964 C   0  0  0  0  0  0  0  0  0  0  0  0
    7.5905  -16.3903   25.9889 O   0  0  0  0  0  0  0  0  0  0  0  0
   12.4240  -21.9489   24.0633 N   0  0  0  0  0  0  0  0  0  0  0  0
   11.2255  -22.3448   23.3750 C   0  0  0  0  0  0  0  0  0  0  0  0
   10.9563  -23.5997   23.2651 N   0  0  0  0  0  0  0  0  0  0  0  0
   10.3508  -21.3709   22.8243 N   0  0  0  0  0  0  0  0  0  0  0  0
   10.6343  -19.9684   22.8416 C   0  0  0  0  0  0  0  0  0  0  0  0
   10.6988  -19.3753   24.1982 C   0  0  0  0  0  0  0  0  0  0  0  0
   10.1200  -18.0262   24.3866 C   0  0  0  0  0  0  0  0  0  0  0  0
   10.3708  -17.3647   25.6986 C   0  0  2  0  0  0  0  0  0  0  0  0
    9.8301  -16.0267   25.7717 N   0  0  0  0  0  0  0  0  0  0  0  0
   11.7482  -17.5037   26.1602 C   0  0  0  0  0  0  0  0  0  0  0  0
   12.5070  -16.5306   26.3941 O   0  0  0  0  0  0  0  0  0  0  0  0
   12.2637  -18.7735   26.3583 O   0  0  0  0  0  0  0  0  0  0  0  0
  2  1  1  0
  3  2  1  0
  4  3  1  0
  5  6  1  1
  5  4  1  0
  7  5  1  0
  8  7  2  0
 10 12  1  0
 10  9  1  6
 11 10  1  0
 13 12  1  1
 13 14  1  0
 14  7  1  0
 15 13  1  0
 15 16  2  0
 18 20  1  0
 18 17  1  0
 19 18  2  0
 21 20  1  0
 22 21  1  0
 23 22  1  0
 24 23  1  6
 24 25  1  0
 25 15  1  0
 26 24  1  0
 27 26  2  0
 28 26  1  0
M  END
$$$$
