MLR.pdb
     RDKit          3D

 28 27  0  0  1  0  0  0  0  0999 V2000
    8.4357  -10.8933   19.3514 C   0  0  0  0  0  0  0  0  0  0  0  0
    7.5952  -12.2069   18.4495 S   0  0  0  0  0  0  0  0  0  0  0  0
    7.6834  -13.7877   19.3065 C   0  0  0  0  0  0  0  0  0  0  0  0
    8.3009  -13.6375   20.6939 C   0  0  0  0  0  0  0  0  0  0  0  0
    8.4664  -15.0314   21.2728 C   0  0  2  0  0  0  0  0  0  0  0  0
    7.1467  -15.6415   21.2116 N   0  0  0  0  0  0  0  0  0  0  0  0
    8.8508  -14.9768   22.7071 C   0  0  0  0  0  0  0  0  0  0  0  0
   10.0196  -14.7478   23.0743 O   0  0  0  0  0  0  0  0  0  0  0  0
    6.9888  -12.1528   25.9593 C   0  0  0  0  0  0  0  0  0  0  0  0
    6.2561  -13.4474   25.7146 C   0  0  2  0  0  0  0  0  0  0  0  0
    4.9695  -13.4007   26.5532 C   0  0  0  0  0  0  0  0  0  0  0  0
    7.0503  -14.6453   26.0316 C   0  0  0  0  0  0  0  0  0  0  0  0
    8.1726  -15.0171   25.1333 C   0  0  2  0  0  0  0  0  0  0  0  0
    7.8753  -15.1891   23.7538 N   0  0  0  0  0  0  0  0  0  0  0  0
    8.9648  -16.1723   25.6927 C   0  0  0  0  0  0  0  0  0  0  0  0
    8.4170  -17.0334   26.4290 O   0  0  0  0  0  0  0  0  0  0  0  0
   14.3851  -14.9949   22.5453 N   0  0  0  0  0  0  0  0  0  0  0  0
   13.8200  -15.7038   21.4294 C   0  0  0  0  0  0  0  0  0  0  0  0
   13.6925  -15.0917   20.3031 N   0  0  0  0  0  0  0  0  0  0  0  0
   13.4085  -17.0564   21.5634 N   0  0  0  0  0  0  0  0  0  0  0  0
   13.4288  -17.7585   22.8101 C   0  0  0  0  0  0  0  0  0  0  0  0
   12.2282  -17.5430   23.6517 C   0  0  0  0  0  0  0  0  0  0  0  0
   12.3920  -17.6379   25.1196 C   0  0  0  0  0  0  0  0  0  0  0  0
   11.1792  -17.3854   25.9487 C   0  0  2  0  0  0  0  0  0  0  0  0
   10.3378  -16.3372   25.4185 N   0  0  0  0  0  0  0  0  0  0  0  0
   11.4669  -17.2881   27.3761 C   0  0  0  0  0  0  0  0  0  0  0  0
   11.9922  -18.2113   28.0463 O   0  0  0  0  0  0  0  0  0  0  0  0
   11.1507  -16.1178   28.0451 O   0  0  0  0  0  0  0  0  0  0  0  0
  2  1  1  0
  3  2  1  0
  4  3  1  0
  5  6  1  1
  5  4  1  0
  7  5  1  0
  8  7  2  0
 10 12  1  0
 10  9  1  1
 11 10  1  0
 13 12  1  1
 13 14  1  0
 14  7  1  0
 15 13  1  0
 15 16  2  0
 18 20  1  0
 18 17  1  0
 19 18  2  0
 21 20  1  0
 22 21  1  0
 23 22  1  0
 24 23  1  6
 24 25  1  0
 25 15  1  0
 26 24  1  0
 27 26  2  0
 28 26  1  0
M  END
$$$$
