MLR.pdb
     RDKit          3D

 28 27  0  0  1  0  0  0  0  0999 V2000
   10.7848  -15.3939   29.8487 C   0  0  0  0  0  0  0  0  0  0  0  0
   10.9831  -17.1756   29.6710 S   0  0  0  0  0  0  0  0  0  0  0  0
    9.6310  -17.9241   28.7477 C   0  0  0  0  0  0  0  0  0  0  0  0
    8.8194  -16.8736   27.9951 C   0  0  0  0  0  0  0  0  0  0  0  0
    7.6623  -17.5886   27.3201 C   0  0  2  0  0  0  0  0  0  0  0  0
    8.1924  -18.8729   26.8877 N   0  0  0  0  0  0  0  0  0  0  0  0
    7.2241  -16.8682   26.0966 C   0  0  0  0  0  0  0  0  0  0  0  0
    6.7078  -17.4569   25.1270 O   0  0  0  0  0  0  0  0  0  0  0  0
    7.3008  -11.1605   25.9861 C   0  0  0  0  0  0  0  0  0  0  0  0
    6.7609  -12.5281   25.6531 C   0  0  2  0  0  0  0  0  0  0  0  0
    6.5703  -13.2719   26.9840 C   0  0  0  0  0  0  0  0  0  0  0  0
    7.6197  -13.2959   24.7370 C   0  0  0  0  0  0  0  0  0  0  0  0
    7.5038  -14.7762   24.7207 C   0  0  2  0  0  0  0  0  0  0  0  0
    7.3785  -15.4351   25.9740 N   0  0  0  0  0  0  0  0  0  0  0  0
    8.5678  -15.4012   23.8533 C   0  0  0  0  0  0  0  0  0  0  0  0
    9.0144  -16.5499   24.1076 O   0  0  0  0  0  0  0  0  0  0  0  0
    7.2153  -13.1747   18.3302 N   0  0  0  0  0  0  0  0  0  0  0  0
    7.5853  -14.0342   17.2388 C   0  0  0  0  0  0  0  0  0  0  0  0
    6.7030  -14.3201   16.3448 N   0  0  0  0  0  0  0  0  0  0  0  0
    8.9007  -14.5610   17.1450 N   0  0  0  0  0  0  0  0  0  0  0  0
    9.8908  -14.3735   18.1610 C   0  0  0  0  0  0  0  0  0  0  0  0
    9.4237  -14.6823   19.5331 C   0  0  0  0  0  0  0  0  0  0  0  0
   10.3574  -14.4225   20.6516 C   0  0  0  0  0  0  0  0  0  0  0  0
   10.1655  -15.2314   21.8888 C   0  0  2  0  0  0  0  0  0  0  0  0
    9.1026  -14.7345   22.7322 N   0  0  0  0  0  0  0  0  0  0  0  0
   11.4151  -15.5346   22.5789 C   0  0  0  0  0  0  0  0  0  0  0  0
   11.8540  -14.8712   23.5507 O   0  0  0  0  0  0  0  0  0  0  0  0
   12.1719  -16.6128   22.1519 O   0  0  0  0  0  0  0  0  0  0  0  0
  2  1  1  0
  3  2  1  0
  4  3  1  0
  5  6  1  6
  5  4  1  0
  7  5  1  0
  8  7  2  0
 10 12  1  0
 10  9  1  1
 11 10  1  0
 13 12  1  1
 13 14  1  0
 14  7  1  0
 15 13  1  0
 15 16  2  0
 18 20  1  0
 18 17  1  0
 19 18  2  0
 21 20  1  0
 22 21  1  0
 23 22  1  0
 24 23  1  6
 24 25  1  0
 25 15  1  0
 26 24  1  0
 27 26  2  0
 28 26  1  0
M  END
$$$$
