YYE.pdb
     RDKit          3D

 34 35  0  0  1  0  0  0  0  0999 V2000
    4.5890  -20.5636   15.5315 O   0  0  0  0  0  0  0  0  0  0  0  0
    5.2989  -20.0242   16.6237 C   0  0  0  0  0  0  0  0  0  0  0  0
    4.6791  -19.3459   17.6385 C   0  0  0  0  0  0  0  0  0  0  0  0
    5.3732  -18.8161   18.7112 C   0  0  0  0  0  0  0  0  0  0  0  0
    6.7351  -18.9815   18.7517 C   0  0  0  0  0  0  0  0  0  0  0  0
    7.5009  -18.4152   19.8959 C   0  0  0  0  0  0  0  0  0  0  0  0
    7.9342  -16.9947   19.6355 C   0  0  2  0  0  0  0  0  0  0  0  0
    8.9786  -16.9808   18.6309 N   0  0  0  0  0  0  0  0  0  0  0  0
    8.4469  -16.3293   20.8432 C   0  0  0  0  0  0  0  0  0  0  0  0
    9.6229  -16.5287   21.2370 O   0  0  0  0  0  0  0  0  0  0  0  0
    7.3958  -19.6576   17.7510 C   0  0  0  0  0  0  0  0  0  0  0  0
    6.6707  -20.1707   16.6996 C   0  0  0  0  0  0  0  0  0  0  0  0
    7.9491  -11.7209   28.4794 O   0  0  0  0  0  0  0  0  0  0  0  0
    7.6939  -12.2636   27.2239 C   0  0  0  0  0  0  0  0  0  0  0  0
    6.7189  -13.2225   27.0380 C   0  0  0  0  0  0  0  0  0  0  0  0
    6.4537  -13.7746   25.7790 C   0  0  0  0  0  0  0  0  0  0  0  0
    7.1702  -13.3659   24.6850 C   0  0  0  0  0  0  0  0  0  0  0  0
    6.9392  -13.9055   23.3344 C   0  0  0  0  0  0  0  0  0  0  0  0
    8.0596  -14.8100   22.8456 C   0  0  2  0  0  0  0  0  0  0  0  0
    7.6578  -15.4353   21.6272 N   0  0  0  0  0  0  0  0  0  0  0  0
    8.2859  -15.7903   23.9418 C   0  0  0  0  0  0  0  0  0  0  0  0
    7.3498  -16.5757   24.2200 O   0  0  0  0  0  0  0  0  0  0  0  0
    8.1530  -12.4029   24.8565 C   0  0  0  0  0  0  0  0  0  0  0  0
    8.4102  -11.8611   26.1045 C   0  0  0  0  0  0  0  0  0  0  0  0
    9.4871  -15.8696   24.6671 N   0  0  0  0  0  0  0  0  0  0  0  0
    9.7898  -17.0144   25.5663 C   0  0  1  0  0  0  0  0  0  0  0  0
   11.0597  -17.5927   25.0403 C   0  0  0  0  0  0  0  0  0  0  0  0
   11.7417  -18.6780   25.7455 C   0  0  0  0  0  0  0  0  0  0  0  0
   12.9735  -19.2475   25.2175 C   0  0  0  0  0  0  0  0  0  0  0  0
   13.4850  -18.7192   24.1689 O   0  0  0  0  0  0  0  0  0  0  0  0
   10.0066  -16.3762   26.8850 C   0  0  0  0  0  0  0  0  0  0  0  0
   10.2835  -15.1216   26.8881 O   0  0  0  0  0  0  0  0  0  0  0  0
   13.6339  -20.3263   25.7769 O   0  0  0  0  0  0  0  0  0  0  0  0
    9.9392  -16.9792   28.1123 O   0  0  0  0  0  0  0  0  0  0  0  0
  2  1  1  0
  3  2  2  0
  4  3  1  0
  5  4  2  0
  5 11  1  0
  6  7  1  0
  6  5  1  0
  7  9  1  0
  7  8  1  6
  9 10  2  0
 11 12  2  0
 12  2  1  0
 13 14  1  0
 14 24  2  0
 15 14  1  0
 16 15  2  0
 16 17  1  0
 17 23  2  0
 18 17  1  0
 19 18  1  1
 20 19  1  0
 20  9  1  0
 21 19  1  0
 21 25  1  0
 22 21  2  0
 23 24  1  0
 26 25  1  0
 26 27  1  6
 27 28  1  0
 28 29  1  0
 29 33  1  0
 30 29  2  0
 31 26  1  0
 32 31  2  0
 34 31  1  0
M  END
$$$$
