YYE.pdb
     RDKit          3D

 34 35  0  0  1  0  0  0  0  0999 V2000
   11.5236  -18.5191   11.7285 O   0  0  0  0  0  0  0  0  0  0  0  0
   11.5140  -17.9321   13.0104 C   0  0  0  0  0  0  0  0  0  0  0  0
   11.2622  -18.6540   14.1460 C   0  0  0  0  0  0  0  0  0  0  0  0
   11.2526  -18.0805   15.4046 C   0  0  0  0  0  0  0  0  0  0  0  0
   11.5061  -16.7358   15.5099 C   0  0  0  0  0  0  0  0  0  0  0  0
   11.4963  -16.0989   16.8555 C   0  0  0  0  0  0  0  0  0  0  0  0
   11.2635  -17.1058   17.9533 C   0  0  2  0  0  0  0  0  0  0  0  0
    9.9511  -17.7006   17.7978 N   0  0  0  0  0  0  0  0  0  0  0  0
   11.3429  -16.5080   19.2952 C   0  0  0  0  0  0  0  0  0  0  0  0
   12.2708  -15.7150   19.5918 O   0  0  0  0  0  0  0  0  0  0  0  0
   11.7640  -15.9749   14.3921 C   0  0  0  0  0  0  0  0  0  0  0  0
   11.7650  -16.5812   13.1565 C   0  0  0  0  0  0  0  0  0  0  0  0
    7.1028  -11.8154   18.4077 O   0  0  0  0  0  0  0  0  0  0  0  0
    7.5663  -12.7892   19.2869 C   0  0  0  0  0  0  0  0  0  0  0  0
    7.0615  -14.0735   19.2709 C   0  0  0  0  0  0  0  0  0  0  0  0
    7.5213  -15.0609   20.1507 C   0  0  0  0  0  0  0  0  0  0  0  0
    8.5007  -14.7665   21.0624 C   0  0  0  0  0  0  0  0  0  0  0  0
    9.0285  -15.7594   22.0132 C   0  0  0  0  0  0  0  0  0  0  0  0
   10.4163  -16.2644   21.6510 C   0  0  2  0  0  0  0  0  0  0  0  0
   10.3922  -16.7857   20.3226 N   0  0  0  0  0  0  0  0  0  0  0  0
   10.7385  -17.3040   22.6656 C   0  0  0  0  0  0  0  0  0  0  0  0
   10.1573  -18.4100   22.5675 O   0  0  0  0  0  0  0  0  0  0  0  0
    9.0176  -13.4801   21.0900 C   0  0  0  0  0  0  0  0  0  0  0  0
    8.5583  -12.5084   20.2171 C   0  0  0  0  0  0  0  0  0  0  0  0
   11.6525  -17.0993   23.7133 N   0  0  0  0  0  0  0  0  0  0  0  0
   12.1654  -18.2227   24.5414 C   0  0  1  0  0  0  0  0  0  0  0  0
   13.6362  -17.9944   24.6328 C   0  0  0  0  0  0  0  0  0  0  0  0
   14.4768  -18.8336   25.4868 C   0  0  0  0  0  0  0  0  0  0  0  0
   15.9168  -18.6250   25.5457 C   0  0  0  0  0  0  0  0  0  0  0  0
   16.6095  -18.8788   24.4988 O   0  0  0  0  0  0  0  0  0  0  0  0
   11.5160  -18.0139   25.8559 C   0  0  0  0  0  0  0  0  0  0  0  0
   11.6497  -18.9477   26.7282 O   0  0  0  0  0  0  0  0  0  0  0  0
   16.5911  -18.1662   26.6627 O   0  0  0  0  0  0  0  0  0  0  0  0
   10.7867  -16.9242   26.2498 O   0  0  0  0  0  0  0  0  0  0  0  0
  2  1  1  0
  3  2  2  0
  4  3  1  0
  5  4  2  0
  5 11  1  0
  6  7  1  0
  6  5  1  0
  7  9  1  0
  7  8  1  6
  9 10  2  0
 11 12  2  0
 12  2  1  0
 13 14  1  0
 14 24  2  0
 15 14  1  0
 16 15  2  0
 16 17  1  0
 17 23  2  0
 18 17  1  0
 19 18  1  1
 20 19  1  0
 20  9  1  0
 21 19  1  0
 21 25  1  0
 22 21  2  0
 23 24  1  0
 26 25  1  0
 26 27  1  1
 27 28  1  0
 28 29  1  0
 29 33  1  0
 30 29  2  0
 31 26  1  0
 32 31  2  0
 34 31  1  0
M  END
$$$$
