YYE.pdb
     RDKit          3D

 34 35  0  0  1  0  0  0  0  0999 V2000
   10.8026  -20.8800   14.8331 O   0  0  0  0  0  0  0  0  0  0  0  0
   10.7704  -19.8952   15.8416 C   0  0  0  0  0  0  0  0  0  0  0  0
    9.8644  -18.8689   15.8361 C   0  0  0  0  0  0  0  0  0  0  0  0
    9.8306  -17.9019   16.8244 C   0  0  0  0  0  0  0  0  0  0  0  0
   10.7438  -17.9819   17.8458 C   0  0  0  0  0  0  0  0  0  0  0  0
   10.7264  -16.9483   18.9172 C   0  0  0  0  0  0  0  0  0  0  0  0
   10.1234  -17.4727   20.1957 C   0  0  2  0  0  0  0  0  0  0  0  0
    8.7643  -17.9113   19.9488 N   0  0  0  0  0  0  0  0  0  0  0  0
   10.0950  -16.4617   21.2640 C   0  0  0  0  0  0  0  0  0  0  0  0
   11.1479  -15.8817   21.6285 O   0  0  0  0  0  0  0  0  0  0  0  0
   11.6710  -18.9985   17.8878 C   0  0  0  0  0  0  0  0  0  0  0  0
   11.6735  -19.9425   16.8862 C   0  0  0  0  0  0  0  0  0  0  0  0
    6.5427  -11.6047   27.8973 O   0  0  0  0  0  0  0  0  0  0  0  0
    6.7594  -12.3496   26.7422 C   0  0  0  0  0  0  0  0  0  0  0  0
    7.4166  -11.8151   25.6527 C   0  0  0  0  0  0  0  0  0  0  0  0
    7.6403  -12.5561   24.4860 C   0  0  0  0  0  0  0  0  0  0  0  0
    7.2031  -13.8518   24.4009 C   0  0  0  0  0  0  0  0  0  0  0  0
    7.4082  -14.6846   23.2038 C   0  0  0  0  0  0  0  0  0  0  0  0
    8.8116  -15.2612   23.1023 C   0  0  2  0  0  0  0  0  0  0  0  0
    8.8959  -16.0845   21.9396 N   0  0  0  0  0  0  0  0  0  0  0  0
    9.0181  -16.0284   24.3604 C   0  0  0  0  0  0  0  0  0  0  0  0
    8.3448  -17.0734   24.5196 O   0  0  0  0  0  0  0  0  0  0  0  0
    6.5413  -14.4024   25.4878 C   0  0  0  0  0  0  0  0  0  0  0  0
    6.3233  -13.6639   26.6386 C   0  0  0  0  0  0  0  0  0  0  0  0
    9.9222  -15.6349   25.3618 N   0  0  0  0  0  0  0  0  0  0  0  0
   10.5287  -16.6129   26.3033 C   0  0  1  0  0  0  0  0  0  0  0  0
   11.9754  -16.6486   25.9434 C   0  0  0  0  0  0  0  0  0  0  0  0
   12.4875  -17.6219   24.9787 C   0  0  0  0  0  0  0  0  0  0  0  0
   13.8985  -17.6386   24.6190 C   0  0  0  0  0  0  0  0  0  0  0  0
   14.5347  -18.7462   24.7118 O   0  0  0  0  0  0  0  0  0  0  0  0
   10.3304  -15.9894   27.6319 C   0  0  0  0  0  0  0  0  0  0  0  0
    9.9512  -14.7619   27.6502 O   0  0  0  0  0  0  0  0  0  0  0  0
   14.6020  -16.5321   24.1791 O   0  0  0  0  0  0  0  0  0  0  0  0
   10.5030  -16.5827   28.8536 O   0  0  0  0  0  0  0  0  0  0  0  0
  2  1  1  0
  3  2  2  0
  4  3  1  0
  5  4  2  0
  5 11  1  0
  6  7  1  0
  6  5  1  0
  7  9  1  0
  7  8  1  6
  9 10  2  0
 11 12  2  0
 12  2  1  0
 13 14  1  0
 14 24  2  0
 15 14  1  0
 16 15  2  0
 16 17  1  0
 17 23  2  0
 18 17  1  0
 19 18  1  1
 20 19  1  0
 20  9  1  0
 21 19  1  0
 21 25  1  0
 22 21  2  0
 23 24  1  0
 26 25  1  0
 26 27  1  6
 27 28  1  0
 28 29  1  0
 29 33  1  0
 30 29  2  0
 31 26  1  0
 32 31  2  0
 34 31  1  0
M  END
$$$$
