YYE.pdb
     RDKit          3D

 34 35  0  0  1  0  0  0  0  0999 V2000
   17.2787  -16.5763   14.9932 O   0  0  0  0  0  0  0  0  0  0  0  0
   16.4911  -16.2739   16.1229 C   0  0  0  0  0  0  0  0  0  0  0  0
   16.7124  -15.1662   16.8963 C   0  0  0  0  0  0  0  0  0  0  0  0
   15.9410  -14.8672   18.0047 C   0  0  0  0  0  0  0  0  0  0  0  0
   14.9167  -15.7190   18.3346 C   0  0  0  0  0  0  0  0  0  0  0  0
   14.0773  -15.4168   19.5265 C   0  0  0  0  0  0  0  0  0  0  0  0
   12.6699  -15.0366   19.1422 C   0  0  2  0  0  0  0  0  0  0  0  0
   12.6919  -13.8191   18.3564 N   0  0  0  0  0  0  0  0  0  0  0  0
   11.8045  -14.8156   20.3112 C   0  0  0  0  0  0  0  0  0  0  0  0
   12.0062  -13.8482   21.0866 O   0  0  0  0  0  0  0  0  0  0  0  0
   14.6614  -16.8432   17.5824 C   0  0  0  0  0  0  0  0  0  0  0  0
   15.4508  -17.1074   16.4863 C   0  0  0  0  0  0  0  0  0  0  0  0
    7.2086  -12.2559   16.8761 O   0  0  0  0  0  0  0  0  0  0  0  0
    7.4989  -13.0952   17.9472 C   0  0  0  0  0  0  0  0  0  0  0  0
    7.7748  -14.4343   17.7592 C   0  0  0  0  0  0  0  0  0  0  0  0
    8.0686  -15.2873   18.8299 C   0  0  0  0  0  0  0  0  0  0  0  0
    8.0889  -14.8005   20.1104 C   0  0  0  0  0  0  0  0  0  0  0  0
    8.3922  -15.6441   21.2787 C   0  0  0  0  0  0  0  0  0  0  0  0
    9.8325  -15.5255   21.7517 C   0  0  2  0  0  0  0  0  0  0  0  0
   10.7057  -15.6679   20.6318 N   0  0  0  0  0  0  0  0  0  0  0  0
   10.0117  -16.6091   22.7556 C   0  0  0  0  0  0  0  0  0  0  0  0
    9.0058  -16.9605   23.4154 O   0  0  0  0  0  0  0  0  0  0  0  0
    7.8137  -13.4569   20.3147 C   0  0  0  0  0  0  0  0  0  0  0  0
    7.5238  -12.6188   19.2513 C   0  0  0  0  0  0  0  0  0  0  0  0
   11.2432  -17.2438   22.9910 N   0  0  0  0  0  0  0  0  0  0  0  0
   11.3757  -18.3760   23.9456 C   0  0  1  0  0  0  0  0  0  0  0  0
   12.5930  -19.1143   23.5019 C   0  0  0  0  0  0  0  0  0  0  0  0
   13.8302  -18.4024   23.1811 C   0  0  0  0  0  0  0  0  0  0  0  0
   15.0037  -19.1271   22.7140 C   0  0  0  0  0  0  0  0  0  0  0  0
   16.0414  -18.4527   22.3847 O   0  0  0  0  0  0  0  0  0  0  0  0
   11.6072  -17.7107   25.2483 C   0  0  0  0  0  0  0  0  0  0  0  0
   11.8288  -16.4453   25.2265 O   0  0  0  0  0  0  0  0  0  0  0  0
   15.0743  -20.5040   22.6032 O   0  0  0  0  0  0  0  0  0  0  0  0
   11.6064  -18.2989   26.4846 O   0  0  0  0  0  0  0  0  0  0  0  0
  2  1  1  0
  3  2  2  0
  4  3  1  0
  5  4  2  0
  5 11  1  0
  6  7  1  0
  6  5  1  0
  7  9  1  0
  7  8  1  1
  9 10  2  0
 11 12  2  0
 12  2  1  0
 13 14  1  0
 14 24  2  0
 15 14  1  0
 16 15  2  0
 16 17  1  0
 17 23  2  0
 18 17  1  0
 19 18  1  6
 20 19  1  0
 20  9  1  0
 21 19  1  0
 21 25  1  0
 22 21  2  0
 23 24  1  0
 26 25  1  0
 26 27  1  6
 27 28  1  0
 28 29  1  0
 29 33  1  0
 30 29  2  0
 31 26  1  0
 32 31  2  0
 34 31  1  0
M  END
$$$$
