YYE.pdb
     RDKit          3D

 34 35  0  0  1  0  0  0  0  0999 V2000
    5.0130  -20.4078   17.4292 O   0  0  0  0  0  0  0  0  0  0  0  0
    6.1079  -19.8310   18.1047 C   0  0  0  0  0  0  0  0  0  0  0  0
    7.1531  -19.2458   17.4421 C   0  0  0  0  0  0  0  0  0  0  0  0
    8.2281  -18.6789   18.1024 C   0  0  0  0  0  0  0  0  0  0  0  0
    8.2393  -18.7088   19.4745 C   0  0  0  0  0  0  0  0  0  0  0  0
    9.3895  -18.1076   20.2039 C   0  0  0  0  0  0  0  0  0  0  0  0
    9.4095  -16.6049   20.0828 C   0  0  2  0  0  0  0  0  0  0  0  0
   10.4850  -16.2021   19.1988 N   0  0  0  0  0  0  0  0  0  0  0  0
    9.6023  -15.9355   21.3786 C   0  0  0  0  0  0  0  0  0  0  0  0
   10.7488  -15.8213   21.8789 O   0  0  0  0  0  0  0  0  0  0  0  0
    7.2073  -19.2877   20.1779 C   0  0  0  0  0  0  0  0  0  0  0  0
    6.1545  -19.8415   19.4856 C   0  0  0  0  0  0  0  0  0  0  0  0
    6.9337  -11.6521   28.8325 O   0  0  0  0  0  0  0  0  0  0  0  0
    7.0549  -12.2060   27.5618 C   0  0  0  0  0  0  0  0  0  0  0  0
    8.0734  -13.0845   27.2528 C   0  0  0  0  0  0  0  0  0  0  0  0
    8.2042  -13.6478   25.9778 C   0  0  0  0  0  0  0  0  0  0  0  0
    7.3060  -13.3327   24.9922 C   0  0  0  0  0  0  0  0  0  0  0  0
    7.3867  -13.8919   23.6324 C   0  0  0  0  0  0  0  0  0  0  0  0
    8.6291  -14.7373   23.3997 C   0  0  2  0  0  0  0  0  0  0  0  0
    8.5226  -15.3863   22.1331 N   0  0  0  0  0  0  0  0  0  0  0  0
    8.6719  -15.7012   24.5324 C   0  0  0  0  0  0  0  0  0  0  0  0
    7.5911  -16.2267   24.8879 O   0  0  0  0  0  0  0  0  0  0  0  0
    6.2771  -12.4515   25.2882 C   0  0  0  0  0  0  0  0  0  0  0  0
    6.1538  -11.8979   26.5513 C   0  0  0  0  0  0  0  0  0  0  0  0
    9.8556  -16.0404   25.2097 N   0  0  0  0  0  0  0  0  0  0  0  0
    9.8667  -17.0058   26.3404 C   0  0  1  0  0  0  0  0  0  0  0  0
   10.9518  -17.9741   26.0103 C   0  0  0  0  0  0  0  0  0  0  0  0
   11.7073  -17.8616   24.7625 C   0  0  0  0  0  0  0  0  0  0  0  0
   11.8143  -18.9953   23.8549 C   0  0  0  0  0  0  0  0  0  0  0  0
   11.7525  -20.1753   24.3489 O   0  0  0  0  0  0  0  0  0  0  0  0
   10.2387  -16.1739   27.5078 C   0  0  0  0  0  0  0  0  0  0  0  0
   10.5554  -14.9505   27.2758 O   0  0  0  0  0  0  0  0  0  0  0  0
   11.9771  -18.8830   22.4861 O   0  0  0  0  0  0  0  0  0  0  0  0
   10.2781  -16.5660   28.8189 O   0  0  0  0  0  0  0  0  0  0  0  0
  2  1  1  0
  3  2  2  0
  4  3  1  0
  5  4  2  0
  5 11  1  0
  6  7  1  0
  6  5  1  0
  7  9  1  0
  7  8  1  6
  9 10  2  0
 11 12  2  0
 12  2  1  0
 13 14  1  0
 14 24  2  0
 15 14  1  0
 16 15  2  0
 16 17  1  0
 17 23  2  0
 18 17  1  0
 19 18  1  1
 20 19  1  0
 20  9  1  0
 21 19  1  0
 21 25  1  0
 22 21  2  0
 23 24  1  0
 26 25  1  0
 26 27  1  6
 27 28  1  0
 28 29  1  0
 29 33  1  0
 30 29  2  0
 31 26  1  0
 32 31  2  0
 34 31  1  0
M  END
$$$$
