YYE.pdb
     RDKit          3D

 34 35  0  0  1  0  0  0  0  0999 V2000
    6.6757  -14.7729   13.5476 O   0  0  0  0  0  0  0  0  0  0  0  0
    7.3549  -14.6554   14.7775 C   0  0  0  0  0  0  0  0  0  0  0  0
    8.4029  -15.4679   15.1173 C   0  0  0  0  0  0  0  0  0  0  0  0
    9.0710  -15.3545   16.3231 C   0  0  0  0  0  0  0  0  0  0  0  0
    8.6610  -14.3877   17.2066 C   0  0  0  0  0  0  0  0  0  0  0  0
    9.3647  -14.2520   18.5116 C   0  0  0  0  0  0  0  0  0  0  0  0
    9.0870  -15.4190   19.4249 C   0  0  2  0  0  0  0  0  0  0  0  0
    7.7027  -15.8257   19.2879 N   0  0  0  0  0  0  0  0  0  0  0  0
    9.3368  -15.1020   20.8396 C   0  0  0  0  0  0  0  0  0  0  0  0
   10.4986  -14.8531   21.2473 O   0  0  0  0  0  0  0  0  0  0  0  0
    7.6114  -13.5505   16.9024 C   0  0  0  0  0  0  0  0  0  0  0  0
    6.9711  -13.6939   15.6925 C   0  0  0  0  0  0  0  0  0  0  0  0
    7.4852  -12.7715   29.2407 O   0  0  0  0  0  0  0  0  0  0  0  0
    7.4029  -13.1287   27.8984 C   0  0  0  0  0  0  0  0  0  0  0  0
    7.5583  -12.1955   26.8937 C   0  0  0  0  0  0  0  0  0  0  0  0
    7.4779  -12.5443   25.5401 C   0  0  0  0  0  0  0  0  0  0  0  0
    7.2392  -13.8442   25.1788 C   0  0  0  0  0  0  0  0  0  0  0  0
    7.1451  -14.2762   23.7742 C   0  0  0  0  0  0  0  0  0  0  0  0
    8.4643  -14.7754   23.2060 C   0  0  2  0  0  0  0  0  0  0  0  0
    8.2980  -15.0587   21.8172 N   0  0  0  0  0  0  0  0  0  0  0  0
    8.8050  -15.9878   23.9985 C   0  0  0  0  0  0  0  0  0  0  0  0
    8.0215  -16.9637   23.9312 O   0  0  0  0  0  0  0  0  0  0  0  0
    7.0811  -14.7930   26.1776 C   0  0  0  0  0  0  0  0  0  0  0  0
    7.1617  -14.4411   27.5143 C   0  0  0  0  0  0  0  0  0  0  0  0
    9.9506  -16.0816   24.8070 N   0  0  0  0  0  0  0  0  0  0  0  0
   10.4145  -17.3782   25.3678 C   0  0  1  0  0  0  0  0  0  0  0  0
   11.8065  -17.5426   24.8588 C   0  0  0  0  0  0  0  0  0  0  0  0
   12.6518  -18.6439   25.3202 C   0  0  0  0  0  0  0  0  0  0  0  0
   13.9971  -18.8190   24.7910 C   0  0  0  0  0  0  0  0  0  0  0  0
   14.9888  -18.5946   25.5696 O   0  0  0  0  0  0  0  0  0  0  0  0
   10.4110  -17.1485   26.8308 C   0  0  0  0  0  0  0  0  0  0  0  0
   10.5832  -18.1753   27.5836 O   0  0  0  0  0  0  0  0  0  0  0  0
   14.2778  -19.2159   23.4961 O   0  0  0  0  0  0  0  0  0  0  0  0
   10.2481  -15.9518   27.4757 O   0  0  0  0  0  0  0  0  0  0  0  0
  2  1  1  0
  3  2  2  0
  4  3  1  0
  5  4  2  0
  5 11  1  0
  6  7  1  0
  6  5  1  0
  7  9  1  0
  7  8  1  1
  9 10  2  0
 11 12  2  0
 12  2  1  0
 13 14  1  0
 14 24  2  0
 15 14  1  0
 16 15  2  0
 16 17  1  0
 17 23  2  0
 18 17  1  0
 19 18  1  1
 20 19  1  0
 20  9  1  0
 21 19  1  0
 21 25  1  0
 22 21  2  0
 23 24  1  0
 26 25  1  0
 26 27  1  6
 27 28  1  0
 28 29  1  0
 29 33  1  0
 30 29  2  0
 31 26  1  0
 32 31  2  0
 34 31  1  0
M  END
$$$$
