YYE.pdb
     RDKit          3D

 34 35  0  0  1  0  0  0  0  0999 V2000
    6.9929  -24.5152   17.4390 O   0  0  0  0  0  0  0  0  0  0  0  0
    7.7378  -23.4348   17.9546 C   0  0  0  0  0  0  0  0  0  0  0  0
    7.4315  -22.8350   19.1464 C   0  0  0  0  0  0  0  0  0  0  0  0
    8.1608  -21.7752   19.6544 C   0  0  0  0  0  0  0  0  0  0  0  0
    9.2308  -21.3137   18.9294 C   0  0  0  0  0  0  0  0  0  0  0  0
   10.0262  -20.1712   19.4572 C   0  0  0  0  0  0  0  0  0  0  0  0
    9.3514  -18.8481   19.1979 C   0  0  2  0  0  0  0  0  0  0  0  0
    9.3381  -18.5793   17.7738 N   0  0  0  0  0  0  0  0  0  0  0  0
   10.0253  -17.7278   19.8724 C   0  0  0  0  0  0  0  0  0  0  0  0
   11.0362  -17.1843   19.3620 O   0  0  0  0  0  0  0  0  0  0  0  0
    9.5717  -21.8898   17.7265 C   0  0  0  0  0  0  0  0  0  0  0  0
    8.8220  -22.9427   17.2535 C   0  0  0  0  0  0  0  0  0  0  0  0
    6.2106  -12.2310   18.5920 O   0  0  0  0  0  0  0  0  0  0  0  0
    6.9276  -12.9630   19.5333 C   0  0  0  0  0  0  0  0  0  0  0  0
    8.1715  -12.5540   19.9691 C   0  0  0  0  0  0  0  0  0  0  0  0
    8.9010  -13.2828   20.9161 C   0  0  0  0  0  0  0  0  0  0  0  0
    8.3845  -14.4388   21.4398 C   0  0  0  0  0  0  0  0  0  0  0  0
    9.0998  -15.2496   22.4396 C   0  0  0  0  0  0  0  0  0  0  0  0
   10.1892  -16.1249   21.8400 C   0  0  2  0  0  0  0  0  0  0  0  0
    9.5835  -17.1995   21.1223 N   0  0  0  0  0  0  0  0  0  0  0  0
   11.0007  -16.5963   22.9947 C   0  0  0  0  0  0  0  0  0  0  0  0
   10.4904  -17.4567   23.7495 O   0  0  0  0  0  0  0  0  0  0  0  0
    7.1356  -14.8621   21.0115 C   0  0  0  0  0  0  0  0  0  0  0  0
    6.4195  -14.1365   20.0744 C   0  0  0  0  0  0  0  0  0  0  0  0
   12.2951  -16.1229   23.2695 N   0  0  0  0  0  0  0  0  0  0  0  0
   13.2863  -16.9343   24.0245 C   0  0  1  0  0  0  0  0  0  0  0  0
   14.6071  -16.3141   23.7167 C   0  0  0  0  0  0  0  0  0  0  0  0
   15.8294  -16.7823   24.3701 C   0  0  0  0  0  0  0  0  0  0  0  0
   17.1074  -16.1373   24.1033 C   0  0  0  0  0  0  0  0  0  0  0  0
   17.4327  -15.9173   22.8843 O   0  0  0  0  0  0  0  0  0  0  0  0
   12.9155  -16.7114   25.4409 C   0  0  0  0  0  0  0  0  0  0  0  0
   13.2990  -17.5952   26.2909 O   0  0  0  0  0  0  0  0  0  0  0  0
   17.9986  -15.7416   25.0842 O   0  0  0  0  0  0  0  0  0  0  0  0
   12.2076  -15.6560   25.9501 O   0  0  0  0  0  0  0  0  0  0  0  0
  2  1  1  0
  3  2  2  0
  4  3  1  0
  5  4  2  0
  5 11  1  0
  6  7  1  0
  6  5  1  0
  7  9  1  0
  7  8  1  6
  9 10  2  0
 11 12  2  0
 12  2  1  0
 13 14  1  0
 14 24  2  0
 15 14  1  0
 16 15  2  0
 16 17  1  0
 17 23  2  0
 18 17  1  0
 19 18  1  1
 20 19  1  0
 20  9  1  0
 21 19  1  0
 21 25  1  0
 22 21  2  0
 23 24  1  0
 26 25  1  0
 26 27  1  1
 27 28  1  0
 28 29  1  0
 29 33  1  0
 30 29  2  0
 31 26  1  0
 32 31  2  0
 34 31  1  0
M  END
$$$$
