YYE.pdb
     RDKit          3D

 34 35  0  0  1  0  0  0  0  0999 V2000
    5.9222  -13.0767   15.9768 O   0  0  0  0  0  0  0  0  0  0  0  0
    6.5840  -13.6238   17.0951 C   0  0  0  0  0  0  0  0  0  0  0  0
    7.6512  -13.0067   17.6903 C   0  0  0  0  0  0  0  0  0  0  0  0
    8.3018  -13.5412   18.7877 C   0  0  0  0  0  0  0  0  0  0  0  0
    7.8537  -14.7361   19.2926 C   0  0  0  0  0  0  0  0  0  0  0  0
    8.5432  -15.3300   20.4709 C   0  0  0  0  0  0  0  0  0  0  0  0
    9.6365  -14.4335   20.9944 C   0  0  2  0  0  0  0  0  0  0  0  0
   10.7197  -14.3748   20.0334 N   0  0  0  0  0  0  0  0  0  0  0  0
   10.1835  -14.8990   22.2782 C   0  0  0  0  0  0  0  0  0  0  0  0
   11.1707  -15.6749   22.3130 O   0  0  0  0  0  0  0  0  0  0  0  0
    6.7835  -15.3881   18.7228 C   0  0  0  0  0  0  0  0  0  0  0  0
    6.1616  -14.8249   17.6318 C   0  0  0  0  0  0  0  0  0  0  0  0
   10.3587  -16.3338   31.0989 O   0  0  0  0  0  0  0  0  0  0  0  0
   10.0678  -15.8583   29.8241 C   0  0  0  0  0  0  0  0  0  0  0  0
   10.6904  -14.7374   29.3137 C   0  0  0  0  0  0  0  0  0  0  0  0
   10.4054  -14.2508   28.0321 C   0  0  0  0  0  0  0  0  0  0  0  0
    9.4854  -14.8903   27.2435 C   0  0  0  0  0  0  0  0  0  0  0  0
    9.1423  -14.4309   25.8872 C   0  0  0  0  0  0  0  0  0  0  0  0
   10.1063  -14.9253   24.8201 C   0  0  2  0  0  0  0  0  0  0  0  0
    9.6388  -14.5078   23.5379 N   0  0  0  0  0  0  0  0  0  0  0  0
   10.1322  -16.4061   24.9631 C   0  0  0  0  0  0  0  0  0  0  0  0
    9.0601  -17.0262   24.7716 O   0  0  0  0  0  0  0  0  0  0  0  0
    8.8519  -16.0181   27.7430 C   0  0  0  0  0  0  0  0  0  0  0  0
    9.1384  -16.4938   29.0114 C   0  0  0  0  0  0  0  0  0  0  0  0
   11.2911  -17.1264   25.2997 N   0  0  0  0  0  0  0  0  0  0  0  0
   11.2777  -18.6030   25.4733 C   0  0  1  0  0  0  0  0  0  0  0  0
   12.5132  -19.0829   24.7898 C   0  0  0  0  0  0  0  0  0  0  0  0
   12.9644  -20.4670   24.9344 C   0  0  0  0  0  0  0  0  0  0  0  0
   14.1711  -20.9283   24.2624 C   0  0  0  0  0  0  0  0  0  0  0  0
   15.2573  -20.2769   24.4520 O   0  0  0  0  0  0  0  0  0  0  0  0
   11.3810  -18.7844   26.9394 C   0  0  0  0  0  0  0  0  0  0  0  0
   10.6701  -19.7174   27.4639 O   0  0  0  0  0  0  0  0  0  0  0  0
   14.2240  -22.0310   23.4292 O   0  0  0  0  0  0  0  0  0  0  0  0
   12.1607  -18.0651   27.8049 O   0  0  0  0  0  0  0  0  0  0  0  0
  2  1  1  0
  3  2  2  0
  4  3  1  0
  5  4  2  0
  5 11  1  0
  6  7  1  0
  6  5  1  0
  7  9  1  0
  7  8  1  6
  9 10  2  0
 11 12  2  0
 12  2  1  0
 13 14  1  0
 14 24  2  0
 15 14  1  0
 16 15  2  0
 16 17  1  0
 17 23  2  0
 18 17  1  0
 19 18  1  1
 20 19  1  0
 20  9  1  0
 21 19  1  0
 21 25  1  0
 22 21  2  0
 23 24  1  0
 26 25  1  0
 26 27  1  6
 27 28  1  0
 28 29  1  0
 29 33  1  0
 30 29  2  0
 31 26  1  0
 32 31  2  0
 34 31  1  0
M  END
$$$$
