YYE.pdb
     RDKit          3D

 34 35  0  0  1  0  0  0  0  0999 V2000
    7.8319  -13.7287   15.0708 O   0  0  0  0  0  0  0  0  0  0  0  0
    7.9943  -13.6481   16.4690 C   0  0  0  0  0  0  0  0  0  0  0  0
    7.2622  -12.7896   17.2442 C   0  0  0  0  0  0  0  0  0  0  0  0
    7.4194  -12.7088   18.6160 C   0  0  0  0  0  0  0  0  0  0  0  0
    8.3470  -13.5242   19.2146 C   0  0  0  0  0  0  0  0  0  0  0  0
    8.5340  -13.4495   20.6897 C   0  0  0  0  0  0  0  0  0  0  0  0
    8.3041  -14.7831   21.3546 C   0  0  2  0  0  0  0  0  0  0  0  0
    6.9301  -15.1974   21.1523 N   0  0  0  0  0  0  0  0  0  0  0  0
    8.5665  -14.7462   22.8017 C   0  0  0  0  0  0  0  0  0  0  0  0
    8.4460  -13.6771   23.4499 O   0  0  0  0  0  0  0  0  0  0  0  0
    9.1030  -14.4014   18.4703 C   0  0  0  0  0  0  0  0  0  0  0  0
    8.9180  -14.4532   17.1075 C   0  0  0  0  0  0  0  0  0  0  0  0
    5.9988  -10.7089   27.0663 O   0  0  0  0  0  0  0  0  0  0  0  0
    6.4171  -11.9861   26.7059 C   0  0  0  0  0  0  0  0  0  0  0  0
    7.5014  -12.5870   27.3124 C   0  0  0  0  0  0  0  0  0  0  0  0
    7.9302  -13.8718   26.9578 C   0  0  0  0  0  0  0  0  0  0  0  0
    7.2692  -14.5719   25.9831 C   0  0  0  0  0  0  0  0  0  0  0  0
    7.6684  -15.9265   25.5655 C   0  0  0  0  0  0  0  0  0  0  0  0
    9.0642  -15.9867   24.9653 C   0  0  2  0  0  0  0  0  0  0  0  0
    8.9665  -15.8974   23.5443 N   0  0  0  0  0  0  0  0  0  0  0  0
    9.6355  -17.2843   25.4170 C   0  0  0  0  0  0  0  0  0  0  0  0
    8.8388  -18.2311   25.6153 O   0  0  0  0  0  0  0  0  0  0  0  0
    6.1778  -13.9808   25.3649 C   0  0  0  0  0  0  0  0  0  0  0  0
    5.7590  -12.7098   25.7205 C   0  0  0  0  0  0  0  0  0  0  0  0
   11.0099  -17.4879   25.6279 N   0  0  0  0  0  0  0  0  0  0  0  0
   11.5504  -18.7935   26.0908 C   0  0  1  0  0  0  0  0  0  0  0  0
   13.0060  -18.7438   25.7701 C   0  0  0  0  0  0  0  0  0  0  0  0
   13.4713  -18.3376   24.4440 C   0  0  0  0  0  0  0  0  0  0  0  0
   14.6823  -17.5430   24.2936 C   0  0  0  0  0  0  0  0  0  0  0  0
   15.3342  -17.2255   25.3493 O   0  0  0  0  0  0  0  0  0  0  0  0
   11.3312  -18.7641   27.5552 C   0  0  0  0  0  0  0  0  0  0  0  0
   10.8324  -17.6881   28.0494 O   0  0  0  0  0  0  0  0  0  0  0  0
   15.1805  -17.1068   23.0793 O   0  0  0  0  0  0  0  0  0  0  0  0
   11.5987  -19.7671   28.4478 O   0  0  0  0  0  0  0  0  0  0  0  0
  2  1  1  0
  3  2  2  0
  4  3  1  0
  5  4  2  0
  5 11  1  0
  6  7  1  0
  6  5  1  0
  7  9  1  0
  7  8  1  1
  9 10  2  0
 11 12  2  0
 12  2  1  0
 13 14  1  0
 14 24  2  0
 15 14  1  0
 16 15  2  0
 16 17  1  0
 17 23  2  0
 18 17  1  0
 19 18  1  1
 20 19  1  0
 20  9  1  0
 21 19  1  0
 21 25  1  0
 22 21  2  0
 23 24  1  0
 26 25  1  0
 26 27  1  1
 27 28  1  0
 28 29  1  0
 29 33  1  0
 30 29  2  0
 31 26  1  0
 32 31  2  0
 34 31  1  0
M  END
$$$$
