YYE.pdb
     RDKit          3D

 34 35  0  0  1  0  0  0  0  0999 V2000
    1.6783  -21.9791   23.4672 O   0  0  0  0  0  0  0  0  0  0  0  0
    2.9158  -21.3063   23.4064 C   0  0  0  0  0  0  0  0  0  0  0  0
    4.1076  -21.9407   23.6325 C   0  0  0  0  0  0  0  0  0  0  0  0
    5.3229  -21.2829   23.5731 C   0  0  0  0  0  0  0  0  0  0  0  0
    5.3248  -19.9432   23.2754 C   0  0  0  0  0  0  0  0  0  0  0  0
    6.6224  -19.2162   23.2106 C   0  0  0  0  0  0  0  0  0  0  0  0
    6.8624  -18.6128   21.8499 C   0  0  2  0  0  0  0  0  0  0  0  0
    6.8195  -19.6530   20.8417 N   0  0  0  0  0  0  0  0  0  0  0  0
    8.1627  -17.9314   21.7547 C   0  0  0  0  0  0  0  0  0  0  0  0
    9.1032  -18.4312   21.0887 O   0  0  0  0  0  0  0  0  0  0  0  0
    4.1478  -19.2689   23.0412 C   0  0  0  0  0  0  0  0  0  0  0  0
    2.9580  -19.9575   23.1092 C   0  0  0  0  0  0  0  0  0  0  0  0
    7.0885  -12.4635   17.6820 O   0  0  0  0  0  0  0  0  0  0  0  0
    7.6468  -12.9545   18.8582 C   0  0  0  0  0  0  0  0  0  0  0  0
    7.0414  -12.7532   20.0820 C   0  0  0  0  0  0  0  0  0  0  0  0
    7.5944  -13.2434   21.2712 C   0  0  0  0  0  0  0  0  0  0  0  0
    8.7699  -13.9467   21.2435 C   0  0  0  0  0  0  0  0  0  0  0  0
    9.4021  -14.4899   22.4574 C   0  0  0  0  0  0  0  0  0  0  0  0
    9.6742  -15.9840   22.3798 C   0  0  2  0  0  0  0  0  0  0  0  0
    8.4325  -16.6872   22.3995 N   0  0  0  0  0  0  0  0  0  0  0  0
   10.5244  -16.2951   23.5607 C   0  0  0  0  0  0  0  0  0  0  0  0
   11.6295  -15.7109   23.6498 O   0  0  0  0  0  0  0  0  0  0  0  0
    9.3895  -14.1569   20.0209 C   0  0  0  0  0  0  0  0  0  0  0  0
    8.8372  -13.6692   18.8486 C   0  0  0  0  0  0  0  0  0  0  0  0
   10.1451  -17.2034   24.5637 N   0  0  0  0  0  0  0  0  0  0  0  0
   11.0421  -17.5405   25.7007 C   0  0  1  0  0  0  0  0  0  0  0  0
   10.1794  -18.2800   26.6664 C   0  0  0  0  0  0  0  0  0  0  0  0
   10.7507  -18.9113   27.8561 C   0  0  0  0  0  0  0  0  0  0  0  0
    9.8986  -19.6139   28.8052 C   0  0  0  0  0  0  0  0  0  0  0  0
   10.4526  -20.1931   29.8040 O   0  0  0  0  0  0  0  0  0  0  0  0
   12.0504  -18.4413   25.0963 C   0  0  0  0  0  0  0  0  0  0  0  0
   13.2387  -18.3977   25.5830 O   0  0  0  0  0  0  0  0  0  0  0  0
    8.5219  -19.6966   28.7011 O   0  0  0  0  0  0  0  0  0  0  0  0
   11.8537  -19.3266   24.0708 O   0  0  0  0  0  0  0  0  0  0  0  0
  2  1  1  0
  3  2  2  0
  4  3  1  0
  5  4  2  0
  5 11  1  0
  6  7  1  0
  6  5  1  0
  7  9  1  0
  7  8  1  6
  9 10  2  0
 11 12  2  0
 12  2  1  0
 13 14  1  0
 14 24  2  0
 15 14  1  0
 16 15  2  0
 16 17  1  0
 17 23  2  0
 18 17  1  0
 19 18  1  1
 20 19  1  0
 20  9  1  0
 21 19  1  0
 21 25  1  0
 22 21  2  0
 23 24  1  0
 26 25  1  0
 26 27  1  1
 27 28  1  0
 28 29  1  0
 29 33  1  0
 30 29  2  0
 31 26  1  0
 32 31  2  0
 34 31  1  0
M  END
$$$$
