YYE.pdb
     RDKit          3D

 34 35  0  0  1  0  0  0  0  0999 V2000
   15.1746  -21.6824   10.7094 O   0  0  0  0  0  0  0  0  0  0  0  0
   15.1372  -20.9693   11.9251 C   0  0  0  0  0  0  0  0  0  0  0  0
   14.6529  -21.5171   13.0824 C   0  0  0  0  0  0  0  0  0  0  0  0
   14.6155  -20.8198   14.2763 C   0  0  0  0  0  0  0  0  0  0  0  0
   15.0839  -19.5299   14.2923 C   0  0  0  0  0  0  0  0  0  0  0  0
   15.0486  -18.7610   15.5667 C   0  0  0  0  0  0  0  0  0  0  0  0
   13.6432  -18.3739   15.9519 C   0  0  2  0  0  0  0  0  0  0  0  0
   13.1177  -17.4275   14.9883 N   0  0  0  0  0  0  0  0  0  0  0  0
   13.5714  -17.7606   17.2872 C   0  0  0  0  0  0  0  0  0  0  0  0
   13.9372  -16.5730   17.4698 O   0  0  0  0  0  0  0  0  0  0  0  0
   15.5792  -18.9428   13.1500 C   0  0  0  0  0  0  0  0  0  0  0  0
   15.6002  -19.6686   11.9807 C   0  0  0  0  0  0  0  0  0  0  0  0
   11.7765  -17.1973   26.0253 O   0  0  0  0  0  0  0  0  0  0  0  0
   11.8152  -17.5501   24.6799 C   0  0  0  0  0  0  0  0  0  0  0  0
   12.3140  -18.7694   24.2688 C   0  0  0  0  0  0  0  0  0  0  0  0
   12.3570  -19.1345   22.9178 C   0  0  0  0  0  0  0  0  0  0  0  0
   11.8953  -18.2723   21.9583 C   0  0  0  0  0  0  0  0  0  0  0  0
   11.9109  -18.5965   20.5219 C   0  0  0  0  0  0  0  0  0  0  0  0
   13.0740  -17.9652   19.7728 C   0  0  2  0  0  0  0  0  0  0  0  0
   13.0926  -18.4611   18.4347 N   0  0  0  0  0  0  0  0  0  0  0  0
   14.2924  -18.3443   20.5383 C   0  0  0  0  0  0  0  0  0  0  0  0
   14.6036  -19.5578   20.5694 O   0  0  0  0  0  0  0  0  0  0  0  0
   11.3910  -17.0435   22.3565 C   0  0  0  0  0  0  0  0  0  0  0  0
   11.3516  -16.6888   23.6944 C   0  0  0  0  0  0  0  0  0  0  0  0
   15.0951  -17.4120   21.2176 N   0  0  0  0  0  0  0  0  0  0  0  0
   16.3695  -17.8027   21.8765 C   0  0  1  0  0  0  0  0  0  0  0  0
   17.4234  -17.0132   21.1764 C   0  0  0  0  0  0  0  0  0  0  0  0
   18.8307  -17.1308   21.5584 C   0  0  0  0  0  0  0  0  0  0  0  0
   19.8499  -16.3327   20.8915 C   0  0  0  0  0  0  0  0  0  0  0  0
   20.7264  -16.9391   20.1815 O   0  0  0  0  0  0  0  0  0  0  0  0
   16.1999  -17.3363   23.2718 C   0  0  0  0  0  0  0  0  0  0  0  0
   17.0764  -17.7238   24.1276 O   0  0  0  0  0  0  0  0  0  0  0  0
   19.9345  -14.9545   20.9721 O   0  0  0  0  0  0  0  0  0  0  0  0
   15.2067  -16.5268   23.7541 O   0  0  0  0  0  0  0  0  0  0  0  0
  2  1  1  0
  3  2  2  0
  4  3  1  0
  5  4  2  0
  5 11  1  0
  6  7  1  0
  6  5  1  0
  7  9  1  0
  7  8  1  6
  9 10  2  0
 11 12  2  0
 12  2  1  0
 13 14  1  0
 14 24  2  0
 15 14  1  0
 16 15  2  0
 16 17  1  0
 17 23  2  0
 18 17  1  0
 19 18  1  1
 20 19  1  0
 20  9  1  0
 21 19  1  0
 21 25  1  0
 22 21  2  0
 23 24  1  0
 26 25  1  0
 26 27  1  6
 27 28  1  0
 28 29  1  0
 29 33  1  0
 30 29  2  0
 31 26  1  0
 32 31  2  0
 34 31  1  0
M  END
$$$$
