YYE.pdb
     RDKit          3D

 34 35  0  0  1  0  0  0  0  0999 V2000
   12.8704  -27.0425   14.3954 O   0  0  0  0  0  0  0  0  0  0  0  0
   13.1548  -26.2744   15.5430 C   0  0  0  0  0  0  0  0  0  0  0  0
   13.9919  -26.7157   16.5322 C   0  0  0  0  0  0  0  0  0  0  0  0
   14.2727  -25.9639   17.6587 C   0  0  0  0  0  0  0  0  0  0  0  0
   13.6853  -24.7296   17.7814 C   0  0  0  0  0  0  0  0  0  0  0  0
   13.9716  -23.9067   18.9886 C   0  0  0  0  0  0  0  0  0  0  0  0
   13.3141  -24.4700   20.2229 C   0  0  2  0  0  0  0  0  0  0  0  0
   11.8771  -24.3094   20.1253 N   0  0  0  0  0  0  0  0  0  0  0  0
   13.7692  -23.8109   21.4569 C   0  0  0  0  0  0  0  0  0  0  0  0
   13.2884  -22.7056   21.8103 O   0  0  0  0  0  0  0  0  0  0  0  0
   12.8377  -24.2497   16.8086 C   0  0  0  0  0  0  0  0  0  0  0  0
   12.5825  -25.0268   15.7017 C   0  0  0  0  0  0  0  0  0  0  0  0
    9.2230  -24.6845   25.7918 O   0  0  0  0  0  0  0  0  0  0  0  0
   10.5857  -24.7191   25.5125 C   0  0  0  0  0  0  0  0  0  0  0  0
   11.1217  -25.6577   24.6543 C   0  0  0  0  0  0  0  0  0  0  0  0
   12.4912  -25.7009   24.3661 C   0  0  0  0  0  0  0  0  0  0  0  0
   13.3430  -24.7947   24.9409 C   0  0  0  0  0  0  0  0  0  0  0  0
   14.7919  -24.7855   24.6780 C   0  0  0  0  0  0  0  0  0  0  0  0
   15.1971  -23.8363   23.5612 C   0  0  2  0  0  0  0  0  0  0  0  0
   14.7644  -24.3728   22.3115 N   0  0  0  0  0  0  0  0  0  0  0  0
   16.6781  -23.7251   23.6518 C   0  0  0  0  0  0  0  0  0  0  0  0
   17.3587  -24.6938   23.2407 O   0  0  0  0  0  0  0  0  0  0  0  0
   12.8186  -23.8456   25.8052 C   0  0  0  0  0  0  0  0  0  0  0  0
   11.4632  -23.8086   26.0860 C   0  0  0  0  0  0  0  0  0  0  0  0
   17.3345  -22.5967   24.1721 N   0  0  0  0  0  0  0  0  0  0  0  0
   18.8150  -22.4629   24.1409 C   0  0  1  0  0  0  0  0  0  0  0  0
   19.0661  -21.0397   23.7731 C   0  0  0  0  0  0  0  0  0  0  0  0
   18.1547  -19.9790   24.2027 C   0  0  0  0  0  0  0  0  0  0  0  0
   18.4150  -18.5898   23.8523 C   0  0  0  0  0  0  0  0  0  0  0  0
   19.5101  -18.3116   23.2493 O   0  0  0  0  0  0  0  0  0  0  0  0
   19.2202  -22.7259   25.5409 C   0  0  0  0  0  0  0  0  0  0  0  0
   18.2792  -22.8997   26.3982 O   0  0  0  0  0  0  0  0  0  0  0  0
   17.5526  -17.5438   24.1266 O   0  0  0  0  0  0  0  0  0  0  0  0
   20.4976  -22.8100   26.0261 O   0  0  0  0  0  0  0  0  0  0  0  0
  2  1  1  0
  3  2  2  0
  4  3  1  0
  5  4  2  0
  5 11  1  0
  6  7  1  0
  6  5  1  0
  7  9  1  0
  7  8  1  6
  9 10  2  0
 11 12  2  0
 12  2  1  0
 13 14  1  0
 14 24  2  0
 15 14  1  0
 16 15  2  0
 16 17  1  0
 17 23  2  0
 18 17  1  0
 19 18  1  1
 20 19  1  0
 20  9  1  0
 21 19  1  0
 21 25  1  0
 22 21  2  0
 23 24  1  0
 26 25  1  0
 26 27  1  1
 27 28  1  0
 28 29  1  0
 29 33  1  0
 30 29  2  0
 31 26  1  0
 32 31  2  0
 34 31  1  0
M  END
$$$$
