YYE.pdb
     RDKit          3D

 34 35  0  0  1  0  0  0  0  0999 V2000
    6.8822  -13.6260   14.1060 O   0  0  0  0  0  0  0  0  0  0  0  0
    7.0999  -13.9640   15.4573 C   0  0  0  0  0  0  0  0  0  0  0  0
    7.2426  -13.0179   16.4364 C   0  0  0  0  0  0  0  0  0  0  0  0
    7.4559  -13.3469   17.7628 C   0  0  0  0  0  0  0  0  0  0  0  0
    7.5259  -14.6751   18.1014 C   0  0  0  0  0  0  0  0  0  0  0  0
    7.7589  -15.0499   19.5233 C   0  0  0  0  0  0  0  0  0  0  0  0
    9.0053  -14.4078   20.0777 C   0  0  2  0  0  0  0  0  0  0  0  0
   10.1599  -14.8562   19.3252 N   0  0  0  0  0  0  0  0  0  0  0  0
    9.2251  -14.7311   21.4960 C   0  0  0  0  0  0  0  0  0  0  0  0
    9.8704  -15.7560   21.8292 O   0  0  0  0  0  0  0  0  0  0  0  0
    7.3872  -15.6569   17.1466 C   0  0  0  0  0  0  0  0  0  0  0  0
    7.1760  -15.2904   15.8368 C   0  0  0  0  0  0  0  0  0  0  0  0
    8.8261  -13.6585   30.3516 O   0  0  0  0  0  0  0  0  0  0  0  0
    8.6000  -13.5800   28.9809 C   0  0  0  0  0  0  0  0  0  0  0  0
    7.3797  -13.9169   28.4315 C   0  0  0  0  0  0  0  0  0  0  0  0
    7.1415  -13.8409   27.0539 C   0  0  0  0  0  0  0  0  0  0  0  0
    8.1340  -13.4220   26.2073 C   0  0  0  0  0  0  0  0  0  0  0  0
    7.9472  -13.3184   24.7503 C   0  0  0  0  0  0  0  0  0  0  0  0
    8.9537  -14.1329   23.9529 C   0  0  2  0  0  0  0  0  0  0  0  0
    8.7294  -13.9191   22.5597 N   0  0  0  0  0  0  0  0  0  0  0  0
    8.7290  -15.5474   24.3560 C   0  0  0  0  0  0  0  0  0  0  0  0
    7.6092  -16.0512   24.1051 O   0  0  0  0  0  0  0  0  0  0  0  0
    9.3654  -13.0800   26.7451 C   0  0  0  0  0  0  0  0  0  0  0  0
    9.5942  -13.1576   28.1085 C   0  0  0  0  0  0  0  0  0  0  0  0
    9.7052  -16.3290   24.9972 N   0  0  0  0  0  0  0  0  0  0  0  0
    9.4689  -17.7554   25.3439 C   0  0  1  0  0  0  0  0  0  0  0  0
   10.3422  -18.5281   24.4142 C   0  0  0  0  0  0  0  0  0  0  0  0
   10.5153  -19.9724   24.5694 C   0  0  0  0  0  0  0  0  0  0  0  0
   11.3558  -20.7226   23.6467 C   0  0  0  0  0  0  0  0  0  0  0  0
   12.5700  -20.9523   23.9828 O   0  0  0  0  0  0  0  0  0  0  0  0
    9.9567  -17.8626   26.7381 C   0  0  0  0  0  0  0  0  0  0  0  0
   10.7486  -16.9395   27.1523 O   0  0  0  0  0  0  0  0  0  0  0  0
   10.9277  -21.2087   22.4247 O   0  0  0  0  0  0  0  0  0  0  0  0
    9.6507  -18.8423   27.6441 O   0  0  0  0  0  0  0  0  0  0  0  0
  2  1  1  0
  3  2  2  0
  4  3  1  0
  5  4  2  0
  5 11  1  0
  6  7  1  0
  6  5  1  0
  7  9  1  0
  7  8  1  6
  9 10  2  0
 11 12  2  0
 12  2  1  0
 13 14  1  0
 14 24  2  0
 15 14  1  0
 16 15  2  0
 16 17  1  0
 17 23  2  0
 18 17  1  0
 19 18  1  1
 20 19  1  0
 20  9  1  0
 21 19  1  0
 21 25  1  0
 22 21  2  0
 23 24  1  0
 26 25  1  0
 26 27  1  6
 27 28  1  0
 28 29  1  0
 29 33  1  0
 30 29  2  0
 31 26  1  0
 32 31  2  0
 34 31  1  0
M  END
$$$$
