YYE.pdb
     RDKit          3D

 34 35  0  0  1  0  0  0  0  0999 V2000
       nan       nan       nan O   0  0  0  0  0  0  0  0  0  0  0  0
       nan       nan       nan C   0  0  0  0  0  0  0  0  0  0  0  0
       nan       nan       nan C   0  0  0  0  0  0  0  0  0  0  0  0
       nan       nan       nan C   0  0  0  0  0  0  0  0  0  0  0  0
       nan       nan       nan C   0  0  0  0  0  0  0  0  0  0  0  0
       nan       nan       nan C   0  0  0  0  0  0  0  0  0  0  0  0
       nan       nan       nan C   0  0  0  0  0  0  0  0  0  0  0  0
       nan       nan       nan N   0  0  0  0  0  0  0  0  0  0  0  0
       nan       nan       nan C   0  0  0  0  0  0  0  0  0  0  0  0
       nan       nan       nan O   0  0  0  0  0  0  0  0  0  0  0  0
       nan       nan       nan C   0  0  0  0  0  0  0  0  0  0  0  0
       nan       nan       nan C   0  0  0  0  0  0  0  0  0  0  0  0
       nan       nan       nan O   0  0  0  0  0  0  0  0  0  0  0  0
       nan       nan       nan C   0  0  0  0  0  0  0  0  0  0  0  0
       nan       nan       nan C   0  0  0  0  0  0  0  0  0  0  0  0
       nan       nan       nan C   0  0  0  0  0  0  0  0  0  0  0  0
       nan       nan       nan C   0  0  0  0  0  0  0  0  0  0  0  0
       nan       nan       nan C   0  0  0  0  0  0  0  0  0  0  0  0
       nan       nan       nan C   0  0  0  0  0  0  0  0  0  0  0  0
       nan       nan       nan N   0  0  0  0  0  0  0  0  0  0  0  0
       nan       nan       nan C   0  0  0  0  0  0  0  0  0  0  0  0
       nan       nan       nan O   0  0  0  0  0  0  0  0  0  0  0  0
       nan       nan       nan C   0  0  0  0  0  0  0  0  0  0  0  0
       nan       nan       nan C   0  0  0  0  0  0  0  0  0  0  0  0
       nan       nan       nan N   0  0  0  0  0  0  0  0  0  0  0  0
       nan       nan       nan C   0  0  0  0  0  0  0  0  0  0  0  0
       nan       nan       nan C   0  0  0  0  0  0  0  0  0  0  0  0
       nan       nan       nan C   0  0  0  0  0  0  0  0  0  0  0  0
       nan       nan       nan C   0  0  0  0  0  0  0  0  0  0  0  0
       nan       nan       nan O   0  0  0  0  0  0  0  0  0  0  0  0
       nan       nan       nan C   0  0  0  0  0  0  0  0  0  0  0  0
       nan       nan       nan O   0  0  0  0  0  0  0  0  0  0  0  0
       nan       nan       nan O   0  0  0  0  0  0  0  0  0  0  0  0
       nan       nan       nan O   0  0  0  0  0  0  0  0  0  0  0  0
  2  1  1  0
  3  2  2  0
  4  3  1  0
  5  4  2  0
  5 11  1  0
  6  7  1  0
  6  5  1  0
  7  9  1  0
  7  8  1  1
  9 10  2  0
 11 12  2  0
 12  2  1  0
 13 14  1  0
 14 24  2  0
 15 14  1  0
 16 15  2  0
 16 17  1  0
 17 23  2  0
 18 17  1  0
 19 18  1  6
 20 19  1  0
 20  9  1  0
 21 19  1  0
 21 25  1  0
 22 21  2  0
 23 24  1  0
 26 25  1  0
 26 27  1  6
 27 28  1  0
 28 29  1  0
 29 33  1  0
 30 29  2  0
 31 26  1  0
 32 31  2  0
 34 31  1  0
M  END
$$$$
