SES.pdb
     RDKit          3D

 22 21  0  0  1  0  0  0  0  0999 V2000
   13.9528   -8.1874  -11.3662 O   0  0  0  0  0  0  0  0  0  0  0  0
   14.6660   -9.2501  -10.8660 C   0  0  0  0  0  0  0  0  0  0  0  0
   15.8381   -8.8496   -9.9820 C   0  0  2  0  0  0  0  0  0  0  0  0
   15.2315   -8.1494   -8.8513 N   0  0  0  0  0  0  0  0  0  0  0  0
   16.7793   -7.9634  -10.7033 C   0  0  0  0  0  0  0  0  0  0  0  0
   16.8111   -6.7531  -10.4183 O   0  0  0  0  0  0  0  0  0  0  0  0
   17.6325   -8.4682  -11.7020 N   0  0  0  0  0  0  0  0  0  0  0  0
   18.5226   -7.7349  -12.5226 C   0  0  1  0  0  0  0  0  0  0  0  0
   19.5945   -8.4828  -13.2190 C   0  0  0  0  0  0  0  0  0  0  0  0
   20.5419   -7.6908  -14.0547 C   0  0  0  0  0  0  0  0  0  0  0  0
   21.5800   -8.6693  -14.5422 C   0  0  0  0  0  0  0  0  0  0  0  0
   22.5190   -8.2670  -15.2981 O   0  0  0  0  0  0  0  0  0  0  0  0
   17.8962   -6.7336  -13.4271 C   0  0  0  0  0  0  0  0  0  0  0  0
   16.9008   -7.1084  -14.0969 O   0  0  0  0  0  0  0  0  0  0  0  0
   21.5489  -10.0194  -14.1930 O   0  0  0  0  0  0  0  0  0  0  0  0
   16.1191   -2.5854  -14.4679 O   0  0  0  0  0  0  0  0  0  0  0  0
   16.7431   -3.5265  -13.6884 C   0  0  0  0  0  0  0  0  0  0  0  0
   17.6255   -4.4604  -14.4837 C   0  0  2  0  0  0  0  0  0  0  0  0
   18.3197   -5.4021  -13.6030 N   0  0  0  0  0  0  0  0  0  0  0  0
   18.6084   -3.6730  -15.2771 C   0  0  0  0  0  0  0  0  0  0  0  0
   18.3659   -3.2003  -16.5509 O   0  0  0  0  0  0  0  0  0  0  0  0
   19.7193   -3.4300  -14.7466 O   0  0  0  0  0  0  0  0  0  0  0  0
  2  1  1  0
  3  2  1  0
  3  4  1  1
  5  3  1  0
  6  5  2  0
  7  5  1  0
  8  7  1  0
  8 13  1  0
  8  9  1  6
 10  9  1  0
 10 11  1  0
 11 12  2  0
 13 14  2  0
 13 19  1  0
 15 11  1  0
 16 17  1  0
 18 17  1  1
 18 20  1  0
 19 18  1  0
 20 21  1  0
 22 20  2  0
M  END
$$$$
