SES.pdb
     RDKit          3D

 22 21  0  0  1  0  0  0  0  0999 V2000
   20.7218  -12.4443  -15.7762 O   0  0  0  0  0  0  0  0  0  0  0  0
   19.4124  -12.4558  -15.3594 C   0  0  0  0  0  0  0  0  0  0  0  0
   18.4531  -11.7521  -16.3081 C   0  0  2  0  0  0  0  0  0  0  0  0
   18.5913  -12.4652  -17.5766 N   0  0  0  0  0  0  0  0  0  0  0  0
   18.8052  -10.3232  -16.4692 C   0  0  0  0  0  0  0  0  0  0  0  0
   19.4662   -9.9703  -17.4619 O   0  0  0  0  0  0  0  0  0  0  0  0
   18.4059   -9.3647  -15.5195 N   0  0  0  0  0  0  0  0  0  0  0  0
   18.6456   -7.9702  -15.5534 C   0  0  1  0  0  0  0  0  0  0  0  0
   17.5253   -7.0683  -15.2000 C   0  0  0  0  0  0  0  0  0  0  0  0
   16.2516   -7.2398  -15.9560 C   0  0  0  0  0  0  0  0  0  0  0  0
   15.2129   -6.4514  -15.1996 C   0  0  0  0  0  0  0  0  0  0  0  0
   14.8872   -5.2906  -15.6012 O   0  0  0  0  0  0  0  0  0  0  0  0
   19.9157   -7.5144  -14.9269 C   0  0  0  0  0  0  0  0  0  0  0  0
   20.1899   -7.9701  -13.7880 O   0  0  0  0  0  0  0  0  0  0  0  0
   14.5872   -6.9524  -14.0579 O   0  0  0  0  0  0  0  0  0  0  0  0
   23.4068   -6.7456  -16.7886 O   0  0  0  0  0  0  0  0  0  0  0  0
   23.1213   -5.7913  -15.8450 C   0  0  0  0  0  0  0  0  0  0  0  0
   22.0943   -6.2484  -14.8354 C   0  0  2  0  0  0  0  0  0  0  0  0
   20.8389   -6.6150  -15.4943 N   0  0  0  0  0  0  0  0  0  0  0  0
   21.8581   -5.1735  -13.8332 C   0  0  0  0  0  0  0  0  0  0  0  0
   22.6202   -5.0020  -12.6954 O   0  0  0  0  0  0  0  0  0  0  0  0
   20.9080   -4.3819  -14.0458 O   0  0  0  0  0  0  0  0  0  0  0  0
  2  1  1  0
  3  2  1  0
  3  4  1  6
  5  3  1  0
  6  5  2  0
  7  5  1  0
  8  7  1  0
  8 13  1  0
  8  9  1  1
 10  9  1  0
 10 11  1  0
 11 12  2  0
 13 14  2  0
 13 19  1  0
 15 11  1  0
 16 17  1  0
 18 17  1  6
 18 20  1  0
 19 18  1  0
 20 21  1  0
 22 20  2  0
M  END
$$$$
