SES.pdb
     RDKit          3D

 22 21  0  0  1  0  0  0  0  0999 V2000
   28.0868  -19.2443  -15.7816 O   0  0  0  0  0  0  0  0  0  0  0  0
   27.8933  -20.1944  -14.8079 C   0  0  0  0  0  0  0  0  0  0  0  0
   27.0789  -21.3954  -15.2660 C   0  0  2  0  0  0  0  0  0  0  0  0
   27.7994  -21.9151  -16.4268 N   0  0  0  0  0  0  0  0  0  0  0  0
   25.7008  -21.0023  -15.6376 C   0  0  0  0  0  0  0  0  0  0  0  0
   25.4393  -20.7647  -16.8301 O   0  0  0  0  0  0  0  0  0  0  0  0
   24.6891  -20.8931  -14.6657 N   0  0  0  0  0  0  0  0  0  0  0  0
   23.3624  -20.4374  -14.8542 C   0  0  1  0  0  0  0  0  0  0  0  0
   22.3108  -20.9878  -13.9684 C   0  0  0  0  0  0  0  0  0  0  0  0
   20.9054  -20.5738  -14.2448 C   0  0  0  0  0  0  0  0  0  0  0  0
   20.0494  -21.3401  -13.2687 C   0  0  0  0  0  0  0  0  0  0  0  0
   20.6002  -22.0544  -12.3735 O   0  0  0  0  0  0  0  0  0  0  0  0
   23.1990  -18.9689  -15.0280 C   0  0  0  0  0  0  0  0  0  0  0  0
   23.7524  -18.2252  -14.1792 O   0  0  0  0  0  0  0  0  0  0  0  0
   18.6558  -21.2972  -13.3113 O   0  0  0  0  0  0  0  0  0  0  0  0
   23.6364  -15.1057  -17.3804 O   0  0  0  0  0  0  0  0  0  0  0  0
   23.6279  -16.4546  -17.1294 C   0  0  0  0  0  0  0  0  0  0  0  0
   22.4779  -16.8836  -16.2482 C   0  0  2  0  0  0  0  0  0  0  0  0
   22.4769  -18.3356  -16.0579 N   0  0  0  0  0  0  0  0  0  0  0  0
   21.1897  -16.4393  -16.8471 C   0  0  0  0  0  0  0  0  0  0  0  0
   20.5381  -17.1157  -17.8584 O   0  0  0  0  0  0  0  0  0  0  0  0
   20.6744  -15.3870  -16.3979 O   0  0  0  0  0  0  0  0  0  0  0  0
  2  1  1  0
  3  2  1  0
  3  4  1  6
  5  3  1  0
  6  5  2  0
  7  5  1  0
  8  7  1  0
  8 13  1  0
  8  9  1  1
 10  9  1  0
 10 11  1  0
 11 12  2  0
 13 14  2  0
 13 19  1  0
 15 11  1  0
 16 17  1  0
 18 17  1  6
 18 20  1  0
 19 18  1  0
 20 21  1  0
 22 20  2  0
M  END
$$$$
