SES.pdb
     RDKit          3D

 22 21  0  0  1  0  0  0  0  0999 V2000
   19.7386  -11.9884  -15.8251 O   0  0  0  0  0  0  0  0  0  0  0  0
   18.8602  -11.5922  -14.8455 C   0  0  0  0  0  0  0  0  0  0  0  0
   17.6011  -10.9216  -15.3755 C   0  0  2  0  0  0  0  0  0  0  0  0
   16.9965  -11.9113  -16.2652 N   0  0  0  0  0  0  0  0  0  0  0  0
   17.9218   -9.6795  -16.1142 C   0  0  0  0  0  0  0  0  0  0  0  0
   17.3694   -9.4652  -17.2078 O   0  0  0  0  0  0  0  0  0  0  0  0
   18.8388   -8.7441  -15.6000 N   0  0  0  0  0  0  0  0  0  0  0  0
   19.0969   -7.4391  -16.0833 C   0  0  1  0  0  0  0  0  0  0  0  0
   17.9352   -6.5635  -16.3613 C   0  0  0  0  0  0  0  0  0  0  0  0
   17.0410   -6.2375  -15.2135 C   0  0  0  0  0  0  0  0  0  0  0  0
   16.1232   -5.1458  -15.7020 C   0  0  0  0  0  0  0  0  0  0  0  0
   15.2123   -5.4189  -16.5450 O   0  0  0  0  0  0  0  0  0  0  0  0
   20.1751   -6.6894  -15.3843 C   0  0  0  0  0  0  0  0  0  0  0  0
   20.0615   -6.5462  -14.1407 O   0  0  0  0  0  0  0  0  0  0  0  0
   16.2374   -3.8277  -15.2602 O   0  0  0  0  0  0  0  0  0  0  0  0
   24.4306   -4.2423  -15.4775 O   0  0  0  0  0  0  0  0  0  0  0  0
   23.3890   -4.8290  -16.1510 C   0  0  0  0  0  0  0  0  0  0  0  0
   22.3569   -5.4352  -15.2288 C   0  0  2  0  0  0  0  0  0  0  0  0
   21.3123   -6.1223  -15.9912 N   0  0  0  0  0  0  0  0  0  0  0  0
   21.7595   -4.3743  -14.3726 C   0  0  0  0  0  0  0  0  0  0  0  0
   20.7232   -3.5555  -14.7733 O   0  0  0  0  0  0  0  0  0  0  0  0
   22.2332   -4.2248  -13.2203 O   0  0  0  0  0  0  0  0  0  0  0  0
  2  1  1  0
  3  2  1  0
  3  4  1  6
  5  3  1  0
  6  5  2  0
  7  5  1  0
  8  7  1  0
  8 13  1  0
  8  9  1  1
 10  9  1  0
 10 11  1  0
 11 12  2  0
 13 14  2  0
 13 19  1  0
 15 11  1  0
 16 17  1  0
 18 17  1  6
 18 20  1  0
 19 18  1  0
 20 21  1  0
 22 20  2  0
M  END
$$$$
