SES.pdb
     RDKit          3D

 22 21  0  0  1  0  0  0  0  0999 V2000
   17.1893  -12.1681  -13.8702 O   0  0  0  0  0  0  0  0  0  0  0  0
   17.8864  -11.0832  -14.3449 C   0  0  0  0  0  0  0  0  0  0  0  0
   17.9163  -10.9808  -15.8629 C   0  0  2  0  0  0  0  0  0  0  0  0
   18.6698  -12.1537  -16.3021 N   0  0  0  0  0  0  0  0  0  0  0  0
   18.5812   -9.7346  -16.3063 C   0  0  0  0  0  0  0  0  0  0  0  0
   19.6851   -9.8062  -16.8747 O   0  0  0  0  0  0  0  0  0  0  0  0
   17.9855   -8.4776  -16.0934 N   0  0  0  0  0  0  0  0  0  0  0  0
   18.4982   -7.2107  -16.4615 C   0  0  1  0  0  0  0  0  0  0  0  0
   17.5273   -6.1449  -16.8004 C   0  0  0  0  0  0  0  0  0  0  0  0
   16.4877   -6.4724  -17.8178 C   0  0  0  0  0  0  0  0  0  0  0  0
   15.1633   -6.1510  -17.1734 C   0  0  0  0  0  0  0  0  0  0  0  0
   14.3029   -7.0717  -17.0088 O   0  0  0  0  0  0  0  0  0  0  0  0
   19.5954   -6.6813  -15.6075 C   0  0  0  0  0  0  0  0  0  0  0  0
   19.3936   -6.6507  -14.3673 O   0  0  0  0  0  0  0  0  0  0  0  0
   14.8391   -4.8633  -16.7463 O   0  0  0  0  0  0  0  0  0  0  0  0
   24.2431   -5.1919  -15.1123 O   0  0  0  0  0  0  0  0  0  0  0  0
   23.1684   -5.4507  -15.9251 C   0  0  0  0  0  0  0  0  0  0  0  0
   21.9225   -5.8228  -15.1553 C   0  0  2  0  0  0  0  0  0  0  0  0
   20.8407   -6.2082  -16.0640 N   0  0  0  0  0  0  0  0  0  0  0  0
   21.4978   -4.6812  -14.2998 C   0  0  0  0  0  0  0  0  0  0  0  0
   21.8866   -4.5188  -12.9855 O   0  0  0  0  0  0  0  0  0  0  0  0
   20.7424   -3.8213  -14.8143 O   0  0  0  0  0  0  0  0  0  0  0  0
  2  1  1  0
  3  2  1  0
  3  4  1  6
  5  3  1  0
  6  5  2  0
  7  5  1  0
  8  7  1  0
  8 13  1  0
  8  9  1  1
 10  9  1  0
 10 11  1  0
 11 12  2  0
 13 14  2  0
 13 19  1  0
 15 11  1  0
 16 17  1  0
 18 17  1  6
 18 20  1  0
 19 18  1  0
 20 21  1  0
 22 20  2  0
M  END
$$$$
