SES.pdb
     RDKit          3D

 22 21  0  0  1  0  0  0  0  0999 V2000
   15.3644  -10.8328  -14.3842 O   0  0  0  0  0  0  0  0  0  0  0  0
   16.6022  -10.2470  -14.4977 C   0  0  0  0  0  0  0  0  0  0  0  0
   17.3872  -10.6880  -15.7245 C   0  0  2  0  0  0  0  0  0  0  0  0
   17.7270  -12.0864  -15.4683 N   0  0  0  0  0  0  0  0  0  0  0  0
   18.6117   -9.8752  -15.9020 C   0  0  0  0  0  0  0  0  0  0  0  0
   19.5949  -10.0937  -15.1722 O   0  0  0  0  0  0  0  0  0  0  0  0
   18.6777   -8.8639  -16.8782 N   0  0  0  0  0  0  0  0  0  0  0  0
   19.7443   -7.9630  -17.1111 C   0  0  1  0  0  0  0  0  0  0  0  0
   19.8490   -7.3497  -18.4551 C   0  0  0  0  0  0  0  0  0  0  0  0
   21.0248   -6.4688  -18.7094 C   0  0  0  0  0  0  0  0  0  0  0  0
   20.8655   -5.9645  -20.1212 C   0  0  0  0  0  0  0  0  0  0  0  0
   20.7256   -4.7194  -20.3334 O   0  0  0  0  0  0  0  0  0  0  0  0
   19.9875   -6.9552  -16.0442 C   0  0  0  0  0  0  0  0  0  0  0  0
   19.0387   -6.1822  -15.7575 O   0  0  0  0  0  0  0  0  0  0  0  0
   20.8636   -6.8237  -21.2201 O   0  0  0  0  0  0  0  0  0  0  0  0
   22.3414   -5.5470  -12.0620 O   0  0  0  0  0  0  0  0  0  0  0  0
   22.2197   -6.3886  -13.1388 C   0  0  0  0  0  0  0  0  0  0  0  0
   21.3224   -5.8357  -14.2215 C   0  0  2  0  0  0  0  0  0  0  0  0
   21.1876   -6.7869  -15.3268 N   0  0  0  0  0  0  0  0  0  0  0  0
   21.8664   -4.5414  -14.7160 C   0  0  0  0  0  0  0  0  0  0  0  0
   22.7044   -4.4259  -15.8066 O   0  0  0  0  0  0  0  0  0  0  0  0
   21.5364   -3.5004  -14.0980 O   0  0  0  0  0  0  0  0  0  0  0  0
  2  1  1  0
  3  2  1  0
  3  4  1  1
  5  3  1  0
  6  5  2  0
  7  5  1  0
  8  7  1  0
  8 13  1  0
  8  9  1  6
 10  9  1  0
 10 11  1  0
 11 12  2  0
 13 14  2  0
 13 19  1  0
 15 11  1  0
 16 17  1  0
 18 17  1  1
 18 20  1  0
 19 18  1  0
 20 21  1  0
 22 20  2  0
M  END
$$$$
