SES.pdb
     RDKit          3D

 22 21  0  0  1  0  0  0  0  0999 V2000
   14.7332   -9.9066  -15.9936 O   0  0  0  0  0  0  0  0  0  0  0  0
   15.9440   -9.3664  -15.6326 C   0  0  0  0  0  0  0  0  0  0  0  0
   17.0856  -10.3720  -15.5953 C   0  0  2  0  0  0  0  0  0  0  0  0
   16.7293  -11.3028  -14.5261 N   0  0  0  0  0  0  0  0  0  0  0  0
   18.3777   -9.7103  -15.3049 C   0  0  0  0  0  0  0  0  0  0  0  0
   18.6774   -9.4581  -14.1244 O   0  0  0  0  0  0  0  0  0  0  0  0
   19.2655   -9.3636  -16.3401 N   0  0  0  0  0  0  0  0  0  0  0  0
   20.5174   -8.7147  -16.2168 C   0  0  1  0  0  0  0  0  0  0  0  0
   21.5795   -9.0741  -17.1844 C   0  0  0  0  0  0  0  0  0  0  0  0
   22.0090  -10.5014  -17.2216 C   0  0  0  0  0  0  0  0  0  0  0  0
   23.0015  -10.6049  -18.3516 C   0  0  0  0  0  0  0  0  0  0  0  0
   24.2234  -10.8442  -18.0969 O   0  0  0  0  0  0  0  0  0  0  0  0
   20.4676   -7.2436  -16.0009 C   0  0  0  0  0  0  0  0  0  0  0  0
   19.8205   -6.5624  -16.8358 O   0  0  0  0  0  0  0  0  0  0  0  0
   22.6266  -10.4438  -19.6854 O   0  0  0  0  0  0  0  0  0  0  0  0
   19.7202   -3.4625  -13.4701 O   0  0  0  0  0  0  0  0  0  0  0  0
   19.9279   -4.8056  -13.6587 C   0  0  0  0  0  0  0  0  0  0  0  0
   20.9257   -5.1003  -14.7544 C   0  0  2  0  0  0  0  0  0  0  0  0
   21.0832   -6.5437  -14.9453 N   0  0  0  0  0  0  0  0  0  0  0  0
   22.2361   -4.4758  -14.4254 C   0  0  0  0  0  0  0  0  0  0  0  0
   22.5610   -3.1678  -14.7232 O   0  0  0  0  0  0  0  0  0  0  0  0
   23.0878   -5.1893  -13.8423 O   0  0  0  0  0  0  0  0  0  0  0  0
  2  1  1  0
  3  2  1  0
  3  4  1  1
  5  3  1  0
  6  5  2  0
  7  5  1  0
  8  7  1  0
  8 13  1  0
  8  9  1  6
 10  9  1  0
 10 11  1  0
 11 12  2  0
 13 14  2  0
 13 19  1  0
 15 11  1  0
 16 17  1  0
 18 17  1  1
 18 20  1  0
 19 18  1  0
 20 21  1  0
 22 20  2  0
M  END
$$$$
