SES.pdb
     RDKit          3D

 22 21  0  0  1  0  0  0  0  0999 V2000
   15.1336  -10.7710  -15.7137 O   0  0  0  0  0  0  0  0  0  0  0  0
   16.3278  -10.3005  -15.2231 C   0  0  0  0  0  0  0  0  0  0  0  0
   17.5534  -10.8691  -15.9233 C   0  0  2  0  0  0  0  0  0  0  0  0
   17.4863  -12.3095  -15.6838 N   0  0  0  0  0  0  0  0  0  0  0  0
   18.8032  -10.3031  -15.3672 C   0  0  0  0  0  0  0  0  0  0  0  0
   18.9721  -10.3021  -14.1350 O   0  0  0  0  0  0  0  0  0  0  0  0
   19.7962   -9.7681  -16.2086 N   0  0  0  0  0  0  0  0  0  0  0  0
   20.9920   -9.1178  -15.8205 C   0  0  1  0  0  0  0  0  0  0  0  0
   22.2672   -9.6310  -16.3718 C   0  0  0  0  0  0  0  0  0  0  0  0
   22.2593  -10.0829  -17.7927 C   0  0  0  0  0  0  0  0  0  0  0  0
   23.6712  -10.5148  -18.0967 C   0  0  0  0  0  0  0  0  0  0  0  0
   24.2152  -11.4266  -17.3984 O   0  0  0  0  0  0  0  0  0  0  0  0
   20.9598   -7.6307  -15.8455 C   0  0  0  0  0  0  0  0  0  0  0  0
   20.5972   -7.0823  -16.9167 O   0  0  0  0  0  0  0  0  0  0  0  0
   24.4161   -9.9431  -19.1283 O   0  0  0  0  0  0  0  0  0  0  0  0
   19.5191   -3.6048  -14.2646 O   0  0  0  0  0  0  0  0  0  0  0  0
   19.7287   -4.9602  -14.3039 C   0  0  0  0  0  0  0  0  0  0  0  0
   21.0990   -5.3307  -14.8219 C   0  0  2  0  0  0  0  0  0  0  0  0
   21.3020   -6.7802  -14.7765 N   0  0  0  0  0  0  0  0  0  0  0  0
   22.1455   -4.6363  -14.0231 C   0  0  0  0  0  0  0  0  0  0  0  0
   22.5096   -3.3186  -14.2128 O   0  0  0  0  0  0  0  0  0  0  0  0
   22.7235   -5.2970  -13.1265 O   0  0  0  0  0  0  0  0  0  0  0  0
  2  1  1  0
  3  2  1  0
  3  4  1  1
  5  3  1  0
  6  5  2  0
  7  5  1  0
  8  7  1  0
  8 13  1  0
  8  9  1  6
 10  9  1  0
 10 11  1  0
 11 12  2  0
 13 14  2  0
 13 19  1  0
 15 11  1  0
 16 17  1  0
 18 17  1  1
 18 20  1  0
 19 18  1  0
 20 21  1  0
 22 20  2  0
M  END
$$$$
