SES.pdb
     RDKit          3D

 22 21  0  0  1  0  0  0  0  0999 V2000
   27.0529   -9.2087  -17.0230 O   0  0  0  0  0  0  0  0  0  0  0  0
   26.6172  -10.3557  -16.4041 C   0  0  0  0  0  0  0  0  0  0  0  0
   25.3779  -10.9704  -17.0381 C   0  0  2  0  0  0  0  0  0  0  0  0
   25.8066  -11.3834  -18.3731 N   0  0  0  0  0  0  0  0  0  0  0  0
   24.2725   -9.9894  -17.1227 C   0  0  0  0  0  0  0  0  0  0  0  0
   24.1482   -9.3041  -18.1532 O   0  0  0  0  0  0  0  0  0  0  0  0
   23.3666   -9.8216  -16.0591 N   0  0  0  0  0  0  0  0  0  0  0  0
   22.2569   -8.9446  -16.0061 C   0  0  1  0  0  0  0  0  0  0  0  0
   20.9538   -9.5051  -15.5803 C   0  0  0  0  0  0  0  0  0  0  0  0
   19.7930   -8.5700  -15.5414 C   0  0  0  0  0  0  0  0  0  0  0  0
   18.6125   -9.3953  -15.0964 C   0  0  0  0  0  0  0  0  0  0  0  0
   18.3539   -9.5080  -13.8573 O   0  0  0  0  0  0  0  0  0  0  0  0
   22.5035   -7.6232  -15.3687 C   0  0  0  0  0  0  0  0  0  0  0  0
   23.0550   -7.6247  -14.2392 O   0  0  0  0  0  0  0  0  0  0  0  0
   17.7816  -10.0517  -16.0045 O   0  0  0  0  0  0  0  0  0  0  0  0
   22.5600   -2.7233  -15.6228 O   0  0  0  0  0  0  0  0  0  0  0  0
   22.1808   -3.9289  -16.1569 C   0  0  0  0  0  0  0  0  0  0  0  0
   22.5446   -5.1038  -15.2791 C   0  0  2  0  0  0  0  0  0  0  0  0
   22.1719   -6.3688  -15.9160 N   0  0  0  0  0  0  0  0  0  0  0  0
   21.8740   -4.9729  -13.9568 C   0  0  0  0  0  0  0  0  0  0  0  0
   22.4884   -4.4651  -12.8300 O   0  0  0  0  0  0  0  0  0  0  0  0
   20.6796   -5.3485  -13.8731 O   0  0  0  0  0  0  0  0  0  0  0  0
  2  1  1  0
  3  2  1  0
  3  4  1  6
  5  3  1  0
  6  5  2  0
  7  5  1  0
  8  7  1  0
  8 13  1  0
  8  9  1  1
 10  9  1  0
 10 11  1  0
 11 12  2  0
 13 14  2  0
 13 19  1  0
 15 11  1  0
 16 17  1  0
 18 17  1  6
 18 20  1  0
 19 18  1  0
 20 21  1  0
 22 20  2  0
M  END
$$$$
