SES.pdb
     RDKit          3D

 22 21  0  0  1  0  0  0  0  0999 V2000
   15.3965  -11.6852  -16.7353 O   0  0  0  0  0  0  0  0  0  0  0  0
   15.8067  -11.2850  -15.4864 C   0  0  0  0  0  0  0  0  0  0  0  0
   17.3095  -11.0805  -15.3628 C   0  0  2  0  0  0  0  0  0  0  0  0
   17.8683  -12.4305  -15.3197 N   0  0  0  0  0  0  0  0  0  0  0  0
   17.6525  -10.3319  -14.1325 C   0  0  0  0  0  0  0  0  0  0  0  0
   17.4568  -10.8637  -13.0253 O   0  0  0  0  0  0  0  0  0  0  0  0
   18.1922   -9.0340  -14.1981 N   0  0  0  0  0  0  0  0  0  0  0  0
   18.6845   -8.2531  -13.1251 C   0  0  1  0  0  0  0  0  0  0  0  0
   19.8462   -7.3729  -13.3880 C   0  0  0  0  0  0  0  0  0  0  0  0
   20.3679   -6.5768  -12.2403 C   0  0  0  0  0  0  0  0  0  0  0  0
   21.5130   -5.7636  -12.7882 C   0  0  0  0  0  0  0  0  0  0  0  0
   22.1148   -4.9357  -12.0350 O   0  0  0  0  0  0  0  0  0  0  0  0
   17.6579   -7.5522  -12.3079 C   0  0  0  0  0  0  0  0  0  0  0  0
   16.8802   -6.7700  -12.9106 O   0  0  0  0  0  0  0  0  0  0  0  0
   21.9433   -5.8844  -14.1096 O   0  0  0  0  0  0  0  0  0  0  0  0
   15.2476   -6.9252   -8.0942 O   0  0  0  0  0  0  0  0  0  0  0  0
   16.1839   -7.5984   -8.8377 C   0  0  0  0  0  0  0  0  0  0  0  0
   16.4477   -6.9536  -10.1785 C   0  0  2  0  0  0  0  0  0  0  0  0
   17.4799   -7.6840  -10.9172 N   0  0  0  0  0  0  0  0  0  0  0  0
   16.8555   -5.5352   -9.9852 C   0  0  0  0  0  0  0  0  0  0  0  0
   15.9645   -4.4863   -9.8806 O   0  0  0  0  0  0  0  0  0  0  0  0
   18.0841   -5.2903   -9.9136 O   0  0  0  0  0  0  0  0  0  0  0  0
  2  1  1  0
  3  2  1  0
  3  4  1  1
  5  3  1  0
  6  5  2  0
  7  5  1  0
  8  7  1  0
  8 13  1  0
  8  9  1  6
 10  9  1  0
 10 11  1  0
 11 12  2  0
 13 14  2  0
 13 19  1  0
 15 11  1  0
 16 17  1  0
 18 17  1  1
 18 20  1  0
 19 18  1  0
 20 21  1  0
 22 20  2  0
M  END
$$$$
