SES.pdb
     RDKit          3D

 22 21  0  0  1  0  0  0  0  0999 V2000
   20.2915   -9.5367  -12.6730 O   0  0  0  0  0  0  0  0  0  0  0  0
   19.2560   -8.6840  -12.3749 C   0  0  0  0  0  0  0  0  0  0  0  0
   17.9738   -9.3880  -11.9553 C   0  0  2  0  0  0  0  0  0  0  0  0
   17.5566  -10.1408  -13.1367 N   0  0  0  0  0  0  0  0  0  0  0  0
   16.9303   -8.4160  -11.5578 C   0  0  0  0  0  0  0  0  0  0  0  0
   16.3206   -7.7868  -12.4406 O   0  0  0  0  0  0  0  0  0  0  0  0
   16.6215   -8.1946  -10.2029 N   0  0  0  0  0  0  0  0  0  0  0  0
   15.6768   -7.2822   -9.6751 C   0  0  1  0  0  0  0  0  0  0  0  0
   14.9343   -7.6839   -8.4583 C   0  0  0  0  0  0  0  0  0  0  0  0
   13.8488   -6.7732   -7.9940 C   0  0  0  0  0  0  0  0  0  0  0  0
   13.1577   -7.4958   -6.8657 C   0  0  0  0  0  0  0  0  0  0  0  0
   12.7244   -6.8383   -5.8683 O   0  0  0  0  0  0  0  0  0  0  0  0
   16.1224   -5.8657   -9.5853 C   0  0  0  0  0  0  0  0  0  0  0  0
   17.1602   -5.6317   -8.9159 O   0  0  0  0  0  0  0  0  0  0  0  0
   12.9741   -8.8786   -6.8724 O   0  0  0  0  0  0  0  0  0  0  0  0
   16.4679   -1.4756  -11.5051 O   0  0  0  0  0  0  0  0  0  0  0  0
   16.0629   -2.7865  -11.5144 C   0  0  0  0  0  0  0  0  0  0  0  0
   16.0398   -3.4068  -10.1368 C   0  0  2  0  0  0  0  0  0  0  0  0
   15.4840   -4.7609  -10.1812 N   0  0  0  0  0  0  0  0  0  0  0  0
   15.2469   -2.5520   -9.2114 C   0  0  0  0  0  0  0  0  0  0  0  0
   15.7657   -1.4700   -8.5295 O   0  0  0  0  0  0  0  0  0  0  0  0
   14.0365   -2.8409   -9.0499 O   0  0  0  0  0  0  0  0  0  0  0  0
  2  1  1  0
  3  2  1  0
  3  4  1  6
  5  3  1  0
  6  5  2  0
  7  5  1  0
  8  7  1  0
  8 13  1  0
  8  9  1  1
 10  9  1  0
 10 11  1  0
 11 12  2  0
 13 14  2  0
 13 19  1  0
 15 11  1  0
 16 17  1  0
 18 17  1  6
 18 20  1  0
 19 18  1  0
 20 21  1  0
 22 20  2  0
M  END
$$$$
