SES.pdb
     RDKit          3D

 22 21  0  0  1  0  0  0  0  0999 V2000
   15.8896  -11.7593  -11.1190 O   0  0  0  0  0  0  0  0  0  0  0  0
   15.4881  -11.3916   -9.8573 C   0  0  0  0  0  0  0  0  0  0  0  0
   14.4715  -10.2595   -9.8349 C   0  0  2  0  0  0  0  0  0  0  0  0
   13.3729  -10.7267  -10.6784 N   0  0  0  0  0  0  0  0  0  0  0  0
   15.0481   -9.0063  -10.3721 C   0  0  0  0  0  0  0  0  0  0  0  0
   14.8629   -8.7179  -11.5677 O   0  0  0  0  0  0  0  0  0  0  0  0
   15.7997   -8.1427   -9.5538 N   0  0  0  0  0  0  0  0  0  0  0  0
   16.4192   -6.9267   -9.9289 C   0  0  1  0  0  0  0  0  0  0  0  0
   16.1716   -5.7361   -9.0835 C   0  0  0  0  0  0  0  0  0  0  0  0
   16.6804   -4.4283   -9.5874 C   0  0  0  0  0  0  0  0  0  0  0  0
   16.2082   -3.3928   -8.5987 C   0  0  0  0  0  0  0  0  0  0  0  0
   15.3552   -3.7111   -7.7121 O   0  0  0  0  0  0  0  0  0  0  0  0
   17.8537   -7.0202  -10.3121 C   0  0  0  0  0  0  0  0  0  0  0  0
   18.6371   -7.5438   -9.4803 O   0  0  0  0  0  0  0  0  0  0  0  0
   16.6760   -2.0788   -8.6202 O   0  0  0  0  0  0  0  0  0  0  0  0
   21.2243   -8.3248  -13.1240 O   0  0  0  0  0  0  0  0  0  0  0  0
   19.9336   -8.0648  -12.7381 C   0  0  0  0  0  0  0  0  0  0  0  0
   19.8107   -6.8208  -11.8893 C   0  0  2  0  0  0  0  0  0  0  0  0
   18.4147   -6.5719  -11.5235 N   0  0  0  0  0  0  0  0  0  0  0  0
   20.3698   -5.6522  -12.6223 C   0  0  0  0  0  0  0  0  0  0  0  0
   21.7116   -5.3300  -12.6467 O   0  0  0  0  0  0  0  0  0  0  0  0
   19.5649   -4.9244  -13.2524 O   0  0  0  0  0  0  0  0  0  0  0  0
  2  1  1  0
  3  2  1  0
  3  4  1  6
  5  3  1  0
  6  5  2  0
  7  5  1  0
  8  7  1  0
  8 13  1  0
  8  9  1  1
 10  9  1  0
 10 11  1  0
 11 12  2  0
 13 14  2  0
 13 19  1  0
 15 11  1  0
 16 17  1  0
 18 17  1  6
 18 20  1  0
 19 18  1  0
 20 21  1  0
 22 20  2  0
M  END
$$$$
