PKK.pdb
     RDKit          3D

 26 26  0  0  1  0  0  0  0  0999 V2000
   26.4430  -21.9364  -15.3388 N   0  0  0  0  0  0  0  0  0  0  0  0
   26.6832  -21.7329  -16.7749 C   0  0  0  0  0  0  0  0  0  0  0  0
   27.2175  -20.3441  -16.9311 C   0  0  0  0  0  0  0  0  0  0  0  0
   27.2985  -19.8146  -15.5022 C   0  0  0  0  0  0  0  0  0  0  0  0
   27.4855  -21.0927  -14.7220 C   0  0  1  0  0  0  0  0  0  0  0  0
   27.2202  -20.9391  -13.2640 C   0  0  0  0  0  0  0  0  0  0  0  0
   27.9495  -20.1870  -12.5856 O   0  0  0  0  0  0  0  0  0  0  0  0
   26.1752  -21.6181  -12.6388 N   0  0  0  0  0  0  0  0  0  0  0  0
   25.1732  -21.1057  -11.7518 C   0  0  1  0  0  0  0  0  0  0  0  0
   25.6351  -20.5166  -10.4814 C   0  0  0  0  0  0  0  0  0  0  0  0
   24.4609  -19.9334   -9.6891 C   0  0  0  0  0  0  0  0  0  0  0  0
   23.8954  -21.0343   -8.8282 C   0  0  0  0  0  0  0  0  0  0  0  0
   22.6328  -20.5173   -8.1258 C   0  0  0  0  0  0  0  0  0  0  0  0
   22.1298  -21.6537   -7.3530 N   0  0  0  0  0  0  0  0  0  0  0  0
   24.2192  -20.2868  -12.5405 C   0  0  0  0  0  0  0  0  0  0  0  0
   24.3073  -19.0382  -12.5017 O   0  0  0  0  0  0  0  0  0  0  0  0
   23.1963  -20.8256  -13.3414 N   0  0  0  0  0  0  0  0  0  0  0  0
   22.2481  -19.9964  -14.0318 C   0  0  1  0  0  0  0  0  0  0  0  0
   22.2850  -20.1299  -15.5412 C   0  0  0  0  0  0  0  0  0  0  0  0
   21.3561  -19.1570  -16.1855 C   0  0  0  0  0  0  0  0  0  0  0  0
   21.3584  -19.2417  -17.6653 C   0  0  0  0  0  0  0  0  0  0  0  0
   20.5737  -18.2436  -18.4335 C   0  0  0  0  0  0  0  0  0  0  0  0
   20.7076  -18.3100  -19.8623 N   0  0  0  0  0  0  0  0  0  0  0  0
   20.8670  -20.3539  -13.5348 C   0  0  0  0  0  0  0  0  0  0  0  0
   19.7736  -19.5354  -13.7803 O   0  0  0  0  0  0  0  0  0  0  0  0
   20.6639  -21.3991  -12.8864 O   0  0  0  0  0  0  0  0  0  0  0  0
  1  2  1  0
  3  2  1  0
  4  5  1  0
  4  3  1  0
  5  1  1  0
  6  8  1  0
  5  6  1  1
  7  6  2  0
  9 15  1  0
  9  8  1  0
  9 10  1  1
 11 10  1  0
 12 11  1  0
 13 12  1  0
 14 13  1  0
 15 17  1  0
 16 15  2  0
 17 18  1  0
 18 24  1  0
 18 19  1  6
 20 19  1  0
 21 20  1  0
 22 21  1  0
 23 22  1  0
 24 25  1  0
 26 24  2  0
M  END
$$$$
