PKK.pdb
     RDKit          3D

 26 26  0  0  1  0  0  0  0  0999 V2000
   25.6323  -16.9688  -15.3320 N   0  0  0  0  0  0  0  0  0  0  0  0
   26.9531  -16.3360  -15.4610 C   0  0  0  0  0  0  0  0  0  0  0  0
   27.8949  -17.3953  -15.9399 C   0  0  0  0  0  0  0  0  0  0  0  0
   27.0119  -18.6285  -16.1083 C   0  0  0  0  0  0  0  0  0  0  0  0
   25.6706  -17.9972  -16.3904 C   0  0  1  0  0  0  0  0  0  0  0  0
   24.5281  -18.9393  -16.2271 C   0  0  0  0  0  0  0  0  0  0  0  0
   24.4145  -19.9044  -17.0104 O   0  0  0  0  0  0  0  0  0  0  0  0
   23.5808  -18.7668  -15.2187 N   0  0  0  0  0  0  0  0  0  0  0  0
   22.3947  -19.5279  -14.9594 C   0  0  1  0  0  0  0  0  0  0  0  0
   22.1937  -20.0146  -13.5821 C   0  0  0  0  0  0  0  0  0  0  0  0
   20.8939  -20.8174  -13.4689 C   0  0  0  0  0  0  0  0  0  0  0  0
   20.7962  -21.3374  -12.0572 C   0  0  0  0  0  0  0  0  0  0  0  0
   19.4821  -22.1147  -11.9035 C   0  0  0  0  0  0  0  0  0  0  0  0
   19.5599  -22.7451  -10.5852 N   0  0  0  0  0  0  0  0  0  0  0  0
   21.2409  -18.8286  -15.5778 C   0  0  0  0  0  0  0  0  0  0  0  0
   20.9532  -17.6701  -15.1989 O   0  0  0  0  0  0  0  0  0  0  0  0
   20.4256  -19.3896  -16.5771 N   0  0  0  0  0  0  0  0  0  0  0  0
   19.3756  -18.6454  -17.2151 C   0  0  1  0  0  0  0  0  0  0  0  0
   19.7183  -18.1498  -18.6060 C   0  0  0  0  0  0  0  0  0  0  0  0
   19.8741  -19.2899  -19.5549 C   0  0  0  0  0  0  0  0  0  0  0  0
   20.2397  -18.8610  -20.9258 C   0  0  0  0  0  0  0  0  0  0  0  0
   20.3940  -19.8985  -21.9755 C   0  0  0  0  0  0  0  0  0  0  0  0
   20.7620  -19.4183  -23.2785 N   0  0  0  0  0  0  0  0  0  0  0  0
   18.1548  -19.5320  -17.2901 C   0  0  0  0  0  0  0  0  0  0  0  0
   18.2103  -20.8736  -16.9396 O   0  0  0  0  0  0  0  0  0  0  0  0
   17.0544  -19.0861  -17.6700 O   0  0  0  0  0  0  0  0  0  0  0  0
  1  2  1  0
  3  2  1  0
  4  5  1  0
  4  3  1  0
  5  1  1  0
  6  8  1  0
  5  6  1  1
  7  6  2  0
  9 15  1  0
  9  8  1  0
  9 10  1  1
 11 10  1  0
 12 11  1  0
 13 12  1  0
 14 13  1  0
 15 17  1  0
 16 15  2  0
 17 18  1  0
 18 24  1  0
 18 19  1  6
 20 19  1  0
 21 20  1  0
 22 21  1  0
 23 22  1  0
 24 25  1  0
 26 24  2  0
M  END
$$$$
