PKK.pdb
     RDKit          3D

 26 26  0  0  1  0  0  0  0  0999 V2000
   28.3789  -19.8482  -16.8741 N   0  0  0  0  0  0  0  0  0  0  0  0
   28.9219  -18.7181  -17.6419 C   0  0  0  0  0  0  0  0  0  0  0  0
   28.1989  -17.4932  -17.1777 C   0  0  0  0  0  0  0  0  0  0  0  0
   27.2641  -18.0054  -16.0857 C   0  0  0  0  0  0  0  0  0  0  0  0
   28.0200  -19.2139  -15.5904 C   0  0  1  0  0  0  0  0  0  0  0  0
   27.1835  -20.1425  -14.7794 C   0  0  0  0  0  0  0  0  0  0  0  0
   26.6422  -21.1207  -15.3342 O   0  0  0  0  0  0  0  0  0  0  0  0
   26.9903  -19.9429  -13.4130 N   0  0  0  0  0  0  0  0  0  0  0  0
   25.9842  -20.4977  -12.5567 C   0  0  1  0  0  0  0  0  0  0  0  0
   26.1510  -20.3004  -11.1049 C   0  0  0  0  0  0  0  0  0  0  0  0
   25.0188  -20.9778  -10.3263 C   0  0  0  0  0  0  0  0  0  0  0  0
   25.2607  -20.7342   -8.8583 C   0  0  0  0  0  0  0  0  0  0  0  0
   24.1694  -21.4481   -8.0495 C   0  0  0  0  0  0  0  0  0  0  0  0
   24.4492  -21.1187   -6.6514 N   0  0  0  0  0  0  0  0  0  0  0  0
   24.6510  -20.1550  -13.1115 C   0  0  0  0  0  0  0  0  0  0  0  0
   24.3959  -18.9629  -13.3981 O   0  0  0  0  0  0  0  0  0  0  0  0
   23.6288  -21.0941  -13.3374 N   0  0  0  0  0  0  0  0  0  0  0  0
   22.4221  -20.7574  -14.0401 C   0  0  1  0  0  0  0  0  0  0  0  0
   22.2297  -21.5057  -15.3441 C   0  0  0  0  0  0  0  0  0  0  0  0
   20.9227  -21.1560  -15.9719 C   0  0  0  0  0  0  0  0  0  0  0  0
   20.6689  -21.8882  -17.2354 C   0  0  0  0  0  0  0  0  0  0  0  0
   19.4642  -21.5376  -18.0279 C   0  0  0  0  0  0  0  0  0  0  0  0
   19.2713  -22.2901  -19.2363 N   0  0  0  0  0  0  0  0  0  0  0  0
   21.2544  -21.0442  -13.1255 C   0  0  0  0  0  0  0  0  0  0  0  0
   20.1392  -20.2190  -13.0929 O   0  0  0  0  0  0  0  0  0  0  0  0
   21.2544  -22.0346  -12.3683 O   0  0  0  0  0  0  0  0  0  0  0  0
  1  2  1  0
  3  2  1  0
  4  5  1  0
  4  3  1  0
  5  1  1  0
  6  8  1  0
  5  6  1  1
  7  6  2  0
  9 15  1  0
  9  8  1  0
  9 10  1  1
 11 10  1  0
 12 11  1  0
 13 12  1  0
 14 13  1  0
 15 17  1  0
 16 15  2  0
 17 18  1  0
 18 24  1  0
 18 19  1  6
 20 19  1  0
 21 20  1  0
 22 21  1  0
 23 22  1  0
 24 25  1  0
 26 24  2  0
M  END
$$$$
