PKK.pdb
     RDKit          3D

 26 26  0  0  1  0  0  0  0  0999 V2000
   19.0361  -27.9271  -10.1532 N   0  0  0  0  0  0  0  0  0  0  0  0
   18.9221  -26.6023  -10.7804 C   0  0  0  0  0  0  0  0  0  0  0  0
   20.0794  -26.4676  -11.7191 C   0  0  0  0  0  0  0  0  0  0  0  0
   20.8069  -27.8041  -11.6055 C   0  0  0  0  0  0  0  0  0  0  0  0
   19.6768  -28.7255  -11.2167 C   0  0  1  0  0  0  0  0  0  0  0  0
   20.1407  -30.0296  -10.6656 C   0  0  0  0  0  0  0  0  0  0  0  0
   19.4704  -31.0594  -10.8849 O   0  0  0  0  0  0  0  0  0  0  0  0
   21.3075  -30.1262   -9.9085 N   0  0  0  0  0  0  0  0  0  0  0  0
   21.9896  -31.3014   -9.4537 C   0  0  1  0  0  0  0  0  0  0  0  0
   23.4494  -31.2045   -9.2687 C   0  0  0  0  0  0  0  0  0  0  0  0
   24.0356  -32.5481   -8.8239 C   0  0  0  0  0  0  0  0  0  0  0  0
   25.5264  -32.3745   -8.6814 C   0  0  0  0  0  0  0  0  0  0  0  0
   26.1522  -33.7279   -8.3189 C   0  0  0  0  0  0  0  0  0  0  0  0
   27.5795  -33.4572   -8.1433 N   0  0  0  0  0  0  0  0  0  0  0  0
   21.2266  -31.8809   -8.3202 C   0  0  0  0  0  0  0  0  0  0  0  0
   20.8926  -31.1416   -7.3663 O   0  0  0  0  0  0  0  0  0  0  0  0
   20.8491  -33.2331   -8.2368 N   0  0  0  0  0  0  0  0  0  0  0  0
   20.0822  -33.7468   -7.1362 C   0  0  1  0  0  0  0  0  0  0  0  0
   19.4588  -35.1049   -7.3900 C   0  0  0  0  0  0  0  0  0  0  0  0
   18.5675  -35.5019   -6.2618 C   0  0  0  0  0  0  0  0  0  0  0  0
   17.9973  -36.8608   -6.4203 C   0  0  0  0  0  0  0  0  0  0  0  0
   17.1000  -37.3810   -5.3590 C   0  0  0  0  0  0  0  0  0  0  0  0
   16.6539  -38.7361   -5.5276 N   0  0  0  0  0  0  0  0  0  0  0  0
   20.9928  -33.8347   -5.9340 C   0  0  0  0  0  0  0  0  0  0  0  0
   20.5980  -33.3643   -4.6895 O   0  0  0  0  0  0  0  0  0  0  0  0
   22.1316  -34.3343   -6.0208 O   0  0  0  0  0  0  0  0  0  0  0  0
  1  2  1  0
  3  2  1  0
  4  5  1  0
  4  3  1  0
  5  1  1  0
  6  8  1  0
  5  6  1  1
  7  6  2  0
  9 15  1  0
  9  8  1  0
  9 10  1  1
 11 10  1  0
 12 11  1  0
 13 12  1  0
 14 13  1  0
 15 17  1  0
 16 15  2  0
 17 18  1  0
 18 24  1  0
 18 19  1  6
 20 19  1  0
 21 20  1  0
 22 21  1  0
 23 22  1  0
 24 25  1  0
 26 24  2  0
M  END
$$$$
