PKK.pdb
     RDKit          3D

 26 26  0  0  1  0  0  0  0  0999 V2000
   27.7962  -20.0047  -14.8772 N   0  0  0  0  0  0  0  0  0  0  0  0
   29.0996  -20.0926  -15.5519 C   0  0  0  0  0  0  0  0  0  0  0  0
   29.3632  -21.5451  -15.7950 C   0  0  0  0  0  0  0  0  0  0  0  0
   28.1170  -22.2435  -15.2583 C   0  0  0  0  0  0  0  0  0  0  0  0
   27.0745  -21.1664  -15.4328 C   0  0  1  0  0  0  0  0  0  0  0  0
   25.8310  -21.4155  -14.6509 C   0  0  0  0  0  0  0  0  0  0  0  0
   25.0453  -22.3119  -15.0207 O   0  0  0  0  0  0  0  0  0  0  0  0
   25.5239  -20.6683  -13.5144 N   0  0  0  0  0  0  0  0  0  0  0  0
   24.3620  -20.7389  -12.6788 C   0  0  1  0  0  0  0  0  0  0  0  0
   24.5002  -20.2618  -11.2904 C   0  0  0  0  0  0  0  0  0  0  0  0
   23.1321  -20.1540  -10.6095 C   0  0  0  0  0  0  0  0  0  0  0  0
   23.1465  -21.0584   -9.4034 C   0  0  0  0  0  0  0  0  0  0  0  0
   21.8508  -20.8481   -8.6087 C   0  0  0  0  0  0  0  0  0  0  0  0
   22.0008  -21.6659   -7.4045 N   0  0  0  0  0  0  0  0  0  0  0  0
   23.2024  -20.2076  -13.4375 C   0  0  0  0  0  0  0  0  0  0  0  0
   23.2362  -19.0295  -13.8609 O   0  0  0  0  0  0  0  0  0  0  0  0
   22.0394  -20.9481  -13.7157 N   0  0  0  0  0  0  0  0  0  0  0  0
   20.9323  -20.3901  -14.4412 C   0  0  1  0  0  0  0  0  0  0  0  0
   20.2421  -21.3655  -15.3737 C   0  0  0  0  0  0  0  0  0  0  0  0
   19.0945  -20.7159  -16.0706 C   0  0  0  0  0  0  0  0  0  0  0  0
   18.3311  -21.6503  -16.9314 C   0  0  0  0  0  0  0  0  0  0  0  0
   17.2125  -21.1118  -17.7442 C   0  0  0  0  0  0  0  0  0  0  0  0
   16.5200  -22.0672  -18.5636 N   0  0  0  0  0  0  0  0  0  0  0  0
   19.9312  -19.8697  -13.4366 C   0  0  0  0  0  0  0  0  0  0  0  0
   19.0879  -18.8091  -13.7360 O   0  0  0  0  0  0  0  0  0  0  0  0
   19.8295  -20.3778  -12.3027 O   0  0  0  0  0  0  0  0  0  0  0  0
  1  2  1  0
  3  2  1  0
  4  5  1  0
  4  3  1  0
  5  1  1  0
  6  8  1  0
  5  6  1  1
  7  6  2  0
  9 15  1  0
  9  8  1  0
  9 10  1  1
 11 10  1  0
 12 11  1  0
 13 12  1  0
 14 13  1  0
 15 17  1  0
 16 15  2  0
 17 18  1  0
 18 24  1  0
 18 19  1  1
 20 19  1  0
 21 20  1  0
 22 21  1  0
 23 22  1  0
 24 25  1  0
 26 24  2  0
M  END
$$$$
