PKK.pdb
     RDKit          3D

 26 26  0  0  1  0  0  0  0  0999 V2000
   24.7990  -13.8700  -15.7002 N   0  0  0  0  0  0  0  0  0  0  0  0
   25.8319  -14.9136  -15.7756 C   0  0  0  0  0  0  0  0  0  0  0  0
   26.4772  -14.7865  -17.1194 C   0  0  0  0  0  0  0  0  0  0  0  0
   25.7742  -13.5918  -17.7574 C   0  0  0  0  0  0  0  0  0  0  0  0
   25.3716  -12.7984  -16.5385 C   0  0  1  0  0  0  0  0  0  0  0  0
   24.3366  -11.7648  -16.8217 C   0  0  0  0  0  0  0  0  0  0  0  0
   24.6443  -10.7594  -17.4942 O   0  0  0  0  0  0  0  0  0  0  0  0
   23.0306  -11.8944  -16.3509 N   0  0  0  0  0  0  0  0  0  0  0  0
   21.8786  -11.1025  -16.6656 C   0  0  1  0  0  0  0  0  0  0  0  0
   20.5853  -11.8037  -16.7651 C   0  0  0  0  0  0  0  0  0  0  0  0
   19.4662  -10.8354  -17.1612 C   0  0  0  0  0  0  0  0  0  0  0  0
   18.1696  -11.6046  -17.1557 C   0  0  0  0  0  0  0  0  0  0  0  0
   17.0338  -10.6676  -17.5880 C   0  0  0  0  0  0  0  0  0  0  0  0
   15.8149  -11.4721  -17.4951 N   0  0  0  0  0  0  0  0  0  0  0  0
   21.8961   -9.8858  -15.8159 C   0  0  0  0  0  0  0  0  0  0  0  0
   22.1886   -9.9912  -14.6028 O   0  0  0  0  0  0  0  0  0  0  0  0
   21.5946   -8.5949  -16.2855 N   0  0  0  0  0  0  0  0  0  0  0  0
   21.7477   -7.4266  -15.4639 C   0  0  1  0  0  0  0  0  0  0  0  0
   21.8477   -6.1276  -16.2386 C   0  0  0  0  0  0  0  0  0  0  0  0
   21.9831   -4.9647  -15.3145 C   0  0  0  0  0  0  0  0  0  0  0  0
   22.1869   -3.6786  -16.0226 C   0  0  0  0  0  0  0  0  0  0  0  0
   22.3398   -2.4422  -15.2164 C   0  0  0  0  0  0  0  0  0  0  0  0
   22.5480   -1.2323  -15.9624 N   0  0  0  0  0  0  0  0  0  0  0  0
   20.5646   -7.3569  -14.5272 C   0  0  0  0  0  0  0  0  0  0  0  0
   20.7257   -7.0965  -13.1736 O   0  0  0  0  0  0  0  0  0  0  0  0
   19.4015   -7.5312  -14.9407 O   0  0  0  0  0  0  0  0  0  0  0  0
  1  2  1  0
  3  2  1  0
  4  5  1  0
  4  3  1  0
  5  1  1  0
  6  8  1  0
  5  6  1  6
  7  6  2  0
  9 15  1  0
  9  8  1  0
  9 10  1  1
 11 10  1  0
 12 11  1  0
 13 12  1  0
 14 13  1  0
 15 17  1  0
 16 15  2  0
 17 18  1  0
 18 24  1  0
 18 19  1  6
 20 19  1  0
 21 20  1  0
 22 21  1  0
 23 22  1  0
 24 25  1  0
 26 24  2  0
M  END
$$$$
