PKK.pdb
     RDKit          3D

 26 26  0  0  1  0  0  0  0  0999 V2000
   27.3001  -18.8101  -15.6157 N   0  0  0  0  0  0  0  0  0  0  0  0
   28.6614  -18.4977  -16.0748 C   0  0  0  0  0  0  0  0  0  0  0  0
   28.6257  -18.5065  -17.5705 C   0  0  0  0  0  0  0  0  0  0  0  0
   27.1653  -18.7960  -17.9053 C   0  0  0  0  0  0  0  0  0  0  0  0
   26.4657  -18.2375  -16.6905 C   0  0  1  0  0  0  0  0  0  0  0  0
   25.0594  -18.7088  -16.5497 C   0  0  0  0  0  0  0  0  0  0  0  0
   24.1843  -18.2605  -17.3186 O   0  0  0  0  0  0  0  0  0  0  0  0
   24.6976  -19.6397  -15.5767 N   0  0  0  0  0  0  0  0  0  0  0  0
   23.4413  -20.3030  -15.3900 C   0  0  1  0  0  0  0  0  0  0  0  0
   23.4745  -21.6596  -14.8130 C   0  0  0  0  0  0  0  0  0  0  0  0
   24.0544  -22.6658  -15.8120 C   0  0  0  0  0  0  0  0  0  0  0  0
   24.1477  -24.0009  -15.1178 C   0  0  0  0  0  0  0  0  0  0  0  0
   24.7483  -25.0256  -16.0895 C   0  0  0  0  0  0  0  0  0  0  0  0
   24.8696  -26.2628  -15.3175 N   0  0  0  0  0  0  0  0  0  0  0  0
   22.4938  -19.3503  -14.7596 C   0  0  0  0  0  0  0  0  0  0  0  0
   22.8164  -18.7844  -13.6901 O   0  0  0  0  0  0  0  0  0  0  0  0
   21.2285  -19.0356  -15.2869 N   0  0  0  0  0  0  0  0  0  0  0  0
   20.3402  -18.1086  -14.6427 C   0  0  1  0  0  0  0  0  0  0  0  0
   20.1420  -16.8082  -15.3959 C   0  0  0  0  0  0  0  0  0  0  0  0
   19.3150  -15.8533  -14.6028 C   0  0  0  0  0  0  0  0  0  0  0  0
   19.0519  -14.5801  -15.3146 C   0  0  0  0  0  0  0  0  0  0  0  0
   18.3612  -13.4891  -14.5834 C   0  0  0  0  0  0  0  0  0  0  0  0
   18.1136  -12.2915  -15.3374 N   0  0  0  0  0  0  0  0  0  0  0  0
   19.0033  -18.7896  -14.4663 C   0  0  0  0  0  0  0  0  0  0  0  0
   18.2199  -18.5690  -13.3423 O   0  0  0  0  0  0  0  0  0  0  0  0
   18.5588  -19.5740  -15.3272 O   0  0  0  0  0  0  0  0  0  0  0  0
  1  2  1  0
  3  2  1  0
  4  5  1  0
  4  3  1  0
  5  1  1  0
  6  8  1  0
  5  6  1  1
  7  6  2  0
  9 15  1  0
  9  8  1  0
  9 10  1  1
 11 10  1  0
 12 11  1  0
 13 12  1  0
 14 13  1  0
 15 17  1  0
 16 15  2  0
 17 18  1  0
 18 24  1  0
 18 19  1  6
 20 19  1  0
 21 20  1  0
 22 21  1  0
 23 22  1  0
 24 25  1  0
 26 24  2  0
M  END
$$$$
