PKK.pdb
     RDKit          3D

 26 26  0  0  1  0  0  0  0  0999 V2000
   33.4500  -27.7433    5.4015 N   0  0  0  0  0  0  0  0  0  0  0  0
   33.2232  -28.8498    4.4603 C   0  0  0  0  0  0  0  0  0  0  0  0
   34.0108  -28.5366    3.2274 C   0  0  0  0  0  0  0  0  0  0  0  0
   34.7147  -27.2242    3.5599 C   0  0  0  0  0  0  0  0  0  0  0  0
   34.8219  -27.3169    5.0623 C   0  0  1  0  0  0  0  0  0  0  0  0
   35.1262  -26.0125    5.7146 C   0  0  0  0  0  0  0  0  0  0  0  0
   36.2209  -25.4568    5.4896 O   0  0  0  0  0  0  0  0  0  0  0  0
   34.2152  -25.3979    6.5728 N   0  0  0  0  0  0  0  0  0  0  0  0
   34.3428  -24.1594    7.2821 C   0  0  1  0  0  0  0  0  0  0  0  0
   33.1192  -23.3565    7.4622 C   0  0  0  0  0  0  0  0  0  0  0  0
   33.4308  -22.0342    8.1702 C   0  0  0  0  0  0  0  0  0  0  0  0
   32.1582  -21.2273    8.2178 C   0  0  0  0  0  0  0  0  0  0  0  0
   32.4446  -19.8875    8.9089 C   0  0  0  0  0  0  0  0  0  0  0  0
   31.1692  -19.1700    8.9007 N   0  0  0  0  0  0  0  0  0  0  0  0
   35.1516  -24.3966    8.5038 C   0  0  0  0  0  0  0  0  0  0  0  0
   34.9311  -25.4176    9.1947 O   0  0  0  0  0  0  0  0  0  0  0  0
   36.1667  -23.5335    8.9540 N   0  0  0  0  0  0  0  0  0  0  0  0
   36.9925  -23.8487   10.0863 C   0  0  1  0  0  0  0  0  0  0  0  0
   38.4103  -23.3212    9.9907 C   0  0  0  0  0  0  0  0  0  0  0  0
   39.2011  -23.6955   11.1986 C   0  0  0  0  0  0  0  0  0  0  0  0
   40.5757  -23.1410   11.1898 C   0  0  0  0  0  0  0  0  0  0  0  0
   41.4566  -23.4118   12.3530 C   0  0  0  0  0  0  0  0  0  0  0  0
   42.7270  -22.7411   12.3434 N   0  0  0  0  0  0  0  0  0  0  0  0
   36.3318  -23.2776   11.3189 C   0  0  0  0  0  0  0  0  0  0  0  0
   36.0813  -24.0614   12.4364 O   0  0  0  0  0  0  0  0  0  0  0  0
   35.9892  -22.0802   11.3727 O   0  0  0  0  0  0  0  0  0  0  0  0
  1  2  1  0
  3  2  1  0
  4  5  1  0
  4  3  1  0
  5  1  1  0
  6  8  1  0
  5  6  1  1
  7  6  2  0
  9 15  1  0
  9  8  1  0
  9 10  1  1
 11 10  1  0
 12 11  1  0
 13 12  1  0
 14 13  1  0
 15 17  1  0
 16 15  2  0
 17 18  1  0
 18 24  1  0
 18 19  1  6
 20 19  1  0
 21 20  1  0
 22 21  1  0
 23 22  1  0
 24 25  1  0
 26 24  2  0
M  END
$$$$
