SGH.pdb
     RDKit          3D

 21 21  0  0  1  0  0  0  0  0999 V2000
   18.9761  -12.0784  -16.6460 O   0  0  0  0  0  0  0  0  0  0  0  0
   19.8394  -11.1358  -17.2232 C   0  0  0  0  0  0  0  0  0  0  0  0
   21.0033  -10.9138  -16.2563 C   0  0  2  0  0  0  0  0  0  0  0  0
   20.4356  -10.5001  -15.0051 N   0  0  0  0  0  0  0  0  0  0  0  0
   21.8815   -9.8725  -16.8508 C   0  0  0  0  0  0  0  0  0  0  0  0
   22.6848  -10.2086  -17.7585 O   0  0  0  0  0  0  0  0  0  0  0  0
   21.7739   -8.5393  -16.3654 N   0  0  0  0  0  0  0  0  0  0  0  0
   22.7031   -7.5372  -16.7872 C   0  0  0  0  0  0  0  0  0  0  0  0
   22.4966   -6.2377  -16.0915 C   0  0  0  0  0  0  0  0  0  0  0  0
   23.2005   -5.2465  -16.4102 O   0  0  0  0  0  0  0  0  0  0  0  0
   21.5288   -6.0598  -15.0698 N   0  0  0  0  0  0  0  0  0  0  0  0
   21.0942   -4.7575  -14.6025 C   0  0  1  0  0  0  0  0  0  0  0  0
   19.5948   -4.6887  -14.4184 C   0  0  0  0  0  0  0  0  0  0  0  0
   18.8978   -4.8198  -15.7197 C   0  0  0  0  0  0  0  0  0  0  0  0
   19.2082   -4.2336  -16.9260 C   0  0  0  0  0  0  0  0  0  0  0  0
   18.2942   -4.6380  -17.8456 N   0  0  0  0  0  0  0  0  0  0  0  0
   17.4219   -5.4668  -17.2248 C   0  0  0  0  0  0  0  0  0  0  0  0
   17.8045   -5.5657  -15.9325 N   0  0  0  0  0  0  0  0  0  0  0  0
   21.8340   -4.3257  -13.4181 C   0  0  0  0  0  0  0  0  0  0  0  0
   22.6595   -5.0669  -12.8300 O   0  0  0  0  0  0  0  0  0  0  0  0
   21.6312   -3.0538  -12.9089 O   0  0  0  0  0  0  0  0  0  0  0  0
  2  1  1  0
  3  2  1  0
  3  4  1  1
  5  7  1  0
  5  3  1  0
  6  5  2  0
  8  9  1  0
  8  7  1  0
  9 11  1  0
 10  9  2  0
 11 12  1  0
 12 13  1  1
 13 14  1  0
 14 18  1  0
 15 14  2  0
 15 16  1  0
 16 17  1  0
 18 17  2  0
 19 12  1  0
 19 21  1  0
 20 19  2  0
M  END
$$$$
