SGH.pdb
     RDKit          3D

 21 21  0  0  1  0  0  0  0  0999 V2000
   22.3013  -15.9823  -17.1368 O   0  0  0  0  0  0  0  0  0  0  0  0
   23.4801  -16.7234  -16.9682 C   0  0  0  0  0  0  0  0  0  0  0  0
   24.5591  -16.0927  -17.8496 C   0  0  2  0  0  0  0  0  0  0  0  0
   23.9274  -15.7188  -19.0825 N   0  0  0  0  0  0  0  0  0  0  0  0
   25.6232  -17.1116  -18.0456 C   0  0  0  0  0  0  0  0  0  0  0  0
   25.4423  -18.0143  -18.9027 O   0  0  0  0  0  0  0  0  0  0  0  0
   26.8015  -17.0200  -17.2532 N   0  0  0  0  0  0  0  0  0  0  0  0
   27.7802  -18.0624  -17.2863 C   0  0  0  0  0  0  0  0  0  0  0  0
   27.7593  -18.9046  -16.0593 C   0  0  0  0  0  0  0  0  0  0  0  0
   28.4484  -19.9549  -16.0179 O   0  0  0  0  0  0  0  0  0  0  0  0
   26.9876  -18.5751  -14.9156 N   0  0  0  0  0  0  0  0  0  0  0  0
   26.8057  -19.4733  -13.7916 C   0  0  1  0  0  0  0  0  0  0  0  0
   26.3143  -18.7505  -12.5575 C   0  0  0  0  0  0  0  0  0  0  0  0
   26.0621  -19.7059  -11.4530 C   0  0  0  0  0  0  0  0  0  0  0  0
   26.9486  -20.5535  -10.8279 C   0  0  0  0  0  0  0  0  0  0  0  0
   26.2766  -21.2454   -9.8716 N   0  0  0  0  0  0  0  0  0  0  0  0
   24.9857  -20.8374   -9.8962 C   0  0  0  0  0  0  0  0  0  0  0  0
   24.8737  -19.9009  -10.8641 N   0  0  0  0  0  0  0  0  0  0  0  0
   25.9813  -20.6284  -14.1416 C   0  0  0  0  0  0  0  0  0  0  0  0
   24.9391  -20.5292  -14.8348 O   0  0  0  0  0  0  0  0  0  0  0  0
   26.3462  -21.8899  -13.7014 O   0  0  0  0  0  0  0  0  0  0  0  0
  2  1  1  0
  3  2  1  0
  3  4  1  6
  5  7  1  0
  5  3  1  0
  6  5  2  0
  8  9  1  0
  8  7  1  0
  9 11  1  0
 10  9  2  0
 11 12  1  0
 12 13  1  1
 13 14  1  0
 14 18  1  0
 15 14  2  0
 15 16  1  0
 16 17  1  0
 18 17  2  0
 19 12  1  0
 19 21  1  0
 20 19  2  0
M  END
$$$$
