SGH.pdb
     RDKit          3D

 21 21  0  0  1  0  0  0  0  0999 V2000
   20.5516  -17.4037  -14.9575 O   0  0  0  0  0  0  0  0  0  0  0  0
   19.8753  -18.4472  -14.3091 C   0  0  0  0  0  0  0  0  0  0  0  0
   20.7049  -19.7204  -14.4813 C   0  0  2  0  0  0  0  0  0  0  0  0
   20.3456  -20.2865  -15.7499 N   0  0  0  0  0  0  0  0  0  0  0  0
   20.3754  -20.6215  -13.3462 C   0  0  0  0  0  0  0  0  0  0  0  0
   19.7634  -20.1443  -12.3564 O   0  0  0  0  0  0  0  0  0  0  0  0
   20.7681  -21.9866  -13.4303 N   0  0  0  0  0  0  0  0  0  0  0  0
   20.5212  -22.8802  -12.3412 C   0  0  0  0  0  0  0  0  0  0  0  0
   21.0442  -24.2501  -12.5966 C   0  0  0  0  0  0  0  0  0  0  0  0
   20.8682  -25.1499  -11.7370 O   0  0  0  0  0  0  0  0  0  0  0  0
   21.7430  -24.5960  -13.7816 N   0  0  0  0  0  0  0  0  0  0  0  0
   22.1633  -25.9488  -14.0924 C   0  0  1  0  0  0  0  0  0  0  0  0
   21.0180  -26.9334  -14.0170 C   0  0  0  0  0  0  0  0  0  0  0  0
   20.9476  -27.5578  -12.6749 C   0  0  0  0  0  0  0  0  0  0  0  0
   21.2124  -26.9936  -11.4474 C   0  0  0  0  0  0  0  0  0  0  0  0
   21.0172  -27.9386  -10.4916 N   0  0  0  0  0  0  0  0  0  0  0  0
   20.6350  -29.0804  -11.1108 C   0  0  0  0  0  0  0  0  0  0  0  0
   20.5981  -28.8302  -12.4383 N   0  0  0  0  0  0  0  0  0  0  0  0
   22.8926  -26.0187  -15.3572 C   0  0  0  0  0  0  0  0  0  0  0  0
   22.5153  -25.4106  -16.3889 O   0  0  0  0  0  0  0  0  0  0  0  0
   24.0467  -26.7796  -15.4420 O   0  0  0  0  0  0  0  0  0  0  0  0
  2  1  1  0
  3  2  1  0
  3  4  1  6
  5  7  1  0
  5  3  1  0
  6  5  2  0
  8  9  1  0
  8  7  1  0
  9 11  1  0
 10  9  2  0
 11 12  1  0
 12 13  1  6
 13 14  1  0
 14 18  1  0
 15 14  2  0
 15 16  1  0
 16 17  1  0
 18 17  2  0
 19 12  1  0
 19 21  1  0
 20 19  2  0
M  END
$$$$
