SGH.pdb
     RDKit          3D

 21 21  0  0  1  0  0  0  0  0999 V2000
   30.4364  -21.3862  -19.6566 O   0  0  0  0  0  0  0  0  0  0  0  0
   30.6264  -22.6593  -19.0996 C   0  0  0  0  0  0  0  0  0  0  0  0
   29.3545  -23.0298  -18.3353 C   0  0  2  0  0  0  0  0  0  0  0  0
   28.2800  -23.0327  -19.2862 N   0  0  0  0  0  0  0  0  0  0  0  0
   29.1645  -22.0109  -17.2701 C   0  0  0  0  0  0  0  0  0  0  0  0
   29.8579  -22.0965  -16.2242 O   0  0  0  0  0  0  0  0  0  0  0  0
   28.2045  -20.9822  -17.4817 N   0  0  0  0  0  0  0  0  0  0  0  0
   27.9519  -20.0066  -16.4669 C   0  0  0  0  0  0  0  0  0  0  0  0
   27.0083  -20.4968  -15.4254 C   0  0  0  0  0  0  0  0  0  0  0  0
   26.1889  -21.4058  -15.7114 O   0  0  0  0  0  0  0  0  0  0  0  0
   26.9879  -19.9804  -14.1044 N   0  0  0  0  0  0  0  0  0  0  0  0
   26.0356  -20.4069  -13.0971 C   0  0  1  0  0  0  0  0  0  0  0  0
   26.3939  -19.8944  -11.7202 C   0  0  0  0  0  0  0  0  0  0  0  0
   25.3928  -20.3313  -10.7186 C   0  0  0  0  0  0  0  0  0  0  0  0
   25.4909  -21.3385   -9.7853 C   0  0  0  0  0  0  0  0  0  0  0  0
   24.3312  -21.3819   -9.0797 N   0  0  0  0  0  0  0  0  0  0  0  0
   23.5163  -20.4150   -9.5636 C   0  0  0  0  0  0  0  0  0  0  0  0
   24.1784  -19.7862  -10.5598 N   0  0  0  0  0  0  0  0  0  0  0  0
   24.6590  -20.0986  -13.4795 C   0  0  0  0  0  0  0  0  0  0  0  0
   24.3441  -19.0369  -14.0713 O   0  0  0  0  0  0  0  0  0  0  0  0
   23.6481  -20.9990  -13.1871 O   0  0  0  0  0  0  0  0  0  0  0  0
  2  1  1  0
  3  2  1  0
  3  4  1  6
  5  7  1  0
  5  3  1  0
  6  5  2  0
  8  9  1  0
  8  7  1  0
  9 11  1  0
 10  9  2  0
 11 12  1  0
 12 13  1  1
 13 14  1  0
 14 18  1  0
 15 14  2  0
 15 16  1  0
 16 17  1  0
 18 17  2  0
 19 12  1  0
 19 21  1  0
 20 19  2  0
M  END
$$$$
