SGH.pdb
     RDKit          3D

 21 21  0  0  1  0  0  0  0  0999 V2000
   19.8273  -11.1129  -17.9022 O   0  0  0  0  0  0  0  0  0  0  0  0
   19.9975   -9.9295  -18.6354 C   0  0  0  0  0  0  0  0  0  0  0  0
   19.1767   -8.8343  -17.9527 C   0  0  2  0  0  0  0  0  0  0  0  0
   19.3064   -7.6518  -18.7549 N   0  0  0  0  0  0  0  0  0  0  0  0
   19.7293   -8.6534  -16.5849 C   0  0  0  0  0  0  0  0  0  0  0  0
   19.4301   -9.4940  -15.6983 O   0  0  0  0  0  0  0  0  0  0  0  0
   20.5738   -7.5349  -16.3392 N   0  0  0  0  0  0  0  0  0  0  0  0
   21.1406   -7.3255  -15.0428 C   0  0  0  0  0  0  0  0  0  0  0  0
   22.5710   -7.7306  -14.9726 C   0  0  0  0  0  0  0  0  0  0  0  0
   23.1130   -7.8957  -13.8508 O   0  0  0  0  0  0  0  0  0  0  0  0
   23.3659   -7.9430  -16.1282 N   0  0  0  0  0  0  0  0  0  0  0  0
   24.6705   -8.5754  -16.0923 C   0  0  1  0  0  0  0  0  0  0  0  0
   24.5977  -10.0064  -15.6089 C   0  0  0  0  0  0  0  0  0  0  0  0
   25.9081  -10.6815  -15.7619 C   0  0  0  0  0  0  0  0  0  0  0  0
   27.1439  -10.1210  -15.9938 C   0  0  0  0  0  0  0  0  0  0  0  0
   28.0607  -11.1208  -16.0623 N   0  0  0  0  0  0  0  0  0  0  0  0
   27.4090  -12.2929  -15.8758 C   0  0  0  0  0  0  0  0  0  0  0  0
   26.1008  -12.0064  -15.6947 N   0  0  0  0  0  0  0  0  0  0  0  0
   25.3806   -8.4385  -17.3625 C   0  0  0  0  0  0  0  0  0  0  0  0
   26.6047   -8.1666  -17.4261 O   0  0  0  0  0  0  0  0  0  0  0  0
   24.6949   -8.6114  -18.5534 O   0  0  0  0  0  0  0  0  0  0  0  0
  2  1  1  0
  3  2  1  0
  3  4  1  6
  5  7  1  0
  5  3  1  0
  6  5  2  0
  8  9  1  0
  8  7  1  0
  9 11  1  0
 10  9  2  0
 11 12  1  0
 12 13  1  6
 13 14  1  0
 14 18  1  0
 15 14  2  0
 15 16  1  0
 16 17  1  0
 18 17  2  0
 19 12  1  0
 19 21  1  0
 20 19  2  0
M  END
$$$$
