SGH.pdb
     RDKit          3D

 21 21  0  0  1  0  0  0  0  0999 V2000
   29.4719  -12.7211  -16.8521 O   0  0  0  0  0  0  0  0  0  0  0  0
   28.9454  -11.4267  -16.7328 C   0  0  0  0  0  0  0  0  0  0  0  0
   28.8764  -10.8189  -18.1346 C   0  0  2  0  0  0  0  0  0  0  0  0
   30.2169  -10.7910  -18.6457 N   0  0  0  0  0  0  0  0  0  0  0  0
   28.2940   -9.4582  -17.9999 C   0  0  0  0  0  0  0  0  0  0  0  0
   29.0685   -8.4895  -17.7903 O   0  0  0  0  0  0  0  0  0  0  0  0
   26.8832   -9.3120  -18.1144 N   0  0  0  0  0  0  0  0  0  0  0  0
   26.2862   -8.0123  -18.1064 C   0  0  0  0  0  0  0  0  0  0  0  0
   24.7993   -8.0666  -18.1439 C   0  0  0  0  0  0  0  0  0  0  0  0
   24.2229   -8.5481  -19.1516 O   0  0  0  0  0  0  0  0  0  0  0  0
   23.9873   -7.5940  -17.0811 N   0  0  0  0  0  0  0  0  0  0  0  0
   22.5588   -7.8322  -17.0036 C   0  0  1  0  0  0  0  0  0  0  0  0
   22.2278   -9.3072  -16.9633 C   0  0  0  0  0  0  0  0  0  0  0  0
   22.6341   -9.9031  -15.6687 C   0  0  0  0  0  0  0  0  0  0  0  0
   23.8531  -10.4318  -15.3086 C   0  0  0  0  0  0  0  0  0  0  0  0
   23.7690  -10.8634  -14.0235 N   0  0  0  0  0  0  0  0  0  0  0  0
   22.5141  -10.6090  -13.5831 C   0  0  0  0  0  0  0  0  0  0  0  0
   21.8380  -10.0249  -14.5970 N   0  0  0  0  0  0  0  0  0  0  0  0
   21.9362   -7.0787  -15.9168 C   0  0  0  0  0  0  0  0  0  0  0  0
   22.6059   -6.4970  -15.0281 O   0  0  0  0  0  0  0  0  0  0  0  0
   20.5558   -6.9907  -15.8464 O   0  0  0  0  0  0  0  0  0  0  0  0
  2  1  1  0
  3  2  1  0
  3  4  1  1
  5  7  1  0
  5  3  1  0
  6  5  2  0
  8  9  1  0
  8  7  1  0
  9 11  1  0
 10  9  2  0
 11 12  1  0
 12 13  1  1
 13 14  1  0
 14 18  1  0
 15 14  2  0
 15 16  1  0
 16 17  1  0
 18 17  2  0
 19 12  1  0
 19 21  1  0
 20 19  2  0
M  END
$$$$
