SGH.pdb
     RDKit          3D

 21 21  0  0  1  0  0  0  0  0999 V2000
   28.8337   -7.9277  -20.2594 O   0  0  0  0  0  0  0  0  0  0  0  0
   27.8778   -6.9104  -20.3955 C   0  0  0  0  0  0  0  0  0  0  0  0
   26.5030   -7.5204  -20.1179 C   0  0  2  0  0  0  0  0  0  0  0  0
   26.2892   -8.5388  -21.1058 N   0  0  0  0  0  0  0  0  0  0  0  0
   25.5042   -6.4237  -20.2108 C   0  0  0  0  0  0  0  0  0  0  0  0
   25.4591   -5.7378  -21.2642 O   0  0  0  0  0  0  0  0  0  0  0  0
   24.6420   -6.1983  -19.1015 N   0  0  0  0  0  0  0  0  0  0  0  0
   23.5958   -5.2266  -19.1824 C   0  0  0  0  0  0  0  0  0  0  0  0
   22.8302   -5.1045  -17.9118 C   0  0  0  0  0  0  0  0  0  0  0  0
   21.8992   -4.2643  -17.8286 O   0  0  0  0  0  0  0  0  0  0  0  0
   23.1037   -5.9028  -16.7716 N   0  0  0  0  0  0  0  0  0  0  0  0
   22.3255   -5.8391  -15.5494 C   0  0  1  0  0  0  0  0  0  0  0  0
   22.0860   -7.2083  -14.9537 C   0  0  0  0  0  0  0  0  0  0  0  0
   21.3025   -8.0570  -15.8822 C   0  0  0  0  0  0  0  0  0  0  0  0
   20.7596   -7.7246  -17.1028 C   0  0  0  0  0  0  0  0  0  0  0  0
   20.1251   -8.8176  -17.6003 N   0  0  0  0  0  0  0  0  0  0  0  0
   20.2678   -9.8223  -16.7040 C   0  0  0  0  0  0  0  0  0  0  0  0
   20.9866   -9.3417  -15.6654 N   0  0  0  0  0  0  0  0  0  0  0  0
   22.8889   -4.8910  -14.5902 C   0  0  0  0  0  0  0  0  0  0  0  0
   23.9410   -4.2446  -14.8180 O   0  0  0  0  0  0  0  0  0  0  0  0
   22.2531   -4.6830  -13.3775 O   0  0  0  0  0  0  0  0  0  0  0  0
  2  1  1  0
  3  2  1  0
  3  4  1  6
  5  7  1  0
  5  3  1  0
  6  5  2  0
  8  9  1  0
  8  7  1  0
  9 11  1  0
 10  9  2  0
 11 12  1  0
 12 13  1  1
 13 14  1  0
 14 18  1  0
 15 14  2  0
 15 16  1  0
 16 17  1  0
 18 17  2  0
 19 12  1  0
 19 21  1  0
 20 19  2  0
M  END
$$$$
