SGH.pdb
     RDKit          3D

 21 21  0  0  1  0  0  0  0  0999 V2000
   33.0162  -10.9664  -21.2073 O   0  0  0  0  0  0  0  0  0  0  0  0
   32.1957  -11.5516  -22.1827 C   0  0  0  0  0  0  0  0  0  0  0  0
   31.5591  -12.8002  -21.5704 C   0  0  2  0  0  0  0  0  0  0  0  0
   32.6251  -13.7170  -21.2846 N   0  0  0  0  0  0  0  0  0  0  0  0
   30.5985  -13.3423  -22.5666 C   0  0  0  0  0  0  0  0  0  0  0  0
   30.8943  -13.2745  -23.7873 O   0  0  0  0  0  0  0  0  0  0  0  0
   29.3848  -13.9150  -22.0937 N   0  0  0  0  0  0  0  0  0  0  0  0
   28.4243  -14.4401  -23.0141 C   0  0  0  0  0  0  0  0  0  0  0  0
   27.2294  -15.0069  -22.3313 C   0  0  0  0  0  0  0  0  0  0  0  0
   26.2823  -15.4642  -23.0194 O   0  0  0  0  0  0  0  0  0  0  0  0
   27.1046  -15.0572  -20.9192 N   0  0  0  0  0  0  0  0  0  0  0  0
   25.8961  -15.4851  -20.2411 C   0  0  1  0  0  0  0  0  0  0  0  0
   26.1683  -15.9459  -18.8267 C   0  0  0  0  0  0  0  0  0  0  0  0
   27.0579  -17.1312  -18.8209 C   0  0  0  0  0  0  0  0  0  0  0  0
   27.5884  -17.8153  -19.8913 C   0  0  0  0  0  0  0  0  0  0  0  0
   28.3466  -18.8357  -19.4131 N   0  0  0  0  0  0  0  0  0  0  0  0
   28.2926  -18.7925  -18.0609 C   0  0  0  0  0  0  0  0  0  0  0  0
   27.5044  -17.7496  -17.7185 N   0  0  0  0  0  0  0  0  0  0  0  0
   24.8389  -14.4788  -20.3190 C   0  0  0  0  0  0  0  0  0  0  0  0
   25.0667  -13.2495  -20.2030 O   0  0  0  0  0  0  0  0  0  0  0  0
   23.5286  -14.8756  -20.5282 O   0  0  0  0  0  0  0  0  0  0  0  0
  2  1  1  0
  3  2  1  0
  3  4  1  6
  5  7  1  0
  5  3  1  0
  6  5  2  0
  8  9  1  0
  8  7  1  0
  9 11  1  0
 10  9  2  0
 11 12  1  0
 12 13  1  1
 13 14  1  0
 14 18  1  0
 15 14  2  0
 15 16  1  0
 16 17  1  0
 18 17  2  0
 19 12  1  0
 19 21  1  0
 20 19  2  0
M  END
$$$$
