SGH.pdb
     RDKit          3D

 21 21  0  0  1  0  0  0  0  0999 V2000
   22.5551  -13.0641  -19.6380 O   0  0  0  0  0  0  0  0  0  0  0  0
   23.1134  -11.7895  -19.4625 C   0  0  0  0  0  0  0  0  0  0  0  0
   21.9666  -10.8042  -19.2325 C   0  0  2  0  0  0  0  0  0  0  0  0
   21.1467  -10.8334  -20.4097 N   0  0  0  0  0  0  0  0  0  0  0  0
   22.5711   -9.4670  -18.9973 C   0  0  0  0  0  0  0  0  0  0  0  0
   22.7908   -8.7227  -19.9872 O   0  0  0  0  0  0  0  0  0  0  0  0
   22.8748   -9.0879  -17.6599 N   0  0  0  0  0  0  0  0  0  0  0  0
   23.3858   -7.7828  -17.3747 C   0  0  0  0  0  0  0  0  0  0  0  0
   22.4046   -6.9315  -16.6482 C   0  0  0  0  0  0  0  0  0  0  0  0
   21.2987   -6.6673  -17.1836 O   0  0  0  0  0  0  0  0  0  0  0  0
   22.6602   -6.3948  -15.3602 N   0  0  0  0  0  0  0  0  0  0  0  0
   21.7300   -5.5317  -14.6580 C   0  0  1  0  0  0  0  0  0  0  0  0
   21.4240   -6.0359  -13.2655 C   0  0  0  0  0  0  0  0  0  0  0  0
   20.6037   -7.2690  -13.3202 C   0  0  0  0  0  0  0  0  0  0  0  0
   20.1642   -7.9629  -14.4250 C   0  0  0  0  0  0  0  0  0  0  0  0
   19.4431   -9.0322  -13.9991 N   0  0  0  0  0  0  0  0  0  0  0  0
   19.4302   -9.0096  -12.6454 C   0  0  0  0  0  0  0  0  0  0  0  0
   20.1410   -7.9304  -12.2499 N   0  0  0  0  0  0  0  0  0  0  0  0
   22.1586   -4.1344  -14.6767 C   0  0  0  0  0  0  0  0  0  0  0  0
   21.4514   -3.2048  -14.2160 O   0  0  0  0  0  0  0  0  0  0  0  0
   23.3888   -3.8018  -15.2190 O   0  0  0  0  0  0  0  0  0  0  0  0
  2  1  1  0
  3  2  1  0
  3  4  1  6
  5  7  1  0
  5  3  1  0
  6  5  2  0
  8  9  1  0
  8  7  1  0
  9 11  1  0
 10  9  2  0
 11 12  1  0
 12 13  1  1
 13 14  1  0
 14 18  1  0
 15 14  2  0
 15 16  1  0
 16 17  1  0
 18 17  2  0
 19 12  1  0
 19 21  1  0
 20 19  2  0
M  END
$$$$
