SGH.pdb
     RDKit          3D

 21 21  0  0  1  0  0  0  0  0999 V2000
   16.6343  -13.9287  -16.9491 O   0  0  0  0  0  0  0  0  0  0  0  0
   16.2598  -12.6997  -16.3866 C   0  0  0  0  0  0  0  0  0  0  0  0
   17.4562  -11.7529  -16.4930 C   0  0  2  0  0  0  0  0  0  0  0  0
   18.6055  -12.4760  -16.0293 N   0  0  0  0  0  0  0  0  0  0  0  0
   17.1578  -10.5649  -15.6512 C   0  0  0  0  0  0  0  0  0  0  0  0
   17.0192  -10.7248  -14.4113 O   0  0  0  0  0  0  0  0  0  0  0  0
   17.0421   -9.2972  -16.2870 N   0  0  0  0  0  0  0  0  0  0  0  0
   16.6925   -8.1356  -15.5295 C   0  0  0  0  0  0  0  0  0  0  0  0
   17.8839   -7.4275  -14.9869 C   0  0  0  0  0  0  0  0  0  0  0  0
   17.7434   -6.2967  -14.4567 O   0  0  0  0  0  0  0  0  0  0  0  0
   19.1915   -7.9749  -15.0395 N   0  0  0  0  0  0  0  0  0  0  0  0
   20.3445   -7.3436  -14.4267 C   0  0  1  0  0  0  0  0  0  0  0  0
   21.1780   -8.3251  -13.6338 C   0  0  0  0  0  0  0  0  0  0  0  0
   21.9732   -9.1906  -14.5365 C   0  0  0  0  0  0  0  0  0  0  0  0
   22.0491   -9.1625  -15.9107 C   0  0  0  0  0  0  0  0  0  0  0  0
   22.9026  -10.1400  -16.3118 N   0  0  0  0  0  0  0  0  0  0  0  0
   23.3562  -10.7730  -15.2042 C   0  0  0  0  0  0  0  0  0  0  0  0
   22.7804  -10.1823  -14.1338 N   0  0  0  0  0  0  0  0  0  0  0  0
   21.1300   -6.5806  -15.3947 C   0  0  0  0  0  0  0  0  0  0  0  0
   20.9729   -6.6985  -16.6349 O   0  0  0  0  0  0  0  0  0  0  0  0
   22.0899   -5.6880  -14.9475 O   0  0  0  0  0  0  0  0  0  0  0  0
  2  1  1  0
  3  2  1  0
  3  4  1  1
  5  7  1  0
  5  3  1  0
  6  5  2  0
  8  9  1  0
  8  7  1  0
  9 11  1  0
 10  9  2  0
 11 12  1  0
 12 13  1  6
 13 14  1  0
 14 18  1  0
 15 14  2  0
 15 16  1  0
 16 17  1  0
 18 17  2  0
 19 12  1  0
 19 21  1  0
 20 19  2  0
M  END
$$$$
