SGH.pdb
     RDKit          3D

 21 21  0  0  1  0  0  0  0  0999 V2000
   23.9151   -8.6250  -15.3232 O   0  0  0  0  0  0  0  0  0  0  0  0
   23.8605   -9.9888  -15.0006 C   0  0  0  0  0  0  0  0  0  0  0  0
   22.4323  -10.4728  -15.2555 C   0  0  2  0  0  0  0  0  0  0  0  0
   22.1468  -10.2257  -16.6398 N   0  0  0  0  0  0  0  0  0  0  0  0
   21.5365   -9.7090  -14.3482 C   0  0  0  0  0  0  0  0  0  0  0  0
   21.6704   -9.8555  -13.1061 O   0  0  0  0  0  0  0  0  0  0  0  0
   20.5655   -8.8445  -14.9266 N   0  0  0  0  0  0  0  0  0  0  0  0
   19.7398   -8.0234  -14.0963 C   0  0  0  0  0  0  0  0  0  0  0  0
   18.7809   -7.1990  -14.8812 C   0  0  0  0  0  0  0  0  0  0  0  0
   18.9711   -7.0330  -16.1124 O   0  0  0  0  0  0  0  0  0  0  0  0
   17.6444   -6.5813  -14.2990 N   0  0  0  0  0  0  0  0  0  0  0  0
   16.6569   -5.8463  -15.0657 C   0  0  1  0  0  0  0  0  0  0  0  0
   15.2434   -6.1823  -14.6463 C   0  0  0  0  0  0  0  0  0  0  0  0
   14.9291   -7.6000  -14.9421 C   0  0  0  0  0  0  0  0  0  0  0  0
   15.0504   -8.2787  -16.1337 C   0  0  0  0  0  0  0  0  0  0  0  0
   14.6464   -9.5607  -15.9385 N   0  0  0  0  0  0  0  0  0  0  0  0
   14.2766   -9.6848  -14.6419 C   0  0  0  0  0  0  0  0  0  0  0  0
   14.4551   -8.4826  -14.0512 N   0  0  0  0  0  0  0  0  0  0  0  0
   16.9242   -4.4093  -15.0681 C   0  0  0  0  0  0  0  0  0  0  0  0
   16.3336   -3.6137  -15.8393 O   0  0  0  0  0  0  0  0  0  0  0  0
   17.8615   -3.8848  -14.1937 O   0  0  0  0  0  0  0  0  0  0  0  0
  2  1  1  0
  3  2  1  0
  3  4  1  6
  5  7  1  0
  5  3  1  0
  6  5  2  0
  8  9  1  0
  8  7  1  0
  9 11  1  0
 10  9  2  0
 11 12  1  0
 12 13  1  1
 13 14  1  0
 14 18  1  0
 15 14  2  0
 15 16  1  0
 16 17  1  0
 18 17  2  0
 19 12  1  0
 19 21  1  0
 20 19  2  0
M  END
$$$$
