SGH.pdb
     RDKit          3D

 21 21  0  0  1  0  0  0  0  0999 V2000
   28.0388  -11.6321  -19.6786 O   0  0  0  0  0  0  0  0  0  0  0  0
   28.7805  -10.8391  -18.7908 C   0  0  0  0  0  0  0  0  0  0  0  0
   28.1727  -11.0038  -17.3971 C   0  0  2  0  0  0  0  0  0  0  0  0
   27.1979  -12.0529  -17.4864 N   0  0  0  0  0  0  0  0  0  0  0  0
   27.5674   -9.6998  -17.0202 C   0  0  0  0  0  0  0  0  0  0  0  0
   28.3305   -8.7379  -16.7475 O   0  0  0  0  0  0  0  0  0  0  0  0
   26.1485   -9.5979  -16.9846 N   0  0  0  0  0  0  0  0  0  0  0  0
   25.5193   -8.3676  -16.6158 C   0  0  0  0  0  0  0  0  0  0  0  0
   24.0362   -8.4294  -16.7252 C   0  0  0  0  0  0  0  0  0  0  0  0
   23.5118   -9.0380  -17.6917 O   0  0  0  0  0  0  0  0  0  0  0  0
   23.1712   -7.8255  -15.7769 N   0  0  0  0  0  0  0  0  0  0  0  0
   21.7898   -8.2258  -15.5905 C   0  0  1  0  0  0  0  0  0  0  0  0
   21.6487   -9.7205  -15.4090 C   0  0  0  0  0  0  0  0  0  0  0  0
   20.2204  -10.1109  -15.3458 C   0  0  0  0  0  0  0  0  0  0  0  0
   19.1816   -9.7117  -16.1561 C   0  0  0  0  0  0  0  0  0  0  0  0
   18.0466  -10.3230  -15.7284 N   0  0  0  0  0  0  0  0  0  0  0  0
   18.3688  -11.0955  -14.6641 C   0  0  0  0  0  0  0  0  0  0  0  0
   19.6949  -10.9541  -14.4458 N   0  0  0  0  0  0  0  0  0  0  0  0
   21.1354   -7.4591  -14.5321 C   0  0  0  0  0  0  0  0  0  0  0  0
   21.7794   -6.8107  -13.6710 O   0  0  0  0  0  0  0  0  0  0  0  0
   19.7526   -7.4337  -14.4585 O   0  0  0  0  0  0  0  0  0  0  0  0
  2  1  1  0
  3  2  1  0
  3  4  1  6
  5  7  1  0
  5  3  1  0
  6  5  2  0
  8  9  1  0
  8  7  1  0
  9 11  1  0
 10  9  2  0
 11 12  1  0
 12 13  1  1
 13 14  1  0
 14 18  1  0
 15 14  2  0
 15 16  1  0
 16 17  1  0
 18 17  2  0
 19 12  1  0
 19 21  1  0
 20 19  2  0
M  END
$$$$
