SGH.pdb
     RDKit          3D

 21 21  0  0  1  0  0  0  0  0999 V2000
   18.2960   -8.9597  -17.2594 O   0  0  0  0  0  0  0  0  0  0  0  0
   18.0413   -9.5676  -18.4974 C   0  0  0  0  0  0  0  0  0  0  0  0
   19.2177   -9.2543  -19.4231 C   0  0  2  0  0  0  0  0  0  0  0  0
   20.3698   -9.9092  -18.8730 N   0  0  0  0  0  0  0  0  0  0  0  0
   19.3713   -7.7765  -19.4605 C   0  0  0  0  0  0  0  0  0  0  0  0
   18.4258   -7.0841  -19.9176 O   0  0  0  0  0  0  0  0  0  0  0  0
   20.5835   -7.2100  -18.9766 N   0  0  0  0  0  0  0  0  0  0  0  0
   20.7089   -5.7942  -18.8167 C   0  0  0  0  0  0  0  0  0  0  0  0
   20.4621   -5.3535  -17.4166 C   0  0  0  0  0  0  0  0  0  0  0  0
   19.2808   -5.2394  -17.0029 O   0  0  0  0  0  0  0  0  0  0  0  0
   21.5114   -5.0510  -16.5113 N   0  0  0  0  0  0  0  0  0  0  0  0
   21.2873   -4.6833  -15.1264 C   0  0  1  0  0  0  0  0  0  0  0  0
   22.1260   -5.5067  -14.1748 C   0  0  0  0  0  0  0  0  0  0  0  0
   21.7741   -6.9431  -14.2703 C   0  0  0  0  0  0  0  0  0  0  0  0
   20.7990   -7.5420  -15.0356 C   0  0  0  0  0  0  0  0  0  0  0  0
   20.8363   -8.8800  -14.8050 N   0  0  0  0  0  0  0  0  0  0  0  0
   21.8215   -9.1175  -13.9071 C   0  0  0  0  0  0  0  0  0  0  0  0
   22.3810   -7.9281  -13.5931 N   0  0  0  0  0  0  0  0  0  0  0  0
   21.4292   -3.2445  -14.9120 C   0  0  0  0  0  0  0  0  0  0  0  0
   21.2121   -2.7026  -13.8003 O   0  0  0  0  0  0  0  0  0  0  0  0
   21.8170   -2.4297  -15.9626 O   0  0  0  0  0  0  0  0  0  0  0  0
  2  1  1  0
  3  2  1  0
  3  4  1  1
  5  7  1  0
  5  3  1  0
  6  5  2  0
  8  9  1  0
  8  7  1  0
  9 11  1  0
 10  9  2  0
 11 12  1  0
 12 13  1  1
 13 14  1  0
 14 18  1  0
 15 14  2  0
 15 16  1  0
 16 17  1  0
 18 17  2  0
 19 12  1  0
 19 21  1  0
 20 19  2  0
M  END
$$$$
