SGH.pdb
     RDKit          3D

 21 21  0  0  1  0  0  0  0  0999 V2000
   23.8810  -16.9108  -18.0109 O   0  0  0  0  0  0  0  0  0  0  0  0
   24.4018  -17.4931  -19.1757 C   0  0  0  0  0  0  0  0  0  0  0  0
   25.2373  -18.7046  -18.7594 C   0  0  2  0  0  0  0  0  0  0  0  0
   24.3717  -19.5756  -18.0170 N   0  0  0  0  0  0  0  0  0  0  0  0
   26.3709  -18.2014  -17.9405 C   0  0  0  0  0  0  0  0  0  0  0  0
   27.3424  -17.6580  -18.5262 O   0  0  0  0  0  0  0  0  0  0  0  0
   26.3063  -18.3574  -16.5277 N   0  0  0  0  0  0  0  0  0  0  0  0
   27.4512  -18.0843  -15.7152 C   0  0  0  0  0  0  0  0  0  0  0  0
   27.3457  -18.6872  -14.3585 C   0  0  0  0  0  0  0  0  0  0  0  0
   28.3432  -18.6692  -13.5941 O   0  0  0  0  0  0  0  0  0  0  0  0
   26.1555  -19.2910  -13.8776 N   0  0  0  0  0  0  0  0  0  0  0  0
   26.0270  -19.8472  -12.5444 C   0  0  1  0  0  0  0  0  0  0  0  0
   24.5995  -19.8110  -12.0465 C   0  0  0  0  0  0  0  0  0  0  0  0
   24.4999  -20.3985  -10.6896 C   0  0  0  0  0  0  0  0  0  0  0  0
   25.4722  -20.4967   -9.7200 C   0  0  0  0  0  0  0  0  0  0  0  0
   24.9326  -21.1086   -8.6340 N   0  0  0  0  0  0  0  0  0  0  0  0
   23.6392  -21.3905   -8.9183 C   0  0  0  0  0  0  0  0  0  0  0  0
   23.3936  -20.9516  -10.1726 N   0  0  0  0  0  0  0  0  0  0  0  0
   26.6321  -21.1739  -12.4439 C   0  0  0  0  0  0  0  0  0  0  0  0
   26.6911  -21.9648  -13.4173 O   0  0  0  0  0  0  0  0  0  0  0  0
   27.1667  -21.5940  -11.2373 O   0  0  0  0  0  0  0  0  0  0  0  0
  2  1  1  0
  3  2  1  0
  3  4  1  1
  5  7  1  0
  5  3  1  0
  6  5  2  0
  8  9  1  0
  8  7  1  0
  9 11  1  0
 10  9  2  0
 11 12  1  0
 12 13  1  6
 13 14  1  0
 14 18  1  0
 15 14  2  0
 15 16  1  0
 16 17  1  0
 18 17  2  0
 19 12  1  0
 19 21  1  0
 20 19  2  0
M  END
$$$$
