QGK.pdb
     RDKit          3D

 23 22  0  0  1  0  0  0  0  0999 V2000
    6.4654  -13.2395   16.7979 N   0  0  0  0  0  0  0  0  0  0  0  0
    7.7672  -13.4945   16.2521 C   0  0  0  0  0  0  0  0  0  0  0  0
    7.9241  -13.6765   15.0210 O   0  0  0  0  0  0  0  0  0  0  0  0
    8.9554  -13.5481   17.1326 C   0  0  0  0  0  0  0  0  0  0  0  0
    8.5217  -13.4218   18.5532 C   0  0  0  0  0  0  0  0  0  0  0  0
    9.6651  -13.4227   19.5302 C   0  0  2  0  0  0  0  0  0  0  0  0
   10.9431  -13.2984   18.8443 N   0  0  0  0  0  0  0  0  0  0  0  0
    9.7156  -14.6527   20.3525 C   0  0  0  0  0  0  0  0  0  0  0  0
    8.7657  -14.9802   21.1372 O   0  0  0  0  0  0  0  0  0  0  0  0
   10.8264  -15.5502   20.3217 N   0  0  0  0  0  0  0  0  0  0  0  0
   10.8800  -16.7603   21.0897 C   0  0  0  0  0  0  0  0  0  0  0  0
   11.3408  -16.5266   22.4817 C   0  0  0  0  0  0  0  0  0  0  0  0
   12.5359  -16.2181   22.7044 O   0  0  0  0  0  0  0  0  0  0  0  0
   10.4776  -16.6364   23.6062 N   0  0  0  0  0  0  0  0  0  0  0  0
   10.9817  -16.3844   24.9356 C   0  0  1  0  0  0  0  0  0  0  0  0
    9.9220  -15.7437   25.8490 C   0  0  0  0  0  0  0  0  0  0  0  0
   10.5786  -15.4303   27.1369 C   0  0  0  0  0  0  0  0  0  0  0  0
    9.7102  -14.8574   28.2015 C   0  0  0  0  0  0  0  0  0  0  0  0
   10.4429  -14.5476   29.4656 C   0  0  0  0  0  0  0  0  0  0  0  0
    9.5620  -14.0938   30.4844 N   0  0  0  0  0  0  0  0  0  0  0  0
   11.3421  -17.6844   25.5551 C   0  0  0  0  0  0  0  0  0  0  0  0
   10.6933  -18.7146   25.2864 O   0  0  0  0  0  0  0  0  0  0  0  0
   12.4014  -17.8182   26.4499 O   0  0  0  0  0  0  0  0  0  0  0  0
  1  2  1  0
  2  3  2  0
  4  2  1  0
  4  5  1  0
  6  5  1  0
  6  8  1  0
  6  7  1  6
  8  9  2  0
 10  8  1  0
 10 11  1  0
 11 12  1  0
 12 14  1  0
 13 12  2  0
 14 15  1  0
 15 16  1  1
 16 17  1  0
 17 18  1  0
 19 18  1  0
 20 19  1  0
 21 15  1  0
 21 23  1  0
 22 21  2  0
M  END
$$$$
