QGK.pdb
     RDKit          3D

 23 22  0  0  1  0  0  0  0  0999 V2000
    8.4533  -12.8190   16.1553 N   0  0  0  0  0  0  0  0  0  0  0  0
    7.7459  -14.0490   15.9448 C   0  0  0  0  0  0  0  0  0  0  0  0
    7.7742  -14.6246   14.8307 O   0  0  0  0  0  0  0  0  0  0  0  0
    6.9660  -14.6660   17.0406 C   0  0  0  0  0  0  0  0  0  0  0  0
    7.1417  -13.8619   18.2834 C   0  0  0  0  0  0  0  0  0  0  0  0
    8.4146  -14.1721   19.0220 C   0  0  2  0  0  0  0  0  0  0  0  0
    9.2469  -15.0992   18.2689 N   0  0  0  0  0  0  0  0  0  0  0  0
    8.1731  -14.7682   20.3553 C   0  0  0  0  0  0  0  0  0  0  0  0
    7.4197  -14.2094   21.2187 O   0  0  0  0  0  0  0  0  0  0  0  0
    8.7651  -16.0030   20.7614 N   0  0  0  0  0  0  0  0  0  0  0  0
    8.4464  -16.6581   21.9969 C   0  0  0  0  0  0  0  0  0  0  0  0
    9.0804  -15.9986   23.1665 C   0  0  0  0  0  0  0  0  0  0  0  0
   10.2819  -15.6430   23.1122 O   0  0  0  0  0  0  0  0  0  0  0  0
    8.3805  -15.7415   24.3771 N   0  0  0  0  0  0  0  0  0  0  0  0
    9.0879  -15.2415   25.5324 C   0  0  1  0  0  0  0  0  0  0  0  0
    8.1487  -14.5525   26.5378 C   0  0  0  0  0  0  0  0  0  0  0  0
    7.6212  -13.3333   25.8871 C   0  0  0  0  0  0  0  0  0  0  0  0
    6.6398  -12.5351   26.6717 C   0  0  0  0  0  0  0  0  0  0  0  0
    6.1943  -11.2896   25.9779 C   0  0  0  0  0  0  0  0  0  0  0  0
    5.2583  -10.5601   26.7598 N   0  0  0  0  0  0  0  0  0  0  0  0
    9.6967  -16.3929   26.2447 C   0  0  0  0  0  0  0  0  0  0  0  0
   10.4073  -16.2092   27.2524 O   0  0  0  0  0  0  0  0  0  0  0  0
    9.5097  -17.7106   25.8329 O   0  0  0  0  0  0  0  0  0  0  0  0
  1  2  1  0
  2  3  2  0
  4  2  1  0
  4  5  1  0
  6  5  1  0
  6  8  1  0
  6  7  1  6
  8  9  2  0
 10  8  1  0
 10 11  1  0
 11 12  1  0
 12 14  1  0
 13 12  2  0
 14 15  1  0
 15 16  1  1
 16 17  1  0
 17 18  1  0
 19 18  1  0
 20 19  1  0
 21 15  1  0
 21 23  1  0
 22 21  2  0
M  END
$$$$
