QGK.pdb
     RDKit          3D

 23 22  0  0  1  0  0  0  0  0999 V2000
   11.6446  -21.7751   17.5328 N   0  0  0  0  0  0  0  0  0  0  0  0
   11.4962  -20.4714   18.1124 C   0  0  0  0  0  0  0  0  0  0  0  0
   12.4486  -19.6551   18.1119 O   0  0  0  0  0  0  0  0  0  0  0  0
   10.2130  -20.0613   18.7247 C   0  0  0  0  0  0  0  0  0  0  0  0
    9.4038  -19.3152   17.7195 C   0  0  0  0  0  0  0  0  0  0  0  0
    9.3468  -17.8346   17.9769 C   0  0  2  0  0  0  0  0  0  0  0  0
   10.6575  -17.3125   18.3362 N   0  0  0  0  0  0  0  0  0  0  0  0
    8.4086  -17.4774   19.0649 C   0  0  0  0  0  0  0  0  0  0  0  0
    7.1569  -17.7032   18.9786 O   0  0  0  0  0  0  0  0  0  0  0  0
    8.8410  -16.8592   20.2777 N   0  0  0  0  0  0  0  0  0  0  0  0
    7.9474  -16.5126   21.3447 C   0  0  0  0  0  0  0  0  0  0  0  0
    8.6651  -16.0016   22.5398 C   0  0  0  0  0  0  0  0  0  0  0  0
    9.9166  -16.0619   22.5945 O   0  0  0  0  0  0  0  0  0  0  0  0
    7.9925  -15.4323   23.6557 N   0  0  0  0  0  0  0  0  0  0  0  0
    8.7307  -15.0786   24.8452 C   0  0  1  0  0  0  0  0  0  0  0  0
    7.8271  -14.4730   25.9335 C   0  0  0  0  0  0  0  0  0  0  0  0
    7.6623  -13.0362   25.6231 C   0  0  0  0  0  0  0  0  0  0  0  0
    6.7722  -12.2602   26.5294 C   0  0  0  0  0  0  0  0  0  0  0  0
    6.7126  -10.8039   26.2028 C   0  0  0  0  0  0  0  0  0  0  0  0
    5.7449  -10.1282   26.9944 N   0  0  0  0  0  0  0  0  0  0  0  0
    9.3134  -16.3165   25.4214 C   0  0  0  0  0  0  0  0  0  0  0  0
    8.7418  -17.4142   25.2707 O   0  0  0  0  0  0  0  0  0  0  0  0
   10.5037  -16.3160   26.1452 O   0  0  0  0  0  0  0  0  0  0  0  0
  1  2  1  0
  2  3  2  0
  4  2  1  0
  4  5  1  0
  6  5  1  0
  6  8  1  0
  6  7  1  1
  8  9  2  0
 10  8  1  0
 10 11  1  0
 11 12  1  0
 12 14  1  0
 13 12  2  0
 14 15  1  0
 15 16  1  1
 16 17  1  0
 17 18  1  0
 19 18  1  0
 20 19  1  0
 21 15  1  0
 21 23  1  0
 22 21  2  0
M  END
$$$$
