QGK.pdb
     RDKit          3D

 23 22  0  0  1  0  0  0  0  0999 V2000
    7.6063  -12.7054   16.1641 N   0  0  0  0  0  0  0  0  0  0  0  0
    7.6693  -14.0891   15.7911 C   0  0  0  0  0  0  0  0  0  0  0  0
    7.1542  -14.4906   14.7202 O   0  0  0  0  0  0  0  0  0  0  0  0
    8.3451  -15.0742   16.6644 C   0  0  0  0  0  0  0  0  0  0  0  0
    8.0267  -14.7700   18.0885 C   0  0  0  0  0  0  0  0  0  0  0  0
    9.1749  -15.0244   19.0259 C   0  0  2  0  0  0  0  0  0  0  0  0
   10.0498  -16.0696   18.5143 N   0  0  0  0  0  0  0  0  0  0  0  0
    8.7315  -15.4332   20.3779 C   0  0  0  0  0  0  0  0  0  0  0  0
    7.9811  -14.6932   21.0951 O   0  0  0  0  0  0  0  0  0  0  0  0
    9.1130  -16.6777   20.9660 N   0  0  0  0  0  0  0  0  0  0  0  0
    8.5868  -17.1509   22.2135 C   0  0  0  0  0  0  0  0  0  0  0  0
    9.1005  -16.3788   23.3731 C   0  0  0  0  0  0  0  0  0  0  0  0
   10.3312  -16.1687   23.4925 O   0  0  0  0  0  0  0  0  0  0  0  0
    8.2500  -15.8505   24.3827 N   0  0  0  0  0  0  0  0  0  0  0  0
    8.8154  -15.2753   25.5803 C   0  0  1  0  0  0  0  0  0  0  0  0
    7.7490  -14.6066   26.4653 C   0  0  0  0  0  0  0  0  0  0  0  0
    7.5001  -13.2563   25.9150 C   0  0  0  0  0  0  0  0  0  0  0  0
    6.5094  -12.4165   26.6423 C   0  0  0  0  0  0  0  0  0  0  0  0
    6.4412  -11.0098   26.1447 C   0  0  0  0  0  0  0  0  0  0  0  0
    5.5231  -10.2306   26.8994 N   0  0  0  0  0  0  0  0  0  0  0  0
    9.4108  -16.3679   26.3900 C   0  0  0  0  0  0  0  0  0  0  0  0
    9.0873  -17.5546   26.1860 O   0  0  0  0  0  0  0  0  0  0  0  0
   10.3420  -16.1294   27.3983 O   0  0  0  0  0  0  0  0  0  0  0  0
  1  2  1  0
  2  3  2  0
  4  2  1  0
  4  5  1  0
  6  5  1  0
  6  8  1  0
  6  7  1  6
  8  9  2  0
 10  8  1  0
 10 11  1  0
 11 12  1  0
 12 14  1  0
 13 12  2  0
 14 15  1  0
 15 16  1  1
 16 17  1  0
 17 18  1  0
 19 18  1  0
 20 19  1  0
 21 15  1  0
 21 23  1  0
 22 21  2  0
M  END
$$$$
