QGK.pdb
     RDKit          3D

 23 22  0  0  1  0  0  0  0  0999 V2000
    7.7303  -14.1522   14.4441 N   0  0  0  0  0  0  0  0  0  0  0  0
    7.8975  -14.7914   15.7174 C   0  0  0  0  0  0  0  0  0  0  0  0
    8.7401  -15.7077   15.8714 O   0  0  0  0  0  0  0  0  0  0  0  0
    7.0770  -14.3819   16.8788 C   0  0  0  0  0  0  0  0  0  0  0  0
    7.7025  -13.1960   17.5301 C   0  0  0  0  0  0  0  0  0  0  0  0
    8.8487  -13.5471   18.4383 C   0  0  2  0  0  0  0  0  0  0  0  0
    9.8277  -14.3780   17.7524 N   0  0  0  0  0  0  0  0  0  0  0  0
    8.4158  -14.2746   19.6527 C   0  0  0  0  0  0  0  0  0  0  0  0
    7.5614  -13.7871   20.4637 O   0  0  0  0  0  0  0  0  0  0  0  0
    8.9239  -15.5649   19.9952 N   0  0  0  0  0  0  0  0  0  0  0  0
    8.4549  -16.3204   21.1205 C   0  0  0  0  0  0  0  0  0  0  0  0
    9.0165  -15.8299   22.4045 C   0  0  0  0  0  0  0  0  0  0  0  0
   10.2421  -15.5811   22.4999 O   0  0  0  0  0  0  0  0  0  0  0  0
    8.2189  -15.6213   23.5630 N   0  0  0  0  0  0  0  0  0  0  0  0
    8.8303  -15.1855   24.7964 C   0  0  1  0  0  0  0  0  0  0  0  0
    7.7877  -14.7615   25.8456 C   0  0  0  0  0  0  0  0  0  0  0  0
    7.6530  -13.2906   25.7668 C   0  0  0  0  0  0  0  0  0  0  0  0
    6.6944  -12.6611   26.7158 C   0  0  0  0  0  0  0  0  0  0  0  0
    6.6418  -11.1721   26.6096 C   0  0  0  0  0  0  0  0  0  0  0  0
    5.6804  -10.6169   27.4967 N   0  0  0  0  0  0  0  0  0  0  0  0
    9.5757  -16.3288   25.3804 C   0  0  0  0  0  0  0  0  0  0  0  0
    9.2736  -17.5004   25.0800 O   0  0  0  0  0  0  0  0  0  0  0  0
   10.6292  -16.1557   26.2754 O   0  0  0  0  0  0  0  0  0  0  0  0
  1  2  1  0
  2  3  2  0
  4  2  1  0
  4  5  1  0
  6  5  1  0
  6  8  1  0
  6  7  1  6
  8  9  2  0
 10  8  1  0
 10 11  1  0
 11 12  1  0
 12 14  1  0
 13 12  2  0
 14 15  1  0
 15 16  1  1
 16 17  1  0
 17 18  1  0
 19 18  1  0
 20 19  1  0
 21 15  1  0
 21 23  1  0
 22 21  2  0
M  END
$$$$
