QGK.pdb
     RDKit          3D

 23 22  0  0  1  0  0  0  0  0999 V2000
   11.0586  -22.9625   19.5142 N   0  0  0  0  0  0  0  0  0  0  0  0
   10.4555  -21.9799   18.6607 C   0  0  0  0  0  0  0  0  0  0  0  0
   10.5046  -22.0948   17.4126 O   0  0  0  0  0  0  0  0  0  0  0  0
    9.7609  -20.8069   19.2366 C   0  0  0  0  0  0  0  0  0  0  0  0
    9.7716  -20.9094   20.7236 C   0  0  0  0  0  0  0  0  0  0  0  0
    9.0361  -19.7890   21.4060 C   0  0  2  0  0  0  0  0  0  0  0  0
    7.9569  -19.2827   20.5704 N   0  0  0  0  0  0  0  0  0  0  0  0
    9.9157  -18.6470   21.7427 C   0  0  0  0  0  0  0  0  0  0  0  0
   10.9711  -18.7908   22.4432 O   0  0  0  0  0  0  0  0  0  0  0  0
    9.6421  -17.3144   21.3074 N   0  0  0  0  0  0  0  0  0  0  0  0
   10.4868  -16.1976   21.6178 C   0  0  0  0  0  0  0  0  0  0  0  0
   10.1755  -15.6044   22.9428 C   0  0  0  0  0  0  0  0  0  0  0  0
   11.0808  -15.4739   23.8011 O   0  0  0  0  0  0  0  0  0  0  0  0
    8.8719  -15.1643   23.3013 N   0  0  0  0  0  0  0  0  0  0  0  0
    8.6674  -14.4170   24.5198 C   0  0  1  0  0  0  0  0  0  0  0  0
    7.3248  -13.6653   24.5242 C   0  0  0  0  0  0  0  0  0  0  0  0
    7.3135  -12.7862   25.7137 C   0  0  0  0  0  0  0  0  0  0  0  0
    6.1152  -11.9201   25.8863 C   0  0  0  0  0  0  0  0  0  0  0  0
    6.2133  -10.9928   27.0531 C   0  0  0  0  0  0  0  0  0  0  0  0
    5.0942  -10.1197   27.1244 N   0  0  0  0  0  0  0  0  0  0  0  0
    8.6192  -15.3732   25.6543 C   0  0  0  0  0  0  0  0  0  0  0  0
    8.1523  -16.5184   25.4968 O   0  0  0  0  0  0  0  0  0  0  0  0
    9.0833  -15.0477   26.9269 O   0  0  0  0  0  0  0  0  0  0  0  0
  1  2  1  0
  2  3  2  0
  4  2  1  0
  4  5  1  0
  6  5  1  0
  6  8  1  0
  6  7  1  6
  8  9  2  0
 10  8  1  0
 10 11  1  0
 11 12  1  0
 12 14  1  0
 13 12  2  0
 14 15  1  0
 15 16  1  6
 16 17  1  0
 17 18  1  0
 19 18  1  0
 20 19  1  0
 21 15  1  0
 21 23  1  0
 22 21  2  0
M  END
$$$$
