QGK.pdb
     RDKit          3D

 23 22  0  0  1  0  0  0  0  0999 V2000
    7.1939  -13.7702   14.3178 N   0  0  0  0  0  0  0  0  0  0  0  0
    7.6818  -14.3881   15.5169 C   0  0  0  0  0  0  0  0  0  0  0  0
    7.2637  -15.5150   15.8756 O   0  0  0  0  0  0  0  0  0  0  0  0
    8.6912  -13.7071   16.3578 C   0  0  0  0  0  0  0  0  0  0  0  0
    9.0118  -14.5647   17.5341 C   0  0  0  0  0  0  0  0  0  0  0  0
    8.6136  -13.9512   18.8482 C   0  0  2  0  0  0  0  0  0  0  0  0
    9.2681  -12.6663   19.0486 N   0  0  0  0  0  0  0  0  0  0  0  0
    8.9480  -14.8099   20.0067 C   0  0  0  0  0  0  0  0  0  0  0  0
   10.1325  -14.8851   20.4722 O   0  0  0  0  0  0  0  0  0  0  0  0
    7.9710  -15.6076   20.6770 N   0  0  0  0  0  0  0  0  0  0  0  0
    8.2779  -16.4485   21.7976 C   0  0  0  0  0  0  0  0  0  0  0  0
    8.7392  -15.6731   22.9768 C   0  0  0  0  0  0  0  0  0  0  0  0
    9.8198  -15.0383   22.9277 O   0  0  0  0  0  0  0  0  0  0  0  0
    8.0026  -15.6094   24.1913 N   0  0  0  0  0  0  0  0  0  0  0  0
    8.5984  -15.0299   25.3720 C   0  0  1  0  0  0  0  0  0  0  0  0
    7.5460  -14.4337   26.3232 C   0  0  0  0  0  0  0  0  0  0  0  0
    7.0985  -13.1502   25.7399 C   0  0  0  0  0  0  0  0  0  0  0  0
    6.0779  -12.3909   26.5130 C   0  0  0  0  0  0  0  0  0  0  0  0
    5.7678  -11.0496   25.9336 C   0  0  0  0  0  0  0  0  0  0  0  0
    4.7921  -10.3593   26.7025 N   0  0  0  0  0  0  0  0  0  0  0  0
    9.2875  -16.1066   26.1269 C   0  0  0  0  0  0  0  0  0  0  0  0
    9.9408  -15.8399   27.1547 O   0  0  0  0  0  0  0  0  0  0  0  0
    9.2409  -17.4425   25.7344 O   0  0  0  0  0  0  0  0  0  0  0  0
  1  2  1  0
  2  3  2  0
  4  2  1  0
  4  5  1  0
  6  5  1  0
  6  8  1  0
  6  7  1  1
  8  9  2  0
 10  8  1  0
 10 11  1  0
 11 12  1  0
 12 14  1  0
 13 12  2  0
 14 15  1  0
 15 16  1  1
 16 17  1  0
 17 18  1  0
 19 18  1  0
 20 19  1  0
 21 15  1  0
 21 23  1  0
 22 21  2  0
M  END
$$$$
