QGK.pdb
     RDKit          3D

 23 22  0  0  1  0  0  0  0  0999 V2000
    7.8955  -12.3505   18.2488 N   0  0  0  0  0  0  0  0  0  0  0  0
    8.7819  -13.2712   18.9002 C   0  0  0  0  0  0  0  0  0  0  0  0
    9.9801  -12.9682   19.1144 O   0  0  0  0  0  0  0  0  0  0  0  0
    8.2997  -14.6012   19.3342 C   0  0  0  0  0  0  0  0  0  0  0  0
    8.9003  -15.6512   18.4630 C   0  0  0  0  0  0  0  0  0  0  0  0
    8.5287  -17.0506   18.8695 C   0  0  2  0  0  0  0  0  0  0  0  0
    7.0880  -17.1871   19.0280 N   0  0  0  0  0  0  0  0  0  0  0  0
    9.1608  -17.4650   20.1424 C   0  0  0  0  0  0  0  0  0  0  0  0
   10.4265  -17.4831   20.2935 O   0  0  0  0  0  0  0  0  0  0  0  0
    8.3986  -17.8701   21.2804 N   0  0  0  0  0  0  0  0  0  0  0  0
    8.9924  -18.2362   22.5336 C   0  0  0  0  0  0  0  0  0  0  0  0
    9.2776  -17.0573   23.3900 C   0  0  0  0  0  0  0  0  0  0  0  0
   10.2132  -16.2766   23.0928 O   0  0  0  0  0  0  0  0  0  0  0  0
    8.5276  -16.7572   24.5601 N   0  0  0  0  0  0  0  0  0  0  0  0
    8.9597  -15.7047   25.4492 C   0  0  1  0  0  0  0  0  0  0  0  0
    7.8020  -15.1423   26.2925 C   0  0  0  0  0  0  0  0  0  0  0  0
    7.5540  -13.7573   25.8362 C   0  0  0  0  0  0  0  0  0  0  0  0
    6.5077  -12.9948   26.5709 C   0  0  0  0  0  0  0  0  0  0  0  0
    6.3620  -11.5830   26.1055 C   0  0  0  0  0  0  0  0  0  0  0  0
    5.2949  -10.9196   26.7694 N   0  0  0  0  0  0  0  0  0  0  0  0
    9.9418  -16.2727   26.4066 C   0  0  0  0  0  0  0  0  0  0  0  0
   10.0522  -17.5072   26.5416 O   0  0  0  0  0  0  0  0  0  0  0  0
   10.7734  -15.4730   27.1874 O   0  0  0  0  0  0  0  0  0  0  0  0
  1  2  1  0
  2  3  2  0
  4  2  1  0
  4  5  1  0
  6  5  1  0
  6  8  1  0
  6  7  1  1
  8  9  2  0
 10  8  1  0
 10 11  1  0
 11 12  1  0
 12 14  1  0
 13 12  2  0
 14 15  1  0
 15 16  1  1
 16 17  1  0
 17 18  1  0
 19 18  1  0
 20 19  1  0
 21 15  1  0
 21 23  1  0
 22 21  2  0
M  END
$$$$
