QGK.pdb
     RDKit          3D

 23 22  0  0  1  0  0  0  0  0999 V2000
    6.9969  -20.2163   18.2818 N   0  0  0  0  0  0  0  0  0  0  0  0
    8.2720  -19.8572   18.8320 C   0  0  0  0  0  0  0  0  0  0  0  0
    9.0521  -20.7347   19.2733 O   0  0  0  0  0  0  0  0  0  0  0  0
    8.6947  -18.4403   18.8904 C   0  0  0  0  0  0  0  0  0  0  0  0
    7.8634  -17.7194   19.8960 C   0  0  0  0  0  0  0  0  0  0  0  0
    8.6271  -16.6800   20.6694 C   0  0  2  0  0  0  0  0  0  0  0  0
   10.0595  -16.7998   20.4385 N   0  0  0  0  0  0  0  0  0  0  0  0
    8.3996  -16.7695   22.1294 C   0  0  0  0  0  0  0  0  0  0  0  0
    7.2403  -16.6332   22.6420 O   0  0  0  0  0  0  0  0  0  0  0  0
    9.4583  -17.0134   23.0566 N   0  0  0  0  0  0  0  0  0  0  0  0
    9.2429  -17.2098   24.4610 C   0  0  0  0  0  0  0  0  0  0  0  0
    9.8652  -16.1416   25.2833 C   0  0  0  0  0  0  0  0  0  0  0  0
   11.0581  -15.8096   25.0837 O   0  0  0  0  0  0  0  0  0  0  0  0
    9.1633  -15.4561   26.3125 N   0  0  0  0  0  0  0  0  0  0  0  0
    9.8566  -14.5174   27.1629 C   0  0  1  0  0  0  0  0  0  0  0  0
    8.8897  -13.5716   27.8966 C   0  0  0  0  0  0  0  0  0  0  0  0
    8.0098  -12.9599   26.8771 C   0  0  0  0  0  0  0  0  0  0  0  0
    6.9267  -12.0727   27.3827 C   0  0  0  0  0  0  0  0  0  0  0  0
    6.0744  -11.4964   26.2999 C   0  0  0  0  0  0  0  0  0  0  0  0
    5.0141  -10.7118   26.8289 N   0  0  0  0  0  0  0  0  0  0  0  0
   10.5787  -15.2796   28.2124 C   0  0  0  0  0  0  0  0  0  0  0  0
   10.3125  -16.4800   28.4185 O   0  0  0  0  0  0  0  0  0  0  0  0
   11.5704  -14.7054   29.0047 O   0  0  0  0  0  0  0  0  0  0  0  0
  1  2  1  0
  2  3  2  0
  4  2  1  0
  4  5  1  0
  6  5  1  0
  6  8  1  0
  6  7  1  1
  8  9  2  0
 10  8  1  0
 10 11  1  0
 11 12  1  0
 12 14  1  0
 13 12  2  0
 14 15  1  0
 15 16  1  1
 16 17  1  0
 17 18  1  0
 19 18  1  0
 20 19  1  0
 21 15  1  0
 21 23  1  0
 22 21  2  0
M  END
$$$$
