QGK.pdb
     RDKit          3D

 23 22  0  0  1  0  0  0  0  0999 V2000
    8.1881  -14.6893   15.8087 N   0  0  0  0  0  0  0  0  0  0  0  0
    8.6530  -13.7518   16.7899 C   0  0  0  0  0  0  0  0  0  0  0  0
    9.3875  -12.7892   16.4625 O   0  0  0  0  0  0  0  0  0  0  0  0
    8.2746  -13.9014   18.2127 C   0  0  0  0  0  0  0  0  0  0  0  0
    7.3960  -15.0957   18.3657 C   0  0  0  0  0  0  0  0  0  0  0  0
    6.8849  -15.2872   19.7671 C   0  0  2  0  0  0  0  0  0  0  0  0
    6.8019  -14.0175   20.4746 N   0  0  0  0  0  0  0  0  0  0  0  0
    7.7378  -16.1925   20.5698 C   0  0  0  0  0  0  0  0  0  0  0  0
    8.0201  -17.3740   20.1831 O   0  0  0  0  0  0  0  0  0  0  0  0
    8.2987  -15.8046   21.8249 N   0  0  0  0  0  0  0  0  0  0  0  0
    9.1848  -16.6411   22.5814 C   0  0  0  0  0  0  0  0  0  0  0  0
    9.6594  -15.9831   23.8249 C   0  0  0  0  0  0  0  0  0  0  0  0
   10.8428  -15.5760   23.9079 O   0  0  0  0  0  0  0  0  0  0  0  0
    8.8227  -15.7841   24.9571 N   0  0  0  0  0  0  0  0  0  0  0  0
    9.3445  -15.1447   26.1419 C   0  0  1  0  0  0  0  0  0  0  0  0
    8.2371  -14.4919   26.9877 C   0  0  0  0  0  0  0  0  0  0  0  0
    7.7327  -13.3248   26.2318 C   0  0  0  0  0  0  0  0  0  0  0  0
    6.6370  -12.5451   26.8701 C   0  0  0  0  0  0  0  0  0  0  0  0
    6.1766  -11.3839   26.0511 C   0  0  0  0  0  0  0  0  0  0  0  0
    5.2128  -10.6027   26.7443 N   0  0  0  0  0  0  0  0  0  0  0  0
    9.9723  -16.1826   26.9977 C   0  0  0  0  0  0  0  0  0  0  0  0
   10.5103  -15.8709   28.0783 O   0  0  0  0  0  0  0  0  0  0  0  0
    9.9925  -17.5303   26.6454 O   0  0  0  0  0  0  0  0  0  0  0  0
  1  2  1  0
  2  3  2  0
  4  2  1  0
  4  5  1  0
  6  5  1  0
  6  8  1  0
  6  7  1  1
  8  9  2  0
 10  8  1  0
 10 11  1  0
 11 12  1  0
 12 14  1  0
 13 12  2  0
 14 15  1  0
 15 16  1  1
 16 17  1  0
 17 18  1  0
 19 18  1  0
 20 19  1  0
 21 15  1  0
 21 23  1  0
 22 21  2  0
M  END
$$$$
