QGK.pdb
     RDKit          3D

 23 22  0  0  1  0  0  0  0  0999 V2000
    8.3085  -12.7861   16.4874 N   0  0  0  0  0  0  0  0  0  0  0  0
    7.8829  -13.9149   15.7112 C   0  0  0  0  0  0  0  0  0  0  0  0
    7.0318  -13.7842   14.7992 O   0  0  0  0  0  0  0  0  0  0  0  0
    8.4408  -15.2606   15.9711 C   0  0  0  0  0  0  0  0  0  0  0  0
    9.5008  -15.1613   17.0143 C   0  0  0  0  0  0  0  0  0  0  0  0
    9.6029  -16.3853   17.8822 C   0  0  2  0  0  0  0  0  0  0  0  0
    9.1163  -17.5668   17.1845 N   0  0  0  0  0  0  0  0  0  0  0  0
    8.8352  -16.2608   19.1418 C   0  0  0  0  0  0  0  0  0  0  0  0
    7.5743  -16.0728   19.1485 O   0  0  0  0  0  0  0  0  0  0  0  0
    9.4527  -16.3425   20.4271 N   0  0  0  0  0  0  0  0  0  0  0  0
    8.7109  -16.3797   21.6541 C   0  0  0  0  0  0  0  0  0  0  0  0
    9.5879  -16.2833   22.8482 C   0  0  0  0  0  0  0  0  0  0  0  0
   10.7213  -16.8205   22.8404 O   0  0  0  0  0  0  0  0  0  0  0  0
    9.2024  -15.5965   24.0320 N   0  0  0  0  0  0  0  0  0  0  0  0
    9.9983  -15.7138   25.2311 C   0  0  1  0  0  0  0  0  0  0  0  0
    9.3920  -14.9350   26.4116 C   0  0  0  0  0  0  0  0  0  0  0  0
   10.3237  -15.0650   27.5531 C   0  0  0  0  0  0  0  0  0  0  0  0
    9.9178  -14.3960   28.8194 C   0  0  0  0  0  0  0  0  0  0  0  0
   10.9158  -14.5483   29.9202 C   0  0  0  0  0  0  0  0  0  0  0  0
   10.4456  -13.9826   31.1361 N   0  0  0  0  0  0  0  0  0  0  0  0
   10.0269  -17.1413   25.6378 C   0  0  0  0  0  0  0  0  0  0  0  0
   10.9672  -17.5841   26.3262 O   0  0  0  0  0  0  0  0  0  0  0  0
    9.0258  -18.0412   25.2789 O   0  0  0  0  0  0  0  0  0  0  0  0
  1  2  1  0
  2  3  2  0
  4  2  1  0
  4  5  1  0
  6  5  1  0
  6  8  1  0
  6  7  1  6
  8  9  2  0
 10  8  1  0
 10 11  1  0
 11 12  1  0
 12 14  1  0
 13 12  2  0
 14 15  1  0
 15 16  1  1
 16 17  1  0
 17 18  1  0
 19 18  1  0
 20 19  1  0
 21 15  1  0
 21 23  1  0
 22 21  2  0
M  END
$$$$
