HWT.pdb
     RDKit          3D

 32 34  0  0  1  0  0  0  0  0999 V2000
   29.0878  -21.2270  -12.4389 N   0  0  0  0  0  0  0  0  0  0  0  0
   27.8891  -20.4534  -12.1746 C   0  0  1  0  0  0  0  0  0  0  0  0
   27.0247  -20.5045  -13.4213 C   0  0  0  0  0  0  0  0  0  0  0  0
   27.5154  -19.4674  -14.3563 C   0  0  0  0  0  0  0  0  0  0  0  0
   28.0554  -19.7411  -15.5972 C   0  0  0  0  0  0  0  0  0  0  0  0
   28.3852  -18.5605  -16.1551 N   0  0  0  0  0  0  0  0  0  0  0  0
   28.0702  -17.5566  -15.3059 C   0  0  0  0  0  0  0  0  0  0  0  0
   27.5398  -18.1320  -14.2123 N   0  0  0  0  0  0  0  0  0  0  0  0
   27.1785  -20.9218  -10.9744 C   0  0  0  0  0  0  0  0  0  0  0  0
   27.2368  -22.1609  -10.6818 O   0  0  0  0  0  0  0  0  0  0  0  0
   26.4551  -20.0015  -10.1802 N   0  0  0  0  0  0  0  0  0  0  0  0
   25.6349  -20.4558   -9.0503 C   0  0  1  0  0  0  0  0  0  0  0  0
   25.5789  -19.2909   -8.0995 C   0  0  0  0  0  0  0  0  0  0  0  0
   26.8079  -19.0030   -7.3612 C   0  0  0  0  0  0  0  0  0  0  0  0
   27.6938  -17.9787   -7.5348 C   0  0  0  0  0  0  0  0  0  0  0  0
   28.7008  -18.1090   -6.6529 N   0  0  0  0  0  0  0  0  0  0  0  0
   28.5001  -19.2005   -5.8970 C   0  0  0  0  0  0  0  0  0  0  0  0
   29.1871  -19.8083   -4.8635 C   0  0  0  0  0  0  0  0  0  0  0  0
   28.6916  -20.9615   -4.2837 C   0  0  0  0  0  0  0  0  0  0  0  0
   27.5118  -21.5258   -4.7195 C   0  0  0  0  0  0  0  0  0  0  0  0
   26.8416  -20.9056   -5.7505 C   0  0  0  0  0  0  0  0  0  0  0  0
   27.3313  -19.7593   -6.3288 C   0  0  0  0  0  0  0  0  0  0  0  0
   24.3011  -20.8425   -9.4832 C   0  0  0  0  0  0  0  0  0  0  0  0
   23.9954  -20.5892  -10.7053 O   0  0  0  0  0  0  0  0  0  0  0  0
   20.9745  -21.8815   -7.0757 C   0  0  0  0  0  0  0  0  0  0  0  0
   21.1761  -22.6689   -8.3658 C   0  0  1  0  0  0  0  0  0  0  0  0
   19.9145  -22.8216   -8.9379 O   0  0  0  0  0  0  0  0  0  0  0  0
   21.9985  -21.8412   -9.3513 C   0  0  2  0  0  0  0  0  0  0  0  0
   23.2738  -21.4697   -8.7557 N   0  0  0  0  0  0  0  0  0  0  0  0
   21.2158  -20.6151   -9.5969 C   0  0  0  0  0  0  0  0  0  0  0  0
   21.5408  -19.4678   -9.2039 O   0  0  0  0  0  0  0  0  0  0  0  0
   20.0012  -20.6716  -10.3224 O   0  0  0  0  0  0  0  0  0  0  0  0
  2  1  1  6
  3  2  1  0
  3  4  1  0
  4  5  2  0
  5  6  1  0
  7  6  1  0
  8  4  1  0
  8  7  2  0
  9 10  2  0
  9  2  1  0
 11  9  1  0
 12 11  1  0
 13 14  1  0
 12 13  1  1
 14 15  2  0
 14 22  1  0
 15 16  1  0
 16 17  1  0
 17 18  2  0
 18 19  1  0
 20 19  2  0
 21 20  1  0
 22 21  2  0
 22 17  1  0
 23 29  1  0
 23 12  1  0
 24 23  2  0
 26 28  1  0
 26 25  1  1
 27 26  1  0
 28 29  1  1
 28 30  1  0
 30 32  1  0
 31 30  2  0
M  END
$$$$
