HWT.pdb
     RDKit          3D

 32 34  0  0  1  0  0  0  0  0999 V2000
   26.9572  -21.1072  -16.3094 N   0  0  0  0  0  0  0  0  0  0  0  0
   26.2149  -20.1837  -15.4721 C   0  0  1  0  0  0  0  0  0  0  0  0
   24.9847  -19.7475  -16.2470 C   0  0  0  0  0  0  0  0  0  0  0  0
   25.4212  -18.7955  -17.2928 C   0  0  0  0  0  0  0  0  0  0  0  0
   26.3064  -17.7592  -17.0714 C   0  0  0  0  0  0  0  0  0  0  0  0
   26.4632  -17.1146  -18.2435 N   0  0  0  0  0  0  0  0  0  0  0  0
   25.7064  -17.7119  -19.1915 C   0  0  0  0  0  0  0  0  0  0  0  0
   25.0774  -18.7371  -18.5901 N   0  0  0  0  0  0  0  0  0  0  0  0
   25.8812  -20.7656  -14.1626 C   0  0  0  0  0  0  0  0  0  0  0  0
   25.0808  -21.7570  -14.1274 O   0  0  0  0  0  0  0  0  0  0  0  0
   26.4467  -20.2219  -12.9856 N   0  0  0  0  0  0  0  0  0  0  0  0
   26.0983  -20.7528  -11.6616 C   0  0  1  0  0  0  0  0  0  0  0  0
   27.1555  -20.2299  -10.7274 C   0  0  0  0  0  0  0  0  0  0  0  0
   27.1163  -20.7435   -9.3587 C   0  0  0  0  0  0  0  0  0  0  0  0
   27.0537  -22.0378   -8.9289 C   0  0  0  0  0  0  0  0  0  0  0  0
   27.0111  -22.0573   -7.5849 N   0  0  0  0  0  0  0  0  0  0  0  0
   27.0442  -20.8001   -7.1141 C   0  0  0  0  0  0  0  0  0  0  0  0
   27.0261  -20.2316   -5.8548 C   0  0  0  0  0  0  0  0  0  0  0  0
   27.0732  -18.8572   -5.7125 C   0  0  0  0  0  0  0  0  0  0  0  0
   27.1387  -18.0304   -6.8137 C   0  0  0  0  0  0  0  0  0  0  0  0
   27.1559  -18.6156   -8.0603 C   0  0  0  0  0  0  0  0  0  0  0  0
   27.1093  -19.9814   -8.2051 C   0  0  0  0  0  0  0  0  0  0  0  0
   24.7730  -20.3196  -11.2471 C   0  0  0  0  0  0  0  0  0  0  0  0
   24.5017  -19.0723  -11.3943 O   0  0  0  0  0  0  0  0  0  0  0  0
   21.5009  -22.4395  -11.9639 C   0  0  0  0  0  0  0  0  0  0  0  0
   21.5360  -20.9237  -11.8027 C   0  0  1  0  0  0  0  0  0  0  0  0
   20.2289  -20.5239  -11.5309 O   0  0  0  0  0  0  0  0  0  0  0  0
   22.3633  -20.5555  -10.5728 C   0  0  2  0  0  0  0  0  0  0  0  0
   23.7175  -21.0734  -10.7032 N   0  0  0  0  0  0  0  0  0  0  0  0
   21.7082  -21.2250   -9.4331 C   0  0  0  0  0  0  0  0  0  0  0  0
   22.2373  -22.1186   -8.7276 O   0  0  0  0  0  0  0  0  0  0  0  0
   20.3876  -20.8779   -9.0586 O   0  0  0  0  0  0  0  0  0  0  0  0
  2  1  1  6
  3  2  1  0
  3  4  1  0
  4  5  2  0
  5  6  1  0
  7  6  1  0
  8  4  1  0
  8  7  2  0
  9 10  2  0
  9  2  1  0
 11  9  1  0
 12 11  1  0
 13 14  1  0
 12 13  1  1
 14 15  2  0
 14 22  1  0
 15 16  1  0
 16 17  1  0
 17 18  2  0
 18 19  1  0
 20 19  2  0
 21 20  1  0
 22 21  2  0
 22 17  1  0
 23 29  1  0
 23 12  1  0
 24 23  2  0
 26 28  1  0
 26 25  1  1
 27 26  1  0
 28 29  1  6
 28 30  1  0
 30 32  1  0
 31 30  2  0
M  END
$$$$
