HWT.pdb
     RDKit          3D

 32 34  0  0  1  0  0  0  0  0999 V2000
   28.4902  -21.4017  -14.6502 N   0  0  0  0  0  0  0  0  0  0  0  0
   27.6120  -20.4241  -14.0354 C   0  0  1  0  0  0  0  0  0  0  0  0
   26.8270  -19.7488  -15.1453 C   0  0  0  0  0  0  0  0  0  0  0  0
   27.7088  -18.7416  -15.7766 C   0  0  0  0  0  0  0  0  0  0  0  0
   28.4046  -17.7776  -15.0745 C   0  0  0  0  0  0  0  0  0  0  0  0
   29.0928  -17.0505  -15.9754 N   0  0  0  0  0  0  0  0  0  0  0  0
   28.8517  -17.5263  -17.2178 C   0  0  0  0  0  0  0  0  0  0  0  0
   28.0034  -18.5598  -17.0745 N   0  0  0  0  0  0  0  0  0  0  0  0
   26.7417  -21.0243  -13.0120 C   0  0  0  0  0  0  0  0  0  0  0  0
   26.1391  -22.1119  -13.2925 O   0  0  0  0  0  0  0  0  0  0  0  0
   26.5929  -20.3924  -11.7554 N   0  0  0  0  0  0  0  0  0  0  0  0
   25.6110  -20.8742  -10.7757 C   0  0  1  0  0  0  0  0  0  0  0  0
   26.0149  -20.2574   -9.4642 C   0  0  0  0  0  0  0  0  0  0  0  0
   27.3207  -20.6560   -8.9402 C   0  0  0  0  0  0  0  0  0  0  0  0
   28.2946  -21.4023   -9.5391 C   0  0  0  0  0  0  0  0  0  0  0  0
   29.3261  -21.5500   -8.6888 N   0  0  0  0  0  0  0  0  0  0  0  0
   29.0553  -20.9157   -7.5366 C   0  0  0  0  0  0  0  0  0  0  0  0
   29.7282  -20.7362   -6.3431 C   0  0  0  0  0  0  0  0  0  0  0  0
   29.1489  -20.0054   -5.3223 C   0  0  0  0  0  0  0  0  0  0  0  0
   27.8984  -19.4446   -5.4708 C   0  0  0  0  0  0  0  0  0  0  0  0
   27.2435  -19.6345   -6.6674 C   0  0  0  0  0  0  0  0  0  0  0  0
   27.8166  -20.3602   -7.6839 C   0  0  0  0  0  0  0  0  0  0  0  0
   24.2585  -20.4845  -11.1429 C   0  0  0  0  0  0  0  0  0  0  0  0
   23.9885  -19.2290  -11.1002 O   0  0  0  0  0  0  0  0  0  0  0  0
   22.5864  -20.5069  -14.3786 C   0  0  0  0  0  0  0  0  0  0  0  0
   21.6027  -21.1701  -13.4208 C   0  0  1  0  0  0  0  0  0  0  0  0
   21.8573  -22.5392  -13.4768 O   0  0  0  0  0  0  0  0  0  0  0  0
   21.9050  -20.7342  -11.9886 C   0  0  2  0  0  0  0  0  0  0  0  0
   23.1786  -21.2874  -11.5518 N   0  0  0  0  0  0  0  0  0  0  0  0
   20.8295  -21.3092  -11.1585 C   0  0  0  0  0  0  0  0  0  0  0  0
   20.9903  -22.2194  -10.3088 O   0  0  0  0  0  0  0  0  0  0  0  0
   19.4986  -20.8422  -11.2828 O   0  0  0  0  0  0  0  0  0  0  0  0
  2  1  1  6
  3  2  1  0
  3  4  1  0
  4  5  2  0
  5  6  1  0
  7  6  1  0
  8  4  1  0
  8  7  2  0
  9 10  2  0
  9  2  1  0
 11  9  1  0
 12 11  1  0
 13 14  1  0
 12 13  1  1
 14 15  2  0
 14 22  1  0
 15 16  1  0
 16 17  1  0
 17 18  2  0
 18 19  1  0
 20 19  2  0
 21 20  1  0
 22 21  2  0
 22 17  1  0
 23 29  1  0
 23 12  1  0
 24 23  2  0
 26 28  1  0
 26 25  1  6
 27 26  1  0
 28 29  1  1
 28 30  1  0
 30 32  1  0
 31 30  2  0
M  END
$$$$
