HWT.pdb
     RDKit          3D

 32 34  0  0  1  0  0  0  0  0999 V2000
   28.0073  -22.6152  -15.7805 N   0  0  0  0  0  0  0  0  0  0  0  0
   27.1353  -21.4934  -15.4867 C   0  0  1  0  0  0  0  0  0  0  0  0
   26.2149  -21.3020  -16.6785 C   0  0  0  0  0  0  0  0  0  0  0  0
   27.0112  -20.7088  -17.7760 C   0  0  0  0  0  0  0  0  0  0  0  0
   27.5953  -19.4591  -17.7167 C   0  0  0  0  0  0  0  0  0  0  0  0
   28.2319  -19.2632  -18.8873 N   0  0  0  0  0  0  0  0  0  0  0  0
   28.0664  -20.3476  -19.6777 C   0  0  0  0  0  0  0  0  0  0  0  0
   27.3174  -21.2197  -18.9801 N   0  0  0  0  0  0  0  0  0  0  0  0
   26.3980  -21.6774  -14.2268 C   0  0  0  0  0  0  0  0  0  0  0  0
   25.7415  -22.7574  -14.0622 O   0  0  0  0  0  0  0  0  0  0  0  0
   26.4316  -20.6672  -13.2373 N   0  0  0  0  0  0  0  0  0  0  0  0
   25.6420  -20.7862  -12.0050 C   0  0  1  0  0  0  0  0  0  0  0  0
   26.2744  -19.8325  -11.0281 C   0  0  0  0  0  0  0  0  0  0  0  0
   27.4166  -20.3470  -10.2737 C   0  0  0  0  0  0  0  0  0  0  0  0
   28.4936  -21.0555  -10.7234 C   0  0  0  0  0  0  0  0  0  0  0  0
   29.2962  -21.3492   -9.6850 N   0  0  0  0  0  0  0  0  0  0  0  0
   28.7723  -20.8491   -8.5543 C   0  0  0  0  0  0  0  0  0  0  0  0
   29.1504  -20.8448   -7.2252 C   0  0  0  0  0  0  0  0  0  0  0  0
   28.3585  -20.2198   -6.2797 C   0  0  0  0  0  0  0  0  0  0  0  0
   27.1845  -19.5926   -6.6384 C   0  0  0  0  0  0  0  0  0  0  0  0
   26.8245  -19.6074   -7.9677 C   0  0  0  0  0  0  0  0  0  0  0  0
   27.6094  -20.2276   -8.9098 C   0  0  0  0  0  0  0  0  0  0  0  0
   24.2452  -20.4508  -12.2343 C   0  0  0  0  0  0  0  0  0  0  0  0
   24.0015  -19.2723  -12.6847 O   0  0  0  0  0  0  0  0  0  0  0  0
   21.9644  -21.0982  -14.8192 C   0  0  0  0  0  0  0  0  0  0  0  0
   21.2020  -21.5141  -13.5659 C   0  0  1  0  0  0  0  0  0  0  0  0
   21.4870  -22.8624  -13.3581 O   0  0  0  0  0  0  0  0  0  0  0  0
   21.7546  -20.7656  -12.3547 C   0  0  2  0  0  0  0  0  0  0  0  0
   23.0953  -21.2370  -12.0399 N   0  0  0  0  0  0  0  0  0  0  0  0
   20.8588  -21.1019  -11.2319 C   0  0  0  0  0  0  0  0  0  0  0  0
   19.6646  -20.7273  -11.1322 O   0  0  0  0  0  0  0  0  0  0  0  0
   21.3210  -21.9019  -10.1590 O   0  0  0  0  0  0  0  0  0  0  0  0
  2  1  1  6
  3  2  1  0
  3  4  1  0
  4  5  2  0
  5  6  1  0
  7  6  1  0
  8  4  1  0
  8  7  2  0
  9 10  2  0
  9  2  1  0
 11  9  1  0
 12 11  1  0
 13 14  1  0
 12 13  1  1
 14 15  2  0
 14 22  1  0
 15 16  1  0
 16 17  1  0
 17 18  2  0
 18 19  1  0
 20 19  2  0
 21 20  1  0
 22 21  2  0
 22 17  1  0
 23 29  1  0
 23 12  1  0
 24 23  2  0
 26 28  1  0
 26 25  1  6
 27 26  1  0
 28 29  1  1
 28 30  1  0
 30 32  1  0
 31 30  2  0
M  END
$$$$
