HWT.pdb
     RDKit          3D

 32 34  0  0  1  0  0  0  0  0999 V2000
   28.5553  -21.9460  -17.7419 N   0  0  0  0  0  0  0  0  0  0  0  0
   27.8283  -22.5202  -16.6254 C   0  0  1  0  0  0  0  0  0  0  0  0
   28.8433  -23.1621  -15.6969 C   0  0  0  0  0  0  0  0  0  0  0  0
   29.3737  -24.3691  -16.3695 C   0  0  0  0  0  0  0  0  0  0  0  0
   30.7156  -24.5947  -16.6035 C   0  0  0  0  0  0  0  0  0  0  0  0
   30.8145  -25.7838  -17.2282 N   0  0  0  0  0  0  0  0  0  0  0  0
   29.5803  -26.3105  -17.3935 C   0  0  0  0  0  0  0  0  0  0  0  0
   28.7136  -25.4304  -16.8618 N   0  0  0  0  0  0  0  0  0  0  0  0
   26.9850  -21.5274  -15.9413 C   0  0  0  0  0  0  0  0  0  0  0  0
   27.4863  -20.3849  -15.6804 O   0  0  0  0  0  0  0  0  0  0  0  0
   25.6541  -21.8549  -15.5918 N   0  0  0  0  0  0  0  0  0  0  0  0
   24.7915  -20.8879  -14.9012 C   0  0  1  0  0  0  0  0  0  0  0  0
   23.5317  -20.8154  -15.7206 C   0  0  0  0  0  0  0  0  0  0  0  0
   23.4784  -19.7558  -16.7271 C   0  0  0  0  0  0  0  0  0  0  0  0
   24.1798  -19.6431  -17.8929 C   0  0  0  0  0  0  0  0  0  0  0  0
   23.8393  -18.4957  -18.5063 N   0  0  0  0  0  0  0  0  0  0  0  0
   22.9248  -17.8444  -17.7695 C   0  0  0  0  0  0  0  0  0  0  0  0
   22.2370  -16.6533  -17.9023 C   0  0  0  0  0  0  0  0  0  0  0  0
   21.3355  -16.2599  -16.9307 C   0  0  0  0  0  0  0  0  0  0  0  0
   21.1046  -17.0398  -15.8177 C   0  0  0  0  0  0  0  0  0  0  0  0
   21.7995  -18.2233  -15.7032 C   0  0  0  0  0  0  0  0  0  0  0  0
   22.6962  -18.6173  -16.6672 C   0  0  0  0  0  0  0  0  0  0  0  0
   24.5059  -21.3087  -13.5384 C   0  0  0  0  0  0  0  0  0  0  0  0
   24.0385  -22.4960  -13.3874 O   0  0  0  0  0  0  0  0  0  0  0  0
   26.7085  -20.8989  -10.2401 C   0  0  0  0  0  0  0  0  0  0  0  0
   25.2491  -20.5616   -9.9553 C   0  0  1  0  0  0  0  0  0  0  0  0
   25.1288  -19.1795  -10.0880 O   0  0  0  0  0  0  0  0  0  0  0  0
   24.3585  -21.1767  -11.0329 C   0  0  2  0  0  0  0  0  0  0  0  0
   24.6715  -20.6025  -12.3334 N   0  0  0  0  0  0  0  0  0  0  0  0
   22.9770  -20.8058  -10.6719 C   0  0  0  0  0  0  0  0  0  0  0  0
   22.2290  -20.0721  -11.3636 O   0  0  0  0  0  0  0  0  0  0  0  0
   22.3964  -21.2804   -9.4708 O   0  0  0  0  0  0  0  0  0  0  0  0
  2  1  1  6
  3  2  1  0
  3  4  1  0
  4  5  2  0
  5  6  1  0
  7  6  1  0
  8  4  1  0
  8  7  2  0
  9 10  2  0
  9  2  1  0
 11  9  1  0
 12 11  1  0
 13 14  1  0
 12 13  1  6
 14 15  2  0
 14 22  1  0
 15 16  1  0
 16 17  1  0
 17 18  2  0
 18 19  1  0
 20 19  2  0
 21 20  1  0
 22 21  2  0
 22 17  1  0
 23 29  1  0
 23 12  1  0
 24 23  2  0
 26 28  1  0
 26 25  1  6
 27 26  1  0
 28 29  1  6
 28 30  1  0
 30 32  1  0
 31 30  2  0
M  END
$$$$
