HWT.pdb
     RDKit          3D

 32 34  0  0  1  0  0  0  0  0999 V2000
   27.7093  -22.7241  -15.6698 N   0  0  0  0  0  0  0  0  0  0  0  0
   26.8708  -21.5900  -15.3296 C   0  0  1  0  0  0  0  0  0  0  0  0
   26.0632  -21.2288  -16.5631 C   0  0  0  0  0  0  0  0  0  0  0  0
   26.9990  -20.6941  -17.5775 C   0  0  0  0  0  0  0  0  0  0  0  0
   27.5714  -19.4393  -17.5133 C   0  0  0  0  0  0  0  0  0  0  0  0
   28.3581  -19.3065  -18.5983 N   0  0  0  0  0  0  0  0  0  0  0  0
   28.2980  -20.4355  -19.3399 C   0  0  0  0  0  0  0  0  0  0  0  0
   27.4619  -21.2711  -18.6988 N   0  0  0  0  0  0  0  0  0  0  0  0
   26.0231  -21.8571  -14.1571 C   0  0  0  0  0  0  0  0  0  0  0  0
   25.4089  -22.9722  -14.0961 O   0  0  0  0  0  0  0  0  0  0  0  0
   25.9079  -20.8857  -13.1354 N   0  0  0  0  0  0  0  0  0  0  0  0
   25.0552  -21.1162  -11.9625 C   0  0  1  0  0  0  0  0  0  0  0  0
   25.6570  -20.2898  -10.8585 C   0  0  0  0  0  0  0  0  0  0  0  0
   26.9703  -20.7168  -10.3775 C   0  0  0  0  0  0  0  0  0  0  0  0
   27.9174  -21.4643  -11.0165 C   0  0  0  0  0  0  0  0  0  0  0  0
   28.9686  -21.6431  -10.1971 N   0  0  0  0  0  0  0  0  0  0  0  0
   28.7374  -21.0283   -9.0259 C   0  0  0  0  0  0  0  0  0  0  0  0
   29.4441  -20.8818   -7.8475 C   0  0  0  0  0  0  0  0  0  0  0  0
   28.9024  -20.1636   -6.7975 C   0  0  0  0  0  0  0  0  0  0  0  0
   27.6565  -19.5828   -6.9016 C   0  0  0  0  0  0  0  0  0  0  0  0
   26.9677  -19.7398   -8.0839 C   0  0  0  0  0  0  0  0  0  0  0  0
   27.5033  -20.4529   -9.1293 C   0  0  0  0  0  0  0  0  0  0  0  0
   23.6788  -20.7223  -12.2203 C   0  0  0  0  0  0  0  0  0  0  0  0
   23.4597  -19.4672  -12.3864 O   0  0  0  0  0  0  0  0  0  0  0  0
   21.4463  -20.9818  -15.0860 C   0  0  0  0  0  0  0  0  0  0  0  0
   20.6607  -21.5465  -13.9075 C   0  0  1  0  0  0  0  0  0  0  0  0
   20.9233  -22.9149  -13.8757 O   0  0  0  0  0  0  0  0  0  0  0  0
   21.2073  -20.9728  -12.6018 C   0  0  2  0  0  0  0  0  0  0  0  0
   22.5264  -21.5219  -12.3234 N   0  0  0  0  0  0  0  0  0  0  0  0
   20.2770  -21.4180  -11.5471 C   0  0  0  0  0  0  0  0  0  0  0  0
   20.5382  -22.2925  -10.6849 O   0  0  0  0  0  0  0  0  0  0  0  0
   18.9812  -20.8558  -11.4480 O   0  0  0  0  0  0  0  0  0  0  0  0
  2  1  1  6
  3  2  1  0
  3  4  1  0
  4  5  2  0
  5  6  1  0
  7  6  1  0
  8  4  1  0
  8  7  2  0
  9 10  2  0
  9  2  1  0
 11  9  1  0
 12 11  1  0
 13 14  1  0
 12 13  1  1
 14 15  2  0
 14 22  1  0
 15 16  1  0
 16 17  1  0
 17 18  2  0
 18 19  1  0
 20 19  2  0
 21 20  1  0
 22 21  2  0
 22 17  1  0
 23 29  1  0
 23 12  1  0
 24 23  2  0
 26 28  1  0
 26 25  1  6
 27 26  1  0
 28 29  1  1
 28 30  1  0
 30 32  1  0
 31 30  2  0
M  END
$$$$
