HWT.pdb
     RDKit          3D

 32 34  0  0  1  0  0  0  0  0999 V2000
   28.4302  -22.0641  -15.5859 N   0  0  0  0  0  0  0  0  0  0  0  0
   28.1498  -20.9379  -14.7152 C   0  0  1  0  0  0  0  0  0  0  0  0
   27.5036  -19.8540  -15.5588 C   0  0  0  0  0  0  0  0  0  0  0  0
   28.5660  -19.2136  -16.3661 C   0  0  0  0  0  0  0  0  0  0  0  0
   29.0538  -19.7318  -17.5492 C   0  0  0  0  0  0  0  0  0  0  0  0
   30.0010  -18.8834  -17.9929 N   0  0  0  0  0  0  0  0  0  0  0  0
   30.1231  -17.8515  -17.1279 C   0  0  0  0  0  0  0  0  0  0  0  0
   29.2373  -18.0721  -16.1405 N   0  0  0  0  0  0  0  0  0  0  0  0
   27.3250  -21.3212  -13.5586 C   0  0  0  0  0  0  0  0  0  0  0  0
   26.3509  -22.1209  -13.7487 O   0  0  0  0  0  0  0  0  0  0  0  0
   27.6245  -20.8025  -12.2772 N   0  0  0  0  0  0  0  0  0  0  0  0
   26.7459  -21.0620  -11.1297 C   0  0  1  0  0  0  0  0  0  0  0  0
   27.4925  -20.5508   -9.9275 C   0  0  0  0  0  0  0  0  0  0  0  0
   26.7635  -20.5724   -8.6599 C   0  0  0  0  0  0  0  0  0  0  0  0
   25.4334  -20.7859   -8.4380 C   0  0  0  0  0  0  0  0  0  0  0  0
   25.1833  -20.6937   -7.1199 N   0  0  0  0  0  0  0  0  0  0  0  0
   26.3223  -20.4229   -6.4623 C   0  0  0  0  0  0  0  0  0  0  0  0
   26.6572  -20.2253   -5.1363 C   0  0  0  0  0  0  0  0  0  0  0  0
   27.9665  -19.9552   -4.7835 C   0  0  0  0  0  0  0  0  0  0  0  0
   28.9582  -19.8775   -5.7378 C   0  0  0  0  0  0  0  0  0  0  0  0
   28.6049  -20.0774   -7.0539 C   0  0  0  0  0  0  0  0  0  0  0  0
   27.3046  -20.3462   -7.4078 C   0  0  0  0  0  0  0  0  0  0  0  0
   25.4659  -20.3869  -11.2769 C   0  0  0  0  0  0  0  0  0  0  0  0
   25.4983  -19.1073  -11.3888 O   0  0  0  0  0  0  0  0  0  0  0  0
   23.4922  -19.6256  -13.9480 C   0  0  0  0  0  0  0  0  0  0  0  0
   22.5039  -20.2918  -12.9970 C   0  0  1  0  0  0  0  0  0  0  0  0
   22.5512  -21.6577  -13.2696 O   0  0  0  0  0  0  0  0  0  0  0  0
   22.9821  -20.1235  -11.5563 C   0  0  2  0  0  0  0  0  0  0  0  0
   24.1700  -20.9316  -11.3221 N   0  0  0  0  0  0  0  0  0  0  0  0
   21.8881  -20.6332  -10.7080 C   0  0  0  0  0  0  0  0  0  0  0  0
   21.9483  -21.6771  -10.0130 O   0  0  0  0  0  0  0  0  0  0  0  0
   20.6565  -19.9390  -10.6301 O   0  0  0  0  0  0  0  0  0  0  0  0
  2  1  1  6
  3  2  1  0
  3  4  1  0
  4  5  2  0
  5  6  1  0
  7  6  1  0
  8  4  1  0
  8  7  2  0
  9 10  2  0
  9  2  1  0
 11  9  1  0
 12 11  1  0
 13 14  1  0
 12 13  1  1
 14 15  2  0
 14 22  1  0
 15 16  1  0
 16 17  1  0
 17 18  2  0
 18 19  1  0
 20 19  2  0
 21 20  1  0
 22 21  2  0
 22 17  1  0
 23 29  1  0
 23 12  1  0
 24 23  2  0
 26 28  1  0
 26 25  1  6
 27 26  1  0
 28 29  1  6
 28 30  1  0
 30 32  1  0
 31 30  2  0
M  END
$$$$
