HWT.pdb
     RDKit          3D

 32 34  0  0  1  0  0  0  0  0999 V2000
   11.9539  -15.4503    4.5683 N   0  0  0  0  0  0  0  0  0  0  0  0
   13.2364  -15.2964    5.2288 C   0  0  1  0  0  0  0  0  0  0  0  0
   12.9789  -15.2282    6.7232 C   0  0  0  0  0  0  0  0  0  0  0  0
   12.2019  -13.9980    6.9939 C   0  0  0  0  0  0  0  0  0  0  0  0
   10.9105  -13.9933    7.4822 C   0  0  0  0  0  0  0  0  0  0  0  0
   10.5360  -12.7050    7.6004 N   0  0  0  0  0  0  0  0  0  0  0  0
   11.5490  -11.9026    7.2028 C   0  0  0  0  0  0  0  0  0  0  0  0
   12.5580  -12.7124    6.8360 N   0  0  0  0  0  0  0  0  0  0  0  0
   14.1804  -16.3651    4.8660 C   0  0  0  0  0  0  0  0  0  0  0  0
   13.7567  -17.5672    4.8512 O   0  0  0  0  0  0  0  0  0  0  0  0
   15.5198  -16.0428    4.5455 N   0  0  0  0  0  0  0  0  0  0  0  0
   16.4951  -17.0912    4.2201 C   0  0  1  0  0  0  0  0  0  0  0  0
   17.6783  -16.3716    3.6318 C   0  0  0  0  0  0  0  0  0  0  0  0
   18.3964  -17.0747    2.5695 C   0  0  0  0  0  0  0  0  0  0  0  0
   18.0993  -18.2682    1.9767 C   0  0  0  0  0  0  0  0  0  0  0  0
   19.0418  -18.5557    1.0615 N   0  0  0  0  0  0  0  0  0  0  0  0
   19.9591  -17.5754    1.0353 C   0  0  0  0  0  0  0  0  0  0  0  0
   21.1151  -17.3433    0.3148 C   0  0  0  0  0  0  0  0  0  0  0  0
   21.8549  -16.1970    0.5389 C   0  0  0  0  0  0  0  0  0  0  0  0
   21.4595  -15.2682    1.4778 C   0  0  0  0  0  0  0  0  0  0  0  0
   20.3048  -15.5172    2.1858 C   0  0  0  0  0  0  0  0  0  0  0  0
   19.5673  -16.6555    1.9653 C   0  0  0  0  0  0  0  0  0  0  0  0
   16.8773  -17.8472    5.4025 C   0  0  0  0  0  0  0  0  0  0  0  0
   17.2917  -17.1686    6.4119 O   0  0  0  0  0  0  0  0  0  0  0  0
   16.4011  -21.4274    8.6680 C   0  0  0  0  0  0  0  0  0  0  0  0
   16.0083  -20.7001    7.3867 C   0  0  1  0  0  0  0  0  0  0  0  0
   14.9857  -19.8176    7.7297 O   0  0  0  0  0  0  0  0  0  0  0  0
   17.1749  -19.8408    6.9039 C   0  0  2  0  0  0  0  0  0  0  0  0
   16.8574  -19.2370    5.6179 N   0  0  0  0  0  0  0  0  0  0  0  0
   18.3088  -20.7673    6.7246 C   0  0  0  0  0  0  0  0  0  0  0  0
   18.6458  -21.2828    5.6306 O   0  0  0  0  0  0  0  0  0  0  0  0
   19.1132  -21.1401    7.8287 O   0  0  0  0  0  0  0  0  0  0  0  0
  2  1  1  6
  3  2  1  0
  3  4  1  0
  4  5  2  0
  5  6  1  0
  7  6  1  0
  8  4  1  0
  8  7  2  0
  9 10  2  0
  9  2  1  0
 11  9  1  0
 12 11  1  0
 13 14  1  0
 12 13  1  1
 14 15  2  0
 14 22  1  0
 15 16  1  0
 16 17  1  0
 17 18  2  0
 18 19  1  0
 20 19  2  0
 21 20  1  0
 22 21  2  0
 22 17  1  0
 23 29  1  0
 23 12  1  0
 24 23  2  0
 26 28  1  0
 26 25  1  1
 27 26  1  0
 28 29  1  6
 28 30  1  0
 30 32  1  0
 31 30  2  0
M  END
$$$$
