HWT.pdb
     RDKit          3D

 32 34  0  0  1  0  0  0  0  0999 V2000
   11.0621  -20.8337   -1.0656 N   0  0  0  0  0  0  0  0  0  0  0  0
   11.9152  -20.3872    0.0197 C   0  0  1  0  0  0  0  0  0  0  0  0
   11.0417  -19.6482    1.0172 C   0  0  0  0  0  0  0  0  0  0  0  0
   10.5968  -18.3868    0.3833 C   0  0  0  0  0  0  0  0  0  0  0  0
   11.3996  -17.2734    0.2349 C   0  0  0  0  0  0  0  0  0  0  0  0
   10.6600  -16.3305   -0.3798 N   0  0  0  0  0  0  0  0  0  0  0  0
    9.4213  -16.8156   -0.6215 C   0  0  0  0  0  0  0  0  0  0  0  0
    9.4031  -18.0738   -0.1474 N   0  0  0  0  0  0  0  0  0  0  0  0
   12.6600  -21.4974    0.6343 C   0  0  0  0  0  0  0  0  0  0  0  0
   12.0440  -22.5918    0.8522 O   0  0  0  0  0  0  0  0  0  0  0  0
   14.0249  -21.3313    0.9663 N   0  0  0  0  0  0  0  0  0  0  0  0
   14.7867  -22.4117    1.6054 C   0  0  1  0  0  0  0  0  0  0  0  0
   16.1218  -22.4277    0.9116 C   0  0  0  0  0  0  0  0  0  0  0  0
   16.1566  -23.0677   -0.4028 C   0  0  0  0  0  0  0  0  0  0  0  0
   15.7871  -22.5598   -1.6150 C   0  0  0  0  0  0  0  0  0  0  0  0
   15.9599  -23.4998   -2.5611 N   0  0  0  0  0  0  0  0  0  0  0  0
   16.4373  -24.6225   -1.9998 C   0  0  0  0  0  0  0  0  0  0  0  0
   16.7922  -25.8717   -2.4719 C   0  0  0  0  0  0  0  0  0  0  0  0
   17.2637  -26.8355   -1.5999 C   0  0  0  0  0  0  0  0  0  0  0  0
   17.3893  -26.5743   -0.2522 C   0  0  0  0  0  0  0  0  0  0  0  0
   17.0306  -25.3236    0.1993 C   0  0  0  0  0  0  0  0  0  0  0  0
   16.5617  -24.3635   -0.6648 C   0  0  0  0  0  0  0  0  0  0  0  0
   14.9416  -22.1802    3.0331 C   0  0  0  0  0  0  0  0  0  0  0  0
   15.2917  -20.9968    3.3909 O   0  0  0  0  0  0  0  0  0  0  0  0
   14.3637  -23.2443    7.8649 C   0  0  0  0  0  0  0  0  0  0  0  0
   14.3027  -23.7270    6.4199 C   0  0  1  0  0  0  0  0  0  0  0  0
   12.9520  -23.8114    6.0871 O   0  0  0  0  0  0  0  0  0  0  0  0
   14.9082  -22.6705    5.4980 C   0  0  2  0  0  0  0  0  0  0  0  0
   14.7579  -23.0705    4.1064 N   0  0  0  0  0  0  0  0  0  0  0  0
   16.3460  -22.6282    5.8256 C   0  0  0  0  0  0  0  0  0  0  0  0
   17.2264  -23.3344    5.2756 O   0  0  0  0  0  0  0  0  0  0  0  0
   16.8297  -21.7478    6.8235 O   0  0  0  0  0  0  0  0  0  0  0  0
  2  1  1  6
  3  2  1  0
  3  4  1  0
  4  5  2  0
  5  6  1  0
  7  6  1  0
  8  4  1  0
  8  7  2  0
  9 10  2  0
  9  2  1  0
 11  9  1  0
 12 11  1  0
 13 14  1  0
 12 13  1  6
 14 15  2  0
 14 22  1  0
 15 16  1  0
 16 17  1  0
 17 18  2  0
 18 19  1  0
 20 19  2  0
 21 20  1  0
 22 21  2  0
 22 17  1  0
 23 29  1  0
 23 12  1  0
 24 23  2  0
 26 28  1  0
 26 25  1  1
 27 26  1  0
 28 29  1  6
 28 30  1  0
 30 32  1  0
 31 30  2  0
M  END
$$$$
