HWT.pdb
     RDKit          3D

 32 34  0  0  1  0  0  0  0  0999 V2000
   28.1554  -23.2226  -16.2214 N   0  0  0  0  0  0  0  0  0  0  0  0
   27.4623  -21.9719  -15.9762 C   0  0  1  0  0  0  0  0  0  0  0  0
   26.6259  -21.6612  -17.2044 C   0  0  0  0  0  0  0  0  0  0  0  0
   27.5498  -21.3008  -18.3030 C   0  0  0  0  0  0  0  0  0  0  0  0
   27.8058  -22.1099  -19.3921 C   0  0  0  0  0  0  0  0  0  0  0  0
   28.6867  -21.4560  -20.1734 N   0  0  0  0  0  0  0  0  0  0  0  0
   28.9911  -20.2649  -19.6107 C   0  0  0  0  0  0  0  0  0  0  0  0
   28.2859  -20.1893  -18.4683 N   0  0  0  0  0  0  0  0  0  0  0  0
   26.6616  -22.0124  -14.7425 C   0  0  0  0  0  0  0  0  0  0  0  0
   25.8968  -23.0138  -14.5503 O   0  0  0  0  0  0  0  0  0  0  0  0
   26.7546  -20.9552  -13.8075 N   0  0  0  0  0  0  0  0  0  0  0  0
   25.9562  -20.9602  -12.5752 C   0  0  1  0  0  0  0  0  0  0  0  0
   26.6358  -19.9864  -11.6512 C   0  0  0  0  0  0  0  0  0  0  0  0
   27.7226  -20.5252  -10.8344 C   0  0  0  0  0  0  0  0  0  0  0  0
   28.8138  -21.2467  -11.2252 C   0  0  0  0  0  0  0  0  0  0  0  0
   29.5479  -21.5618  -10.1433 N   0  0  0  0  0  0  0  0  0  0  0  0
   28.9645  -21.0630   -9.0414 C   0  0  0  0  0  0  0  0  0  0  0  0
   29.2620  -21.0759   -7.6921 C   0  0  0  0  0  0  0  0  0  0  0  0
   28.4242  -20.4465   -6.7901 C   0  0  0  0  0  0  0  0  0  0  0  0
   27.2836  -19.7979   -7.2128 C   0  0  0  0  0  0  0  0  0  0  0  0
   27.0041  -19.7959   -8.5613 C   0  0  0  0  0  0  0  0  0  0  0  0
   27.8348  -20.4204   -9.4603 C   0  0  0  0  0  0  0  0  0  0  0  0
   24.5800  -20.5648  -12.8318 C   0  0  0  0  0  0  0  0  0  0  0  0
   24.4004  -19.3993  -13.3419 O   0  0  0  0  0  0  0  0  0  0  0  0
   21.1021  -23.0557  -13.0285 C   0  0  0  0  0  0  0  0  0  0  0  0
   21.3226  -21.7725  -13.8221 C   0  0  1  0  0  0  0  0  0  0  0  0
   20.0607  -21.2282  -14.0535 O   0  0  0  0  0  0  0  0  0  0  0  0
   22.0777  -20.7595  -12.9640 C   0  0  2  0  0  0  0  0  0  0  0  0
   23.3897  -21.2798  -12.6077 N   0  0  0  0  0  0  0  0  0  0  0  0
   21.2804  -20.6028  -11.7327 C   0  0  0  0  0  0  0  0  0  0  0  0
   21.6392  -20.9900  -10.5936 O   0  0  0  0  0  0  0  0  0  0  0  0
   20.0102  -19.9784  -11.7741 O   0  0  0  0  0  0  0  0  0  0  0  0
  2  1  1  6
  3  2  1  0
  3  4  1  0
  4  5  2  0
  5  6  1  0
  7  6  1  0
  8  4  1  0
  8  7  2  0
  9 10  2  0
  9  2  1  0
 11  9  1  0
 12 11  1  0
 13 14  1  0
 12 13  1  1
 14 15  2  0
 14 22  1  0
 15 16  1  0
 16 17  1  0
 17 18  2  0
 18 19  1  0
 20 19  2  0
 21 20  1  0
 22 21  2  0
 22 17  1  0
 23 29  1  0
 23 12  1  0
 24 23  2  0
 26 28  1  0
 26 25  1  1
 27 26  1  0
 28 29  1  1
 28 30  1  0
 30 32  1  0
 31 30  2  0
M  END
$$$$
