HWT.pdb
     RDKit          3D

 32 34  0  0  1  0  0  0  0  0999 V2000
   28.1669  -22.8669  -16.2784 N   0  0  0  0  0  0  0  0  0  0  0  0
   27.7811  -21.6407  -15.6056 C   0  0  1  0  0  0  0  0  0  0  0  0
   27.0004  -20.7978  -16.5977 C   0  0  0  0  0  0  0  0  0  0  0  0
   27.9597  -20.2545  -17.5852 C   0  0  0  0  0  0  0  0  0  0  0  0
   29.1206  -19.5882  -17.2466 C   0  0  0  0  0  0  0  0  0  0  0  0
   29.7313  -19.2463  -18.3973 N   0  0  0  0  0  0  0  0  0  0  0  0
   28.9925  -19.6758  -19.4450 C   0  0  0  0  0  0  0  0  0  0  0  0
   27.9138  -20.2895  -18.9273 N   0  0  0  0  0  0  0  0  0  0  0  0
   27.0288  -21.8986  -14.3678 C   0  0  0  0  0  0  0  0  0  0  0  0
   25.9510  -22.5746  -14.4446 O   0  0  0  0  0  0  0  0  0  0  0  0
   27.5091  -21.3990  -13.1347 N   0  0  0  0  0  0  0  0  0  0  0  0
   26.6822  -21.4494  -11.9223 C   0  0  1  0  0  0  0  0  0  0  0  0
   27.5342  -20.8630  -10.8295 C   0  0  0  0  0  0  0  0  0  0  0  0
   26.8379  -20.4971   -9.5967 C   0  0  0  0  0  0  0  0  0  0  0  0
   25.5132  -20.2265   -9.4068 C   0  0  0  0  0  0  0  0  0  0  0  0
   25.3059  -19.9088   -8.1165 N   0  0  0  0  0  0  0  0  0  0  0  0
   26.4682  -19.9634   -7.4461 C   0  0  0  0  0  0  0  0  0  0  0  0
   26.8471  -19.7422   -6.1358 C   0  0  0  0  0  0  0  0  0  0  0  0
   28.1700  -19.8886   -5.7613 C   0  0  0  0  0  0  0  0  0  0  0  0
   29.1319  -20.2550   -6.6782 C   0  0  0  0  0  0  0  0  0  0  0  0
   28.7348  -20.4711   -7.9792 C   0  0  0  0  0  0  0  0  0  0  0  0
   27.4208  -20.3266   -8.3546 C   0  0  0  0  0  0  0  0  0  0  0  0
   25.4501  -20.6941  -12.0875 C   0  0  0  0  0  0  0  0  0  0  0  0
   25.5694  -19.4702  -12.4603 O   0  0  0  0  0  0  0  0  0  0  0  0
   22.5374  -21.8141  -14.2343 C   0  0  0  0  0  0  0  0  0  0  0  0
   22.7817  -20.3684  -13.8156 C   0  0  1  0  0  0  0  0  0  0  0  0
   21.6070  -19.6718  -14.0931 O   0  0  0  0  0  0  0  0  0  0  0  0
   22.9777  -20.2965  -12.3026 C   0  0  2  0  0  0  0  0  0  0  0  0
   24.1185  -21.1078  -11.9033 N   0  0  0  0  0  0  0  0  0  0  0  0
   21.7559  -20.8744  -11.7115 C   0  0  0  0  0  0  0  0  0  0  0  0
   21.7029  -21.9765  -11.1123 O   0  0  0  0  0  0  0  0  0  0  0  0
   20.5225  -20.1838  -11.7931 O   0  0  0  0  0  0  0  0  0  0  0  0
  2  1  1  6
  3  2  1  0
  3  4  1  0
  4  5  2  0
  5  6  1  0
  7  6  1  0
  8  4  1  0
  8  7  2  0
  9 10  2  0
  9  2  1  0
 11  9  1  0
 12 11  1  0
 13 14  1  0
 12 13  1  1
 14 15  2  0
 14 22  1  0
 15 16  1  0
 16 17  1  0
 17 18  2  0
 18 19  1  0
 20 19  2  0
 21 20  1  0
 22 21  2  0
 22 17  1  0
 23 29  1  0
 23 12  1  0
 24 23  2  0
 26 28  1  0
 26 25  1  1
 27 26  1  0
 28 29  1  6
 28 30  1  0
 30 32  1  0
 31 30  2  0
M  END
$$$$
