HWT.pdb
     RDKit          3D

 32 34  0  0  1  0  0  0  0  0999 V2000
   27.2926  -22.4546  -15.8877 N   0  0  0  0  0  0  0  0  0  0  0  0
   26.0599  -21.7393  -16.1592 C   0  0  1  0  0  0  0  0  0  0  0  0
   25.5580  -22.1879  -17.5198 C   0  0  0  0  0  0  0  0  0  0  0  0
   26.4860  -21.6570  -18.5433 C   0  0  0  0  0  0  0  0  0  0  0  0
   26.5316  -20.3324  -18.9301 C   0  0  0  0  0  0  0  0  0  0  0  0
   27.4896  -20.2269  -19.8708 N   0  0  0  0  0  0  0  0  0  0  0  0
   28.0457  -21.4404  -20.0863 C   0  0  0  0  0  0  0  0  0  0  0  0
   27.4182  -22.3008  -19.2651 N   0  0  0  0  0  0  0  0  0  0  0  0
   25.0603  -21.9308  -15.0967 C   0  0  0  0  0  0  0  0  0  0  0  0
   24.6778  -23.1176  -14.8326 O   0  0  0  0  0  0  0  0  0  0  0  0
   24.5507  -20.8107  -14.3990 N   0  0  0  0  0  0  0  0  0  0  0  0
   23.6382  -20.9772  -13.2608 C   0  0  1  0  0  0  0  0  0  0  0  0
   24.0081  -19.8922  -12.2863 C   0  0  0  0  0  0  0  0  0  0  0  0
   25.2519  -20.0908  -11.5433 C   0  0  0  0  0  0  0  0  0  0  0  0
   26.5387  -20.0547  -11.9981 C   0  0  0  0  0  0  0  0  0  0  0  0
   27.3767  -20.3169  -10.9794 N   0  0  0  0  0  0  0  0  0  0  0  0
   26.6704  -20.5265   -9.8567 C   0  0  0  0  0  0  0  0  0  0  0  0
   26.9915  -20.8274   -8.5468 C   0  0  0  0  0  0  0  0  0  0  0  0
   25.9915  -20.9841   -7.6050 C   0  0  0  0  0  0  0  0  0  0  0  0
   24.6637  -20.8450   -7.9484 C   0  0  0  0  0  0  0  0  0  0  0  0
   24.3636  -20.5450   -9.2586 C   0  0  0  0  0  0  0  0  0  0  0  0
   25.3551  -20.3885  -10.1970 C   0  0  0  0  0  0  0  0  0  0  0  0
   22.2480  -20.8593  -13.6723 C   0  0  0  0  0  0  0  0  0  0  0  0
   21.9365  -19.8201  -14.3609 O   0  0  0  0  0  0  0  0  0  0  0  0
   20.1962  -22.5652  -16.1267 C   0  0  0  0  0  0  0  0  0  0  0  0
   19.3678  -22.5913  -14.8469 C   0  0  1  0  0  0  0  0  0  0  0  0
   19.6761  -23.7865  -14.1998 O   0  0  0  0  0  0  0  0  0  0  0  0
   19.8218  -21.4684  -13.9164 C   0  0  2  0  0  0  0  0  0  0  0  0
   21.1695  -21.7295  -13.4321 N   0  0  0  0  0  0  0  0  0  0  0  0
   18.8933  -21.4965  -12.7704 C   0  0  0  0  0  0  0  0  0  0  0  0
   19.2069  -21.8370  -11.6034 O   0  0  0  0  0  0  0  0  0  0  0  0
   17.5374  -21.1232  -12.9352 O   0  0  0  0  0  0  0  0  0  0  0  0
  2  1  1  1
  3  2  1  0
  3  4  1  0
  4  5  2  0
  5  6  1  0
  7  6  1  0
  8  4  1  0
  8  7  2  0
  9 10  2  0
  9  2  1  0
 11  9  1  0
 12 11  1  0
 13 14  1  0
 12 13  1  1
 14 15  2  0
 14 22  1  0
 15 16  1  0
 16 17  1  0
 17 18  2  0
 18 19  1  0
 20 19  2  0
 21 20  1  0
 22 21  2  0
 22 17  1  0
 23 29  1  0
 23 12  1  0
 24 23  2  0
 26 28  1  0
 26 25  1  6
 27 26  1  0
 28 29  1  1
 28 30  1  0
 30 32  1  0
 31 30  2  0
M  END
$$$$
