HWT.pdb
     RDKit          3D

 32 34  0  0  1  0  0  0  0  0999 V2000
   22.1070  -21.0549  -13.0934 N   0  0  0  0  0  0  0  0  0  0  0  0
   21.2193  -20.4285  -14.0549 C   0  0  1  0  0  0  0  0  0  0  0  0
   20.1269  -19.7174  -13.2770 C   0  0  0  0  0  0  0  0  0  0  0  0
   19.3567  -20.7418  -12.5368 C   0  0  0  0  0  0  0  0  0  0  0  0
   19.7434  -22.0621  -12.4198 C   0  0  0  0  0  0  0  0  0  0  0  0
   18.8046  -22.6863  -11.6829 N   0  0  0  0  0  0  0  0  0  0  0  0
   17.8431  -21.8019  -11.3344 C   0  0  0  0  0  0  0  0  0  0  0  0
   18.1993  -20.6192  -11.8661 N   0  0  0  0  0  0  0  0  0  0  0  0
   21.9377  -19.5292  -14.9713 C   0  0  0  0  0  0  0  0  0  0  0  0
   22.0431  -18.2995  -14.6532 O   0  0  0  0  0  0  0  0  0  0  0  0
   22.4894  -20.0390  -16.1699 N   0  0  0  0  0  0  0  0  0  0  0  0
   23.3023  -19.1914  -17.0512 C   0  0  1  0  0  0  0  0  0  0  0  0
   24.7323  -19.4957  -16.6956 C   0  0  0  0  0  0  0  0  0  0  0  0
   25.3431  -18.6303  -15.6874 C   0  0  0  0  0  0  0  0  0  0  0  0
   25.4237  -18.8103  -14.3364 C   0  0  0  0  0  0  0  0  0  0  0  0
   26.0489  -17.7551  -13.7848 N   0  0  0  0  0  0  0  0  0  0  0  0
   26.3850  -16.8777  -14.7442 C   0  0  0  0  0  0  0  0  0  0  0  0
   27.0247  -15.6530  -14.7623 C   0  0  0  0  0  0  0  0  0  0  0  0
   27.2179  -14.9880  -15.9590 C   0  0  0  0  0  0  0  0  0  0  0  0
   26.7805  -15.5267  -17.1502 C   0  0  0  0  0  0  0  0  0  0  0  0
   26.1452  -16.7481  -17.1118 C   0  0  0  0  0  0  0  0  0  0  0  0
   25.9518  -17.4116  -15.9241 C   0  0  0  0  0  0  0  0  0  0  0  0
   23.0397  -19.4765  -18.4532 C   0  0  0  0  0  0  0  0  0  0  0  0
   22.9172  -20.7139  -18.7770 O   0  0  0  0  0  0  0  0  0  0  0  0
   20.2419  -18.4262  -20.9944 C   0  0  0  0  0  0  0  0  0  0  0  0
   21.6221  -18.1437  -21.5778 C   0  0  1  0  0  0  0  0  0  0  0  0
   21.9390  -16.8324  -21.2281 O   0  0  0  0  0  0  0  0  0  0  0  0
   22.6606  -19.0337  -20.8980 C   0  0  2  0  0  0  0  0  0  0  0  0
   22.8905  -18.5864  -19.5320 N   0  0  0  0  0  0  0  0  0  0  0  0
   23.9059  -18.8586  -21.6693 C   0  0  0  0  0  0  0  0  0  0  0  0
   24.9129  -18.2249  -21.2684 O   0  0  0  0  0  0  0  0  0  0  0  0
   24.0358  -19.4225  -22.9615 O   0  0  0  0  0  0  0  0  0  0  0  0
  2  1  1  1
  3  2  1  0
  3  4  1  0
  4  5  2  0
  5  6  1  0
  7  6  1  0
  8  4  1  0
  8  7  2  0
  9 10  2  0
  9  2  1  0
 11  9  1  0
 12 11  1  0
 13 14  1  0
 12 13  1  1
 14 15  2  0
 14 22  1  0
 15 16  1  0
 16 17  1  0
 17 18  2  0
 18 19  1  0
 20 19  2  0
 21 20  1  0
 22 21  2  0
 22 17  1  0
 23 29  1  0
 23 12  1  0
 24 23  2  0
 26 28  1  0
 26 25  1  1
 27 26  1  0
 28 29  1  1
 28 30  1  0
 30 32  1  0
 31 30  2  0
M  END
$$$$
