APE.pdb
     RDKit          3D

 22 22  0  0  1  0  0  0  0  0999 V2000
    6.5527  -15.2844   22.4559 C   0  0  0  0  0  0  0  0  0  0  0  0
    7.5091  -14.1128   22.4929 C   0  0  2  0  0  0  0  0  0  0  0  0
    8.4202  -14.2100   21.4005 N   0  0  0  0  0  0  0  0  0  0  0  0
    8.1418  -14.0552   23.8277 C   0  0  0  0  0  0  0  0  0  0  0  0
    9.2547  -14.6756   23.9155 O   0  0  0  0  0  0  0  0  0  0  0  0
    7.6309  -13.3984   24.9533 N   0  0  0  0  0  0  0  0  0  0  0  0
    6.4241  -12.6020   24.9546 C   0  0  0  0  0  0  0  0  0  0  0  0
    6.2944  -11.9185   26.2718 C   0  0  0  0  0  0  0  0  0  0  0  0
    7.2649  -12.6347   27.1633 C   0  0  0  0  0  0  0  0  0  0  0  0
    8.1903  -13.3977   26.2687 C   0  0  1  0  0  0  0  0  0  0  0  0
    8.4314  -14.7571   26.8013 C   0  0  0  0  0  0  0  0  0  0  0  0
    7.5688  -15.6565   26.6563 O   0  0  0  0  0  0  0  0  0  0  0  0
    9.6182  -15.0962   27.4824 N   0  0  0  0  0  0  0  0  0  0  0  0
    9.8457  -16.4385   28.0755 C   0  0  1  0  0  0  0  0  0  0  0  0
   10.5228  -17.2593   27.0576 C   0  0  0  0  0  0  0  0  0  0  0  0
   11.7518  -16.8294   26.3961 C   0  0  0  0  0  0  0  0  0  0  0  0
   12.4463  -17.7276   25.4922 C   0  0  0  0  0  0  0  0  0  0  0  0
   12.0291  -18.8877   25.2440 O   0  0  0  0  0  0  0  0  0  0  0  0
   10.5524  -16.3057   29.3404 C   0  0  0  0  0  0  0  0  0  0  0  0
   10.7765  -17.3500   30.0486 O   0  0  0  0  0  0  0  0  0  0  0  0
   13.6206  -17.3560   24.8439 O   0  0  0  0  0  0  0  0  0  0  0  0
   11.0447  -15.1338   29.8969 O   0  0  0  0  0  0  0  0  0  0  0  0
  2  1  1  1
  2  3  1  0
  4  2  1  0
  5  4  2  0
  6  4  1  0
  6  7  1  0
  8  7  1  0
  9 10  1  0
  9  8  1  0
 10  6  1  0
 10 11  1  1
 11 13  1  0
 12 11  2  0
 13 14  1  0
 14 19  1  0
 14 15  1  6
 15 16  1  0
 16 17  1  0
 17 18  2  0
 19 22  1  0
 20 19  2  0
 21 17  1  0
M  END
$$$$
