APE.pdb
     RDKit          3D

 22 22  0  0  1  0  0  0  0  0999 V2000
    6.4343  -15.1818   22.0057 C   0  0  0  0  0  0  0  0  0  0  0  0
    7.0437  -13.8012   22.1121 C   0  0  2  0  0  0  0  0  0  0  0  0
    7.8291  -13.5392   20.9513 N   0  0  0  0  0  0  0  0  0  0  0  0
    7.7737  -13.6992   23.3935 C   0  0  0  0  0  0  0  0  0  0  0  0
    8.9708  -14.1430   23.3600 O   0  0  0  0  0  0  0  0  0  0  0  0
    7.2690  -13.1741   24.5890 N   0  0  0  0  0  0  0  0  0  0  0  0
    5.9486  -12.6033   24.7353 C   0  0  0  0  0  0  0  0  0  0  0  0
    5.8316  -11.9900   26.0878 C   0  0  0  0  0  0  0  0  0  0  0  0
    6.9934  -12.5483   26.8547 C   0  0  0  0  0  0  0  0  0  0  0  0
    7.9452  -13.1112   25.8467 C   0  0  1  0  0  0  0  0  0  0  0  0
    8.4684  -14.4209   26.2944 C   0  0  0  0  0  0  0  0  0  0  0  0
    7.8158  -15.4707   26.0798 O   0  0  0  0  0  0  0  0  0  0  0  0
    9.6999  -14.5457   26.9691 N   0  0  0  0  0  0  0  0  0  0  0  0
   10.3986  -15.8466   27.1267 C   0  0  1  0  0  0  0  0  0  0  0  0
   11.6597  -15.7621   26.3711 C   0  0  0  0  0  0  0  0  0  0  0  0
   12.6663  -16.8196   26.4075 C   0  0  0  0  0  0  0  0  0  0  0  0
   13.9409  -16.6366   25.7382 C   0  0  0  0  0  0  0  0  0  0  0  0
   14.2296  -15.5820   25.1171 O   0  0  0  0  0  0  0  0  0  0  0  0
   10.5387  -16.1635   28.5399 C   0  0  0  0  0  0  0  0  0  0  0  0
   10.4143  -15.2303   29.4093 O   0  0  0  0  0  0  0  0  0  0  0  0
   14.9234  -17.6225   25.7445 O   0  0  0  0  0  0  0  0  0  0  0  0
   10.7937  -17.4120   29.0890 O   0  0  0  0  0  0  0  0  0  0  0  0
  2  1  1  6
  2  3  1  0
  4  2  1  0
  5  4  2  0
  6  4  1  0
  6  7  1  0
  8  7  1  0
  9 10  1  0
  9  8  1  0
 10  6  1  0
 10 11  1  1
 11 13  1  0
 12 11  2  0
 13 14  1  0
 14 19  1  0
 14 15  1  1
 15 16  1  0
 16 17  1  0
 17 18  2  0
 19 22  1  0
 20 19  2  0
 21 17  1  0
M  END
$$$$
