APE.pdb
     RDKit          3D

 22 22  0  0  1  0  0  0  0  0999 V2000
    6.7226  -14.8604   20.4104 C   0  0  0  0  0  0  0  0  0  0  0  0
    7.2733  -13.5298   20.8740 C   0  0  2  0  0  0  0  0  0  0  0  0
    8.0039  -12.9229   19.8106 N   0  0  0  0  0  0  0  0  0  0  0  0
    8.0437  -13.7395   22.1181 C   0  0  0  0  0  0  0  0  0  0  0  0
    9.2338  -14.1676   21.9405 O   0  0  0  0  0  0  0  0  0  0  0  0
    7.5826  -13.5125   23.4202 N   0  0  0  0  0  0  0  0  0  0  0  0
    6.2606  -13.0239   23.7432 C   0  0  0  0  0  0  0  0  0  0  0  0
    6.1921  -12.7367   25.2033 C   0  0  0  0  0  0  0  0  0  0  0  0
    7.3948  -13.4245   25.7777 C   0  0  0  0  0  0  0  0  0  0  0  0
    8.3113  -13.7193   24.6323 C   0  0  1  0  0  0  0  0  0  0  0  0
    8.8746  -15.0826   24.7495 C   0  0  0  0  0  0  0  0  0  0  0  0
    8.2917  -16.0569   24.2156 O   0  0  0  0  0  0  0  0  0  0  0  0
   10.0683  -15.3430   25.4528 N   0  0  0  0  0  0  0  0  0  0  0  0
   10.7828  -16.6419   25.3646 C   0  0  1  0  0  0  0  0  0  0  0  0
   12.1473  -16.3610   24.8877 C   0  0  0  0  0  0  0  0  0  0  0  0
   13.1621  -17.4035   24.7605 C   0  0  0  0  0  0  0  0  0  0  0  0
   14.5219  -17.0566   24.3908 C   0  0  0  0  0  0  0  0  0  0  0  0
   14.8466  -15.8955   24.0329 O   0  0  0  0  0  0  0  0  0  0  0  0
   10.6989  -17.3388   26.6391 C   0  0  0  0  0  0  0  0  0  0  0  0
   10.4704  -16.6699   27.7081 O   0  0  0  0  0  0  0  0  0  0  0  0
   15.5515  -17.9930   24.4105 O   0  0  0  0  0  0  0  0  0  0  0  0
   10.8335  -18.7038   26.8489 O   0  0  0  0  0  0  0  0  0  0  0  0
  2  1  1  6
  2  3  1  0
  4  2  1  0
  5  4  2  0
  6  4  1  0
  6  7  1  0
  8  7  1  0
  9 10  1  0
  9  8  1  0
 10  6  1  0
 10 11  1  1
 11 13  1  0
 12 11  2  0
 13 14  1  0
 14 19  1  0
 14 15  1  1
 15 16  1  0
 16 17  1  0
 17 18  2  0
 19 22  1  0
 20 19  2  0
 21 17  1  0
M  END
$$$$
