APE.pdb
     RDKit          3D

 22 22  0  0  1  0  0  0  0  0999 V2000
    7.5924  -18.2831   18.7983 C   0  0  0  0  0  0  0  0  0  0  0  0
    8.1585  -16.9309   18.4242 C   0  0  2  0  0  0  0  0  0  0  0  0
    8.9922  -17.0675   17.2756 N   0  0  0  0  0  0  0  0  0  0  0  0
    8.8221  -16.3469   19.6090 C   0  0  0  0  0  0  0  0  0  0  0  0
   10.0159  -16.7561   19.8051 O   0  0  0  0  0  0  0  0  0  0  0  0
    8.2604  -15.4182   20.4931 N   0  0  0  0  0  0  0  0  0  0  0  0
    6.9416  -14.8446   20.3433 C   0  0  0  0  0  0  0  0  0  0  0  0
    6.7596  -13.7725   21.3614 C   0  0  0  0  0  0  0  0  0  0  0  0
    7.8708  -13.9954   22.3438 C   0  0  0  0  0  0  0  0  0  0  0  0
    8.8683  -14.8858   21.6721 C   0  0  1  0  0  0  0  0  0  0  0  0
    9.3493  -15.9301   22.6035 C   0  0  0  0  0  0  0  0  0  0  0  0
    8.7605  -17.0357   22.6744 O   0  0  0  0  0  0  0  0  0  0  0  0
   10.4691  -15.7336   23.4370 N   0  0  0  0  0  0  0  0  0  0  0  0
   11.0319  -16.8115   24.2897 C   0  0  1  0  0  0  0  0  0  0  0  0
   12.4516  -16.9610   23.9285 C   0  0  0  0  0  0  0  0  0  0  0  0
   13.4083  -15.8636   24.0438 C   0  0  0  0  0  0  0  0  0  0  0  0
   14.8096  -16.0821   23.7360 C   0  0  0  0  0  0  0  0  0  0  0  0
   15.3890  -15.4970   22.7856 O   0  0  0  0  0  0  0  0  0  0  0  0
   10.7726  -16.5182   25.6911 C   0  0  0  0  0  0  0  0  0  0  0  0
   10.3073  -15.3697   26.0179 O   0  0  0  0  0  0  0  0  0  0  0  0
   15.5982  -16.9567   24.4780 O   0  0  0  0  0  0  0  0  0  0  0  0
   10.9681  -17.3718   26.7674 O   0  0  0  0  0  0  0  0  0  0  0  0
  2  1  1  1
  2  3  1  0
  4  2  1  0
  5  4  2  0
  6  4  1  0
  6  7  1  0
  8  7  1  0
  9 10  1  0
  9  8  1  0
 10  6  1  0
 10 11  1  1
 11 13  1  0
 12 11  2  0
 13 14  1  0
 14 19  1  0
 14 15  1  1
 15 16  1  0
 16 17  1  0
 17 18  2  0
 19 22  1  0
 20 19  2  0
 21 17  1  0
M  END
$$$$
