APE.pdb
     RDKit          3D

 22 22  0  0  1  0  0  0  0  0999 V2000
    8.2781  -16.5529   15.8603 C   0  0  0  0  0  0  0  0  0  0  0  0
    8.8720  -15.1623   15.8102 C   0  0  2  0  0  0  0  0  0  0  0  0
    9.8053  -15.0842   14.7351 N   0  0  0  0  0  0  0  0  0  0  0  0
    9.4257  -14.8317   17.1403 C   0  0  0  0  0  0  0  0  0  0  0  0
   10.6239  -15.2304   17.3313 O   0  0  0  0  0  0  0  0  0  0  0  0
    8.7601  -14.1429   18.1612 N   0  0  0  0  0  0  0  0  0  0  0  0
    7.4067  -13.6442   18.0600 C   0  0  0  0  0  0  0  0  0  0  0  0
    7.1031  -12.8160   19.2604 C   0  0  0  0  0  0  0  0  0  0  0  0
    8.1910  -13.1556   20.2354 C   0  0  0  0  0  0  0  0  0  0  0  0
    9.2799  -13.8195   19.4528 C   0  0  1  0  0  0  0  0  0  0  0  0
    9.8067  -14.9949   20.1812 C   0  0  0  0  0  0  0  0  0  0  0  0
    9.3223  -16.1345   19.9795 O   0  0  0  0  0  0  0  0  0  0  0  0
   10.8562  -14.8892   21.1164 N   0  0  0  0  0  0  0  0  0  0  0  0
   11.4374  -16.0697   21.8049 C   0  0  1  0  0  0  0  0  0  0  0  0
   12.8364  -16.1917   21.3618 C   0  0  0  0  0  0  0  0  0  0  0  0
   13.7686  -15.0679   21.3943 C   0  0  0  0  0  0  0  0  0  0  0  0
   15.1384  -15.2433   20.9482 C   0  0  0  0  0  0  0  0  0  0  0  0
   15.9322  -14.2769   20.8162 O   0  0  0  0  0  0  0  0  0  0  0  0
   11.2473  -15.9459   23.2421 C   0  0  0  0  0  0  0  0  0  0  0  0
   10.7469  -14.8672   23.7201 O   0  0  0  0  0  0  0  0  0  0  0  0
   15.6564  -16.4975   20.6385 O   0  0  0  0  0  0  0  0  0  0  0  0
   11.5468  -16.9001   24.2040 O   0  0  0  0  0  0  0  0  0  0  0  0
  2  1  1  1
  2  3  1  0
  4  2  1  0
  5  4  2  0
  6  4  1  0
  6  7  1  0
  8  7  1  0
  9 10  1  0
  9  8  1  0
 10  6  1  0
 10 11  1  1
 11 13  1  0
 12 11  2  0
 13 14  1  0
 14 19  1  0
 14 15  1  1
 15 16  1  0
 16 17  1  0
 17 18  2  0
 19 22  1  0
 20 19  2  0
 21 17  1  0
M  END
$$$$
