APE.pdb
     RDKit          3D

 22 22  0  0  1  0  0  0  0  0999 V2000
    7.7060  -16.9673   17.1422 C   0  0  0  0  0  0  0  0  0  0  0  0
    8.6308  -15.7724   17.0666 C   0  0  2  0  0  0  0  0  0  0  0  0
    9.6692  -16.0356   16.1256 N   0  0  0  0  0  0  0  0  0  0  0  0
    9.0959  -15.4418   18.4304 C   0  0  0  0  0  0  0  0  0  0  0  0
   10.1004  -16.1224   18.8288 O   0  0  0  0  0  0  0  0  0  0  0  0
    8.5385  -14.4784   19.2793 N   0  0  0  0  0  0  0  0  0  0  0  0
    7.4421  -13.6084   18.9164 C   0  0  0  0  0  0  0  0  0  0  0  0
    7.2416  -12.6029   19.9970 C   0  0  0  0  0  0  0  0  0  0  0  0
    8.0104  -13.1477   21.1638 C   0  0  0  0  0  0  0  0  0  0  0  0
    8.9372  -14.1896   20.6212 C   0  0  1  0  0  0  0  0  0  0  0  0
    8.9527  -15.3834   21.4954 C   0  0  0  0  0  0  0  0  0  0  0  0
    8.1987  -16.3563   21.2525 O   0  0  0  0  0  0  0  0  0  0  0  0
    9.7990  -15.4795   22.6187 N   0  0  0  0  0  0  0  0  0  0  0  0
    9.9081  -16.7146   23.4361 C   0  0  1  0  0  0  0  0  0  0  0  0
   10.6243  -17.7148   22.6270 C   0  0  0  0  0  0  0  0  0  0  0  0
   12.0116  -17.5345   22.2075 C   0  0  0  0  0  0  0  0  0  0  0  0
   12.6760  -18.5600   21.4245 C   0  0  0  0  0  0  0  0  0  0  0  0
   12.1098  -19.6371   21.1074 O   0  0  0  0  0  0  0  0  0  0  0  0
   10.5137  -16.4034   24.7220 C   0  0  0  0  0  0  0  0  0  0  0  0
   11.0294  -15.2455   24.9110 O   0  0  0  0  0  0  0  0  0  0  0  0
   13.9853  -18.4106   20.9764 O   0  0  0  0  0  0  0  0  0  0  0  0
   10.5981  -17.2423   25.8241 O   0  0  0  0  0  0  0  0  0  0  0  0
  2  1  1  1
  2  3  1  0
  4  2  1  0
  5  4  2  0
  6  4  1  0
  6  7  1  0
  8  7  1  0
  9 10  1  0
  9  8  1  0
 10  6  1  0
 10 11  1  1
 11 13  1  0
 12 11  2  0
 13 14  1  0
 14 19  1  0
 14 15  1  6
 15 16  1  0
 16 17  1  0
 17 18  2  0
 19 22  1  0
 20 19  2  0
 21 17  1  0
M  END
$$$$
