APE.pdb
     RDKit          3D

 22 22  0  0  1  0  0  0  0  0999 V2000
    6.6746  -17.2217   20.3054 C   0  0  0  0  0  0  0  0  0  0  0  0
    7.1204  -16.8149   18.9181 C   0  0  2  0  0  0  0  0  0  0  0  0
    7.2272  -17.9746   18.0956 N   0  0  0  0  0  0  0  0  0  0  0  0
    8.3585  -16.0150   19.0300 C   0  0  0  0  0  0  0  0  0  0  0  0
    9.4379  -16.6940   18.9600 O   0  0  0  0  0  0  0  0  0  0  0  0
    8.4296  -14.6274   19.1999 N   0  0  0  0  0  0  0  0  0  0  0  0
    7.2845  -13.7447   19.1867 C   0  0  0  0  0  0  0  0  0  0  0  0
    7.7588  -12.3329   19.2167 C   0  0  0  0  0  0  0  0  0  0  0  0
    9.1993  -12.4297   19.6230 C   0  0  0  0  0  0  0  0  0  0  0  0
    9.6116  -13.8529   19.4147 C   0  0  1  0  0  0  0  0  0  0  0  0
   10.4264  -14.3342   20.5523 C   0  0  0  0  0  0  0  0  0  0  0  0
    9.8717  -14.7365   21.6033 O   0  0  0  0  0  0  0  0  0  0  0  0
   11.8351  -14.3619   20.5073 N   0  0  0  0  0  0  0  0  0  0  0  0
   12.6571  -15.0212   21.5537 C   0  0  1  0  0  0  0  0  0  0  0  0
   12.2531  -16.4364   21.6026 C   0  0  0  0  0  0  0  0  0  0  0  0
   12.9204  -17.4117   22.4607 C   0  0  0  0  0  0  0  0  0  0  0  0
   12.5800  -18.8194   22.3670 C   0  0  0  0  0  0  0  0  0  0  0  0
   11.7074  -19.2490   21.5698 O   0  0  0  0  0  0  0  0  0  0  0  0
   14.0691  -14.7847   21.2940 C   0  0  0  0  0  0  0  0  0  0  0  0
   14.4421  -14.4295   20.1206 O   0  0  0  0  0  0  0  0  0  0  0  0
   13.2021  -19.7810   23.1579 O   0  0  0  0  0  0  0  0  0  0  0  0
   15.1099  -14.8927   22.2054 O   0  0  0  0  0  0  0  0  0  0  0  0
  2  1  1  1
  2  3  1  0
  4  2  1  0
  5  4  2  0
  6  4  1  0
  6  7  1  0
  8  7  1  0
  9 10  1  0
  9  8  1  0
 10  6  1  0
 10 11  1  1
 11 13  1  0
 12 11  2  0
 13 14  1  0
 14 19  1  0
 14 15  1  6
 15 16  1  0
 16 17  1  0
 17 18  2  0
 19 22  1  0
 20 19  2  0
 21 17  1  0
M  END
$$$$
