APE.pdb
     RDKit          3D

 22 22  0  0  1  0  0  0  0  0999 V2000
    5.4627  -17.6244   20.8369 C   0  0  0  0  0  0  0  0  0  0  0  0
    6.0881  -17.2148   19.5216 C   0  0  2  0  0  0  0  0  0  0  0  0
    6.1416  -18.3425   18.6508 N   0  0  0  0  0  0  0  0  0  0  0  0
    7.3930  -16.5750   19.7924 C   0  0  0  0  0  0  0  0  0  0  0  0
    8.3747  -17.3871   19.8816 O   0  0  0  0  0  0  0  0  0  0  0  0
    7.6200  -15.2029   19.9512 N   0  0  0  0  0  0  0  0  0  0  0  0
    6.6261  -14.1795   19.7154 C   0  0  0  0  0  0  0  0  0  0  0  0
    7.2744  -12.8417   19.8100 C   0  0  0  0  0  0  0  0  0  0  0  0
    8.5922  -13.1095   20.4742 C   0  0  0  0  0  0  0  0  0  0  0  0
    8.8384  -14.5814   20.3665 C   0  0  1  0  0  0  0  0  0  0  0  0
    9.3633  -15.1195   21.6411 C   0  0  0  0  0  0  0  0  0  0  0  0
    8.5774  -15.4381   22.5657 O   0  0  0  0  0  0  0  0  0  0  0  0
   10.7433  -15.2948   21.8695 N   0  0  0  0  0  0  0  0  0  0  0  0
   11.2751  -15.9758   23.0773 C   0  0  1  0  0  0  0  0  0  0  0  0
   10.7653  -17.3572   23.0628 C   0  0  0  0  0  0  0  0  0  0  0  0
   11.2459  -18.3787   23.9893 C   0  0  0  0  0  0  0  0  0  0  0  0
   10.6740  -19.7122   23.9655 C   0  0  0  0  0  0  0  0  0  0  0  0
   10.0216  -20.1820   24.9325 O   0  0  0  0  0  0  0  0  0  0  0  0
   12.7238  -15.8464   23.1191 C   0  0  0  0  0  0  0  0  0  0  0  0
   13.3496  -16.1276   24.2015 O   0  0  0  0  0  0  0  0  0  0  0  0
   10.8147  -20.5536   22.8657 O   0  0  0  0  0  0  0  0  0  0  0  0
   13.5514  -15.4456   22.0800 O   0  0  0  0  0  0  0  0  0  0  0  0
  2  1  1  1
  2  3  1  0
  4  2  1  0
  5  4  2  0
  6  4  1  0
  6  7  1  0
  8  7  1  0
  9 10  1  0
  9  8  1  0
 10  6  1  0
 10 11  1  1
 11 13  1  0
 12 11  2  0
 13 14  1  0
 14 19  1  0
 14 15  1  6
 15 16  1  0
 16 17  1  0
 17 18  2  0
 19 22  1  0
 20 19  2  0
 21 17  1  0
M  END
$$$$
