APE.pdb
     RDKit          3D

 22 22  0  0  1  0  0  0  0  0999 V2000
    8.5451  -16.5864   16.6248 C   0  0  0  0  0  0  0  0  0  0  0  0
    9.2414  -15.2433   16.6218 C   0  0  2  0  0  0  0  0  0  0  0  0
   10.3165  -15.2690   15.6855 N   0  0  0  0  0  0  0  0  0  0  0  0
    9.6305  -14.9044   18.0071 C   0  0  0  0  0  0  0  0  0  0  0  0
   10.7798  -15.3375   18.3573 O   0  0  0  0  0  0  0  0  0  0  0  0
    8.8631  -14.1746   18.9226 N   0  0  0  0  0  0  0  0  0  0  0  0
    7.5850  -13.5716   18.6170 C   0  0  0  0  0  0  0  0  0  0  0  0
    7.1554  -12.7326   19.7705 C   0  0  0  0  0  0  0  0  0  0  0  0
    8.0439  -13.1636   20.8994 C   0  0  0  0  0  0  0  0  0  0  0  0
    9.1913  -13.9034   20.2870 C   0  0  1  0  0  0  0  0  0  0  0  0
    9.5044  -15.1221   21.0657 C   0  0  0  0  0  0  0  0  0  0  0  0
    9.0900  -16.2426   20.6823 O   0  0  0  0  0  0  0  0  0  0  0  0
   10.2674  -15.0800   22.2503 N   0  0  0  0  0  0  0  0  0  0  0  0
   10.8015  -16.3024   22.9029 C   0  0  1  0  0  0  0  0  0  0  0  0
   12.1548  -16.5297   22.3688 C   0  0  0  0  0  0  0  0  0  0  0  0
   13.2713  -15.6339   22.6586 C   0  0  0  0  0  0  0  0  0  0  0  0
   14.5938  -15.9241   22.1361 C   0  0  0  0  0  0  0  0  0  0  0  0
   15.5628  -15.1360   22.2820 O   0  0  0  0  0  0  0  0  0  0  0  0
   10.7167  -16.1669   24.3491 C   0  0  0  0  0  0  0  0  0  0  0  0
   10.3415  -15.0511   24.8556 O   0  0  0  0  0  0  0  0  0  0  0  0
   14.8685  -17.0973   21.4394 O   0  0  0  0  0  0  0  0  0  0  0  0
   10.9968  -17.1455   25.2921 O   0  0  0  0  0  0  0  0  0  0  0  0
  2  1  1  1
  2  3  1  0
  4  2  1  0
  5  4  2  0
  6  4  1  0
  6  7  1  0
  8  7  1  0
  9 10  1  0
  9  8  1  0
 10  6  1  0
 10 11  1  1
 11 13  1  0
 12 11  2  0
 13 14  1  0
 14 19  1  0
 14 15  1  1
 15 16  1  0
 16 17  1  0
 17 18  2  0
 19 22  1  0
 20 19  2  0
 21 17  1  0
M  END
$$$$
