APE.pdb
     RDKit          3D

 22 22  0  0  1  0  0  0  0  0999 V2000
    5.6000  -16.8310   22.0938 C   0  0  0  0  0  0  0  0  0  0  0  0
    6.0935  -17.0548   20.6813 C   0  0  2  0  0  0  0  0  0  0  0  0
    5.9500  -18.4321   20.3418 N   0  0  0  0  0  0  0  0  0  0  0  0
    7.4691  -16.5257   20.5670 C   0  0  0  0  0  0  0  0  0  0  0  0
    8.3880  -17.3734   20.8281 O   0  0  0  0  0  0  0  0  0  0  0  0
    7.8215  -15.2192   20.2087 N   0  0  0  0  0  0  0  0  0  0  0  0
    6.8744  -14.1935   19.8323 C   0  0  0  0  0  0  0  0  0  0  0  0
    7.6197  -12.9983   19.3475 C   0  0  0  0  0  0  0  0  0  0  0  0
    9.0303  -13.2251   19.8039 C   0  0  0  0  0  0  0  0  0  0  0  0
    9.1423  -14.6754   20.1545 C   0  0  1  0  0  0  0  0  0  0  0  0
    9.8990  -14.8532   21.4136 C   0  0  0  0  0  0  0  0  0  0  0  0
    9.3244  -14.7246   22.5215 O   0  0  0  0  0  0  0  0  0  0  0  0
   11.2729  -15.1688   21.4249 N   0  0  0  0  0  0  0  0  0  0  0  0
   11.9928  -15.5684   22.6608 C   0  0  1  0  0  0  0  0  0  0  0  0
   11.3859  -16.8229   23.1364 C   0  0  0  0  0  0  0  0  0  0  0  0
   11.9790  -17.6238   24.2039 C   0  0  0  0  0  0  0  0  0  0  0  0
   11.3151  -18.8284   24.6669 C   0  0  0  0  0  0  0  0  0  0  0  0
   11.8566  -19.9616   24.6046 O   0  0  0  0  0  0  0  0  0  0  0  0
   13.4233  -15.6270   22.4015 C   0  0  0  0  0  0  0  0  0  0  0  0
   13.8390  -15.7877   21.2000 O   0  0  0  0  0  0  0  0  0  0  0  0
   10.0336  -18.7999   25.2096 O   0  0  0  0  0  0  0  0  0  0  0  0
   14.4415  -15.5163   23.3377 O   0  0  0  0  0  0  0  0  0  0  0  0
  2  1  1  1
  2  3  1  0
  4  2  1  0
  5  4  2  0
  6  4  1  0
  6  7  1  0
  8  7  1  0
  9 10  1  0
  9  8  1  0
 10  6  1  0
 10 11  1  1
 11 13  1  0
 12 11  2  0
 13 14  1  0
 14 19  1  0
 14 15  1  6
 15 16  1  0
 16 17  1  0
 17 18  2  0
 19 22  1  0
 20 19  2  0
 21 17  1  0
M  END
$$$$
