APE.pdb
     RDKit          3D

 22 22  0  0  1  0  0  0  0  0999 V2000
    7.2621  -17.6066   17.8772 C   0  0  0  0  0  0  0  0  0  0  0  0
    8.0965  -16.3986   17.5120 C   0  0  2  0  0  0  0  0  0  0  0  0
    8.9830  -16.7390   16.4484 N   0  0  0  0  0  0  0  0  0  0  0  0
    8.7560  -15.8875   18.7323 C   0  0  0  0  0  0  0  0  0  0  0  0
    9.8197  -16.5123   19.0629 O   0  0  0  0  0  0  0  0  0  0  0  0
    8.3174  -14.8147   19.5173 N   0  0  0  0  0  0  0  0  0  0  0  0
    7.1733  -13.9884   19.2025 C   0  0  0  0  0  0  0  0  0  0  0  0
    7.1205  -12.8471   20.1583 C   0  0  0  0  0  0  0  0  0  0  0  0
    8.0523  -13.2415   21.2655 C   0  0  0  0  0  0  0  0  0  0  0  0
    8.9008  -14.3558   20.7388 C   0  0  1  0  0  0  0  0  0  0  0  0
    9.0507  -15.4240   21.7517 C   0  0  0  0  0  0  0  0  0  0  0  0
    8.2161  -16.3586   21.8150 O   0  0  0  0  0  0  0  0  0  0  0  0
   10.1173  -15.4395   22.6733 N   0  0  0  0  0  0  0  0  0  0  0  0
   10.3310  -16.5528   23.6326 C   0  0  1  0  0  0  0  0  0  0  0  0
   11.7041  -17.0462   23.4339 C   0  0  0  0  0  0  0  0  0  0  0  0
   12.8596  -16.1537   23.4022 C   0  0  0  0  0  0  0  0  0  0  0  0
   14.1908  -16.6912   23.1897 C   0  0  0  0  0  0  0  0  0  0  0  0
   15.2054  -15.9552   23.0880 O   0  0  0  0  0  0  0  0  0  0  0  0
   10.0174  -16.1084   24.9822 C   0  0  0  0  0  0  0  0  0  0  0  0
    9.7818  -14.8672   25.1971 O   0  0  0  0  0  0  0  0  0  0  0  0
   14.4238  -18.0595   23.0854 O   0  0  0  0  0  0  0  0  0  0  0  0
    9.9291  -16.9015   26.1174 O   0  0  0  0  0  0  0  0  0  0  0  0
  2  1  1  1
  2  3  1  0
  4  2  1  0
  5  4  2  0
  6  4  1  0
  6  7  1  0
  8  7  1  0
  9 10  1  0
  9  8  1  0
 10  6  1  0
 10 11  1  1
 11 13  1  0
 12 11  2  0
 13 14  1  0
 14 19  1  0
 14 15  1  1
 15 16  1  0
 16 17  1  0
 17 18  2  0
 19 22  1  0
 20 19  2  0
 21 17  1  0
M  END
$$$$
