APE.pdb
     RDKit          3D

 22 22  0  0  1  0  0  0  0  0999 V2000
    7.5667  -11.7974   26.4357 C   0  0  0  0  0  0  0  0  0  0  0  0
    6.4878  -12.5806   25.7205 C   0  0  2  0  0  0  0  0  0  0  0  0
    5.4310  -12.8726   26.6320 N   0  0  0  0  0  0  0  0  0  0  0  0
    7.1016  -13.7630   25.0798 C   0  0  0  0  0  0  0  0  0  0  0  0
    7.2870  -14.7552   25.8623 O   0  0  0  0  0  0  0  0  0  0  0  0
    7.4779  -13.8685   23.7356 N   0  0  0  0  0  0  0  0  0  0  0  0
    7.2598  -12.8383   22.7447 C   0  0  0  0  0  0  0  0  0  0  0  0
    7.6229  -13.3712   21.4019 C   0  0  0  0  0  0  0  0  0  0  0  0
    8.4086  -14.6155   21.6919 C   0  0  0  0  0  0  0  0  0  0  0  0
    8.1301  -14.9794   23.1162 C   0  0  1  0  0  0  0  0  0  0  0  0
    9.3746  -15.3849   23.8064 C   0  0  0  0  0  0  0  0  0  0  0  0
   10.1564  -14.5171   24.2644 O   0  0  0  0  0  0  0  0  0  0  0  0
    9.7309  -16.7381   23.9771 N   0  0  0  0  0  0  0  0  0  0  0  0
   10.9741  -17.1574   24.6729 C   0  0  1  0  0  0  0  0  0  0  0  0
   10.5776  -18.0186   25.7995 C   0  0  0  0  0  0  0  0  0  0  0  0
   11.5543  -18.6723   26.6665 C   0  0  0  0  0  0  0  0  0  0  0  0
   11.1094  -19.5197   27.7575 C   0  0  0  0  0  0  0  0  0  0  0  0
   10.3652  -19.0960   28.6783 O   0  0  0  0  0  0  0  0  0  0  0  0
   11.8933  -17.7610   23.7200 C   0  0  0  0  0  0  0  0  0  0  0  0
   11.4264  -18.3521   22.6832 O   0  0  0  0  0  0  0  0  0  0  0  0
   11.4823  -20.8576   27.8490 O   0  0  0  0  0  0  0  0  0  0  0  0
   13.2789  -17.7686   23.7943 O   0  0  0  0  0  0  0  0  0  0  0  0
  2  1  1  1
  2  3  1  0
  4  2  1  0
  5  4  2  0
  6  4  1  0
  6  7  1  0
  8  7  1  0
  9 10  1  0
  9  8  1  0
 10  6  1  0
 10 11  1  1
 11 13  1  0
 12 11  2  0
 13 14  1  0
 14 19  1  0
 14 15  1  1
 15 16  1  0
 16 17  1  0
 17 18  2  0
 19 22  1  0
 20 19  2  0
 21 17  1  0
M  END
$$$$
