APE.pdb
     RDKit          3D

 22 22  0  0  1  0  0  0  0  0999 V2000
    8.4255  -16.6686   16.6499 C   0  0  0  0  0  0  0  0  0  0  0  0
    9.1170  -15.3273   16.5419 C   0  0  2  0  0  0  0  0  0  0  0  0
   10.1250  -15.3936   15.5356 N   0  0  0  0  0  0  0  0  0  0  0  0
    9.6000  -14.9302   17.8814 C   0  0  0  0  0  0  0  0  0  0  0  0
   10.7849  -15.3197   18.1561 O   0  0  0  0  0  0  0  0  0  0  0  0
    8.8831  -14.1902   18.8291 N   0  0  0  0  0  0  0  0  0  0  0  0
    7.5584  -13.6531   18.6116 C   0  0  0  0  0  0  0  0  0  0  0  0
    7.1935  -12.7796   19.7618 C   0  0  0  0  0  0  0  0  0  0  0  0
    8.1936  -13.1227   20.8256 C   0  0  0  0  0  0  0  0  0  0  0  0
    9.3153  -13.8437   20.1467 C   0  0  1  0  0  0  0  0  0  0  0  0
    9.7468  -15.0120   20.9458 C   0  0  0  0  0  0  0  0  0  0  0  0
    9.1977  -16.1283   20.7832 O   0  0  0  0  0  0  0  0  0  0  0  0
   10.7743  -14.9251   21.9070 N   0  0  0  0  0  0  0  0  0  0  0  0
   11.2700  -16.1060   22.6586 C   0  0  1  0  0  0  0  0  0  0  0  0
   12.7198  -15.9301   22.8466 C   0  0  0  0  0  0  0  0  0  0  0  0
   13.6228  -15.6352   21.7373 C   0  0  0  0  0  0  0  0  0  0  0  0
   15.0231  -15.3517   21.9923 C   0  0  0  0  0  0  0  0  0  0  0  0
   15.4663  -15.1361   23.1492 O   0  0  0  0  0  0  0  0  0  0  0  0
   10.4986  -16.2723   23.8811 C   0  0  0  0  0  0  0  0  0  0  0  0
   10.7497  -17.2633   24.6538 O   0  0  0  0  0  0  0  0  0  0  0  0
   15.9623  -15.3014   20.9662 O   0  0  0  0  0  0  0  0  0  0  0  0
    9.4823  -15.4463   24.3398 O   0  0  0  0  0  0  0  0  0  0  0  0
  2  1  1  1
  2  3  1  0
  4  2  1  0
  5  4  2  0
  6  4  1  0
  6  7  1  0
  8  7  1  0
  9 10  1  0
  9  8  1  0
 10  6  1  0
 10 11  1  1
 11 13  1  0
 12 11  2  0
 13 14  1  0
 14 19  1  0
 14 15  1  1
 15 16  1  0
 16 17  1  0
 17 18  2  0
 19 22  1  0
 20 19  2  0
 21 17  1  0
M  END
$$$$
