APE.pdb
     RDKit          3D

 22 22  0  0  1  0  0  0  0  0999 V2000
    6.5290  -15.6881   22.5254 C   0  0  0  0  0  0  0  0  0  0  0  0
    7.3400  -14.4150   22.4249 C   0  0  2  0  0  0  0  0  0  0  0  0
    8.2279  -14.5052   21.3130 N   0  0  0  0  0  0  0  0  0  0  0  0
    7.9954  -14.1627   23.7258 C   0  0  0  0  0  0  0  0  0  0  0  0
    9.1520  -14.6901   23.8492 O   0  0  0  0  0  0  0  0  0  0  0  0
    7.4625  -13.4198   24.7858 N   0  0  0  0  0  0  0  0  0  0  0  0
    6.2173  -12.6876   24.7231 C   0  0  0  0  0  0  0  0  0  0  0  0
    6.0655  -11.8799   25.9655 C   0  0  0  0  0  0  0  0  0  0  0  0
    7.0789  -12.4525   26.9114 C   0  0  0  0  0  0  0  0  0  0  0  0
    8.0332  -13.2569   26.0861 C   0  0  1  0  0  0  0  0  0  0  0  0
    8.3473  -14.5410   26.7509 C   0  0  0  0  0  0  0  0  0  0  0  0
    7.5482  -15.5052   26.6759 O   0  0  0  0  0  0  0  0  0  0  0  0
    9.5355  -14.7350   27.4843 N   0  0  0  0  0  0  0  0  0  0  0  0
    9.8531  -16.0126   28.1714 C   0  0  1  0  0  0  0  0  0  0  0  0
   10.7839  -16.7568   27.3065 C   0  0  0  0  0  0  0  0  0  0  0  0
   12.0648  -16.2029   26.8758 C   0  0  0  0  0  0  0  0  0  0  0  0
   12.9254  -16.9613   25.9868 C   0  0  0  0  0  0  0  0  0  0  0  0
   12.6407  -18.1254   25.6056 O   0  0  0  0  0  0  0  0  0  0  0  0
   10.3339  -15.7425   29.5179 C   0  0  0  0  0  0  0  0  0  0  0  0
   10.5929  -16.7226   30.3020 O   0  0  0  0  0  0  0  0  0  0  0  0
   14.1223  -16.4422   25.5017 O   0  0  0  0  0  0  0  0  0  0  0  0
   10.5661  -14.4960   30.0816 O   0  0  0  0  0  0  0  0  0  0  0  0
  2  1  1  1
  2  3  1  0
  4  2  1  0
  5  4  2  0
  6  4  1  0
  6  7  1  0
  8  7  1  0
  9 10  1  0
  9  8  1  0
 10  6  1  0
 10 11  1  1
 11 13  1  0
 12 11  2  0
 13 14  1  0
 14 19  1  0
 14 15  1  6
 15 16  1  0
 16 17  1  0
 17 18  2  0
 19 22  1  0
 20 19  2  0
 21 17  1  0
M  END
$$$$
