YKP.pdb
     RDKit          3D

 29 30  0  0  1  0  0  0  0  0999 V2000
   24.0854  -28.7044  -20.4553 O   0  0  0  0  0  0  0  0  0  0  0  0
   24.6263  -27.8735  -19.4924 C   0  0  0  0  0  0  0  0  0  0  0  0
   25.9394  -28.0606  -19.1179 C   0  0  0  0  0  0  0  0  0  0  0  0
   26.5330  -27.2622  -18.1623 C   0  0  0  0  0  0  0  0  0  0  0  0
   25.8287  -26.2421  -17.5441 C   0  0  0  0  0  0  0  0  0  0  0  0
   26.4508  -25.3710  -16.5119 C   0  0  0  0  0  0  0  0  0  0  0  0
   26.9286  -24.1220  -17.1920 C   0  0  2  0  0  0  0  0  0  0  0  0
   28.2090  -24.3977  -17.8084 N   0  0  0  0  0  0  0  0  0  0  0  0
   27.0842  -22.9779  -16.2883 C   0  0  0  0  0  0  0  0  0  0  0  0
   28.1244  -22.9543  -15.5521 O   0  0  0  0  0  0  0  0  0  0  0  0
   24.5091  -26.0801  -17.9435 C   0  0  0  0  0  0  0  0  0  0  0  0
   23.9161  -26.8731  -18.8942 C   0  0  0  0  0  0  0  0  0  0  0  0
   26.1704  -21.9013  -16.1716 N   0  0  0  0  0  0  0  0  0  0  0  0
   26.3375  -20.9127  -15.1073 C   0  0  1  0  0  0  0  0  0  0  0  0
   25.6070  -19.6611  -15.6073 C   0  0  0  0  0  0  0  0  0  0  0  0
   26.6343  -18.7787  -16.2843 C   0  0  0  0  0  0  0  0  0  0  0  0
   25.9354  -17.5974  -16.9254 C   0  0  0  0  0  0  0  0  0  0  0  0
   26.9228  -16.7595  -17.6709 C   0  0  0  0  0  0  0  0  0  0  0  0
   26.2280  -15.7451  -18.4327 N   0  0  0  0  0  0  0  0  0  0  0  0
   25.6380  -21.3454  -13.8724 C   0  0  0  0  0  0  0  0  0  0  0  0
   24.6783  -22.1801  -13.9958 O   0  0  0  0  0  0  0  0  0  0  0  0
   25.9867  -20.8784  -12.5870 N   0  0  0  0  0  0  0  0  0  0  0  0
   27.0099  -19.8952  -12.2997 C   0  0  0  0  0  0  0  0  0  0  0  0
   27.6701  -20.4715  -11.0620 C   0  0  0  0  0  0  0  0  0  0  0  0
   26.6229  -21.3161  -10.3942 C   0  0  0  0  0  0  0  0  0  0  0  0
   25.4299  -21.2523  -11.2989 C   0  0  1  0  0  0  0  0  0  0  0  0
   24.5445  -20.1562  -10.8409 C   0  0  0  0  0  0  0  0  0  0  0  0
   23.6719  -20.3590   -9.7596 O   0  0  0  0  0  0  0  0  0  0  0  0
   24.5493  -19.0469  -11.3910 O   0  0  0  0  0  0  0  0  0  0  0  0
  2  1  1  0
  3  2  2  0
  4  3  1  0
  5 11  1  0
  5  4  2  0
  6  7  1  0
  6  5  1  0
  7  8  1  1
  9  7  1  0
 10  9  2  0
 11 12  2  0
 12  2  1  0
 13  9  1  0
 14 13  1  0
 14 15  1  6
 15 16  1  0
 16 17  1  0
 18 17  1  0
 19 18  1  0
 20 21  2  0
 20 14  1  0
 22 20  1  0
 23 22  1  0
 24 25  1  0
 24 23  1  0
 25 26  1  0
 26 27  1  1
 26 22  1  0
 27 28  1  0
 29 27  2  0
M  END
$$$$
