YKP.pdb
     RDKit          3D

 29 30  0  0  1  0  0  0  0  0999 V2000
   15.8138  -24.6323   -9.5671 O   0  0  0  0  0  0  0  0  0  0  0  0
   16.5290  -24.2357  -10.6812 C   0  0  0  0  0  0  0  0  0  0  0  0
   16.7772  -25.1602  -11.6726 C   0  0  0  0  0  0  0  0  0  0  0  0
   17.4855  -24.8220  -12.8071 C   0  0  0  0  0  0  0  0  0  0  0  0
   17.9732  -23.5385  -12.9901 C   0  0  0  0  0  0  0  0  0  0  0  0
   18.7388  -23.1546  -14.2058 C   0  0  0  0  0  0  0  0  0  0  0  0
   17.8937  -22.2022  -14.9993 C   0  0  2  0  0  0  0  0  0  0  0  0
   16.7212  -22.9109  -15.4665 N   0  0  0  0  0  0  0  0  0  0  0  0
   18.5811  -21.6251  -16.1586 C   0  0  0  0  0  0  0  0  0  0  0  0
   18.6247  -22.3294  -17.2201 O   0  0  0  0  0  0  0  0  0  0  0  0
   17.7063  -22.6316  -11.9735 C   0  0  0  0  0  0  0  0  0  0  0  0
   17.0017  -22.9656  -10.8437 C   0  0  0  0  0  0  0  0  0  0  0  0
   19.1978  -20.3498  -16.1889 N   0  0  0  0  0  0  0  0  0  0  0  0
   19.8224  -19.8688  -17.4204 C   0  0  1  0  0  0  0  0  0  0  0  0
   19.8690  -18.3435  -17.2745 C   0  0  0  0  0  0  0  0  0  0  0  0
   18.4384  -17.8487  -17.2440 C   0  0  0  0  0  0  0  0  0  0  0  0
   18.2967  -16.6676  -18.1820 C   0  0  0  0  0  0  0  0  0  0  0  0
   16.9115  -16.1128  -18.1032 C   0  0  0  0  0  0  0  0  0  0  0  0
   16.7798  -14.9940  -19.0105 N   0  0  0  0  0  0  0  0  0  0  0  0
   21.2304  -20.3281  -17.5107 C   0  0  0  0  0  0  0  0  0  0  0  0
   21.8698  -20.4985  -16.4175 O   0  0  0  0  0  0  0  0  0  0  0  0
   21.8800  -20.5804  -18.7379 N   0  0  0  0  0  0  0  0  0  0  0  0
   21.2972  -20.3951  -20.0503 C   0  0  0  0  0  0  0  0  0  0  0  0
   21.7981  -21.6152  -20.7988 C   0  0  0  0  0  0  0  0  0  0  0  0
   23.0764  -22.0165  -20.1201 C   0  0  0  0  0  0  0  0  0  0  0  0
   23.2289  -21.0644  -18.9731 C   0  0  1  0  0  0  0  0  0  0  0  0
   24.0617  -19.9206  -19.4125 C   0  0  0  0  0  0  0  0  0  0  0  0
   25.4558  -20.0585  -19.5090 O   0  0  0  0  0  0  0  0  0  0  0  0
   23.5589  -18.8269  -19.7029 O   0  0  0  0  0  0  0  0  0  0  0  0
  2  1  1  0
  3  2  2  0
  4  3  1  0
  5 11  1  0
  5  4  2  0
  6  7  1  0
  6  5  1  0
  7  8  1  6
  9  7  1  0
 10  9  2  0
 11 12  2  0
 12  2  1  0
 13  9  1  0
 14 13  1  0
 14 15  1  1
 15 16  1  0
 16 17  1  0
 18 17  1  0
 19 18  1  0
 20 21  2  0
 20 14  1  0
 22 20  1  0
 23 22  1  0
 24 25  1  0
 24 23  1  0
 25 26  1  0
 26 27  1  6
 26 22  1  0
 27 28  1  0
 29 27  2  0
M  END
$$$$
