YKP.pdb
     RDKit          3D

 29 30  0  0  1  0  0  0  0  0999 V2000
   28.3402  -18.7118   -4.6733 O   0  0  0  0  0  0  0  0  0  0  0  0
   27.9849  -19.2716   -5.8860 C   0  0  0  0  0  0  0  0  0  0  0  0
   28.5837  -18.7997   -7.0341 C   0  0  0  0  0  0  0  0  0  0  0  0
   28.2691  -19.3198   -8.2724 C   0  0  0  0  0  0  0  0  0  0  0  0
   27.3382  -20.3369   -8.4059 C   0  0  0  0  0  0  0  0  0  0  0  0
   26.9856  -20.9106   -9.7317 C   0  0  0  0  0  0  0  0  0  0  0  0
   25.9090  -20.0548  -10.3311 C   0  0  2  0  0  0  0  0  0  0  0  0
   24.6269  -20.5393   -9.8656 N   0  0  0  0  0  0  0  0  0  0  0  0
   25.9012  -20.0531  -11.7973 C   0  0  0  0  0  0  0  0  0  0  0  0
   25.4577  -21.0971  -12.3787 O   0  0  0  0  0  0  0  0  0  0  0  0
   26.7537  -20.7896   -7.2309 C   0  0  0  0  0  0  0  0  0  0  0  0
   27.0650  -20.2737   -5.9975 C   0  0  0  0  0  0  0  0  0  0  0  0
   26.3470  -18.9841  -12.6135 N   0  0  0  0  0  0  0  0  0  0  0  0
   26.3655  -19.1334  -14.0680 C   0  0  1  0  0  0  0  0  0  0  0  0
   27.0993  -17.8915  -14.5870 C   0  0  0  0  0  0  0  0  0  0  0  0
   27.2582  -18.0534  -16.0839 C   0  0  0  0  0  0  0  0  0  0  0  0
   27.9976  -16.8546  -16.6417 C   0  0  0  0  0  0  0  0  0  0  0  0
   28.0597  -16.9378  -18.1324 C   0  0  0  0  0  0  0  0  0  0  0  0
   28.6795  -15.7439  -18.6641 N   0  0  0  0  0  0  0  0  0  0  0  0
   27.1835  -20.3053  -14.4666 C   0  0  0  0  0  0  0  0  0  0  0  0
   28.2077  -20.5833  -13.7547 O   0  0  0  0  0  0  0  0  0  0  0  0
   26.8786  -21.1122  -15.5836 N   0  0  0  0  0  0  0  0  0  0  0  0
   25.8101  -20.8677  -16.5295 C   0  0  0  0  0  0  0  0  0  0  0  0
   25.2619  -22.2625  -16.7617 C   0  0  0  0  0  0  0  0  0  0  0  0
   26.3998  -23.2021  -16.4821 C   0  0  0  0  0  0  0  0  0  0  0  0
   27.5321  -22.3276  -16.0362 C   0  0  1  0  0  0  0  0  0  0  0  0
   28.3669  -21.9941  -17.2138 C   0  0  0  0  0  0  0  0  0  0  0  0
   29.4172  -22.8434  -17.5976 O   0  0  0  0  0  0  0  0  0  0  0  0
   28.1647  -20.9718  -17.8827 O   0  0  0  0  0  0  0  0  0  0  0  0
  2  1  1  0
  3  2  2  0
  4  3  1  0
  5 11  1  0
  5  4  2  0
  6  7  1  0
  6  5  1  0
  7  8  1  1
  9  7  1  0
 10  9  2  0
 11 12  2  0
 12  2  1  0
 13  9  1  0
 14 13  1  0
 14 15  1  6
 15 16  1  0
 16 17  1  0
 18 17  1  0
 19 18  1  0
 20 21  2  0
 20 14  1  0
 22 20  1  0
 23 22  1  0
 24 25  1  0
 24 23  1  0
 25 26  1  0
 26 27  1  6
 26 22  1  0
 27 28  1  0
 29 27  2  0
M  END
$$$$
