YKP.pdb
     RDKit          3D

 29 30  0  0  1  0  0  0  0  0999 V2000
   16.4307  -10.0607   11.5207 O   0  0  0  0  0  0  0  0  0  0  0  0
   16.1916  -11.0926   10.6330 C   0  0  0  0  0  0  0  0  0  0  0  0
   16.8115  -12.3052   10.8445 C   0  0  0  0  0  0  0  0  0  0  0  0
   16.6109  -13.3710    9.9920 C   0  0  0  0  0  0  0  0  0  0  0  0
   15.7776  -13.2599    8.8911 C   0  0  0  0  0  0  0  0  0  0  0  0
   15.5487  -14.3971    7.9607 C   0  0  0  0  0  0  0  0  0  0  0  0
   16.5192  -14.2638    6.8244 C   0  0  2  0  0  0  0  0  0  0  0  0
   16.2298  -15.2962    5.8519 N   0  0  0  0  0  0  0  0  0  0  0  0
   17.9236  -14.3851    7.2276 C   0  0  0  0  0  0  0  0  0  0  0  0
   18.4528  -15.5424    7.1548 O   0  0  0  0  0  0  0  0  0  0  0  0
   15.1688  -12.0260    8.7064 C   0  0  0  0  0  0  0  0  0  0  0  0
   15.3668  -10.9638    9.5532 C   0  0  0  0  0  0  0  0  0  0  0  0
   18.7339  -13.3185    7.6899 N   0  0  0  0  0  0  0  0  0  0  0  0
   20.1320  -13.5621    8.0421 C   0  0  1  0  0  0  0  0  0  0  0  0
   20.7243  -12.1732    8.3067 C   0  0  0  0  0  0  0  0  0  0  0  0
   22.1836  -12.3647    8.6620 C   0  0  0  0  0  0  0  0  0  0  0  0
   22.8347  -11.0102    8.8527 C   0  0  0  0  0  0  0  0  0  0  0  0
   24.2755  -11.1791    9.2112 C   0  0  0  0  0  0  0  0  0  0  0  0
   24.8909   -9.8823    9.3897 N   0  0  0  0  0  0  0  0  0  0  0  0
   20.2302  -14.3136    9.3178 C   0  0  0  0  0  0  0  0  0  0  0  0
   19.3173  -14.1214   10.1911 O   0  0  0  0  0  0  0  0  0  0  0  0
   21.2761  -15.2185    9.5989 N   0  0  0  0  0  0  0  0  0  0  0  0
   22.4619  -15.4089    8.7902 C   0  0  0  0  0  0  0  0  0  0  0  0
   22.6336  -16.9154    8.8227 C   0  0  0  0  0  0  0  0  0  0  0  0
   21.9880  -17.3744   10.0987 C   0  0  0  0  0  0  0  0  0  0  0  0
   21.4122  -16.1363   10.7161 C   0  0  1  0  0  0  0  0  0  0  0  0
   22.4034  -15.5718   11.6615 C   0  0  0  0  0  0  0  0  0  0  0  0
   22.5981  -16.1667   12.9186 O   0  0  0  0  0  0  0  0  0  0  0  0
   23.0781  -14.5742   11.3738 O   0  0  0  0  0  0  0  0  0  0  0  0
  2  1  1  0
  3  2  2  0
  4  3  1  0
  5 11  1  0
  5  4  2  0
  6  7  1  0
  6  5  1  0
  7  8  1  6
  9  7  1  0
 10  9  2  0
 11 12  2  0
 12  2  1  0
 13  9  1  0
 14 13  1  0
 14 15  1  1
 15 16  1  0
 16 17  1  0
 18 17  1  0
 19 18  1  0
 20 21  2  0
 20 14  1  0
 22 20  1  0
 23 22  1  0
 24 25  1  0
 24 23  1  0
 25 26  1  0
 26 27  1  1
 26 22  1  0
 27 28  1  0
 29 27  2  0
M  END
$$$$
