YKP.pdb
     RDKit          3D

 29 30  0  0  1  0  0  0  0  0999 V2000
   16.4357  -24.2871  -10.2413 O   0  0  0  0  0  0  0  0  0  0  0  0
   17.5060  -23.8188  -10.9797 C   0  0  0  0  0  0  0  0  0  0  0  0
   18.7333  -23.6990  -10.3644 C   0  0  0  0  0  0  0  0  0  0  0  0
   19.8373  -23.2374  -11.0509 C   0  0  0  0  0  0  0  0  0  0  0  0
   19.7510  -22.8774  -12.3856 C   0  0  0  0  0  0  0  0  0  0  0  0
   20.9294  -22.3779  -13.1427 C   0  0  0  0  0  0  0  0  0  0  0  0
   21.3041  -21.0391  -12.5787 C   0  0  2  0  0  0  0  0  0  0  0  0
   20.4478  -20.0356  -13.1744 N   0  0  0  0  0  0  0  0  0  0  0  0
   22.7002  -20.6634  -12.8223 C   0  0  0  0  0  0  0  0  0  0  0  0
   22.9263  -19.8491  -13.7765 O   0  0  0  0  0  0  0  0  0  0  0  0
   18.5014  -23.0099  -12.9757 C   0  0  0  0  0  0  0  0  0  0  0  0
   17.4013  -23.4689  -12.2948 C   0  0  0  0  0  0  0  0  0  0  0  0
   23.8123  -21.1344  -12.0812 N   0  0  0  0  0  0  0  0  0  0  0  0
   25.1513  -20.6208  -12.3663 C   0  0  1  0  0  0  0  0  0  0  0  0
   26.0398  -21.1826  -11.2505 C   0  0  0  0  0  0  0  0  0  0  0  0
   25.8226  -20.3224  -10.0237 C   0  0  0  0  0  0  0  0  0  0  0  0
   26.7007  -20.8262   -8.8967 C   0  0  0  0  0  0  0  0  0  0  0  0
   26.4695  -20.0144   -7.6637 C   0  0  0  0  0  0  0  0  0  0  0  0
   27.2607  -20.5427   -6.5741 N   0  0  0  0  0  0  0  0  0  0  0  0
   25.6688  -21.1785  -13.6401 C   0  0  0  0  0  0  0  0  0  0  0  0
   25.1211  -22.2428  -14.0874 O   0  0  0  0  0  0  0  0  0  0  0  0
   26.7256  -20.5877  -14.3655 N   0  0  0  0  0  0  0  0  0  0  0  0
   27.6697  -19.6244  -13.8393 C   0  0  0  0  0  0  0  0  0  0  0  0
   27.8012  -18.6435  -14.9884 C   0  0  0  0  0  0  0  0  0  0  0  0
   27.4770  -19.4221  -16.2313 C   0  0  0  0  0  0  0  0  0  0  0  0
   27.1065  -20.7927  -15.7518 C   0  0  1  0  0  0  0  0  0  0  0  0
   28.3157  -21.6483  -15.7785 C   0  0  0  0  0  0  0  0  0  0  0  0
   28.8257  -22.1112  -17.0022 O   0  0  0  0  0  0  0  0  0  0  0  0
   28.9018  -21.9743  -14.7376 O   0  0  0  0  0  0  0  0  0  0  0  0
  2  1  1  0
  3  2  2  0
  4  3  1  0
  5 11  1  0
  5  4  2  0
  6  7  1  0
  6  5  1  0
  7  8  1  6
  9  7  1  0
 10  9  2  0
 11 12  2  0
 12  2  1  0
 13  9  1  0
 14 13  1  0
 14 15  1  1
 15 16  1  0
 16 17  1  0
 18 17  1  0
 19 18  1  0
 20 21  2  0
 20 14  1  0
 22 20  1  0
 23 22  1  0
 24 25  1  0
 24 23  1  0
 25 26  1  0
 26 27  1  1
 26 22  1  0
 27 28  1  0
 29 27  2  0
M  END
$$$$
