YKP.pdb
     RDKit          3D

 29 30  0  0  1  0  0  0  0  0999 V2000
   20.4237  -22.4773   -6.8165 O   0  0  0  0  0  0  0  0  0  0  0  0
   21.3586  -21.7874   -7.5651 C   0  0  0  0  0  0  0  0  0  0  0  0
   21.2326  -21.7790   -8.9375 C   0  0  0  0  0  0  0  0  0  0  0  0
   22.1352  -21.1078   -9.7360 C   0  0  0  0  0  0  0  0  0  0  0  0
   23.2023  -20.4171   -9.1855 C   0  0  0  0  0  0  0  0  0  0  0  0
   24.1857  -19.6876  -10.0294 C   0  0  0  0  0  0  0  0  0  0  0  0
   25.1261  -20.6982  -10.6169 C   0  0  2  0  0  0  0  0  0  0  0  0
   26.0569  -21.1097   -9.5877 N   0  0  0  0  0  0  0  0  0  0  0  0
   25.8913  -20.1989  -11.7635 C   0  0  0  0  0  0  0  0  0  0  0  0
   26.7478  -19.2824  -11.5377 O   0  0  0  0  0  0  0  0  0  0  0  0
   23.3006  -20.4452   -7.8011 C   0  0  0  0  0  0  0  0  0  0  0  0
   22.4038  -21.1123   -7.0042 C   0  0  0  0  0  0  0  0  0  0  0  0
   25.7519  -20.6555  -13.0976 N   0  0  0  0  0  0  0  0  0  0  0  0
   26.5268  -20.0309  -14.1689 C   0  0  1  0  0  0  0  0  0  0  0  0
   26.9381  -21.1860  -15.0891 C   0  0  0  0  0  0  0  0  0  0  0  0
   27.6686  -20.5840  -16.2707 C   0  0  0  0  0  0  0  0  0  0  0  0
   28.0522  -21.6859  -17.2369 C   0  0  0  0  0  0  0  0  0  0  0  0
   28.7196  -21.1040  -18.4405 C   0  0  0  0  0  0  0  0  0  0  0  0
   29.1588  -22.1663  -19.3185 N   0  0  0  0  0  0  0  0  0  0  0  0
   25.6723  -19.1284  -14.9793 C   0  0  0  0  0  0  0  0  0  0  0  0
   24.4275  -19.4053  -15.0609 O   0  0  0  0  0  0  0  0  0  0  0  0
   26.1734  -17.9936  -15.6524 N   0  0  0  0  0  0  0  0  0  0  0  0
   27.5710  -17.6314  -15.7620 C   0  0  0  0  0  0  0  0  0  0  0  0
   27.5291  -16.1284  -15.5648 C   0  0  0  0  0  0  0  0  0  0  0  0
   26.1590  -15.6954  -16.0018 C   0  0  0  0  0  0  0  0  0  0  0  0
   25.4438  -16.9608  -16.3664 C   0  0  1  0  0  0  0  0  0  0  0  0
   25.6082  -17.1976  -17.8196 C   0  0  0  0  0  0  0  0  0  0  0  0
   24.7441  -16.5793  -18.7376 O   0  0  0  0  0  0  0  0  0  0  0  0
   26.4993  -17.9367  -18.2588 O   0  0  0  0  0  0  0  0  0  0  0  0
  2  1  1  0
  3  2  2  0
  4  3  1  0
  5 11  1  0
  5  4  2  0
  6  7  1  0
  6  5  1  0
  7  8  1  1
  9  7  1  0
 10  9  2  0
 11 12  2  0
 12  2  1  0
 13  9  1  0
 14 13  1  0
 14 15  1  6
 15 16  1  0
 16 17  1  0
 18 17  1  0
 19 18  1  0
 20 21  2  0
 20 14  1  0
 22 20  1  0
 23 22  1  0
 24 25  1  0
 24 23  1  0
 25 26  1  0
 26 27  1  6
 26 22  1  0
 27 28  1  0
 29 27  2  0
M  END
$$$$
