YKP.pdb
     RDKit          3D

 29 30  0  0  1  0  0  0  0  0999 V2000
   20.3799  -18.4396  -15.4786 O   0  0  0  0  0  0  0  0  0  0  0  0
   21.0291  -18.9001  -14.3488 C   0  0  0  0  0  0  0  0  0  0  0  0
   22.2466  -18.3483  -14.0134 C   0  0  0  0  0  0  0  0  0  0  0  0
   22.9406  -18.7677  -12.8974 C   0  0  0  0  0  0  0  0  0  0  0  0
   22.4371  -19.7602  -12.0727 C   0  0  0  0  0  0  0  0  0  0  0  0
   23.1700  -20.2258  -10.8655 C   0  0  0  0  0  0  0  0  0  0  0  0
   24.4781  -20.8054  -11.3171 C   0  0  2  0  0  0  0  0  0  0  0  0
   24.2075  -22.0008  -12.0872 N   0  0  0  0  0  0  0  0  0  0  0  0
   25.3822  -21.1554  -10.2172 C   0  0  0  0  0  0  0  0  0  0  0  0
   24.8543  -21.6239   -9.1558 O   0  0  0  0  0  0  0  0  0  0  0  0
   21.2093  -20.2951  -12.4381 C   0  0  0  0  0  0  0  0  0  0  0  0
   20.5167  -19.8795  -13.5481 C   0  0  0  0  0  0  0  0  0  0  0  0
   26.7917  -21.0132  -10.2440 N   0  0  0  0  0  0  0  0  0  0  0  0
   27.5847  -21.3659   -9.0672 C   0  0  1  0  0  0  0  0  0  0  0  0
   28.9989  -21.6205   -9.6010 C   0  0  0  0  0  0  0  0  0  0  0  0
   29.8991  -21.8481   -8.4050 C   0  0  0  0  0  0  0  0  0  0  0  0
   31.3300  -22.0038   -8.8773 C   0  0  0  0  0  0  0  0  0  0  0  0
   32.2335  -22.2358   -7.7100 C   0  0  0  0  0  0  0  0  0  0  0  0
   33.5748  -22.5115   -8.1761 N   0  0  0  0  0  0  0  0  0  0  0  0
   27.6850  -20.2152   -8.1359 C   0  0  0  0  0  0  0  0  0  0  0  0
   27.4652  -19.0486   -8.6087 O   0  0  0  0  0  0  0  0  0  0  0  0
   28.0083  -20.3574   -6.7694 N   0  0  0  0  0  0  0  0  0  0  0  0
   28.3987  -21.5927   -6.1230 C   0  0  0  0  0  0  0  0  0  0  0  0
   27.6560  -21.5126   -4.8032 C   0  0  0  0  0  0  0  0  0  0  0  0
   27.4587  -20.0486   -4.5318 C   0  0  0  0  0  0  0  0  0  0  0  0
   28.0280  -19.3465   -5.7270 C   0  0  1  0  0  0  0  0  0  0  0  0
   29.4402  -18.9984   -5.4455 C   0  0  0  0  0  0  0  0  0  0  0  0
   29.7463  -17.9164   -4.6044 O   0  0  0  0  0  0  0  0  0  0  0  0
   30.3766  -19.6427   -5.9369 O   0  0  0  0  0  0  0  0  0  0  0  0
  2  1  1  0
  3  2  2  0
  4  3  1  0
  5 11  1  0
  5  4  2  0
  6  7  1  0
  6  5  1  0
  7  8  1  1
  9  7  1  0
 10  9  2  0
 11 12  2  0
 12  2  1  0
 13  9  1  0
 14 13  1  0
 14 15  1  6
 15 16  1  0
 16 17  1  0
 18 17  1  0
 19 18  1  0
 20 21  2  0
 20 14  1  0
 22 20  1  0
 23 22  1  0
 24 25  1  0
 24 23  1  0
 25 26  1  0
 26 27  1  1
 26 22  1  0
 27 28  1  0
 29 27  2  0
M  END
$$$$
