YKP.pdb
     RDKit          3D

 29 30  0  0  1  0  0  0  0  0999 V2000
   28.7709  -18.9037   -3.5635 O   0  0  0  0  0  0  0  0  0  0  0  0
   28.3800  -19.4061   -4.7903 C   0  0  0  0  0  0  0  0  0  0  0  0
   27.3557  -20.3271   -4.8329 C   0  0  0  0  0  0  0  0  0  0  0  0
   26.9229  -20.8630   -6.0281 C   0  0  0  0  0  0  0  0  0  0  0  0
   27.5038  -20.4935   -7.2301 C   0  0  0  0  0  0  0  0  0  0  0  0
   27.0514  -21.0597   -8.5286 C   0  0  0  0  0  0  0  0  0  0  0  0
   25.9751  -20.1656   -9.0698 C   0  0  2  0  0  0  0  0  0  0  0  0
   24.7114  -20.5677   -8.4898 N   0  0  0  0  0  0  0  0  0  0  0  0
   25.8504  -20.2057  -10.5301 C   0  0  0  0  0  0  0  0  0  0  0  0
   25.1441  -21.1421  -11.0290 O   0  0  0  0  0  0  0  0  0  0  0  0
   28.5323  -19.5643   -7.1526 C   0  0  0  0  0  0  0  0  0  0  0  0
   28.9648  -19.0296   -5.9646 C   0  0  0  0  0  0  0  0  0  0  0  0
   26.4526  -19.2869  -11.4252 N   0  0  0  0  0  0  0  0  0  0  0  0
   26.2008  -19.3937  -12.8616 C   0  0  1  0  0  0  0  0  0  0  0  0
   26.9616  -18.2196  -13.4881 C   0  0  0  0  0  0  0  0  0  0  0  0
   26.6247  -18.1991  -14.9641 C   0  0  0  0  0  0  0  0  0  0  0  0
   25.1687  -17.8199  -15.1404 C   0  0  0  0  0  0  0  0  0  0  0  0
   24.7934  -17.8819  -16.5855 C   0  0  0  0  0  0  0  0  0  0  0  0
   23.4056  -17.5081  -16.7475 N   0  0  0  0  0  0  0  0  0  0  0  0
   26.8063  -20.6316  -13.4115 C   0  0  0  0  0  0  0  0  0  0  0  0
   27.9555  -20.9759  -12.9713 O   0  0  0  0  0  0  0  0  0  0  0  0
   26.1717  -21.4310  -14.3863 N   0  0  0  0  0  0  0  0  0  0  0  0
   24.8434  -21.2103  -14.9184 C   0  0  0  0  0  0  0  0  0  0  0  0
   24.2899  -22.6202  -14.9940 C   0  0  0  0  0  0  0  0  0  0  0  0
   25.4828  -23.5223  -15.1322 C   0  0  0  0  0  0  0  0  0  0  0  0
   26.6730  -22.6144  -15.0625 C   0  0  1  0  0  0  0  0  0  0  0  0
   27.0601  -22.2319  -16.4404 C   0  0  0  0  0  0  0  0  0  0  0  0
   27.8532  -23.0933  -17.2156 O   0  0  0  0  0  0  0  0  0  0  0  0
   26.7004  -21.1574  -16.9398 O   0  0  0  0  0  0  0  0  0  0  0  0
  2  1  1  0
  3  2  2  0
  4  3  1  0
  5 11  1  0
  5  4  2  0
  6  7  1  0
  6  5  1  0
  7  8  1  1
  9  7  1  0
 10  9  2  0
 11 12  2  0
 12  2  1  0
 13  9  1  0
 14 13  1  0
 14 15  1  6
 15 16  1  0
 16 17  1  0
 18 17  1  0
 19 18  1  0
 20 21  2  0
 20 14  1  0
 22 20  1  0
 23 22  1  0
 24 25  1  0
 24 23  1  0
 25 26  1  0
 26 27  1  6
 26 22  1  0
 27 28  1  0
 29 27  2  0
M  END
$$$$
