YKP.pdb
     RDKit          3D

 29 30  0  0  1  0  0  0  0  0999 V2000
   16.3658  -19.4107  -19.8780 O   0  0  0  0  0  0  0  0  0  0  0  0
   17.6342  -19.0752  -19.4436 C   0  0  0  0  0  0  0  0  0  0  0  0
   18.3652  -20.0129  -18.7467 C   0  0  0  0  0  0  0  0  0  0  0  0
   19.6363  -19.7349  -18.2885 C   0  0  0  0  0  0  0  0  0  0  0  0
   20.2240  -18.5008  -18.5131 C   0  0  0  0  0  0  0  0  0  0  0  0
   21.5929  -18.1821  -18.0273 C   0  0  0  0  0  0  0  0  0  0  0  0
   21.4981  -17.8598  -16.5651 C   0  0  2  0  0  0  0  0  0  0  0  0
   21.2526  -16.4402  -16.4244 N   0  0  0  0  0  0  0  0  0  0  0  0
   22.7037  -18.2011  -15.8039 C   0  0  0  0  0  0  0  0  0  0  0  0
   23.7121  -17.4324  -15.9343 O   0  0  0  0  0  0  0  0  0  0  0  0
   19.4617  -17.5791  -19.2177 C   0  0  0  0  0  0  0  0  0  0  0  0
   18.1967  -17.8532  -19.6748 C   0  0  0  0  0  0  0  0  0  0  0  0
   22.8329  -19.3153  -14.9381 N   0  0  0  0  0  0  0  0  0  0  0  0
   24.1122  -19.5894  -14.2851 C   0  0  1  0  0  0  0  0  0  0  0  0
   23.8132  -20.7015  -13.2733 C   0  0  0  0  0  0  0  0  0  0  0  0
   22.8231  -20.1464  -12.2713 C   0  0  0  0  0  0  0  0  0  0  0  0
   22.4415  -21.2344  -11.2886 C   0  0  0  0  0  0  0  0  0  0  0  0
   21.3163  -20.7711  -10.4214 C   0  0  0  0  0  0  0  0  0  0  0  0
   20.9163  -21.8359   -9.5278 N   0  0  0  0  0  0  0  0  0  0  0  0
   25.0878  -20.1492  -15.2527 C   0  0  0  0  0  0  0  0  0  0  0  0
   24.6257  -20.7076  -16.3050 O   0  0  0  0  0  0  0  0  0  0  0  0
   26.4845  -20.0892  -15.0587 N   0  0  0  0  0  0  0  0  0  0  0  0
   27.1462  -19.6359  -13.8533 C   0  0  0  0  0  0  0  0  0  0  0  0
   28.2993  -18.8215  -14.4073 C   0  0  0  0  0  0  0  0  0  0  0  0
   28.5836  -19.3868  -15.7694 C   0  0  0  0  0  0  0  0  0  0  0  0
   27.5492  -20.4510  -15.9777 C   0  0  1  0  0  0  0  0  0  0  0  0
   28.1120  -21.7516  -15.5460 C   0  0  0  0  0  0  0  0  0  0  0  0
   27.6611  -22.3577  -14.3623 O   0  0  0  0  0  0  0  0  0  0  0  0
   28.9832  -22.3321  -16.2073 O   0  0  0  0  0  0  0  0  0  0  0  0
  2  1  1  0
  3  2  2  0
  4  3  1  0
  5 11  1  0
  5  4  2  0
  6  7  1  0
  6  5  1  0
  7  8  1  6
  9  7  1  0
 10  9  2  0
 11 12  2  0
 12  2  1  0
 13  9  1  0
 14 13  1  0
 14 15  1  1
 15 16  1  0
 16 17  1  0
 18 17  1  0
 19 18  1  0
 20 21  2  0
 20 14  1  0
 22 20  1  0
 23 22  1  0
 24 25  1  0
 24 23  1  0
 25 26  1  0
 26 27  1  1
 26 22  1  0
 27 28  1  0
 29 27  2  0
M  END
$$$$
