YKP.pdb
     RDKit          3D

 29 30  0  0  1  0  0  0  0  0999 V2000
   32.0790  -14.7642  -19.1487 O   0  0  0  0  0  0  0  0  0  0  0  0
   31.0309  -15.0594  -18.2974 C   0  0  0  0  0  0  0  0  0  0  0  0
   30.2191  -14.0329  -17.8656 C   0  0  0  0  0  0  0  0  0  0  0  0
   29.1582  -14.2672  -17.0155 C   0  0  0  0  0  0  0  0  0  0  0  0
   28.8709  -15.5452  -16.5650 C   0  0  0  0  0  0  0  0  0  0  0  0
   27.7320  -15.8180  -15.6486 C   0  0  0  0  0  0  0  0  0  0  0  0
   26.7116  -16.6136  -16.4079 C   0  0  2  0  0  0  0  0  0  0  0  0
   25.9891  -15.7149  -17.2829 N   0  0  0  0  0  0  0  0  0  0  0  0
   25.7442  -17.3070  -15.5518 C   0  0  0  0  0  0  0  0  0  0  0  0
   25.1153  -16.6034  -14.6949 O   0  0  0  0  0  0  0  0  0  0  0  0
   29.7072  -16.5563  -17.0183 C   0  0  0  0  0  0  0  0  0  0  0  0
   30.7636  -16.3258  -17.8641 C   0  0  0  0  0  0  0  0  0  0  0  0
   25.4562  -18.6934  -15.6041 N   0  0  0  0  0  0  0  0  0  0  0  0
   24.5718  -19.2946  -14.6069 C   0  0  1  0  0  0  0  0  0  0  0  0
   23.3168  -19.7075  -15.3843 C   0  0  0  0  0  0  0  0  0  0  0  0
   22.3956  -20.4142  -14.4125 C   0  0  0  0  0  0  0  0  0  0  0  0
   21.1690  -20.9066  -15.1528 C   0  0  0  0  0  0  0  0  0  0  0  0
   20.2259  -21.5678  -14.2008 C   0  0  0  0  0  0  0  0  0  0  0  0
   19.1044  -22.1212  -14.9275 N   0  0  0  0  0  0  0  0  0  0  0  0
   25.1624  -20.5426  -14.0636 C   0  0  0  0  0  0  0  0  0  0  0  0
   25.9124  -21.2295  -14.8372 O   0  0  0  0  0  0  0  0  0  0  0  0
   24.9316  -20.9928  -12.7461 N   0  0  0  0  0  0  0  0  0  0  0  0
   24.0209  -20.3854  -11.7985 C   0  0  0  0  0  0  0  0  0  0  0  0
   24.8106  -20.4538  -10.5056 C   0  0  0  0  0  0  0  0  0  0  0  0
   25.7531  -21.6128  -10.6616 C   0  0  0  0  0  0  0  0  0  0  0  0
   25.5232  -22.1228  -12.0518 C   0  0  1  0  0  0  0  0  0  0  0  0
   24.5196  -23.2113  -11.9986 C   0  0  0  0  0  0  0  0  0  0  0  0
   24.9191  -24.5262  -11.7104 O   0  0  0  0  0  0  0  0  0  0  0  0
   23.3178  -22.9949  -12.2038 O   0  0  0  0  0  0  0  0  0  0  0  0
  2  1  1  0
  3  2  2  0
  4  3  1  0
  5 11  1  0
  5  4  2  0
  6  7  1  0
  6  5  1  0
  7  8  1  6
  9  7  1  0
 10  9  2  0
 11 12  2  0
 12  2  1  0
 13  9  1  0
 14 13  1  0
 14 15  1  6
 15 16  1  0
 16 17  1  0
 18 17  1  0
 19 18  1  0
 20 21  2  0
 20 14  1  0
 22 20  1  0
 23 22  1  0
 24 25  1  0
 24 23  1  0
 25 26  1  0
 26 27  1  1
 26 22  1  0
 27 28  1  0
 29 27  2  0
M  END
$$$$
