YKP.pdb
     RDKit          3D

 29 30  0  0  1  0  0  0  0  0999 V2000
   16.5462  -16.1129  -17.3762 O   0  0  0  0  0  0  0  0  0  0  0  0
   17.6046  -16.8721  -16.9140 C   0  0  0  0  0  0  0  0  0  0  0  0
   18.6081  -16.2475  -16.2054 C   0  0  0  0  0  0  0  0  0  0  0  0
   19.6889  -16.9536  -15.7195 C   0  0  0  0  0  0  0  0  0  0  0  0
   19.8039  -18.3183  -15.9270 C   0  0  0  0  0  0  0  0  0  0  0  0
   20.9611  -19.0970  -15.4113 C   0  0  0  0  0  0  0  0  0  0  0  0
   22.1218  -18.8591  -16.3316 C   0  0  2  0  0  0  0  0  0  0  0  0
   21.8934  -19.5962  -17.5562 N   0  0  0  0  0  0  0  0  0  0  0  0
   23.4138  -19.2716  -15.7745 C   0  0  0  0  0  0  0  0  0  0  0  0
   23.6314  -20.5235  -15.6729 O   0  0  0  0  0  0  0  0  0  0  0  0
   18.7770  -18.9170  -16.6440 C   0  0  0  0  0  0  0  0  0  0  0  0
   17.7004  -18.2166  -17.1286 C   0  0  0  0  0  0  0  0  0  0  0  0
   24.4344  -18.3888  -15.3423 N   0  0  0  0  0  0  0  0  0  0  0  0
   25.5378  -18.8911  -14.5250 C   0  0  1  0  0  0  0  0  0  0  0  0
   26.4330  -17.6728  -14.2714 C   0  0  0  0  0  0  0  0  0  0  0  0
   27.6759  -17.8410  -15.1195 C   0  0  0  0  0  0  0  0  0  0  0  0
   27.3686  -17.4315  -16.5453 C   0  0  0  0  0  0  0  0  0  0  0  0
   28.5977  -17.5437  -17.3877 C   0  0  0  0  0  0  0  0  0  0  0  0
   28.2813  -17.2183  -18.7611 N   0  0  0  0  0  0  0  0  0  0  0  0
   25.0483  -19.3397  -13.1981 C   0  0  0  0  0  0  0  0  0  0  0  0
   23.9237  -18.8852  -12.7962 O   0  0  0  0  0  0  0  0  0  0  0  0
   25.7655  -20.2351  -12.3760 N   0  0  0  0  0  0  0  0  0  0  0  0
   27.0791  -20.7713  -12.6644 C   0  0  0  0  0  0  0  0  0  0  0  0
   26.9382  -22.2170  -12.2282 C   0  0  0  0  0  0  0  0  0  0  0  0
   25.8628  -22.2260  -11.1796 C   0  0  0  0  0  0  0  0  0  0  0  0
   25.3792  -20.8099  -11.0995 C   0  0  1  0  0  0  0  0  0  0  0  0
   26.1301  -20.1112  -10.0304 C   0  0  0  0  0  0  0  0  0  0  0  0
   27.2374  -19.3104  -10.3534 O   0  0  0  0  0  0  0  0  0  0  0  0
   25.8068  -20.2126   -8.8394 O   0  0  0  0  0  0  0  0  0  0  0  0
  2  1  1  0
  3  2  2  0
  4  3  1  0
  5 11  1  0
  5  4  2  0
  6  7  1  0
  6  5  1  0
  7  8  1  6
  9  7  1  0
 10  9  2  0
 11 12  2  0
 12  2  1  0
 13  9  1  0
 14 13  1  0
 14 15  1  1
 15 16  1  0
 16 17  1  0
 18 17  1  0
 19 18  1  0
 20 21  2  0
 20 14  1  0
 22 20  1  0
 23 22  1  0
 24 25  1  0
 24 23  1  0
 25 26  1  0
 26 27  1  1
 26 22  1  0
 27 28  1  0
 29 27  2  0
M  END
$$$$
