YKP.pdb
     RDKit          3D

 29 30  0  0  1  0  0  0  0  0999 V2000
   19.7483  -13.8991  -18.4437 O   0  0  0  0  0  0  0  0  0  0  0  0
   20.2285  -14.8928  -17.6116 C   0  0  0  0  0  0  0  0  0  0  0  0
   19.3463  -15.8337  -17.1262 C   0  0  0  0  0  0  0  0  0  0  0  0
   19.7679  -16.8484  -16.2920 C   0  0  0  0  0  0  0  0  0  0  0  0
   21.0955  -16.9574  -15.9122 C   0  0  0  0  0  0  0  0  0  0  0  0
   21.5692  -18.0438  -15.0140 C   0  0  0  0  0  0  0  0  0  0  0  0
   22.4835  -18.9301  -15.8074 C   0  0  2  0  0  0  0  0  0  0  0  0
   21.6759  -19.7637  -16.6723 N   0  0  0  0  0  0  0  0  0  0  0  0
   23.3298  -19.7979  -14.9827 C   0  0  0  0  0  0  0  0  0  0  0  0
   22.7407  -20.6353  -14.2235 O   0  0  0  0  0  0  0  0  0  0  0  0
   21.9579  -15.9944  -16.4181 C   0  0  0  0  0  0  0  0  0  0  0  0
   21.5410  -14.9838  -17.2483 C   0  0  0  0  0  0  0  0  0  0  0  0
   24.7466  -19.7770  -14.9655 N   0  0  0  0  0  0  0  0  0  0  0  0
   25.4786  -20.6135  -14.0155 C   0  0  1  0  0  0  0  0  0  0  0  0
   26.9110  -20.6734  -14.5583 C   0  0  0  0  0  0  0  0  0  0  0  0
   26.9238  -21.6802  -15.6891 C   0  0  0  0  0  0  0  0  0  0  0  0
   28.3180  -21.7557  -16.2769 C   0  0  0  0  0  0  0  0  0  0  0  0
   28.3303  -22.6784  -17.4521 C   0  0  0  0  0  0  0  0  0  0  0  0
   29.6185  -22.6197  -18.1073 N   0  0  0  0  0  0  0  0  0  0  0  0
   25.5569  -19.9567  -12.6873 C   0  0  0  0  0  0  0  0  0  0  0  0
   25.4846  -18.6814  -12.6512 O   0  0  0  0  0  0  0  0  0  0  0  0
   25.7054  -20.6749  -11.4815 N   0  0  0  0  0  0  0  0  0  0  0  0
   25.8636  -22.1100  -11.3729 C   0  0  0  0  0  0  0  0  0  0  0  0
   24.9942  -22.4387  -10.1747 C   0  0  0  0  0  0  0  0  0  0  0  0
   24.9524  -21.1887   -9.3430 C   0  0  0  0  0  0  0  0  0  0  0  0
   25.7348  -20.1733  -10.1190 C   0  0  1  0  0  0  0  0  0  0  0  0
   27.1392  -20.1941   -9.6477 C   0  0  0  0  0  0  0  0  0  0  0  0
   27.4974  -19.5233   -8.4672 O   0  0  0  0  0  0  0  0  0  0  0  0
   28.0234  -20.7949  -10.2725 O   0  0  0  0  0  0  0  0  0  0  0  0
  2  1  1  0
  3  2  2  0
  4  3  1  0
  5 11  1  0
  5  4  2  0
  6  7  1  0
  6  5  1  0
  7  8  1  6
  9  7  1  0
 10  9  2  0
 11 12  2  0
 12  2  1  0
 13  9  1  0
 14 13  1  0
 14 15  1  6
 15 16  1  0
 16 17  1  0
 18 17  1  0
 19 18  1  0
 20 21  2  0
 20 14  1  0
 22 20  1  0
 23 22  1  0
 24 25  1  0
 24 23  1  0
 25 26  1  0
 26 27  1  1
 26 22  1  0
 27 28  1  0
 29 27  2  0
M  END
$$$$
