YKP.pdb
     RDKit          3D

 29 30  0  0  1  0  0  0  0  0999 V2000
   19.5813  -22.3217   -9.1753 O   0  0  0  0  0  0  0  0  0  0  0  0
   20.6575  -21.7901   -9.8605 C   0  0  0  0  0  0  0  0  0  0  0  0
   21.3903  -20.7856   -9.2661 C   0  0  0  0  0  0  0  0  0  0  0  0
   22.4745  -20.2170   -9.9018 C   0  0  0  0  0  0  0  0  0  0  0  0
   22.8658  -20.6365  -11.1626 C   0  0  0  0  0  0  0  0  0  0  0  0
   24.0314  -20.0362  -11.8641 C   0  0  0  0  0  0  0  0  0  0  0  0
   25.1708  -21.0083  -11.7770 C   0  0  2  0  0  0  0  0  0  0  0  0
   25.7376  -20.9312  -10.4474 N   0  0  0  0  0  0  0  0  0  0  0  0
   26.2370  -20.7603  -12.7523 C   0  0  0  0  0  0  0  0  0  0  0  0
   26.8972  -19.6767  -12.6307 O   0  0  0  0  0  0  0  0  0  0  0  0
   22.1072  -21.6494  -11.7333 C   0  0  0  0  0  0  0  0  0  0  0  0
   21.0278  -22.2169  -11.1029 C   0  0  0  0  0  0  0  0  0  0  0  0
   26.5880  -21.6293  -13.8151 N   0  0  0  0  0  0  0  0  0  0  0  0
   27.4622  -21.1567  -14.8876 C   0  0  1  0  0  0  0  0  0  0  0  0
   27.7672  -22.4002  -15.7306 C   0  0  0  0  0  0  0  0  0  0  0  0
   28.7158  -21.9776  -16.8324 C   0  0  0  0  0  0  0  0  0  0  0  0
   28.9442  -23.1441  -17.7716 C   0  0  0  0  0  0  0  0  0  0  0  0
   29.8606  -22.7388  -18.8801 C   0  0  0  0  0  0  0  0  0  0  0  0
   30.1378  -23.8778  -19.7274 N   0  0  0  0  0  0  0  0  0  0  0  0
   26.7423  -20.2104  -15.7751 C   0  0  0  0  0  0  0  0  0  0  0  0
   25.4707  -20.3149  -15.8465 O   0  0  0  0  0  0  0  0  0  0  0  0
   27.3974  -19.2149  -16.5312 N   0  0  0  0  0  0  0  0  0  0  0  0
   28.8319  -19.0573  -16.6482 C   0  0  0  0  0  0  0  0  0  0  0  0
   28.9960  -17.5514  -16.5759 C   0  0  0  0  0  0  0  0  0  0  0  0
   27.7002  -16.9735  -17.0686 C   0  0  0  0  0  0  0  0  0  0  0  0
   26.8196  -18.1555  -17.3392 C   0  0  1  0  0  0  0  0  0  0  0  0
   26.9563  -18.5331  -18.7652 C   0  0  0  0  0  0  0  0  0  0  0  0
   26.1924  -17.8786  -19.7449 O   0  0  0  0  0  0  0  0  0  0  0  0
   27.7366  -19.4236  -19.1276 O   0  0  0  0  0  0  0  0  0  0  0  0
  2  1  1  0
  3  2  2  0
  4  3  1  0
  5 11  1  0
  5  4  2  0
  6  7  1  0
  6  5  1  0
  7  8  1  1
  9  7  1  0
 10  9  2  0
 11 12  2  0
 12  2  1  0
 13  9  1  0
 14 13  1  0
 14 15  1  6
 15 16  1  0
 16 17  1  0
 18 17  1  0
 19 18  1  0
 20 21  2  0
 20 14  1  0
 22 20  1  0
 23 22  1  0
 24 25  1  0
 24 23  1  0
 25 26  1  0
 26 27  1  6
 26 22  1  0
 27 28  1  0
 29 27  2  0
M  END
$$$$
