YKP.pdb
     RDKit          3D

 29 30  0  0  1  0  0  0  0  0999 V2000
   28.8773  -19.1386   -5.1198 O   0  0  0  0  0  0  0  0  0  0  0  0
   28.4591  -19.3884   -6.4132 C   0  0  0  0  0  0  0  0  0  0  0  0
   29.2628  -20.1497   -7.2339 C   0  0  0  0  0  0  0  0  0  0  0  0
   28.8974  -20.4317   -8.5338 C   0  0  0  0  0  0  0  0  0  0  0  0
   27.7072  -19.9586   -9.0613 C   0  0  0  0  0  0  0  0  0  0  0  0
   27.2958  -20.2517  -10.4599 C   0  0  0  0  0  0  0  0  0  0  0  0
   26.3178  -21.3888  -10.4225 C   0  0  2  0  0  0  0  0  0  0  0  0
   27.0608  -22.6307  -10.3931 N   0  0  0  0  0  0  0  0  0  0  0  0
   25.4028  -21.4211  -11.5676 C   0  0  0  0  0  0  0  0  0  0  0  0
   25.8655  -21.8611  -12.6708 O   0  0  0  0  0  0  0  0  0  0  0  0
   26.9208  -19.1952   -8.2091 C   0  0  0  0  0  0  0  0  0  0  0  0
   27.2821  -18.9132   -6.9152 C   0  0  0  0  0  0  0  0  0  0  0  0
   24.0494  -21.0023  -11.5417 N   0  0  0  0  0  0  0  0  0  0  0  0
   23.2135  -21.1563  -12.7315 C   0  0  1  0  0  0  0  0  0  0  0  0
   21.8608  -20.5441  -12.3504 C   0  0  0  0  0  0  0  0  0  0  0  0
   20.9458  -20.6893  -13.5479 C   0  0  0  0  0  0  0  0  0  0  0  0
   19.9221  -21.7704  -13.2681 C   0  0  0  0  0  0  0  0  0  0  0  0
   19.0837  -22.0098  -14.4816 C   0  0  0  0  0  0  0  0  0  0  0  0
   18.0663  -22.9949  -14.1872 N   0  0  0  0  0  0  0  0  0  0  0  0
   23.7430  -20.3452  -13.8555 C   0  0  0  0  0  0  0  0  0  0  0  0
   24.3130  -19.2376  -13.5706 O   0  0  0  0  0  0  0  0  0  0  0  0
   23.6434  -20.7440  -15.2056 N   0  0  0  0  0  0  0  0  0  0  0  0
   23.0355  -21.9709  -15.6763 C   0  0  0  0  0  0  0  0  0  0  0  0
   23.9941  -22.4056  -16.7681 C   0  0  0  0  0  0  0  0  0  0  0  0
   24.6515  -21.1483  -17.2611 C   0  0  0  0  0  0  0  0  0  0  0  0
   24.1043  -20.0531  -16.3969 C   0  0  1  0  0  0  0  0  0  0  0  0
   22.9275  -19.4581  -17.0722 C   0  0  0  0  0  0  0  0  0  0  0  0
   23.1032  -18.5901  -18.1619 O   0  0  0  0  0  0  0  0  0  0  0  0
   21.7729  -19.7062  -16.6999 O   0  0  0  0  0  0  0  0  0  0  0  0
  2  1  1  0
  3  2  2  0
  4  3  1  0
  5 11  1  0
  5  4  2  0
  6  7  1  0
  6  5  1  0
  7  8  1  6
  9  7  1  0
 10  9  2  0
 11 12  2  0
 12  2  1  0
 13  9  1  0
 14 13  1  0
 14 15  1  1
 15 16  1  0
 16 17  1  0
 18 17  1  0
 19 18  1  0
 20 21  2  0
 20 14  1  0
 22 20  1  0
 23 22  1  0
 24 25  1  0
 24 23  1  0
 25 26  1  0
 26 27  1  6
 26 22  1  0
 27 28  1  0
 29 27  2  0
M  END
$$$$
