YKP.pdb
     RDKit          3D

 29 30  0  0  1  0  0  0  0  0999 V2000
   16.3083  -19.7757  -20.2971 O   0  0  0  0  0  0  0  0  0  0  0  0
   17.3709  -19.5100  -19.4541 C   0  0  0  0  0  0  0  0  0  0  0  0
   17.1085  -19.0368  -18.1867 C   0  0  0  0  0  0  0  0  0  0  0  0
   18.1283  -18.7540  -17.3017 C   0  0  0  0  0  0  0  0  0  0  0  0
   19.4547  -18.9361  -17.6567 C   0  0  0  0  0  0  0  0  0  0  0  0
   20.5679  -18.6371  -16.7171 C   0  0  0  0  0  0  0  0  0  0  0  0
   21.1206  -19.9436  -16.2288 C   0  0  2  0  0  0  0  0  0  0  0  0
   20.4227  -20.3107  -15.0150 N   0  0  0  0  0  0  0  0  0  0  0  0
   22.5589  -19.9098  -15.9463 C   0  0  0  0  0  0  0  0  0  0  0  0
   22.9522  -19.1287  -15.0190 O   0  0  0  0  0  0  0  0  0  0  0  0
   19.6850  -19.4137  -18.9397 C   0  0  0  0  0  0  0  0  0  0  0  0
   18.6720  -19.6958  -19.8221 C   0  0  0  0  0  0  0  0  0  0  0  0
   23.5406  -20.6757  -16.6225 N   0  0  0  0  0  0  0  0  0  0  0  0
   24.9578  -20.4766  -16.3226 C   0  0  1  0  0  0  0  0  0  0  0  0
   25.6696  -21.6867  -16.9382 C   0  0  0  0  0  0  0  0  0  0  0  0
   27.1241  -21.6141  -16.5241 C   0  0  0  0  0  0  0  0  0  0  0  0
   27.8801  -22.7706  -17.1452 C   0  0  0  0  0  0  0  0  0  0  0  0
   29.3289  -22.6872  -16.7891 C   0  0  0  0  0  0  0  0  0  0  0  0
   30.0377  -23.8144  -17.3541 N   0  0  0  0  0  0  0  0  0  0  0  0
   25.4806  -19.2774  -17.0227 C   0  0  0  0  0  0  0  0  0  0  0  0
   24.9424  -18.9596  -18.1372 O   0  0  0  0  0  0  0  0  0  0  0  0
   26.5324  -18.4864  -16.5127 N   0  0  0  0  0  0  0  0  0  0  0  0
   27.2927  -18.7718  -15.3140 C   0  0  0  0  0  0  0  0  0  0  0  0
   27.4311  -17.3977  -14.6874 C   0  0  0  0  0  0  0  0  0  0  0  0
   27.3386  -16.4182  -15.8222 C   0  0  0  0  0  0  0  0  0  0  0  0
   27.0834  -17.2512  -17.0414 C   0  0  1  0  0  0  0  0  0  0  0  0
   28.3813  -17.5609  -17.6853 C   0  0  0  0  0  0  0  0  0  0  0  0
   29.0438  -16.5827  -18.4443 O   0  0  0  0  0  0  0  0  0  0  0  0
   28.9103  -18.6748  -17.5737 O   0  0  0  0  0  0  0  0  0  0  0  0
  2  1  1  0
  3  2  2  0
  4  3  1  0
  5 11  1  0
  5  4  2  0
  6  7  1  0
  6  5  1  0
  7  8  1  1
  9  7  1  0
 10  9  2  0
 11 12  2  0
 12  2  1  0
 13  9  1  0
 14 13  1  0
 14 15  1  6
 15 16  1  0
 16 17  1  0
 18 17  1  0
 19 18  1  0
 20 21  2  0
 20 14  1  0
 22 20  1  0
 23 22  1  0
 24 25  1  0
 24 23  1  0
 25 26  1  0
 26 27  1  1
 26 22  1  0
 27 28  1  0
 29 27  2  0
M  END
$$$$
