WTM.pdb
     RDKit          3D

 30 31  0  0  1  0  0  0  0  0999 V2000
    6.6188  -17.5992   24.0710 N   0  0  0  0  0  0  0  0  0  0  0  0
    7.7433  -16.7143   24.0883 C   0  0  1  0  0  0  0  0  0  0  0  0
    8.0680  -16.1928   25.4720 C   0  0  0  0  0  0  0  0  0  0  0  0
    7.0690  -15.2242   25.9391 C   0  0  0  0  0  0  0  0  0  0  0  0
    5.8782  -15.4023   26.6129 C   0  0  0  0  0  0  0  0  0  0  0  0
    5.2884  -14.2119   26.8346 N   0  0  0  0  0  0  0  0  0  0  0  0
    6.0549  -13.2274   26.3246 C   0  0  0  0  0  0  0  0  0  0  0  0
    5.8854  -11.8591   26.2983 C   0  0  0  0  0  0  0  0  0  0  0  0
    6.8608  -11.0931   25.6921 C   0  0  0  0  0  0  0  0  0  0  0  0
    7.9817  -11.6976   25.1255 C   0  0  0  0  0  0  0  0  0  0  0  0
    8.1342  -13.0715   25.1617 C   0  0  0  0  0  0  0  0  0  0  0  0
    7.1697  -13.8528   25.7633 C   0  0  0  0  0  0  0  0  0  0  0  0
    8.9155  -17.4123   23.5245 C   0  0  0  0  0  0  0  0  0  0  0  0
    9.0418  -18.6309   23.7845 O   0  0  0  0  0  0  0  0  0  0  0  0
   10.9935  -16.9232   20.0058 C   0  0  0  0  0  0  0  0  0  0  0  0
   11.8525  -16.7495   21.2358 C   0  0  1  0  0  0  0  0  0  0  0  0
   12.1004  -15.3898   21.3713 O   0  0  0  0  0  0  0  0  0  0  0  0
   11.2201  -17.3674   22.4693 C   0  0  2  0  0  0  0  0  0  0  0  0
    9.9051  -16.8071   22.7135 N   0  0  0  0  0  0  0  0  0  0  0  0
   12.0865  -17.3237   23.6607 C   0  0  0  0  0  0  0  0  0  0  0  0
   13.2431  -17.8528   23.6629 O   0  0  0  0  0  0  0  0  0  0  0  0
    9.5077  -12.6631   27.4400 C   0  0  0  0  0  0  0  0  0  0  0  0
   10.9424  -13.5621   28.0337 S   0  0  0  0  0  0  0  0  0  0  0  0
   11.5905  -14.5980   26.6738 C   0  0  0  0  0  0  0  0  0  0  0  0
   12.0192  -15.9430   27.1802 C   0  0  0  0  0  0  0  0  0  0  0  0
   12.6038  -16.7541   26.0860 C   0  0  2  0  0  0  0  0  0  0  0  0
   11.7330  -16.7087   24.8842 N   0  0  0  0  0  0  0  0  0  0  0  0
   12.7127  -18.1630   26.4526 C   0  0  0  0  0  0  0  0  0  0  0  0
   13.8119  -18.7064   26.6503 O   0  0  0  0  0  0  0  0  0  0  0  0
   11.5835  -18.9466   26.5932 O   0  0  0  0  0  0  0  0  0  0  0  0
  2  1  1  1
  2 13  1  0
  3  2  1  0
  3  4  1  0
  4  5  2  0
  4 12  1  0
  5  6  1  0
  6  7  1  0
  7  8  2  0
  8  9  1  0
 10  9  2  0
 11 10  1  0
 12 11  2  0
 12  7  1  0
 13 14  2  0
 16 15  1  6
 16 18  1  0
 17 16  1  0
 18 20  1  0
 19 13  1  0
 18 19  1  1
 20 21  2  0
 23 22  1  0
 24 23  1  0
 24 25  1  0
 26 25  1  1
 26 28  1  0
 27 26  1  0
 27 20  1  0
 28 29  2  0
 28 30  1  0
M  END
$$$$
