WTM.pdb
     RDKit          3D

 30 31  0  0  1  0  0  0  0  0999 V2000
    6.6134  -17.5834   25.0585 N   0  0  0  0  0  0  0  0  0  0  0  0
    7.6987  -16.7591   24.6221 C   0  0  1  0  0  0  0  0  0  0  0  0
    7.9120  -15.5436   25.4992 C   0  0  0  0  0  0  0  0  0  0  0  0
    7.0364  -14.4308   25.1130 C   0  0  0  0  0  0  0  0  0  0  0  0
    6.0777  -13.7409   25.8260 C   0  0  0  0  0  0  0  0  0  0  0  0
    5.5214  -12.7881   25.0533 N   0  0  0  0  0  0  0  0  0  0  0  0
    6.0831  -12.8166   23.8284 C   0  0  0  0  0  0  0  0  0  0  0  0
    5.8579  -12.0525   22.7028 C   0  0  0  0  0  0  0  0  0  0  0  0
    6.6037  -12.3213   21.5727 C   0  0  0  0  0  0  0  0  0  0  0  0
    7.5554  -13.3397   21.5813 C   0  0  0  0  0  0  0  0  0  0  0  0
    7.7672  -14.0954   22.7199 C   0  0  0  0  0  0  0  0  0  0  0  0
    7.0312  -13.8410   23.8583 C   0  0  0  0  0  0  0  0  0  0  0  0
    8.9316  -17.5696   24.5749 C   0  0  0  0  0  0  0  0  0  0  0  0
    8.9702  -18.6034   25.2808 O   0  0  0  0  0  0  0  0  0  0  0  0
   11.5099  -18.0670   21.3439 C   0  0  0  0  0  0  0  0  0  0  0  0
   12.1860  -17.6855   22.6394 C   0  0  1  0  0  0  0  0  0  0  0  0
   12.5293  -16.3435   22.5403 O   0  0  0  0  0  0  0  0  0  0  0  0
   11.3233  -17.9939   23.8493 C   0  0  2  0  0  0  0  0  0  0  0  0
   10.0710  -17.2651   23.7923 N   0  0  0  0  0  0  0  0  0  0  0  0
   12.0247  -17.8184   25.1336 C   0  0  0  0  0  0  0  0  0  0  0  0
   13.1735  -18.3240   25.3395 O   0  0  0  0  0  0  0  0  0  0  0  0
    8.5424  -13.0618   27.7682 C   0  0  0  0  0  0  0  0  0  0  0  0
    9.6747  -14.0414   28.7569 S   0  0  0  0  0  0  0  0  0  0  0  0
   10.6096  -15.1550   27.6487 C   0  0  0  0  0  0  0  0  0  0  0  0
   11.5334  -16.0403   28.4311 C   0  0  0  0  0  0  0  0  0  0  0  0
   12.2119  -17.0102   27.5389 C   0  0  2  0  0  0  0  0  0  0  0  0
   11.5100  -17.0931   26.2331 N   0  0  0  0  0  0  0  0  0  0  0  0
   12.1955  -18.3610   28.0924 C   0  0  0  0  0  0  0  0  0  0  0  0
   11.5403  -19.2769   27.5684 O   0  0  0  0  0  0  0  0  0  0  0  0
   12.9166  -18.6679   29.2303 O   0  0  0  0  0  0  0  0  0  0  0  0
  2  1  1  1
  2 13  1  0
  3  2  1  0
  3  4  1  0
  4  5  2  0
  4 12  1  0
  5  6  1  0
  6  7  1  0
  7  8  2  0
  8  9  1  0
 10  9  2  0
 11 10  1  0
 12 11  2  0
 12  7  1  0
 13 14  2  0
 16 15  1  6
 16 18  1  0
 17 16  1  0
 18 20  1  0
 19 13  1  0
 18 19  1  1
 20 21  2  0
 23 22  1  0
 24 23  1  0
 24 25  1  0
 26 25  1  1
 26 28  1  0
 27 26  1  0
 27 20  1  0
 28 29  2  0
 28 30  1  0
M  END
$$$$
