WTM.pdb
     RDKit          3D

 30 31  0  0  1  0  0  0  0  0999 V2000
    6.1080  -17.4029   25.0843 N   0  0  0  0  0  0  0  0  0  0  0  0
    6.9396  -16.4415   24.4271 C   0  0  1  0  0  0  0  0  0  0  0  0
    7.6225  -15.4909   25.3874 C   0  0  0  0  0  0  0  0  0  0  0  0
    6.7003  -14.4649   25.8888 C   0  0  0  0  0  0  0  0  0  0  0  0
    5.5278  -14.5721   26.6080 C   0  0  0  0  0  0  0  0  0  0  0  0
    5.0175  -13.3489   26.8478 N   0  0  0  0  0  0  0  0  0  0  0  0
    5.8200  -12.4117   26.3055 C   0  0  0  0  0  0  0  0  0  0  0  0
    5.7299  -11.0359   26.2808 C   0  0  0  0  0  0  0  0  0  0  0  0
    6.7244  -10.3290   25.6351 C   0  0  0  0  0  0  0  0  0  0  0  0
    7.7856  -10.9988   25.0284 C   0  0  0  0  0  0  0  0  0  0  0  0
    7.8589  -12.3793   25.0636 C   0  0  0  0  0  0  0  0  0  0  0  0
    6.8741  -13.1019   25.7043 C   0  0  0  0  0  0  0  0  0  0  0  0
    7.9490  -17.1506   23.6162 C   0  0  0  0  0  0  0  0  0  0  0  0
    8.4977  -18.1543   24.1261 O   0  0  0  0  0  0  0  0  0  0  0  0
    9.5198  -14.8482   20.3105 C   0  0  0  0  0  0  0  0  0  0  0  0
    9.7850  -16.3332   20.3852 C   0  0  1  0  0  0  0  0  0  0  0  0
   11.0205  -16.5571   19.7921 O   0  0  0  0  0  0  0  0  0  0  0  0
    9.6997  -16.8604   21.8058 C   0  0  2  0  0  0  0  0  0  0  0  0
    8.3416  -16.7804   22.3077 N   0  0  0  0  0  0  0  0  0  0  0  0
   10.6805  -16.2502   22.7210 C   0  0  0  0  0  0  0  0  0  0  0  0
   10.6234  -15.0186   23.0334 O   0  0  0  0  0  0  0  0  0  0  0  0
    9.6949  -14.8956   28.3696 C   0  0  0  0  0  0  0  0  0  0  0  0
   11.1317  -15.8526   27.8807 S   0  0  0  0  0  0  0  0  0  0  0  0
   11.3190  -15.7451   26.0654 C   0  0  0  0  0  0  0  0  0  0  0  0
   12.5150  -16.5221   25.6015 C   0  0  0  0  0  0  0  0  0  0  0  0
   12.7763  -16.2751   24.1636 C   0  0  2  0  0  0  0  0  0  0  0  0
   11.7509  -16.9482   23.3268 N   0  0  0  0  0  0  0  0  0  0  0  0
   14.0629  -16.8221   23.7433 C   0  0  0  0  0  0  0  0  0  0  0  0
   14.1430  -17.8206   23.0090 O   0  0  0  0  0  0  0  0  0  0  0  0
   15.2469  -16.2400   24.1536 O   0  0  0  0  0  0  0  0  0  0  0  0
  2  1  1  1
  2 13  1  0
  3  2  1  0
  3  4  1  0
  4  5  2  0
  4 12  1  0
  5  6  1  0
  6  7  1  0
  7  8  2  0
  8  9  1  0
 10  9  2  0
 11 10  1  0
 12 11  2  0
 12  7  1  0
 13 14  2  0
 16 15  1  1
 16 18  1  0
 17 16  1  0
 18 20  1  0
 19 13  1  0
 18 19  1  1
 20 21  2  0
 23 22  1  0
 24 23  1  0
 24 25  1  0
 26 25  1  1
 26 28  1  0
 27 26  1  0
 27 20  1  0
 28 29  2  0
 28 30  1  0
M  END
$$$$
