WTM.pdb
     RDKit          3D

 30 31  0  0  1  0  0  0  0  0999 V2000
   10.3527  -16.0831   22.0988 N   0  0  0  0  0  0  0  0  0  0  0  0
    9.7089  -15.5529   23.2616 C   0  0  1  0  0  0  0  0  0  0  0  0
    8.2319  -15.8795   23.3242 C   0  0  0  0  0  0  0  0  0  0  0  0
    7.4011  -14.6734   23.2258 C   0  0  0  0  0  0  0  0  0  0  0  0
    6.7308  -14.1183   22.1553 C   0  0  0  0  0  0  0  0  0  0  0  0
    6.0916  -12.9967   22.5396 N   0  0  0  0  0  0  0  0  0  0  0  0
    6.3142  -12.7781   23.8508 C   0  0  0  0  0  0  0  0  0  0  0  0
    5.8841  -11.7763   24.6953 C   0  0  0  0  0  0  0  0  0  0  0  0
    6.2843  -11.8204   26.0157 C   0  0  0  0  0  0  0  0  0  0  0  0
    7.1008  -12.8543   26.4711 C   0  0  0  0  0  0  0  0  0  0  0  0
    7.5220  -13.8502   25.6092 C   0  0  0  0  0  0  0  0  0  0  0  0
    7.1320  -13.8223   24.2865 C   0  0  0  0  0  0  0  0  0  0  0  0
   10.3903  -16.0657   24.4666 C   0  0  0  0  0  0  0  0  0  0  0  0
   11.1418  -17.0578   24.3266 O   0  0  0  0  0  0  0  0  0  0  0  0
   11.0121  -13.6443   27.8044 C   0  0  0  0  0  0  0  0  0  0  0  0
   10.7313  -15.0930   28.1262 C   0  0  1  0  0  0  0  0  0  0  0  0
    9.4327  -15.1579   28.6140 O   0  0  0  0  0  0  0  0  0  0  0  0
   10.9680  -16.0019   26.9341 C   0  0  2  0  0  0  0  0  0  0  0  0
   10.2572  -15.5200   25.7657 N   0  0  0  0  0  0  0  0  0  0  0  0
   10.7014  -17.4239   27.2149 C   0  0  0  0  0  0  0  0  0  0  0  0
    9.5609  -17.9432   26.9976 O   0  0  0  0  0  0  0  0  0  0  0  0
   15.9767  -20.4733   26.7032 C   0  0  0  0  0  0  0  0  0  0  0  0
   14.5408  -21.4317   26.2147 S   0  0  0  0  0  0  0  0  0  0  0  0
   13.0420  -20.4175   26.4735 C   0  0  0  0  0  0  0  0  0  0  0  0
   12.4918  -20.6142   27.8548 C   0  0  0  0  0  0  0  0  0  0  0  0
   11.3225  -19.7329   28.0847 C   0  0  2  0  0  0  0  0  0  0  0  0
   11.6551  -18.3282   27.7372 N   0  0  0  0  0  0  0  0  0  0  0  0
   10.9215  -19.7174   29.4884 C   0  0  0  0  0  0  0  0  0  0  0  0
   11.0335  -18.6997   30.1914 O   0  0  0  0  0  0  0  0  0  0  0  0
   10.3984  -20.8474   30.0870 O   0  0  0  0  0  0  0  0  0  0  0  0
  2  1  1  6
  2 13  1  0
  3  2  1  0
  3  4  1  0
  4  5  2  0
  4 12  1  0
  5  6  1  0
  6  7  1  0
  7  8  2  0
  8  9  1  0
 10  9  2  0
 11 10  1  0
 12 11  2  0
 12  7  1  0
 13 14  2  0
 16 15  1  6
 16 18  1  0
 17 16  1  0
 18 20  1  0
 19 13  1  0
 18 19  1  6
 20 21  2  0
 23 22  1  0
 24 23  1  0
 24 25  1  0
 26 25  1  1
 26 28  1  0
 27 26  1  0
 27 20  1  0
 28 29  2  0
 28 30  1  0
M  END
$$$$
