WTM.pdb
     RDKit          3D

 30 31  0  0  1  0  0  0  0  0999 V2000
    6.5116  -17.4411   24.8115 N   0  0  0  0  0  0  0  0  0  0  0  0
    7.4645  -16.5489   24.2252 C   0  0  1  0  0  0  0  0  0  0  0  0
    8.0373  -15.5568   25.2151 C   0  0  0  0  0  0  0  0  0  0  0  0
    7.0004  -14.6794   25.7713 C   0  0  0  0  0  0  0  0  0  0  0  0
    5.8175  -14.9701   26.4191 C   0  0  0  0  0  0  0  0  0  0  0  0
    5.1807  -13.8316   26.7547 N   0  0  0  0  0  0  0  0  0  0  0  0
    5.9076  -12.7721   26.3476 C   0  0  0  0  0  0  0  0  0  0  0  0
    5.6839  -11.4157   26.4558 C   0  0  0  0  0  0  0  0  0  0  0  0
    6.6282  -10.5555   25.9323 C   0  0  0  0  0  0  0  0  0  0  0  0
    7.7725  -11.0563   25.3136 C   0  0  0  0  0  0  0  0  0  0  0  0
    7.9795  -12.4200   25.2147 C   0  0  0  0  0  0  0  0  0  0  0  0
    7.0466  -13.2944   25.7321 C   0  0  0  0  0  0  0  0  0  0  0  0
    8.5528  -17.3380   23.6151 C   0  0  0  0  0  0  0  0  0  0  0  0
    8.9847  -18.3208   24.2601 O   0  0  0  0  0  0  0  0  0  0  0  0
    9.8135  -17.3939   19.6507 C   0  0  0  0  0  0  0  0  0  0  0  0
   10.8485  -16.8683   20.6168 C   0  0  1  0  0  0  0  0  0  0  0  0
   10.9200  -15.4941   20.4300 O   0  0  0  0  0  0  0  0  0  0  0  0
   10.5465  -17.2614   22.0512 C   0  0  2  0  0  0  0  0  0  0  0  0
    9.1427  -17.0663   22.3575 N   0  0  0  0  0  0  0  0  0  0  0  0
   11.4371  -16.6237   23.0373 C   0  0  0  0  0  0  0  0  0  0  0  0
   11.4179  -15.3679   23.2378 O   0  0  0  0  0  0  0  0  0  0  0  0
   10.6584  -14.0539   28.4844 C   0  0  0  0  0  0  0  0  0  0  0  0
   10.9607  -15.6565   27.7365 S   0  0  0  0  0  0  0  0  0  0  0  0
   12.5997  -15.6272   26.9272 C   0  0  0  0  0  0  0  0  0  0  0  0
   12.8576  -16.9072   26.1892 C   0  0  0  0  0  0  0  0  0  0  0  0
   13.2774  -16.6336   24.7943 C   0  0  2  0  0  0  0  0  0  0  0  0
   12.3737  -17.3195   23.8364 N   0  0  0  0  0  0  0  0  0  0  0  0
   14.6178  -17.1432   24.5204 C   0  0  0  0  0  0  0  0  0  0  0  0
   15.6129  -16.7411   25.1455 O   0  0  0  0  0  0  0  0  0  0  0  0
   14.8251  -18.1003   23.5459 O   0  0  0  0  0  0  0  0  0  0  0  0
  2  1  1  1
  2 13  1  0
  3  2  1  0
  3  4  1  0
  4  5  2  0
  4 12  1  0
  5  6  1  0
  6  7  1  0
  7  8  2  0
  8  9  1  0
 10  9  2  0
 11 10  1  0
 12 11  2  0
 12  7  1  0
 13 14  2  0
 16 15  1  6
 16 18  1  0
 17 16  1  0
 18 20  1  0
 19 13  1  0
 18 19  1  1
 20 21  2  0
 23 22  1  0
 24 23  1  0
 24 25  1  0
 26 25  1  1
 26 28  1  0
 27 26  1  0
 27 20  1  0
 28 29  2  0
 28 30  1  0
M  END
$$$$
