WTM.pdb
     RDKit          3D

 30 31  0  0  1  0  0  0  0  0999 V2000
    6.5213  -17.7718   24.4312 N   0  0  0  0  0  0  0  0  0  0  0  0
    7.4280  -16.7885   23.9225 C   0  0  1  0  0  0  0  0  0  0  0  0
    7.9413  -15.8448   24.9895 C   0  0  0  0  0  0  0  0  0  0  0  0
    6.8863  -14.9507   25.4813 C   0  0  0  0  0  0  0  0  0  0  0  0
    5.8134  -15.1862   26.3161 C   0  0  0  0  0  0  0  0  0  0  0  0
    5.1049  -14.0542   26.4913 N   0  0  0  0  0  0  0  0  0  0  0  0
    5.6750  -13.0531   25.7917 C   0  0  0  0  0  0  0  0  0  0  0  0
    5.3293  -11.7256   25.6506 C   0  0  0  0  0  0  0  0  0  0  0  0
    6.1222  -10.9270   24.8511 C   0  0  0  0  0  0  0  0  0  0  0  0
    7.2391  -11.4594   24.2092 C   0  0  0  0  0  0  0  0  0  0  0  0
    7.5699  -12.7932   24.3627 C   0  0  0  0  0  0  0  0  0  0  0  0
    6.7892  -13.6061   25.1578 C   0  0  0  0  0  0  0  0  0  0  0  0
    8.5604  -17.4704   23.2653 C   0  0  0  0  0  0  0  0  0  0  0  0
    8.9623  -18.5423   23.7732 O   0  0  0  0  0  0  0  0  0  0  0  0
   10.0734  -17.0313   19.4118 C   0  0  0  0  0  0  0  0  0  0  0  0
   11.0213  -16.5874   20.5006 C   0  0  1  0  0  0  0  0  0  0  0  0
   11.0471  -15.1991   20.4776 O   0  0  0  0  0  0  0  0  0  0  0  0
   10.6444  -17.1558   21.8564 C   0  0  2  0  0  0  0  0  0  0  0  0
    9.2241  -17.0029   22.1058 N   0  0  0  0  0  0  0  0  0  0  0  0
   11.4737  -16.6433   22.9617 C   0  0  0  0  0  0  0  0  0  0  0  0
   11.7366  -15.4043   23.0780 O   0  0  0  0  0  0  0  0  0  0  0  0
   11.0892  -13.7027   28.4048 C   0  0  0  0  0  0  0  0  0  0  0  0
   11.3633  -15.4501   28.7052 S   0  0  0  0  0  0  0  0  0  0  0  0
   12.5280  -16.0866   27.4480 C   0  0  0  0  0  0  0  0  0  0  0  0
   11.8099  -16.4374   26.1788 C   0  0  0  0  0  0  0  0  0  0  0  0
   12.7682  -16.8820   25.1391 C   0  0  2  0  0  0  0  0  0  0  0  0
   12.0435  -17.4497   23.9741 N   0  0  0  0  0  0  0  0  0  0  0  0
   13.6443  -17.9435   25.6259 C   0  0  0  0  0  0  0  0  0  0  0  0
   14.5326  -17.7271   26.4666 O   0  0  0  0  0  0  0  0  0  0  0  0
   13.5120  -19.2381   25.1620 O   0  0  0  0  0  0  0  0  0  0  0  0
  2  1  1  1
  2 13  1  0
  3  2  1  0
  3  4  1  0
  4  5  2  0
  4 12  1  0
  5  6  1  0
  6  7  1  0
  7  8  2  0
  8  9  1  0
 10  9  2  0
 11 10  1  0
 12 11  2  0
 12  7  1  0
 13 14  2  0
 16 15  1  6
 16 18  1  0
 17 16  1  0
 18 20  1  0
 19 13  1  0
 18 19  1  1
 20 21  2  0
 23 22  1  0
 24 23  1  0
 24 25  1  0
 26 25  1  1
 26 28  1  0
 27 26  1  0
 27 20  1  0
 28 29  2  0
 28 30  1  0
M  END
$$$$
