WTM.pdb
     RDKit          3D

 30 31  0  0  1  0  0  0  0  0999 V2000
    6.1123  -17.4391   23.7979 N   0  0  0  0  0  0  0  0  0  0  0  0
    7.3096  -16.6607   23.7065 C   0  0  1  0  0  0  0  0  0  0  0  0
    7.7767  -16.1291   25.0449 C   0  0  0  0  0  0  0  0  0  0  0  0
    6.9331  -15.0255   25.5190 C   0  0  0  0  0  0  0  0  0  0  0  0
    5.6995  -15.0271   26.1369 C   0  0  0  0  0  0  0  0  0  0  0  0
    5.3074  -13.7642   26.3925 N   0  0  0  0  0  0  0  0  0  0  0  0
    6.2503  -12.9034   25.9604 C   0  0  0  0  0  0  0  0  0  0  0  0
    6.3133  -11.5263   25.9933 C   0  0  0  0  0  0  0  0  0  0  0  0
    7.4299  -10.9121   25.4627 C   0  0  0  0  0  0  0  0  0  0  0  0
    8.4590  -11.6737   24.9115 C   0  0  0  0  0  0  0  0  0  0  0  0
    8.3779  -13.0540   24.8876 C   0  0  0  0  0  0  0  0  0  0  0  0
    7.2696  -13.6848   25.4132 C   0  0  0  0  0  0  0  0  0  0  0  0
    8.3720  -17.4799   23.0906 C   0  0  0  0  0  0  0  0  0  0  0  0
    8.5809  -18.6149   23.5771 O   0  0  0  0  0  0  0  0  0  0  0  0
   12.6211  -17.0479   20.4380 C   0  0  0  0  0  0  0  0  0  0  0  0
   11.1501  -16.7450   20.5972 C   0  0  1  0  0  0  0  0  0  0  0  0
   10.4937  -17.3370   19.5261 O   0  0  0  0  0  0  0  0  0  0  0  0
   10.6153  -17.1902   21.9459 C   0  0  2  0  0  0  0  0  0  0  0  0
    9.1703  -17.0781   21.9931 N   0  0  0  0  0  0  0  0  0  0  0  0
   11.2738  -16.5313   23.0880 C   0  0  0  0  0  0  0  0  0  0  0  0
   10.9651  -15.3499   23.4438 O   0  0  0  0  0  0  0  0  0  0  0  0
   10.6607  -13.5930   28.0392 C   0  0  0  0  0  0  0  0  0  0  0  0
   11.2910  -15.1825   28.5825 S   0  0  0  0  0  0  0  0  0  0  0  0
   12.5393  -15.7618   27.3790 C   0  0  0  0  0  0  0  0  0  0  0  0
   11.8867  -16.2422   26.1169 C   0  0  0  0  0  0  0  0  0  0  0  0
   12.8939  -16.4406   25.0478 C   0  0  2  0  0  0  0  0  0  0  0  0
   12.2834  -17.1254   23.8803 N   0  0  0  0  0  0  0  0  0  0  0  0
   13.9924  -17.2954   25.4881 C   0  0  0  0  0  0  0  0  0  0  0  0
   14.1238  -18.4595   25.0757 O   0  0  0  0  0  0  0  0  0  0  0  0
   14.9324  -16.8316   26.3883 O   0  0  0  0  0  0  0  0  0  0  0  0
  2  1  1  1
  2 13  1  0
  3  2  1  0
  3  4  1  0
  4  5  2  0
  4 12  1  0
  5  6  1  0
  6  7  1  0
  7  8  2  0
  8  9  1  0
 10  9  2  0
 11 10  1  0
 12 11  2  0
 12  7  1  0
 13 14  2  0
 16 15  1  1
 16 18  1  0
 17 16  1  0
 18 20  1  0
 19 13  1  0
 18 19  1  6
 20 21  2  0
 23 22  1  0
 24 23  1  0
 24 25  1  0
 26 25  1  1
 26 28  1  0
 27 26  1  0
 27 20  1  0
 28 29  2  0
 28 30  1  0
M  END
$$$$
