WTM.pdb
     RDKit          3D

 30 31  0  0  1  0  0  0  0  0999 V2000
    6.2628  -17.3209   24.2019 N   0  0  0  0  0  0  0  0  0  0  0  0
    7.4020  -16.4998   23.9266 C   0  0  1  0  0  0  0  0  0  0  0  0
    7.9195  -15.7721   25.1492 C   0  0  0  0  0  0  0  0  0  0  0  0
    6.9701  -14.7585   25.6243 C   0  0  0  0  0  0  0  0  0  0  0  0
    5.8670  -14.8631   26.4464 C   0  0  0  0  0  0  0  0  0  0  0  0
    5.2933  -13.6553   26.6084 N   0  0  0  0  0  0  0  0  0  0  0  0
    5.9847  -12.7311   25.9124 C   0  0  0  0  0  0  0  0  0  0  0  0
    5.7979  -11.3731   25.7620 C   0  0  0  0  0  0  0  0  0  0  0  0
    6.6882  -10.6765   24.9697 C   0  0  0  0  0  0  0  0  0  0  0  0
    7.7431  -11.3387   24.3439 C   0  0  0  0  0  0  0  0  0  0  0  0
    7.9143  -12.7012   24.5066 C   0  0  0  0  0  0  0  0  0  0  0  0
    7.0344  -13.4135   25.2947 C   0  0  0  0  0  0  0  0  0  0  0  0
    8.4714  -17.3365   23.3474 C   0  0  0  0  0  0  0  0  0  0  0  0
    8.6690  -18.4601   23.8642 O   0  0  0  0  0  0  0  0  0  0  0  0
   10.3807  -17.4316   19.6924 C   0  0  0  0  0  0  0  0  0  0  0  0
   11.2480  -16.8702   20.7940 C   0  0  1  0  0  0  0  0  0  0  0  0
   11.3564  -15.5037   20.5712 O   0  0  0  0  0  0  0  0  0  0  0  0
   10.7148  -17.2103   22.1737 C   0  0  2  0  0  0  0  0  0  0  0  0
    9.2882  -16.9632   22.2534 N   0  0  0  0  0  0  0  0  0  0  0  0
   11.4643  -16.5704   23.2695 C   0  0  0  0  0  0  0  0  0  0  0  0
   11.3934  -15.3185   23.4827 O   0  0  0  0  0  0  0  0  0  0  0  0
   11.1467  -14.7796   29.0390 C   0  0  0  0  0  0  0  0  0  0  0  0
   10.3495  -16.0977   28.1192 S   0  0  0  0  0  0  0  0  0  0  0  0
   11.0878  -16.1780   26.4487 C   0  0  0  0  0  0  0  0  0  0  0  0
   12.5162  -16.6305   26.5136 C   0  0  0  0  0  0  0  0  0  0  0  0
   13.1500  -16.5623   25.1754 C   0  0  2  0  0  0  0  0  0  0  0  0
   12.3114  -17.2598   24.1680 N   0  0  0  0  0  0  0  0  0  0  0  0
   14.4473  -17.2315   25.1539 C   0  0  0  0  0  0  0  0  0  0  0  0
   15.4203  -16.7968   25.7917 O   0  0  0  0  0  0  0  0  0  0  0  0
   14.6367  -18.3834   24.4149 O   0  0  0  0  0  0  0  0  0  0  0  0
  2  1  1  1
  2 13  1  0
  3  2  1  0
  3  4  1  0
  4  5  2  0
  4 12  1  0
  5  6  1  0
  6  7  1  0
  7  8  2  0
  8  9  1  0
 10  9  2  0
 11 10  1  0
 12 11  2  0
 12  7  1  0
 13 14  2  0
 16 15  1  6
 16 18  1  0
 17 16  1  0
 18 20  1  0
 19 13  1  0
 18 19  1  6
 20 21  2  0
 23 22  1  0
 24 23  1  0
 24 25  1  0
 26 25  1  1
 26 28  1  0
 27 26  1  0
 27 20  1  0
 28 29  2  0
 28 30  1  0
M  END
$$$$
