WTM.pdb
     RDKit          3D

 30 31  0  0  1  0  0  0  0  0999 V2000
    6.4496  -17.5962   24.7317 N   0  0  0  0  0  0  0  0  0  0  0  0
    7.3058  -16.6622   24.0665 C   0  0  1  0  0  0  0  0  0  0  0  0
    7.9010  -15.6310   25.0017 C   0  0  0  0  0  0  0  0  0  0  0  0
    6.8748  -14.7406   25.5572 C   0  0  0  0  0  0  0  0  0  0  0  0
    5.8548  -14.9802   26.4547 C   0  0  0  0  0  0  0  0  0  0  0  0
    5.1548  -13.8505   26.6736 N   0  0  0  0  0  0  0  0  0  0  0  0
    5.6789  -12.8469   25.9424 C   0  0  0  0  0  0  0  0  0  0  0  0
    5.3215  -11.5203   25.8240 C   0  0  0  0  0  0  0  0  0  0  0  0
    6.0625  -10.7185   24.9794 C   0  0  0  0  0  0  0  0  0  0  0  0
    7.1404  -11.2468   24.2707 C   0  0  0  0  0  0  0  0  0  0  0  0
    7.4838  -12.5798   24.4024 C   0  0  0  0  0  0  0  0  0  0  0  0
    6.7545  -13.3959   25.2419 C   0  0  0  0  0  0  0  0  0  0  0  0
    8.3832  -17.4005   23.3785 C   0  0  0  0  0  0  0  0  0  0  0  0
    8.7520  -18.4861   23.8824 O   0  0  0  0  0  0  0  0  0  0  0  0
    9.8916  -16.9901   19.5213 C   0  0  0  0  0  0  0  0  0  0  0  0
   10.8214  -16.4914   20.6019 C   0  0  1  0  0  0  0  0  0  0  0  0
   10.8017  -15.1038   20.5484 O   0  0  0  0  0  0  0  0  0  0  0  0
   10.4597  -17.0420   21.9691 C   0  0  2  0  0  0  0  0  0  0  0  0
    9.0288  -16.9726   22.1938 N   0  0  0  0  0  0  0  0  0  0  0  0
   11.2372  -16.4449   23.0697 C   0  0  0  0  0  0  0  0  0  0  0  0
   10.9133  -15.3277   23.5842 O   0  0  0  0  0  0  0  0  0  0  0  0
   10.3143  -15.4824   28.5691 C   0  0  0  0  0  0  0  0  0  0  0  0
   12.0524  -15.1067   28.3306 S   0  0  0  0  0  0  0  0  0  0  0  0
   12.8086  -16.4362   27.3292 C   0  0  0  0  0  0  0  0  0  0  0  0
   12.0810  -16.6100   26.0293 C   0  0  0  0  0  0  0  0  0  0  0  0
   13.0183  -16.5099   24.8854 C   0  0  2  0  0  0  0  0  0  0  0  0
   12.3854  -17.0335   23.6485 N   0  0  0  0  0  0  0  0  0  0  0  0
   14.2194  -17.3129   25.0954 C   0  0  0  0  0  0  0  0  0  0  0  0
   15.1929  -17.2504   24.3267 O   0  0  0  0  0  0  0  0  0  0  0  0
   14.3129  -18.1782   26.1684 O   0  0  0  0  0  0  0  0  0  0  0  0
  2  1  1  1
  2 13  1  0
  3  2  1  0
  3  4  1  0
  4  5  2  0
  4 12  1  0
  5  6  1  0
  6  7  1  0
  7  8  2  0
  8  9  1  0
 10  9  2  0
 11 10  1  0
 12 11  2  0
 12  7  1  0
 13 14  2  0
 16 15  1  6
 16 18  1  0
 17 16  1  0
 18 20  1  0
 19 13  1  0
 18 19  1  1
 20 21  2  0
 23 22  1  0
 24 23  1  0
 24 25  1  0
 26 25  1  1
 26 28  1  0
 27 26  1  0
 27 20  1  0
 28 29  2  0
 28 30  1  0
M  END
$$$$
