WTM.pdb
     RDKit          3D

 30 31  0  0  1  0  0  0  0  0999 V2000
    8.0405  -16.5860   19.8501 N   0  0  0  0  0  0  0  0  0  0  0  0
    8.0745  -16.0974   21.1947 C   0  0  1  0  0  0  0  0  0  0  0  0
    6.6993  -15.9653   21.8141 C   0  0  0  0  0  0  0  0  0  0  0  0
    6.7705  -15.5355   23.2158 C   0  0  0  0  0  0  0  0  0  0  0  0
    6.5533  -16.2278   24.3892 C   0  0  0  0  0  0  0  0  0  0  0  0
    6.7358  -15.4150   25.4477 N   0  0  0  0  0  0  0  0  0  0  0  0
    7.0729  -14.1832   25.0169 C   0  0  0  0  0  0  0  0  0  0  0  0
    7.3581  -13.0221   25.7039 C   0  0  0  0  0  0  0  0  0  0  0  0
    7.6768  -11.8944   24.9741 C   0  0  0  0  0  0  0  0  0  0  0  0
    7.7061  -11.9406   23.5813 C   0  0  0  0  0  0  0  0  0  0  0  0
    7.4171  -13.1145   22.9098 C   0  0  0  0  0  0  0  0  0  0  0  0
    7.0966  -14.2510   23.6226 C   0  0  0  0  0  0  0  0  0  0  0  0
    8.9123  -16.9957   22.0136 C   0  0  0  0  0  0  0  0  0  0  0  0
    8.4302  -18.1084   22.3268 O   0  0  0  0  0  0  0  0  0  0  0  0
   12.0591  -18.7219   21.4005 C   0  0  0  0  0  0  0  0  0  0  0  0
   12.2944  -17.9648   22.6860 C   0  0  1  0  0  0  0  0  0  0  0  0
   13.1264  -16.8951   22.3825 O   0  0  0  0  0  0  0  0  0  0  0  0
   10.9963  -17.5428   23.3493 C   0  0  2  0  0  0  0  0  0  0  0  0
   10.2173  -16.6927   22.4699 N   0  0  0  0  0  0  0  0  0  0  0  0
   11.1820  -16.9563   24.6885 C   0  0  0  0  0  0  0  0  0  0  0  0
   11.4783  -15.7291   24.8429 O   0  0  0  0  0  0  0  0  0  0  0  0
    9.3893  -13.2819   28.2442 C   0  0  0  0  0  0  0  0  0  0  0  0
   10.7908  -14.1018   29.0074 S   0  0  0  0  0  0  0  0  0  0  0  0
   10.4174  -15.8850   29.1582 C   0  0  0  0  0  0  0  0  0  0  0  0
   10.1249  -16.4882   27.8166 C   0  0  0  0  0  0  0  0  0  0  0  0
   11.3520  -17.0720   27.2246 C   0  0  2  0  0  0  0  0  0  0  0  0
   11.0536  -17.6739   25.9004 N   0  0  0  0  0  0  0  0  0  0  0  0
   11.8911  -18.1515   28.0464 C   0  0  0  0  0  0  0  0  0  0  0  0
   12.2974  -17.9548   29.2035 O   0  0  0  0  0  0  0  0  0  0  0  0
   11.9676  -19.4416   27.5580 O   0  0  0  0  0  0  0  0  0  0  0  0
  2  1  1  6
  2 13  1  0
  3  2  1  0
  3  4  1  0
  4  5  2  0
  4 12  1  0
  5  6  1  0
  6  7  1  0
  7  8  2  0
  8  9  1  0
 10  9  2  0
 11 10  1  0
 12 11  2  0
 12  7  1  0
 13 14  2  0
 16 15  1  6
 16 18  1  0
 17 16  1  0
 18 20  1  0
 19 13  1  0
 18 19  1  6
 20 21  2  0
 23 22  1  0
 24 23  1  0
 24 25  1  0
 26 25  1  1
 26 28  1  0
 27 26  1  0
 27 20  1  0
 28 29  2  0
 28 30  1  0
M  END
$$$$
