WTM.pdb
     RDKit          3D

 30 31  0  0  1  0  0  0  0  0999 V2000
    6.2112  -17.3469   24.2083 N   0  0  0  0  0  0  0  0  0  0  0  0
    7.3652  -16.5156   24.0498 C   0  0  1  0  0  0  0  0  0  0  0  0
    7.8517  -15.9190   25.3535 C   0  0  0  0  0  0  0  0  0  0  0  0
    6.9226  -14.9079   25.8719 C   0  0  0  0  0  0  0  0  0  0  0  0
    5.7781  -15.0322   26.6324 C   0  0  0  0  0  0  0  0  0  0  0  0
    5.2468  -13.8181   26.8725 N   0  0  0  0  0  0  0  0  0  0  0  0
    6.0076  -12.8701   26.2900 C   0  0  0  0  0  0  0  0  0  0  0  0
    5.8835  -11.4974   26.2493 C   0  0  0  0  0  0  0  0  0  0  0  0
    6.8381  -10.7767   25.5600 C   0  0  0  0  0  0  0  0  0  0  0  0
    7.8940  -11.4301   24.9266 C   0  0  0  0  0  0  0  0  0  0  0  0
    8.0017  -12.8078   24.9785 C   0  0  0  0  0  0  0  0  0  0  0  0
    7.0571  -13.5440   25.6626 C   0  0  0  0  0  0  0  0  0  0  0  0
    8.4445  -17.3028   23.4216 C   0  0  0  0  0  0  0  0  0  0  0  0
    8.7122  -18.4187   23.9234 O   0  0  0  0  0  0  0  0  0  0  0  0
   10.0673  -17.3676   19.6578 C   0  0  0  0  0  0  0  0  0  0  0  0
   11.0387  -16.8422   20.6880 C   0  0  1  0  0  0  0  0  0  0  0  0
   11.1751  -15.4789   20.4619 O   0  0  0  0  0  0  0  0  0  0  0  0
   10.6069  -17.1727   22.1049 C   0  0  2  0  0  0  0  0  0  0  0  0
    9.1975  -16.8903   22.2964 N   0  0  0  0  0  0  0  0  0  0  0  0
   11.4557  -16.5547   23.1392 C   0  0  0  0  0  0  0  0  0  0  0  0
   11.2338  -15.3778   23.5671 O   0  0  0  0  0  0  0  0  0  0  0  0
   10.3776  -13.2926   27.2763 C   0  0  0  0  0  0  0  0  0  0  0  0
   11.2343  -14.7497   27.8778 S   0  0  0  0  0  0  0  0  0  0  0  0
   12.6123  -15.1327   26.7391 C   0  0  0  0  0  0  0  0  0  0  0  0
   12.3982  -16.4534   26.0614 C   0  0  0  0  0  0  0  0  0  0  0  0
   13.2988  -16.5959   24.8928 C   0  0  2  0  0  0  0  0  0  0  0  0
   12.5677  -17.1862   23.7431 N   0  0  0  0  0  0  0  0  0  0  0  0
   14.4109  -17.4999   25.1710 C   0  0  0  0  0  0  0  0  0  0  0  0
   14.3943  -18.6895   24.8147 O   0  0  0  0  0  0  0  0  0  0  0  0
   15.5309  -17.0560   25.8476 O   0  0  0  0  0  0  0  0  0  0  0  0
  2  1  1  1
  2 13  1  0
  3  2  1  0
  3  4  1  0
  4  5  2  0
  4 12  1  0
  5  6  1  0
  6  7  1  0
  7  8  2  0
  8  9  1  0
 10  9  2  0
 11 10  1  0
 12 11  2  0
 12  7  1  0
 13 14  2  0
 16 15  1  6
 16 18  1  0
 17 16  1  0
 18 20  1  0
 19 13  1  0
 18 19  1  1
 20 21  2  0
 23 22  1  0
 24 23  1  0
 24 25  1  0
 26 25  1  1
 26 28  1  0
 27 26  1  0
 27 20  1  0
 28 29  2  0
 28 30  1  0
M  END
$$$$
