VNF.pdb
     RDKit          3D

 27 27  0  0  1  0  0  0  0  0999 V2000
   28.9227  -18.7876  -13.9399 C   0  0  0  0  0  0  0  0  0  0  0  0
   28.6661  -18.2420  -15.3054 C   0  0  1  0  0  0  0  0  0  0  0  0
   29.8833  -18.4431  -16.1848 C   0  0  0  0  0  0  0  0  0  0  0  0
   27.4749  -18.8597  -16.0058 C   0  0  2  0  0  0  0  0  0  0  0  0
   27.3538  -18.1250  -17.2769 N   0  0  0  0  0  0  0  0  0  0  0  0
   26.2270  -18.6677  -15.2634 C   0  0  0  0  0  0  0  0  0  0  0  0
   25.8187  -17.4626  -15.1591 O   0  0  0  0  0  0  0  0  0  0  0  0
   21.0666  -18.3951  -14.3336 N   0  0  0  0  0  0  0  0  0  0  0  0
   21.8076  -19.6152  -14.3233 C   0  0  0  0  0  0  0  0  0  0  0  0
   21.2500  -20.6199  -13.8236 O   0  0  0  0  0  0  0  0  0  0  0  0
   23.1602  -19.7450  -14.8580 C   0  0  0  0  0  0  0  0  0  0  0  0
   24.2866  -19.4986  -13.9202 C   0  0  2  0  0  0  0  0  0  0  0  0
   25.5160  -19.7466  -14.6972 N   0  0  0  0  0  0  0  0  0  0  0  0
   24.3522  -20.3761  -12.7371 C   0  0  0  0  0  0  0  0  0  0  0  0
   24.6680  -21.6108  -12.8741 O   0  0  0  0  0  0  0  0  0  0  0  0
   24.0952  -19.9863  -11.3963 N   0  0  0  0  0  0  0  0  0  0  0  0
   23.8654  -20.9823  -10.3419 C   0  0  1  0  0  0  0  0  0  0  0  0
   24.4360  -20.5199   -9.0478 C   0  0  0  0  0  0  0  0  0  0  0  0
   25.9045  -20.4126   -9.1350 C   0  0  0  0  0  0  0  0  0  0  0  0
   26.7060  -21.3905   -9.7265 C   0  0  0  0  0  0  0  0  0  0  0  0
   28.0638  -21.2614   -9.7976 C   0  0  0  0  0  0  0  0  0  0  0  0
   28.7088  -20.1459   -9.2816 C   0  0  0  0  0  0  0  0  0  0  0  0
   27.9498  -19.1640   -8.6918 C   0  0  0  0  0  0  0  0  0  0  0  0
   26.5855  -19.3040   -8.6258 C   0  0  0  0  0  0  0  0  0  0  0  0
   22.4533  -21.3143  -10.2165 C   0  0  0  0  0  0  0  0  0  0  0  0
   21.5179  -20.7216  -10.8113 O   0  0  0  0  0  0  0  0  0  0  0  0
   22.0647  -22.3772   -9.3721 O   0  0  0  0  0  0  0  0  0  0  0  0
  2  4  1  0
  2  1  1  1
  3  2  1  0
  4  6  1  0
  4  5  1  6
  6  7  2  0
  9  8  1  0
 10  9  2  0
 11  9  1  0
 12 11  1  6
 12 14  1  0
 13 12  1  0
 13  6  1  0
 14 15  2  0
 16 17  1  0
 16 14  1  0
 17 25  1  0
 17 18  1  1
 19 24  2  0
 19 18  1  0
 20 19  1  0
 21 22  1  0
 21 20  2  0
 22 23  2  0
 23 24  1  0
 25 26  2  0
 25 27  1  0
M  END
$$$$
