VNF.pdb
     RDKit          3D

 27 27  0  0  1  0  0  0  0  0999 V2000
   22.3514  -17.4145  -15.0627 C   0  0  0  0  0  0  0  0  0  0  0  0
   22.5014  -16.1390  -15.8234 C   0  0  1  0  0  0  0  0  0  0  0  0
   23.1755  -16.4016  -17.1545 C   0  0  0  0  0  0  0  0  0  0  0  0
   21.1963  -15.4211  -16.0927 C   0  0  2  0  0  0  0  0  0  0  0  0
   20.4695  -16.2876  -17.0367 N   0  0  0  0  0  0  0  0  0  0  0  0
   21.3943  -14.1248  -16.7451 C   0  0  0  0  0  0  0  0  0  0  0  0
   22.4310  -14.0234  -17.4832 O   0  0  0  0  0  0  0  0  0  0  0  0
   18.6466   -9.6783  -19.6132 N   0  0  0  0  0  0  0  0  0  0  0  0
   19.7113  -10.1600  -18.7933 C   0  0  0  0  0  0  0  0  0  0  0  0
   20.7258   -9.4324  -18.6858 O   0  0  0  0  0  0  0  0  0  0  0  0
   19.6743  -11.4374  -18.0869 C   0  0  0  0  0  0  0  0  0  0  0  0
   20.7958  -11.7306  -17.1568 C   0  0  2  0  0  0  0  0  0  0  0  0
   20.4958  -13.0512  -16.5714 N   0  0  0  0  0  0  0  0  0  0  0  0
   20.9650  -10.7981  -16.0272 C   0  0  0  0  0  0  0  0  0  0  0  0
   20.1147  -10.7954  -15.0680 O   0  0  0  0  0  0  0  0  0  0  0  0
   22.0185   -9.8588  -15.8737 N   0  0  0  0  0  0  0  0  0  0  0  0
   22.0395   -8.9107  -14.7524 C   0  0  1  0  0  0  0  0  0  0  0  0
   23.1537   -9.2256  -13.8178 C   0  0  0  0  0  0  0  0  0  0  0  0
   24.3914   -9.5208  -14.5638 C   0  0  0  0  0  0  0  0  0  0  0  0
   25.0592  -10.7437  -14.4782 C   0  0  0  0  0  0  0  0  0  0  0  0
   26.2012  -10.9907  -15.1853 C   0  0  0  0  0  0  0  0  0  0  0  0
   26.7501  -10.0308  -16.0243 C   0  0  0  0  0  0  0  0  0  0  0  0
   26.1183   -8.8154  -16.1318 C   0  0  0  0  0  0  0  0  0  0  0  0
   24.9707   -8.5777  -15.4164 C   0  0  0  0  0  0  0  0  0  0  0  0
   22.1032   -7.5323  -15.2168 C   0  0  0  0  0  0  0  0  0  0  0  0
   22.3631   -7.1799  -16.3950 O   0  0  0  0  0  0  0  0  0  0  0  0
   21.8602   -6.4827  -14.3041 O   0  0  0  0  0  0  0  0  0  0  0  0
  2  4  1  0
  2  1  1  6
  3  2  1  0
  4  6  1  0
  4  5  1  6
  6  7  2  0
  9  8  1  0
 10  9  2  0
 11  9  1  0
 12 11  1  6
 12 14  1  0
 13 12  1  0
 13  6  1  0
 14 15  2  0
 16 17  1  0
 16 14  1  0
 17 25  1  0
 17 18  1  1
 19 24  2  0
 19 18  1  0
 20 19  1  0
 21 22  1  0
 21 20  2  0
 22 23  2  0
 23 24  1  0
 25 26  2  0
 25 27  1  0
M  END
$$$$
