VNF.pdb
     RDKit          3D

 27 27  0  0  1  0  0  0  0  0999 V2000
   24.8295  -25.4409  -18.4028 C   0  0  0  0  0  0  0  0  0  0  0  0
   25.2884  -24.6138  -17.2481 C   0  0  1  0  0  0  0  0  0  0  0  0
   25.4991  -25.4897  -16.0301 C   0  0  0  0  0  0  0  0  0  0  0  0
   26.5702  -23.8503  -17.5035 C   0  0  2  0  0  0  0  0  0  0  0  0
   27.6061  -24.8844  -17.6696 N   0  0  0  0  0  0  0  0  0  0  0  0
   26.9595  -23.0131  -16.3665 C   0  0  0  0  0  0  0  0  0  0  0  0
   27.8928  -23.4737  -15.6271 O   0  0  0  0  0  0  0  0  0  0  0  0
   26.8082  -17.4229  -14.1552 N   0  0  0  0  0  0  0  0  0  0  0  0
   27.5178  -18.6079  -14.5155 C   0  0  0  0  0  0  0  0  0  0  0  0
   28.6368  -18.7902  -13.9818 O   0  0  0  0  0  0  0  0  0  0  0  0
   27.0103  -19.5996  -15.4596 C   0  0  0  0  0  0  0  0  0  0  0  0
   26.7633  -20.9689  -14.9373 C   0  0  2  0  0  0  0  0  0  0  0  0
   26.3435  -21.7719  -16.1015 N   0  0  0  0  0  0  0  0  0  0  0  0
   25.6946  -21.0980  -13.9296 C   0  0  0  0  0  0  0  0  0  0  0  0
   24.4694  -20.9471  -14.2747 O   0  0  0  0  0  0  0  0  0  0  0  0
   25.8798  -21.3885  -12.5522 N   0  0  0  0  0  0  0  0  0  0  0  0
   24.7562  -21.3579  -11.6072 C   0  0  1  0  0  0  0  0  0  0  0  0
   25.1710  -21.8855  -10.2792 C   0  0  0  0  0  0  0  0  0  0  0  0
   26.2980  -21.1035   -9.7370 C   0  0  0  0  0  0  0  0  0  0  0  0
   27.6264  -21.3270  -10.1034 C   0  0  0  0  0  0  0  0  0  0  0  0
   28.6495  -20.5831   -9.5886 C   0  0  0  0  0  0  0  0  0  0  0  0
   28.4110  -19.5668   -8.6736 C   0  0  0  0  0  0  0  0  0  0  0  0
   27.1146  -19.3202   -8.2907 C   0  0  0  0  0  0  0  0  0  0  0  0
   26.0936  -20.0743   -8.8147 C   0  0  0  0  0  0  0  0  0  0  0  0
   24.1833  -20.0238  -11.4983 C   0  0  0  0  0  0  0  0  0  0  0  0
   24.7374  -18.9669  -11.8932 O   0  0  0  0  0  0  0  0  0  0  0  0
   22.9095  -19.8636  -10.9105 O   0  0  0  0  0  0  0  0  0  0  0  0
  2  4  1  0
  2  1  1  6
  3  2  1  0
  4  6  1  0
  4  5  1  1
  6  7  2  0
  9  8  1  0
 10  9  2  0
 11  9  1  0
 12 11  1  6
 12 14  1  0
 13 12  1  0
 13  6  1  0
 14 15  2  0
 16 17  1  0
 16 14  1  0
 17 25  1  0
 17 18  1  1
 19 24  2  0
 19 18  1  0
 20 19  1  0
 21 22  1  0
 21 20  2  0
 22 23  2  0
 23 24  1  0
 25 26  2  0
 25 27  1  0
M  END
$$$$
