VNF.pdb
     RDKit          3D

 27 27  0  0  1  0  0  0  0  0999 V2000
   15.6903  -13.9351  -16.3382 C   0  0  0  0  0  0  0  0  0  0  0  0
   16.5884  -12.9723  -17.0413 C   0  0  1  0  0  0  0  0  0  0  0  0
   15.9212  -11.6159  -17.1436 C   0  0  0  0  0  0  0  0  0  0  0  0
   17.9353  -12.7829  -16.3771 C   0  0  2  0  0  0  0  0  0  0  0  0
   17.6277  -12.3891  -14.9913 N   0  0  0  0  0  0  0  0  0  0  0  0
   18.7113  -11.6985  -16.9831 C   0  0  0  0  0  0  0  0  0  0  0  0
   19.1727  -11.9269  -18.1513 O   0  0  0  0  0  0  0  0  0  0  0  0
   20.7583   -7.7434  -19.1714 N   0  0  0  0  0  0  0  0  0  0  0  0
   19.3884   -8.1446  -19.1769 C   0  0  0  0  0  0  0  0  0  0  0  0
   18.6790   -7.7475  -20.1304 O   0  0  0  0  0  0  0  0  0  0  0  0
   18.7859   -8.9808  -18.1424 C   0  0  0  0  0  0  0  0  0  0  0  0
   19.6530   -9.3807  -17.0035 C   0  0  2  0  0  0  0  0  0  0  0  0
   18.9366  -10.4742  -16.3196 N   0  0  0  0  0  0  0  0  0  0  0  0
   19.9098   -8.3447  -15.9862 C   0  0  0  0  0  0  0  0  0  0  0  0
   18.9307   -7.8243  -15.3429 O   0  0  0  0  0  0  0  0  0  0  0  0
   21.1835   -7.8364  -15.6187 N   0  0  0  0  0  0  0  0  0  0  0  0
   21.3266   -6.8210  -14.5676 C   0  0  1  0  0  0  0  0  0  0  0  0
   22.3785   -7.2173  -13.5927 C   0  0  0  0  0  0  0  0  0  0  0  0
   23.4571   -7.9650  -14.2659 C   0  0  0  0  0  0  0  0  0  0  0  0
   23.7037   -9.3196  -14.0354 C   0  0  0  0  0  0  0  0  0  0  0  0
   24.7069   -9.9875  -14.6778 C   0  0  0  0  0  0  0  0  0  0  0  0
   25.5293   -9.3444  -15.5927 C   0  0  0  0  0  0  0  0  0  0  0  0
   25.3144   -8.0106  -15.8430 C   0  0  0  0  0  0  0  0  0  0  0  0
   24.3029   -7.3488  -15.1916 C   0  0  0  0  0  0  0  0  0  0  0  0
   21.5848   -5.5021  -15.1276 C   0  0  0  0  0  0  0  0  0  0  0  0
   21.9012   -5.2759  -16.3230 O   0  0  0  0  0  0  0  0  0  0  0  0
   21.4818   -4.3651  -14.2967 O   0  0  0  0  0  0  0  0  0  0  0  0
  2  4  1  0
  2  1  1  1
  3  2  1  0
  4  6  1  0
  4  5  1  1
  6  7  2  0
  9  8  1  0
 10  9  2  0
 11  9  1  0
 12 11  1  6
 12 14  1  0
 13 12  1  0
 13  6  1  0
 14 15  2  0
 16 17  1  0
 16 14  1  0
 17 25  1  0
 17 18  1  1
 19 24  2  0
 19 18  1  0
 20 19  1  0
 21 22  1  0
 21 20  2  0
 22 23  2  0
 23 24  1  0
 25 26  2  0
 25 27  1  0
M  END
$$$$
