VNF.pdb
     RDKit          3D

 27 27  0  0  1  0  0  0  0  0999 V2000
   19.0855  -11.5177    4.9144 C   0  0  0  0  0  0  0  0  0  0  0  0
   19.5625  -12.4136    6.0089 C   0  0  1  0  0  0  0  0  0  0  0  0
   20.8768  -13.0588    5.6195 C   0  0  0  0  0  0  0  0  0  0  0  0
   19.7581  -11.7175    7.3386 C   0  0  2  0  0  0  0  0  0  0  0  0
   20.9432  -10.8624    7.1533 N   0  0  0  0  0  0  0  0  0  0  0  0
   20.0550  -12.6555    8.4237 C   0  0  0  0  0  0  0  0  0  0  0  0
   21.2719  -12.6995    8.8069 O   0  0  0  0  0  0  0  0  0  0  0  0
   18.7567  -13.9431   13.6537 N   0  0  0  0  0  0  0  0  0  0  0  0
   18.7709  -14.7453   12.4730 C   0  0  0  0  0  0  0  0  0  0  0  0
   19.1057  -15.9461   12.6003 O   0  0  0  0  0  0  0  0  0  0  0  0
   18.4199  -14.2416   11.1481 C   0  0  0  0  0  0  0  0  0  0  0  0
   19.4172  -14.4345   10.0633 C   0  0  2  0  0  0  0  0  0  0  0  0
   19.0591  -13.4626    9.0126 N   0  0  0  0  0  0  0  0  0  0  0  0
   19.4320  -15.7619    9.4214 C   0  0  0  0  0  0  0  0  0  0  0  0
   18.3831  -16.1950    8.8252 O   0  0  0  0  0  0  0  0  0  0  0  0
   20.5336  -16.6569    9.3851 N   0  0  0  0  0  0  0  0  0  0  0  0
   20.4135  -17.9923    8.7862 C   0  0  1  0  0  0  0  0  0  0  0  0
   20.8766  -17.9785    7.3722 C   0  0  0  0  0  0  0  0  0  0  0  0
   19.7507  -17.7091    6.4582 C   0  0  0  0  0  0  0  0  0  0  0  0
   18.9779  -18.7193    5.8830 C   0  0  0  0  0  0  0  0  0  0  0  0
   17.9374  -18.4395    5.0438 C   0  0  0  0  0  0  0  0  0  0  0  0
   17.6016  -17.1309    4.7249 C   0  0  0  0  0  0  0  0  0  0  0  0
   18.3422  -16.1118    5.2736 C   0  0  0  0  0  0  0  0  0  0  0  0
   19.3862  -16.4044    6.1161 C   0  0  0  0  0  0  0  0  0  0  0  0
   21.1172  -18.9970    9.5705 C   0  0  0  0  0  0  0  0  0  0  0  0
   21.1104  -20.2314    9.3335 O   0  0  0  0  0  0  0  0  0  0  0  0
   21.8768  -18.5936   10.6903 O   0  0  0  0  0  0  0  0  0  0  0  0
  2  4  1  0
  2  1  1  6
  3  2  1  0
  4  6  1  0
  4  5  1  6
  6  7  2  0
  9  8  1  0
 10  9  2  0
 11  9  1  0
 12 11  1  1
 12 14  1  0
 13 12  1  0
 13  6  1  0
 14 15  2  0
 16 17  1  0
 16 14  1  0
 17 25  1  0
 17 18  1  6
 19 24  2  0
 19 18  1  0
 20 19  1  0
 21 22  1  0
 21 20  2  0
 22 23  2  0
 23 24  1  0
 25 26  2  0
 25 27  1  0
M  END
$$$$
