VNF.pdb
     RDKit          3D

 27 27  0  0  1  0  0  0  0  0999 V2000
   22.6018  -21.8209  -19.3853 C   0  0  0  0  0  0  0  0  0  0  0  0
   23.5972  -21.9845  -18.2852 C   0  0  1  0  0  0  0  0  0  0  0  0
   24.3824  -23.2657  -18.4783 C   0  0  0  0  0  0  0  0  0  0  0  0
   24.5845  -20.8431  -18.1680 C   0  0  2  0  0  0  0  0  0  0  0  0
   25.4147  -20.9278  -19.3820 N   0  0  0  0  0  0  0  0  0  0  0  0
   25.4738  -20.9880  -17.0132 C   0  0  0  0  0  0  0  0  0  0  0  0
   26.4386  -21.8125  -17.1511 O   0  0  0  0  0  0  0  0  0  0  0  0
   29.0669  -19.8316  -13.2341 N   0  0  0  0  0  0  0  0  0  0  0  0
   27.9873  -18.9797  -13.6168 C   0  0  0  0  0  0  0  0  0  0  0  0
   27.7820  -17.9638  -12.9125 O   0  0  0  0  0  0  0  0  0  0  0  0
   27.1268  -19.2317  -14.7692 C   0  0  0  0  0  0  0  0  0  0  0  0
   26.2259  -20.4116  -14.6977 C   0  0  2  0  0  0  0  0  0  0  0  0
   25.2797  -20.2616  -15.8196 N   0  0  0  0  0  0  0  0  0  0  0  0
   25.4121  -20.5357  -13.4744 C   0  0  0  0  0  0  0  0  0  0  0  0
   24.2844  -19.9316  -13.3932 O   0  0  0  0  0  0  0  0  0  0  0  0
   25.7531  -21.2893  -12.3205 N   0  0  0  0  0  0  0  0  0  0  0  0
   24.8701  -21.3327  -11.1479 C   0  0  1  0  0  0  0  0  0  0  0  0
   25.4897  -22.1253  -10.0516 C   0  0  0  0  0  0  0  0  0  0  0  0
   26.5781  -21.3643   -9.4098 C   0  0  0  0  0  0  0  0  0  0  0  0
   26.3602  -20.4357   -8.3906 C   0  0  0  0  0  0  0  0  0  0  0  0
   27.3887  -19.7492   -7.8109 C   0  0  0  0  0  0  0  0  0  0  0  0
   28.7027  -19.9466   -8.2127 C   0  0  0  0  0  0  0  0  0  0  0  0
   28.9528  -20.8535   -9.2142 C   0  0  0  0  0  0  0  0  0  0  0  0
   27.9112  -21.5382   -9.7900 C   0  0  0  0  0  0  0  0  0  0  0  0
   24.5049  -19.9958  -10.7019 C   0  0  0  0  0  0  0  0  0  0  0  0
   25.1696  -18.9534  -10.9292 O   0  0  0  0  0  0  0  0  0  0  0  0
   23.3205  -19.8150   -9.9547 O   0  0  0  0  0  0  0  0  0  0  0  0
  2  4  1  0
  2  1  1  6
  3  2  1  0
  4  6  1  0
  4  5  1  6
  6  7  2  0
  9  8  1  0
 10  9  2  0
 11  9  1  0
 12 11  1  1
 12 14  1  0
 13 12  1  0
 13  6  1  0
 14 15  2  0
 16 17  1  0
 16 14  1  0
 17 25  1  0
 17 18  1  1
 19 24  2  0
 19 18  1  0
 20 19  1  0
 21 22  1  0
 21 20  2  0
 22 23  2  0
 23 24  1  0
 25 26  2  0
 25 27  1  0
M  END
$$$$
