VNF.pdb
     RDKit          3D

 27 27  0  0  1  0  0  0  0  0999 V2000
   29.2263  -20.0952  -17.6423 C   0  0  0  0  0  0  0  0  0  0  0  0
   28.0807  -19.7971  -16.7331 C   0  0  1  0  0  0  0  0  0  0  0  0
   26.9288  -20.7387  -17.0193 C   0  0  0  0  0  0  0  0  0  0  0  0
   28.4152  -19.9001  -15.2605 C   0  0  2  0  0  0  0  0  0  0  0  0
   28.7391  -21.3200  -15.0391 N   0  0  0  0  0  0  0  0  0  0  0  0
   27.2756  -19.5675  -14.4025 C   0  0  0  0  0  0  0  0  0  0  0  0
   26.8017  -18.3896  -14.5350 O   0  0  0  0  0  0  0  0  0  0  0  0
   22.3078  -21.7338  -12.2109 N   0  0  0  0  0  0  0  0  0  0  0  0
   23.1214  -20.6157  -12.5655 C   0  0  0  0  0  0  0  0  0  0  0  0
   22.7058  -19.4790  -12.2410 O   0  0  0  0  0  0  0  0  0  0  0  0
   24.3920  -20.7323  -13.2755 C   0  0  0  0  0  0  0  0  0  0  0  0
   25.5828  -20.1086  -12.6415 C   0  0  2  0  0  0  0  0  0  0  0  0
   26.7316  -20.4905  -13.4848 N   0  0  0  0  0  0  0  0  0  0  0  0
   25.8993  -20.5543  -11.2721 C   0  0  0  0  0  0  0  0  0  0  0  0
   26.2301  -21.7740  -11.0576 O   0  0  0  0  0  0  0  0  0  0  0  0
   25.8811  -19.7427  -10.1074 N   0  0  0  0  0  0  0  0  0  0  0  0
   25.9610  -20.3316   -8.7645 C   0  0  1  0  0  0  0  0  0  0  0  0
   26.2506  -19.2850   -7.7473 C   0  0  0  0  0  0  0  0  0  0  0  0
   27.4846  -19.6067   -7.0060 C   0  0  0  0  0  0  0  0  0  0  0  0
   28.0441  -18.7549   -6.0520 C   0  0  0  0  0  0  0  0  0  0  0  0
   29.1855  -19.0818   -5.3770 C   0  0  0  0  0  0  0  0  0  0  0  0
   29.8420  -20.2821   -5.6121 C   0  0  0  0  0  0  0  0  0  0  0  0
   29.3184  -21.1440   -6.5453 C   0  0  0  0  0  0  0  0  0  0  0  0
   28.1704  -20.8053   -7.2181 C   0  0  0  0  0  0  0  0  0  0  0  0
   24.7566  -21.0803   -8.4348 C   0  0  0  0  0  0  0  0  0  0  0  0
   23.6131  -20.8487   -8.9027 O   0  0  0  0  0  0  0  0  0  0  0  0
   24.8382  -22.1563   -7.5241 O   0  0  0  0  0  0  0  0  0  0  0  0
  2  4  1  0
  2  1  1  6
  3  2  1  0
  4  6  1  0
  4  5  1  6
  6  7  2  0
  9  8  1  0
 10  9  2  0
 11  9  1  0
 12 11  1  6
 12 14  1  0
 13 12  1  0
 13  6  1  0
 14 15  2  0
 16 17  1  0
 16 14  1  0
 17 25  1  0
 17 18  1  1
 19 24  2  0
 19 18  1  0
 20 19  1  0
 21 22  1  0
 21 20  2  0
 22 23  2  0
 23 24  1  0
 25 26  2  0
 25 27  1  0
M  END
$$$$
