VNF.pdb
     RDKit          3D

 27 27  0  0  1  0  0  0  0  0999 V2000
   29.0421  -19.9672  -14.3958 C   0  0  0  0  0  0  0  0  0  0  0  0
   27.6382  -20.1654  -14.8624 C   0  0  1  0  0  0  0  0  0  0  0  0
   27.1985  -18.9880  -15.7082 C   0  0  0  0  0  0  0  0  0  0  0  0
   27.4261  -21.4278  -15.6702 C   0  0  2  0  0  0  0  0  0  0  0  0
   28.2300  -21.2420  -16.8905 N   0  0  0  0  0  0  0  0  0  0  0  0
   26.0312  -21.6017  -16.0818 C   0  0  0  0  0  0  0  0  0  0  0  0
   25.7118  -21.0860  -17.2051 O   0  0  0  0  0  0  0  0  0  0  0  0
   24.7554  -24.3105  -18.5475 N   0  0  0  0  0  0  0  0  0  0  0  0
   23.7956  -23.4767  -17.8985 C   0  0  0  0  0  0  0  0  0  0  0  0
   23.1945  -22.6362  -18.6073 O   0  0  0  0  0  0  0  0  0  0  0  0
   23.4867  -23.5558  -16.4735 C   0  0  0  0  0  0  0  0  0  0  0  0
   23.6699  -22.3189  -15.6703 C   0  0  2  0  0  0  0  0  0  0  0  0
   25.0947  -22.2968  -15.2882 N   0  0  0  0  0  0  0  0  0  0  0  0
   22.8968  -22.2362  -14.4174 C   0  0  0  0  0  0  0  0  0  0  0  0
   22.9958  -23.1681  -13.5429 O   0  0  0  0  0  0  0  0  0  0  0  0
   22.0139  -21.1862  -14.0517 N   0  0  0  0  0  0  0  0  0  0  0  0
   21.3960  -21.1364  -12.7205 C   0  0  1  0  0  0  0  0  0  0  0  0
   21.8716  -19.9467  -11.9638 C   0  0  0  0  0  0  0  0  0  0  0  0
   23.2280  -20.1760  -11.4318 C   0  0  0  0  0  0  0  0  0  0  0  0
   23.4750  -20.5434  -10.1079 C   0  0  0  0  0  0  0  0  0  0  0  0
   24.7423  -20.7544   -9.6444 C   0  0  0  0  0  0  0  0  0  0  0  0
   25.8455  -20.6117  -10.4747 C   0  0  0  0  0  0  0  0  0  0  0  0
   25.6382  -20.2505  -11.7841 C   0  0  0  0  0  0  0  0  0  0  0  0
   24.3599  -20.0410  -12.2396 C   0  0  0  0  0  0  0  0  0  0  0  0
   19.9428  -21.1735  -12.8020 C   0  0  0  0  0  0  0  0  0  0  0  0
   19.2716  -20.9079  -13.8311 O   0  0  0  0  0  0  0  0  0  0  0  0
   19.1945  -21.5310  -11.6593 O   0  0  0  0  0  0  0  0  0  0  0  0
  2  4  1  0
  2  1  1  6
  3  2  1  0
  4  6  1  0
  4  5  1  6
  6  7  2  0
  9  8  1  0
 10  9  2  0
 11  9  1  0
 12 11  1  1
 12 14  1  0
 13 12  1  0
 13  6  1  0
 14 15  2  0
 16 17  1  0
 16 14  1  0
 17 25  1  0
 17 18  1  6
 19 24  2  0
 19 18  1  0
 20 19  1  0
 21 22  1  0
 21 20  2  0
 22 23  2  0
 23 24  1  0
 25 26  2  0
 25 27  1  0
M  END
$$$$
