VNF.pdb
     RDKit          3D

 27 27  0  0  1  0  0  0  0  0999 V2000
   27.6583  -22.2511  -16.6218 C   0  0  0  0  0  0  0  0  0  0  0  0
   28.3022  -21.1470  -17.3928 C   0  0  1  0  0  0  0  0  0  0  0  0
   28.8361  -21.6726  -18.7096 C   0  0  0  0  0  0  0  0  0  0  0  0
   27.3832  -19.9819  -17.6914 C   0  0  2  0  0  0  0  0  0  0  0  0
   28.2331  -18.9864  -18.3672 N   0  0  0  0  0  0  0  0  0  0  0  0
   26.8546  -19.3594  -16.4755 C   0  0  0  0  0  0  0  0  0  0  0  0
   27.7046  -18.7457  -15.7471 O   0  0  0  0  0  0  0  0  0  0  0  0
   24.9965  -15.7796  -15.4940 N   0  0  0  0  0  0  0  0  0  0  0  0
   24.0589  -16.7635  -15.9304 C   0  0  0  0  0  0  0  0  0  0  0  0
   23.4134  -16.5160  -16.9755 O   0  0  0  0  0  0  0  0  0  0  0  0
   23.8210  -18.0220  -15.2290 C   0  0  0  0  0  0  0  0  0  0  0  0
   25.0131  -18.8318  -14.8660 C   0  0  2  0  0  0  0  0  0  0  0  0
   25.4894  -19.4310  -16.1273 N   0  0  0  0  0  0  0  0  0  0  0  0
   24.7813  -19.9481  -13.9310 C   0  0  0  0  0  0  0  0  0  0  0  0
   24.0279  -20.9257  -14.2773 O   0  0  0  0  0  0  0  0  0  0  0  0
   25.3291  -20.0691  -12.6267 N   0  0  0  0  0  0  0  0  0  0  0  0
   25.0418  -21.2359  -11.7827 C   0  0  1  0  0  0  0  0  0  0  0  0
   26.2294  -21.5970  -10.9621 C   0  0  0  0  0  0  0  0  0  0  0  0
   26.2400  -20.8363   -9.6985 C   0  0  0  0  0  0  0  0  0  0  0  0
   26.5810  -19.4846   -9.6258 C   0  0  0  0  0  0  0  0  0  0  0  0
   26.5768  -18.8043   -8.4416 C   0  0  0  0  0  0  0  0  0  0  0  0
   26.2312  -19.4315   -7.2524 C   0  0  0  0  0  0  0  0  0  0  0  0
   25.8904  -20.7621   -7.2879 C   0  0  0  0  0  0  0  0  0  0  0  0
   25.8980  -21.4364   -8.4840 C   0  0  0  0  0  0  0  0  0  0  0  0
   23.8637  -21.0217  -10.9545 C   0  0  0  0  0  0  0  0  0  0  0  0
   23.3205  -19.9070  -10.7483 O   0  0  0  0  0  0  0  0  0  0  0  0
   23.2554  -22.1254  -10.3177 O   0  0  0  0  0  0  0  0  0  0  0  0
  2  4  1  0
  2  1  1  6
  3  2  1  0
  4  6  1  0
  4  5  1  1
  6  7  2  0
  9  8  1  0
 10  9  2  0
 11  9  1  0
 12 11  1  6
 12 14  1  0
 13 12  1  0
 13  6  1  0
 14 15  2  0
 16 17  1  0
 16 14  1  0
 17 25  1  0
 17 18  1  1
 19 24  2  0
 19 18  1  0
 20 19  1  0
 21 22  1  0
 21 20  2  0
 22 23  2  0
 23 24  1  0
 25 26  2  0
 25 27  1  0
M  END
$$$$
