VNF.pdb
     RDKit          3D

 27 27  0  0  1  0  0  0  0  0999 V2000
   18.2826  -10.1328  -14.9528 C   0  0  0  0  0  0  0  0  0  0  0  0
   16.8103  -10.3724  -14.8983 C   0  0  1  0  0  0  0  0  0  0  0  0
   16.4859  -11.7515  -15.4351 C   0  0  0  0  0  0  0  0  0  0  0  0
   16.2146  -10.2573  -13.5116 C   0  0  2  0  0  0  0  0  0  0  0  0
   14.7783  -10.5335  -13.6868 N   0  0  0  0  0  0  0  0  0  0  0  0
   16.3410   -8.9072  -12.9578 C   0  0  0  0  0  0  0  0  0  0  0  0
   15.6783   -7.9942  -13.5551 O   0  0  0  0  0  0  0  0  0  0  0  0
   17.6737   -4.8700   -9.6724 N   0  0  0  0  0  0  0  0  0  0  0  0
   16.9431   -6.0018   -9.2003 C   0  0  0  0  0  0  0  0  0  0  0  0
   16.4560   -5.9293   -8.0480 O   0  0  0  0  0  0  0  0  0  0  0  0
   16.7404   -7.2180   -9.9827 C   0  0  0  0  0  0  0  0  0  0  0  0
   17.3023   -7.2408  -11.3584 C   0  0  2  0  0  0  0  0  0  0  0  0
   17.1447   -8.6290  -11.8323 N   0  0  0  0  0  0  0  0  0  0  0  0
   18.7349   -6.9140  -11.4815 C   0  0  0  0  0  0  0  0  0  0  0  0
   19.6060   -7.6125  -10.8519 O   0  0  0  0  0  0  0  0  0  0  0  0
   19.2849   -5.8623  -12.2608 N   0  0  0  0  0  0  0  0  0  0  0  0
   20.7327   -5.6201  -12.3038 C   0  0  1  0  0  0  0  0  0  0  0  0
   21.4600   -6.8503  -12.7183 C   0  0  0  0  0  0  0  0  0  0  0  0
   21.3997   -7.0227  -14.1819 C   0  0  0  0  0  0  0  0  0  0  0  0
   20.5957   -7.9795  -14.8038 C   0  0  0  0  0  0  0  0  0  0  0  0
   20.5561   -8.1127  -16.1625 C   0  0  0  0  0  0  0  0  0  0  0  0
   21.3182   -7.2976  -16.9881 C   0  0  0  0  0  0  0  0  0  0  0  0
   22.1214   -6.3451  -16.4087 C   0  0  0  0  0  0  0  0  0  0  0  0
   22.1534   -6.2199  -15.0417 C   0  0  0  0  0  0  0  0  0  0  0  0
   21.0619   -4.4893  -13.1598 C   0  0  0  0  0  0  0  0  0  0  0  0
   20.2619   -3.9251  -13.9483 O   0  0  0  0  0  0  0  0  0  0  0  0
   22.3692   -3.9566  -13.1303 O   0  0  0  0  0  0  0  0  0  0  0  0
  2  4  1  0
  2  1  1  1
  3  2  1  0
  4  6  1  0
  4  5  1  6
  6  7  2  0
  9  8  1  0
 10  9  2  0
 11  9  1  0
 12 11  1  1
 12 14  1  0
 13 12  1  0
 13  6  1  0
 14 15  2  0
 16 17  1  0
 16 14  1  0
 17 25  1  0
 17 18  1  6
 19 24  2  0
 19 18  1  0
 20 19  1  0
 21 22  1  0
 21 20  2  0
 22 23  2  0
 23 24  1  0
 25 26  2  0
 25 27  1  0
M  END
$$$$
