VNF.pdb
     RDKit          3D

 27 27  0  0  1  0  0  0  0  0999 V2000
   24.2838  -13.0592  -17.1951 C   0  0  0  0  0  0  0  0  0  0  0  0
   23.2714  -13.8287  -17.9766 C   0  0  1  0  0  0  0  0  0  0  0  0
   23.4750  -15.3160  -17.7724 C   0  0  0  0  0  0  0  0  0  0  0  0
   21.8363  -13.4997  -17.6250 C   0  0  2  0  0  0  0  0  0  0  0  0
   21.0207  -14.3896  -18.4694 N   0  0  0  0  0  0  0  0  0  0  0  0
   21.4790  -12.1199  -17.9627 C   0  0  0  0  0  0  0  0  0  0  0  0
   21.2777  -11.8819  -19.2006 O   0  0  0  0  0  0  0  0  0  0  0  0
   19.2244   -9.1472  -20.0742 N   0  0  0  0  0  0  0  0  0  0  0  0
   19.0918  -10.0733  -18.9961 C   0  0  0  0  0  0  0  0  0  0  0  0
   18.5799  -11.1869  -19.2571 O   0  0  0  0  0  0  0  0  0  0  0  0
   19.5169   -9.7893  -17.6283 C   0  0  0  0  0  0  0  0  0  0  0  0
   20.9795   -9.7414  -17.3690 C   0  0  2  0  0  0  0  0  0  0  0  0
   21.3628  -11.1125  -16.9820 N   0  0  0  0  0  0  0  0  0  0  0  0
   21.4175   -8.8569  -16.2735 C   0  0  0  0  0  0  0  0  0  0  0  0
   21.0919   -9.1287  -15.0639 O   0  0  0  0  0  0  0  0  0  0  0  0
   22.2012   -7.6815  -16.4152 N   0  0  0  0  0  0  0  0  0  0  0  0
   22.5336   -6.8409  -15.2580 C   0  0  1  0  0  0  0  0  0  0  0  0
   24.0001   -6.5989  -15.1872 C   0  0  0  0  0  0  0  0  0  0  0  0
   24.7436   -7.8669  -15.3097 C   0  0  0  0  0  0  0  0  0  0  0  0
   24.7948   -8.8213  -14.2923 C   0  0  0  0  0  0  0  0  0  0  0  0
   25.4873   -9.9896  -14.4361 C   0  0  0  0  0  0  0  0  0  0  0  0
   26.1741  -10.2798  -15.6070 C   0  0  0  0  0  0  0  0  0  0  0  0
   26.1450   -9.3617  -16.6289 C   0  0  0  0  0  0  0  0  0  0  0  0
   25.4455   -8.1904  -16.4736 C   0  0  0  0  0  0  0  0  0  0  0  0
   21.7847   -5.5924  -15.2694 C   0  0  0  0  0  0  0  0  0  0  0  0
   21.0929   -5.1755  -16.2325 O   0  0  0  0  0  0  0  0  0  0  0  0
   21.8120   -4.7586  -14.1301 O   0  0  0  0  0  0  0  0  0  0  0  0
  2  4  1  0
  2  1  1  1
  3  2  1  0
  4  6  1  0
  4  5  1  6
  6  7  2  0
  9  8  1  0
 10  9  2  0
 11  9  1  0
 12 11  1  1
 12 14  1  0
 13 12  1  0
 13  6  1  0
 14 15  2  0
 16 17  1  0
 16 14  1  0
 17 25  1  0
 17 18  1  6
 19 24  2  0
 19 18  1  0
 20 19  1  0
 21 22  1  0
 21 20  2  0
 22 23  2  0
 23 24  1  0
 25 26  2  0
 25 27  1  0
M  END
$$$$
