VNF.pdb
     RDKit          3D

 27 27  0  0  1  0  0  0  0  0999 V2000
   33.0189  -30.7954  -18.7003 C   0  0  0  0  0  0  0  0  0  0  0  0
   31.5415  -30.8107  -18.4882 C   0  0  1  0  0  0  0  0  0  0  0  0
   30.8290  -30.3619  -19.7476 C   0  0  0  0  0  0  0  0  0  0  0  0
   30.9863  -32.1620  -18.0921 C   0  0  2  0  0  0  0  0  0  0  0  0
   31.2443  -33.0368  -19.2489 N   0  0  0  0  0  0  0  0  0  0  0  0
   29.5380  -32.1309  -17.8755 C   0  0  0  0  0  0  0  0  0  0  0  0
   28.8147  -32.3650  -18.9010 O   0  0  0  0  0  0  0  0  0  0  0  0
   24.8008  -32.8212  -15.7756 N   0  0  0  0  0  0  0  0  0  0  0  0
   25.9052  -33.1206  -14.9221 C   0  0  0  0  0  0  0  0  0  0  0  0
   25.6610  -33.7594  -13.8721 O   0  0  0  0  0  0  0  0  0  0  0  0
   27.2809  -32.7248  -15.2100 C   0  0  0  0  0  0  0  0  0  0  0  0
   27.5098  -31.9048  -16.4281 C   0  0  2  0  0  0  0  0  0  0  0  0
   28.9730  -31.8600  -16.6116 N   0  0  0  0  0  0  0  0  0  0  0  0
   27.0504  -30.5051  -16.3661 C   0  0  0  0  0  0  0  0  0  0  0  0
   27.6045  -29.6863  -15.5502 O   0  0  0  0  0  0  0  0  0  0  0  0
   26.0139  -29.9336  -17.1502 N   0  0  0  0  0  0  0  0  0  0  0  0
   25.6490  -28.5172  -17.0189 C   0  0  1  0  0  0  0  0  0  0  0  0
   26.4984  -27.6711  -17.9002 C   0  0  0  0  0  0  0  0  0  0  0  0
   26.1327  -26.2485  -17.7661 C   0  0  0  0  0  0  0  0  0  0  0  0
   26.7651  -25.3801  -16.8747 C   0  0  0  0  0  0  0  0  0  0  0  0
   26.4086  -24.0654  -16.7760 C   0  0  0  0  0  0  0  0  0  0  0  0
   25.3961  -23.5332  -17.5624 C   0  0  0  0  0  0  0  0  0  0  0  0
   24.7521  -24.3606  -18.4504 C   0  0  0  0  0  0  0  0  0  0  0  0
   25.1186  -25.6807  -18.5415 C   0  0  0  0  0  0  0  0  0  0  0  0
   24.2318  -28.3026  -17.2744 C   0  0  0  0  0  0  0  0  0  0  0  0
   23.5974  -28.7686  -18.2544 O   0  0  0  0  0  0  0  0  0  0  0  0
   23.4778  -27.5170  -16.3755 O   0  0  0  0  0  0  0  0  0  0  0  0
  2  4  1  0
  2  1  1  6
  3  2  1  0
  4  6  1  0
  4  5  1  6
  6  7  2  0
  9  8  1  0
 10  9  2  0
 11  9  1  0
 12 11  1  1
 12 14  1  0
 13 12  1  0
 13  6  1  0
 14 15  2  0
 16 17  1  0
 16 14  1  0
 17 25  1  0
 17 18  1  6
 19 24  2  0
 19 18  1  0
 20 19  1  0
 21 22  1  0
 21 20  2  0
 22 23  2  0
 23 24  1  0
 25 26  2  0
 25 27  1  0
M  END
$$$$
