ISS.pdb
     RDKit          3D

 21 20  0  0  1  0  0  0  0  0999 V2000
   17.0041  -12.8734  -19.1808 C   0  0  0  0  0  0  0  0  0  0  0  0
   18.3072  -12.2782  -18.7891 C   0  0  0  0  0  0  0  0  0  0  0  0
   18.2673  -11.0930  -17.9070 C   0  0  2  0  0  0  0  0  0  0  0  0
   17.5364   -9.9803  -18.6639 C   0  0  0  0  0  0  0  0  0  0  0  0
   19.5346  -10.5442  -17.3972 C   0  0  2  0  0  0  0  0  0  0  0  0
   20.4273  -11.5634  -16.9323 N   0  0  0  0  0  0  0  0  0  0  0  0
   19.3890   -9.4126  -16.4535 C   0  0  0  0  0  0  0  0  0  0  0  0
   18.4794   -8.5609  -16.5440 O   0  0  0  0  0  0  0  0  0  0  0  0
   22.4865   -8.6842  -13.6223 O   0  0  0  0  0  0  0  0  0  0  0  0
   21.2011   -8.3167  -13.2996 C   0  0  0  0  0  0  0  0  0  0  0  0
   20.3300   -8.0804  -14.5308 C   0  0  2  0  0  0  0  0  0  0  0  0
   20.3060   -9.2519  -15.3814 N   0  0  0  0  0  0  0  0  0  0  0  0
   20.7962   -6.8726  -15.2068 C   0  0  0  0  0  0  0  0  0  0  0  0
   21.5943   -6.9283  -16.1658 O   0  0  0  0  0  0  0  0  0  0  0  0
   19.9462   -2.5666  -16.6856 O   0  0  0  0  0  0  0  0  0  0  0  0
   19.5139   -3.7074  -15.9808 C   0  0  0  0  0  0  0  0  0  0  0  0
   20.7776   -4.3638  -15.4476 C   0  0  2  0  0  0  0  0  0  0  0  0
   20.3588   -5.5936  -14.7982 N   0  0  0  0  0  0  0  0  0  0  0  0
   21.3973   -3.4169  -14.5051 C   0  0  0  0  0  0  0  0  0  0  0  0
   22.3759   -2.5406  -14.9113 O   0  0  0  0  0  0  0  0  0  0  0  0
   21.0287   -3.4085  -13.3160 O   0  0  0  0  0  0  0  0  0  0  0  0
  2  3  1  0
  2  1  1  0
  3  5  1  0
  3  4  1  6
  5  6  1  1
  5  7  1  0
  7  8  2  0
 10  9  1  0
 11 10  1  1
 12  7  1  0
 12 11  1  0
 13 18  1  0
 13 11  1  0
 14 13  2  0
 16 15  1  0
 17 19  1  0
 17 16  1  1
 17 18  1  0
 19 20  1  0
 21 19  2  0
M  END
$$$$
