ISS.pdb
     RDKit          3D

 21 20  0  0  1  0  0  0  0  0999 V2000
   24.8332  -12.6040  -15.7712 C   0  0  0  0  0  0  0  0  0  0  0  0
   23.3595  -12.4336  -15.8422 C   0  0  0  0  0  0  0  0  0  0  0  0
   22.8466  -11.0517  -15.9508 C   0  0  2  0  0  0  0  0  0  0  0  0
   23.2681  -10.3033  -14.6830 C   0  0  0  0  0  0  0  0  0  0  0  0
   21.4025  -10.8437  -16.1469 C   0  0  2  0  0  0  0  0  0  0  0  0
   20.8453  -11.7376  -17.1176 N   0  0  0  0  0  0  0  0  0  0  0  0
   20.9970   -9.4332  -16.3430 C   0  0  0  0  0  0  0  0  0  0  0  0
   21.3864   -8.7383  -17.3054 O   0  0  0  0  0  0  0  0  0  0  0  0
   17.8796   -7.6344  -13.9704 O   0  0  0  0  0  0  0  0  0  0  0  0
   18.2153   -7.2755  -15.2549 C   0  0  0  0  0  0  0  0  0  0  0  0
   19.7087   -7.4219  -15.5355 C   0  0  2  0  0  0  0  0  0  0  0  0
   20.1258   -8.8033  -15.4155 N   0  0  0  0  0  0  0  0  0  0  0  0
   20.4392   -6.5091  -14.6601 C   0  0  0  0  0  0  0  0  0  0  0  0
   21.2924   -6.9258  -13.8489 O   0  0  0  0  0  0  0  0  0  0  0  0
   23.3108   -3.3482  -14.3363 O   0  0  0  0  0  0  0  0  0  0  0  0
   22.4317   -4.2952  -14.8979 C   0  0  0  0  0  0  0  0  0  0  0  0
   21.1222   -4.1392  -14.1409 C   0  0  2  0  0  0  0  0  0  0  0  0
   20.2055   -5.1171  -14.7005 N   0  0  0  0  0  0  0  0  0  0  0  0
   20.6597   -2.7565  -14.3486 C   0  0  0  0  0  0  0  0  0  0  0  0
   20.8473   -1.7881  -13.3906 O   0  0  0  0  0  0  0  0  0  0  0  0
   20.0871   -2.4567  -15.4125 O   0  0  0  0  0  0  0  0  0  0  0  0
  2  3  1  0
  2  1  1  0
  3  5  1  0
  3  4  1  1
  5  6  1  6
  5  7  1  0
  7  8  2  0
 10  9  1  0
 11 10  1  1
 12  7  1  0
 12 11  1  0
 13 18  1  0
 13 11  1  0
 14 13  2  0
 16 15  1  0
 17 19  1  0
 17 16  1  6
 17 18  1  0
 19 20  1  0
 21 19  2  0
M  END
$$$$
