ISS.pdb
     RDKit          3D

 21 20  0  0  1  0  0  0  0  0999 V2000
   24.1465  -14.1454  -18.6061 C   0  0  0  0  0  0  0  0  0  0  0  0
   24.2485  -13.2468  -17.4280 C   0  0  0  0  0  0  0  0  0  0  0  0
   23.5267  -11.9591  -17.4999 C   0  0  2  0  0  0  0  0  0  0  0  0
   24.0206  -11.2236  -18.7489 C   0  0  0  0  0  0  0  0  0  0  0  0
   23.6119  -11.0327  -16.3589 C   0  0  2  0  0  0  0  0  0  0  0  0
   23.4446  -11.6947  -15.0997 N   0  0  0  0  0  0  0  0  0  0  0  0
   22.7969   -9.8037  -16.4918 C   0  0  0  0  0  0  0  0  0  0  0  0
   23.1886   -8.7877  -17.1045 O   0  0  0  0  0  0  0  0  0  0  0  0
   18.4209   -7.7442  -15.7398 O   0  0  0  0  0  0  0  0  0  0  0  0
   19.2229   -8.8610  -15.7044 C   0  0  0  0  0  0  0  0  0  0  0  0
   20.6994   -8.5317  -15.9091 C   0  0  2  0  0  0  0  0  0  0  0  0
   21.5038   -9.7357  -15.9094 N   0  0  0  0  0  0  0  0  0  0  0  0
   21.1033   -7.5551  -14.9010 C   0  0  0  0  0  0  0  0  0  0  0  0
   21.8943   -7.8549  -13.9822 O   0  0  0  0  0  0  0  0  0  0  0  0
   23.3520   -4.0242  -14.2175 O   0  0  0  0  0  0  0  0  0  0  0  0
   22.6685   -5.0316  -14.9266 C   0  0  0  0  0  0  0  0  0  0  0  0
   21.2892   -5.1164  -14.2921 C   0  0  2  0  0  0  0  0  0  0  0  0
   20.6117   -6.2317  -14.9300 N   0  0  0  0  0  0  0  0  0  0  0  0
   20.6125   -3.8330  -14.5447 C   0  0  0  0  0  0  0  0  0  0  0  0
   20.5378   -2.8609  -13.5751 O   0  0  0  0  0  0  0  0  0  0  0  0
   20.0973   -3.6223  -15.6582 O   0  0  0  0  0  0  0  0  0  0  0  0
  2  3  1  0
  2  1  1  0
  3  5  1  0
  3  4  1  6
  5  6  1  1
  5  7  1  0
  7  8  2  0
 10  9  1  0
 11 10  1  1
 12  7  1  0
 12 11  1  0
 13 18  1  0
 13 11  1  0
 14 13  2  0
 16 15  1  0
 17 19  1  0
 17 16  1  6
 17 18  1  0
 19 20  1  0
 21 19  2  0
M  END
$$$$
