ISS.pdb
     RDKit          3D

 21 20  0  0  1  0  0  0  0  0999 V2000
   16.7428  -23.3009    1.7639 C   0  0  0  0  0  0  0  0  0  0  0  0
   15.8575  -22.1629    2.1205 C   0  0  0  0  0  0  0  0  0  0  0  0
   16.2556  -21.3391    3.2812 C   0  0  2  0  0  0  0  0  0  0  0  0
   16.2652  -22.2512    4.5113 C   0  0  0  0  0  0  0  0  0  0  0  0
   15.4650  -20.1404    3.6058 C   0  0  2  0  0  0  0  0  0  0  0  0
   15.1304  -19.3716    2.4444 N   0  0  0  0  0  0  0  0  0  0  0  0
   15.9994  -19.3241    4.7195 C   0  0  0  0  0  0  0  0  0  0  0  0
   16.8978  -18.4690    4.5692 O   0  0  0  0  0  0  0  0  0  0  0  0
   13.9892  -19.2167    8.5201 O   0  0  0  0  0  0  0  0  0  0  0  0
   14.6875  -18.1809    7.9447 C   0  0  0  0  0  0  0  0  0  0  0  0
   15.8997  -18.6587    7.1494 C   0  0  2  0  0  0  0  0  0  0  0  0
   15.4941  -19.4907    6.0358 N   0  0  0  0  0  0  0  0  0  0  0  0
   16.8291  -19.3148    8.0653 C   0  0  0  0  0  0  0  0  0  0  0  0
   16.9929  -20.5528    8.0529 O   0  0  0  0  0  0  0  0  0  0  0  0
   19.9971  -18.6313   11.6552 O   0  0  0  0  0  0  0  0  0  0  0  0
   19.0363  -18.0430   10.8093 C   0  0  0  0  0  0  0  0  0  0  0  0
   18.5074  -19.1732    9.9404 C   0  0  2  0  0  0  0  0  0  0  0  0
   17.5787  -18.5689    9.0012 N   0  0  0  0  0  0  0  0  0  0  0  0
   17.8481  -20.1399   10.8348 C   0  0  0  0  0  0  0  0  0  0  0  0
   18.5717  -21.0797   11.5302 O   0  0  0  0  0  0  0  0  0  0  0  0
   16.6104  -20.1068   10.9649 O   0  0  0  0  0  0  0  0  0  0  0  0
  2  3  1  0
  2  1  1  0
  3  5  1  0
  3  4  1  1
  5  6  1  6
  5  7  1  0
  7  8  2  0
 10  9  1  0
 11 10  1  1
 12  7  1  0
 12 11  1  0
 13 18  1  0
 13 11  1  0
 14 13  2  0
 16 15  1  0
 17 19  1  0
 17 16  1  1
 17 18  1  0
 19 20  1  0
 21 19  2  0
M  END
$$$$
