ISS.pdb
     RDKit          3D

 21 20  0  0  1  0  0  0  0  0999 V2000
   16.0273  -12.1893  -11.3563 C   0  0  0  0  0  0  0  0  0  0  0  0
   15.7196  -11.2405  -10.2558 C   0  0  0  0  0  0  0  0  0  0  0  0
   15.6082   -9.8104  -10.6122 C   0  0  2  0  0  0  0  0  0  0  0  0
   16.9456   -9.3827  -11.2231 C   0  0  0  0  0  0  0  0  0  0  0  0
   15.2540   -8.8423   -9.5612 C   0  0  2  0  0  0  0  0  0  0  0  0
   14.1116   -9.2509   -8.7999 N   0  0  0  0  0  0  0  0  0  0  0  0
   15.1909   -7.4322  -10.0085 C   0  0  0  0  0  0  0  0  0  0  0  0
   14.4518   -7.0431  -10.9375 O   0  0  0  0  0  0  0  0  0  0  0  0
   16.6983   -2.8443   -9.1754 O   0  0  0  0  0  0  0  0  0  0  0  0
   16.5777   -4.1475   -8.7526 C   0  0  0  0  0  0  0  0  0  0  0  0
   16.0910   -5.0818   -9.8573 C   0  0  2  0  0  0  0  0  0  0  0  0
   15.9928   -6.4446   -9.3779 N   0  0  0  0  0  0  0  0  0  0  0  0
   16.9657   -4.9282  -11.0168 C   0  0  0  0  0  0  0  0  0  0  0  0
   18.0907   -5.4686  -11.0617 O   0  0  0  0  0  0  0  0  0  0  0  0
   17.6607   -4.3858  -15.5473 O   0  0  0  0  0  0  0  0  0  0  0  0
   16.7887   -4.6030  -14.4623 C   0  0  0  0  0  0  0  0  0  0  0  0
   17.4315   -3.9065  -13.2733 C   0  0  2  0  0  0  0  0  0  0  0  0
   16.5682   -4.1600  -12.1330 N   0  0  0  0  0  0  0  0  0  0  0  0
   17.5181   -2.4733  -13.6011 C   0  0  0  0  0  0  0  0  0  0  0  0
   18.5836   -1.9637  -14.3051 O   0  0  0  0  0  0  0  0  0  0  0  0
   16.6089   -1.7062  -13.2341 O   0  0  0  0  0  0  0  0  0  0  0  0
  2  3  1  0
  2  1  1  0
  3  5  1  0
  3  4  1  1
  5  6  1  6
  5  7  1  0
  7  8  2  0
 10  9  1  0
 11 10  1  1
 12  7  1  0
 12 11  1  0
 13 18  1  0
 13 11  1  0
 14 13  2  0
 16 15  1  0
 17 19  1  0
 17 16  1  6
 17 18  1  0
 19 20  1  0
 21 19  2  0
M  END
$$$$
