ISS.pdb
     RDKit          3D

 21 20  0  0  1  0  0  0  0  0999 V2000
   17.0800  -14.4755  -17.2996 C   0  0  0  0  0  0  0  0  0  0  0  0
   18.3447  -13.7524  -17.5887 C   0  0  0  0  0  0  0  0  0  0  0  0
   18.6820  -12.6107  -16.7129 C   0  0  2  0  0  0  0  0  0  0  0  0
   17.6403  -11.5162  -16.9617 C   0  0  0  0  0  0  0  0  0  0  0  0
   20.0189  -12.0038  -16.8207 C   0  0  2  0  0  0  0  0  0  0  0  0
   21.0694  -12.9765  -16.7755 N   0  0  0  0  0  0  0  0  0  0  0  0
   20.2506  -10.8440  -15.9299 C   0  0  0  0  0  0  0  0  0  0  0  0
   20.7915  -10.9422  -14.8080 O   0  0  0  0  0  0  0  0  0  0  0  0
   21.9697   -7.1751  -14.4828 O   0  0  0  0  0  0  0  0  0  0  0  0
   21.6332   -8.3137  -15.1769 C   0  0  0  0  0  0  0  0  0  0  0  0
   20.1577   -8.3506  -15.5670 C   0  0  2  0  0  0  0  0  0  0  0  0
   19.8534   -9.5416  -16.3324 N   0  0  0  0  0  0  0  0  0  0  0  0
   19.8271   -7.1072  -16.2583 C   0  0  0  0  0  0  0  0  0  0  0  0
   20.2741   -6.8548  -17.3968 O   0  0  0  0  0  0  0  0  0  0  0  0
   16.6654   -6.0913  -16.4759 O   0  0  0  0  0  0  0  0  0  0  0  0
   17.1349   -4.7779  -16.2773 C   0  0  0  0  0  0  0  0  0  0  0  0
   18.6521   -4.8777  -16.2921 C   0  0  2  0  0  0  0  0  0  0  0  0
   18.9865   -6.1425  -15.6611 N   0  0  0  0  0  0  0  0  0  0  0  0
   19.1732   -3.7231  -15.5408 C   0  0  0  0  0  0  0  0  0  0  0  0
   18.9292   -2.4337  -15.9511 O   0  0  0  0  0  0  0  0  0  0  0  0
   19.8485   -3.9169  -14.5131 O   0  0  0  0  0  0  0  0  0  0  0  0
  2  3  1  0
  2  1  1  0
  3  5  1  0
  3  4  1  6
  5  6  1  1
  5  7  1  0
  7  8  2  0
 10  9  1  0
 11 10  1  6
 12  7  1  0
 12 11  1  0
 13 18  1  0
 13 11  1  0
 14 13  2  0
 16 15  1  0
 17 19  1  0
 17 16  1  1
 17 18  1  0
 19 20  1  0
 21 19  2  0
M  END
$$$$
