ISS.pdb
     RDKit          3D

 21 20  0  0  1  0  0  0  0  0999 V2000
   21.8317  -18.2746    6.2989 C   0  0  0  0  0  0  0  0  0  0  0  0
   20.8023  -19.1447    5.6750 C   0  0  0  0  0  0  0  0  0  0  0  0
   20.3704  -20.3318    6.4422 C   0  0  2  0  0  0  0  0  0  0  0  0
   21.5979  -21.2267    6.6353 C   0  0  0  0  0  0  0  0  0  0  0  0
   19.2773  -21.1620    5.9100 C   0  0  2  0  0  0  0  0  0  0  0  0
   18.1422  -20.3855    5.5096 N   0  0  0  0  0  0  0  0  0  0  0  0
   18.9253  -22.3361    6.7406 C   0  0  0  0  0  0  0  0  0  0  0  0
   18.4541  -22.2400    7.8937 O   0  0  0  0  0  0  0  0  0  0  0  0
   19.6851  -26.2793    5.2676 O   0  0  0  0  0  0  0  0  0  0  0  0
   18.6255  -26.0491    6.1137 C   0  0  0  0  0  0  0  0  0  0  0  0
   18.8477  -24.8407    7.0197 C   0  0  2  0  0  0  0  0  0  0  0  0
   19.1174  -23.6508    6.2400 N   0  0  0  0  0  0  0  0  0  0  0  0
   19.8993  -25.1651    7.9799 C   0  0  0  0  0  0  0  0  0  0  0  0
   21.0899  -24.8482    7.7756 O   0  0  0  0  0  0  0  0  0  0  0  0
   20.9322  -26.3157   12.4740 O   0  0  0  0  0  0  0  0  0  0  0  0
   19.9084  -26.2304   11.5099 C   0  0  0  0  0  0  0  0  0  0  0  0
   20.6141  -26.2017   10.1633 C   0  0  2  0  0  0  0  0  0  0  0  0
   19.6055  -25.8513    9.1785 N   0  0  0  0  0  0  0  0  0  0  0  0
   21.1751  -27.5442    9.9355 C   0  0  0  0  0  0  0  0  0  0  0  0
   22.4560  -27.8593   10.3235 O   0  0  0  0  0  0  0  0  0  0  0  0
   20.4768  -28.4125    9.3804 O   0  0  0  0  0  0  0  0  0  0  0  0
  2  3  1  0
  2  1  1  0
  3  5  1  0
  3  4  1  6
  5  6  1  1
  5  7  1  0
  7  8  2  0
 10  9  1  0
 11 10  1  6
 12  7  1  0
 12 11  1  0
 13 18  1  0
 13 11  1  0
 14 13  2  0
 16 15  1  0
 17 19  1  0
 17 16  1  1
 17 18  1  0
 19 20  1  0
 21 19  2  0
M  END
$$$$
