ISS.pdb
     RDKit          3D

 21 20  0  0  1  0  0  0  0  0999 V2000
   25.0325  -13.2030  -16.0794 C   0  0  0  0  0  0  0  0  0  0  0  0
   24.3642  -12.1896  -15.2236 C   0  0  0  0  0  0  0  0  0  0  0  0
   23.5760  -11.1443  -15.9095 C   0  0  2  0  0  0  0  0  0  0  0  0
   24.4672  -10.5336  -16.9948 C   0  0  0  0  0  0  0  0  0  0  0  0
   23.0074  -10.0455  -15.1116 C   0  0  2  0  0  0  0  0  0  0  0  0
   22.3599  -10.5088  -13.9209 N   0  0  0  0  0  0  0  0  0  0  0  0
   22.2011   -9.0699  -15.8799 C   0  0  0  0  0  0  0  0  0  0  0  0
   22.6225   -8.4921  -16.9043 O   0  0  0  0  0  0  0  0  0  0  0  0
   18.3122   -8.0873  -14.5115 O   0  0  0  0  0  0  0  0  0  0  0  0
   18.5432   -8.1308  -15.8666 C   0  0  0  0  0  0  0  0  0  0  0  0
   20.0059   -7.8777  -16.2225 C   0  0  2  0  0  0  0  0  0  0  0  0
   20.8817   -8.7478  -15.4657 N   0  0  0  0  0  0  0  0  0  0  0  0
   20.2904   -6.4565  -16.0424 C   0  0  0  0  0  0  0  0  0  0  0  0
   20.9248   -6.0385  -15.0512 O   0  0  0  0  0  0  0  0  0  0  0  0
   20.9205   -4.1187  -19.0636 O   0  0  0  0  0  0  0  0  0  0  0  0
   19.9541   -3.4880  -18.2555 C   0  0  0  0  0  0  0  0  0  0  0  0
   20.1313   -4.0798  -16.8661 C   0  0  2  0  0  0  0  0  0  0  0  0
   19.8562   -5.5009  -16.9870 N   0  0  0  0  0  0  0  0  0  0  0  0
   19.1754   -3.3991  -15.9762 C   0  0  0  0  0  0  0  0  0  0  0  0
   19.3272   -2.0737  -15.6433 O   0  0  0  0  0  0  0  0  0  0  0  0
   18.2098   -4.0353  -15.5151 O   0  0  0  0  0  0  0  0  0  0  0  0
  2  3  1  0
  2  1  1  0
  3  5  1  0
  3  4  1  6
  5  6  1  1
  5  7  1  0
  7  8  2  0
 10  9  1  0
 11 10  1  1
 12  7  1  0
 12 11  1  0
 13 18  1  0
 13 11  1  0
 14 13  2  0
 16 15  1  0
 17 19  1  0
 17 16  1  6
 17 18  1  0
 19 20  1  0
 21 19  2  0
M  END
$$$$
