ISS.pdb
     RDKit          3D

 21 20  0  0  1  0  0  0  0  0999 V2000
   16.4990  -13.5250  -20.1004 C   0  0  0  0  0  0  0  0  0  0  0  0
   17.4442  -13.2106  -18.9987 C   0  0  0  0  0  0  0  0  0  0  0  0
   17.0403  -12.1545  -18.0469 C   0  0  2  0  0  0  0  0  0  0  0  0
   16.9050  -10.8498  -18.8372 C   0  0  0  0  0  0  0  0  0  0  0  0
   17.8901  -11.8934  -16.8735 C   0  0  2  0  0  0  0  0  0  0  0  0
   18.2278  -13.0900  -16.1622 N   0  0  0  0  0  0  0  0  0  0  0  0
   17.4202  -10.7980  -15.9951 C   0  0  0  0  0  0  0  0  0  0  0  0
   16.2125  -10.5197  -15.8373 O   0  0  0  0  0  0  0  0  0  0  0  0
   18.3828   -7.9445  -12.2385 O   0  0  0  0  0  0  0  0  0  0  0  0
   18.7898   -8.9094  -13.1300 C   0  0  0  0  0  0  0  0  0  0  0  0
   17.9632   -8.9110  -14.4134 C   0  0  2  0  0  0  0  0  0  0  0  0
   18.3545  -10.0024  -15.2808 N   0  0  0  0  0  0  0  0  0  0  0  0
   18.0707   -7.5955  -15.0388 C   0  0  0  0  0  0  0  0  0  0  0  0
   19.0075   -7.3173  -15.8165 O   0  0  0  0  0  0  0  0  0  0  0  0
   16.1214   -3.9449  -17.0063 O   0  0  0  0  0  0  0  0  0  0  0  0
   16.0720   -5.2366  -16.4459 C   0  0  0  0  0  0  0  0  0  0  0  0
   17.1678   -5.2691  -15.3923 C   0  0  2  0  0  0  0  0  0  0  0  0
   17.1148   -6.5876  -14.7852 N   0  0  0  0  0  0  0  0  0  0  0  0
   16.8764   -4.1966  -14.4258 C   0  0  0  0  0  0  0  0  0  0  0  0
   17.0022   -2.8711  -14.7689 O   0  0  0  0  0  0  0  0  0  0  0  0
   16.5087   -4.4946  -13.2744 O   0  0  0  0  0  0  0  0  0  0  0  0
  2  3  1  0
  2  1  1  0
  3  5  1  0
  3  4  1  6
  5  6  1  1
  5  7  1  0
  7  8  2  0
 10  9  1  0
 11 10  1  1
 12  7  1  0
 12 11  1  0
 13 18  1  0
 13 11  1  0
 14 13  2  0
 16 15  1  0
 17 19  1  0
 17 16  1  6
 17 18  1  0
 19 20  1  0
 21 19  2  0
M  END
$$$$
