ISS.pdb
     RDKit          3D

 21 20  0  0  1  0  0  0  0  0999 V2000
   18.3202  -13.6045  -18.8970 C   0  0  0  0  0  0  0  0  0  0  0  0
   19.7919  -13.4197  -18.9736 C   0  0  0  0  0  0  0  0  0  0  0  0
   20.3844  -12.3752  -18.1120 C   0  0  2  0  0  0  0  0  0  0  0  0
   19.8608  -11.0223  -18.6024 C   0  0  0  0  0  0  0  0  0  0  0  0
   21.8502  -12.2886  -18.0070 C   0  0  2  0  0  0  0  0  0  0  0  0
   22.4559  -13.5526  -17.7119 N   0  0  0  0  0  0  0  0  0  0  0  0
   22.3500  -11.1829  -17.1585 C   0  0  0  0  0  0  0  0  0  0  0  0
   22.2334  -11.1704  -15.9147 O   0  0  0  0  0  0  0  0  0  0  0  0
   25.8218   -9.0915  -17.5980 O   0  0  0  0  0  0  0  0  0  0  0  0
   24.6980   -8.3010  -17.6587 C   0  0  0  0  0  0  0  0  0  0  0  0
   23.4907   -8.9415  -16.9785 C   0  0  2  0  0  0  0  0  0  0  0  0
   22.9980  -10.0651  -17.7475 N   0  0  0  0  0  0  0  0  0  0  0  0
   22.4873   -7.9075  -16.7395 C   0  0  0  0  0  0  0  0  0  0  0  0
   21.7828   -7.4553  -17.6662 O   0  0  0  0  0  0  0  0  0  0  0  0
   21.1113   -7.3713  -13.1289 O   0  0  0  0  0  0  0  0  0  0  0  0
   20.3583   -6.7880  -14.1670 C   0  0  0  0  0  0  0  0  0  0  0  0
   21.3758   -6.2748  -15.1737 C   0  0  2  0  0  0  0  0  0  0  0  0
   22.2774   -7.3806  -15.4463 N   0  0  0  0  0  0  0  0  0  0  0  0
   22.0656   -5.1311  -14.5533 C   0  0  0  0  0  0  0  0  0  0  0  0
   21.3976   -3.9651  -14.2623 O   0  0  0  0  0  0  0  0  0  0  0  0
   23.2783   -5.2202  -14.2862 O   0  0  0  0  0  0  0  0  0  0  0  0
  2  3  1  0
  2  1  1  0
  3  5  1  0
  3  4  1  6
  5  6  1  1
  5  7  1  0
  7  8  2  0
 10  9  1  0
 11 10  1  6
 12  7  1  0
 12 11  1  0
 13 18  1  0
 13 11  1  0
 14 13  2  0
 16 15  1  0
 17 19  1  0
 17 16  1  1
 17 18  1  0
 19 20  1  0
 21 19  2  0
M  END
$$$$
