ISS.pdb
     RDKit          3D

 21 20  0  0  1  0  0  0  0  0999 V2000
   19.0360  -12.6084  -19.8684 C   0  0  0  0  0  0  0  0  0  0  0  0
   20.1130  -11.5908  -19.7667 C   0  0  0  0  0  0  0  0  0  0  0  0
   19.8967  -10.4744  -18.8226 C   0  0  2  0  0  0  0  0  0  0  0  0
   18.6100   -9.7586  -19.2433 C   0  0  0  0  0  0  0  0  0  0  0  0
   20.9540   -9.4621  -18.6657 C   0  0  2  0  0  0  0  0  0  0  0  0
   22.2413  -10.0440  -18.4291 N   0  0  0  0  0  0  0  0  0  0  0  0
   20.6262   -8.3576  -17.7357 C   0  0  0  0  0  0  0  0  0  0  0  0
   19.5425   -7.7367  -17.7680 O   0  0  0  0  0  0  0  0  0  0  0  0
   22.0289   -6.0691  -13.6286 O   0  0  0  0  0  0  0  0  0  0  0  0
   22.2044   -7.0753  -14.5496 C   0  0  0  0  0  0  0  0  0  0  0  0
   21.2706   -6.9436  -15.7500 C   0  0  2  0  0  0  0  0  0  0  0  0
   21.5607   -7.9540  -16.7459 N   0  0  0  0  0  0  0  0  0  0  0  0
   21.3539   -5.5767  -16.2579 C   0  0  0  0  0  0  0  0  0  0  0  0
   22.3164   -5.1983  -16.9579 O   0  0  0  0  0  0  0  0  0  0  0  0
   19.0577   -1.4055  -16.8849 O   0  0  0  0  0  0  0  0  0  0  0  0
   18.9891   -2.7118  -16.3616 C   0  0  0  0  0  0  0  0  0  0  0  0
   20.4138   -3.2422  -16.3939 C   0  0  2  0  0  0  0  0  0  0  0  0
   20.3445   -4.6310  -15.9740 N   0  0  0  0  0  0  0  0  0  0  0  0
   21.2081   -2.4173  -15.4679 C   0  0  0  0  0  0  0  0  0  0  0  0
   21.9571   -1.3558  -15.9184 O   0  0  0  0  0  0  0  0  0  0  0  0
   21.2024   -2.6851  -14.2521 O   0  0  0  0  0  0  0  0  0  0  0  0
  2  3  1  0
  2  1  1  0
  3  5  1  0
  3  4  1  6
  5  6  1  1
  5  7  1  0
  7  8  2  0
 10  9  1  0
 11 10  1  1
 12  7  1  0
 12 11  1  0
 13 18  1  0
 13 11  1  0
 14 13  2  0
 16 15  1  0
 17 19  1  0
 17 16  1  1
 17 18  1  0
 19 20  1  0
 21 19  2  0
M  END
$$$$
