ISS.pdb
     RDKit          3D

 21 20  0  0  1  0  0  0  0  0999 V2000
   16.5093  -11.7019  -19.4530 C   0  0  0  0  0  0  0  0  0  0  0  0
   17.6753  -12.2555  -18.7181 C   0  0  0  0  0  0  0  0  0  0  0  0
   18.3187  -11.3776  -17.7183 C   0  0  2  0  0  0  0  0  0  0  0  0
   18.8760  -10.1617  -18.4641 C   0  0  0  0  0  0  0  0  0  0  0  0
   19.3919  -11.9292  -16.8750 C   0  0  2  0  0  0  0  0  0  0  0  0
   19.0599  -13.2127  -16.3325 N   0  0  0  0  0  0  0  0  0  0  0  0
   19.9416  -10.9893  -15.8717 C   0  0  0  0  0  0  0  0  0  0  0  0
   19.2303  -10.3822  -15.0432 O   0  0  0  0  0  0  0  0  0  0  0  0
   24.1531  -10.1952  -15.7643 O   0  0  0  0  0  0  0  0  0  0  0  0
   23.3954  -10.1545  -14.6173 C   0  0  0  0  0  0  0  0  0  0  0  0
   21.9356   -9.7999  -14.8886 C   0  0  2  0  0  0  0  0  0  0  0  0
   21.3379  -10.7380  -15.8157 N   0  0  0  0  0  0  0  0  0  0  0  0
   21.8684   -8.4103  -15.3332 C   0  0  0  0  0  0  0  0  0  0  0  0
   22.0476   -8.0984  -16.5292 O   0  0  0  0  0  0  0  0  0  0  0  0
   19.6300   -5.8457  -13.7438 O   0  0  0  0  0  0  0  0  0  0  0  0
   20.3156   -5.4157  -14.8971 C   0  0  0  0  0  0  0  0  0  0  0  0
   21.7290   -5.9597  -14.7610 C   0  0  2  0  0  0  0  0  0  0  0  0
   21.5969   -7.3659  -14.4224 N   0  0  0  0  0  0  0  0  0  0  0  0
   22.3933   -5.1884  -13.6967 C   0  0  0  0  0  0  0  0  0  0  0  0
   22.7724   -5.7801  -12.5148 O   0  0  0  0  0  0  0  0  0  0  0  0
   22.6169   -3.9760  -13.8690 O   0  0  0  0  0  0  0  0  0  0  0  0
  2  3  1  0
  2  1  1  0
  3  5  1  0
  3  4  1  6
  5  6  1  1
  5  7  1  0
  7  8  2  0
 10  9  1  0
 11 10  1  6
 12  7  1  0
 12 11  1  0
 13 18  1  0
 13 11  1  0
 14 13  2  0
 16 15  1  0
 17 19  1  0
 17 16  1  1
 17 18  1  0
 19 20  1  0
 21 19  2  0
M  END
$$$$
