ISS.pdb
     RDKit          3D

 21 20  0  0  1  0  0  0  0  0999 V2000
   15.9927  -11.1961  -18.5757 C   0  0  0  0  0  0  0  0  0  0  0  0
   17.3918  -11.6402  -18.3494 C   0  0  0  0  0  0  0  0  0  0  0  0
   18.2258  -10.8077  -17.4575 C   0  0  2  0  0  0  0  0  0  0  0  0
   18.3424   -9.4214  -18.0976 C   0  0  0  0  0  0  0  0  0  0  0  0
   19.5812  -11.2703  -17.1165 C   0  0  2  0  0  0  0  0  0  0  0  0
   19.6077  -12.6444  -16.7131 N   0  0  0  0  0  0  0  0  0  0  0  0
   20.3356  -10.3751  -16.2099 C   0  0  0  0  0  0  0  0  0  0  0  0
   19.9100  -10.0215  -15.0898 O   0  0  0  0  0  0  0  0  0  0  0  0
   24.0026   -8.5561  -17.5403 O   0  0  0  0  0  0  0  0  0  0  0  0
   23.8067   -8.8605  -16.2135 C   0  0  0  0  0  0  0  0  0  0  0  0
   22.3302   -8.8812  -15.8263 C   0  0  2  0  0  0  0  0  0  0  0  0
   21.6066   -9.8725  -16.5947 N   0  0  0  0  0  0  0  0  0  0  0  0
   21.7945   -7.5289  -15.9589 C   0  0  0  0  0  0  0  0  0  0  0  0
   21.3316   -7.1136  -17.0419 O   0  0  0  0  0  0  0  0  0  0  0  0
   19.3685   -3.9806  -14.7452 O   0  0  0  0  0  0  0  0  0  0  0  0
   19.8199   -5.3098  -14.6246 C   0  0  0  0  0  0  0  0  0  0  0  0
   21.3041   -5.2706  -14.9529 C   0  0  2  0  0  0  0  0  0  0  0  0
   21.7810   -6.6395  -14.8621 N   0  0  0  0  0  0  0  0  0  0  0  0
   21.9469   -4.3880  -13.9646 C   0  0  0  0  0  0  0  0  0  0  0  0
   21.8227   -3.0207  -14.0390 O   0  0  0  0  0  0  0  0  0  0  0  0
   22.6168   -4.8885  -13.0424 O   0  0  0  0  0  0  0  0  0  0  0  0
  2  3  1  0
  2  1  1  0
  3  5  1  0
  3  4  1  6
  5  6  1  1
  5  7  1  0
  7  8  2  0
 10  9  1  0
 11 10  1  6
 12  7  1  0
 12 11  1  0
 13 18  1  0
 13 11  1  0
 14 13  2  0
 16 15  1  0
 17 19  1  0
 17 16  1  1
 17 18  1  0
 19 20  1  0
 21 19  2  0
M  END
$$$$
