ISS.pdb
     RDKit          3D

 21 20  0  0  1  0  0  0  0  0999 V2000
   18.3506  -14.6201  -16.4778 C   0  0  0  0  0  0  0  0  0  0  0  0
   18.7087  -13.3813  -17.2146 C   0  0  0  0  0  0  0  0  0  0  0  0
   19.3673  -12.3064  -16.4429 C   0  0  2  0  0  0  0  0  0  0  0  0
   18.3408  -11.7599  -15.4466 C   0  0  0  0  0  0  0  0  0  0  0  0
   19.9524  -11.1673  -17.1690 C   0  0  2  0  0  0  0  0  0  0  0  0
   20.6772  -11.5732  -18.3360 N   0  0  0  0  0  0  0  0  0  0  0  0
   20.6900  -10.2015  -16.3231 C   0  0  0  0  0  0  0  0  0  0  0  0
   20.2359   -9.7464  -15.2518 O   0  0  0  0  0  0  0  0  0  0  0  0
   24.1090   -8.1177  -17.8782 O   0  0  0  0  0  0  0  0  0  0  0  0
   24.1029   -8.5335  -16.5672 C   0  0  0  0  0  0  0  0  0  0  0  0
   22.6918   -8.7009  -16.0095 C   0  0  2  0  0  0  0  0  0  0  0  0
   21.9770   -9.7457  -16.7126 N   0  0  0  0  0  0  0  0  0  0  0  0
   22.0203   -7.4043  -16.0431 C   0  0  0  0  0  0  0  0  0  0  0  0
   21.2551   -7.0898  -16.9787 O   0  0  0  0  0  0  0  0  0  0  0  0
   19.4977   -4.1176  -14.7811 O   0  0  0  0  0  0  0  0  0  0  0  0
   20.0891   -5.3949  -14.8409 C   0  0  0  0  0  0  0  0  0  0  0  0
   21.5805   -5.1493  -15.0068 C   0  0  2  0  0  0  0  0  0  0  0  0
   22.2135   -6.4566  -15.0143 N   0  0  0  0  0  0  0  0  0  0  0  0
   22.0165   -4.3236  -13.8679 C   0  0  0  0  0  0  0  0  0  0  0  0
   21.8629   -2.9573  -13.8748 O   0  0  0  0  0  0  0  0  0  0  0  0
   22.5349   -4.8725  -12.8780 O   0  0  0  0  0  0  0  0  0  0  0  0
  2  3  1  0
  2  1  1  0
  3  5  1  0
  3  4  1  1
  5  6  1  6
  5  7  1  0
  7  8  2  0
 10  9  1  0
 11 10  1  6
 12  7  1  0
 12 11  1  0
 13 18  1  0
 13 11  1  0
 14 13  2  0
 16 15  1  0
 17 19  1  0
 17 16  1  1
 17 18  1  0
 19 20  1  0
 21 19  2  0
M  END
$$$$
