ISS.pdb
     RDKit          3D

 21 20  0  0  1  0  0  0  0  0999 V2000
   22.2326  -20.4512   -9.4168 C   0  0  0  0  0  0  0  0  0  0  0  0
   23.5545  -21.0350   -9.7597 C   0  0  0  0  0  0  0  0  0  0  0  0
   24.2391  -20.4949  -10.9530 C   0  0  2  0  0  0  0  0  0  0  0  0
   23.3014  -20.6875  -12.1482 C   0  0  0  0  0  0  0  0  0  0  0  0
   25.5610  -21.0311  -11.3167 C   0  0  2  0  0  0  0  0  0  0  0  0
   26.4367  -21.1463  -10.1891 N   0  0  0  0  0  0  0  0  0  0  0  0
   26.1931  -20.3874  -12.4908 C   0  0  0  0  0  0  0  0  0  0  0  0
   26.6793  -19.2369  -12.4593 O   0  0  0  0  0  0  0  0  0  0  0  0
   27.2499  -22.6086  -15.9575 O   0  0  0  0  0  0  0  0  0  0  0  0
   27.7816  -21.3817  -15.6358 C   0  0  0  0  0  0  0  0  0  0  0  0
   26.7745  -20.4674  -14.9429 C   0  0  2  0  0  0  0  0  0  0  0  0
   26.2703  -21.0764  -13.7298 N   0  0  0  0  0  0  0  0  0  0  0  0
   25.7304  -20.1132  -15.9008 C   0  0  0  0  0  0  0  0  0  0  0  0
   24.6319  -20.7072  -15.9179 O   0  0  0  0  0  0  0  0  0  0  0  0
   23.8412  -16.8755  -18.7595 O   0  0  0  0  0  0  0  0  0  0  0  0
   24.8962  -17.2044  -17.8855 C   0  0  0  0  0  0  0  0  0  0  0  0
   24.9411  -18.7239  -17.8499 C   0  0  2  0  0  0  0  0  0  0  0  0
   25.9270  -19.0821  -16.8452 N   0  0  0  0  0  0  0  0  0  0  0  0
   25.3237  -19.1812  -19.1965 C   0  0  0  0  0  0  0  0  0  0  0  0
   26.6382  -19.1993  -19.5992 O   0  0  0  0  0  0  0  0  0  0  0  0
   24.4400  -19.5595  -19.9876 O   0  0  0  0  0  0  0  0  0  0  0  0
  2  3  1  0
  2  1  1  0
  3  5  1  0
  3  4  1  6
  5  6  1  1
  5  7  1  0
  7  8  2  0
 10  9  1  0
 11 10  1  6
 12  7  1  0
 12 11  1  0
 13 18  1  0
 13 11  1  0
 14 13  2  0
 16 15  1  0
 17 19  1  0
 17 16  1  6
 17 18  1  0
 19 20  1  0
 21 19  2  0
M  END
$$$$
