ISS.pdb
     RDKit          3D

 21 20  0  0  1  0  0  0  0  0999 V2000
   24.5470  -12.7569  -17.4388 C   0  0  0  0  0  0  0  0  0  0  0  0
   23.3949  -12.5920  -16.5162 C   0  0  0  0  0  0  0  0  0  0  0  0
   22.7981  -11.2433  -16.4198 C   0  0  2  0  0  0  0  0  0  0  0  0
   23.8911  -10.2904  -15.9277 C   0  0  0  0  0  0  0  0  0  0  0  0
   21.6086  -11.0520  -15.5737 C   0  0  2  0  0  0  0  0  0  0  0  0
   20.6252  -12.0750  -15.7687 N   0  0  0  0  0  0  0  0  0  0  0  0
   21.0460   -9.6825  -15.5899 C   0  0  0  0  0  0  0  0  0  0  0  0
   20.4244   -9.2113  -16.5658 O   0  0  0  0  0  0  0  0  0  0  0  0
   19.9092   -7.5914  -12.2204 O   0  0  0  0  0  0  0  0  0  0  0  0
   20.7565   -6.8847  -13.0415 C   0  0  0  0  0  0  0  0  0  0  0  0
   20.7985   -7.4409  -14.4625 C   0  0  2  0  0  0  0  0  0  0  0  0
   21.1988   -8.8325  -14.4629 N   0  0  0  0  0  0  0  0  0  0  0  0
   21.6569   -6.5821  -15.2741 C   0  0  0  0  0  0  0  0  0  0  0  0
   22.7890   -6.9557  -15.6463 O   0  0  0  0  0  0  0  0  0  0  0  0
   23.2063   -5.8730  -18.0337 O   0  0  0  0  0  0  0  0  0  0  0  0
   21.9390   -5.2640  -17.9432 C   0  0  0  0  0  0  0  0  0  0  0  0
   21.9510   -4.4833  -16.6384 C   0  0  2  0  0  0  0  0  0  0  0  0
   21.2350   -5.2935  -15.6685 N   0  0  0  0  0  0  0  0  0  0  0  0
   21.2828   -3.1959  -16.8935 C   0  0  0  0  0  0  0  0  0  0  0  0
   22.0007   -2.0700  -17.2212 O   0  0  0  0  0  0  0  0  0  0  0  0
   20.0427   -3.1240  -16.8111 O   0  0  0  0  0  0  0  0  0  0  0  0
  2  3  1  0
  2  1  1  0
  3  5  1  0
  3  4  1  1
  5  6  1  6
  5  7  1  0
  7  8  2  0
 10  9  1  0
 11 10  1  1
 12  7  1  0
 12 11  1  0
 13 18  1  0
 13 11  1  0
 14 13  2  0
 16 15  1  0
 17 19  1  0
 17 16  1  6
 17 18  1  0
 19 20  1  0
 21 19  2  0
M  END
$$$$
