ISS.pdb
     RDKit          3D

 21 20  0  0  1  0  0  0  0  0999 V2000
   24.8922  -15.1453  -16.5664 C   0  0  0  0  0  0  0  0  0  0  0  0
   23.6712  -14.3158  -16.7317 C   0  0  0  0  0  0  0  0  0  0  0  0
   23.8037  -12.8659  -16.4780 C   0  0  2  0  0  0  0  0  0  0  0  0
   24.2058  -12.6901  -15.0109 C   0  0  0  0  0  0  0  0  0  0  0  0
   22.6510  -11.9901  -16.7452 C   0  0  2  0  0  0  0  0  0  0  0  0
   22.0368  -12.2607  -18.0107 N   0  0  0  0  0  0  0  0  0  0  0  0
   22.8935  -10.5496  -16.5036 C   0  0  0  0  0  0  0  0  0  0  0  0
   23.1716  -10.0834  -15.3783 O   0  0  0  0  0  0  0  0  0  0  0  0
   21.9129   -7.6118  -19.4679 O   0  0  0  0  0  0  0  0  0  0  0  0
   23.0827   -7.4889  -18.7552 C   0  0  0  0  0  0  0  0  0  0  0  0
   23.0261   -8.1984  -17.4047 C   0  0  2  0  0  0  0  0  0  0  0  0
   22.8155   -9.6209  -17.5749 N   0  0  0  0  0  0  0  0  0  0  0  0
   22.0117   -7.5487  -16.5788 C   0  0  0  0  0  0  0  0  0  0  0  0
   20.8040   -7.8543  -16.6678 O   0  0  0  0  0  0  0  0  0  0  0  0
   22.0430   -7.1338  -13.0361 O   0  0  0  0  0  0  0  0  0  0  0  0
   20.8998   -6.7857  -13.7824 C   0  0  0  0  0  0  0  0  0  0  0  0
   21.3863   -5.8217  -14.8529 C   0  0  2  0  0  0  0  0  0  0  0  0
   22.3624   -6.5479  -15.6465 N   0  0  0  0  0  0  0  0  0  0  0  0
   21.9780   -4.6637  -14.1616 C   0  0  0  0  0  0  0  0  0  0  0  0
   21.2329   -3.8805  -13.3119 O   0  0  0  0  0  0  0  0  0  0  0  0
   23.1772   -4.3869  -14.3493 O   0  0  0  0  0  0  0  0  0  0  0  0
  2  3  1  0
  2  1  1  0
  3  5  1  0
  3  4  1  1
  5  6  1  6
  5  7  1  0
  7  8  2  0
 10  9  1  0
 11 10  1  6
 12  7  1  0
 12 11  1  0
 13 18  1  0
 13 11  1  0
 14 13  2  0
 16 15  1  0
 17 19  1  0
 17 16  1  1
 17 18  1  0
 19 20  1  0
 21 19  2  0
M  END
$$$$
