DLW.pdb
     RDKit          3D

 31 32  0  0  1  0  0  0  0  0999 V2000
   26.9813  -21.2396  -16.7336 N   0  0  0  0  0  0  0  0  0  0  0  0
   26.0988  -20.2149  -16.2136 C   0  0  1  0  0  0  0  0  0  0  0  0
   25.4343  -19.4816  -17.3703 C   0  0  0  0  0  0  0  0  0  0  0  0
   26.4241  -18.6584  -18.1112 C   0  0  0  0  0  0  0  0  0  0  0  0
   27.1631  -19.1594  -18.9906 O   0  0  0  0  0  0  0  0  0  0  0  0
   25.0847  -20.7877  -15.2945 C   0  0  0  0  0  0  0  0  0  0  0  0
   24.3780  -21.7914  -15.6385 O   0  0  0  0  0  0  0  0  0  0  0  0
   26.5542  -17.3046  -17.8443 O   0  0  0  0  0  0  0  0  0  0  0  0
   25.7118  -22.7103  -11.3915 C   0  0  0  0  0  0  0  0  0  0  0  0
   25.7684  -21.2128  -11.3830 C   0  0  2  0  0  0  0  0  0  0  0  0
   26.1853  -20.7008   -9.9938 C   0  0  0  0  0  0  0  0  0  0  0  0
   24.4838  -20.5876  -11.7417 C   0  0  0  0  0  0  0  0  0  0  0  0
   23.8811  -20.8300  -13.0613 C   0  0  2  0  0  0  0  0  0  0  0  0
   24.8778  -20.2383  -14.0216 N   0  0  0  0  0  0  0  0  0  0  0  0
   22.6042  -20.2685  -13.4375 C   0  0  0  0  0  0  0  0  0  0  0  0
   22.4924  -19.0062  -13.6121 O   0  0  0  0  0  0  0  0  0  0  0  0
   21.4352  -21.0805  -13.6271 N   0  0  0  0  0  0  0  0  0  0  0  0
   20.1759  -20.4575  -13.9690 C   0  0  1  0  0  0  0  0  0  0  0  0
   20.2626  -19.9014  -15.3713 C   0  0  0  0  0  0  0  0  0  0  0  0
   20.5136  -20.9281  -16.3825 C   0  0  0  0  0  0  0  0  0  0  0  0
   20.1132  -22.2401  -16.3097 C   0  0  0  0  0  0  0  0  0  0  0  0
   20.5351  -22.8540  -17.4305 N   0  0  0  0  0  0  0  0  0  0  0  0
   21.1909  -22.0107  -18.2326 C   0  0  0  0  0  0  0  0  0  0  0  0
   21.8023  -22.1592  -19.4684 C   0  0  0  0  0  0  0  0  0  0  0  0
   22.4236  -21.0977  -20.0897 C   0  0  0  0  0  0  0  0  0  0  0  0
   22.4237  -19.8693  -19.4473 C   0  0  0  0  0  0  0  0  0  0  0  0
   21.8131  -19.7385  -18.2226 C   0  0  0  0  0  0  0  0  0  0  0  0
   21.1831  -20.7872  -17.5778 C   0  0  0  0  0  0  0  0  0  0  0  0
   19.0640  -21.4420  -13.8450 C   0  0  0  0  0  0  0  0  0  0  0  0
   17.8624  -21.1268  -14.0056 O   0  0  0  0  0  0  0  0  0  0  0  0
   19.3769  -22.7569  -13.5399 O   0  0  0  0  0  0  0  0  0  0  0  0
  2  1  1  6
  2  3  1  0
  3  4  1  0
  4  5  2  0
  4  8  1  0
  6  2  1  0
  7  6  2  0
 10 12  1  0
 10  9  1  1
 11 10  1  0
 13 12  1  1
 13 15  1  0
 13 14  1  0
 14  6  1  0
 15 16  2  0
 17 18  1  0
 17 15  1  0
 18 19  1  6
 20 19  1  0
 21 20  2  0
 22 21  1  0
 23 22  1  0
 23 28  2  0
 24 23  1  0
 25 24  2  0
 25 26  1  0
 26 27  2  0
 27 28  1  0
 28 20  1  0
 29 18  1  0
 30 29  2  0
 31 29  1  0
M  END
$$$$
