DLW.pdb
     RDKit          3D

 31 32  0  0  1  0  0  0  0  0999 V2000
   25.2911  -18.0585  -15.9426 N   0  0  0  0  0  0  0  0  0  0  0  0
   25.1736  -19.3186  -16.6480 C   0  0  1  0  0  0  0  0  0  0  0  0
   25.9041  -19.2254  -17.9802 C   0  0  0  0  0  0  0  0  0  0  0  0
   25.3210  -18.1539  -18.8277 C   0  0  0  0  0  0  0  0  0  0  0  0
   25.2835  -16.9626  -18.4407 O   0  0  0  0  0  0  0  0  0  0  0  0
   25.6925  -20.4458  -15.8347 C   0  0  0  0  0  0  0  0  0  0  0  0
   25.7715  -21.6230  -16.3174 O   0  0  0  0  0  0  0  0  0  0  0  0
   24.8003  -18.4500  -20.0776 O   0  0  0  0  0  0  0  0  0  0  0  0
   30.0975  -20.3494  -12.8995 C   0  0  0  0  0  0  0  0  0  0  0  0
   28.9286  -20.7674  -13.7390 C   0  0  2  0  0  0  0  0  0  0  0  0
   28.6456  -19.7149  -14.8243 C   0  0  0  0  0  0  0  0  0  0  0  0
   27.6988  -20.9657  -12.9529 C   0  0  0  0  0  0  0  0  0  0  0  0
   26.4568  -21.3989  -13.6110 C   0  0  2  0  0  0  0  0  0  0  0  0
   26.1101  -20.2440  -14.5119 N   0  0  0  0  0  0  0  0  0  0  0  0
   25.2513  -21.6817  -12.8667 C   0  0  0  0  0  0  0  0  0  0  0  0
   25.2243  -22.6683  -12.0529 O   0  0  0  0  0  0  0  0  0  0  0  0
   24.0615  -20.8894  -13.0037 N   0  0  0  0  0  0  0  0  0  0  0  0
   22.9018  -21.1894  -12.1939 C   0  0  1  0  0  0  0  0  0  0  0  0
   22.6911  -20.0735  -11.1972 C   0  0  0  0  0  0  0  0  0  0  0  0
   23.8845  -19.7774  -10.4047 C   0  0  0  0  0  0  0  0  0  0  0  0
   24.9393  -18.9942  -10.8057 C   0  0  0  0  0  0  0  0  0  0  0  0
   25.8303  -18.9694   -9.7975 N   0  0  0  0  0  0  0  0  0  0  0  0
   25.4122  -19.6964   -8.7576 C   0  0  0  0  0  0  0  0  0  0  0  0
   25.9599  -19.9763   -7.5147 C   0  0  0  0  0  0  0  0  0  0  0  0
   25.3003  -20.7770   -6.6078 C   0  0  0  0  0  0  0  0  0  0  0  0
   24.0681  -21.3002   -6.9681 C   0  0  0  0  0  0  0  0  0  0  0  0
   23.5388  -21.0131   -8.2040 C   0  0  0  0  0  0  0  0  0  0  0  0
   24.1799  -20.2130   -9.1320 C   0  0  0  0  0  0  0  0  0  0  0  0
   21.7032  -21.3750  -13.0599 C   0  0  0  0  0  0  0  0  0  0  0  0
   21.7156  -21.1364  -14.2895 O   0  0  0  0  0  0  0  0  0  0  0  0
   20.5312  -21.8296  -12.4772 O   0  0  0  0  0  0  0  0  0  0  0  0
  2  1  1  1
  2  3  1  0
  3  4  1  0
  4  5  2  0
  4  8  1  0
  6  2  1  0
  7  6  2  0
 10 12  1  0
 10  9  1  1
 11 10  1  0
 13 12  1  1
 13 15  1  0
 13 14  1  0
 14  6  1  0
 15 16  2  0
 17 18  1  0
 17 15  1  0
 18 19  1  1
 20 19  1  0
 21 20  2  0
 22 21  1  0
 23 22  1  0
 23 28  2  0
 24 23  1  0
 25 24  2  0
 25 26  1  0
 26 27  2  0
 27 28  1  0
 28 20  1  0
 29 18  1  0
 30 29  2  0
 31 29  1  0
M  END
$$$$
