DLW.pdb
     RDKit          3D

 31 32  0  0  1  0  0  0  0  0999 V2000
   29.4997  -23.7058  -17.5890 N   0  0  0  0  0  0  0  0  0  0  0  0
   28.1259  -23.2823  -17.4077 C   0  0  1  0  0  0  0  0  0  0  0  0
   27.2193  -24.5042  -17.3619 C   0  0  0  0  0  0  0  0  0  0  0  0
   26.6518  -24.7908  -18.7043 C   0  0  0  0  0  0  0  0  0  0  0  0
   25.5379  -25.3492  -18.8371 O   0  0  0  0  0  0  0  0  0  0  0  0
   27.9695  -22.4579  -16.1842 C   0  0  0  0  0  0  0  0  0  0  0  0
   28.5823  -22.7570  -15.1071 O   0  0  0  0  0  0  0  0  0  0  0  0
   27.3480  -24.4438  -19.8514 O   0  0  0  0  0  0  0  0  0  0  0  0
   29.2557  -18.2439  -15.0977 C   0  0  0  0  0  0  0  0  0  0  0  0
   28.1749  -18.4090  -16.1225 C   0  0  2  0  0  0  0  0  0  0  0  0
   27.7632  -17.0406  -16.6914 C   0  0  0  0  0  0  0  0  0  0  0  0
   26.9722  -19.0699  -15.5872 C   0  0  0  0  0  0  0  0  0  0  0  0
   27.0636  -20.4108  -14.9898 C   0  0  2  0  0  0  0  0  0  0  0  0
   27.1418  -21.3266  -16.1819 N   0  0  0  0  0  0  0  0  0  0  0  0
   26.0160  -20.9533  -14.1559 C   0  0  0  0  0  0  0  0  0  0  0  0
   24.9065  -21.3112  -14.6825 O   0  0  0  0  0  0  0  0  0  0  0  0
   26.1693  -21.1106  -12.7368 N   0  0  0  0  0  0  0  0  0  0  0  0
   25.0984  -21.6930  -11.9590 C   0  0  1  0  0  0  0  0  0  0  0  0
   25.6647  -22.2456  -10.6717 C   0  0  0  0  0  0  0  0  0  0  0  0
   26.1654  -21.2071   -9.7713 C   0  0  0  0  0  0  0  0  0  0  0  0
   25.4138  -20.2066   -9.2047 C   0  0  0  0  0  0  0  0  0  0  0  0
   26.2387  -19.4627   -8.4450 N   0  0  0  0  0  0  0  0  0  0  0  0
   27.4912  -19.9254   -8.4857 C   0  0  0  0  0  0  0  0  0  0  0  0
   28.6738  -19.5149   -7.8890 C   0  0  0  0  0  0  0  0  0  0  0  0
   29.8553  -20.1899   -8.1069 C   0  0  0  0  0  0  0  0  0  0  0  0
   29.8350  -21.2963   -8.9418 C   0  0  0  0  0  0  0  0  0  0  0  0
   28.6545  -21.6905   -9.5256 C   0  0  0  0  0  0  0  0  0  0  0  0
   27.4558  -21.0310   -9.3236 C   0  0  0  0  0  0  0  0  0  0  0  0
   24.0429  -20.6751  -11.6931 C   0  0  0  0  0  0  0  0  0  0  0  0
   24.2451  -19.4451  -11.8161 O   0  0  0  0  0  0  0  0  0  0  0  0
   22.7897  -21.1117  -11.2943 O   0  0  0  0  0  0  0  0  0  0  0  0
  2  1  1  1
  2  3  1  0
  3  4  1  0
  4  5  2  0
  4  8  1  0
  6  2  1  0
  7  6  2  0
 10 12  1  0
 10  9  1  1
 11 10  1  0
 13 12  1  6
 13 15  1  0
 13 14  1  0
 14  6  1  0
 15 16  2  0
 17 18  1  0
 17 15  1  0
 18 19  1  1
 20 19  1  0
 21 20  2  0
 22 21  1  0
 23 22  1  0
 23 28  2  0
 24 23  1  0
 25 24  2  0
 25 26  1  0
 26 27  2  0
 27 28  1  0
 28 20  1  0
 29 18  1  0
 30 29  2  0
 31 29  1  0
M  END
$$$$
