DLW.pdb
     RDKit          3D

 31 32  0  0  1  0  0  0  0  0999 V2000
   36.8919  -28.6235    4.2140 N   0  0  0  0  0  0  0  0  0  0  0  0
   37.6498  -27.7013    5.0352 C   0  0  1  0  0  0  0  0  0  0  0  0
   38.0820  -26.5087    4.1937 C   0  0  0  0  0  0  0  0  0  0  0  0
   39.0420  -26.9266    3.1401 C   0  0  0  0  0  0  0  0  0  0  0  0
   39.8853  -27.8304    3.3460 O   0  0  0  0  0  0  0  0  0  0  0  0
   36.8703  -27.2624    6.2188 C   0  0  0  0  0  0  0  0  0  0  0  0
   35.6146  -27.0569    6.1397 O   0  0  0  0  0  0  0  0  0  0  0  0
   39.0269  -26.3207    1.8937 O   0  0  0  0  0  0  0  0  0  0  0  0
   38.2972  -27.4510   12.1574 C   0  0  0  0  0  0  0  0  0  0  0  0
   37.2297  -27.0191   11.1984 C   0  0  2  0  0  0  0  0  0  0  0  0
   35.9287  -27.7966   11.4602 C   0  0  0  0  0  0  0  0  0  0  0  0
   37.6111  -27.2138    9.7890 C   0  0  0  0  0  0  0  0  0  0  0  0
   36.7014  -26.8037    8.7085 C   0  0  2  0  0  0  0  0  0  0  0  0
   37.4965  -27.0622    7.4568 N   0  0  0  0  0  0  0  0  0  0  0  0
   36.2182  -25.4478    8.5843 C   0  0  0  0  0  0  0  0  0  0  0  0
   36.9996  -24.5325    8.1507 O   0  0  0  0  0  0  0  0  0  0  0  0
   34.8753  -25.0771    8.9326 N   0  0  0  0  0  0  0  0  0  0  0  0
   34.4185  -23.7261    8.6941 C   0  0  1  0  0  0  0  0  0  0  0  0
   34.5357  -23.4163    7.2198 C   0  0  0  0  0  0  0  0  0  0  0  0
   33.9759  -22.1137    6.8597 C   0  0  0  0  0  0  0  0  0  0  0  0
   34.0977  -20.9583    7.5925 C   0  0  0  0  0  0  0  0  0  0  0  0
   33.4473  -19.9868    6.9261 N   0  0  0  0  0  0  0  0  0  0  0  0
   32.9064  -20.4476    5.7949 C   0  0  0  0  0  0  0  0  0  0  0  0
   32.1576  -19.8528    4.7905 C   0  0  0  0  0  0  0  0  0  0  0  0
   31.7140  -20.5779    3.7060 C   0  0  0  0  0  0  0  0  0  0  0  0
   32.0351  -21.9249    3.6409 C   0  0  0  0  0  0  0  0  0  0  0  0
   32.7782  -22.4996    4.6447 C   0  0  0  0  0  0  0  0  0  0  0  0
   33.2354  -21.7948    5.7432 C   0  0  0  0  0  0  0  0  0  0  0  0
   33.0158  -23.5652    9.1711 C   0  0  0  0  0  0  0  0  0  0  0  0
   32.1665  -24.4824    9.0915 O   0  0  0  0  0  0  0  0  0  0  0  0
   32.6413  -22.3510    9.7239 O   0  0  0  0  0  0  0  0  0  0  0  0
  2  1  1  6
  2  3  1  0
  3  4  1  0
  4  5  2  0
  4  8  1  0
  6  2  1  0
  7  6  2  0
 10 12  1  0
 10  9  1  1
 11 10  1  0
 13 12  1  1
 13 15  1  0
 13 14  1  0
 14  6  1  0
 15 16  2  0
 17 18  1  0
 17 15  1  0
 18 19  1  6
 20 19  1  0
 21 20  2  0
 22 21  1  0
 23 22  1  0
 23 28  2  0
 24 23  1  0
 25 24  2  0
 25 26  1  0
 26 27  2  0
 27 28  1  0
 28 20  1  0
 29 18  1  0
 30 29  2  0
 31 29  1  0
M  END
$$$$
