DLW.pdb
     RDKit          3D

 31 32  0  0  1  0  0  0  0  0999 V2000
   31.5548  -10.9490  -18.5454 N   0  0  0  0  0  0  0  0  0  0  0  0
   30.6106  -10.4186  -17.5829 C   0  0  1  0  0  0  0  0  0  0  0  0
   30.7076   -8.8996  -17.5598 C   0  0  0  0  0  0  0  0  0  0  0  0
   32.0073   -8.4627  -16.9887 C   0  0  0  0  0  0  0  0  0  0  0  0
   32.9003   -9.2893  -16.6893 O   0  0  0  0  0  0  0  0  0  0  0  0
   29.2257  -10.8584  -17.8826 C   0  0  0  0  0  0  0  0  0  0  0  0
   28.9023  -11.2644  -19.0469 O   0  0  0  0  0  0  0  0  0  0  0  0
   32.2644   -7.1181  -16.7718 O   0  0  0  0  0  0  0  0  0  0  0  0
   26.9661  -14.4929  -17.1488 C   0  0  0  0  0  0  0  0  0  0  0  0
   27.3171  -13.6515  -15.9595 C   0  0  2  0  0  0  0  0  0  0  0  0
   26.9082  -14.3649  -14.6597 C   0  0  0  0  0  0  0  0  0  0  0  0
   26.6739  -12.3265  -15.9837 C   0  0  0  0  0  0  0  0  0  0  0  0
   26.8701  -11.4250  -17.1292 C   0  0  2  0  0  0  0  0  0  0  0  0
   28.2357  -10.8386  -16.8905 N   0  0  0  0  0  0  0  0  0  0  0  0
   26.0038  -10.2952  -17.3748 C   0  0  0  0  0  0  0  0  0  0  0  0
   26.0590   -9.2739  -16.6066 O   0  0  0  0  0  0  0  0  0  0  0  0
   25.0671  -10.2691  -18.4629 N   0  0  0  0  0  0  0  0  0  0  0  0
   24.2104   -9.1186  -18.6455 C   0  0  1  0  0  0  0  0  0  0  0  0
   23.7058   -9.0976  -20.0696 C   0  0  0  0  0  0  0  0  0  0  0  0
   22.8393   -7.9542  -20.3558 C   0  0  0  0  0  0  0  0  0  0  0  0
   22.8833   -6.7364  -19.7219 C   0  0  0  0  0  0  0  0  0  0  0  0
   21.9308   -5.9605  -20.2711 N   0  0  0  0  0  0  0  0  0  0  0  0
   21.2661   -6.6085  -21.2318 C   0  0  0  0  0  0  0  0  0  0  0  0
   20.2225   -6.2488  -22.0712 C   0  0  0  0  0  0  0  0  0  0  0  0
   19.7124   -7.1340  -22.9959 C   0  0  0  0  0  0  0  0  0  0  0  0
   20.2700   -8.4011  -23.0689 C   0  0  0  0  0  0  0  0  0  0  0  0
   21.3042   -8.7421  -22.2298 C   0  0  0  0  0  0  0  0  0  0  0  0
   21.8340   -7.8731  -21.2936 C   0  0  0  0  0  0  0  0  0  0  0  0
   23.0826   -9.1568  -17.6722 C   0  0  0  0  0  0  0  0  0  0  0  0
   22.6079   -8.1228  -17.1482 O   0  0  0  0  0  0  0  0  0  0  0  0
   22.5410  -10.3874  -17.3367 O   0  0  0  0  0  0  0  0  0  0  0  0
  2  1  1  6
  2  3  1  0
  3  4  1  0
  4  5  2  0
  4  8  1  0
  6  2  1  0
  7  6  2  0
 10 12  1  0
 10  9  1  6
 11 10  1  0
 13 12  1  1
 13 15  1  0
 13 14  1  0
 14  6  1  0
 15 16  2  0
 17 18  1  0
 17 15  1  0
 18 19  1  6
 20 19  1  0
 21 20  2  0
 22 21  1  0
 23 22  1  0
 23 28  2  0
 24 23  1  0
 25 24  2  0
 25 26  1  0
 26 27  2  0
 27 28  1  0
 28 20  1  0
 29 18  1  0
 30 29  2  0
 31 29  1  0
M  END
$$$$
