DLW.pdb
     RDKit          3D

 31 32  0  0  1  0  0  0  0  0999 V2000
   28.0673  -21.1954  -15.1687 N   0  0  0  0  0  0  0  0  0  0  0  0
   27.2271  -20.2604  -14.4482 C   0  0  1  0  0  0  0  0  0  0  0  0
   26.4569  -19.4004  -15.4404 C   0  0  0  0  0  0  0  0  0  0  0  0
   27.3800  -18.5263  -16.2087 C   0  0  0  0  0  0  0  0  0  0  0  0
   28.6219  -18.5920  -16.0543 O   0  0  0  0  0  0  0  0  0  0  0  0
   26.3031  -20.9625  -13.5239 C   0  0  0  0  0  0  0  0  0  0  0  0
   25.9306  -22.1604  -13.7509 O   0  0  0  0  0  0  0  0  0  0  0  0
   26.8843  -17.6096  -17.1223 O   0  0  0  0  0  0  0  0  0  0  0  0
   26.7530  -21.9692   -9.0314 C   0  0  0  0  0  0  0  0  0  0  0  0
   26.5030  -20.5459   -9.4281 C   0  0  2  0  0  0  0  0  0  0  0  0
   26.5303  -19.6328   -8.1907 C   0  0  0  0  0  0  0  0  0  0  0  0
   25.2129  -20.3592  -10.1141 C   0  0  0  0  0  0  0  0  0  0  0  0
   24.9400  -21.0464  -11.3855 C   0  0  2  0  0  0  0  0  0  0  0  0
   25.8153  -20.3248  -12.3749 N   0  0  0  0  0  0  0  0  0  0  0  0
   23.6235  -21.0675  -11.9803 C   0  0  0  0  0  0  0  0  0  0  0  0
   22.7245  -21.8435  -11.5050 O   0  0  0  0  0  0  0  0  0  0  0  0
   23.2749  -20.2407  -13.1014 N   0  0  0  0  0  0  0  0  0  0  0  0
   21.9327  -20.2861  -13.6373 C   0  0  1  0  0  0  0  0  0  0  0  0
   21.8211  -21.4482  -14.5966 C   0  0  0  0  0  0  0  0  0  0  0  0
   20.5267  -21.5115  -15.2750 C   0  0  0  0  0  0  0  0  0  0  0  0
   19.9254  -20.4791  -15.9528 C   0  0  0  0  0  0  0  0  0  0  0  0
   18.7539  -20.9378  -16.4307 N   0  0  0  0  0  0  0  0  0  0  0  0
   18.5583  -22.2172  -16.1001 C   0  0  0  0  0  0  0  0  0  0  0  0
   17.5311  -23.1149  -16.3496 C   0  0  0  0  0  0  0  0  0  0  0  0
   17.5838  -24.4089  -15.8790 C   0  0  0  0  0  0  0  0  0  0  0  0
   18.6945  -24.7961  -15.1454 C   0  0  0  0  0  0  0  0  0  0  0  0
   19.7043  -23.8943  -14.9068 C   0  0  0  0  0  0  0  0  0  0  0  0
   19.6760  -22.5907  -15.3674 C   0  0  0  0  0  0  0  0  0  0  0  0
   20.9404  -20.4001  -12.5313 C   0  0  0  0  0  0  0  0  0  0  0  0
   21.0493  -21.2427  -11.6109 O   0  0  0  0  0  0  0  0  0  0  0  0
   19.8560  -19.5374  -12.5253 O   0  0  0  0  0  0  0  0  0  0  0  0
  2  1  1  6
  2  3  1  0
  3  4  1  0
  4  5  2  0
  4  8  1  0
  6  2  1  0
  7  6  2  0
 10 12  1  0
 10  9  1  1
 11 10  1  0
 13 12  1  1
 13 15  1  0
 13 14  1  0
 14  6  1  0
 15 16  2  0
 17 18  1  0
 17 15  1  0
 18 19  1  6
 20 19  1  0
 21 20  2  0
 22 21  1  0
 23 22  1  0
 23 28  2  0
 24 23  1  0
 25 24  2  0
 25 26  1  0
 26 27  2  0
 27 28  1  0
 28 20  1  0
 29 18  1  0
 30 29  2  0
 31 29  1  0
M  END
$$$$
