DLW.pdb
     RDKit          3D

 31 32  0  0  1  0  0  0  0  0999 V2000
   27.9747  -21.8090  -14.9150 N   0  0  0  0  0  0  0  0  0  0  0  0
   27.3751  -20.6948  -14.2092 C   0  0  1  0  0  0  0  0  0  0  0  0
   26.6780  -19.7783  -15.2048 C   0  0  0  0  0  0  0  0  0  0  0  0
   27.6653  -19.1274  -16.1036 C   0  0  0  0  0  0  0  0  0  0  0  0
   27.8294  -19.5152  -17.2839 O   0  0  0  0  0  0  0  0  0  0  0  0
   26.4311  -21.1600  -13.1635 C   0  0  0  0  0  0  0  0  0  0  0  0
   25.6688  -22.1618  -13.3646 O   0  0  0  0  0  0  0  0  0  0  0  0
   28.4349  -18.0664  -15.6531 O   0  0  0  0  0  0  0  0  0  0  0  0
   27.0478  -22.1008   -8.8481 C   0  0  0  0  0  0  0  0  0  0  0  0
   26.9947  -20.6328   -9.1445 C   0  0  2  0  0  0  0  0  0  0  0  0
   27.2677  -19.8189   -7.8683 C   0  0  0  0  0  0  0  0  0  0  0  0
   25.6986  -20.2056   -9.6990 C   0  0  0  0  0  0  0  0  0  0  0  0
   25.2152  -20.7598  -10.9727 C   0  0  2  0  0  0  0  0  0  0  0  0
   26.3534  -20.5080  -11.9250 N   0  0  0  0  0  0  0  0  0  0  0  0
   24.0383  -20.2478  -11.6360 C   0  0  0  0  0  0  0  0  0  0  0  0
   24.0344  -19.0512  -12.0883 O   0  0  0  0  0  0  0  0  0  0  0  0
   22.8522  -21.0378  -11.8121 N   0  0  0  0  0  0  0  0  0  0  0  0
   21.7711  -20.5373  -12.6316 C   0  0  1  0  0  0  0  0  0  0  0  0
   22.2765  -20.3176  -14.0386 C   0  0  0  0  0  0  0  0  0  0  0  0
   21.2350  -19.8615  -14.9590 C   0  0  0  0  0  0  0  0  0  0  0  0
   20.4187  -18.7730  -14.7703 C   0  0  0  0  0  0  0  0  0  0  0  0
   19.6020  -18.6909  -15.8367 N   0  0  0  0  0  0  0  0  0  0  0  0
   19.8423  -19.6699  -16.7132 C   0  0  0  0  0  0  0  0  0  0  0  0
   19.2814  -20.0073  -17.9358 C   0  0  0  0  0  0  0  0  0  0  0  0
   19.7298  -21.0964  -18.6508 C   0  0  0  0  0  0  0  0  0  0  0  0
   20.7616  -21.8528  -18.1170 C   0  0  0  0  0  0  0  0  0  0  0  0
   21.3071  -21.5052  -16.9039 C   0  0  0  0  0  0  0  0  0  0  0  0
   20.8756  -20.4177  -16.1666 C   0  0  0  0  0  0  0  0  0  0  0  0
   20.6255  -21.4903  -12.6107 C   0  0  0  0  0  0  0  0  0  0  0  0
   20.7803  -22.7327  -12.6482 O   0  0  0  0  0  0  0  0  0  0  0  0
   19.3401  -20.9767  -12.5472 O   0  0  0  0  0  0  0  0  0  0  0  0
  2  1  1  6
  2  3  1  0
  3  4  1  0
  4  5  2  0
  4  8  1  0
  6  2  1  0
  7  6  2  0
 10 12  1  0
 10  9  1  1
 11 10  1  0
 13 12  1  1
 13 15  1  0
 13 14  1  0
 14  6  1  0
 15 16  2  0
 17 18  1  0
 17 15  1  0
 18 19  1  6
 20 19  1  0
 21 20  2  0
 22 21  1  0
 23 22  1  0
 23 28  2  0
 24 23  1  0
 25 24  2  0
 25 26  1  0
 26 27  2  0
 27 28  1  0
 28 20  1  0
 29 18  1  0
 30 29  2  0
 31 29  1  0
M  END
$$$$
