DLW.pdb
     RDKit          3D

 31 32  0  0  1  0  0  0  0  0999 V2000
   27.5903  -22.5607  -16.2551 N   0  0  0  0  0  0  0  0  0  0  0  0
   27.1487  -21.3222  -15.6467 C   0  0  1  0  0  0  0  0  0  0  0  0
   26.6183  -20.3873  -16.7246 C   0  0  0  0  0  0  0  0  0  0  0  0
   27.7066  -19.9748  -17.6474 C   0  0  0  0  0  0  0  0  0  0  0  0
   27.8361  -20.4966  -18.7794 O   0  0  0  0  0  0  0  0  0  0  0  0
   26.1231  -21.5662  -14.6027 C   0  0  0  0  0  0  0  0  0  0  0  0
   25.2273  -22.4599  -14.7573 O   0  0  0  0  0  0  0  0  0  0  0  0
   28.6123  -18.9943  -17.2740 O   0  0  0  0  0  0  0  0  0  0  0  0
   24.3685  -21.7241   -9.5168 C   0  0  0  0  0  0  0  0  0  0  0  0
   25.6709  -21.1534   -9.9897 C   0  0  2  0  0  0  0  0  0  0  0  0
   26.3068  -20.2872   -8.8892 C   0  0  0  0  0  0  0  0  0  0  0  0
   25.5304  -20.3315  -11.2040 C   0  0  0  0  0  0  0  0  0  0  0  0
   24.9759  -20.9129  -12.4360 C   0  0  2  0  0  0  0  0  0  0  0  0
   26.1134  -20.8182  -13.4172 N   0  0  0  0  0  0  0  0  0  0  0  0
   23.8360  -20.3373  -13.1117 C   0  0  0  0  0  0  0  0  0  0  0  0
   23.9172  -19.1587  -13.6023 O   0  0  0  0  0  0  0  0  0  0  0  0
   22.5944  -21.0435  -13.2586 N   0  0  0  0  0  0  0  0  0  0  0  0
   21.4790  -20.4048  -13.9210 C   0  0  1  0  0  0  0  0  0  0  0  0
   21.5794  -20.6500  -15.4086 C   0  0  0  0  0  0  0  0  0  0  0  0
   20.4999  -20.0208  -16.1693 C   0  0  0  0  0  0  0  0  0  0  0  0
   20.3614  -18.6739  -16.4006 C   0  0  0  0  0  0  0  0  0  0  0  0
   19.2475  -18.5028  -17.1360 N   0  0  0  0  0  0  0  0  0  0  0  0
   18.6503  -19.6688  -17.3974 C   0  0  0  0  0  0  0  0  0  0  0  0
   17.5040  -20.0111  -18.0989 C   0  0  0  0  0  0  0  0  0  0  0  0
   17.1046  -21.3246  -18.2168 C   0  0  0  0  0  0  0  0  0  0  0  0
   17.8798  -22.3033  -17.6143 C   0  0  0  0  0  0  0  0  0  0  0  0
   19.0133  -21.9476  -16.9225 C   0  0  0  0  0  0  0  0  0  0  0  0
   19.4359  -20.6376  -16.7892 C   0  0  0  0  0  0  0  0  0  0  0  0
   20.1919  -20.9191  -13.3734 C   0  0  0  0  0  0  0  0  0  0  0  0
   20.0709  -22.0752  -12.9068 O   0  0  0  0  0  0  0  0  0  0  0  0
   19.0882  -20.0813  -13.3831 O   0  0  0  0  0  0  0  0  0  0  0  0
  2  1  1  6
  2  3  1  0
  3  4  1  0
  4  5  2  0
  4  8  1  0
  6  2  1  0
  7  6  2  0
 10 12  1  0
 10  9  1  1
 11 10  1  0
 13 12  1  1
 13 15  1  0
 13 14  1  0
 14  6  1  0
 15 16  2  0
 17 18  1  0
 17 15  1  0
 18 19  1  6
 20 19  1  0
 21 20  2  0
 22 21  1  0
 23 22  1  0
 23 28  2  0
 24 23  1  0
 25 24  2  0
 25 26  1  0
 26 27  2  0
 27 28  1  0
 28 20  1  0
 29 18  1  0
 30 29  2  0
 31 29  1  0
M  END
$$$$
