DLW.pdb
     RDKit          3D

 31 32  0  0  1  0  0  0  0  0999 V2000
   28.0167  -20.8741  -17.4161 N   0  0  0  0  0  0  0  0  0  0  0  0
   27.7166  -21.6060  -16.2022 C   0  0  1  0  0  0  0  0  0  0  0  0
   28.9800  -22.2857  -15.6933 C   0  0  0  0  0  0  0  0  0  0  0  0
   29.4937  -23.2591  -16.6907 C   0  0  0  0  0  0  0  0  0  0  0  0
   28.7165  -23.9614  -17.3786 O   0  0  0  0  0  0  0  0  0  0  0  0
   27.1347  -20.7197  -15.1644 C   0  0  0  0  0  0  0  0  0  0  0  0
   27.5945  -19.5471  -14.9681 O   0  0  0  0  0  0  0  0  0  0  0  0
   30.8572  -23.4145  -16.8851 O   0  0  0  0  0  0  0  0  0  0  0  0
   22.1900  -21.4132  -14.8873 C   0  0  0  0  0  0  0  0  0  0  0  0
   22.9557  -20.9858  -13.6721 C   0  0  2  0  0  0  0  0  0  0  0  0
   22.0136  -20.3269  -12.6503 C   0  0  0  0  0  0  0  0  0  0  0  0
   24.0407  -20.0386  -13.9810 C   0  0  0  0  0  0  0  0  0  0  0  0
   25.3791  -20.2254  -13.4005 C   0  0  2  0  0  0  0  0  0  0  0  0
   26.0620  -21.1508  -14.3716 N   0  0  0  0  0  0  0  0  0  0  0  0
   25.5758  -20.8206  -12.0988 C   0  0  0  0  0  0  0  0  0  0  0  0
   25.5770  -22.0939  -11.9765 O   0  0  0  0  0  0  0  0  0  0  0  0
   25.7730  -20.0306  -10.9160 N   0  0  0  0  0  0  0  0  0  0  0  0
   25.9293  -20.6825   -9.6348 C   0  0  1  0  0  0  0  0  0  0  0  0
   26.7982  -19.8245   -8.7449 C   0  0  0  0  0  0  0  0  0  0  0  0
   26.8988  -20.3326   -7.3768 C   0  0  0  0  0  0  0  0  0  0  0  0
   26.2918  -21.4673   -6.8963 C   0  0  0  0  0  0  0  0  0  0  0  0
   26.6304  -21.5883   -5.5995 N   0  0  0  0  0  0  0  0  0  0  0  0
   27.4277  -20.5909   -5.2073 C   0  0  0  0  0  0  0  0  0  0  0  0
   28.0295  -20.2773   -3.9978 C   0  0  0  0  0  0  0  0  0  0  0  0
   28.8235  -19.1591   -3.8642 C   0  0  0  0  0  0  0  0  0  0  0  0
   29.0087  -18.3489   -4.9737 C   0  0  0  0  0  0  0  0  0  0  0  0
   28.4053  -18.6735   -6.1655 C   0  0  0  0  0  0  0  0  0  0  0  0
   27.6041  -19.7892   -6.3261 C   0  0  0  0  0  0  0  0  0  0  0  0
   24.5960  -20.9274   -9.0158 C   0  0  0  0  0  0  0  0  0  0  0  0
   23.5980  -20.2097   -9.2566 O   0  0  0  0  0  0  0  0  0  0  0  0
   24.4600  -21.9924   -8.1398 O   0  0  0  0  0  0  0  0  0  0  0  0
  2  1  1  6
  2  3  1  0
  3  4  1  0
  4  5  2  0
  4  8  1  0
  6  2  1  0
  7  6  2  0
 10 12  1  0
 10  9  1  6
 11 10  1  0
 13 12  1  6
 13 15  1  0
 13 14  1  0
 14  6  1  0
 15 16  2  0
 17 18  1  0
 17 15  1  0
 18 19  1  1
 20 19  1  0
 21 20  2  0
 22 21  1  0
 23 22  1  0
 23 28  2  0
 24 23  1  0
 25 24  2  0
 25 26  1  0
 26 27  2  0
 27 28  1  0
 28 20  1  0
 29 18  1  0
 30 29  2  0
 31 29  1  0
M  END
$$$$
