DLW.pdb
     RDKit          3D

 31 32  0  0  1  0  0  0  0  0999 V2000
   26.0191  -25.2425  -16.2746 N   0  0  0  0  0  0  0  0  0  0  0  0
   25.2724  -24.0457  -15.9439 C   0  0  1  0  0  0  0  0  0  0  0  0
   23.8273  -24.4159  -15.6404 C   0  0  0  0  0  0  0  0  0  0  0  0
   23.1207  -24.8398  -16.8763 C   0  0  0  0  0  0  0  0  0  0  0  0
   22.8911  -24.0327  -17.8070 O   0  0  0  0  0  0  0  0  0  0  0  0
   25.8862  -23.3211  -14.8040 C   0  0  0  0  0  0  0  0  0  0  0  0
   26.3459  -23.9509  -13.7955 O   0  0  0  0  0  0  0  0  0  0  0  0
   22.6951  -26.1499  -17.0296 O   0  0  0  0  0  0  0  0  0  0  0  0
   27.1496  -18.2705  -12.7973 C   0  0  0  0  0  0  0  0  0  0  0  0
   28.0110  -18.9336  -13.8288 C   0  0  2  0  0  0  0  0  0  0  0  0
   28.4845  -17.9066  -14.8712 C   0  0  0  0  0  0  0  0  0  0  0  0
   27.3221  -20.0276  -14.5349 C   0  0  0  0  0  0  0  0  0  0  0  0
   26.8031  -21.1841  -13.7890 C   0  0  2  0  0  0  0  0  0  0  0  0
   25.9763  -21.9222  -14.8075 N   0  0  0  0  0  0  0  0  0  0  0  0
   25.9470  -21.0327  -12.6351 C   0  0  0  0  0  0  0  0  0  0  0  0
   24.7215  -20.7016  -12.7929 O   0  0  0  0  0  0  0  0  0  0  0  0
   26.4208  -21.2415  -11.2958 N   0  0  0  0  0  0  0  0  0  0  0  0
   25.4788  -21.2867  -10.1997 C   0  0  1  0  0  0  0  0  0  0  0  0
   26.2236  -21.5789   -8.9179 C   0  0  0  0  0  0  0  0  0  0  0  0
   26.7553  -20.3773   -8.2750 C   0  0  0  0  0  0  0  0  0  0  0  0
   26.5647  -19.0868   -8.7051 C   0  0  0  0  0  0  0  0  0  0  0  0
   27.2107  -18.2756   -7.8474 N   0  0  0  0  0  0  0  0  0  0  0  0
   27.8141  -18.9695   -6.8785 C   0  0  0  0  0  0  0  0  0  0  0  0
   28.5851  -18.6002   -5.7865 C   0  0  0  0  0  0  0  0  0  0  0  0
   29.0980  -19.5435   -4.9228 C   0  0  0  0  0  0  0  0  0  0  0  0
   28.8241  -20.8795   -5.1717 C   0  0  0  0  0  0  0  0  0  0  0  0
   28.0582  -21.2292   -6.2585 C   0  0  0  0  0  0  0  0  0  0  0  0
   27.5319  -20.3028   -7.1401 C   0  0  0  0  0  0  0  0  0  0  0  0
   24.7312  -20.0006  -10.1101 C   0  0  0  0  0  0  0  0  0  0  0  0
   25.1815  -18.9249  -10.5674 O   0  0  0  0  0  0  0  0  0  0  0  0
   23.4892  -19.9999   -9.4957 O   0  0  0  0  0  0  0  0  0  0  0  0
  2  1  1  1
  2  3  1  0
  3  4  1  0
  4  5  2  0
  4  8  1  0
  6  2  1  0
  7  6  2  0
 10 12  1  0
 10  9  1  1
 11 10  1  0
 13 12  1  6
 13 15  1  0
 13 14  1  0
 14  6  1  0
 15 16  2  0
 17 18  1  0
 17 15  1  0
 18 19  1  1
 20 19  1  0
 21 20  2  0
 22 21  1  0
 23 22  1  0
 23 28  2  0
 24 23  1  0
 25 24  2  0
 25 26  1  0
 26 27  2  0
 27 28  1  0
 28 20  1  0
 29 18  1  0
 30 29  2  0
 31 29  1  0
M  END
$$$$
