MMF.pdb
     RDKit          3D

 28 28  0  0  1  0  0  0  0  0999 V2000
   29.3645  -18.8173  -15.0140 C   0  0  0  0  0  0  0  0  0  0  0  0
   28.5350  -17.4505  -15.8812 S   0  0  0  0  0  0  0  0  0  0  0  0
   26.7422  -17.7387  -15.9391 C   0  0  0  0  0  0  0  0  0  0  0  0
   26.4751  -19.1047  -16.5729 C   0  0  0  0  0  0  0  0  0  0  0  0
   24.9759  -19.2453  -16.6990 C   0  0  2  0  0  0  0  0  0  0  0  0
   24.5127  -18.0501  -17.4083 N   0  0  0  0  0  0  0  0  0  0  0  0
   24.3081  -19.2520  -15.3770 C   0  0  0  0  0  0  0  0  0  0  0  0
   23.8570  -18.2294  -14.8025 O   0  0  0  0  0  0  0  0  0  0  0  0
   20.0386  -23.7891  -13.9178 C   0  0  0  0  0  0  0  0  0  0  0  0
   19.9749  -22.2290  -14.7712 S   0  0  0  0  0  0  0  0  0  0  0  0
   21.3234  -21.1233  -14.4212 C   0  0  0  0  0  0  0  0  0  0  0  0
   22.4423  -21.7482  -13.6163 C   0  0  0  0  0  0  0  0  0  0  0  0
   23.4962  -20.6759  -13.4510 C   0  0  2  0  0  0  0  0  0  0  0  0
   24.1675  -20.4969  -14.7130 N   0  0  0  0  0  0  0  0  0  0  0  0
   24.4770  -20.9801  -12.4107 C   0  0  0  0  0  0  0  0  0  0  0  0
   25.6106  -21.3925  -12.7576 O   0  0  0  0  0  0  0  0  0  0  0  0
   24.2345  -20.8406  -11.0225 N   0  0  0  0  0  0  0  0  0  0  0  0
   25.3236  -20.9865  -10.0961 C   0  0  1  0  0  0  0  0  0  0  0  0
   26.4282  -20.0112  -10.3535 C   0  0  0  0  0  0  0  0  0  0  0  0
   27.3968  -20.0203   -9.2352 C   0  0  0  0  0  0  0  0  0  0  0  0
   27.2101  -19.2088   -8.1084 C   0  0  0  0  0  0  0  0  0  0  0  0
   28.0833  -19.2160   -7.0524 C   0  0  0  0  0  0  0  0  0  0  0  0
   29.1854  -20.0457   -7.0900 C   0  0  0  0  0  0  0  0  0  0  0  0
   29.3648  -20.8419   -8.1998 C   0  0  0  0  0  0  0  0  0  0  0  0
   28.4989  -20.8422   -9.2593 C   0  0  0  0  0  0  0  0  0  0  0  0
   24.7800  -20.9153   -8.7227 C   0  0  0  0  0  0  0  0  0  0  0  0
   23.8077  -20.2092   -8.3887 O   0  0  0  0  0  0  0  0  0  0  0  0
   25.3840  -21.6803   -7.7346 O   0  0  0  0  0  0  0  0  0  0  0  0
  1  2  1  0
  3  2  1  0
  4  3  1  0
  5  6  1  6
  5  4  1  0
  7  5  1  0
  8  7  2  0
 10  9  1  0
 10 11  1  0
 11 12  1  0
 13 12  1  6
 13 14  1  0
 14  7  1  0
 15 13  1  0
 15 16  2  0
 17 15  1  0
 18 19  1  1
 18 17  1  0
 20 21  2  0
 20 19  1  0
 22 21  1  0
 23 22  2  0
 24 23  1  0
 24 25  2  0
 25 20  1  0
 26 18  1  0
 27 26  2  0
 28 26  1  0
M  END
$$$$
