MMF.pdb
     RDKit          3D

 28 28  0  0  1  0  0  0  0  0999 V2000
   27.5936  -23.5488  -22.5345 C   0  0  0  0  0  0  0  0  0  0  0  0
   28.5426  -22.1027  -21.9718 S   0  0  0  0  0  0  0  0  0  0  0  0
   27.9363  -21.5440  -20.3530 C   0  0  0  0  0  0  0  0  0  0  0  0
   26.6505  -22.2988  -20.0124 C   0  0  0  0  0  0  0  0  0  0  0  0
   26.0210  -21.5871  -18.8375 C   0  0  2  0  0  0  0  0  0  0  0  0
   27.0102  -21.6290  -17.7578 N   0  0  0  0  0  0  0  0  0  0  0  0
   24.8131  -22.2903  -18.3477 C   0  0  0  0  0  0  0  0  0  0  0  0
   24.0246  -22.9427  -19.0771 O   0  0  0  0  0  0  0  0  0  0  0  0
   27.6094  -26.4823  -17.1045 C   0  0  0  0  0  0  0  0  0  0  0  0
   25.8868  -26.8764  -17.3125 S   0  0  0  0  0  0  0  0  0  0  0  0
   24.7712  -25.5049  -17.1173 C   0  0  0  0  0  0  0  0  0  0  0  0
   25.3203  -24.3771  -16.2706 C   0  0  0  0  0  0  0  0  0  0  0  0
   24.2054  -23.3633  -16.1396 C   0  0  2  0  0  0  0  0  0  0  0  0
   24.5254  -22.2238  -16.9609 N   0  0  0  0  0  0  0  0  0  0  0  0
   23.9737  -22.9285  -14.7634 C   0  0  0  0  0  0  0  0  0  0  0  0
   23.5717  -23.7739  -13.9272 O   0  0  0  0  0  0  0  0  0  0  0  0
   24.1732  -21.6045  -14.3024 N   0  0  0  0  0  0  0  0  0  0  0  0
   23.9628  -21.2999  -12.9136 C   0  0  1  0  0  0  0  0  0  0  0  0
   25.2212  -20.8781  -12.2235 C   0  0  0  0  0  0  0  0  0  0  0  0
   26.0785  -20.0981  -13.1432 C   0  0  0  0  0  0  0  0  0  0  0  0
   25.8616  -18.7295  -13.3502 C   0  0  0  0  0  0  0  0  0  0  0  0
   26.6553  -17.9834  -14.1815 C   0  0  0  0  0  0  0  0  0  0  0  0
   27.7049  -18.5901  -14.8409 C   0  0  0  0  0  0  0  0  0  0  0  0
   27.9144  -19.9359  -14.6342 C   0  0  0  0  0  0  0  0  0  0  0  0
   27.1278  -20.6897  -13.8064 C   0  0  0  0  0  0  0  0  0  0  0  0
   22.8723  -20.3061  -12.8144 C   0  0  0  0  0  0  0  0  0  0  0  0
   22.3902  -19.8983  -11.7388 O   0  0  0  0  0  0  0  0  0  0  0  0
   22.3446  -19.7876  -13.9888 O   0  0  0  0  0  0  0  0  0  0  0  0
  1  2  1  0
  3  2  1  0
  4  3  1  0
  5  6  1  1
  5  4  1  0
  7  5  1  0
  8  7  2  0
 10  9  1  0
 10 11  1  0
 11 12  1  0
 13 12  1  1
 13 14  1  0
 14  7  1  0
 15 13  1  0
 15 16  2  0
 17 15  1  0
 18 19  1  6
 18 17  1  0
 20 21  2  0
 20 19  1  0
 22 21  1  0
 23 22  2  0
 24 23  1  0
 24 25  2  0
 25 20  1  0
 26 18  1  0
 27 26  2  0
 28 26  1  0
M  END
$$$$
