MMF.pdb
     RDKit          3D

 28 28  0  0  1  0  0  0  0  0999 V2000
   24.7157  -19.0095  -17.7141 C   0  0  0  0  0  0  0  0  0  0  0  0
   25.3945  -17.3405  -17.4651 S   0  0  0  0  0  0  0  0  0  0  0  0
   27.1385  -17.4390  -16.9660 C   0  0  0  0  0  0  0  0  0  0  0  0
   27.3695  -18.7482  -16.2099 C   0  0  0  0  0  0  0  0  0  0  0  0
   27.0101  -18.4907  -14.7650 C   0  0  2  0  0  0  0  0  0  0  0  0
   27.9038  -17.4243  -14.3065 N   0  0  0  0  0  0  0  0  0  0  0  0
   27.2704  -19.6727  -13.9115 C   0  0  0  0  0  0  0  0  0  0  0  0
   27.8578  -20.7143  -14.2983 O   0  0  0  0  0  0  0  0  0  0  0  0
   26.8184  -19.4424   -7.0504 C   0  0  0  0  0  0  0  0  0  0  0  0
   27.6784  -20.8871   -7.6332 S   0  0  0  0  0  0  0  0  0  0  0  0
   27.3480  -21.3296   -9.3239 C   0  0  0  0  0  0  0  0  0  0  0  0
   27.2008  -20.1459  -10.2553 C   0  0  0  0  0  0  0  0  0  0  0  0
   26.9448  -20.7183  -11.6318 C   0  0  2  0  0  0  0  0  0  0  0  0
   26.8271  -19.6275  -12.5654 N   0  0  0  0  0  0  0  0  0  0  0  0
   25.7487  -21.5557  -11.7000 C   0  0  0  0  0  0  0  0  0  0  0  0
   25.5955  -22.4538  -10.8366 O   0  0  0  0  0  0  0  0  0  0  0  0
   24.7388  -21.4230  -12.6838 N   0  0  0  0  0  0  0  0  0  0  0  0
   23.3762  -21.2170  -12.2755 C   0  0  1  0  0  0  0  0  0  0  0  0
   23.2332  -20.0822  -11.3115 C   0  0  0  0  0  0  0  0  0  0  0  0
   21.8059  -19.8409  -11.0053 C   0  0  0  0  0  0  0  0  0  0  0  0
   21.0289  -18.9870  -11.7990 C   0  0  0  0  0  0  0  0  0  0  0  0
   19.7007  -18.7648  -11.5460 C   0  0  0  0  0  0  0  0  0  0  0  0
   19.0992  -19.3977  -10.4773 C   0  0  0  0  0  0  0  0  0  0  0  0
   19.8671  -20.2365   -9.6997 C   0  0  0  0  0  0  0  0  0  0  0  0
   21.1939  -20.4651   -9.9438 C   0  0  0  0  0  0  0  0  0  0  0  0
   22.5431  -21.0711  -13.4885 C   0  0  0  0  0  0  0  0  0  0  0  0
   21.3788  -21.5051  -13.5965 O   0  0  0  0  0  0  0  0  0  0  0  0
   23.0830  -20.4099  -14.5829 O   0  0  0  0  0  0  0  0  0  0  0  0
  1  2  1  0
  3  2  1  0
  4  3  1  0
  5  6  1  1
  5  4  1  0
  7  5  1  0
  8  7  2  0
 10  9  1  0
 10 11  1  0
 11 12  1  0
 13 12  1  1
 13 14  1  0
 14  7  1  0
 15 13  1  0
 15 16  2  0
 17 15  1  0
 18 19  1  1
 18 17  1  0
 20 21  2  0
 20 19  1  0
 22 21  1  0
 23 22  2  0
 24 23  1  0
 24 25  2  0
 25 20  1  0
 26 18  1  0
 27 26  2  0
 28 26  1  0
M  END
$$$$
