MMF.pdb
     RDKit          3D

 28 28  0  0  1  0  0  0  0  0999 V2000
   25.6672  -15.5122  -16.1747 C   0  0  0  0  0  0  0  0  0  0  0  0
   27.3285  -15.5543  -16.9140 S   0  0  0  0  0  0  0  0  0  0  0  0
   28.0824  -17.1896  -16.6738 C   0  0  0  0  0  0  0  0  0  0  0  0
   27.0677  -18.1143  -15.9997 C   0  0  0  0  0  0  0  0  0  0  0  0
   27.8282  -19.3315  -15.5273 C   0  0  2  0  0  0  0  0  0  0  0  0
   28.1886  -20.0805  -16.7336 N   0  0  0  0  0  0  0  0  0  0  0  0
   26.9848  -20.2230  -14.6981 C   0  0  0  0  0  0  0  0  0  0  0  0
   26.2604  -21.1435  -15.1535 O   0  0  0  0  0  0  0  0  0  0  0  0
   27.9814  -21.2615   -8.0475 C   0  0  0  0  0  0  0  0  0  0  0  0
   28.9631  -21.4546   -9.5189 S   0  0  0  0  0  0  0  0  0  0  0  0
   28.0462  -21.4441  -11.0431 C   0  0  0  0  0  0  0  0  0  0  0  0
   26.7656  -20.6396  -10.9885 C   0  0  0  0  0  0  0  0  0  0  0  0
   26.1479  -20.7313  -12.3663 C   0  0  2  0  0  0  0  0  0  0  0  0
   26.9943  -20.0254  -13.2941 N   0  0  0  0  0  0  0  0  0  0  0  0
   24.7903  -20.1937  -12.4317 C   0  0  0  0  0  0  0  0  0  0  0  0
   24.6410  -18.9500  -12.5108 O   0  0  0  0  0  0  0  0  0  0  0  0
   23.6177  -20.9876  -12.4115 N   0  0  0  0  0  0  0  0  0  0  0  0
   22.3360  -20.3607  -12.5845 C   0  0  1  0  0  0  0  0  0  0  0  0
   22.3318  -19.3660  -13.7018 C   0  0  0  0  0  0  0  0  0  0  0  0
   21.0034  -18.7250  -13.8180 C   0  0  0  0  0  0  0  0  0  0  0  0
   20.0817  -19.1390  -14.7885 C   0  0  0  0  0  0  0  0  0  0  0  0
   18.8386  -18.5734  -14.9012 C   0  0  0  0  0  0  0  0  0  0  0  0
   18.4730  -17.5627  -14.0356 C   0  0  0  0  0  0  0  0  0  0  0  0
   19.3825  -17.1590  -13.0830 C   0  0  0  0  0  0  0  0  0  0  0  0
   20.6259  -17.7171  -12.9621 C   0  0  0  0  0  0  0  0  0  0  0  0
   21.3150  -21.4202  -12.7321 C   0  0  0  0  0  0  0  0  0  0  0  0
   21.5031  -22.4970  -13.3328 O   0  0  0  0  0  0  0  0  0  0  0  0
   20.0635  -21.2122  -12.1691 O   0  0  0  0  0  0  0  0  0  0  0  0
  1  2  1  0
  3  2  1  0
  4  3  1  0
  5  6  1  6
  5  4  1  0
  7  5  1  0
  8  7  2  0
 10  9  1  0
 10 11  1  0
 11 12  1  0
 13 12  1  1
 13 14  1  0
 14  7  1  0
 15 13  1  0
 15 16  2  0
 17 15  1  0
 18 19  1  6
 18 17  1  0
 20 21  2  0
 20 19  1  0
 22 21  1  0
 23 22  2  0
 24 23  1  0
 24 25  2  0
 25 20  1  0
 26 18  1  0
 27 26  2  0
 28 26  1  0
M  END
$$$$
