MMF.pdb
     RDKit          3D

 28 28  0  0  1  0  0  0  0  0999 V2000
   29.5456  -23.3250  -17.1523 C   0  0  0  0  0  0  0  0  0  0  0  0
   29.9213  -22.6598  -18.8029 S   0  0  0  0  0  0  0  0  0  0  0  0
   28.8902  -21.2034  -19.1435 C   0  0  0  0  0  0  0  0  0  0  0  0
   28.6295  -20.4574  -17.8341 C   0  0  0  0  0  0  0  0  0  0  0  0
   27.7666  -19.2640  -18.1722 C   0  0  2  0  0  0  0  0  0  0  0  0
   28.6889  -18.1730  -18.4967 N   0  0  0  0  0  0  0  0  0  0  0  0
   26.9587  -18.8198  -17.0132 C   0  0  0  0  0  0  0  0  0  0  0  0
   27.4267  -18.2463  -15.9975 O   0  0  0  0  0  0  0  0  0  0  0  0
   21.2314  -15.5760  -16.7161 C   0  0  0  0  0  0  0  0  0  0  0  0
   22.8082  -15.5175  -17.5387 S   0  0  0  0  0  0  0  0  0  0  0  0
   24.0335  -16.6371  -16.8992 C   0  0  0  0  0  0  0  0  0  0  0  0
   23.4862  -17.9907  -16.5012 C   0  0  0  0  0  0  0  0  0  0  0  0
   24.6585  -18.7806  -15.9627 C   0  0  2  0  0  0  0  0  0  0  0  0
   25.5613  -19.0571  -17.0507 N   0  0  0  0  0  0  0  0  0  0  0  0
   24.2684  -20.0324  -15.3166 C   0  0  0  0  0  0  0  0  0  0  0  0
   23.9635  -21.0112  -16.0408 O   0  0  0  0  0  0  0  0  0  0  0  0
   24.2095  -20.2200  -13.9142 N   0  0  0  0  0  0  0  0  0  0  0  0
   23.9131  -21.5238  -13.3868 C   0  0  1  0  0  0  0  0  0  0  0  0
   25.0426  -22.0861  -12.5833 C   0  0  0  0  0  0  0  0  0  0  0  0
   25.3654  -21.1922  -11.4494 C   0  0  0  0  0  0  0  0  0  0  0  0
   26.2668  -20.1301  -11.5980 C   0  0  0  0  0  0  0  0  0  0  0  0
   26.5651  -19.2777  -10.5673 C   0  0  0  0  0  0  0  0  0  0  0  0
   25.9634  -19.4628   -9.3392 C   0  0  0  0  0  0  0  0  0  0  0  0
   25.0777  -20.5084   -9.1978 C   0  0  0  0  0  0  0  0  0  0  0  0
   24.7731  -21.3649  -10.2204 C   0  0  0  0  0  0  0  0  0  0  0  0
   22.6382  -21.4464  -12.6416 C   0  0  0  0  0  0  0  0  0  0  0  0
   22.0216  -22.4370  -12.2011 O   0  0  0  0  0  0  0  0  0  0  0  0
   22.0840  -20.1946  -12.4124 O   0  0  0  0  0  0  0  0  0  0  0  0
  1  2  1  0
  3  2  1  0
  4  3  1  0
  5  6  1  1
  5  4  1  0
  7  5  1  0
  8  7  2  0
 10  9  1  0
 10 11  1  0
 11 12  1  0
 13 12  1  6
 13 14  1  0
 14  7  1  0
 15 13  1  0
 15 16  2  0
 17 15  1  0
 18 19  1  1
 18 17  1  0
 20 21  2  0
 20 19  1  0
 22 21  1  0
 23 22  2  0
 24 23  1  0
 24 25  2  0
 25 20  1  0
 26 18  1  0
 27 26  2  0
 28 26  1  0
M  END
$$$$
