MMF.pdb
     RDKit          3D

 28 28  0  0  1  0  0  0  0  0999 V2000
   25.5220  -20.1187   -7.2796 C   0  0  0  0  0  0  0  0  0  0  0  0
   27.3137  -20.4173   -7.3740 S   0  0  0  0  0  0  0  0  0  0  0  0
   27.7666  -21.0053   -9.0322 C   0  0  0  0  0  0  0  0  0  0  0  0
   26.6238  -20.6989  -10.0013 C   0  0  0  0  0  0  0  0  0  0  0  0
   26.9876  -21.3320  -11.3242 C   0  0  2  0  0  0  0  0  0  0  0  0
   28.1741  -20.6195  -11.8044 N   0  0  0  0  0  0  0  0  0  0  0  0
   25.9258  -21.1411  -12.3389 C   0  0  0  0  0  0  0  0  0  0  0  0
   25.6734  -20.0494  -12.9081 O   0  0  0  0  0  0  0  0  0  0  0  0
   25.1080  -26.3731  -16.2671 C   0  0  0  0  0  0  0  0  0  0  0  0
   23.6513  -25.3840  -16.5241 S   0  0  0  0  0  0  0  0  0  0  0  0
   23.6665  -23.7975  -15.7201 C   0  0  0  0  0  0  0  0  0  0  0  0
   24.5576  -23.7320  -14.4987 C   0  0  0  0  0  0  0  0  0  0  0  0
   24.3478  -22.3617  -13.8934 C   0  0  2  0  0  0  0  0  0  0  0  0
   25.1393  -22.2663  -12.6935 N   0  0  0  0  0  0  0  0  0  0  0  0
   22.9491  -22.0704  -13.5848 C   0  0  0  0  0  0  0  0  0  0  0  0
   22.3843  -22.7322  -12.6801 O   0  0  0  0  0  0  0  0  0  0  0  0
   22.1775  -21.0821  -14.2431 N   0  0  0  0  0  0  0  0  0  0  0  0
   20.8247  -20.8431  -13.8205 C   0  0  1  0  0  0  0  0  0  0  0  0
   20.6959  -19.6087  -12.9854 C   0  0  0  0  0  0  0  0  0  0  0  0
   21.1769  -19.8631  -11.6095 C   0  0  0  0  0  0  0  0  0  0  0  0
   22.4831  -19.5323  -11.2259 C   0  0  0  0  0  0  0  0  0  0  0  0
   22.9433  -19.7402   -9.9520 C   0  0  0  0  0  0  0  0  0  0  0  0
   22.1009  -20.2927   -9.0089 C   0  0  0  0  0  0  0  0  0  0  0  0
   20.8174  -20.6163   -9.3907 C   0  0  0  0  0  0  0  0  0  0  0  0
   20.3482  -20.4127  -10.6597 C   0  0  0  0  0  0  0  0  0  0  0  0
   19.9561  -20.8409  -15.0172 C   0  0  0  0  0  0  0  0  0  0  0  0
   18.7113  -20.9102  -14.9808 O   0  0  0  0  0  0  0  0  0  0  0  0
   20.5555  -20.7564  -16.2662 O   0  0  0  0  0  0  0  0  0  0  0  0
  1  2  1  0
  3  2  1  0
  4  3  1  0
  5  6  1  6
  5  4  1  0
  7  5  1  0
  8  7  2  0
 10  9  1  0
 10 11  1  0
 11 12  1  0
 13 12  1  1
 13 14  1  0
 14  7  1  0
 15 13  1  0
 15 16  2  0
 17 15  1  0
 18 19  1  6
 18 17  1  0
 20 21  2  0
 20 19  1  0
 22 21  1  0
 23 22  2  0
 24 23  1  0
 24 25  2  0
 25 20  1  0
 26 18  1  0
 27 26  2  0
 28 26  1  0
M  END
$$$$
