MMF.pdb
     RDKit          3D

 28 28  0  0  1  0  0  0  0  0999 V2000
   26.0656  -16.2810  -15.8102 C   0  0  0  0  0  0  0  0  0  0  0  0
   27.8748  -16.4425  -15.9053 S   0  0  0  0  0  0  0  0  0  0  0  0
   28.3783  -18.1348  -15.4776 C   0  0  0  0  0  0  0  0  0  0  0  0
   27.2397  -18.8193  -14.7198 C   0  0  0  0  0  0  0  0  0  0  0  0
   27.7855  -20.1261  -14.1930 C   0  0  2  0  0  0  0  0  0  0  0  0
   28.0576  -20.9575  -15.3681 N   0  0  0  0  0  0  0  0  0  0  0  0
   26.7891  -20.8497  -13.3701 C   0  0  0  0  0  0  0  0  0  0  0  0
   26.1088  -21.8268  -13.7723 O   0  0  0  0  0  0  0  0  0  0  0  0
   26.7241  -19.9057   -6.7456 C   0  0  0  0  0  0  0  0  0  0  0  0
   27.8299  -20.8429   -7.7777 S   0  0  0  0  0  0  0  0  0  0  0  0
   27.2194  -21.1950   -9.4108 C   0  0  0  0  0  0  0  0  0  0  0  0
   25.9084  -20.5148   -9.7406 C   0  0  0  0  0  0  0  0  0  0  0  0
   25.5658  -20.9184  -11.1576 C   0  0  2  0  0  0  0  0  0  0  0  0
   26.5879  -20.4109  -12.0368 N   0  0  0  0  0  0  0  0  0  0  0  0
   24.2564  -20.4405  -11.5977 C   0  0  0  0  0  0  0  0  0  0  0  0
   24.0820  -19.2044  -11.7279 O   0  0  0  0  0  0  0  0  0  0  0  0
   23.1579  -21.2848  -11.8908 N   0  0  0  0  0  0  0  0  0  0  0  0
   22.1505  -20.8400  -12.8144 C   0  0  1  0  0  0  0  0  0  0  0  0
   22.7276  -20.4037  -14.1238 C   0  0  0  0  0  0  0  0  0  0  0  0
   21.6507  -19.9968  -15.0532 C   0  0  0  0  0  0  0  0  0  0  0  0
   21.0461  -20.9241  -15.9120 C   0  0  0  0  0  0  0  0  0  0  0  0
   20.0336  -20.5738  -16.7663 C   0  0  0  0  0  0  0  0  0  0  0  0
   19.5876  -19.2680  -16.7892 C   0  0  0  0  0  0  0  0  0  0  0  0
   20.1850  -18.3598  -15.9430 C   0  0  0  0  0  0  0  0  0  0  0  0
   21.1964  -18.6994  -15.0864 C   0  0  0  0  0  0  0  0  0  0  0  0
   21.1324  -21.9048  -12.9422 C   0  0  0  0  0  0  0  0  0  0  0  0
   21.3953  -23.1042  -13.1615 O   0  0  0  0  0  0  0  0  0  0  0  0
   19.7952  -21.5569  -12.8111 O   0  0  0  0  0  0  0  0  0  0  0  0
  1  2  1  0
  3  2  1  0
  4  3  1  0
  5  6  1  6
  5  4  1  0
  7  5  1  0
  8  7  2  0
 10  9  1  0
 10 11  1  0
 11 12  1  0
 13 12  1  1
 13 14  1  0
 14  7  1  0
 15 13  1  0
 15 16  2  0
 17 15  1  0
 18 19  1  6
 18 17  1  0
 20 21  2  0
 20 19  1  0
 22 21  1  0
 23 22  2  0
 24 23  1  0
 24 25  2  0
 25 20  1  0
 26 18  1  0
 27 26  2  0
 28 26  1  0
M  END
$$$$
