MMF.pdb
     RDKit          3D

 28 28  0  0  1  0  0  0  0  0999 V2000
   24.7652  -16.5045  -14.6513 C   0  0  0  0  0  0  0  0  0  0  0  0
   26.3414  -15.7694  -15.1837 S   0  0  0  0  0  0  0  0  0  0  0  0
   27.5683  -17.0718  -15.4978 C   0  0  0  0  0  0  0  0  0  0  0  0
   27.2100  -18.3070  -14.6701 C   0  0  0  0  0  0  0  0  0  0  0  0
   28.4026  -19.2333  -14.7238 C   0  0  2  0  0  0  0  0  0  0  0  0
   28.5158  -19.6717  -16.1171 N   0  0  0  0  0  0  0  0  0  0  0  0
   28.1968  -20.4478  -13.9016 C   0  0  0  0  0  0  0  0  0  0  0  0
   27.6813  -21.5136  -14.3231 O   0  0  0  0  0  0  0  0  0  0  0  0
   32.2125  -21.8939   -8.9386 C   0  0  0  0  0  0  0  0  0  0  0  0
   32.3380  -21.9393  -10.7130 S   0  0  0  0  0  0  0  0  0  0  0  0
   30.7908  -21.8115  -11.5811 C   0  0  0  0  0  0  0  0  0  0  0  0
   29.5994  -21.5490  -10.6856 C   0  0  0  0  0  0  0  0  0  0  0  0
   28.3940  -21.4682  -11.5959 C   0  0  2  0  0  0  0  0  0  0  0  0
   28.6092  -20.4066  -12.5456 N   0  0  0  0  0  0  0  0  0  0  0  0
   27.1395  -21.2420  -10.8807 C   0  0  0  0  0  0  0  0  0  0  0  0
   27.1783  -21.0894   -9.6355 O   0  0  0  0  0  0  0  0  0  0  0  0
   25.8683  -21.1825  -11.5020 N   0  0  0  0  0  0  0  0  0  0  0  0
   24.6964  -20.9739  -10.6965 C   0  0  1  0  0  0  0  0  0  0  0  0
   24.7336  -19.6732   -9.9586 C   0  0  0  0  0  0  0  0  0  0  0  0
   25.4674  -19.8238   -8.6826 C   0  0  0  0  0  0  0  0  0  0  0  0
   25.1272  -20.8265   -7.7652 C   0  0  0  0  0  0  0  0  0  0  0  0
   25.8058  -20.9971   -6.5870 C   0  0  0  0  0  0  0  0  0  0  0  0
   26.8600  -20.1594   -6.2849 C   0  0  0  0  0  0  0  0  0  0  0  0
   27.1910  -19.1749   -7.1899 C   0  0  0  0  0  0  0  0  0  0  0  0
   26.5199  -18.9964   -8.3689 C   0  0  0  0  0  0  0  0  0  0  0  0
   23.5047  -21.1313  -11.5578 C   0  0  0  0  0  0  0  0  0  0  0  0
   23.5498  -21.3535  -12.7843 O   0  0  0  0  0  0  0  0  0  0  0  0
   22.2504  -21.0267  -10.9727 O   0  0  0  0  0  0  0  0  0  0  0  0
  1  2  1  0
  3  2  1  0
  4  3  1  0
  5  6  1  6
  5  4  1  0
  7  5  1  0
  8  7  2  0
 10  9  1  0
 10 11  1  0
 11 12  1  0
 13 12  1  1
 13 14  1  0
 14  7  1  0
 15 13  1  0
 15 16  2  0
 17 15  1  0
 18 19  1  6
 18 17  1  0
 20 21  2  0
 20 19  1  0
 22 21  1  0
 23 22  2  0
 24 23  1  0
 24 25  2  0
 25 20  1  0
 26 18  1  0
 27 26  2  0
 28 26  1  0
M  END
$$$$
