MMF.pdb
     RDKit          3D

 28 28  0  0  1  0  0  0  0  0999 V2000
   29.4681  -24.0745  -16.7180 C   0  0  0  0  0  0  0  0  0  0  0  0
   29.0173  -23.8453  -18.4652 S   0  0  0  0  0  0  0  0  0  0  0  0
   29.6401  -22.2499  -19.0711 C   0  0  0  0  0  0  0  0  0  0  0  0
   29.8381  -21.3064  -17.8839 C   0  0  0  0  0  0  0  0  0  0  0  0
   28.5508  -20.5330  -17.7174 C   0  0  2  0  0  0  0  0  0  0  0  0
   28.6066  -19.4352  -18.6859 N   0  0  0  0  0  0  0  0  0  0  0  0
   28.4433  -19.9212  -16.3729 C   0  0  0  0  0  0  0  0  0  0  0  0
   29.4181  -19.4897  -15.7074 O   0  0  0  0  0  0  0  0  0  0  0  0
   25.2469  -14.9522  -15.0653 C   0  0  0  0  0  0  0  0  0  0  0  0
   26.9734  -15.3027  -15.3155 S   0  0  0  0  0  0  0  0  0  0  0  0
   27.4422  -16.9996  -15.0613 C   0  0  0  0  0  0  0  0  0  0  0  0
   26.3023  -17.8984  -14.6334 C   0  0  0  0  0  0  0  0  0  0  0  0
   26.8886  -19.2845  -14.4824 C   0  0  2  0  0  0  0  0  0  0  0  0
   27.1525  -19.8144  -15.7957 N   0  0  0  0  0  0  0  0  0  0  0  0
   26.0242  -20.2043  -13.7452 C   0  0  0  0  0  0  0  0  0  0  0  0
   25.1842  -20.8815  -14.3864 O   0  0  0  0  0  0  0  0  0  0  0  0
   26.0688  -20.3865  -12.3415 N   0  0  0  0  0  0  0  0  0  0  0  0
   25.2274  -21.3785  -11.7301 C   0  0  1  0  0  0  0  0  0  0  0  0
   25.9207  -22.1166  -10.6290 C   0  0  0  0  0  0  0  0  0  0  0  0
   26.4944  -21.1661   -9.6510 C   0  0  0  0  0  0  0  0  0  0  0  0
   27.8807  -21.0191   -9.5111 C   0  0  0  0  0  0  0  0  0  0  0  0
   28.4337  -20.1306   -8.6264 C   0  0  0  0  0  0  0  0  0  0  0  0
   27.6073  -19.3507   -7.8434 C   0  0  0  0  0  0  0  0  0  0  0  0
   26.2449  -19.4986   -7.9845 C   0  0  0  0  0  0  0  0  0  0  0  0
   25.6828  -20.3826   -8.8647 C   0  0  0  0  0  0  0  0  0  0  0  0
   23.9706  -20.7257  -11.3046 C   0  0  0  0  0  0  0  0  0  0  0  0
   22.9515  -21.3408  -10.9324 O   0  0  0  0  0  0  0  0  0  0  0  0
   23.9117  -19.3390  -11.3168 O   0  0  0  0  0  0  0  0  0  0  0  0
  1  2  1  0
  3  2  1  0
  4  3  1  0
  5  6  1  6
  5  4  1  0
  7  5  1  0
  8  7  2  0
 10  9  1  0
 10 11  1  0
 11 12  1  0
 13 12  1  6
 13 14  1  0
 14  7  1  0
 15 13  1  0
 15 16  2  0
 17 15  1  0
 18 19  1  1
 18 17  1  0
 20 21  2  0
 20 19  1  0
 22 21  1  0
 23 22  2  0
 24 23  1  0
 24 25  2  0
 25 20  1  0
 26 18  1  0
 27 26  2  0
 28 26  1  0
M  END
$$$$
