MMF.pdb
     RDKit          3D

 28 28  0  0  1  0  0  0  0  0999 V2000
   17.8178  -20.6472  -11.6532 C   0  0  0  0  0  0  0  0  0  0  0  0
   18.6239  -19.2342  -12.4669 S   0  0  0  0  0  0  0  0  0  0  0  0
   19.6953  -19.8126  -13.8152 C   0  0  0  0  0  0  0  0  0  0  0  0
   20.7432  -20.7702  -13.2461 C   0  0  0  0  0  0  0  0  0  0  0  0
   21.8943  -19.9222  -12.7572 C   0  0  2  0  0  0  0  0  0  0  0  0
   22.4991  -19.3281  -13.9520 N   0  0  0  0  0  0  0  0  0  0  0  0
   22.9415  -20.7375  -12.0998 C   0  0  0  0  0  0  0  0  0  0  0  0
   22.7146  -21.6434  -11.2589 O   0  0  0  0  0  0  0  0  0  0  0  0
   28.6961  -22.2542  -15.1116 C   0  0  0  0  0  0  0  0  0  0  0  0
   26.9724  -22.5527  -15.4372 S   0  0  0  0  0  0  0  0  0  0  0  0
   25.8814  -22.2369  -14.0684 C   0  0  0  0  0  0  0  0  0  0  0  0
   26.4632  -21.3221  -13.0125 C   0  0  0  0  0  0  0  0  0  0  0  0
   25.4191  -21.2133  -11.9234 C   0  0  2  0  0  0  0  0  0  0  0  0
   24.2931  -20.4793  -12.4417 N   0  0  0  0  0  0  0  0  0  0  0  0
   25.9114  -20.5662  -10.7087 C   0  0  0  0  0  0  0  0  0  0  0  0
   25.8275  -19.3171  -10.6187 O   0  0  0  0  0  0  0  0  0  0  0  0
   26.4834  -21.2583   -9.6136 N   0  0  0  0  0  0  0  0  0  0  0  0
   27.1900  -20.5212   -8.6021 C   0  0  1  0  0  0  0  0  0  0  0  0
   26.5510  -20.6418   -7.2550 C   0  0  0  0  0  0  0  0  0  0  0  0
   27.3873  -19.9859   -6.2256 C   0  0  0  0  0  0  0  0  0  0  0  0
   28.2597  -20.7289   -5.4196 C   0  0  0  0  0  0  0  0  0  0  0  0
   29.0581  -20.1401   -4.4743 C   0  0  0  0  0  0  0  0  0  0  0  0
   29.0089  -18.7717   -4.3027 C   0  0  0  0  0  0  0  0  0  0  0  0
   28.1496  -18.0452   -5.0976 C   0  0  0  0  0  0  0  0  0  0  0  0
   27.3485  -18.6234   -6.0442 C   0  0  0  0  0  0  0  0  0  0  0  0
   28.6076  -20.9414   -8.6240 C   0  0  0  0  0  0  0  0  0  0  0  0
   29.0002  -22.0674   -8.9895 O   0  0  0  0  0  0  0  0  0  0  0  0
   29.5711  -20.0306   -8.2131 O   0  0  0  0  0  0  0  0  0  0  0  0
  1  2  1  0
  3  2  1  0
  4  3  1  0
  5  6  1  6
  5  4  1  0
  7  5  1  0
  8  7  2  0
 10  9  1  0
 10 11  1  0
 11 12  1  0
 13 12  1  6
 13 14  1  0
 14  7  1  0
 15 13  1  0
 15 16  2  0
 17 15  1  0
 18 19  1  1
 18 17  1  0
 20 21  2  0
 20 19  1  0
 22 21  1  0
 23 22  2  0
 24 23  1  0
 24 25  2  0
 25 20  1  0
 26 18  1  0
 27 26  2  0
 28 26  1  0
M  END
$$$$
