MMF.pdb
     RDKit          3D

 28 28  0  0  1  0  0  0  0  0999 V2000
   26.2446  -16.7902  -15.5313 C   0  0  0  0  0  0  0  0  0  0  0  0
   27.9530  -17.2298  -15.9747 S   0  0  0  0  0  0  0  0  0  0  0  0
   28.2943  -18.9569  -15.5264 C   0  0  0  0  0  0  0  0  0  0  0  0
   27.2242  -19.4406  -14.5466 C   0  0  0  0  0  0  0  0  0  0  0  0
   27.6524  -20.8082  -14.0678 C   0  0  2  0  0  0  0  0  0  0  0  0
   27.4733  -21.7131  -15.2059 N   0  0  0  0  0  0  0  0  0  0  0  0
   26.7862  -21.3077  -12.9752 C   0  0  0  0  0  0  0  0  0  0  0  0
   25.7936  -22.0603  -13.1415 O   0  0  0  0  0  0  0  0  0  0  0  0
   27.5194  -18.7311   -6.5178 C   0  0  0  0  0  0  0  0  0  0  0  0
   26.5814  -20.2427   -6.5584 S   0  0  0  0  0  0  0  0  0  0  0  0
   25.9209  -20.6768   -8.1518 C   0  0  0  0  0  0  0  0  0  0  0  0
   26.9122  -20.5474   -9.2880 C   0  0  0  0  0  0  0  0  0  0  0  0
   26.2040  -21.0465  -10.5279 C   0  0  2  0  0  0  0  0  0  0  0  0
   27.0970  -20.9101  -11.6501 N   0  0  0  0  0  0  0  0  0  0  0  0
   24.9533  -20.3430  -10.8060 C   0  0  0  0  0  0  0  0  0  0  0  0
   24.9828  -19.0945  -10.9318 O   0  0  0  0  0  0  0  0  0  0  0  0
   23.6957  -20.9792  -10.9447 N   0  0  0  0  0  0  0  0  0  0  0  0
   22.5327  -20.1894  -11.2439 C   0  0  1  0  0  0  0  0  0  0  0  0
   22.7215  -19.3281  -12.4522 C   0  0  0  0  0  0  0  0  0  0  0  0
   22.7352  -20.1549  -13.6792 C   0  0  0  0  0  0  0  0  0  0  0  0
   21.5998  -20.8687  -14.0845 C   0  0  0  0  0  0  0  0  0  0  0  0
   21.5835  -21.6242  -15.2276 C   0  0  0  0  0  0  0  0  0  0  0  0
   22.7169  -21.6908  -16.0120 C   0  0  0  0  0  0  0  0  0  0  0  0
   23.8309  -20.9873  -15.6096 C   0  0  0  0  0  0  0  0  0  0  0  0
   23.8574  -20.2300  -14.4703 C   0  0  0  0  0  0  0  0  0  0  0  0
   21.3668  -21.0941  -11.3389 C   0  0  0  0  0  0  0  0  0  0  0  0
   20.1968  -20.7121  -11.5407 O   0  0  0  0  0  0  0  0  0  0  0  0
   21.5782  -22.4584  -11.1955 O   0  0  0  0  0  0  0  0  0  0  0  0
  1  2  1  0
  3  2  1  0
  4  3  1  0
  5  6  1  6
  5  4  1  0
  7  5  1  0
  8  7  2  0
 10  9  1  0
 10 11  1  0
 11 12  1  0
 13 12  1  1
 13 14  1  0
 14  7  1  0
 15 13  1  0
 15 16  2  0
 17 15  1  0
 18 19  1  6
 18 17  1  0
 20 21  2  0
 20 19  1  0
 22 21  1  0
 23 22  2  0
 24 23  1  0
 24 25  2  0
 25 20  1  0
 26 18  1  0
 27 26  2  0
 28 26  1  0
M  END
$$$$
