MMF.pdb
     RDKit          3D

 28 28  0  0  1  0  0  0  0  0999 V2000
   17.6523  -17.5372  -12.9966 C   0  0  0  0  0  0  0  0  0  0  0  0
   19.1066  -16.6904  -13.6868 S   0  0  0  0  0  0  0  0  0  0  0  0
   20.2591  -17.9004  -14.3995 C   0  0  0  0  0  0  0  0  0  0  0  0
   20.9230  -18.6861  -13.2678 C   0  0  0  0  0  0  0  0  0  0  0  0
   22.0078  -19.5299  -13.8959 C   0  0  2  0  0  0  0  0  0  0  0  0
   21.3261  -20.4761  -14.7826 N   0  0  0  0  0  0  0  0  0  0  0  0
   22.7397  -20.3300  -12.8871 C   0  0  0  0  0  0  0  0  0  0  0  0
   22.1921  -20.9876  -11.9666 O   0  0  0  0  0  0  0  0  0  0  0  0
   27.7091  -23.2808  -15.3095 C   0  0  0  0  0  0  0  0  0  0  0  0
   26.0505  -23.8594  -15.0257 S   0  0  0  0  0  0  0  0  0  0  0  0
   25.1499  -22.9788  -13.7698 C   0  0  0  0  0  0  0  0  0  0  0  0
   25.9642  -21.9270  -13.0480 C   0  0  0  0  0  0  0  0  0  0  0  0
   24.9999  -21.1891  -12.1459 C   0  0  2  0  0  0  0  0  0  0  0  0
   24.1553  -20.3567  -12.9638 N   0  0  0  0  0  0  0  0  0  0  0  0
   25.6626  -20.3717  -11.1314 C   0  0  0  0  0  0  0  0  0  0  0  0
   26.0777  -19.2326  -11.4566 O   0  0  0  0  0  0  0  0  0  0  0  0
   25.8716  -20.7799   -9.7916 N   0  0  0  0  0  0  0  0  0  0  0  0
   26.8531  -20.1015   -8.9903 C   0  0  1  0  0  0  0  0  0  0  0  0
   26.2627  -19.4880   -7.7604 C   0  0  0  0  0  0  0  0  0  0  0  0
   27.2502  -19.4863   -6.6587 C   0  0  0  0  0  0  0  0  0  0  0  0
   28.0850  -18.3834   -6.4357 C   0  0  0  0  0  0  0  0  0  0  0  0
   28.9924  -18.3518   -5.4094 C   0  0  0  0  0  0  0  0  0  0  0  0
   29.0952  -19.4364   -4.5622 C   0  0  0  0  0  0  0  0  0  0  0  0
   28.2723  -20.5185   -4.7852 C   0  0  0  0  0  0  0  0  0  0  0  0
   27.3632  -20.5598   -5.8069 C   0  0  0  0  0  0  0  0  0  0  0  0
   27.9576  -21.0438   -8.7094 C   0  0  0  0  0  0  0  0  0  0  0  0
   27.8340  -22.2848   -8.6925 O   0  0  0  0  0  0  0  0  0  0  0  0
   29.2171  -20.5230   -8.4465 O   0  0  0  0  0  0  0  0  0  0  0  0
  1  2  1  0
  3  2  1  0
  4  3  1  0
  5  6  1  6
  5  4  1  0
  7  5  1  0
  8  7  2  0
 10  9  1  0
 10 11  1  0
 11 12  1  0
 13 12  1  6
 13 14  1  0
 14  7  1  0
 15 13  1  0
 15 16  2  0
 17 15  1  0
 18 19  1  1
 18 17  1  0
 20 21  2  0
 20 19  1  0
 22 21  1  0
 23 22  2  0
 24 23  1  0
 24 25  2  0
 25 20  1  0
 26 18  1  0
 27 26  2  0
 28 26  1  0
M  END
$$$$
