MMF.pdb
     RDKit          3D

 28 28  0  0  1  0  0  0  0  0999 V2000
   24.1769  -16.4641  -19.8940 C   0  0  0  0  0  0  0  0  0  0  0  0
   23.0636  -17.1502  -18.6297 S   0  0  0  0  0  0  0  0  0  0  0  0
   23.7974  -16.9644  -16.9782 C   0  0  0  0  0  0  0  0  0  0  0  0
   24.9018  -15.9080  -17.0372 C   0  0  0  0  0  0  0  0  0  0  0  0
   25.5226  -15.8438  -15.6612 C   0  0  2  0  0  0  0  0  0  0  0  0
   26.4075  -14.6763  -15.6674 N   0  0  0  0  0  0  0  0  0  0  0  0
   26.3671  -17.0275  -15.3799 C   0  0  0  0  0  0  0  0  0  0  0  0
   27.3839  -17.3504  -16.0442 O   0  0  0  0  0  0  0  0  0  0  0  0
   25.4974  -20.5652   -9.6242 C   0  0  0  0  0  0  0  0  0  0  0  0
   26.9891  -21.1248  -10.4167 S   0  0  0  0  0  0  0  0  0  0  0  0
   27.1939  -20.5898  -12.1006 C   0  0  0  0  0  0  0  0  0  0  0  0
   26.4116  -19.3430  -12.4525 C   0  0  0  0  0  0  0  0  0  0  0  0
   26.6999  -19.0585  -13.9099 C   0  0  2  0  0  0  0  0  0  0  0  0
   26.0048  -17.8541  -14.2863 N   0  0  0  0  0  0  0  0  0  0  0  0
   26.3135  -20.1493  -14.8028 C   0  0  0  0  0  0  0  0  0  0  0  0
   25.0951  -20.3143  -15.0553 O   0  0  0  0  0  0  0  0  0  0  0  0
   27.2285  -21.0436  -15.4097 N   0  0  0  0  0  0  0  0  0  0  0  0
   26.7443  -22.0308  -16.3353 C   0  0  1  0  0  0  0  0  0  0  0  0
   25.9730  -21.4260  -17.4653 C   0  0  0  0  0  0  0  0  0  0  0  0
   26.8516  -20.5667  -18.2892 C   0  0  0  0  0  0  0  0  0  0  0  0
   26.8065  -19.1705  -18.1821 C   0  0  0  0  0  0  0  0  0  0  0  0
   27.6248  -18.3561  -18.9203 C   0  0  0  0  0  0  0  0  0  0  0  0
   28.5261  -18.9194  -19.8004 C   0  0  0  0  0  0  0  0  0  0  0  0
   28.5670  -20.2927  -19.9023 C   0  0  0  0  0  0  0  0  0  0  0  0
   27.7544  -21.1145  -19.1698 C   0  0  0  0  0  0  0  0  0  0  0  0
   27.8886  -22.8575  -16.7759 C   0  0  0  0  0  0  0  0  0  0  0  0
   27.8075  -23.7791  -17.6124 O   0  0  0  0  0  0  0  0  0  0  0  0
   29.1377  -22.5985  -16.2290 O   0  0  0  0  0  0  0  0  0  0  0  0
  1  2  1  0
  3  2  1  0
  4  3  1  0
  5  6  1  6
  5  4  1  0
  7  5  1  0
  8  7  2  0
 10  9  1  0
 10 11  1  0
 11 12  1  0
 13 12  1  1
 13 14  1  0
 14  7  1  0
 15 13  1  0
 15 16  2  0
 17 15  1  0
 18 19  1  6
 18 17  1  0
 20 21  2  0
 20 19  1  0
 22 21  1  0
 23 22  2  0
 24 23  1  0
 24 25  2  0
 25 20  1  0
 26 18  1  0
 27 26  2  0
 28 26  1  0
M  END
$$$$
