QRT.pdb
     RDKit          3D

 28 27  0  0  1  0  0  0  0  0999 V2000
   17.5918  -21.6331  -12.9998 N   0  0  0  0  0  0  0  0  0  0  0  0
   16.9815  -20.8589  -14.0122 C   0  0  0  0  0  0  0  0  0  0  0  0
   15.7899  -21.0990  -14.2920 O   0  0  0  0  0  0  0  0  0  0  0  0
   17.7339  -19.8208  -14.6940 C   0  0  0  0  0  0  0  0  0  0  0  0
   19.1508  -19.6491  -14.2858 C   0  0  0  0  0  0  0  0  0  0  0  0
   20.1532  -19.9094  -15.3911 C   0  0  2  0  0  0  0  0  0  0  0  0
   20.7904  -21.1952  -15.1841 N   0  0  0  0  0  0  0  0  0  0  0  0
   21.2040  -18.8692  -15.4209 C   0  0  0  0  0  0  0  0  0  0  0  0
   21.0358  -17.6861  -15.0281 O   0  0  0  0  0  0  0  0  0  0  0  0
   27.6367  -21.0148  -14.2583 N   0  0  0  0  0  0  0  0  0  0  0  0
   27.0450  -20.3834  -13.1116 C   0  0  0  0  0  0  0  0  0  0  0  0
   26.8147  -21.0671  -12.0444 N   0  0  0  0  0  0  0  0  0  0  0  0
   26.7404  -19.0043  -13.2282 N   0  0  0  0  0  0  0  0  0  0  0  0
   27.1182  -18.2686  -14.4171 C   0  0  0  0  0  0  0  0  0  0  0  0
   25.9099  -17.7430  -15.1669 C   0  0  0  0  0  0  0  0  0  0  0  0
   24.8280  -18.8147  -15.2615 C   0  0  0  0  0  0  0  0  0  0  0  0
   23.6078  -18.3003  -15.9640 C   0  0  2  0  0  0  0  0  0  0  0  0
   22.4886  -19.1979  -15.9172 N   0  0  0  0  0  0  0  0  0  0  0  0
   23.9805  -18.1023  -17.3889 C   0  0  0  0  0  0  0  0  0  0  0  0
   24.2305  -19.1049  -18.1117 O   0  0  0  0  0  0  0  0  0  0  0  0
   26.4016  -20.6006  -11.2202 C   0  0  0  0  0  0  0  0  0  0  0  0
   22.2736  -16.0464  -20.2190 C   0  0  2  0  0  0  0  0  0  0  0  0
   23.7168  -15.6265  -20.0903 O   0  0  0  0  0  0  0  0  0  0  0  0
   23.7547  -14.4960  -19.2734 C   0  0  2  0  0  0  0  0  0  0  0  0
   24.4749  -16.7301  -19.3716 N   0  0  0  0  0  0  0  0  0  0  0  0
   24.0715  -16.8261  -17.9888 C   0  0  0  0  0  0  0  0  0  0  0  0
   25.9330  -16.5161  -19.4328 O   0  0  0  0  0  0  0  0  0  0  0  0
   26.6093  -16.3098  -18.3979 O   0  0  0  0  0  0  0  0  0  0  0  0
  1  2  1  0
  2  3  2  0
  4  5  1  0
  4  2  1  0
  5  6  1  0
  6  8  1  0
  6  7  1  1
  8  9  2  0
 11 13  1  0
 11 10  1  0
 12 11  2  0
 14 13  1  0
 15 14  1  0
 15 16  1  0
 17 16  1  1
 18 17  1  0
 18  8  1  0
 19 17  1  0
 20 19  2  0
 22 21  1  6
 22 24  1  0
 23 22  1  0
 24 25  1  6
 25 19  1  0
 26 24  1  0
 26 28  1  0
 27 26  2  0
M  END
$$$$
