QRT.pdb
     RDKit          3D

 28 27  0  0  1  0  0  0  0  0999 V2000
   21.7016  -16.6647  -15.9492 N   0  0  0  0  0  0  0  0  0  0  0  0
   20.3689  -16.7695  -16.4073 C   0  0  0  0  0  0  0  0  0  0  0  0
   19.9083  -15.8276  -17.0828 O   0  0  0  0  0  0  0  0  0  0  0  0
   19.5764  -17.9447  -16.0917 C   0  0  0  0  0  0  0  0  0  0  0  0
   20.2713  -19.0425  -15.3737 C   0  0  0  0  0  0  0  0  0  0  0  0
   21.3461  -19.7352  -16.1856 C   0  0  2  0  0  0  0  0  0  0  0  0
   20.7459  -20.7440  -17.0366 N   0  0  0  0  0  0  0  0  0  0  0  0
   22.3398  -20.3954  -15.3117 C   0  0  0  0  0  0  0  0  0  0  0  0
   22.0835  -21.3793  -14.5711 O   0  0  0  0  0  0  0  0  0  0  0  0
   27.6364  -22.4826  -17.9032 N   0  0  0  0  0  0  0  0  0  0  0  0
   28.8487  -22.7670  -17.1869 C   0  0  0  0  0  0  0  0  0  0  0  0
   29.5714  -23.7810  -17.5166 N   0  0  0  0  0  0  0  0  0  0  0  0
   29.1858  -21.8878  -16.1277 N   0  0  0  0  0  0  0  0  0  0  0  0
   28.3240  -20.7708  -15.8004 C   0  0  0  0  0  0  0  0  0  0  0  0
   26.9747  -21.2283  -15.2821 C   0  0  0  0  0  0  0  0  0  0  0  0
   26.1001  -20.0291  -14.9283 C   0  0  0  0  0  0  0  0  0  0  0  0
   24.7319  -20.4592  -14.4926 C   0  0  2  0  0  0  0  0  0  0  0  0
   23.6699  -19.9107  -15.2875 N   0  0  0  0  0  0  0  0  0  0  0  0
   24.5540  -19.9848  -13.0956 C   0  0  0  0  0  0  0  0  0  0  0  0
   23.9761  -18.8848  -12.8808 O   0  0  0  0  0  0  0  0  0  0  0  0
   30.4193  -24.0016  -16.9688 C   0  0  0  0  0  0  0  0  0  0  0  0
   22.7870  -19.0860  -11.5391 C   0  0  2  0  0  0  0  0  0  0  0  0
   23.3382  -19.8888  -10.3871 O   0  0  0  0  0  0  0  0  0  0  0  0
   22.6807  -21.1195  -10.3795 C   0  0  2  0  0  0  0  0  0  0  0  0
   24.8089  -20.1628  -10.6539 N   0  0  0  0  0  0  0  0  0  0  0  0
   25.0066  -20.7145  -11.9732 C   0  0  0  0  0  0  0  0  0  0  0  0
   25.3787  -21.0877   -9.6562 O   0  0  0  0  0  0  0  0  0  0  0  0
   25.8321  -22.2088   -9.9854 O   0  0  0  0  0  0  0  0  0  0  0  0
  1  2  1  0
  2  3  2  0
  4  5  1  0
  4  2  1  0
  5  6  1  0
  6  8  1  0
  6  7  1  6
  8  9  2  0
 11 13  1  0
 11 10  1  0
 12 11  2  0
 14 13  1  0
 15 14  1  0
 15 16  1  0
 17 16  1  6
 18 17  1  0
 18  8  1  0
 19 17  1  0
 20 19  2  0
 22 21  1  1
 22 24  1  0
 23 22  1  0
 24 25  1  1
 25 19  1  0
 26 24  1  0
 26 28  1  0
 27 26  2  0
M  END
$$$$
