QRT.pdb
     RDKit          3D

 28 27  0  0  1  0  0  0  0  0999 V2000
   14.0547  -12.3734  -18.4562 N   0  0  0  0  0  0  0  0  0  0  0  0
   14.6904  -11.1373  -18.2015 C   0  0  0  0  0  0  0  0  0  0  0  0
   13.9684  -10.1404  -18.0000 O   0  0  0  0  0  0  0  0  0  0  0  0
   16.1397  -11.0503  -18.1790 C   0  0  0  0  0  0  0  0  0  0  0  0
   16.7377  -10.1780  -17.1372 C   0  0  0  0  0  0  0  0  0  0  0  0
   17.8899   -9.3247  -17.6256 C   0  0  2  0  0  0  0  0  0  0  0  0
   18.5331   -9.9672  -18.7551 N   0  0  0  0  0  0  0  0  0  0  0  0
   18.9013   -9.1275  -16.5649 C   0  0  0  0  0  0  0  0  0  0  0  0
   18.6310   -8.7571  -15.3935 O   0  0  0  0  0  0  0  0  0  0  0  0
   22.9438  -15.1595  -16.9407 N   0  0  0  0  0  0  0  0  0  0  0  0
   22.8440  -14.9506  -15.5229 C   0  0  0  0  0  0  0  0  0  0  0  0
   22.6959  -15.9553  -14.7305 N   0  0  0  0  0  0  0  0  0  0  0  0
   22.9162  -13.6102  -15.0683 N   0  0  0  0  0  0  0  0  0  0  0  0
   22.6394  -12.5139  -15.9732 C   0  0  0  0  0  0  0  0  0  0  0  0
   22.8339  -11.1659  -15.3074 C   0  0  0  0  0  0  0  0  0  0  0  0
   22.5643  -10.0346  -16.2952 C   0  0  0  0  0  0  0  0  0  0  0  0
   21.3420   -9.2549  -15.9142 C   0  0  2  0  0  0  0  0  0  0  0  0
   20.2662   -9.3632  -16.8583 N   0  0  0  0  0  0  0  0  0  0  0  0
   21.7464   -7.8270  -15.8382 C   0  0  0  0  0  0  0  0  0  0  0  0
   22.4688   -7.3356  -16.7474 O   0  0  0  0  0  0  0  0  0  0  0  0
   22.5963  -15.7924  -13.7150 C   0  0  0  0  0  0  0  0  0  0  0  0
   20.1645   -4.8531  -16.3903 C   0  0  2  0  0  0  0  0  0  0  0  0
   20.7117   -4.6254  -15.0032 O   0  0  0  0  0  0  0  0  0  0  0  0
   19.6963   -4.9279  -14.0954 C   0  0  2  0  0  0  0  0  0  0  0  0
   21.8412   -5.6138  -14.7651 N   0  0  0  0  0  0  0  0  0  0  0  0
   21.3572   -6.9738  -14.7810 C   0  0  0  0  0  0  0  0  0  0  0  0
   22.5223   -5.3614  -13.4814 O   0  0  0  0  0  0  0  0  0  0  0  0
   22.4918   -6.1969  -12.5477 O   0  0  0  0  0  0  0  0  0  0  0  0
  1  2  1  0
  2  3  2  0
  4  5  1  0
  4  2  1  0
  5  6  1  0
  6  8  1  0
  6  7  1  6
  8  9  2  0
 11 13  1  0
 11 10  1  0
 12 11  2  0
 14 13  1  0
 15 14  1  0
 15 16  1  0
 17 16  1  6
 18 17  1  0
 18  8  1  0
 19 17  1  0
 20 19  2  0
 22 21  1  6
 22 24  1  0
 23 22  1  0
 24 25  1  1
 25 19  1  0
 26 24  1  0
 26 28  1  0
 27 26  2  0
M  END
$$$$
