QRT.pdb
     RDKit          3D

 28 27  0  0  1  0  0  0  0  0999 V2000
   15.2658  -27.5087   -2.3631 N   0  0  0  0  0  0  0  0  0  0  0  0
   16.5880  -27.7031   -2.8224 C   0  0  0  0  0  0  0  0  0  0  0  0
   17.4006  -28.2470   -2.0482 O   0  0  0  0  0  0  0  0  0  0  0  0
   16.9697  -27.2765   -4.1569 C   0  0  0  0  0  0  0  0  0  0  0  0
   15.9022  -26.6726   -4.9932 C   0  0  0  0  0  0  0  0  0  0  0  0
   16.1976  -25.2610   -5.4563 C   0  0  2  0  0  0  0  0  0  0  0  0
   17.6114  -25.1248   -5.7471 N   0  0  0  0  0  0  0  0  0  0  0  0
   15.8382  -24.2682   -4.4207 C   0  0  0  0  0  0  0  0  0  0  0  0
   16.6532  -23.7885   -3.5913 O   0  0  0  0  0  0  0  0  0  0  0  0
   11.4919  -18.2412   -4.8557 N   0  0  0  0  0  0  0  0  0  0  0  0
   11.3069  -18.7433   -6.1889 C   0  0  0  0  0  0  0  0  0  0  0  0
   11.3466  -17.9385   -7.1939 N   0  0  0  0  0  0  0  0  0  0  0  0
   11.0844  -20.1366   -6.3213 N   0  0  0  0  0  0  0  0  0  0  0  0
   11.1591  -21.0037   -5.1637 C   0  0  0  0  0  0  0  0  0  0  0  0
   12.5878  -21.3908   -4.8361 C   0  0  0  0  0  0  0  0  0  0  0  0
   12.6248  -22.3687   -3.6655 C   0  0  0  0  0  0  0  0  0  0  0  0
   14.0205  -22.8421   -3.3916 C   0  0  2  0  0  0  0  0  0  0  0  0
   14.5007  -23.8116   -4.3351 N   0  0  0  0  0  0  0  0  0  0  0  0
   14.0063  -23.4751   -2.0473 C   0  0  0  0  0  0  0  0  0  0  0  0
   13.5598  -24.6471   -1.9160 O   0  0  0  0  0  0  0  0  0  0  0  0
   11.2696  -18.3167   -8.1524 C   0  0  0  0  0  0  0  0  0  0  0  0
   16.5672  -24.7420    0.1348 C   0  0  2  0  0  0  0  0  0  0  0  0
   15.8459  -23.6924    0.9432 O   0  0  0  0  0  0  0  0  0  0  0  0
   16.5167  -22.4833    0.7568 C   0  0  2  0  0  0  0  0  0  0  0  0
   14.4467  -23.5264    0.3739 N   0  0  0  0  0  0  0  0  0  0  0  0
   14.4754  -22.8214   -0.8855 C   0  0  0  0  0  0  0  0  0  0  0  0
   13.5624  -22.8048    1.3082 O   0  0  0  0  0  0  0  0  0  0  0  0
   13.2824  -23.2704    2.4377 O   0  0  0  0  0  0  0  0  0  0  0  0
  1  2  1  0
  2  3  2  0
  4  5  1  0
  4  2  1  0
  5  6  1  0
  6  8  1  0
  6  7  1  1
  8  9  2  0
 11 13  1  0
 11 10  1  0
 12 11  2  0
 14 13  1  0
 15 14  1  0
 15 16  1  0
 17 16  1  6
 18 17  1  0
 18  8  1  0
 19 17  1  0
 20 19  2  0
 22 21  1  1
 22 24  1  0
 23 22  1  0
 24 25  1  1
 25 19  1  0
 26 24  1  0
 26 28  1  0
 27 26  2  0
M  END
$$$$
