QRT.pdb
     RDKit          3D

 28 27  0  0  1  0  0  0  0  0999 V2000
   18.8374  -24.5746  -15.8541 N   0  0  0  0  0  0  0  0  0  0  0  0
   17.9289  -24.8416  -14.8051 C   0  0  0  0  0  0  0  0  0  0  0  0
   17.6368  -26.0321  -14.5749 O   0  0  0  0  0  0  0  0  0  0  0  0
   17.3639  -23.7510  -14.0305 C   0  0  0  0  0  0  0  0  0  0  0  0
   17.7670  -22.3774  -14.4232 C   0  0  0  0  0  0  0  0  0  0  0  0
   18.9497  -21.8307  -13.6508 C   0  0  2  0  0  0  0  0  0  0  0  0
   18.5727  -21.6057  -12.2690 N   0  0  0  0  0  0  0  0  0  0  0  0
   19.4181  -20.5485  -14.2196 C   0  0  0  0  0  0  0  0  0  0  0  0
   18.8036  -19.4576  -14.0988 O   0  0  0  0  0  0  0  0  0  0  0  0
   27.1823  -21.2933  -13.6297 N   0  0  0  0  0  0  0  0  0  0  0  0
   26.2815  -21.4902  -12.5280 C   0  0  0  0  0  0  0  0  0  0  0  0
   26.7303  -21.8966  -11.3910 N   0  0  0  0  0  0  0  0  0  0  0  0
   24.9115  -21.2177  -12.7669 N   0  0  0  0  0  0  0  0  0  0  0  0
   24.5129  -20.3990  -13.8930 C   0  0  0  0  0  0  0  0  0  0  0  0
   23.0242  -20.1125  -13.8874 C   0  0  0  0  0  0  0  0  0  0  0  0
   22.6614  -19.1311  -14.9980 C   0  0  0  0  0  0  0  0  0  0  0  0
   21.2514  -19.3308  -15.4659 C   0  0  2  0  0  0  0  0  0  0  0  0
   20.6307  -20.5178  -14.9500 N   0  0  0  0  0  0  0  0  0  0  0  0
   21.2991  -19.4422  -16.9470 C   0  0  0  0  0  0  0  0  0  0  0  0
   21.5748  -20.5518  -17.4789 O   0  0  0  0  0  0  0  0  0  0  0  0
   26.0789  -22.0068  -10.5965 C   0  0  0  0  0  0  0  0  0  0  0  0
   18.7655  -18.8544  -19.6906 C   0  0  2  0  0  0  0  0  0  0  0  0
   19.9554  -17.9680  -19.9626 O   0  0  0  0  0  0  0  0  0  0  0  0
   19.6872  -16.7195  -19.4005 C   0  0  2  0  0  0  0  0  0  0  0  0
   21.1585  -18.5436  -19.2342 N   0  0  0  0  0  0  0  0  0  0  0  0
   21.0472  -18.3503  -17.8079 C   0  0  0  0  0  0  0  0  0  0  0  0
   22.4187  -17.9381  -19.7040 O   0  0  0  0  0  0  0  0  0  0  0  0
   23.1600  -17.2854  -18.9325 O   0  0  0  0  0  0  0  0  0  0  0  0
  1  2  1  0
  2  3  2  0
  4  5  1  0
  4  2  1  0
  5  6  1  0
  6  8  1  0
  6  7  1  1
  8  9  2  0
 11 13  1  0
 11 10  1  0
 12 11  2  0
 14 13  1  0
 15 14  1  0
 15 16  1  0
 17 16  1  1
 18 17  1  0
 18  8  1  0
 19 17  1  0
 20 19  2  0
 22 21  1  6
 22 24  1  0
 23 22  1  0
 24 25  1  6
 25 19  1  0
 26 24  1  0
 26 28  1  0
 27 26  2  0
M  END
$$$$
