QRT.pdb
     RDKit          3D

 28 27  0  0  1  0  0  0  0  0999 V2000
   19.1231  -32.4023  -14.5034 N   0  0  0  0  0  0  0  0  0  0  0  0
   18.6776  -31.0801  -14.2788 C   0  0  0  0  0  0  0  0  0  0  0  0
   18.0394  -30.5166  -15.1902 O   0  0  0  0  0  0  0  0  0  0  0  0
   18.9635  -30.4151  -13.0199 C   0  0  0  0  0  0  0  0  0  0  0  0
   19.6384  -29.0955  -13.1029 C   0  0  0  0  0  0  0  0  0  0  0  0
   21.1134  -29.1705  -13.4391 C   0  0  2  0  0  0  0  0  0  0  0  0
   21.8431  -29.7430  -12.3246 N   0  0  0  0  0  0  0  0  0  0  0  0
   21.6705  -27.8297  -13.7200 C   0  0  0  0  0  0  0  0  0  0  0  0
   21.8771  -26.9541  -12.8409 O   0  0  0  0  0  0  0  0  0  0  0  0
   27.9356  -27.5277  -16.0928 N   0  0  0  0  0  0  0  0  0  0  0  0
   27.5256  -28.8320  -16.5338 C   0  0  0  0  0  0  0  0  0  0  0  0
   28.1745  -29.8770  -16.1514 N   0  0  0  0  0  0  0  0  0  0  0  0
   26.3978  -28.8913  -17.3899 N   0  0  0  0  0  0  0  0  0  0  0  0
   25.5299  -27.7415  -17.5391 C   0  0  0  0  0  0  0  0  0  0  0  0
   24.5993  -27.5758  -16.3539 C   0  0  0  0  0  0  0  0  0  0  0  0
   23.6020  -26.4490  -16.6069 C   0  0  0  0  0  0  0  0  0  0  0  0
   22.6671  -26.2750  -15.4482 C   0  0  2  0  0  0  0  0  0  0  0  0
   22.0011  -27.4835  -15.0525 N   0  0  0  0  0  0  0  0  0  0  0  0
   21.6323  -25.2959  -15.8709 C   0  0  0  0  0  0  0  0  0  0  0  0
   20.8387  -25.5933  -16.8047 O   0  0  0  0  0  0  0  0  0  0  0  0
   27.8869  -30.8084  -16.4938 C   0  0  0  0  0  0  0  0  0  0  0  0
   18.7938  -23.7179  -14.0362 C   0  0  2  0  0  0  0  0  0  0  0  0
   19.6215  -22.5914  -14.6030 O   0  0  0  0  0  0  0  0  0  0  0  0
   20.5073  -22.1781  -13.6075 C   0  0  2  0  0  0  0  0  0  0  0  0
   20.4535  -23.1384  -15.7510 N   0  0  0  0  0  0  0  0  0  0  0  0
   21.4871  -24.0247  -15.2710 C   0  0  0  0  0  0  0  0  0  0  0  0
   21.0758  -22.0550  -16.5350 O   0  0  0  0  0  0  0  0  0  0  0  0
   22.3198  -21.9680  -16.6607 O   0  0  0  0  0  0  0  0  0  0  0  0
  1  2  1  0
  2  3  2  0
  4  5  1  0
  4  2  1  0
  5  6  1  0
  6  8  1  0
  6  7  1  1
  8  9  2  0
 11 13  1  0
 11 10  1  0
 12 11  2  0
 14 13  1  0
 15 14  1  0
 15 16  1  0
 17 16  1  6
 18 17  1  0
 18  8  1  0
 19 17  1  0
 20 19  2  0
 22 21  1  1
 22 24  1  0
 23 22  1  0
 24 25  1  6
 25 19  1  0
 26 24  1  0
 26 28  1  0
 27 26  2  0
M  END
$$$$
