QRT.pdb
     RDKit          3D

 28 27  0  0  1  0  0  0  0  0999 V2000
   28.6803  -21.1184  -20.4238 N   0  0  0  0  0  0  0  0  0  0  0  0
   29.5767  -20.2565  -19.7526 C   0  0  0  0  0  0  0  0  0  0  0  0
   30.6010  -19.8900  -20.3626 O   0  0  0  0  0  0  0  0  0  0  0  0
   29.2968  -19.8217  -18.3956 C   0  0  0  0  0  0  0  0  0  0  0  0
   28.0248  -20.2951  -17.7944 C   0  0  0  0  0  0  0  0  0  0  0  0
   28.2017  -21.1598  -16.5634 C   0  0  2  0  0  0  0  0  0  0  0  0
   28.7399  -22.4514  -16.9433 N   0  0  0  0  0  0  0  0  0  0  0  0
   26.9143  -21.3783  -15.8693 C   0  0  0  0  0  0  0  0  0  0  0  0
   25.9508  -22.0228  -16.3578 O   0  0  0  0  0  0  0  0  0  0  0  0
   22.2499  -19.6959  -10.4846 N   0  0  0  0  0  0  0  0  0  0  0  0
   22.3312  -20.6698   -9.4316 C   0  0  0  0  0  0  0  0  0  0  0  0
   21.2987  -20.9225   -8.7041 N   0  0  0  0  0  0  0  0  0  0  0  0
   23.5813  -21.3125   -9.2514 N   0  0  0  0  0  0  0  0  0  0  0  0
   24.7295  -20.9156  -10.0398 C   0  0  0  0  0  0  0  0  0  0  0  0
   24.4756  -21.0653  -11.5269 C   0  0  0  0  0  0  0  0  0  0  0  0
   25.7400  -20.7536  -12.3222 C   0  0  0  0  0  0  0  0  0  0  0  0
   25.5319  -20.9752  -13.7900 C   0  0  2  0  0  0  0  0  0  0  0  0
   26.7274  -20.8402  -14.5731 N   0  0  0  0  0  0  0  0  0  0  0  0
   24.5618  -19.9475  -14.2492 C   0  0  0  0  0  0  0  0  0  0  0  0
   24.7769  -18.7312  -13.9952 O   0  0  0  0  0  0  0  0  0  0  0  0
   21.3509  -21.6638   -7.9861 C   0  0  0  0  0  0  0  0  0  0  0  0
   23.6363  -18.5856  -17.3777 C   0  0  2  0  0  0  0  0  0  0  0  0
   22.3224  -19.0690  -16.8160 O   0  0  0  0  0  0  0  0  0  0  0  0
   22.0887  -20.3445  -17.3309 C   0  0  2  0  0  0  0  0  0  0  0  0
   22.4671  -19.2082  -15.3097 N   0  0  0  0  0  0  0  0  0  0  0  0
   23.3882  -20.2664  -14.9690 C   0  0  0  0  0  0  0  0  0  0  0  0
   21.1691  -19.4743  -14.6617 O   0  0  0  0  0  0  0  0  0  0  0  0
   20.9562  -20.5371  -14.0324 O   0  0  0  0  0  0  0  0  0  0  0  0
  1  2  1  0
  2  3  2  0
  4  5  1  0
  4  2  1  0
  5  6  1  0
  6  8  1  0
  6  7  1  6
  8  9  2  0
 11 13  1  0
 11 10  1  0
 12 11  2  0
 14 13  1  0
 15 14  1  0
 15 16  1  0
 17 16  1  1
 18 17  1  0
 18  8  1  0
 19 17  1  0
 20 19  2  0
 22 21  1  6
 22 24  1  0
 23 22  1  0
 24 25  1  1
 25 19  1  0
 26 24  1  0
 26 28  1  0
 27 26  2  0
M  END
$$$$
