QRT.pdb
     RDKit          3D

 28 27  0  0  1  0  0  0  0  0999 V2000
   16.5741  -26.8134   -5.7708 N   0  0  0  0  0  0  0  0  0  0  0  0
   17.3533  -27.6898   -6.5592 C   0  0  0  0  0  0  0  0  0  0  0  0
   17.4665  -28.8723   -6.1788 O   0  0  0  0  0  0  0  0  0  0  0  0
   17.9941  -27.2106   -7.7710 C   0  0  0  0  0  0  0  0  0  0  0  0
   17.6806  -25.8196   -8.1840 C   0  0  0  0  0  0  0  0  0  0  0  0
   18.7633  -24.8131   -7.8541 C   0  0  2  0  0  0  0  0  0  0  0  0
   18.6067  -24.3526   -6.4882 N   0  0  0  0  0  0  0  0  0  0  0  0
   18.6983  -23.6390   -8.7510 C   0  0  0  0  0  0  0  0  0  0  0  0
   17.7138  -22.8592   -8.8208 O   0  0  0  0  0  0  0  0  0  0  0  0
   25.2438  -21.6530  -12.4440 N   0  0  0  0  0  0  0  0  0  0  0  0
   24.3407  -21.7540  -13.5567 C   0  0  0  0  0  0  0  0  0  0  0  0
   24.6644  -22.4509  -14.5905 N   0  0  0  0  0  0  0  0  0  0  0  0
   23.1108  -21.0586  -13.4461 N   0  0  0  0  0  0  0  0  0  0  0  0
   22.7667  -20.3693  -12.2197 C   0  0  0  0  0  0  0  0  0  0  0  0
   21.3442  -20.6616  -11.7847 C   0  0  0  0  0  0  0  0  0  0  0  0
   21.2927  -21.9221  -10.9265 C   0  0  0  0  0  0  0  0  0  0  0  0
   19.8984  -22.2076  -10.4562 C   0  0  2  0  0  0  0  0  0  0  0  0
   19.7987  -23.3510   -9.5941 N   0  0  0  0  0  0  0  0  0  0  0  0
   19.0790  -22.4711  -11.6676 C   0  0  0  0  0  0  0  0  0  0  0  0
   19.2581  -23.5349  -12.3206 O   0  0  0  0  0  0  0  0  0  0  0  0
   25.5070  -23.0482  -14.5585 C   0  0  0  0  0  0  0  0  0  0  0  0
   15.4012  -22.9405  -12.1699 C   0  0  2  0  0  0  0  0  0  0  0  0
   15.8349  -21.7977  -13.0540 O   0  0  0  0  0  0  0  0  0  0  0  0
   15.6374  -20.6153  -12.3401 C   0  0  2  0  0  0  0  0  0  0  0  0
   17.3271  -21.9287  -13.3094 N   0  0  0  0  0  0  0  0  0  0  0  0
   18.0908  -21.5761  -12.1361 C   0  0  0  0  0  0  0  0  0  0  0  0
   17.7614  -21.0830  -14.4371 O   0  0  0  0  0  0  0  0  0  0  0  0
   18.6003  -20.1647  -14.2828 O   0  0  0  0  0  0  0  0  0  0  0  0
  1  2  1  0
  2  3  2  0
  4  5  1  0
  4  2  1  0
  5  6  1  0
  6  8  1  0
  6  7  1  1
  8  9  2  0
 11 13  1  0
 11 10  1  0
 12 11  2  0
 14 13  1  0
 15 14  1  0
 15 16  1  0
 17 16  1  6
 18 17  1  0
 18  8  1  0
 19 17  1  0
 20 19  2  0
 22 21  1  6
 22 24  1  0
 23 22  1  0
 24 25  1  6
 25 19  1  0
 26 24  1  0
 26 28  1  0
 27 26  2  0
M  END
$$$$
