QRT.pdb
     RDKit          3D

 28 27  0  0  1  0  0  0  0  0999 V2000
   26.8151  -17.9101  -19.7055 N   0  0  0  0  0  0  0  0  0  0  0  0
   28.1067  -17.5563  -19.2543 C   0  0  0  0  0  0  0  0  0  0  0  0
   28.5803  -16.4674  -19.6359 O   0  0  0  0  0  0  0  0  0  0  0  0
   28.8440  -18.4456  -18.3744 C   0  0  0  0  0  0  0  0  0  0  0  0
   28.0403  -19.3830  -17.5503 C   0  0  0  0  0  0  0  0  0  0  0  0
   27.0790  -18.7056  -16.5956 C   0  0  2  0  0  0  0  0  0  0  0  0
   27.8137  -17.8555  -15.6793 N   0  0  0  0  0  0  0  0  0  0  0  0
   26.3194  -19.6966  -15.8031 C   0  0  0  0  0  0  0  0  0  0  0  0
   25.9406  -20.8116  -16.2453 O   0  0  0  0  0  0  0  0  0  0  0  0
   23.7024  -19.7508   -7.8429 N   0  0  0  0  0  0  0  0  0  0  0  0
   23.4889  -21.1516   -8.0797 C   0  0  0  0  0  0  0  0  0  0  0  0
   22.5112  -21.7624   -7.5051 N   0  0  0  0  0  0  0  0  0  0  0  0
   24.3955  -21.7962   -8.9577 N   0  0  0  0  0  0  0  0  0  0  0  0
   25.2470  -21.0173   -9.8328 C   0  0  0  0  0  0  0  0  0  0  0  0
   24.7393  -21.0122  -11.2612 C   0  0  0  0  0  0  0  0  0  0  0  0
   25.6944  -20.2421  -12.1684 C   0  0  0  0  0  0  0  0  0  0  0  0
   25.2244  -20.2515  -13.5918 C   0  0  2  0  0  0  0  0  0  0  0  0
   25.9845  -19.3979  -14.4602 N   0  0  0  0  0  0  0  0  0  0  0  0
   23.8189  -19.7690  -13.5862 C   0  0  0  0  0  0  0  0  0  0  0  0
   23.5507  -18.6396  -13.0935 O   0  0  0  0  0  0  0  0  0  0  0  0
   22.3585  -22.7671   -7.6917 C   0  0  0  0  0  0  0  0  0  0  0  0
   21.6882  -18.4468  -15.9423 C   0  0  2  0  0  0  0  0  0  0  0  0
   20.8911  -19.6189  -15.4264 O   0  0  0  0  0  0  0  0  0  0  0  0
   21.1488  -20.7044  -16.2643 C   0  0  2  0  0  0  0  0  0  0  0  0
   21.4098  -19.9805  -14.0445 N   0  0  0  0  0  0  0  0  0  0  0  0
   22.7460  -20.5225  -14.1134 C   0  0  0  0  0  0  0  0  0  0  0  0
   20.5302  -20.9551  -13.3722 O   0  0  0  0  0  0  0  0  0  0  0  0
   20.9316  -22.1048  -13.0756 O   0  0  0  0  0  0  0  0  0  0  0  0
  1  2  1  0
  2  3  2  0
  4  5  1  0
  4  2  1  0
  5  6  1  0
  6  8  1  0
  6  7  1  1
  8  9  2  0
 11 13  1  0
 11 10  1  0
 12 11  2  0
 14 13  1  0
 15 14  1  0
 15 16  1  0
 17 16  1  1
 18 17  1  0
 18  8  1  0
 19 17  1  0
 20 19  2  0
 22 21  1  6
 22 24  1  0
 23 22  1  0
 24 25  1  1
 25 19  1  0
 26 24  1  0
 26 28  1  0
 27 26  2  0
M  END
$$$$
