QRT.pdb
     RDKit          3D

 28 27  0  0  1  0  0  0  0  0999 V2000
   15.0830   -6.2073   -7.7499 N   0  0  0  0  0  0  0  0  0  0  0  0
   13.9075   -6.9305   -8.0535 C   0  0  0  0  0  0  0  0  0  0  0  0
   12.8588   -6.6174   -7.4553 O   0  0  0  0  0  0  0  0  0  0  0  0
   13.9392   -8.0012   -9.0340 C   0  0  0  0  0  0  0  0  0  0  0  0
   15.2407   -8.2531   -9.7021 C   0  0  0  0  0  0  0  0  0  0  0  0
   15.1821   -9.2828  -10.8115 C   0  0  2  0  0  0  0  0  0  0  0  0
   14.8305  -10.5777  -10.2621 N   0  0  0  0  0  0  0  0  0  0  0  0
   16.4852   -9.4078  -11.4994 C   0  0  0  0  0  0  0  0  0  0  0  0
   17.4227  -10.1476  -11.1041 O   0  0  0  0  0  0  0  0  0  0  0  0
   16.6852  -11.4205  -19.2988 N   0  0  0  0  0  0  0  0  0  0  0  0
   16.2004  -12.2899  -18.2630 C   0  0  0  0  0  0  0  0  0  0  0  0
   15.6544  -13.4161  -18.5676 N   0  0  0  0  0  0  0  0  0  0  0  0
   16.3563  -11.8412  -16.9278 N   0  0  0  0  0  0  0  0  0  0  0  0
   16.9813  -10.5641  -16.6524 C   0  0  0  0  0  0  0  0  0  0  0  0
   17.1180  -10.3085  -15.1643 C   0  0  0  0  0  0  0  0  0  0  0  0
   17.7210   -8.9305  -14.9087 C   0  0  0  0  0  0  0  0  0  0  0  0
   17.9330   -8.6888  -13.4446 C   0  0  2  0  0  0  0  0  0  0  0  0
   16.7193   -8.6602  -12.6787 N   0  0  0  0  0  0  0  0  0  0  0  0
   18.5903   -7.3622  -13.3161 C   0  0  0  0  0  0  0  0  0  0  0  0
   17.8982   -6.3127  -13.4143 O   0  0  0  0  0  0  0  0  0  0  0  0
   15.3127  -14.0363  -17.8151 C   0  0  0  0  0  0  0  0  0  0  0  0
   20.1153   -5.7746  -10.4752 C   0  0  2  0  0  0  0  0  0  0  0  0
   21.1844   -5.7512  -11.5392 O   0  0  0  0  0  0  0  0  0  0  0  0
   21.9831   -6.8807  -11.3578 C   0  0  2  0  0  0  0  0  0  0  0  0
   20.5133   -5.8843  -12.8961 N   0  0  0  0  0  0  0  0  0  0  0  0
   19.9762   -7.2109  -13.0854 C   0  0  0  0  0  0  0  0  0  0  0  0
   21.4485   -5.5833  -13.9963 O   0  0  0  0  0  0  0  0  0  0  0  0
   22.0054   -4.4649  -14.0958 O   0  0  0  0  0  0  0  0  0  0  0  0
  1  2  1  0
  2  3  2  0
  4  5  1  0
  4  2  1  0
  5  6  1  0
  6  8  1  0
  6  7  1  1
  8  9  2  0
 11 13  1  0
 11 10  1  0
 12 11  2  0
 14 13  1  0
 15 14  1  0
 15 16  1  0
 17 16  1  6
 18 17  1  0
 18  8  1  0
 19 17  1  0
 20 19  2  0
 22 21  1  1
 22 24  1  0
 23 22  1  0
 24 25  1  6
 25 19  1  0
 26 24  1  0
 26 28  1  0
 27 26  2  0
M  END
$$$$
