QRT.pdb
     RDKit          3D

 28 27  0  0  1  0  0  0  0  0999 V2000
   24.4569  -19.5363  -15.6891 N   0  0  0  0  0  0  0  0  0  0  0  0
   23.7948  -19.7770  -16.9141 C   0  0  0  0  0  0  0  0  0  0  0  0
   23.3661  -20.9283  -17.1293 O   0  0  0  0  0  0  0  0  0  0  0  0
   23.6281  -18.7050  -17.8794 C   0  0  0  0  0  0  0  0  0  0  0  0
   22.5691  -17.7063  -17.5882 C   0  0  0  0  0  0  0  0  0  0  0  0
   21.1812  -18.2951  -17.4418 C   0  0  2  0  0  0  0  0  0  0  0  0
   21.0029  -19.3755  -18.3920 N   0  0  0  0  0  0  0  0  0  0  0  0
   20.1361  -17.2789  -17.6915 C   0  0  0  0  0  0  0  0  0  0  0  0
   19.6251  -17.0561  -18.8191 O   0  0  0  0  0  0  0  0  0  0  0  0
   12.9303  -15.7664  -13.2321 N   0  0  0  0  0  0  0  0  0  0  0  0
   12.8577  -14.7065  -14.1991 C   0  0  0  0  0  0  0  0  0  0  0  0
   11.7895  -13.9934  -14.2974 N   0  0  0  0  0  0  0  0  0  0  0  0
   14.0010  -14.5043  -15.0119 N   0  0  0  0  0  0  0  0  0  0  0  0
   15.1686  -15.3469  -14.8565 C   0  0  0  0  0  0  0  0  0  0  0  0
   16.2601  -14.9920  -15.8469 C   0  0  0  0  0  0  0  0  0  0  0  0
   17.4546  -15.9282  -15.6888 C   0  0  0  0  0  0  0  0  0  0  0  0
   18.5380  -15.6042  -16.6727 C   0  0  2  0  0  0  0  0  0  0  0  0
   19.6627  -16.4941  -16.6124 N   0  0  0  0  0  0  0  0  0  0  0  0
   19.0168  -14.2342  -16.3530 C   0  0  0  0  0  0  0  0  0  0  0  0
   19.7215  -14.0456  -15.3244 O   0  0  0  0  0  0  0  0  0  0  0  0
   11.7635  -13.2046  -14.9643 C   0  0  0  0  0  0  0  0  0  0  0  0
   20.8916  -11.6704  -18.6097 C   0  0  2  0  0  0  0  0  0  0  0  0
   19.6683  -11.0238  -18.0089 O   0  0  0  0  0  0  0  0  0  0  0  0
   18.6355  -11.1304  -18.9409 C   0  0  2  0  0  0  0  0  0  0  0  0
   19.2567  -11.8226  -16.7834 N   0  0  0  0  0  0  0  0  0  0  0  0
   18.7189  -13.1097  -17.1553 C   0  0  0  0  0  0  0  0  0  0  0  0
   18.2571  -11.1000  -15.9747 O   0  0  0  0  0  0  0  0  0  0  0  0
   17.0922  -11.5383  -15.8272 O   0  0  0  0  0  0  0  0  0  0  0  0
  1  2  1  0
  2  3  2  0
  4  5  1  0
  4  2  1  0
  5  6  1  0
  6  8  1  0
  6  7  1  6
  8  9  2  0
 11 13  1  0
 11 10  1  0
 12 11  2  0
 14 13  1  0
 15 14  1  0
 15 16  1  0
 17 16  1  1
 18 17  1  0
 18  8  1  0
 19 17  1  0
 20 19  2  0
 22 21  1  6
 22 24  1  0
 23 22  1  0
 24 25  1  1
 25 19  1  0
 26 24  1  0
 26 28  1  0
 27 26  2  0
M  END
$$$$
