SLD.pdb
     RDKit          3D

 23 22  0  0  1  0  0  0  0  0999 V2000
    7.5168  -18.7817   23.4251 O   0  0  0  0  0  0  0  0  0  0  0  0
    7.9386  -18.4482   22.1599 C   0  0  0  0  0  0  0  0  0  0  0  0
    7.5763  -17.0028   21.8027 C   0  0  2  0  0  0  0  0  0  0  0  0
    8.1619  -16.7359   20.5013 N   0  0  0  0  0  0  0  0  0  0  0  0
    8.1245  -16.0586   22.8043 C   0  0  0  0  0  0  0  0  0  0  0  0
    9.3420  -15.7141   22.8240 O   0  0  0  0  0  0  0  0  0  0  0  0
    6.0572  -12.1230   27.2088 C   0  0  0  0  0  0  0  0  0  0  0  0
    7.1528  -12.7366   26.3896 C   0  0  2  0  0  0  0  0  0  0  0  0
    7.7353  -11.6384   25.5220 C   0  0  0  0  0  0  0  0  0  0  0  0
    6.6704  -13.8226   25.4745 C   0  0  0  0  0  0  0  0  0  0  0  0
    7.8082  -14.5481   24.7774 C   0  0  2  0  0  0  0  0  0  0  0  0
    7.2754  -15.4981   23.7975 N   0  0  0  0  0  0  0  0  0  0  0  0
    8.5266  -15.3412   25.8306 C   0  0  0  0  0  0  0  0  0  0  0  0
    7.9871  -16.3397   26.3709 O   0  0  0  0  0  0  0  0  0  0  0  0
    9.8362  -14.9976   26.2548 N   0  0  0  0  0  0  0  0  0  0  0  0
   10.5897  -15.8207   27.1640 C   0  0  1  0  0  0  0  0  0  0  0  0
   12.0627  -15.8261   26.8312 C   0  0  0  0  0  0  0  0  0  0  0  0
   12.3976  -16.6807   25.6827 C   0  0  0  0  0  0  0  0  0  0  0  0
   11.9183  -17.8297   25.5724 O   0  0  0  0  0  0  0  0  0  0  0  0
   10.3379  -15.4339   28.5899 C   0  0  0  0  0  0  0  0  0  0  0  0
   10.5121  -16.2481   29.5145 O   0  0  0  0  0  0  0  0  0  0  0  0
   13.2550  -16.2240   24.6983 O   0  0  0  0  0  0  0  0  0  0  0  0
    9.9047  -14.1657   28.9323 O   0  0  0  0  0  0  0  0  0  0  0  0
  2  1  1  0
  3  4  1  6
  3  2  1  0
  5  3  1  0
  6  5  2  0
  8  7  1  6
  8 10  1  0
  9  8  1  0
 11 10  1  1
 11 13  1  0
 11 12  1  0
 12  5  1  0
 13 15  1  0
 14 13  2  0
 15 16  1  0
 16 17  1  6
 16 20  1  0
 18 17  1  0
 19 18  2  0
 20 21  2  0
 20 23  1  0
 22 18  1  0
M  END
$$$$
