SLD.pdb
     RDKit          3D

 23 22  0  0  1  0  0  0  0  0999 V2000
    8.5250  -17.6626   21.0795 O   0  0  0  0  0  0  0  0  0  0  0  0
    7.3700  -16.9282   20.9503 C   0  0  0  0  0  0  0  0  0  0  0  0
    7.6438  -15.4220   21.0177 C   0  0  2  0  0  0  0  0  0  0  0  0
    8.5001  -15.1034   19.8895 N   0  0  0  0  0  0  0  0  0  0  0  0
    8.3263  -15.0660   22.2837 C   0  0  0  0  0  0  0  0  0  0  0  0
    9.5845  -14.9702   22.3783 O   0  0  0  0  0  0  0  0  0  0  0  0
    8.0575  -11.7786   25.9629 C   0  0  0  0  0  0  0  0  0  0  0  0
    6.9149  -12.6877   25.6222 C   0  0  2  0  0  0  0  0  0  0  0  0
    5.7838  -12.3673   26.5793 C   0  0  0  0  0  0  0  0  0  0  0  0
    7.2449  -14.1413   25.7888 C   0  0  0  0  0  0  0  0  0  0  0  0
    8.2355  -14.6385   24.7503 C   0  0  2  0  0  0  0  0  0  0  0  0
    7.5663  -14.8151   23.4589 N   0  0  0  0  0  0  0  0  0  0  0  0
    8.6999  -15.9914   25.2067 C   0  0  0  0  0  0  0  0  0  0  0  0
    7.9493  -16.9963   25.1242 O   0  0  0  0  0  0  0  0  0  0  0  0
    9.9975  -16.1884   25.7455 N   0  0  0  0  0  0  0  0  0  0  0  0
   10.5071  -17.4968   26.0622 C   0  0  1  0  0  0  0  0  0  0  0  0
   11.8319  -17.7643   25.3884 C   0  0  0  0  0  0  0  0  0  0  0  0
   12.4268  -19.0551   25.7646 C   0  0  0  0  0  0  0  0  0  0  0  0
   11.8570  -20.1328   25.4885 O   0  0  0  0  0  0  0  0  0  0  0  0
   10.5770  -17.7136   27.5436 C   0  0  0  0  0  0  0  0  0  0  0  0
   10.7044  -18.8567   28.0180 O   0  0  0  0  0  0  0  0  0  0  0  0
   13.6355  -19.0986   26.4354 O   0  0  0  0  0  0  0  0  0  0  0  0
   10.5029  -16.6591   28.4357 O   0  0  0  0  0  0  0  0  0  0  0  0
  2  1  1  0
  3  4  1  6
  3  2  1  0
  5  3  1  0
  6  5  2  0
  8  7  1  1
  8 10  1  0
  9  8  1  0
 11 10  1  1
 11 13  1  0
 11 12  1  0
 12  5  1  0
 13 15  1  0
 14 13  2  0
 15 16  1  0
 16 17  1  1
 16 20  1  0
 18 17  1  0
 19 18  2  0
 20 21  2  0
 20 23  1  0
 22 18  1  0
M  END
$$$$
