SLD.pdb
     RDKit          3D

 23 22  0  0  1  0  0  0  0  0999 V2000
    6.7794  -17.3377   20.4495 O   0  0  0  0  0  0  0  0  0  0  0  0
    7.7382  -16.8408   21.3002 C   0  0  0  0  0  0  0  0  0  0  0  0
    7.5051  -15.3596   21.6161 C   0  0  2  0  0  0  0  0  0  0  0  0
    7.9644  -14.6100   20.4608 N   0  0  0  0  0  0  0  0  0  0  0  0
    8.2687  -14.9500   22.8178 C   0  0  0  0  0  0  0  0  0  0  0  0
    9.5120  -14.7158   22.7905 O   0  0  0  0  0  0  0  0  0  0  0  0
    7.7369  -11.3687   25.8146 C   0  0  0  0  0  0  0  0  0  0  0  0
    6.7501  -12.4946   25.8935 C   0  0  2  0  0  0  0  0  0  0  0  0
    5.7394  -12.1334   26.9640 C   0  0  0  0  0  0  0  0  0  0  0  0
    7.3728  -13.8010   26.2874 C   0  0  0  0  0  0  0  0  0  0  0  0
    8.3425  -14.3251   25.2425 C   0  0  2  0  0  0  0  0  0  0  0  0
    7.6085  -14.8044   24.0686 N   0  0  0  0  0  0  0  0  0  0  0  0
    9.0402  -15.5066   25.8521 C   0  0  0  0  0  0  0  0  0  0  0  0
    8.4011  -16.5373   26.1825 O   0  0  0  0  0  0  0  0  0  0  0  0
   10.4410  -15.5069   26.0773 N   0  0  0  0  0  0  0  0  0  0  0  0
   11.1153  -16.6048   26.7190 C   0  0  1  0  0  0  0  0  0  0  0  0
   12.5678  -16.6887   26.3141 C   0  0  0  0  0  0  0  0  0  0  0  0
   12.7652  -16.7331   24.8579 C   0  0  0  0  0  0  0  0  0  0  0  0
   12.0076  -17.4042   24.1245 O   0  0  0  0  0  0  0  0  0  0  0  0
   10.9498  -16.5546   28.2077 C   0  0  0  0  0  0  0  0  0  0  0  0
   11.3659  -17.4784   28.9298 O   0  0  0  0  0  0  0  0  0  0  0  0
   13.8004  -16.0281   24.2711 O   0  0  0  0  0  0  0  0  0  0  0  0
   10.3320  -15.4869   28.8337 O   0  0  0  0  0  0  0  0  0  0  0  0
  2  1  1  0
  3  4  1  6
  3  2  1  0
  5  3  1  0
  6  5  2  0
  8  7  1  1
  8 10  1  0
  9  8  1  0
 11 10  1  1
 11 13  1  0
 11 12  1  0
 12  5  1  0
 13 15  1  0
 14 13  2  0
 15 16  1  0
 16 17  1  1
 16 20  1  0
 18 17  1  0
 19 18  2  0
 20 21  2  0
 20 23  1  0
 22 18  1  0
M  END
$$$$
