SLD.pdb
     RDKit          3D

 23 22  0  0  1  0  0  0  0  0999 V2000
    8.8837  -18.1942   21.4431 O   0  0  0  0  0  0  0  0  0  0  0  0
    7.6488  -17.5911   21.4789 C   0  0  0  0  0  0  0  0  0  0  0  0
    7.7318  -16.1043   21.1177 C   0  0  2  0  0  0  0  0  0  0  0  0
    8.6371  -16.0001   19.9876 N   0  0  0  0  0  0  0  0  0  0  0  0
    8.2548  -15.3133   22.2561 C   0  0  0  0  0  0  0  0  0  0  0  0
    9.4619  -14.9413   22.3324 O   0  0  0  0  0  0  0  0  0  0  0  0
    6.1677  -12.2938   27.3241 C   0  0  0  0  0  0  0  0  0  0  0  0
    7.2786  -12.8531   26.4868 C   0  0  2  0  0  0  0  0  0  0  0  0
    8.0934  -11.6803   25.9782 C   0  0  0  0  0  0  0  0  0  0  0  0
    6.7919  -13.6137   25.2892 C   0  0  0  0  0  0  0  0  0  0  0  0
    7.9244  -14.2438   24.4971 C   0  0  2  0  0  0  0  0  0  0  0  0
    7.3921  -14.9399   23.3228 N   0  0  0  0  0  0  0  0  0  0  0  0
    8.5540  -15.2763   25.3870 C   0  0  0  0  0  0  0  0  0  0  0  0
    7.9003  -16.2724   25.7875 O   0  0  0  0  0  0  0  0  0  0  0  0
    9.9047  -15.1697   25.8080 N   0  0  0  0  0  0  0  0  0  0  0  0
   10.5430  -16.1842   26.6050 C   0  0  1  0  0  0  0  0  0  0  0  0
   12.0329  -16.2365   26.3638 C   0  0  0  0  0  0  0  0  0  0  0  0
   12.3885  -16.6843   25.0093 C   0  0  0  0  0  0  0  0  0  0  0  0
   11.6824  -17.5153   24.3986 O   0  0  0  0  0  0  0  0  0  0  0  0
   10.2151  -16.0253   28.0589 C   0  0  0  0  0  0  0  0  0  0  0  0
   10.5206  -16.9050   28.8839 O   0  0  0  0  0  0  0  0  0  0  0  0
   13.5189  -16.1900   24.3841 O   0  0  0  0  0  0  0  0  0  0  0  0
    9.5644  -14.9025   28.5377 O   0  0  0  0  0  0  0  0  0  0  0  0
  2  1  1  0
  3  4  1  6
  3  2  1  0
  5  3  1  0
  6  5  2  0
  8  7  1  6
  8 10  1  0
  9  8  1  0
 11 10  1  1
 11 13  1  0
 11 12  1  0
 12  5  1  0
 13 15  1  0
 14 13  2  0
 15 16  1  0
 16 17  1  1
 16 20  1  0
 18 17  1  0
 19 18  2  0
 20 21  2  0
 20 23  1  0
 22 18  1  0
M  END
$$$$
