SLD.pdb
     RDKit          3D

 23 22  0  0  1  0  0  0  0  0999 V2000
    8.1552  -17.6420   20.8730 O   0  0  0  0  0  0  0  0  0  0  0  0
    6.9578  -17.0018   20.6578 C   0  0  0  0  0  0  0  0  0  0  0  0
    7.1302  -15.4805   20.5943 C   0  0  2  0  0  0  0  0  0  0  0  0
    7.9762  -15.2046   19.4473 N   0  0  0  0  0  0  0  0  0  0  0  0
    7.7731  -14.9705   21.8280 C   0  0  0  0  0  0  0  0  0  0  0  0
    9.0157  -14.7455   21.9081 O   0  0  0  0  0  0  0  0  0  0  0  0
    6.1016  -12.6537   27.4003 C   0  0  0  0  0  0  0  0  0  0  0  0
    7.1405  -13.0956   26.4138 C   0  0  2  0  0  0  0  0  0  0  0  0
    7.9473  -11.8708   26.0304 C   0  0  0  0  0  0  0  0  0  0  0  0
    6.5570  -13.6608   25.1529 C   0  0  0  0  0  0  0  0  0  0  0  0
    7.6183  -14.1871   24.2023 C   0  0  2  0  0  0  0  0  0  0  0  0
    6.9909  -14.7127   22.9870 N   0  0  0  0  0  0  0  0  0  0  0  0
    8.2908  -15.3362   24.8963 C   0  0  0  0  0  0  0  0  0  0  0  0
    7.6450  -16.3637   25.2234 O   0  0  0  0  0  0  0  0  0  0  0  0
    9.6747  -15.3083   25.2079 N   0  0  0  0  0  0  0  0  0  0  0  0
   10.3298  -16.3922   25.8919 C   0  0  1  0  0  0  0  0  0  0  0  0
   11.7804  -16.5174   25.4910 C   0  0  0  0  0  0  0  0  0  0  0  0
   11.9667  -16.8166   24.0637 C   0  0  0  0  0  0  0  0  0  0  0  0
   12.8268  -16.2146   23.3855 O   0  0  0  0  0  0  0  0  0  0  0  0
   10.1657  -16.2812   27.3776 C   0  0  0  0  0  0  0  0  0  0  0  0
    9.7107  -15.2457   27.8958 O   0  0  0  0  0  0  0  0  0  0  0  0
   11.1873  -17.7760   23.4431 O   0  0  0  0  0  0  0  0  0  0  0  0
   10.5114  -17.3181   28.2254 O   0  0  0  0  0  0  0  0  0  0  0  0
  2  1  1  0
  3  4  1  6
  3  2  1  0
  5  3  1  0
  6  5  2  0
  8  7  1  1
  8 10  1  0
  9  8  1  0
 11 10  1  1
 11 13  1  0
 11 12  1  0
 12  5  1  0
 13 15  1  0
 14 13  2  0
 15 16  1  0
 16 17  1  1
 16 20  1  0
 18 17  1  0
 19 18  2  0
 20 21  2  0
 20 23  1  0
 22 18  1  0
M  END
$$$$
