SLD.pdb
     RDKit          3D

 23 22  0  0  1  0  0  0  0  0999 V2000
    7.7385  -17.8528   22.6510 O   0  0  0  0  0  0  0  0  0  0  0  0
    7.9369  -17.1513   21.4855 C   0  0  0  0  0  0  0  0  0  0  0  0
    7.5588  -15.6744   21.6397 C   0  0  2  0  0  0  0  0  0  0  0  0
    7.8648  -15.0317   20.3745 N   0  0  0  0  0  0  0  0  0  0  0  0
    8.3397  -15.0408   22.7278 C   0  0  0  0  0  0  0  0  0  0  0  0
    9.5246  -14.6267   22.5668 O   0  0  0  0  0  0  0  0  0  0  0  0
    7.3220  -11.4508   25.1339 C   0  0  0  0  0  0  0  0  0  0  0  0
    6.6458  -12.6962   25.6236 C   0  0  2  0  0  0  0  0  0  0  0  0
    5.7245  -12.2921   26.7575 C   0  0  0  0  0  0  0  0  0  0  0  0
    7.6033  -13.7156   26.1655 C   0  0  0  0  0  0  0  0  0  0  0  0
    8.5378  -14.2638   25.1010 C   0  0  2  0  0  0  0  0  0  0  0  0
    7.7644  -14.8757   24.0175 N   0  0  0  0  0  0  0  0  0  0  0  0
    9.3441  -15.3514   25.7501 C   0  0  0  0  0  0  0  0  0  0  0  0
    9.9542  -15.1494   26.8303 O   0  0  0  0  0  0  0  0  0  0  0  0
    9.4480  -16.6436   25.1736 N   0  0  0  0  0  0  0  0  0  0  0  0
   10.3660  -17.6347   25.6705 C   0  0  1  0  0  0  0  0  0  0  0  0
    9.9596  -19.0322   25.2677 C   0  0  0  0  0  0  0  0  0  0  0  0
    9.5189  -19.8601   26.3999 C   0  0  0  0  0  0  0  0  0  0  0  0
   10.2284  -19.9867   27.4210 O   0  0  0  0  0  0  0  0  0  0  0  0
   11.7768  -17.3235   25.2715 C   0  0  0  0  0  0  0  0  0  0  0  0
   12.7104  -17.4259   26.0875 O   0  0  0  0  0  0  0  0  0  0  0  0
    8.3030  -20.5177   26.3532 O   0  0  0  0  0  0  0  0  0  0  0  0
   12.0947  -16.9127   23.9894 O   0  0  0  0  0  0  0  0  0  0  0  0
  2  1  1  0
  3  4  1  6
  3  2  1  0
  5  3  1  0
  6  5  2  0
  8  7  1  1
  8 10  1  0
  9  8  1  0
 11 10  1  1
 11 13  1  0
 11 12  1  0
 12  5  1  0
 13 15  1  0
 14 13  2  0
 15 16  1  0
 16 17  1  6
 16 20  1  0
 18 17  1  0
 19 18  2  0
 20 21  2  0
 20 23  1  0
 22 18  1  0
M  END
$$$$
