SLD.pdb
     RDKit          3D

 23 22  0  0  1  0  0  0  0  0999 V2000
    7.6590  -16.9252   20.8268 O   0  0  0  0  0  0  0  0  0  0  0  0
    6.6170  -16.0289   20.8567 C   0  0  0  0  0  0  0  0  0  0  0  0
    7.1028  -14.6018   21.1314 C   0  0  2  0  0  0  0  0  0  0  0  0
    7.9116  -14.2103   19.9912 N   0  0  0  0  0  0  0  0  0  0  0  0
    7.9177  -14.5508   22.3677 C   0  0  0  0  0  0  0  0  0  0  0  0
    9.1822  -14.5970   22.3550 O   0  0  0  0  0  0  0  0  0  0  0  0
    7.6988  -11.4309   25.9011 C   0  0  0  0  0  0  0  0  0  0  0  0
    6.6494  -12.5002   25.8460 C   0  0  2  0  0  0  0  0  0  0  0  0
    5.6921  -12.2512   26.9948 C   0  0  0  0  0  0  0  0  0  0  0  0
    7.2041  -13.8833   26.0164 C   0  0  0  0  0  0  0  0  0  0  0  0
    8.0869  -14.3063   24.8550 C   0  0  2  0  0  0  0  0  0  0  0  0
    7.2850  -14.4455   23.6367 N   0  0  0  0  0  0  0  0  0  0  0  0
    8.6302  -15.6640   25.1954 C   0  0  0  0  0  0  0  0  0  0  0  0
    7.8666  -16.6540   25.3248 O   0  0  0  0  0  0  0  0  0  0  0  0
   10.0196  -15.8823   25.3824 N   0  0  0  0  0  0  0  0  0  0  0  0
   10.5508  -17.1642   25.7652 C   0  0  1  0  0  0  0  0  0  0  0  0
   11.9860  -17.3335   25.3272 C   0  0  0  0  0  0  0  0  0  0  0  0
   12.2495  -16.8097   23.9789 C   0  0  0  0  0  0  0  0  0  0  0  0
   13.0613  -15.8771   23.7966 O   0  0  0  0  0  0  0  0  0  0  0  0
   10.3792  -17.4118   27.2335 C   0  0  0  0  0  0  0  0  0  0  0  0
   10.5791  -18.5392   27.7202 O   0  0  0  0  0  0  0  0  0  0  0  0
   11.5981  -17.3440   22.8820 O   0  0  0  0  0  0  0  0  0  0  0  0
    9.9944  -16.4041   28.0994 O   0  0  0  0  0  0  0  0  0  0  0  0
  2  1  1  0
  3  4  1  6
  3  2  1  0
  5  3  1  0
  6  5  2  0
  8  7  1  1
  8 10  1  0
  9  8  1  0
 11 10  1  1
 11 13  1  0
 11 12  1  0
 12  5  1  0
 13 15  1  0
 14 13  2  0
 15 16  1  0
 16 17  1  1
 16 20  1  0
 18 17  1  0
 19 18  2  0
 20 21  2  0
 20 23  1  0
 22 18  1  0
M  END
$$$$
