SLD.pdb
     RDKit          3D

 23 22  0  0  1  0  0  0  0  0999 V2000
    9.6694  -19.7495   20.4506 O   0  0  0  0  0  0  0  0  0  0  0  0
    8.6094  -19.4165   19.6409 C   0  0  0  0  0  0  0  0  0  0  0  0
    8.9606  -18.2688   18.6882 C   0  0  2  0  0  0  0  0  0  0  0  0
    9.8805  -18.8107   17.7045 N   0  0  0  0  0  0  0  0  0  0  0  0
    9.6062  -17.1542   19.4205 C   0  0  0  0  0  0  0  0  0  0  0  0
   10.8364  -16.8816   19.3037 O   0  0  0  0  0  0  0  0  0  0  0  0
    8.0641  -12.7745   19.5455 C   0  0  0  0  0  0  0  0  0  0  0  0
    7.4510  -13.7890   20.4635 C   0  0  2  0  0  0  0  0  0  0  0  0
    6.2844  -13.1181   21.1613 C   0  0  0  0  0  0  0  0  0  0  0  0
    8.3927  -14.2705   21.5270 C   0  0  0  0  0  0  0  0  0  0  0  0
    9.4625  -15.2014   20.9828 C   0  0  2  0  0  0  0  0  0  0  0  0
    8.8412  -16.3380   20.2980 N   0  0  0  0  0  0  0  0  0  0  0  0
   10.2105  -15.7418   22.1671 C   0  0  0  0  0  0  0  0  0  0  0  0
   10.8403  -14.9767   22.9404 O   0  0  0  0  0  0  0  0  0  0  0  0
   10.2353  -17.1300   22.4594 N   0  0  0  0  0  0  0  0  0  0  0  0
   10.9617  -17.6658   23.5806 C   0  0  1  0  0  0  0  0  0  0  0  0
   10.2127  -18.7926   24.2515 C   0  0  0  0  0  0  0  0  0  0  0  0
   10.9525  -19.4013   25.3667 C   0  0  0  0  0  0  0  0  0  0  0  0
   11.7807  -18.7396   26.0288 O   0  0  0  0  0  0  0  0  0  0  0  0
   12.3513  -18.0697   23.1905 C   0  0  0  0  0  0  0  0  0  0  0  0
   12.6329  -18.3342   22.0078 O   0  0  0  0  0  0  0  0  0  0  0  0
   10.7428  -20.7262   25.7038 O   0  0  0  0  0  0  0  0  0  0  0  0
   13.3686  -18.1640   24.1230 O   0  0  0  0  0  0  0  0  0  0  0  0
  2  1  1  0
  3  4  1  6
  3  2  1  0
  5  3  1  0
  6  5  2  0
  8  7  1  6
  8 10  1  0
  9  8  1  0
 11 10  1  1
 11 13  1  0
 11 12  1  0
 12  5  1  0
 13 15  1  0
 14 13  2  0
 15 16  1  0
 16 17  1  6
 16 20  1  0
 18 17  1  0
 19 18  2  0
 20 21  2  0
 20 23  1  0
 22 18  1  0
M  END
$$$$
