SLD.pdb
     RDKit          3D

 23 22  0  0  1  0  0  0  0  0999 V2000
    8.0168  -17.5456   21.1053 O   0  0  0  0  0  0  0  0  0  0  0  0
    6.9218  -16.7144   21.1197 C   0  0  0  0  0  0  0  0  0  0  0  0
    7.3296  -15.2382   21.1701 C   0  0  2  0  0  0  0  0  0  0  0  0
    8.1745  -14.9997   20.0139 N   0  0  0  0  0  0  0  0  0  0  0  0
    8.0806  -14.9406   22.4122 C   0  0  0  0  0  0  0  0  0  0  0  0
    9.3448  -14.9055   22.4545 O   0  0  0  0  0  0  0  0  0  0  0  0
    7.7603  -11.4750   25.7375 C   0  0  0  0  0  0  0  0  0  0  0  0
    6.6856  -12.5164   25.6467 C   0  0  2  0  0  0  0  0  0  0  0  0
    5.6429  -12.1799   26.6944 C   0  0  0  0  0  0  0  0  0  0  0  0
    7.1792  -13.9031   25.9346 C   0  0  0  0  0  0  0  0  0  0  0  0
    8.1215  -14.4225   24.8627 C   0  0  2  0  0  0  0  0  0  0  0  0
    7.3833  -14.6788   23.6233 N   0  0  0  0  0  0  0  0  0  0  0  0
    8.6522  -15.7389   25.3525 C   0  0  0  0  0  0  0  0  0  0  0  0
    7.9396  -16.7741   25.3292 O   0  0  0  0  0  0  0  0  0  0  0  0
    9.9719  -15.8660   25.8574 N   0  0  0  0  0  0  0  0  0  0  0  0
   10.5440  -17.1420   26.1987 C   0  0  1  0  0  0  0  0  0  0  0  0
   11.8884  -17.3508   25.5434 C   0  0  0  0  0  0  0  0  0  0  0  0
   12.5236  -18.6251   25.9096 C   0  0  0  0  0  0  0  0  0  0  0  0
   11.8379  -19.6427   26.1471 O   0  0  0  0  0  0  0  0  0  0  0  0
   10.6077  -17.3342   27.6837 C   0  0  0  0  0  0  0  0  0  0  0  0
   11.0377  -18.3935   28.1744 O   0  0  0  0  0  0  0  0  0  0  0  0
   13.9006  -18.7195   25.9982 O   0  0  0  0  0  0  0  0  0  0  0  0
   10.1937  -16.3485   28.5615 O   0  0  0  0  0  0  0  0  0  0  0  0
  2  1  1  0
  3  4  1  6
  3  2  1  0
  5  3  1  0
  6  5  2  0
  8  7  1  1
  8 10  1  0
  9  8  1  0
 11 10  1  1
 11 13  1  0
 11 12  1  0
 12  5  1  0
 13 15  1  0
 14 13  2  0
 15 16  1  0
 16 17  1  1
 16 20  1  0
 18 17  1  0
 19 18  2  0
 20 21  2  0
 20 23  1  0
 22 18  1  0
M  END
$$$$
