SLD.pdb
     RDKit          3D

 23 22  0  0  1  0  0  0  0  0999 V2000
    9.3411  -19.3453   18.0728 O   0  0  0  0  0  0  0  0  0  0  0  0
    9.8818  -18.9827   16.8619 C   0  0  0  0  0  0  0  0  0  0  0  0
    9.6133  -17.5093   16.5380 C   0  0  2  0  0  0  0  0  0  0  0  0
   10.3348  -17.2137   15.3134 N   0  0  0  0  0  0  0  0  0  0  0  0
   10.0960  -16.6326   17.6305 C   0  0  0  0  0  0  0  0  0  0  0  0
   11.3059  -16.2781   17.7382 O   0  0  0  0  0  0  0  0  0  0  0  0
    8.8352  -12.3843   18.9507 C   0  0  0  0  0  0  0  0  0  0  0  0
    7.8808  -13.4827   19.3118 C   0  0  2  0  0  0  0  0  0  0  0  0
    6.6983  -12.8404   20.0096 C   0  0  0  0  0  0  0  0  0  0  0  0
    8.4668  -14.4890   20.2571 C   0  0  0  0  0  0  0  0  0  0  0  0
    9.6481  -15.2336   19.6597 C   0  0  2  0  0  0  0  0  0  0  0  0
    9.1891  -16.1521   18.6145 N   0  0  0  0  0  0  0  0  0  0  0  0
   10.2400  -16.0637   20.7620 C   0  0  0  0  0  0  0  0  0  0  0  0
    9.7521  -17.1817   21.0650 O   0  0  0  0  0  0  0  0  0  0  0  0
   11.3679  -15.6219   21.5006 N   0  0  0  0  0  0  0  0  0  0  0  0
   11.9702  -16.4220   22.5345 C   0  0  1  0  0  0  0  0  0  0  0  0
   13.3882  -15.9920   22.8263 C   0  0  0  0  0  0  0  0  0  0  0  0
   14.0612  -16.8400   23.8210 C   0  0  0  0  0  0  0  0  0  0  0  0
   13.4047  -17.5343   24.6266 O   0  0  0  0  0  0  0  0  0  0  0  0
   11.1248  -16.4450   23.7719 C   0  0  0  0  0  0  0  0  0  0  0  0
   11.4460  -17.1380   24.7539 O   0  0  0  0  0  0  0  0  0  0  0  0
   15.4423  -16.8835   23.8825 O   0  0  0  0  0  0  0  0  0  0  0  0
    9.9621  -15.7021   23.8704 O   0  0  0  0  0  0  0  0  0  0  0  0
  2  1  1  0
  3  4  1  6
  3  2  1  0
  5  3  1  0
  6  5  2  0
  8  7  1  1
  8 10  1  0
  9  8  1  0
 11 10  1  1
 11 13  1  0
 11 12  1  0
 12  5  1  0
 13 15  1  0
 14 13  2  0
 15 16  1  0
 16 17  1  1
 16 20  1  0
 18 17  1  0
 19 18  2  0
 20 21  2  0
 20 23  1  0
 22 18  1  0
M  END
$$$$
