SLD.pdb
     RDKit          3D

 23 22  0  0  1  0  0  0  0  0999 V2000
    6.3932  -17.8526   21.4007 O   0  0  0  0  0  0  0  0  0  0  0  0
    7.5380  -17.1248   21.6237 C   0  0  0  0  0  0  0  0  0  0  0  0
    7.2588  -15.6183   21.6438 C   0  0  2  0  0  0  0  0  0  0  0  0
    7.6557  -15.1037   20.3457 N   0  0  0  0  0  0  0  0  0  0  0  0
    8.0414  -14.9510   22.7104 C   0  0  0  0  0  0  0  0  0  0  0  0
    9.2019  -14.4853   22.5167 O   0  0  0  0  0  0  0  0  0  0  0  0
    7.1333  -11.3996   25.4005 C   0  0  0  0  0  0  0  0  0  0  0  0
    6.4298  -12.6561   25.8178 C   0  0  2  0  0  0  0  0  0  0  0  0
    5.5844  -12.3176   27.0298 C   0  0  0  0  0  0  0  0  0  0  0  0
    7.3688  -13.7549   26.2189 C   0  0  0  0  0  0  0  0  0  0  0  0
    8.2808  -14.1877   25.0842 C   0  0  2  0  0  0  0  0  0  0  0  0
    7.4956  -14.8112   24.0158 N   0  0  0  0  0  0  0  0  0  0  0  0
    9.1983  -15.2374   25.6415 C   0  0  0  0  0  0  0  0  0  0  0  0
    9.8632  -15.0282   26.6875 O   0  0  0  0  0  0  0  0  0  0  0  0
    9.3497  -16.5007   25.0136 N   0  0  0  0  0  0  0  0  0  0  0  0
   10.2513  -17.5044   25.5151 C   0  0  1  0  0  0  0  0  0  0  0  0
    9.8967  -18.8833   25.0116 C   0  0  0  0  0  0  0  0  0  0  0  0
   10.7932  -19.9351   25.5131 C   0  0  0  0  0  0  0  0  0  0  0  0
   12.0349  -19.8005   25.4667 O   0  0  0  0  0  0  0  0  0  0  0  0
   11.6791  -17.1515   25.2265 C   0  0  0  0  0  0  0  0  0  0  0  0
   12.0053  -16.6413   24.1397 O   0  0  0  0  0  0  0  0  0  0  0  0
   10.2733  -21.0998   26.0482 O   0  0  0  0  0  0  0  0  0  0  0  0
   12.6836  -17.3777   26.1501 O   0  0  0  0  0  0  0  0  0  0  0  0
  2  1  1  0
  3  4  1  6
  3  2  1  0
  5  3  1  0
  6  5  2  0
  8  7  1  1
  8 10  1  0
  9  8  1  0
 11 10  1  1
 11 13  1  0
 11 12  1  0
 12  5  1  0
 13 15  1  0
 14 13  2  0
 15 16  1  0
 16 17  1  6
 16 20  1  0
 18 17  1  0
 19 18  2  0
 20 21  2  0
 20 23  1  0
 22 18  1  0
M  END
$$$$
