SLD.pdb
     RDKit          3D

 23 22  0  0  1  0  0  0  0  0999 V2000
    8.3498  -17.7609   22.6965 O   0  0  0  0  0  0  0  0  0  0  0  0
    7.1601  -17.3227   22.1647 C   0  0  0  0  0  0  0  0  0  0  0  0
    7.2285  -15.8467   21.7589 C   0  0  2  0  0  0  0  0  0  0  0  0
    7.8766  -15.8012   20.4607 N   0  0  0  0  0  0  0  0  0  0  0  0
    8.0152  -15.0653   22.7417 C   0  0  0  0  0  0  0  0  0  0  0  0
    9.1822  -14.6401   22.4997 O   0  0  0  0  0  0  0  0  0  0  0  0
    7.2354  -11.1914   25.0395 C   0  0  0  0  0  0  0  0  0  0  0  0
    6.4760  -12.3769   25.5550 C   0  0  2  0  0  0  0  0  0  0  0  0
    5.6123  -11.8937   26.7033 C   0  0  0  0  0  0  0  0  0  0  0  0
    7.3635  -13.4624   26.0875 C   0  0  0  0  0  0  0  0  0  0  0  0
    8.2669  -14.0551   25.0201 C   0  0  2  0  0  0  0  0  0  0  0  0
    7.4662  -14.7632   24.0180 N   0  0  0  0  0  0  0  0  0  0  0  0
    9.1365  -15.0709   25.7030 C   0  0  0  0  0  0  0  0  0  0  0  0
    9.9027  -14.7410   26.6432 O   0  0  0  0  0  0  0  0  0  0  0  0
    9.1274  -16.4361   25.3168 N   0  0  0  0  0  0  0  0  0  0  0  0
   10.0732  -17.3879   25.8378 C   0  0  1  0  0  0  0  0  0  0  0  0
    9.4784  -18.7717   25.9475 C   0  0  0  0  0  0  0  0  0  0  0  0
    9.2604  -19.2038   27.3357 C   0  0  0  0  0  0  0  0  0  0  0  0
    9.6498  -18.5064   28.2970 O   0  0  0  0  0  0  0  0  0  0  0  0
   11.3457  -17.3852   25.0459 C   0  0  0  0  0  0  0  0  0  0  0  0
   11.4269  -16.7712   23.9668 O   0  0  0  0  0  0  0  0  0  0  0  0
    8.6162  -20.3983   27.6028 O   0  0  0  0  0  0  0  0  0  0  0  0
   12.4721  -18.0605   25.4800 O   0  0  0  0  0  0  0  0  0  0  0  0
  2  1  1  0
  3  4  1  6
  3  2  1  0
  5  3  1  0
  6  5  2  0
  8  7  1  1
  8 10  1  0
  9  8  1  0
 11 10  1  1
 11 13  1  0
 11 12  1  0
 12  5  1  0
 13 15  1  0
 14 13  2  0
 15 16  1  0
 16 17  1  6
 16 20  1  0
 18 17  1  0
 19 18  2  0
 20 21  2  0
 20 23  1  0
 22 18  1  0
M  END
$$$$
