SLD.pdb
     RDKit          3D

 23 22  0  0  1  0  0  0  0  0999 V2000
    7.8712  -18.0002   22.1993 O   0  0  0  0  0  0  0  0  0  0  0  0
    8.5944  -17.3075   21.2575 C   0  0  0  0  0  0  0  0  0  0  0  0
    8.4010  -15.7935   21.3930 C   0  0  2  0  0  0  0  0  0  0  0  0
    9.1755  -15.1778   20.3307 N   0  0  0  0  0  0  0  0  0  0  0  0
    8.8841  -15.3158   22.7097 C   0  0  0  0  0  0  0  0  0  0  0  0
   10.1138  -15.2170   22.9916 O   0  0  0  0  0  0  0  0  0  0  0  0
    7.8331  -11.5502   25.4291 C   0  0  0  0  0  0  0  0  0  0  0  0
    6.8136  -12.6423   25.3035 C   0  0  2  0  0  0  0  0  0  0  0  0
    5.6004  -12.2205   26.1086 C   0  0  0  0  0  0  0  0  0  0  0  0
    7.2826  -13.9561   25.8545 C   0  0  0  0  0  0  0  0  0  0  0  0
    8.4253  -14.5526   25.0511 C   0  0  2  0  0  0  0  0  0  0  0  0
    7.9550  -14.9449   23.7200 N   0  0  0  0  0  0  0  0  0  0  0  0
    8.8519  -15.8023   25.7656 C   0  0  0  0  0  0  0  0  0  0  0  0
    8.7501  -16.9290   25.2178 O   0  0  0  0  0  0  0  0  0  0  0  0
    9.3847  -15.7611   27.0799 N   0  0  0  0  0  0  0  0  0  0  0  0
   10.4821  -16.5973   27.4901 C   0  0  1  0  0  0  0  0  0  0  0  0
   11.7142  -16.3639   26.6487 C   0  0  0  0  0  0  0  0  0  0  0  0
   12.0585  -17.5065   25.7899 C   0  0  0  0  0  0  0  0  0  0  0  0
   12.7526  -17.3544   24.7617 O   0  0  0  0  0  0  0  0  0  0  0  0
   10.7661  -16.4492   28.9543 C   0  0  0  0  0  0  0  0  0  0  0  0
   10.6163  -15.3554   29.5280 O   0  0  0  0  0  0  0  0  0  0  0  0
   11.6163  -18.7778   26.1077 O   0  0  0  0  0  0  0  0  0  0  0  0
   11.2032  -17.5148   29.7203 O   0  0  0  0  0  0  0  0  0  0  0  0
  2  1  1  0
  3  4  1  6
  3  2  1  0
  5  3  1  0
  6  5  2  0
  8  7  1  1
  8 10  1  0
  9  8  1  0
 11 10  1  1
 11 13  1  0
 11 12  1  0
 12  5  1  0
 13 15  1  0
 14 13  2  0
 15 16  1  0
 16 17  1  6
 16 20  1  0
 18 17  1  0
 19 18  2  0
 20 21  2  0
 20 23  1  0
 22 18  1  0
M  END
$$$$
