VFT.pdb
     RDKit          3D

 26 26  0  0  1  0  0  0  0  0999 V2000
   24.3046  -19.7316  -14.1425 C   0  0  0  0  0  0  0  0  0  0  0  0
   24.5062  -20.2483  -12.7542 C   0  0  1  0  0  0  0  0  0  0  0  0
   23.3946  -21.1390  -12.2468 C   0  0  0  0  0  0  0  0  0  0  0  0
   25.8598  -20.8065  -12.4925 C   0  0  2  0  0  0  0  0  0  0  0  0
   26.0822  -21.9624  -13.3292 N   0  0  0  0  0  0  0  0  0  0  0  0
   26.1543  -21.1580  -11.1022 C   0  0  0  0  0  0  0  0  0  0  0  0
   25.7847  -22.2473  -10.5526 O   0  0  0  0  0  0  0  0  0  0  0  0
   26.8903  -20.2556  -10.2967 N   0  0  0  0  0  0  0  0  0  0  0  0
   27.1162  -20.4203   -8.8826 C   0  0  1  0  0  0  0  0  0  0  0  0
   28.3098  -19.7425   -8.3229 C   0  0  0  0  0  0  0  0  0  0  0  0
   28.3038  -19.7791   -6.8410 C   0  0  0  0  0  0  0  0  0  0  0  0
   27.7999  -18.6867   -6.1444 C   0  0  0  0  0  0  0  0  0  0  0  0
   27.7804  -18.6757   -4.7576 C   0  0  0  0  0  0  0  0  0  0  0  0
   28.2758  -19.7809   -4.1126 C   0  0  0  0  0  0  0  0  0  0  0  0
   28.7760  -20.8659   -4.8071 C   0  0  0  0  0  0  0  0  0  0  0  0
   28.7975  -20.8784   -6.1867 C   0  0  0  0  0  0  0  0  0  0  0  0
   25.8638  -20.2130   -8.0975 C   0  0  0  0  0  0  0  0  0  0  0  0
   25.1698  -19.1853   -8.3647 O   0  0  0  0  0  0  0  0  0  0  0  0
   21.8409  -21.7275   -6.0175 C   0  0  0  0  0  0  0  0  0  0  0  0
   23.1081  -21.8566   -6.8368 C   0  0  1  0  0  0  0  0  0  0  0  0
   22.8517  -21.4623   -8.1718 O   0  0  0  0  0  0  0  0  0  0  0  0
   24.1852  -20.9434   -6.3557 C   0  0  2  0  0  0  0  0  0  0  0  0
   25.4137  -21.0714   -7.0997 N   0  0  0  0  0  0  0  0  0  0  0  0
   24.3985  -21.2807   -4.9087 C   0  0  0  0  0  0  0  0  0  0  0  0
   23.4334  -21.0927   -3.9449 O   0  0  0  0  0  0  0  0  0  0  0  0
   25.4934  -21.7528   -4.5457 O   0  0  0  0  0  0  0  0  0  0  0  0
  2  4  1  0
  2  1  1  6
  3  2  1  0
  4  6  1  0
  4  5  1  6
  6  7  2  0
  8  9  1  0
  8  6  1  0
 10 11  1  0
  9 10  1  1
 11 12  2  0
 12 13  1  0
 14 13  2  0
 15 14  1  0
 16 15  2  0
 16 11  1  0
 17  9  1  0
 17 18  2  0
 20 19  1  1
 20 22  1  0
 21 20  1  0
 22 23  1  6
 22 24  1  0
 23 17  1  0
 24 25  1  0
 26 24  2  0
M  END
$$$$
