VFT.pdb
     RDKit          3D

 26 26  0  0  1  0  0  0  0  0999 V2000
   25.6460  -20.9442  -17.2324 C   0  0  0  0  0  0  0  0  0  0  0  0
   26.0313  -22.3728  -17.4456 C   0  0  1  0  0  0  0  0  0  0  0  0
   26.7213  -22.6485  -18.7626 C   0  0  0  0  0  0  0  0  0  0  0  0
   26.7180  -23.0076  -16.2889 C   0  0  2  0  0  0  0  0  0  0  0  0
   26.8364  -24.4296  -16.5106 N   0  0  0  0  0  0  0  0  0  0  0  0
   26.1148  -22.7764  -14.9752 C   0  0  0  0  0  0  0  0  0  0  0  0
   25.0253  -23.3151  -14.5904 O   0  0  0  0  0  0  0  0  0  0  0  0
   26.7555  -21.9090  -14.0576 N   0  0  0  0  0  0  0  0  0  0  0  0
   26.1976  -21.5017  -12.7924 C   0  0  1  0  0  0  0  0  0  0  0  0
   27.1612  -21.0355  -11.7670 C   0  0  0  0  0  0  0  0  0  0  0  0
   26.4817  -20.7482  -10.4813 C   0  0  0  0  0  0  0  0  0  0  0  0
   26.5828  -19.4722   -9.9389 C   0  0  0  0  0  0  0  0  0  0  0  0
   25.9680  -19.1610   -8.7352 C   0  0  0  0  0  0  0  0  0  0  0  0
   25.2632  -20.1598   -8.1119 C   0  0  0  0  0  0  0  0  0  0  0  0
   25.1638  -21.4275   -8.6531 C   0  0  0  0  0  0  0  0  0  0  0  0
   25.7756  -21.7396   -9.8498 C   0  0  0  0  0  0  0  0  0  0  0  0
   25.0120  -20.6134  -12.9743 C   0  0  0  0  0  0  0  0  0  0  0  0
   25.2308  -19.4019  -13.2802 O   0  0  0  0  0  0  0  0  0  0  0  0
   22.8839  -19.6155  -15.3232 C   0  0  0  0  0  0  0  0  0  0  0  0
   21.9233  -20.1668  -14.2903 C   0  0  1  0  0  0  0  0  0  0  0  0
   21.6234  -21.5162  -14.5944 O   0  0  0  0  0  0  0  0  0  0  0  0
   22.5207  -20.1938  -12.9235 C   0  0  2  0  0  0  0  0  0  0  0  0
   23.6923  -21.0294  -12.8315 N   0  0  0  0  0  0  0  0  0  0  0  0
   21.4384  -20.6874  -12.0081 C   0  0  0  0  0  0  0  0  0  0  0  0
   20.2524  -20.0144  -11.8182 O   0  0  0  0  0  0  0  0  0  0  0  0
   21.6045  -21.7531  -11.3835 O   0  0  0  0  0  0  0  0  0  0  0  0
  2  4  1  0
  2  1  1  1
  3  2  1  0
  4  6  1  0
  4  5  1  6
  6  7  2  0
  8  9  1  0
  8  6  1  0
 10 11  1  0
  9 10  1  1
 11 12  2  0
 12 13  1  0
 14 13  2  0
 15 14  1  0
 16 15  2  0
 16 11  1  0
 17  9  1  0
 17 18  2  0
 20 19  1  6
 20 22  1  0
 21 20  1  0
 22 23  1  6
 22 24  1  0
 23 17  1  0
 24 25  1  0
 26 24  2  0
M  END
$$$$
