VFT.pdb
     RDKit          3D

 26 26  0  0  1  0  0  0  0  0999 V2000
   18.0904   -9.9931  -20.2430 C   0  0  0  0  0  0  0  0  0  0  0  0
   18.6287   -9.4902  -18.9422 C   0  0  1  0  0  0  0  0  0  0  0  0
   17.5725   -9.1023  -17.9320 C   0  0  0  0  0  0  0  0  0  0  0  0
   19.7105  -10.3261  -18.3559 C   0  0  2  0  0  0  0  0  0  0  0  0
   19.2135  -11.6567  -18.0954 N   0  0  0  0  0  0  0  0  0  0  0  0
   20.3419   -9.8047  -17.1424 C   0  0  0  0  0  0  0  0  0  0  0  0
   19.9325  -10.0628  -15.9630 O   0  0  0  0  0  0  0  0  0  0  0  0
   21.4745   -8.9623  -17.2536 N   0  0  0  0  0  0  0  0  0  0  0  0
   22.2361   -8.4654  -16.1351 C   0  0  1  0  0  0  0  0  0  0  0  0
   23.6221   -8.9742  -16.0038 C   0  0  0  0  0  0  0  0  0  0  0  0
   23.6423  -10.4491  -15.8568 C   0  0  0  0  0  0  0  0  0  0  0  0
   23.6296  -10.9967  -14.5791 C   0  0  0  0  0  0  0  0  0  0  0  0
   23.6535  -12.3712  -14.3949 C   0  0  0  0  0  0  0  0  0  0  0  0
   23.6895  -13.1563  -15.5198 C   0  0  0  0  0  0  0  0  0  0  0  0
   23.7017  -12.6097  -16.7889 C   0  0  0  0  0  0  0  0  0  0  0  0
   23.6792  -11.2426  -16.9744 C   0  0  0  0  0  0  0  0  0  0  0  0
   22.1061   -6.9851  -15.9952 C   0  0  0  0  0  0  0  0  0  0  0  0
   22.4981   -6.2696  -16.9665 O   0  0  0  0  0  0  0  0  0  0  0  0
   19.4611   -4.5354  -16.0553 C   0  0  0  0  0  0  0  0  0  0  0  0
   20.0978   -4.4089  -14.6870 C   0  0  1  0  0  0  0  0  0  0  0  0
   19.3919   -5.2122  -13.7597 O   0  0  0  0  0  0  0  0  0  0  0  0
   21.4983   -4.9225  -14.6680 C   0  0  2  0  0  0  0  0  0  0  0  0
   21.5845   -6.3470  -14.8746 N   0  0  0  0  0  0  0  0  0  0  0  0
   22.0612   -4.5411  -13.3298 C   0  0  0  0  0  0  0  0  0  0  0  0
   22.2901   -3.2356  -12.9573 O   0  0  0  0  0  0  0  0  0  0  0  0
   22.3401   -5.4343  -12.5065 O   0  0  0  0  0  0  0  0  0  0  0  0
  2  4  1  0
  2  1  1  6
  3  2  1  0
  4  6  1  0
  4  5  1  1
  6  7  2  0
  8  9  1  0
  8  6  1  0
 10 11  1  0
  9 10  1  6
 11 12  2  0
 12 13  1  0
 14 13  2  0
 15 14  1  0
 16 15  2  0
 16 11  1  0
 17  9  1  0
 17 18  2  0
 20 19  1  6
 20 22  1  0
 21 20  1  0
 22 23  1  1
 22 24  1  0
 23 17  1  0
 24 25  1  0
 26 24  2  0
M  END
$$$$
