VFT.pdb
     RDKit          3D

 26 26  0  0  1  0  0  0  0  0999 V2000
   26.8966  -18.1296  -14.4640 C   0  0  0  0  0  0  0  0  0  0  0  0
   27.9733  -19.1453  -14.6737 C   0  0  1  0  0  0  0  0  0  0  0  0
   29.2604  -18.5898  -15.2405 C   0  0  0  0  0  0  0  0  0  0  0  0
   28.1956  -20.0582  -13.5205 C   0  0  2  0  0  0  0  0  0  0  0  0
   29.1255  -21.0985  -13.8925 N   0  0  0  0  0  0  0  0  0  0  0  0
   26.9978  -20.6706  -12.9431 C   0  0  0  0  0  0  0  0  0  0  0  0
   26.4161  -21.6925  -13.4358 O   0  0  0  0  0  0  0  0  0  0  0  0
   26.4297  -20.1180  -11.7699 N   0  0  0  0  0  0  0  0  0  0  0  0
   25.2384  -20.6138  -11.1272 C   0  0  1  0  0  0  0  0  0  0  0  0
   25.0326  -20.2066   -9.7169 C   0  0  0  0  0  0  0  0  0  0  0  0
   26.2801  -20.3474   -8.9286 C   0  0  0  0  0  0  0  0  0  0  0  0
   26.5672  -19.4013   -7.9514 C   0  0  0  0  0  0  0  0  0  0  0  0
   27.7259  -19.4909   -7.1943 C   0  0  0  0  0  0  0  0  0  0  0  0
   28.5659  -20.5449   -7.4519 C   0  0  0  0  0  0  0  0  0  0  0  0
   28.2783  -21.4843   -8.4237 C   0  0  0  0  0  0  0  0  0  0  0  0
   27.1268  -21.3965   -9.1787 C   0  0  0  0  0  0  0  0  0  0  0  0
   24.0365  -20.4538  -11.9976 C   0  0  0  0  0  0  0  0  0  0  0  0
   23.8096  -19.3004  -12.4744 O   0  0  0  0  0  0  0  0  0  0  0  0
   23.1175  -22.3195  -15.1848 C   0  0  0  0  0  0  0  0  0  0  0  0
   21.9484  -22.4252  -14.2278 C   0  0  1  0  0  0  0  0  0  0  0  0
   22.0082  -23.6616  -13.5413 O   0  0  0  0  0  0  0  0  0  0  0  0
   21.9954  -21.3806  -13.1638 C   0  0  2  0  0  0  0  0  0  0  0  0
   23.1576  -21.4837  -12.3165 N   0  0  0  0  0  0  0  0  0  0  0  0
   20.7351  -21.5455  -12.3655 C   0  0  0  0  0  0  0  0  0  0  0  0
   19.4820  -21.3120  -12.8859 O   0  0  0  0  0  0  0  0  0  0  0  0
   20.8080  -21.9093  -11.1756 O   0  0  0  0  0  0  0  0  0  0  0  0
  2  4  1  0
  2  1  1  1
  3  2  1  0
  4  6  1  0
  4  5  1  6
  6  7  2  0
  8  9  1  0
  8  6  1  0
 10 11  1  0
  9 10  1  1
 11 12  2  0
 12 13  1  0
 14 13  2  0
 15 14  1  0
 16 15  2  0
 16 11  1  0
 17  9  1  0
 17 18  2  0
 20 19  1  6
 20 22  1  0
 21 20  1  0
 22 23  1  1
 22 24  1  0
 23 17  1  0
 24 25  1  0
 26 24  2  0
M  END
$$$$
