VFT.pdb
     RDKit          3D

 26 26  0  0  1  0  0  0  0  0999 V2000
   28.4897  -18.2426  -18.1399 C   0  0  0  0  0  0  0  0  0  0  0  0
   27.5729  -18.8000  -17.0988 C   0  0  1  0  0  0  0  0  0  0  0  0
   26.1010  -18.6231  -17.3968 C   0  0  0  0  0  0  0  0  0  0  0  0
   27.9109  -20.1774  -16.6504 C   0  0  2  0  0  0  0  0  0  0  0  0
   27.7819  -21.0971  -17.7563 N   0  0  0  0  0  0  0  0  0  0  0  0
   27.1484  -20.6894  -15.5104 C   0  0  0  0  0  0  0  0  0  0  0  0
   26.0171  -21.2675  -15.6160 O   0  0  0  0  0  0  0  0  0  0  0  0
   27.6723  -20.5485  -14.2025 N   0  0  0  0  0  0  0  0  0  0  0  0
   26.9289  -20.7993  -12.9933 C   0  0  1  0  0  0  0  0  0  0  0  0
   27.6894  -20.7175  -11.7235 C   0  0  0  0  0  0  0  0  0  0  0  0
   26.7800  -20.6683  -10.5539 C   0  0  0  0  0  0  0  0  0  0  0  0
   26.0105  -21.7866  -10.2543 C   0  0  0  0  0  0  0  0  0  0  0  0
   25.1420  -21.7825   -9.1729 C   0  0  0  0  0  0  0  0  0  0  0  0
   25.0787  -20.6364   -8.4210 C   0  0  0  0  0  0  0  0  0  0  0  0
   25.8449  -19.5260   -8.7205 C   0  0  0  0  0  0  0  0  0  0  0  0
   26.7086  -19.5275   -9.7965 C   0  0  0  0  0  0  0  0  0  0  0  0
   25.6301  -20.0638  -12.9833 C   0  0  0  0  0  0  0  0  0  0  0  0
   25.6744  -18.7984  -13.0598 O   0  0  0  0  0  0  0  0  0  0  0  0
   22.5985  -20.7609  -15.2847 C   0  0  0  0  0  0  0  0  0  0  0  0
   22.7276  -19.5869  -14.3367 C   0  0  1  0  0  0  0  0  0  0  0  0
   21.4723  -18.9474  -14.2005 O   0  0  0  0  0  0  0  0  0  0  0  0
   23.1039  -20.0150  -12.9580 C   0  0  2  0  0  0  0  0  0  0  0  0
   24.3840  -20.6760  -12.8973 N   0  0  0  0  0  0  0  0  0  0  0  0
   22.0073  -20.9293  -12.4946 C   0  0  0  0  0  0  0  0  0  0  0  0
   20.6916  -20.5347  -12.4011 O   0  0  0  0  0  0  0  0  0  0  0  0
   22.2829  -22.1022  -12.1755 O   0  0  0  0  0  0  0  0  0  0  0  0
  2  4  1  0
  2  1  1  6
  3  2  1  0
  4  6  1  0
  4  5  1  6
  6  7  2  0
  8  9  1  0
  8  6  1  0
 10 11  1  0
  9 10  1  1
 11 12  2  0
 12 13  1  0
 14 13  2  0
 15 14  1  0
 16 15  2  0
 16 11  1  0
 17  9  1  0
 17 18  2  0
 20 19  1  6
 20 22  1  0
 21 20  1  0
 22 23  1  6
 22 24  1  0
 23 17  1  0
 24 25  1  0
 26 24  2  0
M  END
$$$$
