VFT.pdb
     RDKit          3D

 26 26  0  0  1  0  0  0  0  0999 V2000
   20.2849   -7.6848  -19.9090 C   0  0  0  0  0  0  0  0  0  0  0  0
   20.4760   -9.0648  -19.3667 C   0  0  1  0  0  0  0  0  0  0  0  0
   20.8232  -10.1066  -20.4062 C   0  0  0  0  0  0  0  0  0  0  0  0
   21.3423   -9.1407  -18.1599 C   0  0  2  0  0  0  0  0  0  0  0  0
   21.3514  -10.4912  -17.6486 N   0  0  0  0  0  0  0  0  0  0  0  0
   21.0132   -8.2188  -17.0713 C   0  0  0  0  0  0  0  0  0  0  0  0
   20.0470   -8.3970  -16.2589 O   0  0  0  0  0  0  0  0  0  0  0  0
   21.7952   -7.0532  -16.8855 N   0  0  0  0  0  0  0  0  0  0  0  0
   21.5878   -6.0893  -15.8339 C   0  0  1  0  0  0  0  0  0  0  0  0
   22.5640   -6.1109  -14.7186 C   0  0  0  0  0  0  0  0  0  0  0  0
   22.3875   -7.3151  -13.8723 C   0  0  0  0  0  0  0  0  0  0  0  0
   23.0951   -8.4687  -14.1903 C   0  0  0  0  0  0  0  0  0  0  0  0
   22.9560   -9.6200  -13.4295 C   0  0  0  0  0  0  0  0  0  0  0  0
   22.0975   -9.5677  -12.3603 C   0  0  0  0  0  0  0  0  0  0  0  0
   21.3953   -8.4197  -12.0459 C   0  0  0  0  0  0  0  0  0  0  0  0
   21.5313   -7.2737  -12.8021 C   0  0  0  0  0  0  0  0  0  0  0  0
   21.3062   -4.7297  -16.3815 C   0  0  0  0  0  0  0  0  0  0  0  0
   22.2501   -4.1362  -16.9863 O   0  0  0  0  0  0  0  0  0  0  0  0
   19.1630   -3.7012  -19.1451 C   0  0  0  0  0  0  0  0  0  0  0  0
   18.6713   -2.9497  -17.9256 C   0  0  1  0  0  0  0  0  0  0  0  0
   17.6234   -3.6766  -17.3116 O   0  0  0  0  0  0  0  0  0  0  0  0
   19.7274   -2.8208  -16.8799 C   0  0  2  0  0  0  0  0  0  0  0  0
   20.0817   -4.0790  -16.2712 N   0  0  0  0  0  0  0  0  0  0  0  0
   19.1832   -1.8663  -15.8572 C   0  0  0  0  0  0  0  0  0  0  0  0
   18.9852   -0.5277  -16.1115 O   0  0  0  0  0  0  0  0  0  0  0  0
   18.8926   -2.2878  -14.7208 O   0  0  0  0  0  0  0  0  0  0  0  0
  2  4  1  0
  2  1  1  6
  3  2  1  0
  4  6  1  0
  4  5  1  1
  6  7  2  0
  8  9  1  0
  8  6  1  0
 10 11  1  0
  9 10  1  1
 11 12  2  0
 12 13  1  0
 14 13  2  0
 15 14  1  0
 16 15  2  0
 16 11  1  0
 17  9  1  0
 17 18  2  0
 20 19  1  6
 20 22  1  0
 21 20  1  0
 22 23  1  1
 22 24  1  0
 23 17  1  0
 24 25  1  0
 26 24  2  0
M  END
$$$$
