VFT.pdb
     RDKit          3D

 26 26  0  0  1  0  0  0  0  0999 V2000
   28.0743  -21.5629  -19.4267 C   0  0  0  0  0  0  0  0  0  0  0  0
   27.1652  -21.7626  -18.2568 C   0  0  1  0  0  0  0  0  0  0  0  0
   25.8683  -22.4692  -18.5812 C   0  0  0  0  0  0  0  0  0  0  0  0
   27.8308  -22.3042  -17.0418 C   0  0  2  0  0  0  0  0  0  0  0  0
   28.3938  -23.6024  -17.3301 N   0  0  0  0  0  0  0  0  0  0  0  0
   27.0002  -22.3987  -15.8399 C   0  0  0  0  0  0  0  0  0  0  0  0
   26.3636  -23.4492  -15.4987 O   0  0  0  0  0  0  0  0  0  0  0  0
   26.8776  -21.2745  -14.9880 N   0  0  0  0  0  0  0  0  0  0  0  0
   26.0293  -21.2203  -13.8238 C   0  0  1  0  0  0  0  0  0  0  0  0
   26.4830  -20.3430  -12.7184 C   0  0  0  0  0  0  0  0  0  0  0  0
   25.6275  -20.5033  -11.5185 C   0  0  0  0  0  0  0  0  0  0  0  0
   24.3890  -19.8726  -11.4878 C   0  0  0  0  0  0  0  0  0  0  0  0
   23.5587  -19.9906  -10.3831 C   0  0  0  0  0  0  0  0  0  0  0  0
   24.0114  -20.7504   -9.3341 C   0  0  0  0  0  0  0  0  0  0  0  0
   25.2428  -21.3768   -9.3669 C   0  0  0  0  0  0  0  0  0  0  0  0
   26.0708  -21.2597  -10.4643 C   0  0  0  0  0  0  0  0  0  0  0  0
   24.5938  -21.0515  -14.1963 C   0  0  0  0  0  0  0  0  0  0  0  0
   24.3024  -20.1014  -14.9846 O   0  0  0  0  0  0  0  0  0  0  0  0
   20.1277  -22.9645  -14.8926 C   0  0  0  0  0  0  0  0  0  0  0  0
   21.6165  -23.0538  -14.6297 C   0  0  1  0  0  0  0  0  0  0  0  0
   22.2994  -23.2895  -15.8469 O   0  0  0  0  0  0  0  0  0  0  0  0
   22.1737  -21.7727  -14.1064 C   0  0  2  0  0  0  0  0  0  0  0  0
   23.5643  -21.8664  -13.7368 N   0  0  0  0  0  0  0  0  0  0  0  0
   21.3286  -21.4070  -12.9211 C   0  0  0  0  0  0  0  0  0  0  0  0
   20.0222  -20.9871  -13.0328 O   0  0  0  0  0  0  0  0  0  0  0  0
   21.8160  -21.4806  -11.7764 O   0  0  0  0  0  0  0  0  0  0  0  0
  2  4  1  0
  2  1  1  6
  3  2  1  0
  4  6  1  0
  4  5  1  6
  6  7  2  0
  8  9  1  0
  8  6  1  0
 10 11  1  0
  9 10  1  1
 11 12  2  0
 12 13  1  0
 14 13  2  0
 15 14  1  0
 16 15  2  0
 16 11  1  0
 17  9  1  0
 17 18  2  0
 20 19  1  6
 20 22  1  0
 21 20  1  0
 22 23  1  1
 22 24  1  0
 23 17  1  0
 24 25  1  0
 26 24  2  0
M  END
$$$$
