VFT.pdb
     RDKit          3D

 26 26  0  0  1  0  0  0  0  0999 V2000
   18.8547   -9.8455  -20.0582 C   0  0  0  0  0  0  0  0  0  0  0  0
   19.3960  -11.1815  -19.6619 C   0  0  1  0  0  0  0  0  0  0  0  0
   19.4639  -12.1913  -20.7854 C   0  0  0  0  0  0  0  0  0  0  0  0
   20.6447  -11.1285  -18.8555 C   0  0  2  0  0  0  0  0  0  0  0  0
   21.0083  -12.4595  -18.4291 N   0  0  0  0  0  0  0  0  0  0  0  0
   20.6228  -10.2418  -17.6909 C   0  0  0  0  0  0  0  0  0  0  0  0
   20.0759  -10.5441  -16.5797 O   0  0  0  0  0  0  0  0  0  0  0  0
   21.2361   -8.9683  -17.7736 N   0  0  0  0  0  0  0  0  0  0  0  0
   21.2688   -8.0060  -16.7009 C   0  0  1  0  0  0  0  0  0  0  0  0
   22.5632   -7.8495  -15.9956 C   0  0  0  0  0  0  0  0  0  0  0  0
   22.9179   -9.0765  -15.2433 C   0  0  0  0  0  0  0  0  0  0  0  0
   23.7756   -9.9996  -15.8303 C   0  0  0  0  0  0  0  0  0  0  0  0
   24.1296  -11.1640  -15.1650 C   0  0  0  0  0  0  0  0  0  0  0  0
   23.5998  -11.3598  -13.9144 C   0  0  0  0  0  0  0  0  0  0  0  0
   22.7476  -10.4407  -13.3326 C   0  0  0  0  0  0  0  0  0  0  0  0
   22.3933   -9.2823  -13.9932 C   0  0  0  0  0  0  0  0  0  0  0  0
   20.6212   -6.7203  -17.0951 C   0  0  0  0  0  0  0  0  0  0  0  0
   21.2136   -6.0096  -17.9629 O   0  0  0  0  0  0  0  0  0  0  0  0
   17.5511   -5.9096  -18.9313 C   0  0  0  0  0  0  0  0  0  0  0  0
   17.4247   -5.2442  -17.5767 C   0  0  1  0  0  0  0  0  0  0  0  0
   16.7117   -6.0929  -16.6965 O   0  0  0  0  0  0  0  0  0  0  0  0
   18.7513   -5.0290  -16.9290 C   0  0  2  0  0  0  0  0  0  0  0  0
   19.4170   -6.2579  -16.5745 N   0  0  0  0  0  0  0  0  0  0  0  0
   18.4866   -4.1932  -15.7106 C   0  0  0  0  0  0  0  0  0  0  0  0
   18.0343   -2.8945  -15.7762 O   0  0  0  0  0  0  0  0  0  0  0  0
   18.6802   -4.6813  -14.5803 O   0  0  0  0  0  0  0  0  0  0  0  0
  2  4  1  0
  2  1  1  6
  3  2  1  0
  4  6  1  0
  4  5  1  1
  6  7  2  0
  8  9  1  0
  8  6  1  0
 10 11  1  0
  9 10  1  6
 11 12  2  0
 12 13  1  0
 14 13  2  0
 15 14  1  0
 16 15  2  0
 16 11  1  0
 17  9  1  0
 17 18  2  0
 20 19  1  6
 20 22  1  0
 21 20  1  0
 22 23  1  1
 22 24  1  0
 23 17  1  0
 24 25  1  0
 26 24  2  0
M  END
$$$$
