VFT.pdb
     RDKit          3D

 26 26  0  0  1  0  0  0  0  0999 V2000
   26.5761  -20.0160  -17.8633 C   0  0  0  0  0  0  0  0  0  0  0  0
   27.4198  -21.2284  -18.0941 C   0  0  1  0  0  0  0  0  0  0  0  0
   28.4040  -21.1021  -19.2350 C   0  0  0  0  0  0  0  0  0  0  0  0
   28.0304  -21.8003  -16.8641 C   0  0  2  0  0  0  0  0  0  0  0  0
   28.5892  -23.0999  -17.1544 N   0  0  0  0  0  0  0  0  0  0  0  0
   27.1518  -21.9065  -15.6979 C   0  0  0  0  0  0  0  0  0  0  0  0
   26.2068  -22.7562  -15.5970 O   0  0  0  0  0  0  0  0  0  0  0  0
   27.3383  -21.0280  -14.6033 N   0  0  0  0  0  0  0  0  0  0  0  0
   26.4693  -20.9571  -13.4554 C   0  0  1  0  0  0  0  0  0  0  0  0
   27.0529  -20.3777  -12.2221 C   0  0  0  0  0  0  0  0  0  0  0  0
   26.1023  -20.4586  -11.0876 C   0  0  0  0  0  0  0  0  0  0  0  0
   26.2732  -21.4600  -10.1385 C   0  0  0  0  0  0  0  0  0  0  0  0
   25.4040  -21.5764   -9.0640 C   0  0  0  0  0  0  0  0  0  0  0  0
   24.3795  -20.6673   -8.9821 C   0  0  0  0  0  0  0  0  0  0  0  0
   24.2117  -19.6725   -9.9265 C   0  0  0  0  0  0  0  0  0  0  0  0
   25.0745  -19.5556  -10.9969 C   0  0  0  0  0  0  0  0  0  0  0  0
   25.1253  -20.4167  -13.8152 C   0  0  0  0  0  0  0  0  0  0  0  0
   25.0655  -19.2111  -14.2053 O   0  0  0  0  0  0  0  0  0  0  0  0
   22.9242  -20.5542  -16.4901 C   0  0  0  0  0  0  0  0  0  0  0  0
   22.0834  -21.0739  -15.3427 C   0  0  1  0  0  0  0  0  0  0  0  0
   22.1248  -22.4887  -15.3276 O   0  0  0  0  0  0  0  0  0  0  0  0
   22.6172  -20.6495  -14.0159 C   0  0  2  0  0  0  0  0  0  0  0  0
   23.9440  -21.1482  -13.7508 N   0  0  0  0  0  0  0  0  0  0  0  0
   21.6410  -21.1572  -12.9949 C   0  0  0  0  0  0  0  0  0  0  0  0
   21.9358  -22.1766  -12.1178 O   0  0  0  0  0  0  0  0  0  0  0  0
   20.5074  -20.6440  -12.9246 O   0  0  0  0  0  0  0  0  0  0  0  0
  2  4  1  0
  2  1  1  1
  3  2  1  0
  4  6  1  0
  4  5  1  6
  6  7  2  0
  8  9  1  0
  8  6  1  0
 10 11  1  0
  9 10  1  1
 11 12  2  0
 12 13  1  0
 14 13  2  0
 15 14  1  0
 16 15  2  0
 16 11  1  0
 17  9  1  0
 17 18  2  0
 20 19  1  6
 20 22  1  0
 21 20  1  0
 22 23  1  1
 22 24  1  0
 23 17  1  0
 24 25  1  0
 26 24  2  0
M  END
$$$$
