VFT.pdb
     RDKit          3D

 26 26  0  0  1  0  0  0  0  0999 V2000
   19.3051  -13.4955  -17.2749 C   0  0  0  0  0  0  0  0  0  0  0  0
   19.4523  -12.2743  -16.4253 C   0  0  1  0  0  0  0  0  0  0  0  0
   20.5684  -12.3467  -15.4077 C   0  0  0  0  0  0  0  0  0  0  0  0
   19.4385  -10.9916  -17.1783 C   0  0  2  0  0  0  0  0  0  0  0  0
   20.5167  -10.9767  -18.1388 N   0  0  0  0  0  0  0  0  0  0  0  0
   19.4979   -9.7707  -16.3728 C   0  0  0  0  0  0  0  0  0  0  0  0
   18.6903   -9.5084  -15.4219 O   0  0  0  0  0  0  0  0  0  0  0  0
   20.4994   -8.8067  -16.6422 N   0  0  0  0  0  0  0  0  0  0  0  0
   20.6627   -7.5730  -15.9147 C   0  0  1  0  0  0  0  0  0  0  0  0
   21.9609   -7.3817  -15.2252 C   0  0  0  0  0  0  0  0  0  0  0  0
   22.1519   -8.3842  -14.1501 C   0  0  0  0  0  0  0  0  0  0  0  0
   22.9567   -9.4901  -14.3986 C   0  0  0  0  0  0  0  0  0  0  0  0
   23.1583  -10.4557  -13.4235 C   0  0  0  0  0  0  0  0  0  0  0  0
   22.5337  -10.2703  -12.2158 C   0  0  0  0  0  0  0  0  0  0  0  0
   21.7344   -9.1700  -11.9709 C   0  0  0  0  0  0  0  0  0  0  0  0
   21.5315   -8.2089  -12.9399 C   0  0  0  0  0  0  0  0  0  0  0  0
   20.2102   -6.3977  -16.7159 C   0  0  0  0  0  0  0  0  0  0  0  0
   20.7569   -6.2154  -17.8460 O   0  0  0  0  0  0  0  0  0  0  0  0
   16.8308   -5.6526  -18.1860 C   0  0  0  0  0  0  0  0  0  0  0  0
   17.2159   -4.5045  -17.2764 C   0  0  1  0  0  0  0  0  0  0  0  0
   16.6811   -4.7235  -15.9844 O   0  0  0  0  0  0  0  0  0  0  0  0
   18.6921   -4.4112  -17.0817 C   0  0  2  0  0  0  0  0  0  0  0  0
   19.2328   -5.4980  -16.3035 N   0  0  0  0  0  0  0  0  0  0  0  0
   18.9381   -3.0943  -16.4046 C   0  0  0  0  0  0  0  0  0  0  0  0
   18.6850   -1.8826  -17.0074 O   0  0  0  0  0  0  0  0  0  0  0  0
   19.3923   -3.0787  -15.2441 O   0  0  0  0  0  0  0  0  0  0  0  0
  2  4  1  0
  2  1  1  6
  3  2  1  0
  4  6  1  0
  4  5  1  6
  6  7  2  0
  8  9  1  0
  8  6  1  0
 10 11  1  0
  9 10  1  6
 11 12  2  0
 12 13  1  0
 14 13  2  0
 15 14  1  0
 16 15  2  0
 16 11  1  0
 17  9  1  0
 17 18  2  0
 20 19  1  6
 20 22  1  0
 21 20  1  0
 22 23  1  1
 22 24  1  0
 23 17  1  0
 24 25  1  0
 26 24  2  0
M  END
$$$$
