VFT.pdb
     RDKit          3D

 26 26  0  0  1  0  0  0  0  0999 V2000
   26.9987  -16.6675  -19.4423 C   0  0  0  0  0  0  0  0  0  0  0  0
   26.3893  -17.5139  -18.3712 C   0  0  1  0  0  0  0  0  0  0  0  0
   24.9657  -17.9448  -18.6437 C   0  0  0  0  0  0  0  0  0  0  0  0
   27.2515  -18.6305  -17.8997 C   0  0  2  0  0  0  0  0  0  0  0  0
   27.5122  -19.5410  -18.9898 N   0  0  0  0  0  0  0  0  0  0  0  0
   26.7529  -19.3890  -16.7511 C   0  0  0  0  0  0  0  0  0  0  0  0
   25.9997  -20.4128  -16.8503 O   0  0  0  0  0  0  0  0  0  0  0  0
   27.1109  -18.9858  -15.4419 N   0  0  0  0  0  0  0  0  0  0  0  0
   26.5867  -19.5729  -14.2342 C   0  0  1  0  0  0  0  0  0  0  0  0
   27.3894  -19.3759  -13.0037 C   0  0  0  0  0  0  0  0  0  0  0  0
   26.7300  -19.9905  -11.8270 C   0  0  0  0  0  0  0  0  0  0  0  0
   26.0332  -19.1729  -10.9446 C   0  0  0  0  0  0  0  0  0  0  0  0
   25.4061  -19.7046   -9.8276 C   0  0  0  0  0  0  0  0  0  0  0  0
   25.5043  -21.0598   -9.6363 C   0  0  0  0  0  0  0  0  0  0  0  0
   26.1973  -21.8707  -10.5149 C   0  0  0  0  0  0  0  0  0  0  0  0
   26.8228  -21.3437  -11.6261 C   0  0  0  0  0  0  0  0  0  0  0  0
   25.1299  -19.2910  -14.0726 C   0  0  0  0  0  0  0  0  0  0  0  0
   24.7702  -18.0750  -14.0396 O   0  0  0  0  0  0  0  0  0  0  0  0
   22.0215  -21.2456  -15.8003 C   0  0  0  0  0  0  0  0  0  0  0  0
   21.9522  -19.9646  -14.9954 C   0  0  1  0  0  0  0  0  0  0  0  0
   20.6172  -19.7343  -14.5853 O   0  0  0  0  0  0  0  0  0  0  0  0
   22.7435  -20.0490  -13.7335 C   0  0  2  0  0  0  0  0  0  0  0  0
   24.1502  -20.2718  -13.9583 N   0  0  0  0  0  0  0  0  0  0  0  0
   22.1432  -21.1747  -12.9427 C   0  0  0  0  0  0  0  0  0  0  0  0
   20.8566  -21.1446  -12.4534 O   0  0  0  0  0  0  0  0  0  0  0  0
   22.8267  -22.1903  -12.7088 O   0  0  0  0  0  0  0  0  0  0  0  0
  2  4  1  0
  2  1  1  6
  3  2  1  0
  4  6  1  0
  4  5  1  6
  6  7  2  0
  8  9  1  0
  8  6  1  0
 10 11  1  0
  9 10  1  1
 11 12  2  0
 12 13  1  0
 14 13  2  0
 15 14  1  0
 16 15  2  0
 16 11  1  0
 17  9  1  0
 17 18  2  0
 20 19  1  1
 20 22  1  0
 21 20  1  0
 22 23  1  6
 22 24  1  0
 23 17  1  0
 24 25  1  0
 26 24  2  0
M  END
$$$$
