YQR.pdb
     RDKit          3D

 33 33  0  0  1  0  0  0  0  0999 V2000
    7.8903  -14.2050   14.6289 O   0  0  0  0  0  0  0  0  0  0  0  0
    8.2110  -14.1979   15.9850 C   0  0  0  0  0  0  0  0  0  0  0  0
    8.2419  -12.9851   16.6361 C   0  0  0  0  0  0  0  0  0  0  0  0
    8.5584  -12.9262   17.9968 C   0  0  0  0  0  0  0  0  0  0  0  0
    8.8404  -14.0594   18.7000 C   0  0  0  0  0  0  0  0  0  0  0  0
    9.1750  -13.9836   20.1337 C   0  0  0  0  0  0  0  0  0  0  0  0
    8.1977  -14.7962   20.9468 C   0  0  2  0  0  0  0  0  0  0  0  0
    6.9618  -14.0753   21.0352 N   0  0  0  0  0  0  0  0  0  0  0  0
    8.7348  -15.1628   22.2751 C   0  0  0  0  0  0  0  0  0  0  0  0
    8.8130  -14.3244   23.2339 O   0  0  0  0  0  0  0  0  0  0  0  0
    8.8091  -15.2696   18.0488 C   0  0  0  0  0  0  0  0  0  0  0  0
    8.4954  -15.3479   16.6913 C   0  0  0  0  0  0  0  0  0  0  0  0
    7.0026  -18.6839   26.3070 N   0  0  0  0  0  0  0  0  0  0  0  0
    6.7580  -17.3329   25.9760 C   0  0  0  0  0  0  0  0  0  0  0  0
    5.7545  -16.7490   26.4245 O   0  0  0  0  0  0  0  0  0  0  0  0
    7.7045  -16.6214   25.0938 C   0  0  0  0  0  0  0  0  0  0  0  0
    8.8091  -17.5551   24.6924 C   0  0  0  0  0  0  0  0  0  0  0  0
    9.8059  -16.9058   23.7528 C   0  0  2  0  0  0  0  0  0  0  0  0
    9.1883  -16.4732   22.5383 N   0  0  0  0  0  0  0  0  0  0  0  0
   10.9393  -17.8301   23.5288 C   0  0  0  0  0  0  0  0  0  0  0  0
   10.7269  -19.0182   23.1790 O   0  0  0  0  0  0  0  0  0  0  0  0
   15.7340  -13.4744   19.0253 N   0  0  0  0  0  0  0  0  0  0  0  0
   14.5290  -14.2139   19.1513 C   0  0  0  0  0  0  0  0  0  0  0  0
   13.3874  -13.5818   19.0397 N   0  0  0  0  0  0  0  0  0  0  0  0
   14.5280  -15.6213   19.3942 N   0  0  0  0  0  0  0  0  0  0  0  0
   15.0214  -16.1362   20.6507 C   0  0  0  0  0  0  0  0  0  0  0  0
   13.9524  -16.8486   21.4339 C   0  0  0  0  0  0  0  0  0  0  0  0
   14.4272  -17.4242   22.7163 C   0  0  0  0  0  0  0  0  0  0  0  0
   13.4394  -18.2233   23.4891 C   0  0  2  0  0  0  0  0  0  0  0  0
   12.2716  -17.3674   23.7121 N   0  0  0  0  0  0  0  0  0  0  0  0
   14.0003  -18.6070   24.8196 C   0  0  0  0  0  0  0  0  0  0  0  0
   15.0043  -19.5448   24.9802 O   0  0  0  0  0  0  0  0  0  0  0  0
   13.5441  -18.0568   25.8504 O   0  0  0  0  0  0  0  0  0  0  0  0
  2  1  1  0
  3  2  2  0
  4  3  1  0
  5 11  1  0
  5  4  2  0
  6  5  1  0
  7  6  1  0
  7  8  1  1
  9  7  1  0
  9 19  1  0
 10  9  2  0
 11 12  2  0
 12  2  1  0
 13 14  1  0
 14 15  2  0
 16 14  1  0
 16 17  1  0
 18 17  1  1
 18 19  1  0
 18 20  1  0
 20 21  2  0
 20 30  1  0
 22 23  1  0
 23 24  2  0
 23 25  1  0
 25 26  1  0
 26 27  1  0
 28 27  1  0
 29 28  1  6
 29 31  1  0
 30 29  1  0
 31 33  2  0
 31 32  1  0
M  END
$$$$
