YQR.pdb
     RDKit          3D

 33 33  0  0  1  0  0  0  0  0999 V2000
   10.1311  -14.2014   31.3002 O   0  0  0  0  0  0  0  0  0  0  0  0
   10.4640  -14.6939   30.0397 C   0  0  0  0  0  0  0  0  0  0  0  0
    9.8066  -14.1734   28.9476 C   0  0  0  0  0  0  0  0  0  0  0  0
   10.1055  -14.6350   27.6620 C   0  0  0  0  0  0  0  0  0  0  0  0
   11.0464  -15.6018   27.4663 C   0  0  0  0  0  0  0  0  0  0  0  0
   11.3507  -16.0817   26.1061 C   0  0  0  0  0  0  0  0  0  0  0  0
   10.4306  -17.2167   25.7293 C   0  0  2  0  0  0  0  0  0  0  0  0
   10.6185  -18.2897   26.6611 N   0  0  0  0  0  0  0  0  0  0  0  0
   10.6103  -17.6482   24.3262 C   0  0  0  0  0  0  0  0  0  0  0  0
   11.6815  -18.2078   23.9169 O   0  0  0  0  0  0  0  0  0  0  0  0
   11.7020  -16.1205   28.5575 C   0  0  0  0  0  0  0  0  0  0  0  0
   11.4169  -15.6722   29.8479 C   0  0  0  0  0  0  0  0  0  0  0  0
    6.4956  -16.8605   19.8922 N   0  0  0  0  0  0  0  0  0  0  0  0
    7.5025  -17.4873   19.1254 C   0  0  0  0  0  0  0  0  0  0  0  0
    7.4745  -17.4250   17.8825 O   0  0  0  0  0  0  0  0  0  0  0  0
    8.5874  -18.2158   19.8128 C   0  0  0  0  0  0  0  0  0  0  0  0
    8.4443  -18.0381   21.2963 C   0  0  0  0  0  0  0  0  0  0  0  0
    9.7395  -17.6102   21.9578 C   0  0  2  0  0  0  0  0  0  0  0  0
    9.5892  -17.4554   23.3710 N   0  0  0  0  0  0  0  0  0  0  0  0
   10.2477  -16.3903   21.2925 C   0  0  0  0  0  0  0  0  0  0  0  0
   10.1663  -15.2758   21.8673 O   0  0  0  0  0  0  0  0  0  0  0  0
    8.5830  -14.7176   15.8225 N   0  0  0  0  0  0  0  0  0  0  0  0
    7.8192  -13.5716   16.1661 C   0  0  0  0  0  0  0  0  0  0  0  0
    7.2407  -12.8899   15.2091 N   0  0  0  0  0  0  0  0  0  0  0  0
    7.6645  -13.1448   17.5204 N   0  0  0  0  0  0  0  0  0  0  0  0
    8.3516  -13.8466   18.5800 C   0  0  0  0  0  0  0  0  0  0  0  0
    9.7713  -13.3772   18.7472 C   0  0  0  0  0  0  0  0  0  0  0  0
   10.5425  -14.1388   19.7605 C   0  0  0  0  0  0  0  0  0  0  0  0
   11.3099  -15.3119   19.2638 C   0  0  2  0  0  0  0  0  0  0  0  0
   10.8286  -16.4848   19.9978 N   0  0  0  0  0  0  0  0  0  0  0  0
   12.7668  -15.1453   19.5495 C   0  0  0  0  0  0  0  0  0  0  0  0
   13.7439  -15.1895   18.5715 O   0  0  0  0  0  0  0  0  0  0  0  0
   13.1337  -14.9554   20.7339 O   0  0  0  0  0  0  0  0  0  0  0  0
  2  1  1  0
  3  2  2  0
  4  3  1  0
  5 11  1  0
  5  4  2  0
  6  5  1  0
  7  6  1  0
  7  8  1  1
  9  7  1  0
  9 19  1  0
 10  9  2  0
 11 12  2  0
 12  2  1  0
 13 14  1  0
 14 15  2  0
 16 14  1  0
 16 17  1  0
 18 17  1  6
 18 19  1  0
 18 20  1  0
 20 21  2  0
 20 30  1  0
 22 23  1  0
 23 24  2  0
 23 25  1  0
 25 26  1  0
 26 27  1  0
 28 27  1  0
 29 28  1  1
 29 31  1  0
 30 29  1  0
 31 33  2  0
 31 32  1  0
M  END
$$$$
