YQR.pdb
     RDKit          3D

 33 33  0  0  1  0  0  0  0  0999 V2000
    7.2723  -12.4783   24.0947 O   0  0  0  0  0  0  0  0  0  0  0  0
    7.2815  -13.0973   22.8461 C   0  0  0  0  0  0  0  0  0  0  0  0
    6.6495  -14.3143   22.7227 C   0  0  0  0  0  0  0  0  0  0  0  0
    6.6314  -14.9747   21.4904 C   0  0  0  0  0  0  0  0  0  0  0  0
    7.2345  -14.4309   20.3955 C   0  0  0  0  0  0  0  0  0  0  0  0
    7.2105  -15.1384   19.1024 C   0  0  0  0  0  0  0  0  0  0  0  0
    8.3983  -16.0611   18.9842 C   0  0  2  0  0  0  0  0  0  0  0  0
    8.3069  -16.7719   17.7426 N   0  0  0  0  0  0  0  0  0  0  0  0
    8.5286  -16.9668   20.1460 C   0  0  0  0  0  0  0  0  0  0  0  0
    8.3769  -18.2299   20.0461 O   0  0  0  0  0  0  0  0  0  0  0  0
    7.8650  -13.2158   20.5200 C   0  0  0  0  0  0  0  0  0  0  0  0
    7.8934  -12.5421   21.7418 C   0  0  0  0  0  0  0  0  0  0  0  0
   13.0392  -19.9896   21.7735 N   0  0  0  0  0  0  0  0  0  0  0  0
   13.1257  -18.5799   21.7684 C   0  0  0  0  0  0  0  0  0  0  0  0
   13.9986  -18.0075   21.0905 O   0  0  0  0  0  0  0  0  0  0  0  0
   12.1705  -17.7935   22.5743 C   0  0  0  0  0  0  0  0  0  0  0  0
   11.1567  -17.1600   21.6667 C   0  0  0  0  0  0  0  0  0  0  0  0
    9.7998  -17.0106   22.3258 C   0  0  2  0  0  0  0  0  0  0  0  0
    8.8304  -16.4627   21.4294 N   0  0  0  0  0  0  0  0  0  0  0  0
    9.9457  -16.2255   23.5713 C   0  0  0  0  0  0  0  0  0  0  0  0
   11.0857  -15.8796   23.9711 O   0  0  0  0  0  0  0  0  0  0  0  0
    8.2537  -22.1737   24.5313 N   0  0  0  0  0  0  0  0  0  0  0  0
    7.1785  -21.9136   25.4207 C   0  0  0  0  0  0  0  0  0  0  0  0
    6.0285  -22.5031   25.2081 N   0  0  0  0  0  0  0  0  0  0  0  0
    7.3166  -21.0318   26.5357 N   0  0  0  0  0  0  0  0  0  0  0  0
    7.8867  -19.7175   26.3488 C   0  0  0  0  0  0  0  0  0  0  0  0
    6.8839  -18.7323   25.8125 C   0  0  0  0  0  0  0  0  0  0  0  0
    7.4537  -17.7539   24.8535 C   0  0  0  0  0  0  0  0  0  0  0  0
    8.2892  -16.6688   25.4332 C   0  0  2  0  0  0  0  0  0  0  0  0
    8.7886  -15.8644   24.3153 N   0  0  0  0  0  0  0  0  0  0  0  0
    9.4625  -17.2408   26.1601 C   0  0  0  0  0  0  0  0  0  0  0  0
   10.6494  -17.5836   25.5383 O   0  0  0  0  0  0  0  0  0  0  0  0
    9.3770  -17.4240   27.3980 O   0  0  0  0  0  0  0  0  0  0  0  0
  2  1  1  0
  3  2  2  0
  4  3  1  0
  5 11  1  0
  5  4  2  0
  6  5  1  0
  7  6  1  0
  7  8  1  6
  9  7  1  0
  9 19  1  0
 10  9  2  0
 11 12  2  0
 12  2  1  0
 13 14  1  0
 14 15  2  0
 16 14  1  0
 16 17  1  0
 18 17  1  6
 18 19  1  0
 18 20  1  0
 20 21  2  0
 20 30  1  0
 22 23  1  0
 23 24  2  0
 23 25  1  0
 25 26  1  0
 26 27  1  0
 28 27  1  0
 29 28  1  6
 29 31  1  0
 30 29  1  0
 31 33  2  0
 31 32  1  0
M  END
$$$$
