YQR.pdb
     RDKit          3D

 33 33  0  0  1  0  0  0  0  0999 V2000
    6.9747  -14.5323   15.2568 O   0  0  0  0  0  0  0  0  0  0  0  0
    7.9013  -14.5984   16.2956 C   0  0  0  0  0  0  0  0  0  0  0  0
    8.2990  -13.4187   16.8838 C   0  0  0  0  0  0  0  0  0  0  0  0
    9.2267  -13.4332   17.9299 C   0  0  0  0  0  0  0  0  0  0  0  0
    9.7514  -14.6064   18.3844 C   0  0  0  0  0  0  0  0  0  0  0  0
   10.7306  -14.6080   19.4864 C   0  0  0  0  0  0  0  0  0  0  0  0
   10.0576  -14.9639   20.7891 C   0  0  2  0  0  0  0  0  0  0  0  0
    9.1269  -13.9263   21.1244 N   0  0  0  0  0  0  0  0  0  0  0  0
   11.0280  -15.2253   21.8739 C   0  0  0  0  0  0  0  0  0  0  0  0
   11.7986  -14.3174   22.3326 O   0  0  0  0  0  0  0  0  0  0  0  0
    9.3535  -15.7834   17.7963 C   0  0  0  0  0  0  0  0  0  0  0  0
    8.4288  -15.7885   16.7512 C   0  0  0  0  0  0  0  0  0  0  0  0
   10.5000  -19.5969   26.2191 N   0  0  0  0  0  0  0  0  0  0  0  0
   11.8578  -19.2569   26.4074 C   0  0  0  0  0  0  0  0  0  0  0  0
   12.5046  -19.7550   27.3470 O   0  0  0  0  0  0  0  0  0  0  0  0
   12.5011  -18.3061   25.4788 C   0  0  0  0  0  0  0  0  0  0  0  0
   11.4991  -17.8526   24.4573 C   0  0  0  0  0  0  0  0  0  0  0  0
   12.0902  -16.8806   23.4554 C   0  0  2  0  0  0  0  0  0  0  0  0
   11.1417  -16.5074   22.4531 N   0  0  0  0  0  0  0  0  0  0  0  0
   13.3320  -17.4546   22.8923 C   0  0  0  0  0  0  0  0  0  0  0  0
   13.3205  -18.5975   22.3699 O   0  0  0  0  0  0  0  0  0  0  0  0
   15.8812  -13.8750   17.4552 N   0  0  0  0  0  0  0  0  0  0  0  0
   16.2089  -13.1961   18.6579 C   0  0  0  0  0  0  0  0  0  0  0  0
   17.1278  -12.2635   18.6244 N   0  0  0  0  0  0  0  0  0  0  0  0
   15.5663  -13.5002   19.8966 N   0  0  0  0  0  0  0  0  0  0  0  0
   14.9685  -14.8000   20.0982 C   0  0  0  0  0  0  0  0  0  0  0  0
   16.0005  -15.8826   20.2615 C   0  0  0  0  0  0  0  0  0  0  0  0
   16.4416  -16.0883   21.6631 C   0  0  0  0  0  0  0  0  0  0  0  0
   15.8029  -17.2111   22.3999 C   0  0  2  0  0  0  0  0  0  0  0  0
   14.5405  -16.7066   22.9457 N   0  0  0  0  0  0  0  0  0  0  0  0
   16.6645  -17.6491   23.5392 C   0  0  0  0  0  0  0  0  0  0  0  0
   17.7792  -18.4533   23.3848 O   0  0  0  0  0  0  0  0  0  0  0  0
   16.3706  -17.2740   24.6995 O   0  0  0  0  0  0  0  0  0  0  0  0
  2  1  1  0
  3  2  2  0
  4  3  1  0
  5 11  1  0
  5  4  2  0
  6  5  1  0
  7  6  1  0
  7  8  1  1
  9  7  1  0
  9 19  1  0
 10  9  2  0
 11 12  2  0
 12  2  1  0
 13 14  1  0
 14 15  2  0
 16 14  1  0
 16 17  1  0
 18 17  1  1
 18 19  1  0
 18 20  1  0
 20 21  2  0
 20 30  1  0
 22 23  1  0
 23 24  2  0
 23 25  1  0
 25 26  1  0
 26 27  1  0
 28 27  1  0
 29 28  1  1
 29 31  1  0
 30 29  1  0
 31 33  2  0
 31 32  1  0
M  END
$$$$
