YQR.pdb
     RDKit          3D

 33 33  0  0  1  0  0  0  0  0999 V2000
   -2.0032  -20.8011   20.3900 O   0  0  0  0  0  0  0  0  0  0  0  0
   -0.7936  -20.2663   20.8291 C   0  0  0  0  0  0  0  0  0  0  0  0
    0.0015  -19.6222   19.9077 C   0  0  0  0  0  0  0  0  0  0  0  0
    1.2243  -19.0690   20.2998 C   0  0  0  0  0  0  0  0  0  0  0  0
    1.6500  -19.1557   21.5919 C   0  0  0  0  0  0  0  0  0  0  0  0
    2.9425  -18.5705   21.9921 C   0  0  0  0  0  0  0  0  0  0  0  0
    4.0700  -19.1977   21.2099 C   0  0  2  0  0  0  0  0  0  0  0  0
    4.1160  -20.5982   21.5121 N   0  0  0  0  0  0  0  0  0  0  0  0
    5.3655  -18.5251   21.4474 C   0  0  0  0  0  0  0  0  0  0  0  0
    6.2329  -18.9847   22.2628 O   0  0  0  0  0  0  0  0  0  0  0  0
    0.8553  -19.7989   22.5108 C   0  0  0  0  0  0  0  0  0  0  0  0
   -0.3681  -20.3571   22.1379 C   0  0  0  0  0  0  0  0  0  0  0  0
    6.9461  -13.0181   18.7748 N   0  0  0  0  0  0  0  0  0  0  0  0
    8.0983  -13.2740   19.5506 C   0  0  0  0  0  0  0  0  0  0  0  0
    9.0507  -12.4727   19.5423 O   0  0  0  0  0  0  0  0  0  0  0  0
    8.1606  -14.5002   20.3709 C   0  0  0  0  0  0  0  0  0  0  0  0
    6.8973  -15.2889   20.1841 C   0  0  0  0  0  0  0  0  0  0  0  0
    6.9302  -16.6191   20.9102 C   0  0  2  0  0  0  0  0  0  0  0  0
    5.6984  -17.3313   20.7718 N   0  0  0  0  0  0  0  0  0  0  0  0
    7.3145  -16.3958   22.3214 C   0  0  0  0  0  0  0  0  0  0  0  0
    6.5805  -15.7092   23.0758 O   0  0  0  0  0  0  0  0  0  0  0  0
   12.6093  -21.4011   27.4224 N   0  0  0  0  0  0  0  0  0  0  0  0
   12.1897  -20.3214   28.2427 C   0  0  0  0  0  0  0  0  0  0  0  0
   12.4373  -20.3732   29.5276 N   0  0  0  0  0  0  0  0  0  0  0  0
   11.5093  -19.1855   27.7071 N   0  0  0  0  0  0  0  0  0  0  0  0
   10.9590  -19.2385   26.3723 C   0  0  0  0  0  0  0  0  0  0  0  0
   10.2709  -17.9566   25.9884 C   0  0  0  0  0  0  0  0  0  0  0  0
    9.6469  -17.9873   24.6425 C   0  0  0  0  0  0  0  0  0  0  0  0
    8.9886  -16.7331   24.1896 C   0  0  2  0  0  0  0  0  0  0  0  0
    8.5200  -16.9615   22.8205 N   0  0  0  0  0  0  0  0  0  0  0  0
    9.9675  -15.6046   24.1679 C   0  0  0  0  0  0  0  0  0  0  0  0
   10.1680  -14.7506   25.2373 O   0  0  0  0  0  0  0  0  0  0  0  0
   10.6473  -15.4127   23.1314 O   0  0  0  0  0  0  0  0  0  0  0  0
  2  1  1  0
  3  2  2  0
  4  3  1  0
  5 11  1  0
  5  4  2  0
  6  5  1  0
  7  6  1  0
  7  8  1  1
  9  7  1  0
  9 19  1  0
 10  9  2  0
 11 12  2  0
 12  2  1  0
 13 14  1  0
 14 15  2  0
 16 14  1  0
 16 17  1  0
 18 17  1  6
 18 19  1  0
 18 20  1  0
 20 21  2  0
 20 30  1  0
 22 23  1  0
 23 24  2  0
 23 25  1  0
 25 26  1  0
 26 27  1  0
 28 27  1  0
 29 28  1  6
 29 31  1  0
 30 29  1  0
 31 33  2  0
 31 32  1  0
M  END
$$$$
