YQR.pdb
     RDKit          3D

 33 33  0  0  1  0  0  0  0  0999 V2000
    7.8894  -11.0221   19.4476 O   0  0  0  0  0  0  0  0  0  0  0  0
    7.8753  -12.4141   19.3823 C   0  0  0  0  0  0  0  0  0  0  0  0
    7.4328  -13.1090   20.4856 C   0  0  0  0  0  0  0  0  0  0  0  0
    7.4000  -14.5068   20.4686 C   0  0  0  0  0  0  0  0  0  0  0  0
    7.8021  -15.2035   19.3682 C   0  0  0  0  0  0  0  0  0  0  0  0
    7.7650  -16.6771   19.3638 C   0  0  0  0  0  0  0  0  0  0  0  0
    7.2946  -17.1966   20.7000 C   0  0  2  0  0  0  0  0  0  0  0  0
    5.9040  -16.8833   20.8517 N   0  0  0  0  0  0  0  0  0  0  0  0
    8.1138  -16.6918   21.8231 C   0  0  0  0  0  0  0  0  0  0  0  0
    9.3743  -16.8803   21.8861 O   0  0  0  0  0  0  0  0  0  0  0  0
    8.2435  -14.5085   18.2674 C   0  0  0  0  0  0  0  0  0  0  0  0
    8.2834  -13.1136   18.2660 C   0  0  0  0  0  0  0  0  0  0  0  0
    7.5134  -11.4405   26.2764 N   0  0  0  0  0  0  0  0  0  0  0  0
    7.3049  -12.8050   26.5754 C   0  0  0  0  0  0  0  0  0  0  0  0
    6.4167  -13.1423   27.3795 O   0  0  0  0  0  0  0  0  0  0  0  0
    8.1502  -13.8257   25.9243 C   0  0  0  0  0  0  0  0  0  0  0  0
    7.3985  -14.4373   24.7780 C   0  0  0  0  0  0  0  0  0  0  0  0
    8.2216  -15.4639   24.0254 C   0  0  2  0  0  0  0  0  0  0  0  0
    7.5253  -15.9712   22.8845 N   0  0  0  0  0  0  0  0  0  0  0  0
    8.6513  -16.5264   24.9610 C   0  0  0  0  0  0  0  0  0  0  0  0
    7.8106  -17.3339   25.4304 O   0  0  0  0  0  0  0  0  0  0  0  0
   16.2634  -19.1555   27.0416 N   0  0  0  0  0  0  0  0  0  0  0  0
   15.7799  -20.4630   26.7743 C   0  0  0  0  0  0  0  0  0  0  0  0
   16.4576  -21.4894   27.2242 N   0  0  0  0  0  0  0  0  0  0  0  0
   14.5801  -20.6881   26.0329 N   0  0  0  0  0  0  0  0  0  0  0  0
   13.9000  -19.5771   25.4080 C   0  0  0  0  0  0  0  0  0  0  0  0
   12.5921  -19.2586   26.0804 C   0  0  0  0  0  0  0  0  0  0  0  0
   11.8267  -18.1699   25.4243 C   0  0  0  0  0  0  0  0  0  0  0  0
   10.5518  -17.7707   26.0776 C   0  0  2  0  0  0  0  0  0  0  0  0
   10.0215  -16.6292   25.3279 N   0  0  0  0  0  0  0  0  0  0  0  0
   10.7973  -17.3339   27.4851 C   0  0  0  0  0  0  0  0  0  0  0  0
   10.9921  -18.2160   28.5324 O   0  0  0  0  0  0  0  0  0  0  0  0
   10.8301  -16.1064   27.7411 O   0  0  0  0  0  0  0  0  0  0  0  0
  2  1  1  0
  3  2  2  0
  4  3  1  0
  5 11  1  0
  5  4  2  0
  6  5  1  0
  7  6  1  0
  7  8  1  1
  9  7  1  0
  9 19  1  0
 10  9  2  0
 11 12  2  0
 12  2  1  0
 13 14  1  0
 14 15  2  0
 16 14  1  0
 16 17  1  0
 18 17  1  1
 18 19  1  0
 18 20  1  0
 20 21  2  0
 20 30  1  0
 22 23  1  0
 23 24  2  0
 23 25  1  0
 25 26  1  0
 26 27  1  0
 28 27  1  0
 29 28  1  6
 29 31  1  0
 30 29  1  0
 31 33  2  0
 31 32  1  0
M  END
$$$$
