YQR.pdb
     RDKit          3D

 33 33  0  0  1  0  0  0  0  0999 V2000
    8.3165  -11.4942   27.5450 O   0  0  0  0  0  0  0  0  0  0  0  0
    7.5972  -12.4998   26.9021 C   0  0  0  0  0  0  0  0  0  0  0  0
    6.4132  -12.1570   26.2884 C   0  0  0  0  0  0  0  0  0  0  0  0
    5.6556  -13.1306   25.6302 C   0  0  0  0  0  0  0  0  0  0  0  0
    6.0708  -14.4281   25.5836 C   0  0  0  0  0  0  0  0  0  0  0  0
    5.2617  -15.4456   24.8886 C   0  0  0  0  0  0  0  0  0  0  0  0
    6.0544  -16.7166   24.7083 C   0  0  2  0  0  0  0  0  0  0  0  0
    6.4721  -17.1850   25.9972 N   0  0  0  0  0  0  0  0  0  0  0  0
    7.1877  -16.5483   23.7732 C   0  0  0  0  0  0  0  0  0  0  0  0
    8.3063  -17.1380   23.9446 O   0  0  0  0  0  0  0  0  0  0  0  0
    7.2530  -14.7690   26.1966 C   0  0  0  0  0  0  0  0  0  0  0  0
    8.0225  -13.8111   26.8582 C   0  0  0  0  0  0  0  0  0  0  0  0
    7.1632  -13.0889   18.2809 N   0  0  0  0  0  0  0  0  0  0  0  0
    8.3352  -13.8470   18.4959 C   0  0  0  0  0  0  0  0  0  0  0  0
    8.8854  -14.4344   17.5464 O   0  0  0  0  0  0  0  0  0  0  0  0
    8.9006  -13.9348   19.8572 C   0  0  0  0  0  0  0  0  0  0  0  0
    7.8031  -14.2454   20.8330 C   0  0  0  0  0  0  0  0  0  0  0  0
    8.1256  -15.4398   21.7090 C   0  0  2  0  0  0  0  0  0  0  0  0
    7.0750  -15.7172   22.6379 N   0  0  0  0  0  0  0  0  0  0  0  0
    9.4353  -15.2261   22.3631 C   0  0  0  0  0  0  0  0  0  0  0  0
    9.6774  -14.1448   22.9560 O   0  0  0  0  0  0  0  0  0  0  0  0
   14.4947  -17.8169   27.5364 N   0  0  0  0  0  0  0  0  0  0  0  0
   13.3317  -18.1791   28.2653 C   0  0  0  0  0  0  0  0  0  0  0  0
   13.4336  -18.3778   29.5557 N   0  0  0  0  0  0  0  0  0  0  0  0
   12.0602  -18.3309   27.6327 N   0  0  0  0  0  0  0  0  0  0  0  0
   11.9879  -18.5912   26.2135 C   0  0  0  0  0  0  0  0  0  0  0  0
   12.0936  -17.3318   25.3970 C   0  0  0  0  0  0  0  0  0  0  0  0
   11.5514  -17.4579   24.0216 C   0  0  0  0  0  0  0  0  0  0  0  0
   11.6095  -16.2381   23.1729 C   0  0  2  0  0  0  0  0  0  0  0  0
   10.4206  -16.2507   22.3170 N   0  0  0  0  0  0  0  0  0  0  0  0
   12.8188  -16.2657   22.2960 C   0  0  0  0  0  0  0  0  0  0  0  0
   14.0806  -15.8997   22.7283 O   0  0  0  0  0  0  0  0  0  0  0  0
   12.6943  -16.6381   21.1047 O   0  0  0  0  0  0  0  0  0  0  0  0
  2  1  1  0
  3  2  2  0
  4  3  1  0
  5 11  1  0
  5  4  2  0
  6  5  1  0
  7  6  1  0
  7  8  1  1
  9  7  1  0
  9 19  1  0
 10  9  2  0
 11 12  2  0
 12  2  1  0
 13 14  1  0
 14 15  2  0
 16 14  1  0
 16 17  1  0
 18 17  1  1
 18 19  1  0
 18 20  1  0
 20 21  2  0
 20 30  1  0
 22 23  1  0
 23 24  2  0
 23 25  1  0
 25 26  1  0
 26 27  1  0
 28 27  1  0
 29 28  1  1
 29 31  1  0
 30 29  1  0
 31 33  2  0
 31 32  1  0
M  END
$$$$
