YQR.pdb
     RDKit          3D

 33 33  0  0  1  0  0  0  0  0999 V2000
    5.5461  -10.7341   27.8563 O   0  0  0  0  0  0  0  0  0  0  0  0
    6.2011  -11.7036   27.0991 C   0  0  0  0  0  0  0  0  0  0  0  0
    6.8517  -12.7162   27.7678 C   0  0  0  0  0  0  0  0  0  0  0  0
    7.5232  -13.7123   27.0524 C   0  0  0  0  0  0  0  0  0  0  0  0
    7.5467  -13.7007   25.6895 C   0  0  0  0  0  0  0  0  0  0  0  0
    8.2603  -14.7554   24.9469 C   0  0  0  0  0  0  0  0  0  0  0  0
    7.2785  -15.6960   24.2928 C   0  0  2  0  0  0  0  0  0  0  0  0
    6.4849  -16.3152   25.3136 N   0  0  0  0  0  0  0  0  0  0  0  0
    7.9413  -16.6842   23.4146 C   0  0  0  0  0  0  0  0  0  0  0  0
    7.4831  -17.8634   23.2477 O   0  0  0  0  0  0  0  0  0  0  0  0
    6.8967  -12.6893   25.0231 C   0  0  0  0  0  0  0  0  0  0  0  0
    6.2213  -11.6866   25.7202 C   0  0  0  0  0  0  0  0  0  0  0  0
    7.3914  -18.6918   18.7605 N   0  0  0  0  0  0  0  0  0  0  0  0
    7.6514  -17.3039   18.7308 C   0  0  0  0  0  0  0  0  0  0  0  0
    7.2016  -16.6011   17.8072 O   0  0  0  0  0  0  0  0  0  0  0  0
    8.4607  -16.6963   19.8060 C   0  0  0  0  0  0  0  0  0  0  0  0
    8.9403  -17.7719   20.7366 C   0  0  0  0  0  0  0  0  0  0  0  0
    9.8331  -17.2327   21.8367 C   0  0  2  0  0  0  0  0  0  0  0  0
    9.1236  -16.3572   22.7164 N   0  0  0  0  0  0  0  0  0  0  0  0
   11.0271  -16.6026   21.2317 C   0  0  0  0  0  0  0  0  0  0  0  0
   11.0091  -15.3864   20.9160 O   0  0  0  0  0  0  0  0  0  0  0  0
   18.7506  -18.3355   23.9615 N   0  0  0  0  0  0  0  0  0  0  0  0
   18.2941  -17.2478   24.7509 C   0  0  0  0  0  0  0  0  0  0  0  0
   19.1694  -16.5561   25.4368 N   0  0  0  0  0  0  0  0  0  0  0  0
   16.9132  -16.8886   24.8160 N   0  0  0  0  0  0  0  0  0  0  0  0
   15.9269  -17.6905   24.1294 C   0  0  0  0  0  0  0  0  0  0  0  0
   15.4422  -17.0372   22.8636 C   0  0  0  0  0  0  0  0  0  0  0  0
   14.0606  -17.4181   22.4797 C   0  0  0  0  0  0  0  0  0  0  0  0
   13.5463  -16.8471   21.2064 C   0  0  2  0  0  0  0  0  0  0  0  0
   12.1965  -17.3806   21.0081 N   0  0  0  0  0  0  0  0  0  0  0  0
   14.3954  -17.2804   20.0560 C   0  0  0  0  0  0  0  0  0  0  0  0
   15.6626  -16.7813   19.8152 O   0  0  0  0  0  0  0  0  0  0  0  0
   13.9452  -18.1402   19.2614 O   0  0  0  0  0  0  0  0  0  0  0  0
  2  1  1  0
  3  2  2  0
  4  3  1  0
  5 11  1  0
  5  4  2  0
  6  5  1  0
  7  6  1  0
  7  8  1  1
  9  7  1  0
  9 19  1  0
 10  9  2  0
 11 12  2  0
 12  2  1  0
 13 14  1  0
 14 15  2  0
 16 14  1  0
 16 17  1  0
 18 17  1  6
 18 19  1  0
 18 20  1  0
 20 21  2  0
 20 30  1  0
 22 23  1  0
 23 24  2  0
 23 25  1  0
 25 26  1  0
 26 27  1  0
 28 27  1  0
 29 28  1  1
 29 31  1  0
 30 29  1  0
 31 33  2  0
 31 32  1  0
M  END
$$$$
