YQR.pdb
     RDKit          3D

 33 33  0  0  1  0  0  0  0  0999 V2000
    0.6473  -20.4787   20.6040 O   0  0  0  0  0  0  0  0  0  0  0  0
    1.7651  -20.6271   21.4230 C   0  0  0  0  0  0  0  0  0  0  0  0
    1.7895  -21.6901   22.2979 C   0  0  0  0  0  0  0  0  0  0  0  0
    2.8890  -21.8814   23.1402 C   0  0  0  0  0  0  0  0  0  0  0  0
    3.9501  -21.0262   23.1120 C   0  0  0  0  0  0  0  0  0  0  0  0
    5.1023  -21.2376   24.0070 C   0  0  0  0  0  0  0  0  0  0  0  0
    6.3599  -21.4599   23.2037 C   0  0  2  0  0  0  0  0  0  0  0  0
    6.1648  -22.5934   22.3480 N   0  0  0  0  0  0  0  0  0  0  0  0
    7.5597  -21.5959   24.0577 C   0  0  0  0  0  0  0  0  0  0  0  0
    7.8479  -22.6832   24.6601 O   0  0  0  0  0  0  0  0  0  0  0  0
    3.9245  -19.9655   22.2381 C   0  0  0  0  0  0  0  0  0  0  0  0
    2.8358  -19.7585   21.3899 C   0  0  0  0  0  0  0  0  0  0  0  0
   10.9625  -19.5867   20.9762 N   0  0  0  0  0  0  0  0  0  0  0  0
   10.9577  -18.9936   22.2579 C   0  0  0  0  0  0  0  0  0  0  0  0
   10.5549  -17.8254   22.4070 O   0  0  0  0  0  0  0  0  0  0  0  0
   11.4344  -19.7733   23.4177 C   0  0  0  0  0  0  0  0  0  0  0  0
   10.6024  -19.4357   24.6206 C   0  0  0  0  0  0  0  0  0  0  0  0
    9.6548  -20.5550   25.0042 C   0  0  2  0  0  0  0  0  0  0  0  0
    8.4459  -20.5130   24.2424 N   0  0  0  0  0  0  0  0  0  0  0  0
    9.4206  -20.5174   26.4645 C   0  0  0  0  0  0  0  0  0  0  0  0
    8.7565  -19.5804   26.9748 O   0  0  0  0  0  0  0  0  0  0  0  0
   10.0861  -27.1797   32.3814 N   0  0  0  0  0  0  0  0  0  0  0  0
    9.8409  -26.0054   33.1401 C   0  0  0  0  0  0  0  0  0  0  0  0
    9.5339  -26.1269   34.4075 N   0  0  0  0  0  0  0  0  0  0  0  0
    9.9204  -24.7018   32.5620 N   0  0  0  0  0  0  0  0  0  0  0  0
    9.9965  -24.5534   31.1268 C   0  0  0  0  0  0  0  0  0  0  0  0
    9.9854  -23.1101   30.7018 C   0  0  0  0  0  0  0  0  0  0  0  0
    9.9675  -22.9151   29.2311 C   0  0  0  0  0  0  0  0  0  0  0  0
    9.8574  -21.5119   28.7508 C   0  0  2  0  0  0  0  0  0  0  0  0
    9.9516  -21.5472   27.2893 N   0  0  0  0  0  0  0  0  0  0  0  0
   10.9885  -20.6877   29.2738 C   0  0  0  0  0  0  0  0  0  0  0  0
   10.9706  -20.0688   30.5106 O   0  0  0  0  0  0  0  0  0  0  0  0
   12.0114  -20.5429   28.5625 O   0  0  0  0  0  0  0  0  0  0  0  0
  2  1  1  0
  3  2  2  0
  4  3  1  0
  5 11  1  0
  5  4  2  0
  6  5  1  0
  7  6  1  0
  7  8  1  1
  9  7  1  0
  9 19  1  0
 10  9  2  0
 11 12  2  0
 12  2  1  0
 13 14  1  0
 14 15  2  0
 16 14  1  0
 16 17  1  0
 18 17  1  6
 18 19  1  0
 18 20  1  0
 20 21  2  0
 20 30  1  0
 22 23  1  0
 23 24  2  0
 23 25  1  0
 25 26  1  0
 26 27  1  0
 28 27  1  0
 29 28  1  1
 29 31  1  0
 30 29  1  0
 31 33  2  0
 31 32  1  0
M  END
$$$$
