YQR.pdb
     RDKit          3D

 33 33  0  0  1  0  0  0  0  0999 V2000
   10.0019  -14.4824   30.1182 O   0  0  0  0  0  0  0  0  0  0  0  0
    9.3979  -14.8390   28.9139 C   0  0  0  0  0  0  0  0  0  0  0  0
    8.7638  -13.8532   28.1914 C   0  0  0  0  0  0  0  0  0  0  0  0
    8.1430  -14.1614   26.9770 C   0  0  0  0  0  0  0  0  0  0  0  0
    8.1533  -15.4339   26.4884 C   0  0  0  0  0  0  0  0  0  0  0  0
    7.4930  -15.7464   25.2079 C   0  0  0  0  0  0  0  0  0  0  0  0
    8.5204  -15.9690   24.1256 C   0  0  2  0  0  0  0  0  0  0  0  0
    9.7423  -15.3266   24.5121 N   0  0  0  0  0  0  0  0  0  0  0  0
    8.0456  -15.5282   22.7961 C   0  0  0  0  0  0  0  0  0  0  0  0
    7.0368  -16.0585   22.2222 O   0  0  0  0  0  0  0  0  0  0  0  0
    8.7867  -16.4171   27.2106 C   0  0  0  0  0  0  0  0  0  0  0  0
    9.4116  -16.1283   28.4245 C   0  0  0  0  0  0  0  0  0  0  0  0
    6.5252  -13.8615   19.0825 N   0  0  0  0  0  0  0  0  0  0  0  0
    7.5193  -13.3226   18.2363 C   0  0  0  0  0  0  0  0  0  0  0  0
    7.4301  -13.4531   17.0016 O   0  0  0  0  0  0  0  0  0  0  0  0
    8.6635  -12.6033   18.8309 C   0  0  0  0  0  0  0  0  0  0  0  0
    8.6735  -12.8244   20.3155 C   0  0  0  0  0  0  0  0  0  0  0  0
    8.6674  -14.2948   20.6839 C   0  0  2  0  0  0  0  0  0  0  0  0
    8.6989  -14.4886   22.0999 N   0  0  0  0  0  0  0  0  0  0  0  0
    9.7751  -14.9789   19.9811 C   0  0  0  0  0  0  0  0  0  0  0  0
    9.6440  -15.3256   18.7803 O   0  0  0  0  0  0  0  0  0  0  0  0
   16.2308  -12.5347   17.8024 N   0  0  0  0  0  0  0  0  0  0  0  0
   16.6065  -13.6848   17.0602 C   0  0  0  0  0  0  0  0  0  0  0  0
   17.8412  -13.7845   16.6352 N   0  0  0  0  0  0  0  0  0  0  0  0
   15.6795  -14.7310   16.7669 N   0  0  0  0  0  0  0  0  0  0  0  0
   14.2972  -14.6020   17.1668 C   0  0  0  0  0  0  0  0  0  0  0  0
   13.9936  -15.3707   18.4241 C   0  0  0  0  0  0  0  0  0  0  0  0
   12.7580  -14.9293   19.1168 C   0  0  0  0  0  0  0  0  0  0  0  0
   12.1267  -15.9136   20.0356 C   0  0  2  0  0  0  0  0  0  0  0  0
   10.9900  -15.2432   20.6716 N   0  0  0  0  0  0  0  0  0  0  0  0
   13.0865  -16.3247   21.1043 C   0  0  0  0  0  0  0  0  0  0  0  0
   12.8554  -16.1231   22.4530 O   0  0  0  0  0  0  0  0  0  0  0  0
   14.1601  -16.8818   20.7721 O   0  0  0  0  0  0  0  0  0  0  0  0
  2  1  1  0
  3  2  2  0
  4  3  1  0
  5 11  1  0
  5  4  2  0
  6  5  1  0
  7  6  1  0
  7  8  1  1
  9  7  1  0
  9 19  1  0
 10  9  2  0
 11 12  2  0
 12  2  1  0
 13 14  1  0
 14 15  2  0
 16 14  1  0
 16 17  1  0
 18 17  1  1
 18 19  1  0
 18 20  1  0
 20 21  2  0
 20 30  1  0
 22 23  1  0
 23 24  2  0
 23 25  1  0
 25 26  1  0
 26 27  1  0
 28 27  1  0
 29 28  1  6
 29 31  1  0
 30 29  1  0
 31 33  2  0
 31 32  1  0
M  END
$$$$
