YQR.pdb
     RDKit          3D

 33 33  0  0  1  0  0  0  0  0999 V2000
    7.6899  -12.5356   17.2056 O   0  0  0  0  0  0  0  0  0  0  0  0
    7.9983  -13.4944   18.1688 C   0  0  0  0  0  0  0  0  0  0  0  0
    7.8601  -13.1477   19.4942 C   0  0  0  0  0  0  0  0  0  0  0  0
    8.1572  -14.0751   20.4976 C   0  0  0  0  0  0  0  0  0  0  0  0
    8.5860  -15.3309   20.1858 C   0  0  0  0  0  0  0  0  0  0  0  0
    8.8983  -16.2987   21.2530 C   0  0  0  0  0  0  0  0  0  0  0  0
    8.1309  -17.5807   21.0432 C   0  0  2  0  0  0  0  0  0  0  0  0
    6.7563  -17.2586   20.7949 N   0  0  0  0  0  0  0  0  0  0  0  0
    8.2957  -18.5286   22.1664 C   0  0  0  0  0  0  0  0  0  0  0  0
    7.7945  -18.3126   23.3198 O   0  0  0  0  0  0  0  0  0  0  0  0
    8.7234  -15.6758   18.8623 C   0  0  0  0  0  0  0  0  0  0  0  0
    8.4317  -14.7636   17.8473 C   0  0  0  0  0  0  0  0  0  0  0  0
    7.2957  -22.2100   21.8614 N   0  0  0  0  0  0  0  0  0  0  0  0
    8.4104  -22.5864   21.0799 C   0  0  0  0  0  0  0  0  0  0  0  0
    8.2479  -23.0321   19.9291 O   0  0  0  0  0  0  0  0  0  0  0  0
    9.7686  -22.4454   21.6417 C   0  0  0  0  0  0  0  0  0  0  0  0
    9.6795  -21.8483   23.0160 C   0  0  0  0  0  0  0  0  0  0  0  0
    9.8385  -20.3409   23.0059 C   0  0  2  0  0  0  0  0  0  0  0  0
    9.0240  -19.7267   22.0043 N   0  0  0  0  0  0  0  0  0  0  0  0
   11.2726  -20.0020   22.8739 C   0  0  0  0  0  0  0  0  0  0  0  0
   11.8719  -20.1999   21.7872 O   0  0  0  0  0  0  0  0  0  0  0  0
   11.5580  -16.1224   19.3378 N   0  0  0  0  0  0  0  0  0  0  0  0
   11.7844  -14.7657   19.6882 C   0  0  0  0  0  0  0  0  0  0  0  0
   12.1797  -13.9325   18.7583 N   0  0  0  0  0  0  0  0  0  0  0  0
   11.5927  -14.2871   21.0201 N   0  0  0  0  0  0  0  0  0  0  0  0
   11.1219  -15.1865   22.0482 C   0  0  0  0  0  0  0  0  0  0  0  0
   12.1781  -16.1712   22.4712 C   0  0  0  0  0  0  0  0  0  0  0  0
   11.7222  -17.1397   23.4986 C   0  0  0  0  0  0  0  0  0  0  0  0
   12.7005  -18.1837   23.9043 C   0  0  2  0  0  0  0  0  0  0  0  0
   11.9708  -19.4515   23.9839 N   0  0  0  0  0  0  0  0  0  0  0  0
   13.2621  -17.8804   25.2551 C   0  0  0  0  0  0  0  0  0  0  0  0
   12.8910  -18.5571   26.4029 O   0  0  0  0  0  0  0  0  0  0  0  0
   14.1144  -16.9667   25.3651 O   0  0  0  0  0  0  0  0  0  0  0  0
  2  1  1  0
  3  2  2  0
  4  3  1  0
  5 11  1  0
  5  4  2  0
  6  5  1  0
  7  6  1  0
  7  8  1  1
  9  7  1  0
  9 19  1  0
 10  9  2  0
 11 12  2  0
 12  2  1  0
 13 14  1  0
 14 15  2  0
 16 14  1  0
 16 17  1  0
 18 17  1  6
 18 19  1  0
 18 20  1  0
 20 21  2  0
 20 30  1  0
 22 23  1  0
 23 24  2  0
 23 25  1  0
 25 26  1  0
 26 27  1  0
 28 27  1  0
 29 28  1  1
 29 31  1  0
 30 29  1  0
 31 33  2  0
 31 32  1  0
M  END
$$$$
