YQR.pdb
     RDKit          3D

 33 33  0  0  1  0  0  0  0  0999 V2000
    5.3961  -10.5279   26.9040 O   0  0  0  0  0  0  0  0  0  0  0  0
    6.0663  -11.7172   26.6236 C   0  0  0  0  0  0  0  0  0  0  0  0
    5.3186  -12.8027   26.2258 C   0  0  0  0  0  0  0  0  0  0  0  0
    5.9452  -14.0180   25.9331 C   0  0  0  0  0  0  0  0  0  0  0  0
    7.2980  -14.1509   26.0351 C   0  0  0  0  0  0  0  0  0  0  0  0
    7.9463  -15.4382   25.7260 C   0  0  0  0  0  0  0  0  0  0  0  0
    8.7632  -15.3271   24.4624 C   0  0  2  0  0  0  0  0  0  0  0  0
    7.9408  -14.7662   23.4308 N   0  0  0  0  0  0  0  0  0  0  0  0
    9.3679  -16.6169   24.0648 C   0  0  0  0  0  0  0  0  0  0  0  0
    9.9966  -17.3585   24.8913 O   0  0  0  0  0  0  0  0  0  0  0  0
    8.0433  -13.0663   26.4323 C   0  0  0  0  0  0  0  0  0  0  0  0
    7.4355  -11.8456   26.7286 C   0  0  0  0  0  0  0  0  0  0  0  0
    7.3909  -20.4996   20.0676 N   0  0  0  0  0  0  0  0  0  0  0  0
    8.7288  -20.9474   20.0045 C   0  0  0  0  0  0  0  0  0  0  0  0
    8.9923  -22.0737   19.5449 O   0  0  0  0  0  0  0  0  0  0  0  0
    9.8103  -20.0662   20.4884 C   0  0  0  0  0  0  0  0  0  0  0  0
    9.2197  -18.7762   20.9785 C   0  0  0  0  0  0  0  0  0  0  0  0
    9.9081  -18.2590   22.2261 C   0  0  2  0  0  0  0  0  0  0  0  0
    9.2720  -17.0850   22.7367 N   0  0  0  0  0  0  0  0  0  0  0  0
   11.3469  -18.0616   21.9437 C   0  0  0  0  0  0  0  0  0  0  0  0
   11.7217  -17.1262   21.1929 O   0  0  0  0  0  0  0  0  0  0  0  0
   16.5611  -14.8168   21.2180 N   0  0  0  0  0  0  0  0  0  0  0  0
   17.6040  -15.0309   22.1568 C   0  0  0  0  0  0  0  0  0  0  0  0
   18.8211  -14.6652   21.8406 N   0  0  0  0  0  0  0  0  0  0  0  0
   17.3628  -15.6303   23.4306 N   0  0  0  0  0  0  0  0  0  0  0  0
   16.0423  -16.1150   23.7605 C   0  0  0  0  0  0  0  0  0  0  0  0
   15.5628  -17.1646   22.7949 C   0  0  0  0  0  0  0  0  0  0  0  0
   14.2877  -17.8111   23.1918 C   0  0  0  0  0  0  0  0  0  0  0  0
   13.7400  -18.8261   22.2529 C   0  0  2  0  0  0  0  0  0  0  0  0
   12.3050  -18.9368   22.5258 N   0  0  0  0  0  0  0  0  0  0  0  0
   14.3679  -20.1597   22.4966 C   0  0  0  0  0  0  0  0  0  0  0  0
   13.8557  -21.0916   23.3811 O   0  0  0  0  0  0  0  0  0  0  0  0
   15.4138  -20.4595   21.8725 O   0  0  0  0  0  0  0  0  0  0  0  0
  2  1  1  0
  3  2  2  0
  4  3  1  0
  5 11  1  0
  5  4  2  0
  6  5  1  0
  7  6  1  0
  7  8  1  6
  9  7  1  0
  9 19  1  0
 10  9  2  0
 11 12  2  0
 12  2  1  0
 13 14  1  0
 14 15  2  0
 16 14  1  0
 16 17  1  0
 18 17  1  6
 18 19  1  0
 18 20  1  0
 20 21  2  0
 20 30  1  0
 22 23  1  0
 23 24  2  0
 23 25  1  0
 25 26  1  0
 26 27  1  0
 28 27  1  0
 29 28  1  1
 29 31  1  0
 30 29  1  0
 31 33  2  0
 31 32  1  0
M  END
$$$$
