YQR.pdb
     RDKit          3D

 33 33  0  0  1  0  0  0  0  0999 V2000
    5.4572  -10.6584   28.2380 O   0  0  0  0  0  0  0  0  0  0  0  0
    6.1557  -11.6474   27.5479 C   0  0  0  0  0  0  0  0  0  0  0  0
    5.4682  -12.3968   26.6197 C   0  0  0  0  0  0  0  0  0  0  0  0
    6.1251  -13.4008   25.9017 C   0  0  0  0  0  0  0  0  0  0  0  0
    7.4488  -13.6554   26.1050 C   0  0  0  0  0  0  0  0  0  0  0  0
    8.1293  -14.7183   25.3434 C   0  0  0  0  0  0  0  0  0  0  0  0
    7.5729  -16.0710   25.7137 C   0  0  2  0  0  0  0  0  0  0  0  0
    7.8173  -16.3032   27.1070 N   0  0  0  0  0  0  0  0  0  0  0  0
    8.1039  -17.1543   24.8582 C   0  0  0  0  0  0  0  0  0  0  0  0
    9.2228  -17.7213   25.0923 O   0  0  0  0  0  0  0  0  0  0  0  0
    8.1340  -12.9064   27.0319 C   0  0  0  0  0  0  0  0  0  0  0  0
    7.4951  -11.9004   27.7579 C   0  0  0  0  0  0  0  0  0  0  0  0
    5.0598  -19.0416   19.6545 N   0  0  0  0  0  0  0  0  0  0  0  0
    6.3937  -19.3336   19.2937 C   0  0  0  0  0  0  0  0  0  0  0  0
    6.6459  -19.8523   18.1907 O   0  0  0  0  0  0  0  0  0  0  0  0
    7.4843  -19.0170   20.2374 C   0  0  0  0  0  0  0  0  0  0  0  0
    6.9097  -18.3673   21.4625 C   0  0  0  0  0  0  0  0  0  0  0  0
    7.9642  -18.0659   22.5090 C   0  0  2  0  0  0  0  0  0  0  0  0
    7.3835  -17.6103   23.7333 N   0  0  0  0  0  0  0  0  0  0  0  0
    8.9515  -17.1174   21.9483 C   0  0  0  0  0  0  0  0  0  0  0  0
    8.8063  -15.8805   22.1158 O   0  0  0  0  0  0  0  0  0  0  0  0
    9.0115  -12.6292   17.5320 N   0  0  0  0  0  0  0  0  0  0  0  0
    8.3509  -13.7868   17.0437 C   0  0  0  0  0  0  0  0  0  0  0  0
    8.2342  -13.9465   15.7491 N   0  0  0  0  0  0  0  0  0  0  0  0
    7.8138  -14.7771   17.9216 N   0  0  0  0  0  0  0  0  0  0  0  0
    8.3944  -14.9712   19.2303 C   0  0  0  0  0  0  0  0  0  0  0  0
    9.8856  -15.1625   19.1694 C   0  0  0  0  0  0  0  0  0  0  0  0
   10.5176  -15.3964   20.4913 C   0  0  0  0  0  0  0  0  0  0  0  0
   11.1243  -16.7369   20.7069 C   0  0  2  0  0  0  0  0  0  0  0  0
   10.0666  -17.6125   21.2173 N   0  0  0  0  0  0  0  0  0  0  0  0
   12.2081  -16.6638   21.7326 C   0  0  0  0  0  0  0  0  0  0  0  0
   13.4458  -16.0949   21.4925 O   0  0  0  0  0  0  0  0  0  0  0  0
   11.9953  -17.1402   22.8733 O   0  0  0  0  0  0  0  0  0  0  0  0
  2  1  1  0
  3  2  2  0
  4  3  1  0
  5 11  1  0
  5  4  2  0
  6  5  1  0
  7  6  1  0
  7  8  1  1
  9  7  1  0
  9 19  1  0
 10  9  2  0
 11 12  2  0
 12  2  1  0
 13 14  1  0
 14 15  2  0
 16 14  1  0
 16 17  1  0
 18 17  1  6
 18 19  1  0
 18 20  1  0
 20 21  2  0
 20 30  1  0
 22 23  1  0
 23 24  2  0
 23 25  1  0
 25 26  1  0
 26 27  1  0
 28 27  1  0
 29 28  1  1
 29 31  1  0
 30 29  1  0
 31 33  2  0
 31 32  1  0
M  END
$$$$
