IWF.pdb
     RDKit          3D

 34 36  0  0  1  0  0  0  0  0999 V2000
    9.7118  -23.2338   22.7055 C   0  0  0  0  0  0  0  0  0  0  0  0
    8.7435  -22.2114   22.1580 C   0  0  0  0  0  0  0  0  0  0  0  0
    9.1202  -20.7901   22.5156 C   0  0  2  0  0  0  0  0  0  0  0  0
    9.1601  -20.6604   24.0187 C   0  0  0  0  0  0  0  0  0  0  0  0
    8.1046  -19.8579   21.9386 C   0  0  2  0  0  0  0  0  0  0  0  0
    7.9777  -20.0547   20.5293 N   0  0  0  0  0  0  0  0  0  0  0  0
    8.4096  -18.4251   22.2771 C   0  0  0  0  0  0  0  0  0  0  0  0
    9.4475  -17.8880   21.8138 O   0  0  0  0  0  0  0  0  0  0  0  0
    7.5691  -17.6538   23.1008 N   0  0  0  0  0  0  0  0  0  0  0  0
    7.9653  -16.2758   23.4869 C   0  0  1  0  0  0  0  0  0  0  0  0
    6.9565  -15.3418   22.8913 C   0  0  0  0  0  0  0  0  0  0  0  0
    7.0252  -15.1854   21.4312 C   0  0  0  0  0  0  0  0  0  0  0  0
    6.5672  -16.0351   20.4356 C   0  0  0  0  0  0  0  0  0  0  0  0
    6.8472  -15.5367   19.2192 N   0  0  0  0  0  0  0  0  0  0  0  0
    7.4926  -14.3537   19.3939 C   0  0  0  0  0  0  0  0  0  0  0  0
    7.9976  -13.4416   18.4980 C   0  0  0  0  0  0  0  0  0  0  0  0
    8.6109  -12.3157   18.9756 C   0  0  0  0  0  0  0  0  0  0  0  0
    8.7343  -12.0752   20.3075 C   0  0  0  0  0  0  0  0  0  0  0  0
    8.2267  -12.9920   21.2086 C   0  0  0  0  0  0  0  0  0  0  0  0
    7.6096  -14.1243   20.7435 C   0  0  0  0  0  0  0  0  0  0  0  0
    7.9747  -16.1906   24.9377 C   0  0  0  0  0  0  0  0  0  0  0  0
    6.9610  -15.6349   25.4992 O   0  0  0  0  0  0  0  0  0  0  0  0
    8.9768  -16.6580   25.8098 N   0  0  0  0  0  0  0  0  0  0  0  0
   10.1308  -15.8091   26.0754 C   0  0  1  0  0  0  0  0  0  0  0  0
    9.7279  -15.0163   27.3250 C   0  0  0  0  0  0  0  0  0  0  0  0
    8.6687  -14.0774   26.9585 C   0  0  0  0  0  0  0  0  0  0  0  0
    7.8189  -14.3623   25.9105 C   0  0  0  0  0  0  0  0  0  0  0  0
    6.7905  -13.5147   25.5505 C   0  0  0  0  0  0  0  0  0  0  0  0
    6.6325  -12.3594   26.2757 C   0  0  0  0  0  0  0  0  0  0  0  0
    7.4754  -12.0431   27.3407 C   0  0  0  0  0  0  0  0  0  0  0  0
    8.4974  -12.9181   27.6737 C   0  0  0  0  0  0  0  0  0  0  0  0
   11.3278  -16.5863   26.4007 C   0  0  0  0  0  0  0  0  0  0  0  0
   11.3180  -17.8407   26.5504 O   0  0  0  0  0  0  0  0  0  0  0  0
   12.5877  -15.9902   26.5710 O   0  0  0  0  0  0  0  0  0  0  0  0
  2  1  1  0
  3  5  1  0
  3  2  1  0
  3  4  1  1
  5  6  1  6
  7  5  1  0
  8  7  2  0
  9  7  1  0
 10 21  1  0
 10  9  1  0
 10 11  1  6
 12 11  1  0
 13 12  2  0
 14 15  1  0
 14 13  1  0
 15 20  2  0
 16 17  2  0
 16 15  1  0
 17 18  1  0
 18 19  2  0
 20 19  1  0
 20 12  1  0
 21 22  2  0
 23 24  1  0
 23 21  1  0
 24 25  1  1
 25 26  1  0
 26 27  2  0
 27 28  1  0
 29 28  2  0
 30 29  1  0
 31 26  1  0
 31 30  2  0
 32 34  1  0
 32 24  1  0
 33 32  2  0
M  END
$$$$
