IWF.pdb
     RDKit          3D

 34 36  0  0  1  0  0  0  0  0999 V2000
   13.6251  -17.3975   17.0011 C   0  0  0  0  0  0  0  0  0  0  0  0
   12.2299  -17.6322   17.5312 C   0  0  0  0  0  0  0  0  0  0  0  0
   11.9738  -16.9350   18.8496 C   0  0  2  0  0  0  0  0  0  0  0  0
   12.9736  -17.4316   19.8653 C   0  0  0  0  0  0  0  0  0  0  0  0
   10.5808  -17.2383   19.2977 C   0  0  2  0  0  0  0  0  0  0  0  0
    9.6414  -16.9608   18.2579 N   0  0  0  0  0  0  0  0  0  0  0  0
   10.2360  -16.5144   20.5695 C   0  0  0  0  0  0  0  0  0  0  0  0
   10.7506  -15.3910   20.8003 O   0  0  0  0  0  0  0  0  0  0  0  0
    9.3498  -17.0514   21.5216 N   0  0  0  0  0  0  0  0  0  0  0  0
    9.0813  -16.3193   22.7853 C   0  0  1  0  0  0  0  0  0  0  0  0
    7.5986  -16.3362   23.0002 C   0  0  0  0  0  0  0  0  0  0  0  0
    7.1403  -15.7876   24.2847 C   0  0  0  0  0  0  0  0  0  0  0  0
    6.5518  -16.4406   25.3573 C   0  0  0  0  0  0  0  0  0  0  0  0
    6.2569  -15.5716   26.3392 N   0  0  0  0  0  0  0  0  0  0  0  0
    6.6455  -14.3354   25.9301 C   0  0  0  0  0  0  0  0  0  0  0  0
    6.5781  -13.1036   26.5364 C   0  0  0  0  0  0  0  0  0  0  0  0
    7.0580  -12.0105   25.8679 C   0  0  0  0  0  0  0  0  0  0  0  0
    7.5976  -12.1090   24.6245 C   0  0  0  0  0  0  0  0  0  0  0  0
    7.6655  -13.3473   24.0145 C   0  0  0  0  0  0  0  0  0  0  0  0
    7.1885  -14.4508   24.6733 C   0  0  0  0  0  0  0  0  0  0  0  0
    9.7810  -16.9955   23.8647 C   0  0  0  0  0  0  0  0  0  0  0  0
    9.7374  -18.2799   23.8781 O   0  0  0  0  0  0  0  0  0  0  0  0
   10.5150  -16.3976   24.9073 N   0  0  0  0  0  0  0  0  0  0  0  0
   11.2887  -17.2487   25.8015 C   0  0  1  0  0  0  0  0  0  0  0  0
   12.1607  -16.2630   26.5892 C   0  0  0  0  0  0  0  0  0  0  0  0
   11.2874  -15.4113   27.3954 C   0  0  0  0  0  0  0  0  0  0  0  0
   11.0514  -15.7134   28.7201 C   0  0  0  0  0  0  0  0  0  0  0  0
   10.2549  -14.9201   29.5213 C   0  0  0  0  0  0  0  0  0  0  0  0
    9.6933  -13.8022   28.9553 C   0  0  0  0  0  0  0  0  0  0  0  0
    9.9130  -13.4698   27.6188 C   0  0  0  0  0  0  0  0  0  0  0  0
   10.7185  -14.2898   26.8445 C   0  0  0  0  0  0  0  0  0  0  0  0
   10.4415  -17.9645   26.7568 C   0  0  0  0  0  0  0  0  0  0  0  0
    9.1999  -17.7594   26.8686 O   0  0  0  0  0  0  0  0  0  0  0  0
   10.9501  -18.9419   27.6273 O   0  0  0  0  0  0  0  0  0  0  0  0
  2  1  1  0
  3  5  1  0
  3  2  1  0
  3  4  1  1
  5  6  1  6
  7  5  1  0
  8  7  2  0
  9  7  1  0
 10 21  1  0
 10  9  1  0
 10 11  1  1
 12 11  1  0
 13 12  2  0
 14 15  1  0
 14 13  1  0
 15 20  2  0
 16 17  2  0
 16 15  1  0
 17 18  1  0
 18 19  2  0
 20 19  1  0
 20 12  1  0
 21 22  2  0
 23 24  1  0
 23 21  1  0
 24 25  1  1
 25 26  1  0
 26 27  2  0
 27 28  1  0
 29 28  2  0
 30 29  1  0
 31 26  1  0
 31 30  2  0
 32 34  1  0
 32 24  1  0
 33 32  2  0
M  END
$$$$
