IWF.pdb
     RDKit          3D

 34 36  0  0  1  0  0  0  0  0999 V2000
   12.4215  -19.1944   17.2741 C   0  0  0  0  0  0  0  0  0  0  0  0
   11.0169  -19.0335   17.8070 C   0  0  0  0  0  0  0  0  0  0  0  0
   10.9511  -18.1694   19.0475 C   0  0  2  0  0  0  0  0  0  0  0  0
   11.6959  -18.8614   20.1629 C   0  0  0  0  0  0  0  0  0  0  0  0
    9.5190  -17.9670   19.4238 C   0  0  2  0  0  0  0  0  0  0  0  0
    8.7826  -17.4066   18.3354 N   0  0  0  0  0  0  0  0  0  0  0  0
    9.3840  -17.1415   20.6731 C   0  0  0  0  0  0  0  0  0  0  0  0
    9.9232  -16.0072   20.7258 O   0  0  0  0  0  0  0  0  0  0  0  0
    8.6694  -17.5942   21.7976 N   0  0  0  0  0  0  0  0  0  0  0  0
    8.6007  -16.7579   23.0226 C   0  0  1  0  0  0  0  0  0  0  0  0
    7.3777  -17.1794   23.7785 C   0  0  0  0  0  0  0  0  0  0  0  0
    6.8313  -16.1775   24.7051 C   0  0  0  0  0  0  0  0  0  0  0  0
    5.9051  -16.3388   25.7246 C   0  0  0  0  0  0  0  0  0  0  0  0
    5.6512  -15.1642   26.3264 N   0  0  0  0  0  0  0  0  0  0  0  0
    6.4042  -14.2129   25.7144 C   0  0  0  0  0  0  0  0  0  0  0  0
    6.5281  -12.8608   25.9287 C   0  0  0  0  0  0  0  0  0  0  0  0
    7.3822  -12.1416   25.1379 C   0  0  0  0  0  0  0  0  0  0  0  0
    8.1092  -12.7258   24.1493 C   0  0  0  0  0  0  0  0  0  0  0  0
    7.9849  -14.0852   23.9335 C   0  0  0  0  0  0  0  0  0  0  0  0
    7.1327  -14.8177   24.7188 C   0  0  0  0  0  0  0  0  0  0  0  0
    9.8079  -16.9827   23.7999 C   0  0  0  0  0  0  0  0  0  0  0  0
   10.3415  -18.1497   23.7301 O   0  0  0  0  0  0  0  0  0  0  0  0
   10.4713  -16.0553   24.6264 N   0  0  0  0  0  0  0  0  0  0  0  0
   11.6864  -16.4695   25.3152 C   0  0  1  0  0  0  0  0  0  0  0  0
   12.1466  -15.2035   26.0487 C   0  0  0  0  0  0  0  0  0  0  0  0
   11.1572  -14.8747   27.0739 C   0  0  0  0  0  0  0  0  0  0  0  0
   11.2386  -15.4447   28.3270 C   0  0  0  0  0  0  0  0  0  0  0  0
   10.3400  -15.1400   29.3297 C   0  0  0  0  0  0  0  0  0  0  0  0
    9.3450  -14.2383   29.0424 C   0  0  0  0  0  0  0  0  0  0  0  0
    9.2362  -13.6449   27.7850 C   0  0  0  0  0  0  0  0  0  0  0  0
   10.1564  -13.9749   26.8026 C   0  0  0  0  0  0  0  0  0  0  0  0
   11.4301  -17.5041   26.3185 C   0  0  0  0  0  0  0  0  0  0  0  0
   12.3440  -18.0452   27.0026 O   0  0  0  0  0  0  0  0  0  0  0  0
   10.1374  -17.9756   26.5985 O   0  0  0  0  0  0  0  0  0  0  0  0
  2  1  1  0
  3  5  1  0
  3  2  1  0
  3  4  1  1
  5  6  1  6
  7  5  1  0
  8  7  2  0
  9  7  1  0
 10 21  1  0
 10  9  1  0
 10 11  1  1
 12 11  1  0
 13 12  2  0
 14 15  1  0
 14 13  1  0
 15 20  2  0
 16 17  2  0
 16 15  1  0
 17 18  1  0
 18 19  2  0
 20 19  1  0
 20 12  1  0
 21 22  2  0
 23 24  1  0
 23 21  1  0
 24 25  1  1
 25 26  1  0
 26 27  2  0
 27 28  1  0
 29 28  2  0
 30 29  1  0
 31 26  1  0
 31 30  2  0
 32 34  1  0
 32 24  1  0
 33 32  2  0
M  END
$$$$
