IWF.pdb
     RDKit          3D

 34 36  0  0  1  0  0  0  0  0999 V2000
   11.8063  -21.7662   18.4240 C   0  0  0  0  0  0  0  0  0  0  0  0
   10.5738  -21.3232   19.1773 C   0  0  0  0  0  0  0  0  0  0  0  0
   10.8265  -20.1313   20.0747 C   0  0  2  0  0  0  0  0  0  0  0  0
   10.5900  -20.5418   21.5076 C   0  0  0  0  0  0  0  0  0  0  0  0
    9.8973  -19.0263   19.6888 C   0  0  2  0  0  0  0  0  0  0  0  0
   10.1333  -18.6116   18.3422 N   0  0  0  0  0  0  0  0  0  0  0  0
    9.9757  -17.8729   20.6501 C   0  0  0  0  0  0  0  0  0  0  0  0
   10.9358  -17.0655   20.5697 O   0  0  0  0  0  0  0  0  0  0  0  0
    9.0055  -17.6599   21.6467 N   0  0  0  0  0  0  0  0  0  0  0  0
    9.1278  -16.5034   22.5701 C   0  0  1  0  0  0  0  0  0  0  0  0
    7.7872  -15.8367   22.6245 C   0  0  0  0  0  0  0  0  0  0  0  0
    7.7507  -14.5483   23.3315 C   0  0  0  0  0  0  0  0  0  0  0  0
    8.2403  -13.3141   22.9312 C   0  0  0  0  0  0  0  0  0  0  0  0
    8.0277  -12.3875   23.8812 N   0  0  0  0  0  0  0  0  0  0  0  0
    7.3964  -12.9951   24.9198 C   0  0  0  0  0  0  0  0  0  0  0  0
    6.9528  -12.5191   26.1307 C   0  0  0  0  0  0  0  0  0  0  0  0
    6.3395  -13.3832   26.9962 C   0  0  0  0  0  0  0  0  0  0  0  0
    6.1577  -14.6954   26.6926 C   0  0  0  0  0  0  0  0  0  0  0  0
    6.6035  -15.1744   25.4753 C   0  0  0  0  0  0  0  0  0  0  0  0
    7.2195  -14.3192   24.5986 C   0  0  0  0  0  0  0  0  0  0  0  0
    9.5264  -16.9997   23.8765 C   0  0  0  0  0  0  0  0  0  0  0  0
    9.0541  -18.1382   24.2406 O   0  0  0  0  0  0  0  0  0  0  0  0
   10.3857  -16.3711   24.7983 N   0  0  0  0  0  0  0  0  0  0  0  0
   11.1687  -17.1976   25.7074 C   0  0  1  0  0  0  0  0  0  0  0  0
   12.0513  -16.1912   26.4562 C   0  0  0  0  0  0  0  0  0  0  0  0
   11.1919  -15.3409   27.2787 C   0  0  0  0  0  0  0  0  0  0  0  0
   10.5710  -14.2398   26.7277 C   0  0  0  0  0  0  0  0  0  0  0  0
    9.7315  -13.4279   27.4637 C   0  0  0  0  0  0  0  0  0  0  0  0
    9.5268  -13.7506   28.7826 C   0  0  0  0  0  0  0  0  0  0  0  0
   10.1401  -14.8575   29.3687 C   0  0  0  0  0  0  0  0  0  0  0  0
   10.9768  -15.6501   28.5989 C   0  0  0  0  0  0  0  0  0  0  0  0
   10.3318  -17.8841   26.6927 C   0  0  0  0  0  0  0  0  0  0  0  0
   10.8032  -18.5945   27.6251 O   0  0  0  0  0  0  0  0  0  0  0  0
    8.9301  -17.8028   26.6755 O   0  0  0  0  0  0  0  0  0  0  0  0
  2  1  1  0
  3  5  1  0
  3  2  1  0
  3  4  1  1
  5  6  1  6
  7  5  1  0
  8  7  2  0
  9  7  1  0
 10 21  1  0
 10  9  1  0
 10 11  1  1
 12 11  1  0
 13 12  2  0
 14 15  1  0
 14 13  1  0
 15 20  2  0
 16 17  2  0
 16 15  1  0
 17 18  1  0
 18 19  2  0
 20 19  1  0
 20 12  1  0
 21 22  2  0
 23 24  1  0
 23 21  1  0
 24 25  1  1
 25 26  1  0
 26 27  2  0
 27 28  1  0
 29 28  2  0
 30 29  1  0
 31 26  1  0
 31 30  2  0
 32 34  1  0
 32 24  1  0
 33 32  2  0
M  END
$$$$
