IWF.pdb
     RDKit          3D

 34 36  0  0  1  0  0  0  0  0999 V2000
    7.8926  -12.2828   18.8007 C   0  0  0  0  0  0  0  0  0  0  0  0
    8.0618  -13.7034   19.2864 C   0  0  0  0  0  0  0  0  0  0  0  0
    9.3413  -14.3465   18.7975 C   0  0  2  0  0  0  0  0  0  0  0  0
    9.2380  -14.5653   17.3078 C   0  0  0  0  0  0  0  0  0  0  0  0
    9.5315  -15.6497   19.5040 C   0  0  2  0  0  0  0  0  0  0  0  0
    8.5301  -16.5902   19.1122 N   0  0  0  0  0  0  0  0  0  0  0  0
    9.5769  -15.4716   20.9962 C   0  0  0  0  0  0  0  0  0  0  0  0
   10.4293  -14.6974   21.5006 O   0  0  0  0  0  0  0  0  0  0  0  0
    8.6927  -16.1448   21.8592 N   0  0  0  0  0  0  0  0  0  0  0  0
    8.7352  -15.8843   23.3204 C   0  0  1  0  0  0  0  0  0  0  0  0
    7.4928  -16.4768   23.9122 C   0  0  0  0  0  0  0  0  0  0  0  0
    6.7642  -15.6101   24.8496 C   0  0  0  0  0  0  0  0  0  0  0  0
    5.6020  -15.8687   25.5607 C   0  0  0  0  0  0  0  0  0  0  0  0
    5.2457  -14.8003   26.2940 N   0  0  0  0  0  0  0  0  0  0  0  0
    6.1651  -13.8233   26.0781 C   0  0  0  0  0  0  0  0  0  0  0  0
    6.2796  -12.5446   26.5696 C   0  0  0  0  0  0  0  0  0  0  0  0
    7.3341  -11.7726   26.1643 C   0  0  0  0  0  0  0  0  0  0  0  0
    8.2683  -12.2339   25.2918 C   0  0  0  0  0  0  0  0  0  0  0  0
    8.1536  -13.5194   24.7975 C   0  0  0  0  0  0  0  0  0  0  0  0
    7.1020  -14.3038   25.1954 C   0  0  0  0  0  0  0  0  0  0  0  0
    9.9304  -16.5080   23.8631 C   0  0  0  0  0  0  0  0  0  0  0  0
   10.3396  -17.5853   23.2941 O   0  0  0  0  0  0  0  0  0  0  0  0
   10.7043  -16.0588   24.9505 N   0  0  0  0  0  0  0  0  0  0  0  0
   11.8276  -16.8714   25.3984 C   0  0  1  0  0  0  0  0  0  0  0  0
   12.6050  -15.9425   26.3393 C   0  0  0  0  0  0  0  0  0  0  0  0
   11.6627  -15.3404   27.2813 C   0  0  0  0  0  0  0  0  0  0  0  0
   10.9439  -14.2189   26.9247 C   0  0  0  0  0  0  0  0  0  0  0  0
   10.0256  -13.6366   27.7752 C   0  0  0  0  0  0  0  0  0  0  0  0
    9.8429  -14.2132   29.0080 C   0  0  0  0  0  0  0  0  0  0  0  0
   10.5544  -15.3475   29.3979 C   0  0  0  0  0  0  0  0  0  0  0  0
   11.4683  -15.9049   28.5176 C   0  0  0  0  0  0  0  0  0  0  0  0
   11.3956  -18.0372   26.1709 C   0  0  0  0  0  0  0  0  0  0  0  0
   10.1937  -18.2391   26.5040 O   0  0  0  0  0  0  0  0  0  0  0  0
   12.2927  -19.0275   26.6023 O   0  0  0  0  0  0  0  0  0  0  0  0
  2  1  1  0
  3  5  1  0
  3  2  1  0
  3  4  1  6
  5  6  1  1
  7  5  1  0
  8  7  2  0
  9  7  1  0
 10 21  1  0
 10  9  1  0
 10 11  1  1
 12 11  1  0
 13 12  2  0
 14 15  1  0
 14 13  1  0
 15 20  2  0
 16 17  2  0
 16 15  1  0
 17 18  1  0
 18 19  2  0
 20 19  1  0
 20 12  1  0
 21 22  2  0
 23 24  1  0
 23 21  1  0
 24 25  1  1
 25 26  1  0
 26 27  2  0
 27 28  1  0
 29 28  2  0
 30 29  1  0
 31 26  1  0
 31 30  2  0
 32 34  1  0
 32 24  1  0
 33 32  2  0
M  END
$$$$
