IWF.pdb
     RDKit          3D

 34 36  0  0  1  0  0  0  0  0999 V2000
    7.9649  -12.2708   20.7407 C   0  0  0  0  0  0  0  0  0  0  0  0
    7.4053  -13.6709   20.8370 C   0  0  0  0  0  0  0  0  0  0  0  0
    8.3459  -14.7220   20.2890 C   0  0  2  0  0  0  0  0  0  0  0  0
    8.6302  -14.4129   18.8394 C   0  0  0  0  0  0  0  0  0  0  0  0
    7.7035  -16.0650   20.4195 C   0  0  2  0  0  0  0  0  0  0  0  0
    6.5018  -16.1298   19.6496 N   0  0  0  0  0  0  0  0  0  0  0  0
    7.4651  -16.4298   21.8584 C   0  0  0  0  0  0  0  0  0  0  0  0
    6.3109  -16.3128   22.3427 O   0  0  0  0  0  0  0  0  0  0  0  0
    8.4948  -16.9023   22.6929 N   0  0  0  0  0  0  0  0  0  0  0  0
    8.1920  -17.3220   24.0847 C   0  0  1  0  0  0  0  0  0  0  0  0
    8.5847  -18.7626   24.2080 C   0  0  0  0  0  0  0  0  0  0  0  0
    7.4938  -19.6879   24.5470 C   0  0  0  0  0  0  0  0  0  0  0  0
    6.6603  -20.4074   23.7039 C   0  0  0  0  0  0  0  0  0  0  0  0
    5.7710  -21.1238   24.4126 N   0  0  0  0  0  0  0  0  0  0  0  0
    6.0039  -20.8880   25.7305 C   0  0  0  0  0  0  0  0  0  0  0  0
    5.3941  -21.3572   26.8695 C   0  0  0  0  0  0  0  0  0  0  0  0
    5.8536  -20.9352   28.0872 C   0  0  0  0  0  0  0  0  0  0  0  0
    6.8931  -20.0673   28.2010 C   0  0  0  0  0  0  0  0  0  0  0  0
    7.5066  -19.5952   27.0560 C   0  0  0  0  0  0  0  0  0  0  0  0
    7.0562  -20.0102   25.8295 C   0  0  0  0  0  0  0  0  0  0  0  0
    8.9571  -16.4845   24.9931 C   0  0  0  0  0  0  0  0  0  0  0  0
   10.1412  -16.1479   24.6239 O   0  0  0  0  0  0  0  0  0  0  0  0
    8.5426  -15.9887   26.2444 N   0  0  0  0  0  0  0  0  0  0  0  0
    9.4753  -15.1910   27.0295 C   0  0  1  0  0  0  0  0  0  0  0  0
    8.5802  -14.4605   28.0383 C   0  0  0  0  0  0  0  0  0  0  0  0
    7.6835  -13.5691   27.3040 C   0  0  0  0  0  0  0  0  0  0  0  0
    8.1275  -12.3366   26.8733 C   0  0  0  0  0  0  0  0  0  0  0  0
    7.3203  -11.4777   26.1546 C   0  0  0  0  0  0  0  0  0  0  0  0
    6.0408  -11.8895   25.8742 C   0  0  0  0  0  0  0  0  0  0  0  0
    5.5624  -13.1299   26.2957 C   0  0  0  0  0  0  0  0  0  0  0  0
    6.4013  -13.9661   27.0154 C   0  0  0  0  0  0  0  0  0  0  0  0
   10.4183  -16.0206   27.7812 C   0  0  0  0  0  0  0  0  0  0  0  0
   10.2775  -17.2675   27.9280 O   0  0  0  0  0  0  0  0  0  0  0  0
   11.5607  -15.4876   28.3999 O   0  0  0  0  0  0  0  0  0  0  0  0
  2  1  1  0
  3  5  1  0
  3  2  1  0
  3  4  1  6
  5  6  1  6
  7  5  1  0
  8  7  2  0
  9  7  1  0
 10 21  1  0
 10  9  1  0
 10 11  1  6
 12 11  1  0
 13 12  2  0
 14 15  1  0
 14 13  1  0
 15 20  2  0
 16 17  2  0
 16 15  1  0
 17 18  1  0
 18 19  2  0
 20 19  1  0
 20 12  1  0
 21 22  2  0
 23 24  1  0
 23 21  1  0
 24 25  1  1
 25 26  1  0
 26 27  2  0
 27 28  1  0
 29 28  2  0
 30 29  1  0
 31 26  1  0
 31 30  2  0
 32 34  1  0
 32 24  1  0
 33 32  2  0
M  END
$$$$
