IWF.pdb
     RDKit          3D

 34 36  0  0  1  0  0  0  0  0999 V2000
    7.6926  -24.7431   25.1405 C   0  0  0  0  0  0  0  0  0  0  0  0
    6.8341  -23.7823   24.3516 C   0  0  0  0  0  0  0  0  0  0  0  0
    7.5075  -22.4486   24.1117 C   0  0  2  0  0  0  0  0  0  0  0  0
    7.9280  -21.8695   25.4404 C   0  0  0  0  0  0  0  0  0  0  0  0
    6.5449  -21.5341   23.4256 C   0  0  2  0  0  0  0  0  0  0  0  0
    6.0800  -22.1106   22.2040 N   0  0  0  0  0  0  0  0  0  0  0  0
    7.1340  -20.1678   23.2097 C   0  0  0  0  0  0  0  0  0  0  0  0
    8.0469  -20.0156   22.3590 O   0  0  0  0  0  0  0  0  0  0  0  0
    6.6980  -19.0406   23.9304 N   0  0  0  0  0  0  0  0  0  0  0  0
    7.3574  -17.7258   23.7270 C   0  0  1  0  0  0  0  0  0  0  0  0
    6.3229  -16.6695   23.9696 C   0  0  0  0  0  0  0  0  0  0  0  0
    6.7498  -15.2910   23.6894 C   0  0  0  0  0  0  0  0  0  0  0  0
    7.4059  -14.7850   22.5773 C   0  0  0  0  0  0  0  0  0  0  0  0
    7.6387  -13.4691   22.7205 N   0  0  0  0  0  0  0  0  0  0  0  0
    7.1410  -13.0884   23.9263 C   0  0  0  0  0  0  0  0  0  0  0  0
    7.1114  -11.8716   24.5652 C   0  0  0  0  0  0  0  0  0  0  0  0
    6.5315  -11.7882   25.8017 C   0  0  0  0  0  0  0  0  0  0  0  0
    5.9858  -12.8720   26.4136 C   0  0  0  0  0  0  0  0  0  0  0  0
    6.0154  -14.0955   25.7715 C   0  0  0  0  0  0  0  0  0  0  0  0
    6.5932  -14.1931   24.5322 C   0  0  0  0  0  0  0  0  0  0  0  0
    8.4592  -17.6146   24.6680 C   0  0  0  0  0  0  0  0  0  0  0  0
    8.2179  -17.9214   25.8925 O   0  0  0  0  0  0  0  0  0  0  0  0
    9.7786  -17.2098   24.3876 N   0  0  0  0  0  0  0  0  0  0  0  0
   10.4607  -16.3319   25.3292 C   0  0  1  0  0  0  0  0  0  0  0  0
    9.9697  -16.8079   26.7022 C   0  0  0  0  0  0  0  0  0  0  0  0
   10.1846  -15.7339   27.6707 C   0  0  0  0  0  0  0  0  0  0  0  0
   10.7900  -15.9997   28.8809 C   0  0  0  0  0  0  0  0  0  0  0  0
   11.0345  -15.0089   29.8106 C   0  0  0  0  0  0  0  0  0  0  0  0
   10.6525  -13.7286   29.4938 C   0  0  0  0  0  0  0  0  0  0  0  0
   10.0383  -13.4279   28.2784 C   0  0  0  0  0  0  0  0  0  0  0  0
    9.8087  -14.4483   27.3691 C   0  0  0  0  0  0  0  0  0  0  0  0
   11.9145  -16.4970   25.2880 C   0  0  0  0  0  0  0  0  0  0  0  0
   12.7007  -15.9004   26.0769 O   0  0  0  0  0  0  0  0  0  0  0  0
   12.5494  -17.3390   24.3609 O   0  0  0  0  0  0  0  0  0  0  0  0
  2  1  1  0
  3  5  1  0
  3  2  1  0
  3  4  1  1
  5  6  1  6
  7  5  1  0
  8  7  2  0
  9  7  1  0
 10 21  1  0
 10  9  1  0
 10 11  1  1
 12 11  1  0
 13 12  2  0
 14 15  1  0
 14 13  1  0
 15 20  2  0
 16 17  2  0
 16 15  1  0
 17 18  1  0
 18 19  2  0
 20 19  1  0
 20 12  1  0
 21 22  2  0
 23 24  1  0
 23 21  1  0
 24 25  1  1
 25 26  1  0
 26 27  2  0
 27 28  1  0
 29 28  2  0
 30 29  1  0
 31 26  1  0
 31 30  2  0
 32 34  1  0
 32 24  1  0
 33 32  2  0
M  END
$$$$
