IWF.pdb
     RDKit          3D

 34 36  0  0  1  0  0  0  0  0999 V2000
    7.9309  -12.8973   16.5492 C   0  0  0  0  0  0  0  0  0  0  0  0
    8.3493  -14.1160   17.3381 C   0  0  0  0  0  0  0  0  0  0  0  0
    8.3361  -13.8850   18.8335 C   0  0  2  0  0  0  0  0  0  0  0  0
    9.2790  -12.7526   19.1595 C   0  0  0  0  0  0  0  0  0  0  0  0
    8.7684  -15.1384   19.5231 C   0  0  2  0  0  0  0  0  0  0  0  0
    8.0137  -16.2591   19.0592 N   0  0  0  0  0  0  0  0  0  0  0  0
    8.7019  -15.0010   21.0188 C   0  0  0  0  0  0  0  0  0  0  0  0
    8.4732  -13.8740   21.5265 O   0  0  0  0  0  0  0  0  0  0  0  0
    8.8874  -16.0969   21.8816 N   0  0  0  0  0  0  0  0  0  0  0  0
    8.8848  -15.8954   23.3528 C   0  0  1  0  0  0  0  0  0  0  0  0
    7.6762  -16.5968   23.8936 C   0  0  0  0  0  0  0  0  0  0  0  0
    6.8396  -15.8021   24.8044 C   0  0  0  0  0  0  0  0  0  0  0  0
    5.6567  -16.1517   25.4383 C   0  0  0  0  0  0  0  0  0  0  0  0
    5.1900  -15.1271   26.1723 N   0  0  0  0  0  0  0  0  0  0  0  0
    6.0558  -14.0890   26.0338 C   0  0  0  0  0  0  0  0  0  0  0  0
    6.0588  -12.8189   26.5595 C   0  0  0  0  0  0  0  0  0  0  0  0
    7.0835  -11.9719   26.2358 C   0  0  0  0  0  0  0  0  0  0  0  0
    8.0951  -12.3507   25.4112 C   0  0  0  0  0  0  0  0  0  0  0  0
    8.0924  -13.6277   24.8824 C   0  0  0  0  0  0  0  0  0  0  0  0
    7.0718  -14.4866   25.1988 C   0  0  0  0  0  0  0  0  0  0  0  0
   10.1105  -16.4572   23.8950 C   0  0  0  0  0  0  0  0  0  0  0  0
   10.4935  -17.5910   23.4265 O   0  0  0  0  0  0  0  0  0  0  0  0
   10.9398  -15.8922   24.8830 N   0  0  0  0  0  0  0  0  0  0  0  0
   12.0294  -16.6908   25.4285 C   0  0  1  0  0  0  0  0  0  0  0  0
   12.6940  -15.7614   26.4518 C   0  0  0  0  0  0  0  0  0  0  0  0
   11.6561  -15.2091   27.3210 C   0  0  0  0  0  0  0  0  0  0  0  0
   10.9994  -14.0486   26.9692 C   0  0  0  0  0  0  0  0  0  0  0  0
    9.9959  -13.5099   27.7493 C   0  0  0  0  0  0  0  0  0  0  0  0
    9.6621  -14.1712   28.9055 C   0  0  0  0  0  0  0  0  0  0  0  0
   10.3075  -15.3466   29.2884 C   0  0  0  0  0  0  0  0  0  0  0  0
   11.3105  -15.8583   28.4803 C   0  0  0  0  0  0  0  0  0  0  0  0
   11.5464  -17.8745   26.1414 C   0  0  0  0  0  0  0  0  0  0  0  0
   10.3217  -18.1038   26.3504 O   0  0  0  0  0  0  0  0  0  0  0  0
   12.4161  -18.8528   26.6496 O   0  0  0  0  0  0  0  0  0  0  0  0
  2  1  1  0
  3  5  1  0
  3  2  1  0
  3  4  1  6
  5  6  1  6
  7  5  1  0
  8  7  2  0
  9  7  1  0
 10 21  1  0
 10  9  1  0
 10 11  1  1
 12 11  1  0
 13 12  2  0
 14 15  1  0
 14 13  1  0
 15 20  2  0
 16 17  2  0
 16 15  1  0
 17 18  1  0
 18 19  2  0
 20 19  1  0
 20 12  1  0
 21 22  2  0
 23 24  1  0
 23 21  1  0
 24 25  1  1
 25 26  1  0
 26 27  2  0
 27 28  1  0
 29 28  2  0
 30 29  1  0
 31 26  1  0
 31 30  2  0
 32 34  1  0
 32 24  1  0
 33 32  2  0
M  END
$$$$
