IWF.pdb
     RDKit          3D

 34 36  0  0  1  0  0  0  0  0999 V2000
   12.6323  -19.8318   16.9676 C   0  0  0  0  0  0  0  0  0  0  0  0
   11.5508  -20.0898   17.9906 C   0  0  0  0  0  0  0  0  0  0  0  0
   11.5865  -19.1144   19.1469 C   0  0  2  0  0  0  0  0  0  0  0  0
   11.6739  -19.8919   20.4374 C   0  0  0  0  0  0  0  0  0  0  0  0
   10.3440  -18.2843   19.1214 C   0  0  2  0  0  0  0  0  0  0  0  0
   10.2647  -17.5263   17.9131 N   0  0  0  0  0  0  0  0  0  0  0  0
   10.2359  -17.4081   20.3384 C   0  0  0  0  0  0  0  0  0  0  0  0
   11.0254  -16.4394   20.4747 O   0  0  0  0  0  0  0  0  0  0  0  0
    9.2747  -17.6326   21.3412 N   0  0  0  0  0  0  0  0  0  0  0  0
    9.2777  -16.8053   22.5743 C   0  0  1  0  0  0  0  0  0  0  0  0
    7.8700  -16.3460   22.8027 C   0  0  0  0  0  0  0  0  0  0  0  0
    7.7095  -14.9089   23.0671 C   0  0  0  0  0  0  0  0  0  0  0  0
    8.0147  -13.8280   22.2535 C   0  0  0  0  0  0  0  0  0  0  0  0
    7.7395  -12.6702   22.8781 N   0  0  0  0  0  0  0  0  0  0  0  0
    7.2498  -12.9692   24.1099 C   0  0  0  0  0  0  0  0  0  0  0  0
    6.8177  -12.1742   25.1447 C   0  0  0  0  0  0  0  0  0  0  0  0
    6.3690  -12.7687   26.2923 C   0  0  0  0  0  0  0  0  0  0  0  0
    6.3390  -14.1197   26.4369 C   0  0  0  0  0  0  0  0  0  0  0  0
    6.7733  -14.9195   25.3967 C   0  0  0  0  0  0  0  0  0  0  0  0
    7.2252  -14.3367   24.2411 C   0  0  0  0  0  0  0  0  0  0  0  0
    9.7530  -17.6254   23.6759 C   0  0  0  0  0  0  0  0  0  0  0  0
    8.9477  -18.5163   24.1338 O   0  0  0  0  0  0  0  0  0  0  0  0
   11.0121  -17.5590   24.3031 N   0  0  0  0  0  0  0  0  0  0  0  0
   11.0925  -17.0600   25.6695 C   0  0  1  0  0  0  0  0  0  0  0  0
   10.5326  -15.6350   25.5772 C   0  0  0  0  0  0  0  0  0  0  0  0
   10.5127  -15.0555   26.9194 C   0  0  0  0  0  0  0  0  0  0  0  0
   11.0212  -15.7615   27.9893 C   0  0  0  0  0  0  0  0  0  0  0  0
   11.0449  -15.2389   29.2668 C   0  0  0  0  0  0  0  0  0  0  0  0
   10.5399  -13.9749   29.4484 C   0  0  0  0  0  0  0  0  0  0  0  0
   10.0188  -13.2358   28.3867 C   0  0  0  0  0  0  0  0  0  0  0  0
   10.0115  -13.7928   27.1177 C   0  0  0  0  0  0  0  0  0  0  0  0
   10.2431  -17.8196   26.5882 C   0  0  0  0  0  0  0  0  0  0  0  0
    8.9967  -17.9509   26.4288 O   0  0  0  0  0  0  0  0  0  0  0  0
   10.7551  -18.4658   27.7249 O   0  0  0  0  0  0  0  0  0  0  0  0
  2  1  1  0
  3  5  1  0
  3  2  1  0
  3  4  1  1
  5  6  1  6
  7  5  1  0
  8  7  2  0
  9  7  1  0
 10 21  1  0
 10  9  1  0
 10 11  1  1
 12 11  1  0
 13 12  2  0
 14 15  1  0
 14 13  1  0
 15 20  2  0
 16 17  2  0
 16 15  1  0
 17 18  1  0
 18 19  2  0
 20 19  1  0
 20 12  1  0
 21 22  2  0
 23 24  1  0
 23 21  1  0
 24 25  1  6
 25 26  1  0
 26 27  2  0
 27 28  1  0
 29 28  2  0
 30 29  1  0
 31 26  1  0
 31 30  2  0
 32 34  1  0
 32 24  1  0
 33 32  2  0
M  END
$$$$
