IWF.pdb
     RDKit          3D

 34 36  0  0  1  0  0  0  0  0999 V2000
    7.3612  -12.5853   17.0784 C   0  0  0  0  0  0  0  0  0  0  0  0
    8.0992  -13.7986   17.5938 C   0  0  0  0  0  0  0  0  0  0  0  0
    8.2199  -13.8202   19.1020 C   0  0  2  0  0  0  0  0  0  0  0  0
    9.0213  -12.6199   19.5436 C   0  0  0  0  0  0  0  0  0  0  0  0
    8.9015  -15.0836   19.5174 C   0  0  2  0  0  0  0  0  0  0  0  0
    8.1477  -16.2256   19.1069 N   0  0  0  0  0  0  0  0  0  0  0  0
    9.1849  -15.1028   20.9938 C   0  0  0  0  0  0  0  0  0  0  0  0
   10.0405  -14.3141   21.4693 O   0  0  0  0  0  0  0  0  0  0  0  0
    8.5221  -15.9786   21.8734 N   0  0  0  0  0  0  0  0  0  0  0  0
    8.6512  -15.7984   23.3416 C   0  0  1  0  0  0  0  0  0  0  0  0
    7.4359  -16.4079   23.9711 C   0  0  0  0  0  0  0  0  0  0  0  0
    6.7314  -15.5555   24.9397 C   0  0  0  0  0  0  0  0  0  0  0  0
    5.5644  -15.8088   25.6449 C   0  0  0  0  0  0  0  0  0  0  0  0
    5.2369  -14.7573   26.4153 N   0  0  0  0  0  0  0  0  0  0  0  0
    6.1804  -13.7972   26.2302 C   0  0  0  0  0  0  0  0  0  0  0  0
    6.3284  -12.5394   26.7648 C   0  0  0  0  0  0  0  0  0  0  0  0
    7.4014  -11.7810   26.3831 C   0  0  0  0  0  0  0  0  0  0  0  0
    8.3219  -12.2357   25.4927 C   0  0  0  0  0  0  0  0  0  0  0  0
    8.1734  -13.5002   24.9551 C   0  0  0  0  0  0  0  0  0  0  0  0
    7.1030  -14.2708   25.3290 C   0  0  0  0  0  0  0  0  0  0  0  0
    9.8660  -16.4644   23.7805 C   0  0  0  0  0  0  0  0  0  0  0  0
   10.2007  -17.5406   23.1629 O   0  0  0  0  0  0  0  0  0  0  0  0
   10.7321  -16.0578   24.8139 N   0  0  0  0  0  0  0  0  0  0  0  0
   11.7986  -16.9575   25.2333 C   0  0  1  0  0  0  0  0  0  0  0  0
   12.7116  -16.0744   26.0931 C   0  0  0  0  0  0  0  0  0  0  0  0
   11.8773  -15.2861   26.9988 C   0  0  0  0  0  0  0  0  0  0  0  0
   11.6806  -15.6991   28.2997 C   0  0  0  0  0  0  0  0  0  0  0  0
   10.9220  -14.9693   29.1928 C   0  0  0  0  0  0  0  0  0  0  0  0
   10.3580  -13.8004   28.7446 C   0  0  0  0  0  0  0  0  0  0  0  0
   10.5384  -13.3560   27.4351 C   0  0  0  0  0  0  0  0  0  0  0  0
   11.3065  -14.1147   26.5661 C   0  0  0  0  0  0  0  0  0  0  0  0
   11.3047  -18.0490   26.0742 C   0  0  0  0  0  0  0  0  0  0  0  0
   10.1115  -18.1212   26.4831 O   0  0  0  0  0  0  0  0  0  0  0  0
   12.1276  -19.1074   26.4920 O   0  0  0  0  0  0  0  0  0  0  0  0
  2  1  1  0
  3  5  1  0
  3  2  1  0
  3  4  1  6
  5  6  1  1
  7  5  1  0
  8  7  2  0
  9  7  1  0
 10 21  1  0
 10  9  1  0
 10 11  1  1
 12 11  1  0
 13 12  2  0
 14 15  1  0
 14 13  1  0
 15 20  2  0
 16 17  2  0
 16 15  1  0
 17 18  1  0
 18 19  2  0
 20 19  1  0
 20 12  1  0
 21 22  2  0
 23 24  1  0
 23 21  1  0
 24 25  1  1
 25 26  1  0
 26 27  2  0
 27 28  1  0
 29 28  2  0
 30 29  1  0
 31 26  1  0
 31 30  2  0
 32 34  1  0
 32 24  1  0
 33 32  2  0
M  END
$$$$
