FWP.pdb
     RDKit          3D

 33 36  0  0  1  0  0  0  0  0999 V2000
    9.3534  -17.3348   21.0374 N   0  0  0  0  0  0  0  0  0  0  0  0
   10.4187  -16.3831   21.3303 C   0  0  1  0  0  0  0  0  0  0  0  0
   10.4358  -15.2463   20.3610 C   0  0  0  0  0  0  0  0  0  0  0  0
    9.2171  -14.4160   20.4205 C   0  0  0  0  0  0  0  0  0  0  0  0
    7.9906  -15.0353   20.5458 C   0  0  0  0  0  0  0  0  0  0  0  0
    6.8161  -14.2790   20.5976 C   0  0  0  0  0  0  0  0  0  0  0  0
    6.8555  -12.9066   20.5252 C   0  0  0  0  0  0  0  0  0  0  0  0
    8.0856  -12.3031   20.4005 C   0  0  0  0  0  0  0  0  0  0  0  0
    9.2502  -13.0566   20.3494 C   0  0  0  0  0  0  0  0  0  0  0  0
   10.2493  -15.8356   22.6970 C   0  0  0  0  0  0  0  0  0  0  0  0
   11.0292  -14.9388   23.0900 O   0  0  0  0  0  0  0  0  0  0  0  0
    9.2418  -16.2840   23.5820 N   0  0  0  0  0  0  0  0  0  0  0  0
    9.2656  -15.8643   24.9428 C   0  0  1  0  0  0  0  0  0  0  0  0
    7.9618  -16.1887   25.6639 C   0  0  0  0  0  0  0  0  0  0  0  0
    6.9779  -15.0785   25.5816 C   0  0  0  0  0  0  0  0  0  0  0  0
    5.6004  -15.2699   25.3731 C   0  0  0  0  0  0  0  0  0  0  0  0
    4.9938  -14.0776   25.3883 N   0  0  0  0  0  0  0  0  0  0  0  0
    5.9255  -13.1390   25.5959 C   0  0  0  0  0  0  0  0  0  0  0  0
    5.8848  -11.7497   25.6978 C   0  0  0  0  0  0  0  0  0  0  0  0
    7.0282  -11.0120   25.9095 C   0  0  0  0  0  0  0  0  0  0  0  0
    8.2555  -11.6229   26.0275 C   0  0  0  0  0  0  0  0  0  0  0  0
    8.2984  -12.9948   25.9275 C   0  0  0  0  0  0  0  0  0  0  0  0
    7.1695  -13.7360   25.7189 C   0  0  0  0  0  0  0  0  0  0  0  0
   10.3920  -16.4368   25.7103 C   0  0  0  0  0  0  0  0  0  0  0  0
   11.2341  -17.0944   25.0531 O   0  0  0  0  0  0  0  0  0  0  0  0
   10.5880  -16.2986   27.1070 N   0  0  0  0  0  0  0  0  0  0  0  0
    9.7583  -15.7164   28.1138 C   0  0  0  0  0  0  0  0  0  0  0  0
   10.7477  -15.0469   29.0456 C   0  0  0  0  0  0  0  0  0  0  0  0
   12.1114  -15.5842   28.6835 C   0  0  0  0  0  0  0  0  0  0  0  0
   11.7914  -16.7613   27.7837 C   0  0  1  0  0  0  0  0  0  0  0  0
   11.5243  -17.9639   28.6011 C   0  0  0  0  0  0  0  0  0  0  0  0
   12.5178  -18.6581   29.2679 O   0  0  0  0  0  0  0  0  0  0  0  0
   10.3480  -18.3772   28.6974 O   0  0  0  0  0  0  0  0  0  0  0  0
  2  3  1  0
  2  1  1  6
  3  4  1  0
  4  9  2  0
  5  6  2  0
  5  4  1  0
  6  7  1  0
  7  8  2  0
  9  8  1  0
 10  2  1  0
 10 11  2  0
 12 10  1  0
 13 12  1  0
 13 14  1  1
 15 14  1  0
 15 23  1  0
 16 15  2  0
 17 16  1  0
 17 18  1  0
 18 19  1  0
 18 23  2  0
 19 20  2  0
 20 21  1  0
 22 21  2  0
 23 22  1  0
 24 13  1  0
 24 26  1  0
 25 24  2  0
 26 30  1  0
 27 26  1  0
 27 28  1  0
 28 29  1  0
 30 29  1  0
 31 32  1  0
 30 31  1  1
 33 31  2  0
M  END
$$$$
