FWP.pdb
     RDKit          3D

 33 36  0  0  1  0  0  0  0  0999 V2000
    8.9279  -16.2897   21.2306 N   0  0  0  0  0  0  0  0  0  0  0  0
    9.7967  -15.1871   21.6257 C   0  0  1  0  0  0  0  0  0  0  0  0
    9.2932  -13.8716   21.1273 C   0  0  0  0  0  0  0  0  0  0  0  0
    8.7622  -13.9381   19.7519 C   0  0  0  0  0  0  0  0  0  0  0  0
    7.4012  -13.8284   19.5537 C   0  0  0  0  0  0  0  0  0  0  0  0
    6.8646  -13.8946   18.2646 C   0  0  0  0  0  0  0  0  0  0  0  0
    7.6767  -14.0697   17.1691 C   0  0  0  0  0  0  0  0  0  0  0  0
    9.0317  -14.1773   17.3822 C   0  0  0  0  0  0  0  0  0  0  0  0
    9.5618  -14.1111   18.6634 C   0  0  0  0  0  0  0  0  0  0  0  0
    9.8986  -15.1247   23.1028 C   0  0  0  0  0  0  0  0  0  0  0  0
   10.6227  -14.2456   23.6223 O   0  0  0  0  0  0  0  0  0  0  0  0
    9.2121  -16.0190   23.9562 N   0  0  0  0  0  0  0  0  0  0  0  0
    9.2260  -15.7968   25.3629 C   0  0  1  0  0  0  0  0  0  0  0  0
    7.9214  -16.2299   26.0229 C   0  0  0  0  0  0  0  0  0  0  0  0
    6.8595  -15.1970   25.9102 C   0  0  0  0  0  0  0  0  0  0  0  0
    5.4944  -15.4947   25.7511 C   0  0  0  0  0  0  0  0  0  0  0  0
    4.8053  -14.3485   25.7206 N   0  0  0  0  0  0  0  0  0  0  0  0
    5.6728  -13.3375   25.8522 C   0  0  0  0  0  0  0  0  0  0  0  0
    5.5362  -11.9508   25.8820 C   0  0  0  0  0  0  0  0  0  0  0  0
    6.6293  -11.1250   26.0222 C   0  0  0  0  0  0  0  0  0  0  0  0
    7.8994  -11.6417   26.1374 C   0  0  0  0  0  0  0  0  0  0  0  0
    8.0370  -13.0107   26.1086 C   0  0  0  0  0  0  0  0  0  0  0  0
    6.9587  -13.8389   25.9712 C   0  0  0  0  0  0  0  0  0  0  0  0
   10.3534  -16.4641   26.0479 C   0  0  0  0  0  0  0  0  0  0  0  0
   11.1163  -17.1478   25.3240 O   0  0  0  0  0  0  0  0  0  0  0  0
   10.6317  -16.3884   27.4353 N   0  0  0  0  0  0  0  0  0  0  0  0
    9.9501  -15.7056   28.4891 C   0  0  0  0  0  0  0  0  0  0  0  0
   11.0735  -15.2192   29.3817 C   0  0  0  0  0  0  0  0  0  0  0  0
   12.3181  -15.9550   28.9468 C   0  0  0  0  0  0  0  0  0  0  0  0
   11.7769  -17.0479   28.0468 C   0  0  1  0  0  0  0  0  0  0  0  0
   11.3614  -18.2114   28.8589 C   0  0  0  0  0  0  0  0  0  0  0  0
   12.2628  -19.0663   29.4674 O   0  0  0  0  0  0  0  0  0  0  0  0
   10.1405  -18.4381   29.0054 O   0  0  0  0  0  0  0  0  0  0  0  0
  2  3  1  0
  2  1  1  1
  3  4  1  0
  4  9  2  0
  5  6  2  0
  5  4  1  0
  6  7  1  0
  7  8  2  0
  9  8  1  0
 10  2  1  0
 10 11  2  0
 12 10  1  0
 13 12  1  0
 13 14  1  1
 15 14  1  0
 15 23  1  0
 16 15  2  0
 17 16  1  0
 17 18  1  0
 18 19  1  0
 18 23  2  0
 19 20  2  0
 20 21  1  0
 22 21  2  0
 23 22  1  0
 24 13  1  0
 24 26  1  0
 25 24  2  0
 26 30  1  0
 27 26  1  0
 27 28  1  0
 28 29  1  0
 30 29  1  0
 31 32  1  0
 30 31  1  1
 33 31  2  0
M  END
$$$$
