FWP.pdb
     RDKit          3D

 33 36  0  0  1  0  0  0  0  0999 V2000
   10.6365  -15.8510   20.3321 N   0  0  0  0  0  0  0  0  0  0  0  0
   10.4255  -16.8371   21.3855 C   0  0  1  0  0  0  0  0  0  0  0  0
   11.6071  -17.7355   21.5560 C   0  0  0  0  0  0  0  0  0  0  0  0
   11.8357  -18.6184   20.3957 C   0  0  0  0  0  0  0  0  0  0  0  0
   12.5865  -18.1513   19.3367 C   0  0  0  0  0  0  0  0  0  0  0  0
   12.8159  -18.9590   18.2190 C   0  0  0  0  0  0  0  0  0  0  0  0
   12.3009  -20.2319   18.1493 C   0  0  0  0  0  0  0  0  0  0  0  0
   11.5543  -20.6841   19.2129 C   0  0  0  0  0  0  0  0  0  0  0  0
   11.3283  -19.8798   20.3214 C   0  0  0  0  0  0  0  0  0  0  0  0
   10.1611  -16.1552   22.6744 C   0  0  0  0  0  0  0  0  0  0  0  0
   10.7892  -15.1064   22.9435 O   0  0  0  0  0  0  0  0  0  0  0  0
    9.2272  -16.6392   23.6193 N   0  0  0  0  0  0  0  0  0  0  0  0
    9.1513  -16.0319   24.9054 C   0  0  1  0  0  0  0  0  0  0  0  0
    7.8486  -16.3711   25.6217 C   0  0  0  0  0  0  0  0  0  0  0  0
    6.8835  -15.2417   25.6068 C   0  0  0  0  0  0  0  0  0  0  0  0
    5.4876  -15.4079   25.5679 C   0  0  0  0  0  0  0  0  0  0  0  0
    4.9101  -14.2017   25.6023 N   0  0  0  0  0  0  0  0  0  0  0  0
    5.8776  -13.2783   25.6601 C   0  0  0  0  0  0  0  0  0  0  0  0
    5.8760  -11.8854   25.7065 C   0  0  0  0  0  0  0  0  0  0  0  0
    7.0504  -11.1676   25.7523 C   0  0  0  0  0  0  0  0  0  0  0  0
    8.2710  -11.8028   25.7530 C   0  0  0  0  0  0  0  0  0  0  0  0
    8.2754  -13.1782   25.7076 C   0  0  0  0  0  0  0  0  0  0  0  0
    7.1157  -13.8997   25.6633 C   0  0  0  0  0  0  0  0  0  0  0  0
   10.2864  -16.3838   25.7847 C   0  0  0  0  0  0  0  0  0  0  0  0
   11.2097  -17.0507   25.2591 O   0  0  0  0  0  0  0  0  0  0  0  0
   10.4072  -16.0284   27.1512 N   0  0  0  0  0  0  0  0  0  0  0  0
    9.4986  -15.3570   28.0258 C   0  0  0  0  0  0  0  0  0  0  0  0
   10.4029  -14.4962   28.8840 C   0  0  0  0  0  0  0  0  0  0  0  0
   11.8105  -14.9942   28.6604 C   0  0  0  0  0  0  0  0  0  0  0  0
   11.6009  -16.3092   27.9362 C   0  0  1  0  0  0  0  0  0  0  0  0
   11.3632  -17.3921   28.9144 C   0  0  0  0  0  0  0  0  0  0  0  0
   12.3711  -17.9523   29.6785 O   0  0  0  0  0  0  0  0  0  0  0  0
   10.1995  -17.8256   29.0614 O   0  0  0  0  0  0  0  0  0  0  0  0
  2  3  1  0
  2  1  1  6
  3  4  1  0
  4  9  2  0
  5  6  2  0
  5  4  1  0
  6  7  1  0
  7  8  2  0
  9  8  1  0
 10  2  1  0
 10 11  2  0
 12 10  1  0
 13 12  1  0
 13 14  1  1
 15 14  1  0
 15 23  1  0
 16 15  2  0
 17 16  1  0
 17 18  1  0
 18 19  1  0
 18 23  2  0
 19 20  2  0
 20 21  1  0
 22 21  2  0
 23 22  1  0
 24 13  1  0
 24 26  1  0
 25 24  2  0
 26 30  1  0
 27 26  1  0
 27 28  1  0
 28 29  1  0
 30 29  1  0
 31 32  1  0
 30 31  1  1
 33 31  2  0
M  END
$$$$
