FWP.pdb
     RDKit          3D

 33 36  0  0  1  0  0  0  0  0999 V2000
    8.9127  -16.2241   21.4665 N   0  0  0  0  0  0  0  0  0  0  0  0
    9.8014  -15.1393   21.8664 C   0  0  1  0  0  0  0  0  0  0  0  0
    9.2147  -13.7974   21.5707 C   0  0  0  0  0  0  0  0  0  0  0  0
    8.5364  -13.7375   20.2613 C   0  0  0  0  0  0  0  0  0  0  0  0
    9.2930  -13.5466   19.1235 C   0  0  0  0  0  0  0  0  0  0  0  0
    8.6814  -13.4777   17.8684 C   0  0  0  0  0  0  0  0  0  0  0  0
    7.3180  -13.5980   17.7390 C   0  0  0  0  0  0  0  0  0  0  0  0
    6.5766  -13.7883   18.8823 C   0  0  0  0  0  0  0  0  0  0  0  0
    7.1866  -13.8563   20.1273 C   0  0  0  0  0  0  0  0  0  0  0  0
   10.0823  -15.2219   23.3191 C   0  0  0  0  0  0  0  0  0  0  0  0
   10.9491  -14.4647   23.8113 O   0  0  0  0  0  0  0  0  0  0  0  0
    9.4127  -16.1234   24.1784 N   0  0  0  0  0  0  0  0  0  0  0  0
    9.4710  -15.9241   25.5875 C   0  0  1  0  0  0  0  0  0  0  0  0
    8.1420  -16.2404   26.2649 C   0  0  0  0  0  0  0  0  0  0  0  0
    7.0909  -15.2406   25.9441 C   0  0  0  0  0  0  0  0  0  0  0  0
    5.8072  -15.5788   25.4801 C   0  0  0  0  0  0  0  0  0  0  0  0
    5.0968  -14.4560   25.3245 N   0  0  0  0  0  0  0  0  0  0  0  0
    5.8733  -13.4210   25.6681 C   0  0  0  0  0  0  0  0  0  0  0  0
    5.6786  -12.0414   25.6991 C   0  0  0  0  0  0  0  0  0  0  0  0
    6.6804  -11.1841   26.0967 C   0  0  0  0  0  0  0  0  0  0  0  0
    7.9134  -11.6614   26.4780 C   0  0  0  0  0  0  0  0  0  0  0  0
    8.1082  -13.0234   26.4486 C   0  0  0  0  0  0  0  0  0  0  0  0
    7.1203  -13.8825   26.0570 C   0  0  0  0  0  0  0  0  0  0  0  0
   10.5404  -16.7062   26.2435 C   0  0  0  0  0  0  0  0  0  0  0  0
   11.1875  -17.4885   25.5068 O   0  0  0  0  0  0  0  0  0  0  0  0
   10.8832  -16.6371   27.6168 N   0  0  0  0  0  0  0  0  0  0  0  0
   10.3023  -15.8921   28.6885 C   0  0  0  0  0  0  0  0  0  0  0  0
   11.4973  -15.4846   29.5260 C   0  0  0  0  0  0  0  0  0  0  0  0
   12.6616  -16.3195   29.0496 C   0  0  0  0  0  0  0  0  0  0  0  0
   11.9994  -17.3768   28.1887 C   0  0  1  0  0  0  0  0  0  0  0  0
   11.5309  -18.4957   29.0341 C   0  0  0  0  0  0  0  0  0  0  0  0
   10.1931  -18.8058   29.2006 O   0  0  0  0  0  0  0  0  0  0  0  0
   12.3786  -19.1970   29.6284 O   0  0  0  0  0  0  0  0  0  0  0  0
  2  3  1  0
  2  1  1  1
  3  4  1  0
  4  9  2  0
  5  6  2  0
  5  4  1  0
  6  7  1  0
  7  8  2  0
  9  8  1  0
 10  2  1  0
 10 11  2  0
 12 10  1  0
 13 12  1  0
 13 14  1  1
 15 14  1  0
 15 23  1  0
 16 15  2  0
 17 16  1  0
 17 18  1  0
 18 19  1  0
 18 23  2  0
 19 20  2  0
 20 21  1  0
 22 21  2  0
 23 22  1  0
 24 13  1  0
 24 26  1  0
 25 24  2  0
 26 30  1  0
 27 26  1  0
 27 28  1  0
 28 29  1  0
 30 29  1  0
 31 32  1  0
 30 31  1  1
 33 31  2  0
M  END
$$$$
