FWP.pdb
     RDKit          3D

 33 36  0  0  1  0  0  0  0  0999 V2000
   11.7937  -16.4823   19.4631 N   0  0  0  0  0  0  0  0  0  0  0  0
   10.7379  -17.2180   20.1489 C   0  0  1  0  0  0  0  0  0  0  0  0
   11.1403  -18.6254   20.4486 C   0  0  0  0  0  0  0  0  0  0  0  0
   11.0900  -19.5066   19.2658 C   0  0  0  0  0  0  0  0  0  0  0  0
   12.2455  -19.7252   18.5442 C   0  0  0  0  0  0  0  0  0  0  0  0
   12.2311  -20.5483   17.4145 C   0  0  0  0  0  0  0  0  0  0  0  0
   11.0706  -21.1565   16.9978 C   0  0  0  0  0  0  0  0  0  0  0  0
    9.9264  -20.9294   17.7274 C   0  0  0  0  0  0  0  0  0  0  0  0
    9.9436  -20.1116   18.8488 C   0  0  0  0  0  0  0  0  0  0  0  0
   10.3940  -16.5439   21.4230 C   0  0  0  0  0  0  0  0  0  0  0  0
   11.3190  -16.1120   22.1475 O   0  0  0  0  0  0  0  0  0  0  0  0
    9.0609  -16.3668   21.8601 N   0  0  0  0  0  0  0  0  0  0  0  0
    8.8120  -15.7713   23.1297 C   0  0  1  0  0  0  0  0  0  0  0  0
    7.3418  -15.4106   23.3135 C   0  0  0  0  0  0  0  0  0  0  0  0
    7.0416  -14.9419   24.6909 C   0  0  0  0  0  0  0  0  0  0  0  0
    6.6413  -15.7938   25.7357 C   0  0  0  0  0  0  0  0  0  0  0  0
    6.4886  -15.0669   26.8483 N   0  0  0  0  0  0  0  0  0  0  0  0
    6.7731  -13.7921   26.5551 C   0  0  0  0  0  0  0  0  0  0  0  0
    6.7783  -12.6126   27.2977 C   0  0  0  0  0  0  0  0  0  0  0  0
    7.1115  -11.4055   26.7247 C   0  0  0  0  0  0  0  0  0  0  0  0
    7.4514  -11.3210   25.3940 C   0  0  0  0  0  0  0  0  0  0  0  0
    7.4474  -12.4843   24.6586 C   0  0  0  0  0  0  0  0  0  0  0  0
    7.1196  -13.6872   25.2180 C   0  0  0  0  0  0  0  0  0  0  0  0
    9.2430  -16.6151   24.2645 C   0  0  0  0  0  0  0  0  0  0  0  0
    9.2589  -17.8528   24.0612 O   0  0  0  0  0  0  0  0  0  0  0  0
    9.6341  -16.1379   25.5402 N   0  0  0  0  0  0  0  0  0  0  0  0
    9.4186  -14.8746   26.1716 C   0  0  0  0  0  0  0  0  0  0  0  0
   10.7072  -14.6329   26.9308 C   0  0  0  0  0  0  0  0  0  0  0  0
   11.4485  -15.9481   26.9504 C   0  0  0  0  0  0  0  0  0  0  0  0
   10.4038  -16.9406   26.4801 C   0  0  1  0  0  0  0  0  0  0  0  0
    9.5745  -17.3803   27.6224 C   0  0  0  0  0  0  0  0  0  0  0  0
   10.0767  -18.1199   28.6780 O   0  0  0  0  0  0  0  0  0  0  0  0
    8.3626  -17.0726   27.6400 O   0  0  0  0  0  0  0  0  0  0  0  0
  2  3  1  0
  2  1  1  1
  3  4  1  0
  4  9  2  0
  5  6  2  0
  5  4  1  0
  6  7  1  0
  7  8  2  0
  9  8  1  0
 10  2  1  0
 10 11  2  0
 12 10  1  0
 13 12  1  0
 13 14  1  1
 15 14  1  0
 15 23  1  0
 16 15  2  0
 17 16  1  0
 17 18  1  0
 18 19  1  0
 18 23  2  0
 19 20  2  0
 20 21  1  0
 22 21  2  0
 23 22  1  0
 24 13  1  0
 24 26  1  0
 25 24  2  0
 26 30  1  0
 27 26  1  0
 27 28  1  0
 28 29  1  0
 30 29  1  0
 31 32  1  0
 30 31  1  1
 33 31  2  0
M  END
$$$$
