FWP.pdb
     RDKit          3D

 33 36  0  0  1  0  0  0  0  0999 V2000
    9.3599  -16.2008   21.0790 N   0  0  0  0  0  0  0  0  0  0  0  0
   10.3464  -15.2654   21.6067 C   0  0  1  0  0  0  0  0  0  0  0  0
   10.1589  -13.8872   21.0609 C   0  0  0  0  0  0  0  0  0  0  0  0
    9.1180  -13.8142   20.0172 C   0  0  0  0  0  0  0  0  0  0  0  0
    8.3702  -14.9395   19.7376 C   0  0  0  0  0  0  0  0  0  0  0  0
    7.3815  -14.9066   18.7500 C   0  0  0  0  0  0  0  0  0  0  0  0
    7.1322  -13.7576   18.0374 C   0  0  0  0  0  0  0  0  0  0  0  0
    7.8857  -12.6434   18.3273 C   0  0  0  0  0  0  0  0  0  0  0  0
    8.8668  -12.6790   19.3086 C   0  0  0  0  0  0  0  0  0  0  0  0
   10.2499  -15.2052   23.0843 C   0  0  0  0  0  0  0  0  0  0  0  0
   11.0266  -14.4492   23.7106 O   0  0  0  0  0  0  0  0  0  0  0  0
    9.3158  -15.9682   23.8223 N   0  0  0  0  0  0  0  0  0  0  0  0
    9.2020  -15.7693   25.2281 C   0  0  1  0  0  0  0  0  0  0  0  0
    7.8788  -16.2948   25.7743 C   0  0  0  0  0  0  0  0  0  0  0  0
    6.8440  -15.2330   25.8700 C   0  0  0  0  0  0  0  0  0  0  0  0
    5.4614  -15.4891   25.8837 C   0  0  0  0  0  0  0  0  0  0  0  0
    4.8105  -14.3279   26.0159 N   0  0  0  0  0  0  0  0  0  0  0  0
    5.7189  -13.3470   26.0854 C   0  0  0  0  0  0  0  0  0  0  0  0
    5.6307  -11.9621   26.2151 C   0  0  0  0  0  0  0  0  0  0  0  0
    6.7578  -11.1717   26.2512 C   0  0  0  0  0  0  0  0  0  0  0  0
    8.0151  -11.7233   26.1595 C   0  0  0  0  0  0  0  0  0  0  0  0
    8.1049  -13.0906   26.0317 C   0  0  0  0  0  0  0  0  0  0  0  0
    6.9928  -13.8839   25.9963 C   0  0  0  0  0  0  0  0  0  0  0  0
   10.3108  -16.3760   25.9949 C   0  0  0  0  0  0  0  0  0  0  0  0
   11.1856  -16.9759   25.3252 O   0  0  0  0  0  0  0  0  0  0  0  0
   10.4567  -16.3292   27.4036 N   0  0  0  0  0  0  0  0  0  0  0  0
    9.6099  -15.7761   28.4128 C   0  0  0  0  0  0  0  0  0  0  0  0
   10.5859  -15.2027   29.4198 C   0  0  0  0  0  0  0  0  0  0  0  0
   11.9421  -15.7704   29.0763 C   0  0  0  0  0  0  0  0  0  0  0  0
   11.6146  -16.8782   28.0949 C   0  0  1  0  0  0  0  0  0  0  0  0
   11.2714  -18.1162   28.8268 C   0  0  0  0  0  0  0  0  0  0  0  0
    9.9982  -18.6570   28.8377 O   0  0  0  0  0  0  0  0  0  0  0  0
   12.1693  -18.7053   29.4673 O   0  0  0  0  0  0  0  0  0  0  0  0
  2  3  1  0
  2  1  1  6
  3  4  1  0
  4  9  2  0
  5  6  2  0
  5  4  1  0
  6  7  1  0
  7  8  2  0
  9  8  1  0
 10  2  1  0
 10 11  2  0
 12 10  1  0
 13 12  1  0
 13 14  1  1
 15 14  1  0
 15 23  1  0
 16 15  2  0
 17 16  1  0
 17 18  1  0
 18 19  1  0
 18 23  2  0
 19 20  2  0
 20 21  1  0
 22 21  2  0
 23 22  1  0
 24 13  1  0
 24 26  1  0
 25 24  2  0
 26 30  1  0
 27 26  1  0
 27 28  1  0
 28 29  1  0
 30 29  1  0
 31 32  1  0
 30 31  1  1
 33 31  2  0
M  END
$$$$
