FWP.pdb
     RDKit          3D

 33 36  0  0  1  0  0  0  0  0999 V2000
   10.1485  -15.5343   20.0908 N   0  0  0  0  0  0  0  0  0  0  0  0
   10.4361  -16.5014   21.1437 C   0  0  1  0  0  0  0  0  0  0  0  0
   11.8662  -16.9336   21.1312 C   0  0  0  0  0  0  0  0  0  0  0  0
   12.1691  -17.9026   20.0600 C   0  0  0  0  0  0  0  0  0  0  0  0
   11.9129  -19.2411   20.2760 C   0  0  0  0  0  0  0  0  0  0  0  0
   12.1949  -20.1860   19.2853 C   0  0  0  0  0  0  0  0  0  0  0  0
   12.7317  -19.8057   18.0780 C   0  0  0  0  0  0  0  0  0  0  0  0
   12.9816  -18.4677   17.8770 C   0  0  0  0  0  0  0  0  0  0  0  0
   12.7005  -17.5315   18.8625 C   0  0  0  0  0  0  0  0  0  0  0  0
   10.1321  -15.9140   22.4698 C   0  0  0  0  0  0  0  0  0  0  0  0
   10.5667  -14.7714   22.7391 O   0  0  0  0  0  0  0  0  0  0  0  0
    9.3701  -16.5903   23.4504 N   0  0  0  0  0  0  0  0  0  0  0  0
    9.1864  -15.9942   24.7307 C   0  0  1  0  0  0  0  0  0  0  0  0
    7.9049  -16.4719   25.4051 C   0  0  0  0  0  0  0  0  0  0  0  0
    6.9243  -15.3730   25.6006 C   0  0  0  0  0  0  0  0  0  0  0  0
    5.5650  -15.5825   25.8941 C   0  0  0  0  0  0  0  0  0  0  0  0
    4.9699  -14.3940   26.0451 N   0  0  0  0  0  0  0  0  0  0  0  0
    5.8910  -13.4405   25.8591 C   0  0  0  0  0  0  0  0  0  0  0  0
    5.8515  -12.0475   25.8833 C   0  0  0  0  0  0  0  0  0  0  0  0
    6.9779  -11.2935   25.6401 C   0  0  0  0  0  0  0  0  0  0  0  0
    8.1861  -11.8910   25.3631 C   0  0  0  0  0  0  0  0  0  0  0  0
    8.2279  -13.2664   25.3391 C   0  0  0  0  0  0  0  0  0  0  0  0
    7.1162  -14.0237   25.5802 C   0  0  0  0  0  0  0  0  0  0  0  0
   10.3231  -16.2209   25.6484 C   0  0  0  0  0  0  0  0  0  0  0  0
   11.3107  -16.8278   25.1692 O   0  0  0  0  0  0  0  0  0  0  0  0
   10.3790  -15.8092   27.0032 N   0  0  0  0  0  0  0  0  0  0  0  0
    9.4601  -15.0453   27.7864 C   0  0  0  0  0  0  0  0  0  0  0  0
   10.3597  -14.1994   28.6641 C   0  0  0  0  0  0  0  0  0  0  0  0
   11.7453  -14.7890   28.5553 C   0  0  0  0  0  0  0  0  0  0  0  0
   11.5014  -16.1222   27.8765 C   0  0  1  0  0  0  0  0  0  0  0  0
   11.1363  -17.1420   28.8828 C   0  0  0  0  0  0  0  0  0  0  0  0
   12.0624  -17.7465   29.7136 O   0  0  0  0  0  0  0  0  0  0  0  0
    9.9366  -17.4775   28.9918 O   0  0  0  0  0  0  0  0  0  0  0  0
  2  3  1  0
  2  1  1  6
  3  4  1  0
  4  9  2  0
  5  6  2  0
  5  4  1  0
  6  7  1  0
  7  8  2  0
  9  8  1  0
 10  2  1  0
 10 11  2  0
 12 10  1  0
 13 12  1  0
 13 14  1  1
 15 14  1  0
 15 23  1  0
 16 15  2  0
 17 16  1  0
 17 18  1  0
 18 19  1  0
 18 23  2  0
 19 20  2  0
 20 21  1  0
 22 21  2  0
 23 22  1  0
 24 13  1  0
 24 26  1  0
 25 24  2  0
 26 30  1  0
 27 26  1  0
 27 28  1  0
 28 29  1  0
 30 29  1  0
 31 32  1  0
 30 31  1  1
 33 31  2  0
M  END
$$$$
