FWP.pdb
     RDKit          3D

 33 36  0  0  1  0  0  0  0  0999 V2000
    2.9896  -19.8052   22.8465 N   0  0  0  0  0  0  0  0  0  0  0  0
    4.4039  -19.7634   22.4939 C   0  0  1  0  0  0  0  0  0  0  0  0
    4.6265  -20.0301   21.0407 C   0  0  0  0  0  0  0  0  0  0  0  0
    4.6553  -21.4689   20.7136 C   0  0  0  0  0  0  0  0  0  0  0  0
    5.6934  -22.2431   21.1898 C   0  0  0  0  0  0  0  0  0  0  0  0
    5.7549  -23.6075   20.8924 C   0  0  0  0  0  0  0  0  0  0  0  0
    4.7870  -24.2073   20.1220 C   0  0  0  0  0  0  0  0  0  0  0  0
    3.7579  -23.4228   19.6544 C   0  0  0  0  0  0  0  0  0  0  0  0
    3.6994  -22.0681   19.9513 C   0  0  0  0  0  0  0  0  0  0  0  0
    4.9703  -18.4339   22.8220 C   0  0  0  0  0  0  0  0  0  0  0  0
    4.3845  -17.4081   22.4078 O   0  0  0  0  0  0  0  0  0  0  0  0
    6.1497  -18.2712   23.5849 N   0  0  0  0  0  0  0  0  0  0  0  0
    6.7534  -16.9845   23.6778 C   0  0  1  0  0  0  0  0  0  0  0  0
    7.3409  -16.7273   25.0612 C   0  0  0  0  0  0  0  0  0  0  0  0
    6.7713  -15.5139   25.7017 C   0  0  0  0  0  0  0  0  0  0  0  0
    5.4037  -15.3493   25.9851 C   0  0  0  0  0  0  0  0  0  0  0  0
    5.2295  -14.1701   26.5922 N   0  0  0  0  0  0  0  0  0  0  0  0
    6.4254  -13.5792   26.7053 C   0  0  0  0  0  0  0  0  0  0  0  0
    6.8501  -12.3613   27.2332 C   0  0  0  0  0  0  0  0  0  0  0  0
    8.1766  -11.9920   27.2080 C   0  0  0  0  0  0  0  0  0  0  0  0
    9.1325  -12.8152   26.6583 C   0  0  0  0  0  0  0  0  0  0  0  0
    8.7157  -14.0186   26.1367 C   0  0  0  0  0  0  0  0  0  0  0  0
    7.4021  -14.3949   26.1579 C   0  0  0  0  0  0  0  0  0  0  0  0
    7.8037  -16.7581   22.6623 C   0  0  0  0  0  0  0  0  0  0  0  0
    8.2797  -17.7832   22.1181 O   0  0  0  0  0  0  0  0  0  0  0  0
    8.3017  -15.4925   22.2644 N   0  0  0  0  0  0  0  0  0  0  0  0
    8.0597  -14.1860   22.7895 C   0  0  0  0  0  0  0  0  0  0  0  0
    8.0296  -13.3076   21.5556 C   0  0  0  0  0  0  0  0  0  0  0  0
    8.5967  -14.1330   20.4257 C   0  0  0  0  0  0  0  0  0  0  0  0
    9.2102  -15.3210   21.1396 C   0  0  1  0  0  0  0  0  0  0  0  0
   10.5770  -14.9867   21.5938 C   0  0  0  0  0  0  0  0  0  0  0  0
   10.9249  -14.8895   22.9291 O   0  0  0  0  0  0  0  0  0  0  0  0
   11.4629  -14.7811   20.7357 O   0  0  0  0  0  0  0  0  0  0  0  0
  2  3  1  0
  2  1  1  6
  3  4  1  0
  4  9  2  0
  5  6  2  0
  5  4  1  0
  6  7  1  0
  7  8  2  0
  9  8  1  0
 10  2  1  0
 10 11  2  0
 12 10  1  0
 13 12  1  0
 13 14  1  1
 15 14  1  0
 15 23  1  0
 16 15  2  0
 17 16  1  0
 17 18  1  0
 18 19  1  0
 18 23  2  0
 19 20  2  0
 20 21  1  0
 22 21  2  0
 23 22  1  0
 24 13  1  0
 24 26  1  0
 25 24  2  0
 26 30  1  0
 27 26  1  0
 27 28  1  0
 28 29  1  0
 30 29  1  0
 31 32  1  0
 30 31  1  1
 33 31  2  0
M  END
$$$$
