FWP.pdb
     RDKit          3D

 33 36  0  0  1  0  0  0  0  0999 V2000
    8.6160  -18.2994   21.7018 N   0  0  0  0  0  0  0  0  0  0  0  0
    8.8625  -16.8749   21.5106 C   0  0  1  0  0  0  0  0  0  0  0  0
    7.6894  -16.1811   20.8984 C   0  0  0  0  0  0  0  0  0  0  0  0
    7.9807  -14.7890   20.5044 C   0  0  0  0  0  0  0  0  0  0  0  0
    7.5213  -13.7584   21.2985 C   0  0  0  0  0  0  0  0  0  0  0  0
    7.7733  -12.4282   20.9503 C   0  0  0  0  0  0  0  0  0  0  0  0
    8.4815  -12.1172   19.8137 C   0  0  0  0  0  0  0  0  0  0  0  0
    8.9334  -13.1553   19.0318 C   0  0  0  0  0  0  0  0  0  0  0  0
    8.6817  -14.4752   19.3801 C   0  0  0  0  0  0  0  0  0  0  0  0
    9.1648  -16.2325   22.8114 C   0  0  0  0  0  0  0  0  0  0  0  0
    9.7025  -15.1021   22.8170 O   0  0  0  0  0  0  0  0  0  0  0  0
    8.8729  -16.8428   24.0530 N   0  0  0  0  0  0  0  0  0  0  0  0
    9.1944  -16.1624   25.2622 C   0  0  1  0  0  0  0  0  0  0  0  0
    8.0583  -16.2323   26.2769 C   0  0  0  0  0  0  0  0  0  0  0  0
    6.9565  -15.2876   25.9593 C   0  0  0  0  0  0  0  0  0  0  0  0
    5.6440  -15.6920   25.6568 C   0  0  0  0  0  0  0  0  0  0  0  0
    4.8937  -14.6025   25.4579 N   0  0  0  0  0  0  0  0  0  0  0  0
    5.6723  -13.5255   25.6197 C   0  0  0  0  0  0  0  0  0  0  0  0
    5.4460  -12.1532   25.5303 C   0  0  0  0  0  0  0  0  0  0  0  0
    6.4584  -11.2439   25.7418 C   0  0  0  0  0  0  0  0  0  0  0  0
    7.7335  -11.6598   26.0493 C   0  0  0  0  0  0  0  0  0  0  0  0
    7.9595  -13.0144   26.1385 C   0  0  0  0  0  0  0  0  0  0  0  0
    6.9615  -13.9248   25.9317 C   0  0  0  0  0  0  0  0  0  0  0  0
   10.4344  -16.6564   25.8977 C   0  0  0  0  0  0  0  0  0  0  0  0
   11.1802  -17.3667   25.1815 O   0  0  0  0  0  0  0  0  0  0  0  0
   10.8362  -16.3902   27.2303 N   0  0  0  0  0  0  0  0  0  0  0  0
   10.1834  -15.6689   28.2766 C   0  0  0  0  0  0  0  0  0  0  0  0
   11.3215  -14.9617   28.9837 C   0  0  0  0  0  0  0  0  0  0  0  0
   12.5976  -15.6016   28.4921 C   0  0  0  0  0  0  0  0  0  0  0  0
   12.1075  -16.8444   27.7760 C   0  0  1  0  0  0  0  0  0  0  0  0
   11.9183  -17.9445   28.7455 C   0  0  0  0  0  0  0  0  0  0  0  0
   12.9715  -18.5911   29.3669 O   0  0  0  0  0  0  0  0  0  0  0  0
   10.7548  -18.3116   29.0197 O   0  0  0  0  0  0  0  0  0  0  0  0
  2  3  1  0
  2  1  1  1
  3  4  1  0
  4  9  2  0
  5  6  2  0
  5  4  1  0
  6  7  1  0
  7  8  2  0
  9  8  1  0
 10  2  1  0
 10 11  2  0
 12 10  1  0
 13 12  1  0
 13 14  1  1
 15 14  1  0
 15 23  1  0
 16 15  2  0
 17 16  1  0
 17 18  1  0
 18 19  1  0
 18 23  2  0
 19 20  2  0
 20 21  1  0
 22 21  2  0
 23 22  1  0
 24 13  1  0
 24 26  1  0
 25 24  2  0
 26 30  1  0
 27 26  1  0
 27 28  1  0
 28 29  1  0
 30 29  1  0
 31 32  1  0
 30 31  1  1
 33 31  2  0
M  END
$$$$
