FWP.pdb
     RDKit          3D

 33 36  0  0  1  0  0  0  0  0999 V2000
   12.7781  -15.2459   20.1281 N   0  0  0  0  0  0  0  0  0  0  0  0
   11.8682  -16.2291   20.7042 C   0  0  1  0  0  0  0  0  0  0  0  0
   12.5719  -17.4943   21.0731 C   0  0  0  0  0  0  0  0  0  0  0  0
   13.0123  -18.2752   19.9008 C   0  0  0  0  0  0  0  0  0  0  0  0
   13.4539  -19.5692   20.0857 C   0  0  0  0  0  0  0  0  0  0  0  0
   13.8849  -20.3339   18.9978 C   0  0  0  0  0  0  0  0  0  0  0  0
   13.8789  -19.8168   17.7239 C   0  0  0  0  0  0  0  0  0  0  0  0
   13.4358  -18.5253   17.5549 C   0  0  0  0  0  0  0  0  0  0  0  0
   13.0083  -17.7683   18.6370 C   0  0  0  0  0  0  0  0  0  0  0  0
   11.2247  -15.6754   21.9189 C   0  0  0  0  0  0  0  0  0  0  0  0
   11.8808  -14.9005   22.6509 O   0  0  0  0  0  0  0  0  0  0  0  0
    9.8962  -15.9857   22.2907 N   0  0  0  0  0  0  0  0  0  0  0  0
    9.3550  -15.4331   23.4866 C   0  0  1  0  0  0  0  0  0  0  0  0
    7.8303  -15.4544   23.4871 C   0  0  0  0  0  0  0  0  0  0  0  0
    7.2578  -14.9873   24.7760 C   0  0  0  0  0  0  0  0  0  0  0  0
    6.7882  -15.8517   25.7809 C   0  0  0  0  0  0  0  0  0  0  0  0
    6.3752  -15.1181   26.8205 N   0  0  0  0  0  0  0  0  0  0  0  0
    6.5609  -13.8271   26.5190 C   0  0  0  0  0  0  0  0  0  0  0  0
    6.3134  -12.6357   27.1984 C   0  0  0  0  0  0  0  0  0  0  0  0
    6.6002  -11.4137   26.6320 C   0  0  0  0  0  0  0  0  0  0  0  0
    7.1427  -11.3258   25.3704 C   0  0  0  0  0  0  0  0  0  0  0  0
    7.3884  -12.5008   24.6974 C   0  0  0  0  0  0  0  0  0  0  0  0
    7.1086  -13.7184   25.2512 C   0  0  0  0  0  0  0  0  0  0  0  0
    9.8432  -16.1018   24.7114 C   0  0  0  0  0  0  0  0  0  0  0  0
   10.3048  -17.2590   24.5655 O   0  0  0  0  0  0  0  0  0  0  0  0
    9.8302  -15.5419   26.0131 N   0  0  0  0  0  0  0  0  0  0  0  0
    9.2893  -14.3105   26.4952 C   0  0  0  0  0  0  0  0  0  0  0  0
   10.2988  -13.8613   27.5318 C   0  0  0  0  0  0  0  0  0  0  0  0
   11.1864  -15.0501   27.8118 C   0  0  0  0  0  0  0  0  0  0  0  0
   10.4422  -16.1983   27.1597 C   0  0  1  0  0  0  0  0  0  0  0  0
    9.4213  -16.7303   28.0875 C   0  0  0  0  0  0  0  0  0  0  0  0
    9.0712  -18.0677   28.1366 O   0  0  0  0  0  0  0  0  0  0  0  0
    8.8445  -15.9393   28.8654 O   0  0  0  0  0  0  0  0  0  0  0  0
  2  3  1  0
  2  1  1  1
  3  4  1  0
  4  9  2  0
  5  6  2  0
  5  4  1  0
  6  7  1  0
  7  8  2  0
  9  8  1  0
 10  2  1  0
 10 11  2  0
 12 10  1  0
 13 12  1  0
 13 14  1  6
 15 14  1  0
 15 23  1  0
 16 15  2  0
 17 16  1  0
 17 18  1  0
 18 19  1  0
 18 23  2  0
 19 20  2  0
 20 21  1  0
 22 21  2  0
 23 22  1  0
 24 13  1  0
 24 26  1  0
 25 24  2  0
 26 30  1  0
 27 26  1  0
 27 28  1  0
 28 29  1  0
 30 29  1  0
 31 32  1  0
 30 31  1  1
 33 31  2  0
M  END
$$$$
