FWP.pdb
     RDKit          3D

 33 36  0  0  1  0  0  0  0  0999 V2000
   10.5280  -15.6531   20.3704 N   0  0  0  0  0  0  0  0  0  0  0  0
   10.1378  -16.6651   21.3451 C   0  0  1  0  0  0  0  0  0  0  0  0
   11.1383  -17.7710   21.4347 C   0  0  0  0  0  0  0  0  0  0  0  0
   10.7092  -18.9983   20.7362 C   0  0  0  0  0  0  0  0  0  0  0  0
   11.4735  -20.1404   20.8589 C   0  0  0  0  0  0  0  0  0  0  0  0
   11.0995  -21.3177   20.2045 C   0  0  0  0  0  0  0  0  0  0  0  0
    9.9667  -21.3649   19.4269 C   0  0  0  0  0  0  0  0  0  0  0  0
    9.2145  -20.2183   19.3141 C   0  0  0  0  0  0  0  0  0  0  0  0
    9.5882  -19.0507   19.9651 C   0  0  0  0  0  0  0  0  0  0  0  0
    9.9927  -16.0501   22.6856 C   0  0  0  0  0  0  0  0  0  0  0  0
   10.5977  -14.9817   22.9294 O   0  0  0  0  0  0  0  0  0  0  0  0
    9.1983  -16.6196   23.7074 N   0  0  0  0  0  0  0  0  0  0  0  0
    9.1748  -16.0154   24.9969 C   0  0  1  0  0  0  0  0  0  0  0  0
    7.8628  -16.2790   25.7278 C   0  0  0  0  0  0  0  0  0  0  0  0
    6.8761  -15.1855   25.5325 C   0  0  0  0  0  0  0  0  0  0  0  0
    5.5498  -15.3959   25.1152 C   0  0  0  0  0  0  0  0  0  0  0  0
    4.9198  -14.2165   25.0749 N   0  0  0  0  0  0  0  0  0  0  0  0
    5.7879  -13.2678   25.4467 C   0  0  0  0  0  0  0  0  0  0  0  0
    5.6998  -11.8835   25.5824 C   0  0  0  0  0  0  0  0  0  0  0  0
    6.7815  -11.1316   25.9839 C   0  0  0  0  0  0  0  0  0  0  0  0
    7.9917  -11.7228   26.2656 C   0  0  0  0  0  0  0  0  0  0  0  0
    8.0812  -13.0896   26.1328 C   0  0  0  0  0  0  0  0  0  0  0  0
    7.0136  -13.8448   25.7363 C   0  0  0  0  0  0  0  0  0  0  0  0
   10.2972  -16.4397   25.8605 C   0  0  0  0  0  0  0  0  0  0  0  0
   11.1851  -17.1372   25.3140 O   0  0  0  0  0  0  0  0  0  0  0  0
   10.4424  -16.1211   27.2337 N   0  0  0  0  0  0  0  0  0  0  0  0
    9.5885  -15.3952   28.1198 C   0  0  0  0  0  0  0  0  0  0  0  0
   10.5568  -14.6264   28.9953 C   0  0  0  0  0  0  0  0  0  0  0  0
   11.9203  -15.2322   28.7640 C   0  0  0  0  0  0  0  0  0  0  0  0
   11.6073  -16.5121   28.0147 C   0  0  1  0  0  0  0  0  0  0  0  0
   11.2802  -17.5905   28.9718 C   0  0  0  0  0  0  0  0  0  0  0  0
   10.0081  -18.1164   29.1089 O   0  0  0  0  0  0  0  0  0  0  0  0
   12.1914  -18.0519   29.6931 O   0  0  0  0  0  0  0  0  0  0  0  0
  2  3  1  0
  2  1  1  6
  3  4  1  0
  4  9  2  0
  5  6  2  0
  5  4  1  0
  6  7  1  0
  7  8  2  0
  9  8  1  0
 10  2  1  0
 10 11  2  0
 12 10  1  0
 13 12  1  0
 13 14  1  1
 15 14  1  0
 15 23  1  0
 16 15  2  0
 17 16  1  0
 17 18  1  0
 18 19  1  0
 18 23  2  0
 19 20  2  0
 20 21  1  0
 22 21  2  0
 23 22  1  0
 24 13  1  0
 24 26  1  0
 25 24  2  0
 26 30  1  0
 27 26  1  0
 27 28  1  0
 28 29  1  0
 30 29  1  0
 31 32  1  0
 30 31  1  1
 33 31  2  0
M  END
$$$$
