FWP.pdb
     RDKit          3D

 33 36  0  0  1  0  0  0  0  0999 V2000
   10.4511  -15.6426   20.2832 N   0  0  0  0  0  0  0  0  0  0  0  0
   10.2481  -16.6635   21.3046 C   0  0  1  0  0  0  0  0  0  0  0  0
   11.4028  -17.6078   21.3893 C   0  0  0  0  0  0  0  0  0  0  0  0
   11.2386  -18.8014   20.5370 C   0  0  0  0  0  0  0  0  0  0  0  0
   12.1683  -19.8174   20.6215 C   0  0  0  0  0  0  0  0  0  0  0  0
   12.0466  -20.9584   19.8231 C   0  0  0  0  0  0  0  0  0  0  0  0
   11.0025  -21.0942   18.9389 C   0  0  0  0  0  0  0  0  0  0  0  0
   10.0833  -20.0730   18.8656 C   0  0  0  0  0  0  0  0  0  0  0  0
   10.2066  -18.9413   19.6598 C   0  0  0  0  0  0  0  0  0  0  0  0
   10.0610  -16.0265   22.6295 C   0  0  0  0  0  0  0  0  0  0  0  0
   10.6515  -14.9496   22.8714 O   0  0  0  0  0  0  0  0  0  0  0  0
    9.2422  -16.5842   23.6384 N   0  0  0  0  0  0  0  0  0  0  0  0
    9.1869  -15.9643   24.9195 C   0  0  1  0  0  0  0  0  0  0  0  0
    7.8822  -16.2709   25.6469 C   0  0  0  0  0  0  0  0  0  0  0  0
    6.9012  -15.1600   25.5427 C   0  0  0  0  0  0  0  0  0  0  0  0
    5.5145  -15.3526   25.4108 C   0  0  0  0  0  0  0  0  0  0  0  0
    4.9154  -14.1569   25.3811 N   0  0  0  0  0  0  0  0  0  0  0  0
    5.8606  -13.2148   25.4870 C   0  0  0  0  0  0  0  0  0  0  0  0
    5.8319  -11.8216   25.5052 C   0  0  0  0  0  0  0  0  0  0  0  0
    6.9879  -11.0815   25.6176 C   0  0  0  0  0  0  0  0  0  0  0  0
    8.2162  -11.6939   25.7154 C   0  0  0  0  0  0  0  0  0  0  0  0
    8.2473  -13.0696   25.6980 C   0  0  0  0  0  0  0  0  0  0  0  0
    7.1060  -13.8131   25.5882 C   0  0  0  0  0  0  0  0  0  0  0  0
   10.3203  -16.3316   25.7948 C   0  0  0  0  0  0  0  0  0  0  0  0
   11.2326  -17.0109   25.2658 O   0  0  0  0  0  0  0  0  0  0  0  0
   10.4508  -15.9779   27.1608 N   0  0  0  0  0  0  0  0  0  0  0  0
    9.5927  -15.2205   28.0159 C   0  0  0  0  0  0  0  0  0  0  0  0
   10.5572  -14.4381   28.8836 C   0  0  0  0  0  0  0  0  0  0  0  0
   11.9175  -15.0628   28.6865 C   0  0  0  0  0  0  0  0  0  0  0  0
   11.6016  -16.3592   27.9673 C   0  0  1  0  0  0  0  0  0  0  0  0
   11.2514  -17.4085   28.9482 C   0  0  0  0  0  0  0  0  0  0  0  0
   12.1911  -18.0447   29.7393 O   0  0  0  0  0  0  0  0  0  0  0  0
   10.0522  -17.7404   29.0722 O   0  0  0  0  0  0  0  0  0  0  0  0
  2  3  1  0
  2  1  1  6
  3  4  1  0
  4  9  2  0
  5  6  2  0
  5  4  1  0
  6  7  1  0
  7  8  2  0
  9  8  1  0
 10  2  1  0
 10 11  2  0
 12 10  1  0
 13 12  1  0
 13 14  1  1
 15 14  1  0
 15 23  1  0
 16 15  2  0
 17 16  1  0
 17 18  1  0
 18 19  1  0
 18 23  2  0
 19 20  2  0
 20 21  1  0
 22 21  2  0
 23 22  1  0
 24 13  1  0
 24 26  1  0
 25 24  2  0
 26 30  1  0
 27 26  1  0
 27 28  1  0
 28 29  1  0
 30 29  1  0
 31 32  1  0
 30 31  1  1
 33 31  2  0
M  END
$$$$
