FWP.pdb
     RDKit          3D

 33 36  0  0  1  0  0  0  0  0999 V2000
    4.6783  -20.5644   22.1492 N   0  0  0  0  0  0  0  0  0  0  0  0
    5.7204  -20.4828   23.1660 C   0  0  1  0  0  0  0  0  0  0  0  0
    6.9608  -21.2074   22.7554 C   0  0  0  0  0  0  0  0  0  0  0  0
    7.3001  -22.3292   23.6524 C   0  0  0  0  0  0  0  0  0  0  0  0
    8.4471  -23.0568   23.4102 C   0  0  0  0  0  0  0  0  0  0  0  0
    8.7939  -24.1300   24.2360 C   0  0  0  0  0  0  0  0  0  0  0  0
    8.0038  -24.4841   25.3040 C   0  0  0  0  0  0  0  0  0  0  0  0
    6.8633  -23.7493   25.5333 C   0  0  0  0  0  0  0  0  0  0  0  0
    6.5215  -22.6840   24.7116 C   0  0  0  0  0  0  0  0  0  0  0  0
    6.0660  -19.0656   23.4268 C   0  0  0  0  0  0  0  0  0  0  0  0
    6.1866  -18.2842   22.4563 O   0  0  0  0  0  0  0  0  0  0  0  0
    6.2681  -18.5539   24.7294 N   0  0  0  0  0  0  0  0  0  0  0  0
    6.7043  -17.2083   24.8948 C   0  0  1  0  0  0  0  0  0  0  0  0
    6.4170  -16.6826   26.2971 C   0  0  0  0  0  0  0  0  0  0  0  0
    6.8151  -15.2607   26.4614 C   0  0  0  0  0  0  0  0  0  0  0  0
    6.0110  -14.1747   26.0721 C   0  0  0  0  0  0  0  0  0  0  0  0
    6.6405  -13.0380   26.3903 N   0  0  0  0  0  0  0  0  0  0  0  0
    7.8084  -13.3550   26.9628 C   0  0  0  0  0  0  0  0  0  0  0  0
    8.8623  -12.6027   27.4781 C   0  0  0  0  0  0  0  0  0  0  0  0
    9.9790  -13.2048   28.0139 C   0  0  0  0  0  0  0  0  0  0  0  0
   10.0940  -14.5753   28.0588 C   0  0  0  0  0  0  0  0  0  0  0  0
    9.0545  -15.3205   27.5510 C   0  0  0  0  0  0  0  0  0  0  0  0
    7.9416  -14.7328   27.0184 C   0  0  0  0  0  0  0  0  0  0  0  0
    8.1404  -17.0198   24.5982 C   0  0  0  0  0  0  0  0  0  0  0  0
    8.8956  -17.9818   24.8771 O   0  0  0  0  0  0  0  0  0  0  0  0
    8.7155  -15.8556   24.0310 N   0  0  0  0  0  0  0  0  0  0  0  0
    8.2903  -14.4920   24.0644 C   0  0  0  0  0  0  0  0  0  0  0  0
    8.6455  -13.9757   22.6851 C   0  0  0  0  0  0  0  0  0  0  0  0
    9.5652  -15.0004   22.0655 C   0  0  0  0  0  0  0  0  0  0  0  0
    9.9367  -15.8855   23.2386 C   0  0  1  0  0  0  0  0  0  0  0  0
   11.0748  -15.2959   23.9756 C   0  0  0  0  0  0  0  0  0  0  0  0
   12.3692  -15.2944   23.4876 O   0  0  0  0  0  0  0  0  0  0  0  0
   10.8633  -14.7737   25.0918 O   0  0  0  0  0  0  0  0  0  0  0  0
  2  3  1  0
  2  1  1  6
  3  4  1  0
  4  9  2  0
  5  6  2  0
  5  4  1  0
  6  7  1  0
  7  8  2  0
  9  8  1  0
 10  2  1  0
 10 11  2  0
 12 10  1  0
 13 12  1  0
 13 14  1  1
 15 14  1  0
 15 23  1  0
 16 15  2  0
 17 16  1  0
 17 18  1  0
 18 19  1  0
 18 23  2  0
 19 20  2  0
 20 21  1  0
 22 21  2  0
 23 22  1  0
 24 13  1  0
 24 26  1  0
 25 24  2  0
 26 30  1  0
 27 26  1  0
 27 28  1  0
 28 29  1  0
 30 29  1  0
 31 32  1  0
 30 31  1  1
 33 31  2  0
M  END
$$$$
