FWP.pdb
     RDKit          3D

 33 36  0  0  1  0  0  0  0  0999 V2000
    5.9524  -18.0547   20.9555 N   0  0  0  0  0  0  0  0  0  0  0  0
    6.7349  -16.8273   20.8685 C   0  0  1  0  0  0  0  0  0  0  0  0
    5.9842  -15.7325   20.1827 C   0  0  0  0  0  0  0  0  0  0  0  0
    6.7946  -14.5166   19.9749 C   0  0  0  0  0  0  0  0  0  0  0  0
    7.6647  -14.4667   18.9053 C   0  0  0  0  0  0  0  0  0  0  0  0
    8.4522  -13.3332   18.6840 C   0  0  0  0  0  0  0  0  0  0  0  0
    8.3785  -12.2465   19.5231 C   0  0  0  0  0  0  0  0  0  0  0  0
    7.5063  -12.3107   20.5853 C   0  0  0  0  0  0  0  0  0  0  0  0
    6.7255  -13.4376   20.8026 C   0  0  0  0  0  0  0  0  0  0  0  0
    7.1079  -16.3652   22.2263 C   0  0  0  0  0  0  0  0  0  0  0  0
    7.1785  -15.1353   22.4483 O   0  0  0  0  0  0  0  0  0  0  0  0
    7.3903  -17.2559   23.2876 N   0  0  0  0  0  0  0  0  0  0  0  0
    8.2717  -16.8487   24.3296 C   0  0  1  0  0  0  0  0  0  0  0  0
    7.5807  -16.8320   25.6888 C   0  0  0  0  0  0  0  0  0  0  0  0
    7.3501  -15.4526   26.1900 C   0  0  0  0  0  0  0  0  0  0  0  0
    6.2081  -14.6913   25.8839 C   0  0  0  0  0  0  0  0  0  0  0  0
    6.2917  -13.5168   26.5188 N   0  0  0  0  0  0  0  0  0  0  0  0
    7.4363  -13.4991   27.2127 C   0  0  0  0  0  0  0  0  0  0  0  0
    8.0464  -12.5557   28.0374 C   0  0  0  0  0  0  0  0  0  0  0  0
    9.2637  -12.8028   28.6322 C   0  0  0  0  0  0  0  0  0  0  0  0
    9.9230  -13.9939   28.4318 C   0  0  0  0  0  0  0  0  0  0  0  0
    9.3225  -14.9273   27.6181 C   0  0  0  0  0  0  0  0  0  0  0  0
    8.1143  -14.6924   27.0244 C   0  0  0  0  0  0  0  0  0  0  0  0
    9.4896  -17.6816   24.4223 C   0  0  0  0  0  0  0  0  0  0  0  0
    9.3438  -18.9058   24.1908 O   0  0  0  0  0  0  0  0  0  0  0  0
   10.7855  -17.2078   24.7453 N   0  0  0  0  0  0  0  0  0  0  0  0
   11.2380  -15.9049   25.1181 C   0  0  0  0  0  0  0  0  0  0  0  0
   12.5901  -15.7925   24.4441 C   0  0  0  0  0  0  0  0  0  0  0  0
   12.9684  -17.1860   24.0029 C   0  0  0  0  0  0  0  0  0  0  0  0
   11.9646  -18.0619   24.7260 C   0  0  1  0  0  0  0  0  0  0  0  0
   12.4431  -18.3550   26.0939 C   0  0  0  0  0  0  0  0  0  0  0  0
   13.4505  -19.2646   26.3613 O   0  0  0  0  0  0  0  0  0  0  0  0
   11.9164  -17.7563   27.0570 O   0  0  0  0  0  0  0  0  0  0  0  0
  2  3  1  0
  2  1  1  1
  3  4  1  0
  4  9  2  0
  5  6  2  0
  5  4  1  0
  6  7  1  0
  7  8  2  0
  9  8  1  0
 10  2  1  0
 10 11  2  0
 12 10  1  0
 13 12  1  0
 13 14  1  1
 15 14  1  0
 15 23  1  0
 16 15  2  0
 17 16  1  0
 17 18  1  0
 18 19  1  0
 18 23  2  0
 19 20  2  0
 20 21  1  0
 22 21  2  0
 23 22  1  0
 24 13  1  0
 24 26  1  0
 25 24  2  0
 26 30  1  0
 27 26  1  0
 27 28  1  0
 28 29  1  0
 30 29  1  0
 31 32  1  0
 30 31  1  1
 33 31  2  0
M  END
$$$$
