FWP.pdb
     RDKit          3D

 33 36  0  0  1  0  0  0  0  0999 V2000
    7.2003  -18.1038   21.1254 N   0  0  0  0  0  0  0  0  0  0  0  0
    7.7546  -16.7604   21.0043 C   0  0  1  0  0  0  0  0  0  0  0  0
    6.6960  -15.7402   20.7376 C   0  0  0  0  0  0  0  0  0  0  0  0
    7.2437  -14.4113   20.4026 C   0  0  0  0  0  0  0  0  0  0  0  0
    7.8719  -14.2331   19.1871 C   0  0  0  0  0  0  0  0  0  0  0  0
    8.4082  -12.9893   18.8416 C   0  0  0  0  0  0  0  0  0  0  0  0
    8.3227  -11.9194   19.7008 C   0  0  0  0  0  0  0  0  0  0  0  0
    7.6934  -12.1121   20.9091 C   0  0  0  0  0  0  0  0  0  0  0  0
    7.1617  -13.3483   21.2495 C   0  0  0  0  0  0  0  0  0  0  0  0
    8.4644  -16.3893   22.2511 C   0  0  0  0  0  0  0  0  0  0  0  0
    9.2609  -15.4239   22.2289 O   0  0  0  0  0  0  0  0  0  0  0  0
    8.2824  -17.0812   23.4708 N   0  0  0  0  0  0  0  0  0  0  0  0
    9.0830  -16.7389   24.5979 C   0  0  1  0  0  0  0  0  0  0  0  0
    8.2612  -16.6601   25.8799 C   0  0  0  0  0  0  0  0  0  0  0  0
    7.3127  -15.5166   25.8752 C   0  0  0  0  0  0  0  0  0  0  0  0
    5.9324  -15.6479   25.6407 C   0  0  0  0  0  0  0  0  0  0  0  0
    5.3625  -14.4419   25.7427 N   0  0  0  0  0  0  0  0  0  0  0  0
    6.3202  -13.5518   26.0302 C   0  0  0  0  0  0  0  0  0  0  0  0
    6.3209  -12.1738   26.2388 C   0  0  0  0  0  0  0  0  0  0  0  0
    7.4841  -11.4909   26.5167 C   0  0  0  0  0  0  0  0  0  0  0  0
    8.6907  -12.1473   26.5977 C   0  0  0  0  0  0  0  0  0  0  0  0
    8.6927  -13.5081   26.3924 C   0  0  0  0  0  0  0  0  0  0  0  0
    7.5439  -14.1952   26.1175 C   0  0  0  0  0  0  0  0  0  0  0  0
   10.2155  -17.6647   24.8118 C   0  0  0  0  0  0  0  0  0  0  0  0
   10.1359  -18.7799   24.2429 O   0  0  0  0  0  0  0  0  0  0  0  0
   11.3637  -17.3899   25.5955 N   0  0  0  0  0  0  0  0  0  0  0  0
   11.7367  -16.2219   26.3289 C   0  0  0  0  0  0  0  0  0  0  0  0
   13.2364  -16.1416   26.1296 C   0  0  0  0  0  0  0  0  0  0  0  0
   13.6677  -17.4743   25.5662 C   0  0  0  0  0  0  0  0  0  0  0  0
   12.4461  -18.3479   25.7711 C   0  0  1  0  0  0  0  0  0  0  0  0
   12.4526  -18.9129   27.1373 C   0  0  0  0  0  0  0  0  0  0  0  0
   13.2814  -19.9526   27.5191 O   0  0  0  0  0  0  0  0  0  0  0  0
   11.6750  -18.4329   27.9909 O   0  0  0  0  0  0  0  0  0  0  0  0
  2  3  1  0
  2  1  1  1
  3  4  1  0
  4  9  2  0
  5  6  2  0
  5  4  1  0
  6  7  1  0
  7  8  2  0
  9  8  1  0
 10  2  1  0
 10 11  2  0
 12 10  1  0
 13 12  1  0
 13 14  1  1
 15 14  1  0
 15 23  1  0
 16 15  2  0
 17 16  1  0
 17 18  1  0
 18 19  1  0
 18 23  2  0
 19 20  2  0
 20 21  1  0
 22 21  2  0
 23 22  1  0
 24 13  1  0
 24 26  1  0
 25 24  2  0
 26 30  1  0
 27 26  1  0
 27 28  1  0
 28 29  1  0
 30 29  1  0
 31 32  1  0
 30 31  1  1
 33 31  2  0
M  END
$$$$
