GGM.pdb
     RDKit          3D

 17 16  0  0  1  0  0  0  0  0999 V2000
   19.0071  -11.0047  -18.9527 N   0  0  0  0  0  0  0  0  0  0  0  0
   19.1953   -9.8191  -18.1472 C   0  0  0  0  0  0  0  0  0  0  0  0
   20.5637   -9.2637  -18.3069 C   0  0  0  0  0  0  0  0  0  0  0  0
   20.8344   -8.3792  -19.1534 O   0  0  0  0  0  0  0  0  0  0  0  0
   21.5738   -9.7747  -17.4560 N   0  0  0  0  0  0  0  0  0  0  0  0
   22.9235   -9.3492  -17.6226 C   0  0  0  0  0  0  0  0  0  0  0  0
   23.1897   -8.0787  -16.8806 C   0  0  0  0  0  0  0  0  0  0  0  0
   24.3779   -7.6958  -16.8597 O   0  0  0  0  0  0  0  0  0  0  0  0
   20.1605   -3.0550  -18.0613 C   0  0  0  0  0  0  0  0  0  0  0  0
   21.9705   -2.9329  -18.2281 S   0  0  0  0  0  0  0  0  0  0  0  0
   22.7568   -4.3885  -17.4366 C   0  0  0  0  0  0  0  0  0  0  0  0
   21.8966   -4.8780  -16.3259 C   0  0  0  0  0  0  0  0  0  0  0  0
   22.4445   -6.0880  -15.5926 C   0  0  2  0  0  0  0  0  0  0  0  0
   22.2051   -7.3348  -16.2376 N   0  0  0  0  0  0  0  0  0  0  0  0
   21.9094   -6.0412  -14.2172 C   0  0  0  0  0  0  0  0  0  0  0  0
   22.2200   -5.0612  -13.2907 O   0  0  0  0  0  0  0  0  0  0  0  0
   21.1183   -6.9462  -13.8520 O   0  0  0  0  0  0  0  0  0  0  0  0
  1  2  1  0
  3  5  1  0
  3  2  1  0
  4  3  2  0
  6  5  1  0
  7  8  2  0
  7  6  1  0
 10 11  1  0
 10  9  1  0
 11 12  1  0
 13 12  1  6
 13 15  1  0
 13 14  1  0
 14  7  1  0
 15 16  1  0
 17 15  2  0
M  END
$$$$
