GGM.pdb
     RDKit          3D

 17 16  0  0  1  0  0  0  0  0999 V2000
   18.5214  -12.8978  -15.8102 N   0  0  0  0  0  0  0  0  0  0  0  0
   18.5740  -12.3406  -17.1430 C   0  0  0  0  0  0  0  0  0  0  0  0
   18.3837  -10.8675  -17.1254 C   0  0  0  0  0  0  0  0  0  0  0  0
   17.3198  -10.3328  -16.7325 O   0  0  0  0  0  0  0  0  0  0  0  0
   19.4636  -10.0692  -17.5753 N   0  0  0  0  0  0  0  0  0  0  0  0
   19.3337   -8.6505  -17.6015 C   0  0  0  0  0  0  0  0  0  0  0  0
   19.9378   -8.0255  -16.3848 C   0  0  0  0  0  0  0  0  0  0  0  0
   19.3274   -8.2144  -15.3122 O   0  0  0  0  0  0  0  0  0  0  0  0
   23.6973  -11.0614  -13.9776 C   0  0  0  0  0  0  0  0  0  0  0  0
   23.2562   -9.6963  -15.1004 S   0  0  0  0  0  0  0  0  0  0  0  0
   23.6992   -8.0964  -14.3209 C   0  0  0  0  0  0  0  0  0  0  0  0
   23.2499   -6.9762  -15.1907 C   0  0  0  0  0  0  0  0  0  0  0  0
   21.7467   -6.7734  -15.2285 C   0  0  2  0  0  0  0  0  0  0  0  0
   21.1072   -7.2714  -16.3993 N   0  0  0  0  0  0  0  0  0  0  0  0
   21.4968   -5.3352  -15.0057 C   0  0  0  0  0  0  0  0  0  0  0  0
   21.5708   -4.7110  -13.7728 O   0  0  0  0  0  0  0  0  0  0  0  0
   21.1961   -4.6202  -15.9939 O   0  0  0  0  0  0  0  0  0  0  0  0
  1  2  1  0
  3  5  1  0
  3  2  1  0
  4  3  2  0
  6  5  1  0
  7  8  2  0
  7  6  1  0
 10 11  1  0
 10  9  1  0
 11 12  1  0
 13 12  1  6
 13 15  1  0
 13 14  1  0
 14  7  1  0
 15 16  1  0
 17 15  2  0
M  END
$$$$
