GGM.pdb
     RDKit          3D

 17 16  0  0  1  0  0  0  0  0999 V2000
   26.6950  -22.5192  -16.8467 N   0  0  0  0  0  0  0  0  0  0  0  0
   25.8995  -22.1823  -15.6877 C   0  0  0  0  0  0  0  0  0  0  0  0
   26.6644  -21.3476  -14.7260 C   0  0  0  0  0  0  0  0  0  0  0  0
   27.4359  -20.4318  -15.0979 O   0  0  0  0  0  0  0  0  0  0  0  0
   26.4916  -21.6239  -13.3478 N   0  0  0  0  0  0  0  0  0  0  0  0
   26.4074  -20.5504  -12.4146 C   0  0  0  0  0  0  0  0  0  0  0  0
   26.2022  -21.0541  -11.0218 C   0  0  0  0  0  0  0  0  0  0  0  0
   25.3010  -21.9056  -10.8750 O   0  0  0  0  0  0  0  0  0  0  0  0
   29.4378  -20.1242   -4.7011 C   0  0  0  0  0  0  0  0  0  0  0  0
   27.9677  -19.1133   -5.0695 S   0  0  0  0  0  0  0  0  0  0  0  0
   26.8395  -20.0530   -6.1683 C   0  0  0  0  0  0  0  0  0  0  0  0
   27.2692  -19.8885   -7.5831 C   0  0  0  0  0  0  0  0  0  0  0  0
   26.5138  -20.7538   -8.5744 C   0  0  2  0  0  0  0  0  0  0  0  0
   26.9461  -20.6288   -9.9254 N   0  0  0  0  0  0  0  0  0  0  0  0
   25.0773  -20.4588   -8.4018 C   0  0  0  0  0  0  0  0  0  0  0  0
   24.3824  -19.5067   -9.1271 O   0  0  0  0  0  0  0  0  0  0  0  0
   24.4321  -21.1092   -7.5422 O   0  0  0  0  0  0  0  0  0  0  0  0
  1  2  1  0
  3  5  1  0
  3  2  1  0
  4  3  2  0
  6  5  1  0
  7  8  2  0
  7  6  1  0
 10 11  1  0
 10  9  1  0
 11 12  1  0
 13 12  1  1
 13 15  1  0
 13 14  1  0
 14  7  1  0
 15 16  1  0
 17 15  2  0
M  END
$$$$
