GGM.pdb
     RDKit          3D

 17 16  0  0  1  0  0  0  0  0999 V2000
   17.9245  -19.7401  -16.8812 N   0  0  0  0  0  0  0  0  0  0  0  0
   19.3400  -19.6972  -17.1715 C   0  0  0  0  0  0  0  0  0  0  0  0
   19.6149  -18.9662  -18.4351 C   0  0  0  0  0  0  0  0  0  0  0  0
   18.7101  -18.6765  -19.2533 O   0  0  0  0  0  0  0  0  0  0  0  0
   20.9583  -18.5992  -18.6921 N   0  0  0  0  0  0  0  0  0  0  0  0
   21.2942  -17.9498  -19.9152 C   0  0  0  0  0  0  0  0  0  0  0  0
   21.2368  -16.4622  -19.7759 C   0  0  0  0  0  0  0  0  0  0  0  0
   22.2254  -15.9246  -19.2350 O   0  0  0  0  0  0  0  0  0  0  0  0
   19.8803  -12.6014  -25.3991 C   0  0  0  0  0  0  0  0  0  0  0  0
   18.9487  -13.1661  -23.9389 S   0  0  0  0  0  0  0  0  0  0  0  0
   20.0338  -13.1078  -22.4615 C   0  0  0  0  0  0  0  0  0  0  0  0
   19.2949  -13.6265  -21.2790 C   0  0  0  0  0  0  0  0  0  0  0  0
   20.1739  -14.2591  -20.2163 C   0  0  2  0  0  0  0  0  0  0  0  0
   20.1678  -15.6831  -20.2079 N   0  0  0  0  0  0  0  0  0  0  0  0
   19.7756  -13.6759  -18.9196 C   0  0  0  0  0  0  0  0  0  0  0  0
   19.7546  -12.3193  -18.6464 O   0  0  0  0  0  0  0  0  0  0  0  0
   19.4306  -14.4530  -17.9948 O   0  0  0  0  0  0  0  0  0  0  0  0
  1  2  1  0
  3  5  1  0
  3  2  1  0
  4  3  2  0
  6  5  1  0
  7  8  2  0
  7  6  1  0
 10 11  1  0
 10  9  1  0
 11 12  1  0
 13 12  1  6
 13 15  1  0
 13 14  1  0
 14  7  1  0
 15 16  1  0
 17 15  2  0
M  END
$$$$
