GGM.pdb
     RDKit          3D

 17 16  0  0  1  0  0  0  0  0999 V2000
   24.1414  -22.5136  -13.7497 N   0  0  0  0  0  0  0  0  0  0  0  0
   24.7465  -21.2829  -14.2069 C   0  0  0  0  0  0  0  0  0  0  0  0
   25.6404  -20.6990  -13.1742 C   0  0  0  0  0  0  0  0  0  0  0  0
   25.2659  -19.7857  -12.4011 O   0  0  0  0  0  0  0  0  0  0  0  0
   26.9558  -21.2165  -13.0882 N   0  0  0  0  0  0  0  0  0  0  0  0
   27.8643  -20.6879  -12.1261 C   0  0  0  0  0  0  0  0  0  0  0  0
   27.4963  -21.1102  -10.7397 C   0  0  0  0  0  0  0  0  0  0  0  0
   27.6446  -22.3222  -10.4794 O   0  0  0  0  0  0  0  0  0  0  0  0
   29.6826  -19.4023   -5.0800 C   0  0  0  0  0  0  0  0  0  0  0  0
   27.9001  -19.2166   -4.7532 S   0  0  0  0  0  0  0  0  0  0  0  0
   26.9496  -20.2136   -5.9641 C   0  0  0  0  0  0  0  0  0  0  0  0
   27.3180  -19.8042   -7.3461 C   0  0  0  0  0  0  0  0  0  0  0  0
   26.6790  -20.6386   -8.4404 C   0  0  2  0  0  0  0  0  0  0  0  0
   27.0142  -20.2408   -9.7661 N   0  0  0  0  0  0  0  0  0  0  0  0
   25.2234  -20.6391   -8.1922 C   0  0  0  0  0  0  0  0  0  0  0  0
   24.5919  -21.4305   -7.2487 O   0  0  0  0  0  0  0  0  0  0  0  0
   24.4995  -19.8741   -8.8770 O   0  0  0  0  0  0  0  0  0  0  0  0
  1  2  1  0
  3  5  1  0
  3  2  1  0
  4  3  2  0
  6  5  1  0
  7  8  2  0
  7  6  1  0
 10 11  1  0
 10  9  1  0
 11 12  1  0
 13 12  1  1
 13 15  1  0
 13 14  1  0
 14  7  1  0
 15 16  1  0
 17 15  2  0
M  END
$$$$
