GGM.pdb
     RDKit          3D

 17 16  0  0  1  0  0  0  0  0999 V2000
   21.1149  -10.1557  -18.5978 N   0  0  0  0  0  0  0  0  0  0  0  0
   20.7268  -10.7796  -17.3529 C   0  0  0  0  0  0  0  0  0  0  0  0
   21.4265  -10.1663  -16.1950 C   0  0  0  0  0  0  0  0  0  0  0  0
   22.6722  -10.0285  -16.1597 O   0  0  0  0  0  0  0  0  0  0  0  0
   20.6263   -9.7331  -15.1098 N   0  0  0  0  0  0  0  0  0  0  0  0
   21.2375   -9.1150  -13.9806 C   0  0  0  0  0  0  0  0  0  0  0  0
   21.1295   -7.6253  -14.0501 C   0  0  0  0  0  0  0  0  0  0  0  0
   21.2075   -7.0196  -12.9611 O   0  0  0  0  0  0  0  0  0  0  0  0
   21.5895   -0.9120  -18.2280 C   0  0  0  0  0  0  0  0  0  0  0  0
   21.7465   -2.7268  -18.2009 S   0  0  0  0  0  0  0  0  0  0  0  0
   21.1527   -3.3676  -16.5884 C   0  0  0  0  0  0  0  0  0  0  0  0
   21.2958   -4.8481  -16.5565 C   0  0  0  0  0  0  0  0  0  0  0  0
   20.7694   -5.5036  -15.2934 C   0  0  2  0  0  0  0  0  0  0  0  0
   20.9525   -6.9145  -15.2332 N   0  0  0  0  0  0  0  0  0  0  0  0
   19.3555   -5.1019  -15.1525 C   0  0  0  0  0  0  0  0  0  0  0  0
   18.9312   -3.9423  -14.5274 O   0  0  0  0  0  0  0  0  0  0  0  0
   18.4694   -5.8549  -15.6279 O   0  0  0  0  0  0  0  0  0  0  0  0
  1  2  1  0
  3  5  1  0
  3  2  1  0
  4  3  2  0
  6  5  1  0
  7  8  2  0
  7  6  1  0
 10 11  1  0
 10  9  1  0
 11 12  1  0
 13 12  1  6
 13 15  1  0
 13 14  1  0
 14  7  1  0
 15 16  1  0
 17 15  2  0
M  END
$$$$
