GGM.pdb
     RDKit          3D

 17 16  0  0  1  0  0  0  0  0999 V2000
   20.3906  -22.2584  -13.3863 N   0  0  0  0  0  0  0  0  0  0  0  0
   20.8339  -21.2166  -12.4873 C   0  0  0  0  0  0  0  0  0  0  0  0
   22.3161  -21.1614  -12.4063 C   0  0  0  0  0  0  0  0  0  0  0  0
   22.9887  -22.0360  -11.8108 O   0  0  0  0  0  0  0  0  0  0  0  0
   22.9591  -20.0676  -13.0355 N   0  0  0  0  0  0  0  0  0  0  0  0
   24.3296  -20.1716  -13.4115 C   0  0  0  0  0  0  0  0  0  0  0  0
   25.2282  -19.6134  -12.3548 C   0  0  0  0  0  0  0  0  0  0  0  0
   25.9892  -18.6914  -12.7147 O   0  0  0  0  0  0  0  0  0  0  0  0
   28.4508  -19.5035   -5.1482 C   0  0  0  0  0  0  0  0  0  0  0  0
   26.9541  -19.8175   -6.1383 S   0  0  0  0  0  0  0  0  0  0  0  0
   27.4083  -19.9390   -7.9110 C   0  0  0  0  0  0  0  0  0  0  0  0
   26.1741  -19.9814   -8.7406 C   0  0  0  0  0  0  0  0  0  0  0  0
   26.4229  -20.1069  -10.2320 C   0  0  2  0  0  0  0  0  0  0  0  0
   25.2497  -20.0625  -11.0379 N   0  0  0  0  0  0  0  0  0  0  0  0
   27.2148  -21.3360  -10.4382 C   0  0  0  0  0  0  0  0  0  0  0  0
   26.6866  -22.5448  -10.8570 O   0  0  0  0  0  0  0  0  0  0  0  0
   28.4516  -21.2941  -10.2223 O   0  0  0  0  0  0  0  0  0  0  0  0
  1  2  1  0
  3  5  1  0
  3  2  1  0
  4  3  2  0
  6  5  1  0
  7  8  2  0
  7  6  1  0
 10 11  1  0
 10  9  1  0
 11 12  1  0
 13 12  1  1
 13 15  1  0
 13 14  1  0
 14  7  1  0
 15 16  1  0
 17 15  2  0
M  END
$$$$
