GGM.pdb
     RDKit          3D

 17 16  0  0  1  0  0  0  0  0999 V2000
   25.9721  -21.9237  -15.3363 N   0  0  0  0  0  0  0  0  0  0  0  0
   26.3945  -22.1257  -13.9686 C   0  0  0  0  0  0  0  0  0  0  0  0
   25.5451  -21.3632  -13.0180 C   0  0  0  0  0  0  0  0  0  0  0  0
   24.2925  -21.4064  -13.0539 O   0  0  0  0  0  0  0  0  0  0  0  0
   26.2076  -20.5696  -12.0501 N   0  0  0  0  0  0  0  0  0  0  0  0
   25.4484  -19.8585  -11.0762 C   0  0  0  0  0  0  0  0  0  0  0  0
   25.7432  -20.3456   -9.6936 C   0  0  0  0  0  0  0  0  0  0  0  0
   24.8036  -20.2702   -8.8749 O   0  0  0  0  0  0  0  0  0  0  0  0
   29.2494  -18.9090   -4.0874 C   0  0  0  0  0  0  0  0  0  0  0  0
   28.3030  -19.9534   -5.2416 S   0  0  0  0  0  0  0  0  0  0  0  0
   29.4535  -20.7584   -6.4213 C   0  0  0  0  0  0  0  0  0  0  0  0
   28.9368  -20.6020   -7.8077 C   0  0  0  0  0  0  0  0  0  0  0  0
   27.4467  -20.8469   -7.9547 C   0  0  2  0  0  0  0  0  0  0  0  0
   26.9743  -20.8595   -9.2981 N   0  0  0  0  0  0  0  0  0  0  0  0
   26.7574  -19.8483   -7.1133 C   0  0  0  0  0  0  0  0  0  0  0  0
   26.8823  -18.4785   -7.2653 O   0  0  0  0  0  0  0  0  0  0  0  0
   26.0045  -20.2576   -6.1947 O   0  0  0  0  0  0  0  0  0  0  0  0
  1  2  1  0
  3  5  1  0
  3  2  1  0
  4  3  2  0
  6  5  1  0
  7  8  2  0
  7  6  1  0
 10 11  1  0
 10  9  1  0
 11 12  1  0
 13 12  1  6
 13 15  1  0
 13 14  1  0
 14  7  1  0
 15 16  1  0
 17 15  2  0
M  END
$$$$
