GGM.pdb
     RDKit          3D

 17 16  0  0  1  0  0  0  0  0999 V2000
   23.8212  -21.9507  -14.9932 N   0  0  0  0  0  0  0  0  0  0  0  0
   23.4591  -20.7674  -14.2461 C   0  0  0  0  0  0  0  0  0  0  0  0
   24.5764  -20.3047  -13.3836 C   0  0  0  0  0  0  0  0  0  0  0  0
   24.4443  -19.3704  -12.5579 O   0  0  0  0  0  0  0  0  0  0  0  0
   25.8211  -20.9651  -13.5258 N   0  0  0  0  0  0  0  0  0  0  0  0
   26.9400  -20.5435  -12.7508 C   0  0  0  0  0  0  0  0  0  0  0  0
   26.8272  -21.0072  -11.3338 C   0  0  0  0  0  0  0  0  0  0  0  0
   26.9723  -22.2329  -11.1459 O   0  0  0  0  0  0  0  0  0  0  0  0
   28.0764  -19.5860   -3.7143 C   0  0  0  0  0  0  0  0  0  0  0  0
   28.1151  -18.9948   -5.4370 S   0  0  0  0  0  0  0  0  0  0  0  0
   27.1893  -20.1632   -6.5052 C   0  0  0  0  0  0  0  0  0  0  0  0
   27.2782  -19.7209   -7.9228 C   0  0  0  0  0  0  0  0  0  0  0  0
   26.5168  -20.5938   -8.9028 C   0  0  2  0  0  0  0  0  0  0  0  0
   26.5767  -20.1608  -10.2580 N   0  0  0  0  0  0  0  0  0  0  0  0
   25.1340  -20.7094   -8.3978 C   0  0  0  0  0  0  0  0  0  0  0  0
   24.7685  -21.4407   -7.2811 O   0  0  0  0  0  0  0  0  0  0  0  0
   24.2197  -20.1081   -9.0147 O   0  0  0  0  0  0  0  0  0  0  0  0
  1  2  1  0
  3  5  1  0
  3  2  1  0
  4  3  2  0
  6  5  1  0
  7  8  2  0
  7  6  1  0
 10 11  1  0
 10  9  1  0
 11 12  1  0
 13 12  1  1
 13 15  1  0
 13 14  1  0
 14  7  1  0
 15 16  1  0
 17 15  2  0
M  END
$$$$
