GGM.pdb
     RDKit          3D

 17 16  0  0  1  0  0  0  0  0999 V2000
   18.3371  -15.2007  -16.1077 N   0  0  0  0  0  0  0  0  0  0  0  0
   18.4882  -13.9965  -16.8931 C   0  0  0  0  0  0  0  0  0  0  0  0
   19.0284  -12.8786  -16.0777 C   0  0  0  0  0  0  0  0  0  0  0  0
   18.7551  -12.7418  -14.8616 O   0  0  0  0  0  0  0  0  0  0  0  0
   19.8790  -11.9530  -16.7297 N   0  0  0  0  0  0  0  0  0  0  0  0
   20.4095  -10.8460  -16.0061 C   0  0  0  0  0  0  0  0  0  0  0  0
   19.9040   -9.5477  -16.5487 C   0  0  0  0  0  0  0  0  0  0  0  0
   20.1578   -9.3206  -17.7498 O   0  0  0  0  0  0  0  0  0  0  0  0
   14.6851   -3.6419  -16.2675 C   0  0  0  0  0  0  0  0  0  0  0  0
   15.4016   -5.0863  -15.4195 S   0  0  0  0  0  0  0  0  0  0  0  0
   16.9668   -5.5662  -16.2462 C   0  0  0  0  0  0  0  0  0  0  0  0
   17.4269   -6.8794  -15.7199 C   0  0  0  0  0  0  0  0  0  0  0  0
   18.7407   -7.3651  -16.3030 C   0  0  2  0  0  0  0  0  0  0  0  0
   19.1898   -8.6187  -15.7982 N   0  0  0  0  0  0  0  0  0  0  0  0
   19.7270   -6.2829  -16.1122 C   0  0  0  0  0  0  0  0  0  0  0  0
   19.9171   -5.2342  -16.9950 O   0  0  0  0  0  0  0  0  0  0  0  0
   20.4476   -6.3049  -15.0833 O   0  0  0  0  0  0  0  0  0  0  0  0
  1  2  1  0
  3  5  1  0
  3  2  1  0
  4  3  2  0
  6  5  1  0
  7  8  2  0
  7  6  1  0
 10 11  1  0
 10  9  1  0
 11 12  1  0
 13 12  1  1
 13 15  1  0
 13 14  1  0
 14  7  1  0
 15 16  1  0
 17 15  2  0
M  END
$$$$
