GGM.pdb
     RDKit          3D

 17 16  0  0  1  0  0  0  0  0999 V2000
   19.6862  -22.4267  -10.7493 N   0  0  0  0  0  0  0  0  0  0  0  0
   20.1862  -21.1438  -11.1895 C   0  0  0  0  0  0  0  0  0  0  0  0
   21.3840  -21.2939  -12.0552 C   0  0  0  0  0  0  0  0  0  0  0  0
   21.9351  -22.4028  -12.2519 O   0  0  0  0  0  0  0  0  0  0  0  0
   21.8945  -20.1216  -12.6639 N   0  0  0  0  0  0  0  0  0  0  0  0
   22.9605  -20.2179  -13.6046 C   0  0  0  0  0  0  0  0  0  0  0  0
   24.2853  -19.9813  -12.9529 C   0  0  0  0  0  0  0  0  0  0  0  0
   25.0509  -19.1896  -13.5410 O   0  0  0  0  0  0  0  0  0  0  0  0
   26.6996  -19.2539   -6.7042 C   0  0  0  0  0  0  0  0  0  0  0  0
   27.4575  -20.7652   -7.3826 S   0  0  0  0  0  0  0  0  0  0  0  0
   27.5025  -20.6578   -9.2129 C   0  0  0  0  0  0  0  0  0  0  0  0
   26.1203  -20.7628   -9.7531 C   0  0  0  0  0  0  0  0  0  0  0  0
   26.0095  -20.5250  -11.2475 C   0  0  2  0  0  0  0  0  0  0  0  0
   24.6837  -20.5843  -11.7639 N   0  0  0  0  0  0  0  0  0  0  0  0
   26.9257  -21.4763  -11.9077 C   0  0  0  0  0  0  0  0  0  0  0  0
   28.2781  -21.2539  -12.0991 O   0  0  0  0  0  0  0  0  0  0  0  0
   26.4578  -22.5638  -12.3279 O   0  0  0  0  0  0  0  0  0  0  0  0
  1  2  1  0
  3  5  1  0
  3  2  1  0
  4  3  2  0
  6  5  1  0
  7  8  2  0
  7  6  1  0
 10 11  1  0
 10  9  1  0
 11 12  1  0
 13 12  1  1
 13 15  1  0
 13 14  1  0
 14  7  1  0
 15 16  1  0
 17 15  2  0
M  END
$$$$
