GGM.pdb
     RDKit          3D

 17 16  0  0  1  0  0  0  0  0999 V2000
   26.5392  -20.5456  -17.0523 N   0  0  0  0  0  0  0  0  0  0  0  0
   25.9167  -20.7900  -15.7707 C   0  0  0  0  0  0  0  0  0  0  0  0
   26.6093  -20.0569  -14.6801 C   0  0  0  0  0  0  0  0  0  0  0  0
   27.2818  -19.0197  -14.8903 O   0  0  0  0  0  0  0  0  0  0  0  0
   26.4839  -20.5765  -13.3687 N   0  0  0  0  0  0  0  0  0  0  0  0
   26.7142  -19.7301  -12.2457 C   0  0  0  0  0  0  0  0  0  0  0  0
   26.5942  -20.4851  -10.9607 C   0  0  0  0  0  0  0  0  0  0  0  0
   26.1793  -21.6591  -11.0524 O   0  0  0  0  0  0  0  0  0  0  0  0
   29.6256  -19.4184   -5.2754 C   0  0  0  0  0  0  0  0  0  0  0  0
   27.9852  -19.8918   -4.6399 S   0  0  0  0  0  0  0  0  0  0  0  0
   27.0110  -20.6720   -5.9837 C   0  0  0  0  0  0  0  0  0  0  0  0
   27.2562  -19.9505   -7.2614 C   0  0  0  0  0  0  0  0  0  0  0  0
   26.6109  -20.5883   -8.4775 C   0  0  2  0  0  0  0  0  0  0  0  0
   26.9139  -19.9529   -9.7154 N   0  0  0  0  0  0  0  0  0  0  0  0
   25.1605  -20.6629   -8.2106 C   0  0  0  0  0  0  0  0  0  0  0  0
   24.5623  -21.6152   -7.4041 O   0  0  0  0  0  0  0  0  0  0  0  0
   24.4092  -19.8101   -8.7458 O   0  0  0  0  0  0  0  0  0  0  0  0
  1  2  1  0
  3  5  1  0
  3  2  1  0
  4  3  2  0
  6  5  1  0
  7  8  2  0
  7  6  1  0
 10 11  1  0
 10  9  1  0
 11 12  1  0
 13 12  1  1
 13 15  1  0
 13 14  1  0
 14  7  1  0
 15 16  1  0
 17 15  2  0
M  END
$$$$
