GGM.pdb
     RDKit          3D

 17 16  0  0  1  0  0  0  0  0999 V2000
   23.1513  -21.0116  -15.5379 N   0  0  0  0  0  0  0  0  0  0  0  0
   22.9612  -20.9039  -14.1090 C   0  0  0  0  0  0  0  0  0  0  0  0
   24.1739  -20.3709  -13.4369 C   0  0  0  0  0  0  0  0  0  0  0  0
   24.2018  -19.2364  -12.9036 O   0  0  0  0  0  0  0  0  0  0  0  0
   25.3212  -21.2009  -13.4168 N   0  0  0  0  0  0  0  0  0  0  0  0
   26.4958  -20.7705  -12.7343 C   0  0  0  0  0  0  0  0  0  0  0  0
   26.4448  -21.1282  -11.2834 C   0  0  0  0  0  0  0  0  0  0  0  0
   26.3534  -22.3458  -11.0229 O   0  0  0  0  0  0  0  0  0  0  0  0
   28.4836  -19.2671   -3.8828 C   0  0  0  0  0  0  0  0  0  0  0  0
   28.3997  -18.7753   -5.6349 S   0  0  0  0  0  0  0  0  0  0  0  0
   27.3535  -19.9679   -6.5551 C   0  0  0  0  0  0  0  0  0  0  0  0
   27.3197  -19.5948   -7.9949 C   0  0  0  0  0  0  0  0  0  0  0  0
   26.5158  -20.5381   -8.8701 C   0  0  2  0  0  0  0  0  0  0  0  0
   26.4931  -20.1953  -10.2521 N   0  0  0  0  0  0  0  0  0  0  0  0
   25.1656  -20.6333   -8.2802 C   0  0  0  0  0  0  0  0  0  0  0  0
   24.8661  -21.3296   -7.1223 O   0  0  0  0  0  0  0  0  0  0  0  0
   24.2172  -20.0472   -8.8591 O   0  0  0  0  0  0  0  0  0  0  0  0
  1  2  1  0
  3  5  1  0
  3  2  1  0
  4  3  2  0
  6  5  1  0
  7  8  2  0
  7  6  1  0
 10 11  1  0
 10  9  1  0
 11 12  1  0
 13 12  1  1
 13 15  1  0
 13 14  1  0
 14  7  1  0
 15 16  1  0
 17 15  2  0
M  END
$$$$
