GGM.pdb
     RDKit          3D

 17 16  0  0  1  0  0  0  0  0999 V2000
   23.7773  -22.0300  -14.6606 N   0  0  0  0  0  0  0  0  0  0  0  0
   23.2035  -20.9249  -13.9264 C   0  0  0  0  0  0  0  0  0  0  0  0
   24.2174  -20.2521  -13.0743 C   0  0  0  0  0  0  0  0  0  0  0  0
   23.9579  -19.2212  -12.4095 O   0  0  0  0  0  0  0  0  0  0  0  0
   25.5128  -20.8230  -13.0355 N   0  0  0  0  0  0  0  0  0  0  0  0
   26.5287  -20.2221  -12.2371 C   0  0  0  0  0  0  0  0  0  0  0  0
   26.5681  -20.8179  -10.8663 C   0  0  0  0  0  0  0  0  0  0  0  0
   26.4714  -22.0612  -10.8070 O   0  0  0  0  0  0  0  0  0  0  0  0
   27.7245  -17.9291   -4.4653 C   0  0  0  0  0  0  0  0  0  0  0  0
   28.6938  -19.3931   -4.9510 S   0  0  0  0  0  0  0  0  0  0  0  0
   27.6814  -20.4609   -6.0457 C   0  0  0  0  0  0  0  0  0  0  0  0
   27.6065  -19.8557   -7.4027 C   0  0  0  0  0  0  0  0  0  0  0  0
   26.7687  -20.6397   -8.3954 C   0  0  2  0  0  0  0  0  0  0  0  0
   26.7028  -20.0716   -9.6996 N   0  0  0  0  0  0  0  0  0  0  0  0
   25.4379  -20.8311   -7.7849 C   0  0  0  0  0  0  0  0  0  0  0  0
   24.2663  -20.2827   -8.2768 O   0  0  0  0  0  0  0  0  0  0  0  0
   25.3508  -21.5371   -6.7495 O   0  0  0  0  0  0  0  0  0  0  0  0
  1  2  1  0
  3  5  1  0
  3  2  1  0
  4  3  2  0
  6  5  1  0
  7  8  2  0
  7  6  1  0
 10 11  1  0
 10  9  1  0
 11 12  1  0
 13 12  1  1
 13 15  1  0
 13 14  1  0
 14  7  1  0
 15 16  1  0
 17 15  2  0
M  END
$$$$
