WPL.pdb
     RDKit          3D

 30 32  0  0  1  0  0  0  0  0999 V2000
   27.5464  -18.8364  -14.3915 N   0  0  0  0  0  0  0  0  0  0  0  0
   26.8669  -19.9438  -13.8019 C   0  0  1  0  0  0  0  0  0  0  0  0
   26.6645  -19.7596  -12.3114 C   0  0  0  0  0  0  0  0  0  0  0  0
   27.6837  -20.3690  -11.4670 C   0  0  0  0  0  0  0  0  0  0  0  0
   28.8573  -20.9366  -11.9648 C   0  0  0  0  0  0  0  0  0  0  0  0
   29.6101  -21.3887  -10.9748 N   0  0  0  0  0  0  0  0  0  0  0  0
   28.9519  -21.1303   -9.8139 C   0  0  0  0  0  0  0  0  0  0  0  0
   29.2829  -21.3943   -8.5087 C   0  0  0  0  0  0  0  0  0  0  0  0
   28.4252  -21.0317   -7.4949 C   0  0  0  0  0  0  0  0  0  0  0  0
   27.2406  -20.4080   -7.7748 C   0  0  0  0  0  0  0  0  0  0  0  0
   26.8993  -20.1390   -9.0720 C   0  0  0  0  0  0  0  0  0  0  0  0
   27.7484  -20.4949  -10.1035 C   0  0  0  0  0  0  0  0  0  0  0  0
   25.6727  -20.4289  -14.5018 C   0  0  0  0  0  0  0  0  0  0  0  0
   24.8523  -19.5649  -14.9367 O   0  0  0  0  0  0  0  0  0  0  0  0
   25.4522  -21.7986  -14.6802 N   0  0  0  0  0  0  0  0  0  0  0  0
   26.3032  -22.8741  -14.2535 C   0  0  0  0  0  0  0  0  0  0  0  0
   25.6624  -24.1529  -14.7556 C   0  0  0  0  0  0  0  0  0  0  0  0
   24.8333  -23.6666  -15.9214 C   0  0  0  0  0  0  0  0  0  0  0  0
   24.2898  -22.3605  -15.3539 C   0  0  1  0  0  0  0  0  0  0  0  0
   23.2286  -22.7205  -14.3814 C   0  0  0  0  0  0  0  0  0  0  0  0
   23.5508  -23.4403  -13.3896 O   0  0  0  0  0  0  0  0  0  0  0  0
   21.9920  -19.6117  -10.4546 C   0  0  0  0  0  0  0  0  0  0  0  0
   21.0334  -20.6177  -11.2053 C   0  0  1  0  0  0  0  0  0  0  0  0
   19.7641  -19.7853  -11.4624 C   0  0  0  0  0  0  0  0  0  0  0  0
   21.7211  -21.0598  -12.4397 C   0  0  0  0  0  0  0  0  0  0  0  0
   21.0358  -22.0218  -13.3003 C   0  0  2  0  0  0  0  0  0  0  0  0
   21.8913  -22.3180  -14.4844 N   0  0  0  0  0  0  0  0  0  0  0  0
   19.6845  -21.7407  -13.6951 C   0  0  0  0  0  0  0  0  0  0  0  0
   18.5948  -22.3098  -13.0130 O   0  0  0  0  0  0  0  0  0  0  0  0
   19.4060  -20.9827  -14.6567 O   0  0  0  0  0  0  0  0  0  0  0  0
  2  1  1  6
  2  3  1  0
  3  4  1  0
  4 12  1  0
  4  5  2  0
  5  6  1  0
  7  8  2  0
  7  6  1  0
  9  8  1  0
 10  9  2  0
 11 10  1  0
 11 12  2  0
 12  7  1  0
 13  2  1  0
 13 14  2  0
 15 16  1  0
 15 13  1  0
 17 16  1  0
 18 17  1  0
 18 19  1  0
 19 15  1  0
 19 20  1  1
 20 27  1  0
 21 20  2  0
 23 22  1  1
 23 25  1  0
 24 23  1  0
 26 25  1  6
 26 27  1  0
 26 28  1  0
 28 29  1  0
 30 28  2  0
M  END
$$$$
