WPL.pdb
     RDKit          3D

 30 32  0  0  1  0  0  0  0  0999 V2000
   24.5481  -22.4296  -14.9087 N   0  0  0  0  0  0  0  0  0  0  0  0
   24.6585  -21.8986  -13.5890 C   0  0  1  0  0  0  0  0  0  0  0  0
   23.4202  -22.1728  -12.7595 C   0  0  0  0  0  0  0  0  0  0  0  0
   22.3018  -21.2695  -12.9972 C   0  0  0  0  0  0  0  0  0  0  0  0
   21.6694  -21.1363  -14.2340 C   0  0  0  0  0  0  0  0  0  0  0  0
   20.6726  -20.2694  -14.1542 N   0  0  0  0  0  0  0  0  0  0  0  0
   20.6296  -19.8174  -12.8730 C   0  0  0  0  0  0  0  0  0  0  0  0
   19.8002  -18.9115  -12.2612 C   0  0  0  0  0  0  0  0  0  0  0  0
   19.9711  -18.6138  -10.9281 C   0  0  0  0  0  0  0  0  0  0  0  0
   20.9631  -19.2136  -10.2024 C   0  0  0  0  0  0  0  0  0  0  0  0
   21.7963  -20.1188  -10.8008 C   0  0  0  0  0  0  0  0  0  0  0  0
   21.6394  -20.4311  -12.1385 C   0  0  0  0  0  0  0  0  0  0  0  0
   25.9133  -22.1646  -12.8776 C   0  0  0  0  0  0  0  0  0  0  0  0
   26.1539  -23.3615  -12.5336 O   0  0  0  0  0  0  0  0  0  0  0  0
   26.8095  -21.1296  -12.5915 N   0  0  0  0  0  0  0  0  0  0  0  0
   26.8516  -19.8294  -13.2006 C   0  0  0  0  0  0  0  0  0  0  0  0
   28.0487  -19.1154  -12.6046 C   0  0  0  0  0  0  0  0  0  0  0  0
   28.9251  -20.2630  -12.1598 C   0  0  0  0  0  0  0  0  0  0  0  0
   27.8758  -21.2184  -11.6036 C   0  0  1  0  0  0  0  0  0  0  0  0
   27.4415  -20.6692  -10.2955 C   0  0  0  0  0  0  0  0  0  0  0  0
   26.2505  -20.2491  -10.1932 O   0  0  0  0  0  0  0  0  0  0  0  0
   28.5400  -21.6633   -4.7508 C   0  0  0  0  0  0  0  0  0  0  0  0
   28.4517  -20.2248   -5.3967 C   0  0  1  0  0  0  0  0  0  0  0  0
   29.4589  -19.3973   -4.5777 C   0  0  0  0  0  0  0  0  0  0  0  0
   28.8035  -20.3512   -6.8293 C   0  0  0  0  0  0  0  0  0  0  0  0
   27.7387  -20.6919   -7.7703 C   0  0  2  0  0  0  0  0  0  0  0  0
   28.2600  -20.5831   -9.1624 N   0  0  0  0  0  0  0  0  0  0  0  0
   26.4736  -20.0262   -7.6376 C   0  0  0  0  0  0  0  0  0  0  0  0
   25.3431  -20.7049   -7.1499 O   0  0  0  0  0  0  0  0  0  0  0  0
   26.3102  -18.8199   -7.9451 O   0  0  0  0  0  0  0  0  0  0  0  0
  2  1  1  6
  2  3  1  0
  3  4  1  0
  4 12  1  0
  4  5  2  0
  5  6  1  0
  7  8  2  0
  7  6  1  0
  9  8  1  0
 10  9  2  0
 11 10  1  0
 11 12  2  0
 12  7  1  0
 13  2  1  0
 13 14  2  0
 15 16  1  0
 15 13  1  0
 17 16  1  0
 18 17  1  0
 18 19  1  0
 19 15  1  0
 19 20  1  1
 20 27  1  0
 21 20  2  0
 23 22  1  1
 23 25  1  0
 24 23  1  0
 26 25  1  1
 26 27  1  0
 26 28  1  0
 28 29  1  0
 30 28  2  0
M  END
$$$$
