WPL.pdb
     RDKit          3D

 30 32  0  0  1  0  0  0  0  0999 V2000
   24.5422  -19.4195   -9.3259 N   0  0  0  0  0  0  0  0  0  0  0  0
   25.8719  -19.7579   -9.7170 C   0  0  1  0  0  0  0  0  0  0  0  0
   26.4199  -20.9254   -8.9212 C   0  0  0  0  0  0  0  0  0  0  0  0
   26.4277  -20.7417   -7.4757 C   0  0  0  0  0  0  0  0  0  0  0  0
   25.3667  -21.1097   -6.6472 C   0  0  0  0  0  0  0  0  0  0  0  0
   25.6563  -20.8536   -5.3816 N   0  0  0  0  0  0  0  0  0  0  0  0
   26.9041  -20.3154   -5.3516 C   0  0  0  0  0  0  0  0  0  0  0  0
   27.6722  -19.8707   -4.3051 C   0  0  0  0  0  0  0  0  0  0  0  0
   28.9243  -19.3509   -4.5434 C   0  0  0  0  0  0  0  0  0  0  0  0
   29.4145  -19.2720   -5.8178 C   0  0  0  0  0  0  0  0  0  0  0  0
   28.6586  -19.7124   -6.8696 C   0  0  0  0  0  0  0  0  0  0  0  0
   27.3990  -20.2383   -6.6497 C   0  0  0  0  0  0  0  0  0  0  0  0
   26.1267  -19.8577  -11.1580 C   0  0  0  0  0  0  0  0  0  0  0  0
   25.1972  -19.5077  -11.9468 O   0  0  0  0  0  0  0  0  0  0  0  0
   27.3547  -20.3233  -11.6393 N   0  0  0  0  0  0  0  0  0  0  0  0
   28.3020  -21.1455  -10.9393 C   0  0  0  0  0  0  0  0  0  0  0  0
   29.4963  -21.3018  -11.8597 C   0  0  0  0  0  0  0  0  0  0  0  0
   29.3869  -20.0833  -12.7464 C   0  0  0  0  0  0  0  0  0  0  0  0
   27.8794  -20.0302  -12.9657 C   0  0  1  0  0  0  0  0  0  0  0  0
   27.5442  -21.1109  -13.9255 C   0  0  0  0  0  0  0  0  0  0  0  0
   27.5128  -22.3014  -13.4928 O   0  0  0  0  0  0  0  0  0  0  0  0
   23.4130  -20.5222  -17.3037 C   0  0  0  0  0  0  0  0  0  0  0  0
   24.4223  -21.1259  -16.2496 C   0  0  1  0  0  0  0  0  0  0  0  0
   23.6545  -22.3209  -15.6558 C   0  0  0  0  0  0  0  0  0  0  0  0
   25.6567  -21.5058  -16.9734 C   0  0  0  0  0  0  0  0  0  0  0  0
   26.7909  -21.9900  -16.1894 C   0  0  2  0  0  0  0  0  0  0  0  0
   27.2591  -20.9049  -15.2810 N   0  0  0  0  0  0  0  0  0  0  0  0
   27.8919  -22.5938  -16.8853 C   0  0  0  0  0  0  0  0  0  0  0  0
   27.7760  -23.8723  -17.4583 O   0  0  0  0  0  0  0  0  0  0  0  0
   29.0016  -22.0217  -17.0182 O   0  0  0  0  0  0  0  0  0  0  0  0
  2  1  1  6
  2  3  1  0
  3  4  1  0
  4 12  1  0
  4  5  2  0
  5  6  1  0
  7  8  2  0
  7  6  1  0
  9  8  1  0
 10  9  2  0
 11 10  1  0
 11 12  2  0
 12  7  1  0
 13  2  1  0
 13 14  2  0
 15 16  1  0
 15 13  1  0
 17 16  1  0
 18 17  1  0
 18 19  1  0
 19 15  1  0
 19 20  1  6
 20 27  1  0
 21 20  2  0
 23 22  1  6
 23 25  1  0
 24 23  1  0
 26 25  1  6
 26 27  1  0
 26 28  1  0
 28 29  1  0
 30 28  2  0
M  END
$$$$
