WPL.pdb
     RDKit          3D

 30 32  0  0  1  0  0  0  0  0999 V2000
   23.8948  -21.9993  -14.0287 N   0  0  0  0  0  0  0  0  0  0  0  0
   24.6684  -21.0740  -13.2665 C   0  0  1  0  0  0  0  0  0  0  0  0
   23.8119  -19.9840  -12.6544 C   0  0  0  0  0  0  0  0  0  0  0  0
   23.1777  -19.0839  -13.6088 C   0  0  0  0  0  0  0  0  0  0  0  0
   21.8191  -19.1295  -13.9244 C   0  0  0  0  0  0  0  0  0  0  0  0
   21.5136  -18.1823  -14.7966 N   0  0  0  0  0  0  0  0  0  0  0  0
   22.6565  -17.4997  -15.0713 C   0  0  0  0  0  0  0  0  0  0  0  0
   22.8967  -16.4373  -15.9059 C   0  0  0  0  0  0  0  0  0  0  0  0
   24.1688  -15.9229  -16.0155 C   0  0  0  0  0  0  0  0  0  0  0  0
   25.2016  -16.4612  -15.2984 C   0  0  0  0  0  0  0  0  0  0  0  0
   24.9749  -17.5202  -14.4626 C   0  0  0  0  0  0  0  0  0  0  0  0
   23.7038  -18.0498  -14.3389 C   0  0  0  0  0  0  0  0  0  0  0  0
   25.6453  -21.6469  -12.3343 C   0  0  0  0  0  0  0  0  0  0  0  0
   25.3914  -22.7877  -11.8415 O   0  0  0  0  0  0  0  0  0  0  0  0
   26.8147  -20.9541  -12.0046 N   0  0  0  0  0  0  0  0  0  0  0  0
   27.2845  -19.7263  -12.5834 C   0  0  0  0  0  0  0  0  0  0  0  0
   28.6284  -19.4376  -11.9441 C   0  0  0  0  0  0  0  0  0  0  0  0
   29.0824  -20.8100  -11.5047 C   0  0  0  0  0  0  0  0  0  0  0  0
   27.7686  -21.3904  -10.9945 C   0  0  1  0  0  0  0  0  0  0  0  0
   27.4930  -20.7498   -9.6848 C   0  0  0  0  0  0  0  0  0  0  0  0
   26.6983  -19.7632   -9.6614 O   0  0  0  0  0  0  0  0  0  0  0  0
   29.5231  -21.2241   -3.8423 C   0  0  0  0  0  0  0  0  0  0  0  0
   28.4095  -20.5579   -4.7425 C   0  0  1  0  0  0  0  0  0  0  0  0
   28.6607  -19.0486   -4.5719 C   0  0  0  0  0  0  0  0  0  0  0  0
   28.5985  -21.0447   -6.1279 C   0  0  0  0  0  0  0  0  0  0  0  0
   27.6755  -20.5672   -7.1553 C   0  0  2  0  0  0  0  0  0  0  0  0
   28.0525  -21.1619   -8.4690 N   0  0  0  0  0  0  0  0  0  0  0  0
   27.4571  -19.1530   -7.2706 C   0  0  0  0  0  0  0  0  0  0  0  0
   26.2693  -18.5610   -6.8068 O   0  0  0  0  0  0  0  0  0  0  0  0
   28.3021  -18.3792   -7.7843 O   0  0  0  0  0  0  0  0  0  0  0  0
  2  1  1  1
  2  3  1  0
  3  4  1  0
  4 12  1  0
  4  5  2  0
  5  6  1  0
  7  8  2  0
  7  6  1  0
  9  8  1  0
 10  9  2  0
 11 10  1  0
 11 12  2  0
 12  7  1  0
 13  2  1  0
 13 14  2  0
 15 16  1  0
 15 13  1  0
 17 16  1  0
 18 17  1  0
 18 19  1  0
 19 15  1  0
 19 20  1  1
 20 27  1  0
 21 20  2  0
 23 22  1  1
 23 25  1  0
 24 23  1  0
 26 25  1  1
 26 27  1  0
 26 28  1  0
 28 29  1  0
 30 28  2  0
M  END
$$$$
