WPL.pdb
     RDKit          3D

 30 32  0  0  1  0  0  0  0  0999 V2000
   24.5313  -22.0098  -14.1680 N   0  0  0  0  0  0  0  0  0  0  0  0
   25.2371  -21.1188  -13.3056 C   0  0  1  0  0  0  0  0  0  0  0  0
   24.3024  -20.1853  -12.5630 C   0  0  0  0  0  0  0  0  0  0  0  0
   23.4648  -19.3444  -13.4084 C   0  0  0  0  0  0  0  0  0  0  0  0
   22.0950  -19.5481  -13.5808 C   0  0  0  0  0  0  0  0  0  0  0  0
   21.5851  -18.6224  -14.3773 N   0  0  0  0  0  0  0  0  0  0  0  0
   22.6014  -17.7971  -14.7429 C   0  0  0  0  0  0  0  0  0  0  0  0
   22.6204  -16.6910  -15.5547 C   0  0  0  0  0  0  0  0  0  0  0  0
   23.8024  -16.0212  -15.7766 C   0  0  0  0  0  0  0  0  0  0  0  0
   24.9642  -16.4476  -15.1945 C   0  0  0  0  0  0  0  0  0  0  0  0
   24.9583  -17.5489  -14.3828 C   0  0  0  0  0  0  0  0  0  0  0  0
   23.7806  -18.2340  -14.1475 C   0  0  0  0  0  0  0  0  0  0  0  0
   26.2731  -21.7129  -12.4541 C   0  0  0  0  0  0  0  0  0  0  0  0
   26.0709  -22.8831  -12.0088 O   0  0  0  0  0  0  0  0  0  0  0  0
   27.4417  -21.0079  -12.1477 N   0  0  0  0  0  0  0  0  0  0  0  0
   27.8904  -19.7789  -12.7404 C   0  0  0  0  0  0  0  0  0  0  0  0
   29.2423  -19.4750  -12.1254 C   0  0  0  0  0  0  0  0  0  0  0  0
   29.7161  -20.8410  -11.6871 C   0  0  0  0  0  0  0  0  0  0  0  0
   28.4164  -21.4306  -11.1518 C   0  0  1  0  0  0  0  0  0  0  0  0
   28.1573  -20.7859   -9.8408 C   0  0  0  0  0  0  0  0  0  0  0  0
   27.3284  -19.8283   -9.8030 O   0  0  0  0  0  0  0  0  0  0  0  0
   28.8162  -20.7334   -4.1911 C   0  0  0  0  0  0  0  0  0  0  0  0
   28.8103  -19.5331   -5.2175 C   0  0  1  0  0  0  0  0  0  0  0  0
   29.8235  -18.5400   -4.6198 C   0  0  0  0  0  0  0  0  0  0  0  0
   29.2042  -20.0689   -6.5403 C   0  0  0  0  0  0  0  0  0  0  0  0
   28.2095  -20.8243   -7.2989 C   0  0  2  0  0  0  0  0  0  0  0  0
   28.7677  -21.1642   -8.6385 N   0  0  0  0  0  0  0  0  0  0  0  0
   26.8844  -20.2836   -7.4121 C   0  0  0  0  0  0  0  0  0  0  0  0
   25.7705  -20.9791   -6.9099 O   0  0  0  0  0  0  0  0  0  0  0  0
   26.6513  -19.1769   -7.9575 O   0  0  0  0  0  0  0  0  0  0  0  0
  2  1  1  1
  2  3  1  0
  3  4  1  0
  4 12  1  0
  4  5  2  0
  5  6  1  0
  7  8  2  0
  7  6  1  0
  9  8  1  0
 10  9  2  0
 11 10  1  0
 11 12  2  0
 12  7  1  0
 13  2  1  0
 13 14  2  0
 15 16  1  0
 15 13  1  0
 17 16  1  0
 18 17  1  0
 18 19  1  0
 19 15  1  0
 19 20  1  1
 20 27  1  0
 21 20  2  0
 23 22  1  1
 23 25  1  0
 24 23  1  0
 26 25  1  6
 26 27  1  0
 26 28  1  0
 28 29  1  0
 30 28  2  0
M  END
$$$$
