WPL.pdb
     RDKit          3D

 30 32  0  0  1  0  0  0  0  0999 V2000
   25.5209  -22.1816  -12.6868 N   0  0  0  0  0  0  0  0  0  0  0  0
   26.5294  -21.3636  -12.0955 C   0  0  1  0  0  0  0  0  0  0  0  0
   26.0776  -19.9255  -11.9403 C   0  0  0  0  0  0  0  0  0  0  0  0
   25.6687  -19.2671  -13.1743 C   0  0  0  0  0  0  0  0  0  0  0  0
   24.3368  -19.0248  -13.5127 C   0  0  0  0  0  0  0  0  0  0  0  0
   24.2608  -18.3908  -14.6719 N   0  0  0  0  0  0  0  0  0  0  0  0
   25.5316  -18.2049  -15.1168 C   0  0  0  0  0  0  0  0  0  0  0  0
   26.0128  -17.6124  -16.2571 C   0  0  0  0  0  0  0  0  0  0  0  0
   27.3695  -17.5572  -16.4834 C   0  0  0  0  0  0  0  0  0  0  0  0
   28.2482  -18.0890  -15.5801 C   0  0  0  0  0  0  0  0  0  0  0  0
   27.7809  -18.6821  -14.4393 C   0  0  0  0  0  0  0  0  0  0  0  0
   26.4217  -18.7462  -14.1945 C   0  0  0  0  0  0  0  0  0  0  0  0
   27.1963  -21.9019  -10.9052 C   0  0  0  0  0  0  0  0  0  0  0  0
   26.4783  -22.4961  -10.0449 O   0  0  0  0  0  0  0  0  0  0  0  0
   28.5770  -21.7615  -10.7309 N   0  0  0  0  0  0  0  0  0  0  0  0
   29.5398  -21.3806  -11.7264 C   0  0  0  0  0  0  0  0  0  0  0  0
   30.8988  -21.4543  -11.0589 C   0  0  0  0  0  0  0  0  0  0  0  0
   30.6570  -22.4328   -9.9333 C   0  0  0  0  0  0  0  0  0  0  0  0
   29.2720  -21.9940   -9.4724 C   0  0  1  0  0  0  0  0  0  0  0  0
   29.4488  -20.7297   -8.7163 C   0  0  0  0  0  0  0  0  0  0  0  0
   29.0502  -19.6543   -9.2551 O   0  0  0  0  0  0  0  0  0  0  0  0
   26.6588  -18.7732   -5.2368 C   0  0  0  0  0  0  0  0  0  0  0  0
   27.1771  -20.2423   -4.9772 C   0  0  1  0  0  0  0  0  0  0  0  0
   25.8827  -21.0618   -4.8254 C   0  0  0  0  0  0  0  0  0  0  0  0
   28.0062  -20.6398   -6.1376 C   0  0  0  0  0  0  0  0  0  0  0  0
   29.3321  -20.0400   -6.2717 C   0  0  2  0  0  0  0  0  0  0  0  0
   30.0276  -20.6428   -7.4441 N   0  0  0  0  0  0  0  0  0  0  0  0
   30.1876  -20.0140   -5.1192 C   0  0  0  0  0  0  0  0  0  0  0  0
   30.4902  -18.8064   -4.4659 O   0  0  0  0  0  0  0  0  0  0  0  0
   30.7046  -21.0525   -4.6389 O   0  0  0  0  0  0  0  0  0  0  0  0
  2  1  1  1
  2  3  1  0
  3  4  1  0
  4 12  1  0
  4  5  2  0
  5  6  1  0
  7  8  2  0
  7  6  1  0
  9  8  1  0
 10  9  2  0
 11 10  1  0
 11 12  2  0
 12  7  1  0
 13  2  1  0
 13 14  2  0
 15 16  1  0
 15 13  1  0
 17 16  1  0
 18 17  1  0
 18 19  1  0
 19 15  1  0
 19 20  1  1
 20 27  1  0
 21 20  2  0
 23 22  1  6
 23 25  1  0
 24 23  1  0
 26 25  1  1
 26 27  1  0
 26 28  1  0
 28 29  1  0
 30 28  2  0
M  END
$$$$
