WPL.pdb
     RDKit          3D

 30 32  0  0  1  0  0  0  0  0999 V2000
   24.5141  -22.7083  -16.5128 N   0  0  0  0  0  0  0  0  0  0  0  0
   24.5678  -21.8450  -15.3781 C   0  0  1  0  0  0  0  0  0  0  0  0
   23.2899  -21.8933  -14.5649 C   0  0  0  0  0  0  0  0  0  0  0  0
   22.0766  -21.5502  -15.2953 C   0  0  0  0  0  0  0  0  0  0  0  0
   21.2957  -22.4869  -15.9737 C   0  0  0  0  0  0  0  0  0  0  0  0
   20.2428  -21.9025  -16.5225 N   0  0  0  0  0  0  0  0  0  0  0  0
   20.3091  -20.5792  -16.2192 C   0  0  0  0  0  0  0  0  0  0  0  0
   19.4802  -19.5347  -16.5428 C   0  0  0  0  0  0  0  0  0  0  0  0
   19.7778  -18.2617  -16.1119 C   0  0  0  0  0  0  0  0  0  0  0  0
   20.8961  -18.0244  -15.3611 C   0  0  0  0  0  0  0  0  0  0  0  0
   21.7303  -19.0573  -15.0316 C   0  0  0  0  0  0  0  0  0  0  0  0
   21.4473  -20.3429  -15.4546 C   0  0  0  0  0  0  0  0  0  0  0  0
   25.7857  -21.9075  -14.5631 C   0  0  0  0  0  0  0  0  0  0  0  0
   26.2665  -23.0531  -14.3081 O   0  0  0  0  0  0  0  0  0  0  0  0
   26.3913  -20.7400  -14.0870 N   0  0  0  0  0  0  0  0  0  0  0  0
   26.1851  -19.4018  -14.5661 C   0  0  0  0  0  0  0  0  0  0  0  0
   27.1295  -18.5145  -13.7796 C   0  0  0  0  0  0  0  0  0  0  0  0
   28.2050  -19.4840  -13.3481 C   0  0  0  0  0  0  0  0  0  0  0  0
   27.3601  -20.7040  -13.0003 C   0  0  1  0  0  0  0  0  0  0  0  0
   26.6999  -20.4167  -11.7030 C   0  0  0  0  0  0  0  0  0  0  0  0
   25.4550  -20.1806  -11.7091 O   0  0  0  0  0  0  0  0  0  0  0  0
   26.6414  -19.6104   -6.2631 C   0  0  0  0  0  0  0  0  0  0  0  0
   27.7859  -19.5509   -7.3498 C   0  0  1  0  0  0  0  0  0  0  0  0
   29.0693  -19.3852   -6.5159 C   0  0  0  0  0  0  0  0  0  0  0  0
   27.7345  -20.8092   -8.1283 C   0  0  0  0  0  0  0  0  0  0  0  0
   26.7558  -20.9085   -9.2089 C   0  0  2  0  0  0  0  0  0  0  0  0
   27.3601  -20.3884  -10.4683 N   0  0  0  0  0  0  0  0  0  0  0  0
   25.4476  -20.3568   -8.9959 C   0  0  0  0  0  0  0  0  0  0  0  0
   24.4982  -21.0239   -8.2021 O   0  0  0  0  0  0  0  0  0  0  0  0
   25.0854  -19.2651   -9.4993 O   0  0  0  0  0  0  0  0  0  0  0  0
  2  1  1  6
  2  3  1  0
  3  4  1  0
  4 12  1  0
  4  5  2  0
  5  6  1  0
  7  8  2  0
  7  6  1  0
  9  8  1  0
 10  9  2  0
 11 10  1  0
 11 12  2  0
 12  7  1  0
 13  2  1  0
 13 14  2  0
 15 16  1  0
 15 13  1  0
 17 16  1  0
 18 17  1  0
 18 19  1  0
 19 15  1  0
 19 20  1  1
 20 27  1  0
 21 20  2  0
 23 22  1  1
 23 25  1  0
 24 23  1  0
 26 25  1  1
 26 27  1  0
 26 28  1  0
 28 29  1  0
 30 28  2  0
M  END
$$$$
