WPL.pdb
     RDKit          3D

 30 32  0  0  1  0  0  0  0  0999 V2000
   25.7507  -18.3790   -9.1240 N   0  0  0  0  0  0  0  0  0  0  0  0
   26.5242  -19.4786   -9.6018 C   0  0  1  0  0  0  0  0  0  0  0  0
   26.8385  -20.4739   -8.5031 C   0  0  0  0  0  0  0  0  0  0  0  0
   27.2682  -19.8883   -7.2399 C   0  0  0  0  0  0  0  0  0  0  0  0
   26.7151  -18.7250   -6.7031 C   0  0  0  0  0  0  0  0  0  0  0  0
   27.2754  -18.4397   -5.5387 N   0  0  0  0  0  0  0  0  0  0  0  0
   28.2020  -19.4019   -5.2876 C   0  0  0  0  0  0  0  0  0  0  0  0
   29.0601  -19.5771   -4.2313 C   0  0  0  0  0  0  0  0  0  0  0  0
   29.9235  -20.6492   -4.2173 C   0  0  0  0  0  0  0  0  0  0  0  0
   29.9361  -21.5465   -5.2494 C   0  0  0  0  0  0  0  0  0  0  0  0
   29.0852  -21.3830   -6.3081 C   0  0  0  0  0  0  0  0  0  0  0  0
   28.2104  -20.3128   -6.3393 C   0  0  0  0  0  0  0  0  0  0  0  0
   26.0745  -20.1037  -10.8502 C   0  0  0  0  0  0  0  0  0  0  0  0
   24.8253  -20.2283  -11.0307 O   0  0  0  0  0  0  0  0  0  0  0  0
   26.9968  -20.5449  -11.8048 N   0  0  0  0  0  0  0  0  0  0  0  0
   28.2915  -21.1155  -11.5570 C   0  0  0  0  0  0  0  0  0  0  0  0
   28.9240  -21.3489  -12.9147 C   0  0  0  0  0  0  0  0  0  0  0  0
   28.1963  -20.3546  -13.7892 C   0  0  0  0  0  0  0  0  0  0  0  0
   26.7792  -20.4852  -13.2434 C   0  0  1  0  0  0  0  0  0  0  0  0
   26.2349  -21.7664  -13.7569 C   0  0  0  0  0  0  0  0  0  0  0  0
   26.6036  -22.8382  -13.1905 O   0  0  0  0  0  0  0  0  0  0  0  0
   21.7324  -22.4938  -12.3438 C   0  0  0  0  0  0  0  0  0  0  0  0
   21.9544  -21.2178  -13.2477 C   0  0  1  0  0  0  0  0  0  0  0  0
   21.4907  -20.0543  -12.3525 C   0  0  0  0  0  0  0  0  0  0  0  0
   23.3898  -21.1635  -13.6064 C   0  0  0  0  0  0  0  0  0  0  0  0
   23.8723  -22.0694  -14.6467 C   0  0  2  0  0  0  0  0  0  0  0  0
   25.3387  -21.8729  -14.8277 N   0  0  0  0  0  0  0  0  0  0  0  0
   23.1913  -22.0794  -15.9105 C   0  0  0  0  0  0  0  0  0  0  0  0
   22.2590  -23.0834  -16.2255 O   0  0  0  0  0  0  0  0  0  0  0  0
   23.3882  -21.2055  -16.7903 O   0  0  0  0  0  0  0  0  0  0  0  0
  2  1  1  1
  2  3  1  0
  3  4  1  0
  4 12  1  0
  4  5  2  0
  5  6  1  0
  7  8  2  0
  7  6  1  0
  9  8  1  0
 10  9  2  0
 11 10  1  0
 11 12  2  0
 12  7  1  0
 13  2  1  0
 13 14  2  0
 15 16  1  0
 15 13  1  0
 17 16  1  0
 18 17  1  0
 18 19  1  0
 19 15  1  0
 19 20  1  6
 20 27  1  0
 21 20  2  0
 23 22  1  1
 23 25  1  0
 24 23  1  0
 26 25  1  1
 26 27  1  0
 26 28  1  0
 28 29  1  0
 30 28  2  0
M  END
$$$$
