WPL.pdb
     RDKit          3D

 30 32  0  0  1  0  0  0  0  0999 V2000
   24.0751  -20.9506  -11.3120 N   0  0  0  0  0  0  0  0  0  0  0  0
   25.3690  -20.6335  -11.8228 C   0  0  1  0  0  0  0  0  0  0  0  0
   26.4764  -21.2425  -10.9865 C   0  0  0  0  0  0  0  0  0  0  0  0
   26.6558  -20.6491   -9.6678 C   0  0  0  0  0  0  0  0  0  0  0  0
   25.6200  -20.0603   -8.9413 C   0  0  0  0  0  0  0  0  0  0  0  0
   26.0614  -19.6298   -7.7703 N   0  0  0  0  0  0  0  0  0  0  0  0
   27.3868  -19.9237   -7.7032 C   0  0  0  0  0  0  0  0  0  0  0  0
   28.3155  -19.6925   -6.7199 C   0  0  0  0  0  0  0  0  0  0  0  0
   29.6215  -20.0880   -6.9010 C   0  0  0  0  0  0  0  0  0  0  0  0
   30.0064  -20.7120   -8.0556 C   0  0  0  0  0  0  0  0  0  0  0  0
   29.0897  -20.9485   -9.0433 C   0  0  0  0  0  0  0  0  0  0  0  0
   27.7733  -20.5592   -8.8790 C   0  0  0  0  0  0  0  0  0  0  0  0
   25.5633  -20.8007  -13.2670 C   0  0  0  0  0  0  0  0  0  0  0  0
   24.6598  -21.4089  -13.9171 O   0  0  0  0  0  0  0  0  0  0  0  0
   26.7077  -20.3041  -13.8995 N   0  0  0  0  0  0  0  0  0  0  0  0
   27.9290  -19.8835  -13.2713 C   0  0  0  0  0  0  0  0  0  0  0  0
   28.8206  -19.3558  -14.3779 C   0  0  0  0  0  0  0  0  0  0  0  0
   27.8229  -18.9693  -15.4447 C   0  0  0  0  0  0  0  0  0  0  0  0
   26.8366  -20.1265  -15.3392 C   0  0  1  0  0  0  0  0  0  0  0  0
   27.4833  -21.3041  -15.9687 C   0  0  0  0  0  0  0  0  0  0  0  0
   28.4838  -21.8161  -15.3837 O   0  0  0  0  0  0  0  0  0  0  0  0
   24.5733  -25.4702  -17.4502 C   0  0  0  0  0  0  0  0  0  0  0  0
   25.7098  -24.5456  -16.8604 C   0  0  1  0  0  0  0  0  0  0  0  0
   26.4384  -25.4606  -15.8594 C   0  0  0  0  0  0  0  0  0  0  0  0
   26.5566  -24.0962  -17.9887 C   0  0  0  0  0  0  0  0  0  0  0  0
   27.6391  -23.1570  -17.7031 C   0  0  2  0  0  0  0  0  0  0  0  0
   27.0625  -21.8906  -17.1688 N   0  0  0  0  0  0  0  0  0  0  0  0
   28.6017  -22.8929  -18.7349 C   0  0  0  0  0  0  0  0  0  0  0  0
   29.4591  -23.9032  -19.2046 O   0  0  0  0  0  0  0  0  0  0  0  0
   28.7285  -21.7623  -19.2662 O   0  0  0  0  0  0  0  0  0  0  0  0
  2  1  1  1
  2  3  1  0
  3  4  1  0
  4 12  1  0
  4  5  2  0
  5  6  1  0
  7  8  2  0
  7  6  1  0
  9  8  1  0
 10  9  2  0
 11 10  1  0
 11 12  2  0
 12  7  1  0
 13  2  1  0
 13 14  2  0
 15 16  1  0
 15 13  1  0
 17 16  1  0
 18 17  1  0
 18 19  1  0
 19 15  1  0
 19 20  1  6
 20 27  1  0
 21 20  2  0
 23 22  1  6
 23 25  1  0
 24 23  1  0
 26 25  1  6
 26 27  1  0
 26 28  1  0
 28 29  1  0
 30 28  2  0
M  END
$$$$
