WPL.pdb
     RDKit          3D

 30 32  0  0  1  0  0  0  0  0999 V2000
   24.1740  -22.6158  -15.3665 N   0  0  0  0  0  0  0  0  0  0  0  0
   24.3990  -21.7184  -14.2803 C   0  0  1  0  0  0  0  0  0  0  0  0
   23.2290  -21.6849  -13.3177 C   0  0  0  0  0  0  0  0  0  0  0  0
   22.0721  -20.9254  -13.7738 C   0  0  0  0  0  0  0  0  0  0  0  0
   22.0151  -19.5311  -13.7669 C   0  0  0  0  0  0  0  0  0  0  0  0
   20.8605  -19.1117  -14.2593 N   0  0  0  0  0  0  0  0  0  0  0  0
   20.1393  -20.2132  -14.5970 C   0  0  0  0  0  0  0  0  0  0  0  0
   18.8851  -20.3418  -15.1385 C   0  0  0  0  0  0  0  0  0  0  0  0
   18.3669  -21.5932  -15.3838 C   0  0  0  0  0  0  0  0  0  0  0  0
   19.0914  -22.7161  -15.0925 C   0  0  0  0  0  0  0  0  0  0  0  0
   20.3432  -22.6013  -14.5526 C   0  0  0  0  0  0  0  0  0  0  0  0
   20.8806  -21.3526  -14.3001 C   0  0  0  0  0  0  0  0  0  0  0  0
   25.7040  -21.8059  -13.6165 C   0  0  0  0  0  0  0  0  0  0  0  0
   26.2082  -22.9588  -13.4567 O   0  0  0  0  0  0  0  0  0  0  0  0
   26.3645  -20.6539  -13.1773 N   0  0  0  0  0  0  0  0  0  0  0  0
   26.0367  -19.2932  -13.5001 C   0  0  0  0  0  0  0  0  0  0  0  0
   27.0972  -18.4300  -12.8457 C   0  0  0  0  0  0  0  0  0  0  0  0
   28.2589  -19.3865  -12.7102 C   0  0  0  0  0  0  0  0  0  0  0  0
   27.5278  -20.6599  -12.3013 C   0  0  1  0  0  0  0  0  0  0  0  0
   27.1305  -20.4930  -10.8815 C   0  0  0  0  0  0  0  0  0  0  0  0
   26.2033  -19.6711  -10.6166 O   0  0  0  0  0  0  0  0  0  0  0  0
   28.4715  -20.7380   -5.3667 C   0  0  0  0  0  0  0  0  0  0  0  0
   27.8118  -19.6778   -6.3337 C   0  0  1  0  0  0  0  0  0  0  0  0
   28.4404  -18.3438   -5.8919 C   0  0  0  0  0  0  0  0  0  0  0  0
   28.1440  -20.0666   -7.7231 C   0  0  0  0  0  0  0  0  0  0  0  0
   27.2660  -21.0203   -8.3978 C   0  0  2  0  0  0  0  0  0  0  0  0
   27.7115  -21.1836   -9.8107 N   0  0  0  0  0  0  0  0  0  0  0  0
   25.8476  -20.8112   -8.3229 C   0  0  0  0  0  0  0  0  0  0  0  0
   24.9924  -21.8050   -7.8154 O   0  0  0  0  0  0  0  0  0  0  0  0
   25.3016  -19.7456   -8.7010 O   0  0  0  0  0  0  0  0  0  0  0  0
  2  1  1  6
  2  3  1  0
  3  4  1  0
  4 12  1  0
  4  5  2  0
  5  6  1  0
  7  8  2  0
  7  6  1  0
  9  8  1  0
 10  9  2  0
 11 10  1  0
 11 12  2  0
 12  7  1  0
 13  2  1  0
 13 14  2  0
 15 16  1  0
 15 13  1  0
 17 16  1  0
 18 17  1  0
 18 19  1  0
 19 15  1  0
 19 20  1  1
 20 27  1  0
 21 20  2  0
 23 22  1  1
 23 25  1  0
 24 23  1  0
 26 25  1  6
 26 27  1  0
 26 28  1  0
 28 29  1  0
 30 28  2  0
M  END
$$$$
