WPL.pdb
     RDKit          3D

 30 32  0  0  1  0  0  0  0  0999 V2000
   26.4782  -23.0365  -13.8756 N   0  0  0  0  0  0  0  0  0  0  0  0
   26.7604  -22.0066  -12.9295 C   0  0  1  0  0  0  0  0  0  0  0  0
   25.5523  -21.1314  -12.6631 C   0  0  0  0  0  0  0  0  0  0  0  0
   25.8008  -19.9724  -11.8155 C   0  0  0  0  0  0  0  0  0  0  0  0
   26.2956  -18.7593  -12.2960 C   0  0  0  0  0  0  0  0  0  0  0  0
   26.3969  -17.8782  -11.3138 N   0  0  0  0  0  0  0  0  0  0  0  0
   25.9745  -18.4891  -10.1754 C   0  0  0  0  0  0  0  0  0  0  0  0
   25.8820  -18.0321   -8.8849 C   0  0  0  0  0  0  0  0  0  0  0  0
   25.4213  -18.8661   -7.8915 C   0  0  0  0  0  0  0  0  0  0  0  0
   25.0528  -20.1519   -8.1771 C   0  0  0  0  0  0  0  0  0  0  0  0
   25.1401  -20.6193   -9.4599 C   0  0  0  0  0  0  0  0  0  0  0  0
   25.5996  -19.7960  -10.4711 C   0  0  0  0  0  0  0  0  0  0  0  0
   27.4733  -22.4107  -11.7129 C   0  0  0  0  0  0  0  0  0  0  0  0
   26.9167  -23.2662  -10.9599 O   0  0  0  0  0  0  0  0  0  0  0  0
   28.7236  -21.8676  -11.3998 N   0  0  0  0  0  0  0  0  0  0  0  0
   29.4963  -20.9587  -12.1998 C   0  0  0  0  0  0  0  0  0  0  0  0
   30.8005  -20.7382  -11.4593 C   0  0  0  0  0  0  0  0  0  0  0  0
   30.9097  -21.9845  -10.6122 C   0  0  0  0  0  0  0  0  0  0  0  0
   29.4592  -22.1558  -10.1765 C   0  0  1  0  0  0  0  0  0  0  0  0
   29.1958  -21.1291   -9.1382 C   0  0  0  0  0  0  0  0  0  0  0  0
   28.8053  -19.9854   -9.5190 O   0  0  0  0  0  0  0  0  0  0  0  0
   26.4632  -22.0877   -4.4780 C   0  0  0  0  0  0  0  0  0  0  0  0
   26.9138  -21.3138   -5.7789 C   0  0  1  0  0  0  0  0  0  0  0  0
   25.9591  -20.1072   -5.8318 C   0  0  0  0  0  0  0  0  0  0  0  0
   28.3381  -20.9449   -5.6137 C   0  0  0  0  0  0  0  0  0  0  0  0
   29.0169  -20.3060   -6.7391 C   0  0  2  0  0  0  0  0  0  0  0  0
   29.3496  -21.3377   -7.7620 N   0  0  0  0  0  0  0  0  0  0  0  0
   30.1480  -19.4656   -6.4643 C   0  0  0  0  0  0  0  0  0  0  0  0
   29.9980  -18.2456   -5.7820 O   0  0  0  0  0  0  0  0  0  0  0  0
   31.3152  -19.7697   -6.8129 O   0  0  0  0  0  0  0  0  0  0  0  0
  2  1  1  1
  2  3  1  0
  3  4  1  0
  4 12  1  0
  4  5  2  0
  5  6  1  0
  7  8  2  0
  7  6  1  0
  9  8  1  0
 10  9  2  0
 11 10  1  0
 11 12  2  0
 12  7  1  0
 13  2  1  0
 13 14  2  0
 15 16  1  0
 15 13  1  0
 17 16  1  0
 18 17  1  0
 18 19  1  0
 19 15  1  0
 19 20  1  1
 20 27  1  0
 21 20  2  0
 23 22  1  1
 23 25  1  0
 24 23  1  0
 26 25  1  1
 26 27  1  0
 26 28  1  0
 28 29  1  0
 30 28  2  0
M  END
$$$$
