WPL.pdb
     RDKit          3D

 30 32  0  0  1  0  0  0  0  0999 V2000
   22.8748  -21.5354  -17.8047 N   0  0  0  0  0  0  0  0  0  0  0  0
   23.8128  -20.5625  -17.3472 C   0  0  1  0  0  0  0  0  0  0  0  0
   23.1290  -19.3281  -16.7947 C   0  0  0  0  0  0  0  0  0  0  0  0
   23.9577  -18.1306  -16.7434 C   0  0  0  0  0  0  0  0  0  0  0  0
   24.0380  -17.2048  -17.7845 C   0  0  0  0  0  0  0  0  0  0  0  0
   24.8413  -16.2058  -17.4558 N   0  0  0  0  0  0  0  0  0  0  0  0
   25.3029  -16.4522  -16.2013 C   0  0  0  0  0  0  0  0  0  0  0  0
   26.1612  -15.7441  -15.3984 C   0  0  0  0  0  0  0  0  0  0  0  0
   26.4828  -16.2200  -14.1474 C   0  0  0  0  0  0  0  0  0  0  0  0
   25.9542  -17.3967  -13.6930 C   0  0  0  0  0  0  0  0  0  0  0  0
   25.0970  -18.1118  -14.4839 C   0  0  0  0  0  0  0  0  0  0  0  0
   24.7616  -17.6492  -15.7429 C   0  0  0  0  0  0  0  0  0  0  0  0
   24.9094  -21.0532  -16.5057 C   0  0  0  0  0  0  0  0  0  0  0  0
   24.6297  -21.9092  -15.6125 O   0  0  0  0  0  0  0  0  0  0  0  0
   26.2163  -20.5893  -16.6873 N   0  0  0  0  0  0  0  0  0  0  0  0
   26.6567  -19.5876  -17.6178 C   0  0  0  0  0  0  0  0  0  0  0  0
   28.1642  -19.5075  -17.4798 C   0  0  0  0  0  0  0  0  0  0  0  0
   28.5140  -20.8683  -16.9241 C   0  0  0  0  0  0  0  0  0  0  0  0
   27.3687  -21.0722  -15.9392 C   0  0  1  0  0  0  0  0  0  0  0  0
   27.6478  -20.2066  -14.7669 C   0  0  0  0  0  0  0  0  0  0  0  0
   27.2784  -18.9957  -14.8210 O   0  0  0  0  0  0  0  0  0  0  0  0
   24.2601  -20.5480  -10.8992 C   0  0  0  0  0  0  0  0  0  0  0  0
   25.7798  -20.1277  -10.8080 C   0  0  1  0  0  0  0  0  0  0  0  0
   26.3046  -20.9256   -9.6005 C   0  0  0  0  0  0  0  0  0  0  0  0
   26.4250  -20.4874  -12.0911 C   0  0  0  0  0  0  0  0  0  0  0  0
   27.8577  -20.2366  -12.2331 C   0  0  2  0  0  0  0  0  0  0  0  0
   28.2932  -20.6372  -13.6011 N   0  0  0  0  0  0  0  0  0  0  0  0
   28.7436  -20.7620  -11.2330 C   0  0  0  0  0  0  0  0  0  0  0  0
   28.9285  -22.1475  -11.0816 O   0  0  0  0  0  0  0  0  0  0  0  0
   29.3919  -20.0242  -10.4508 O   0  0  0  0  0  0  0  0  0  0  0  0
  2  1  1  1
  2  3  1  0
  3  4  1  0
  4 12  1  0
  4  5  2  0
  5  6  1  0
  7  8  2  0
  7  6  1  0
  9  8  1  0
 10  9  2  0
 11 10  1  0
 11 12  2  0
 12  7  1  0
 13  2  1  0
 13 14  2  0
 15 16  1  0
 15 13  1  0
 17 16  1  0
 18 17  1  0
 18 19  1  0
 19 15  1  0
 19 20  1  1
 20 27  1  0
 21 20  2  0
 23 22  1  6
 23 25  1  0
 24 23  1  0
 26 25  1  1
 26 27  1  0
 26 28  1  0
 28 29  1  0
 30 28  2  0
M  END
$$$$
