WPL.pdb
     RDKit          3D

 30 32  0  0  1  0  0  0  0  0999 V2000
   25.3801  -22.0125  -12.5150 N   0  0  0  0  0  0  0  0  0  0  0  0
   26.2825  -21.1462  -11.8289 C   0  0  1  0  0  0  0  0  0  0  0  0
   25.6258  -19.8398  -11.4305 C   0  0  0  0  0  0  0  0  0  0  0  0
   24.7669  -19.2427  -12.4449 C   0  0  0  0  0  0  0  0  0  0  0  0
   25.2359  -18.7780  -13.6744 C   0  0  0  0  0  0  0  0  0  0  0  0
   24.2364  -18.3126  -14.4062 N   0  0  0  0  0  0  0  0  0  0  0  0
   23.0978  -18.4598  -13.6784 C   0  0  0  0  0  0  0  0  0  0  0  0
   21.7948  -18.1373  -13.9630 C   0  0  0  0  0  0  0  0  0  0  0  0
   20.8070  -18.3853  -13.0369 C   0  0  0  0  0  0  0  0  0  0  0  0
   21.1108  -18.9524  -11.8299 C   0  0  0  0  0  0  0  0  0  0  0  0
   22.4060  -19.2789  -11.5344 C   0  0  0  0  0  0  0  0  0  0  0  0
   23.4115  -19.0381  -12.4524 C   0  0  0  0  0  0  0  0  0  0  0  0
   27.0869  -21.7493  -10.7609 C   0  0  0  0  0  0  0  0  0  0  0  0
   26.4911  -22.4881   -9.9195 O   0  0  0  0  0  0  0  0  0  0  0  0
   28.4632  -21.5140  -10.6789 N   0  0  0  0  0  0  0  0  0  0  0  0
   29.2916  -20.8765  -11.6641 C   0  0  0  0  0  0  0  0  0  0  0  0
   30.7112  -20.9397  -11.1364 C   0  0  0  0  0  0  0  0  0  0  0  0
   30.6567  -22.1187  -10.1931 C   0  0  0  0  0  0  0  0  0  0  0  0
   29.2942  -21.8981   -9.5464 C   0  0  1  0  0  0  0  0  0  0  0  0
   29.4473  -20.7752   -8.5887 C   0  0  0  0  0  0  0  0  0  0  0  0
   28.9711  -19.6472   -8.9146 O   0  0  0  0  0  0  0  0  0  0  0  0
   27.4002  -18.1051   -5.1263 C   0  0  0  0  0  0  0  0  0  0  0  0
   27.5305  -19.6500   -4.8247 C   0  0  1  0  0  0  0  0  0  0  0  0
   26.0750  -20.1000   -4.6033 C   0  0  0  0  0  0  0  0  0  0  0  0
   28.1835  -20.2840   -5.9924 C   0  0  0  0  0  0  0  0  0  0  0  0
   29.6303  -20.1349   -6.1348 C   0  0  2  0  0  0  0  0  0  0  0  0
   30.0837  -20.8768   -7.3454 N   0  0  0  0  0  0  0  0  0  0  0  0
   30.4606  -20.4346   -5.0026 C   0  0  0  0  0  0  0  0  0  0  0  0
   30.9644  -19.4119   -4.1800 O   0  0  0  0  0  0  0  0  0  0  0  0
   30.7775  -21.6087   -4.6899 O   0  0  0  0  0  0  0  0  0  0  0  0
  2  1  1  1
  2  3  1  0
  3  4  1  0
  4 12  1  0
  4  5  2  0
  5  6  1  0
  7  8  2  0
  7  6  1  0
  9  8  1  0
 10  9  2  0
 11 10  1  0
 11 12  2  0
 12  7  1  0
 13  2  1  0
 13 14  2  0
 15 16  1  0
 15 13  1  0
 17 16  1  0
 18 17  1  0
 18 19  1  0
 19 15  1  0
 19 20  1  1
 20 27  1  0
 21 20  2  0
 23 22  1  6
 23 25  1  0
 24 23  1  0
 26 25  1  1
 26 27  1  0
 26 28  1  0
 28 29  1  0
 30 28  2  0
M  END
$$$$
