WPL.pdb
     RDKit          3D

 30 32  0  0  1  0  0  0  0  0999 V2000
   19.7020  -20.0064  -20.3219 N   0  0  0  0  0  0  0  0  0  0  0  0
   20.4522  -19.6947  -19.1490 C   0  0  1  0  0  0  0  0  0  0  0  0
   20.5150  -20.8630  -18.1859 C   0  0  0  0  0  0  0  0  0  0  0  0
   19.2276  -21.4508  -17.8391 C   0  0  0  0  0  0  0  0  0  0  0  0
   18.4242  -22.1373  -18.7505 C   0  0  0  0  0  0  0  0  0  0  0  0
   17.3291  -22.5853  -18.1579 N   0  0  0  0  0  0  0  0  0  0  0  0
   17.3887  -22.2052  -16.8542 C   0  0  0  0  0  0  0  0  0  0  0  0
   16.5166  -22.4038  -15.8136 C   0  0  0  0  0  0  0  0  0  0  0  0
   16.8092  -21.9015  -14.5658 C   0  0  0  0  0  0  0  0  0  0  0  0
   17.9650  -21.2030  -14.3499 C   0  0  0  0  0  0  0  0  0  0  0  0
   18.8428  -20.9985  -15.3791 C   0  0  0  0  0  0  0  0  0  0  0  0
   18.5665  -21.4962  -16.6391 C   0  0  0  0  0  0  0  0  0  0  0  0
   21.7445  -19.0316  -19.3538 C   0  0  0  0  0  0  0  0  0  0  0  0
   22.3242  -19.2013  -20.4691 O   0  0  0  0  0  0  0  0  0  0  0  0
   22.3124  -18.2407  -18.3497 N   0  0  0  0  0  0  0  0  0  0  0  0
   21.7325  -17.9099  -17.0780 C   0  0  0  0  0  0  0  0  0  0  0  0
   22.7045  -16.9677  -16.3956 C   0  0  0  0  0  0  0  0  0  0  0  0
   23.4588  -16.3752  -17.5630 C   0  0  0  0  0  0  0  0  0  0  0  0
   23.6196  -17.6062  -18.4473 C   0  0  1  0  0  0  0  0  0  0  0  0
   24.6719  -18.4488  -17.8276 C   0  0  0  0  0  0  0  0  0  0  0  0
   24.3061  -19.3820  -17.0525 O   0  0  0  0  0  0  0  0  0  0  0  0
   25.4765  -21.9496  -20.9701 C   0  0  0  0  0  0  0  0  0  0  0  0
   25.8742  -21.4281  -19.5333 C   0  0  1  0  0  0  0  0  0  0  0  0
   26.9755  -22.4058  -19.0848 C   0  0  0  0  0  0  0  0  0  0  0  0
   26.3355  -20.0282  -19.6734 C   0  0  0  0  0  0  0  0  0  0  0  0
   26.9366  -19.3836  -18.5078 C   0  0  2  0  0  0  0  0  0  0  0  0
   26.0460  -18.2833  -18.0412 N   0  0  0  0  0  0  0  0  0  0  0  0
   28.2996  -18.9423  -18.6008 C   0  0  0  0  0  0  0  0  0  0  0  0
   28.6157  -17.6507  -19.0574 O   0  0  0  0  0  0  0  0  0  0  0  0
   29.2692  -19.6746  -18.2844 O   0  0  0  0  0  0  0  0  0  0  0  0
  2  1  1  6
  2  3  1  0
  3  4  1  0
  4 12  1  0
  4  5  2  0
  5  6  1  0
  7  8  2  0
  7  6  1  0
  9  8  1  0
 10  9  2  0
 11 10  1  0
 11 12  2  0
 12  7  1  0
 13  2  1  0
 13 14  2  0
 15 16  1  0
 15 13  1  0
 17 16  1  0
 18 17  1  0
 18 19  1  0
 19 15  1  0
 19 20  1  1
 20 27  1  0
 21 20  2  0
 23 22  1  6
 23 25  1  0
 24 23  1  0
 26 25  1  6
 26 27  1  0
 26 28  1  0
 28 29  1  0
 30 28  2  0
M  END
$$$$
