CGK.pdb
     RDKit          3D

 20 19  0  0  1  0  0  0  0  0999 V2000
   25.4072  -13.7807  -15.0202 N   0  0  0  0  0  0  0  0  0  0  0  0
   25.8710  -13.6579  -16.3782 C   0  0  1  0  0  0  0  0  0  0  0  0
   25.8375  -15.0135  -17.0368 C   0  0  0  0  0  0  0  0  0  0  0  0
   27.0619  -16.1388  -16.3089 S   0  0  0  0  0  0  0  0  0  0  0  0
   24.9447  -12.7728  -17.1285 C   0  0  0  0  0  0  0  0  0  0  0  0
   25.1835  -12.4370  -18.3249 O   0  0  0  0  0  0  0  0  0  0  0  0
   23.7652  -12.2827  -16.5141 N   0  0  0  0  0  0  0  0  0  0  0  0
   22.8096  -11.4373  -17.1971 C   0  0  0  0  0  0  0  0  0  0  0  0
   22.6768  -10.1726  -16.4529 C   0  0  0  0  0  0  0  0  0  0  0  0
   23.1887  -10.0745  -15.3169 O   0  0  0  0  0  0  0  0  0  0  0  0
   21.9846   -9.0912  -17.0115 N   0  0  0  0  0  0  0  0  0  0  0  0
   21.8386   -7.8537  -16.2772 C   0  0  1  0  0  0  0  0  0  0  0  0
   21.3092   -6.7385  -17.1247 C   0  0  0  0  0  0  0  0  0  0  0  0
   21.1493   -5.4423  -16.4392 C   0  0  0  0  0  0  0  0  0  0  0  0
   20.6787   -4.2962  -17.2627 C   0  0  0  0  0  0  0  0  0  0  0  0
   20.7139   -2.9965  -16.4593 C   0  0  0  0  0  0  0  0  0  0  0  0
   20.3934   -1.9312  -17.3803 N   0  0  0  0  0  0  0  0  0  0  0  0
   21.0790   -8.0661  -15.0272 C   0  0  0  0  0  0  0  0  0  0  0  0
   19.9840   -8.9385  -14.9969 O   0  0  0  0  0  0  0  0  0  0  0  0
   21.3772   -7.4877  -13.9562 O   0  0  0  0  0  0  0  0  0  0  0  0
  2  1  1  1
  3  2  1  0
  4  3  1  0
  5  6  2  0
  5  2  1  0
  7  5  1  0
  8  7  1  0
  9 11  1  0
  9  8  1  0
 10  9  2  0
 12 11  1  0
 12 13  1  6
 13 14  1  0
 14 15  1  0
 15 16  1  0
 16 17  1  0
 18 12  1  0
 19 18  1  0
 20 18  2  0
M  END
$$$$
