CGK.pdb
     RDKit          3D

 20 19  0  0  1  0  0  0  0  0999 V2000
   20.6337  -10.0689  -14.8193 N   0  0  0  0  0  0  0  0  0  0  0  0
   21.0472   -9.2888  -13.6814 C   0  0  1  0  0  0  0  0  0  0  0  0
   22.3910   -8.6690  -13.9685 C   0  0  0  0  0  0  0  0  0  0  0  0
   23.6901   -9.9292  -14.1091 S   0  0  0  0  0  0  0  0  0  0  0  0
   20.0790   -8.1824  -13.4747 C   0  0  0  0  0  0  0  0  0  0  0  0
   19.5374   -7.5931  -14.4549 O   0  0  0  0  0  0  0  0  0  0  0  0
   19.7397   -7.7612  -12.1646 N   0  0  0  0  0  0  0  0  0  0  0  0
   18.7386   -6.7524  -11.8919 C   0  0  0  0  0  0  0  0  0  0  0  0
   17.8632   -7.2322  -10.8083 C   0  0  0  0  0  0  0  0  0  0  0  0
   18.3371   -7.9763   -9.9230 O   0  0  0  0  0  0  0  0  0  0  0  0
   16.5141   -6.8592  -10.7697 N   0  0  0  0  0  0  0  0  0  0  0  0
   15.6816   -7.2272   -9.6457 C   0  0  1  0  0  0  0  0  0  0  0  0
   14.8523   -6.0861   -9.1434 C   0  0  0  0  0  0  0  0  0  0  0  0
   13.9481   -6.4048   -8.0225 C   0  0  0  0  0  0  0  0  0  0  0  0
   13.1156   -5.2931   -7.4891 C   0  0  0  0  0  0  0  0  0  0  0  0
   12.3023   -5.7527   -6.2794 C   0  0  0  0  0  0  0  0  0  0  0  0
   11.6548   -4.5776   -5.7448 N   0  0  0  0  0  0  0  0  0  0  0  0
   14.9018   -8.4474   -9.9413 C   0  0  0  0  0  0  0  0  0  0  0  0
   14.7714   -9.4606   -8.9835 O   0  0  0  0  0  0  0  0  0  0  0  0
   14.3296   -8.6259  -11.0419 O   0  0  0  0  0  0  0  0  0  0  0  0
  2  1  1  6
  3  2  1  0
  4  3  1  0
  5  6  2  0
  5  2  1  0
  7  5  1  0
  8  7  1  0
  9 11  1  0
  9  8  1  0
 10  9  2  0
 12 11  1  0
 12 13  1  6
 13 14  1  0
 14 15  1  0
 15 16  1  0
 16 17  1  0
 18 12  1  0
 19 18  1  0
 20 18  2  0
M  END
$$$$
