CGK.pdb
     RDKit          3D

 20 19  0  0  1  0  0  0  0  0999 V2000
   16.2655   -9.8084  -10.0131 N   0  0  0  0  0  0  0  0  0  0  0  0
   15.1960   -9.5878  -10.9522 C   0  0  1  0  0  0  0  0  0  0  0  0
   14.0674   -8.8699  -10.2570 C   0  0  0  0  0  0  0  0  0  0  0  0
   13.2031   -9.9590   -9.0898 S   0  0  0  0  0  0  0  0  0  0  0  0
   15.6829   -8.7060  -12.0428 C   0  0  0  0  0  0  0  0  0  0  0  0
   14.9093   -8.3144  -12.9644 O   0  0  0  0  0  0  0  0  0  0  0  0
   17.0351   -8.2821  -12.0732 N   0  0  0  0  0  0  0  0  0  0  0  0
   17.5764   -7.4366  -13.1156 C   0  0  0  0  0  0  0  0  0  0  0  0
   18.9927   -7.1617  -12.8170 C   0  0  0  0  0  0  0  0  0  0  0  0
   19.4151   -7.3239  -11.6519 O   0  0  0  0  0  0  0  0  0  0  0  0
   19.8575   -6.7233  -13.8272 N   0  0  0  0  0  0  0  0  0  0  0  0
   21.2534   -6.4733  -13.5425 C   0  0  1  0  0  0  0  0  0  0  0  0
   22.1691   -7.1034  -14.5457 C   0  0  0  0  0  0  0  0  0  0  0  0
   22.2200   -8.5773  -14.5198 C   0  0  0  0  0  0  0  0  0  0  0  0
   23.1304   -9.2389  -15.4928 C   0  0  0  0  0  0  0  0  0  0  0  0
   23.0356  -10.7603  -15.3809 C   0  0  0  0  0  0  0  0  0  0  0  0
   23.9202  -11.3054  -16.3839 N   0  0  0  0  0  0  0  0  0  0  0  0
   21.5007   -5.0316  -13.3309 C   0  0  0  0  0  0  0  0  0  0  0  0
   22.5683   -4.6000  -12.5341 O   0  0  0  0  0  0  0  0  0  0  0  0
   20.7808   -4.1459  -13.8484 O   0  0  0  0  0  0  0  0  0  0  0  0
  2  1  1  1
  3  2  1  0
  4  3  1  0
  5  6  2  0
  5  2  1  0
  7  5  1  0
  8  7  1  0
  9 11  1  0
  9  8  1  0
 10  9  2  0
 12 11  1  0
 12 13  1  6
 13 14  1  0
 14 15  1  0
 15 16  1  0
 16 17  1  0
 18 12  1  0
 19 18  1  0
 20 18  2  0
M  END
$$$$
