CGK.pdb
     RDKit          3D

 20 19  0  0  1  0  0  0  0  0999 V2000
   21.9008   -7.4637  -15.3626 N   0  0  0  0  0  0  0  0  0  0  0  0
   20.7488   -8.1788  -14.8769 C   0  0  1  0  0  0  0  0  0  0  0  0
   20.9567   -9.6563  -15.0920 C   0  0  0  0  0  0  0  0  0  0  0  0
   20.8550  -10.0948  -16.8506 S   0  0  0  0  0  0  0  0  0  0  0  0
   20.6191   -7.9531  -13.4153 C   0  0  0  0  0  0  0  0  0  0  0  0
   21.6388   -7.8857  -12.6690 O   0  0  0  0  0  0  0  0  0  0  0  0
   19.3399   -7.8076  -12.8224 N   0  0  0  0  0  0  0  0  0  0  0  0
   19.1472   -7.4992  -11.4216 C   0  0  0  0  0  0  0  0  0  0  0  0
   17.7268   -7.1788  -11.1966 C   0  0  0  0  0  0  0  0  0  0  0  0
   16.9862   -6.9582  -12.1790 O   0  0  0  0  0  0  0  0  0  0  0  0
   17.2108   -7.1217   -9.8962 N   0  0  0  0  0  0  0  0  0  0  0  0
   15.8352   -6.7378   -9.6674 C   0  0  1  0  0  0  0  0  0  0  0  0
   15.0848   -7.7404   -8.8467 C   0  0  0  0  0  0  0  0  0  0  0  0
   13.6443   -7.4713   -8.6785 C   0  0  0  0  0  0  0  0  0  0  0  0
   12.8702   -8.4323   -7.8476 C   0  0  0  0  0  0  0  0  0  0  0  0
   11.3884   -8.0586   -7.8193 C   0  0  0  0  0  0  0  0  0  0  0  0
   10.7167   -9.0849   -7.0568 N   0  0  0  0  0  0  0  0  0  0  0  0
   15.7503   -5.3568   -9.1475 C   0  0  0  0  0  0  0  0  0  0  0  0
   16.8638   -4.7471   -8.5563 O   0  0  0  0  0  0  0  0  0  0  0  0
   14.6976   -4.6802   -9.2137 O   0  0  0  0  0  0  0  0  0  0  0  0
  2  1  1  1
  3  2  1  0
  4  3  1  0
  5  6  2  0
  5  2  1  0
  7  5  1  0
  8  7  1  0
  9 11  1  0
  9  8  1  0
 10  9  2  0
 12 11  1  0
 12 13  1  1
 13 14  1  0
 14 15  1  0
 15 16  1  0
 16 17  1  0
 18 12  1  0
 19 18  1  0
 20 18  2  0
M  END
$$$$
