CGK.pdb
     RDKit          3D

 20 19  0  0  1  0  0  0  0  0999 V2000
   24.1041  -21.1681  -11.7469 N   0  0  0  0  0  0  0  0  0  0  0  0
   25.2846  -20.3873  -11.4800 C   0  0  1  0  0  0  0  0  0  0  0  0
   25.8876  -20.8335  -10.1724 C   0  0  0  0  0  0  0  0  0  0  0  0
   24.7052  -20.6742   -8.8042 S   0  0  0  0  0  0  0  0  0  0  0  0
   26.2863  -20.6437  -12.5454 C   0  0  0  0  0  0  0  0  0  0  0  0
   26.5276  -21.8182  -12.9499 O   0  0  0  0  0  0  0  0  0  0  0  0
   26.9978  -19.5689  -13.1350 N   0  0  0  0  0  0  0  0  0  0  0  0
   27.9286  -19.7418  -14.2296 C   0  0  0  0  0  0  0  0  0  0  0  0
   27.1664  -19.9454  -15.4739 C   0  0  0  0  0  0  0  0  0  0  0  0
   27.4136  -19.2282  -16.4673 O   0  0  0  0  0  0  0  0  0  0  0  0
   26.1751  -20.9319  -15.5441 N   0  0  0  0  0  0  0  0  0  0  0  0
   25.5096  -21.2174  -16.7961 C   0  0  1  0  0  0  0  0  0  0  0  0
   25.1763  -22.6685  -16.9549 C   0  0  0  0  0  0  0  0  0  0  0  0
   24.4596  -23.0223  -18.1947 C   0  0  0  0  0  0  0  0  0  0  0  0
   24.0106  -24.4336  -18.3360 C   0  0  0  0  0  0  0  0  0  0  0  0
   23.3029  -24.6495  -19.6734 C   0  0  0  0  0  0  0  0  0  0  0  0
   22.8608  -26.0242  -19.6910 N   0  0  0  0  0  0  0  0  0  0  0  0
   24.3579  -20.3142  -17.0017 C   0  0  0  0  0  0  0  0  0  0  0  0
   24.0114  -19.8808  -18.2874 O   0  0  0  0  0  0  0  0  0  0  0  0
   23.6501  -19.9051  -16.0518 O   0  0  0  0  0  0  0  0  0  0  0  0
  2  1  1  6
  3  2  1  0
  4  3  1  0
  5  6  2  0
  5  2  1  0
  7  5  1  0
  8  7  1  0
  9 11  1  0
  9  8  1  0
 10  9  2  0
 12 11  1  0
 12 13  1  1
 13 14  1  0
 14 15  1  0
 15 16  1  0
 16 17  1  0
 18 12  1  0
 19 18  1  0
 20 18  2  0
M  END
$$$$
