CGK.pdb
     RDKit          3D

 20 19  0  0  1  0  0  0  0  0999 V2000
   20.9219  -27.6131  -11.8359 N   0  0  0  0  0  0  0  0  0  0  0  0
   19.8530  -28.1186  -11.0136 C   0  0  1  0  0  0  0  0  0  0  0  0
   20.4394  -28.8999   -9.8654 C   0  0  0  0  0  0  0  0  0  0  0  0
   21.6289  -30.1433  -10.4436 S   0  0  0  0  0  0  0  0  0  0  0  0
   19.1011  -26.9747  -10.4388 C   0  0  0  0  0  0  0  0  0  0  0  0
   19.1386  -26.7216   -9.1995 O   0  0  0  0  0  0  0  0  0  0  0  0
   18.3202  -26.1371  -11.2739 N   0  0  0  0  0  0  0  0  0  0  0  0
   18.1613  -24.7170  -11.0444 C   0  0  0  0  0  0  0  0  0  0  0  0
   18.6093  -23.9886  -12.2441 C   0  0  0  0  0  0  0  0  0  0  0  0
   19.7441  -24.2216  -12.7132 O   0  0  0  0  0  0  0  0  0  0  0  0
   17.7733  -23.0449  -12.8533 N   0  0  0  0  0  0  0  0  0  0  0  0
   18.0993  -22.5059  -14.1553 C   0  0  1  0  0  0  0  0  0  0  0  0
   18.1937  -23.5637  -15.2109 C   0  0  0  0  0  0  0  0  0  0  0  0
   16.9126  -24.1743  -15.6129 C   0  0  0  0  0  0  0  0  0  0  0  0
   16.9747  -25.2893  -16.5958 C   0  0  0  0  0  0  0  0  0  0  0  0
   15.5807  -25.8524  -16.8706 C   0  0  0  0  0  0  0  0  0  0  0  0
   15.7432  -26.9013  -17.8500 N   0  0  0  0  0  0  0  0  0  0  0  0
   17.1969  -21.3897  -14.5075 C   0  0  0  0  0  0  0  0  0  0  0  0
   17.4145  -20.6344  -15.6664 O   0  0  0  0  0  0  0  0  0  0  0  0
   16.2118  -21.0762  -13.7991 O   0  0  0  0  0  0  0  0  0  0  0  0
  2  1  1  6
  3  2  1  0
  4  3  1  0
  5  6  2  0
  5  2  1  0
  7  5  1  0
  8  7  1  0
  9 11  1  0
  9  8  1  0
 10  9  2  0
 12 11  1  0
 12 13  1  6
 13 14  1  0
 14 15  1  0
 15 16  1  0
 16 17  1  0
 18 12  1  0
 19 18  1  0
 20 18  2  0
M  END
$$$$
