CGK.pdb
     RDKit          3D

 20 19  0  0  1  0  0  0  0  0999 V2000
   25.4191  -10.7730  -16.5629 N   0  0  0  0  0  0  0  0  0  0  0  0
   23.9844  -10.8848  -16.6202 C   0  0  1  0  0  0  0  0  0  0  0  0
   23.5839  -12.2957  -16.2713 C   0  0  0  0  0  0  0  0  0  0  0  0
   24.4791  -13.5114  -17.2791 S   0  0  0  0  0  0  0  0  0  0  0  0
   23.3870   -9.9851  -15.6015 C   0  0  0  0  0  0  0  0  0  0  0  0
   23.8968   -9.8693  -14.4491 O   0  0  0  0  0  0  0  0  0  0  0  0
   22.2245   -9.2322  -15.9024 N   0  0  0  0  0  0  0  0  0  0  0  0
   21.6014   -8.3276  -14.9600 C   0  0  0  0  0  0  0  0  0  0  0  0
   20.4213   -7.7170  -15.5967 C   0  0  0  0  0  0  0  0  0  0  0  0
   20.2125   -7.9125  -16.8134 O   0  0  0  0  0  0  0  0  0  0  0  0
   19.5421   -6.9257  -14.8474 N   0  0  0  0  0  0  0  0  0  0  0  0
   18.3641   -6.3531  -15.4609 C   0  0  1  0  0  0  0  0  0  0  0  0
   17.1188   -7.1248  -15.1512 C   0  0  0  0  0  0  0  0  0  0  0  0
   15.8856   -6.6181  -15.7822 C   0  0  0  0  0  0  0  0  0  0  0  0
   14.6316   -7.3734  -15.5168 C   0  0  0  0  0  0  0  0  0  0  0  0
   13.4428   -6.7219  -16.2227 C   0  0  0  0  0  0  0  0  0  0  0  0
   12.2879   -7.5374  -15.9276 N   0  0  0  0  0  0  0  0  0  0  0  0
   18.2610   -4.9090  -15.1636 C   0  0  0  0  0  0  0  0  0  0  0  0
   17.6692   -4.0319  -16.0810 O   0  0  0  0  0  0  0  0  0  0  0  0
   18.6882   -4.4134  -14.0948 O   0  0  0  0  0  0  0  0  0  0  0  0
  2  1  1  1
  3  2  1  0
  4  3  1  0
  5  6  2  0
  5  2  1  0
  7  5  1  0
  8  7  1  0
  9 11  1  0
  9  8  1  0
 10  9  2  0
 12 11  1  0
 12 13  1  1
 13 14  1  0
 14 15  1  0
 15 16  1  0
 16 17  1  0
 18 12  1  0
 19 18  1  0
 20 18  2  0
M  END
$$$$
