CGK.pdb
     RDKit          3D

 20 19  0  0  1  0  0  0  0  0999 V2000
   24.2725  -21.0462  -11.1786 N   0  0  0  0  0  0  0  0  0  0  0  0
   25.4736  -20.3033  -11.4613 C   0  0  1  0  0  0  0  0  0  0  0  0
   26.4409  -20.4730  -10.3177 C   0  0  0  0  0  0  0  0  0  0  0  0
   25.6586  -20.1024   -8.7221 S   0  0  0  0  0  0  0  0  0  0  0  0
   26.1152  -20.8638  -12.6771 C   0  0  0  0  0  0  0  0  0  0  0  0
   25.8639  -22.0409  -13.0679 O   0  0  0  0  0  0  0  0  0  0  0  0
   27.0292  -20.0850  -13.4301 N   0  0  0  0  0  0  0  0  0  0  0  0
   26.6167  -19.1581  -14.4622 C   0  0  0  0  0  0  0  0  0  0  0  0
   25.9299  -19.9086  -15.5279 C   0  0  0  0  0  0  0  0  0  0  0  0
   26.5854  -20.3102  -16.5134 O   0  0  0  0  0  0  0  0  0  0  0  0
   24.5572  -20.1697  -15.4388 N   0  0  0  0  0  0  0  0  0  0  0  0
   23.9930  -21.3536  -16.0489 C   0  0  1  0  0  0  0  0  0  0  0  0
   24.5836  -22.6190  -15.5083 C   0  0  0  0  0  0  0  0  0  0  0  0
   25.4529  -23.3615  -16.4403 C   0  0  0  0  0  0  0  0  0  0  0  0
   25.9407  -24.6938  -15.9927 C   0  0  0  0  0  0  0  0  0  0  0  0
   26.7628  -25.3702  -17.0894 C   0  0  0  0  0  0  0  0  0  0  0  0
   27.2176  -26.6299  -16.5490 N   0  0  0  0  0  0  0  0  0  0  0  0
   22.5160  -21.3183  -16.0069 C   0  0  0  0  0  0  0  0  0  0  0  0
   21.8278  -21.6314  -14.8282 O   0  0  0  0  0  0  0  0  0  0  0  0
   21.8252  -21.0093  -17.0058 O   0  0  0  0  0  0  0  0  0  0  0  0
  2  1  1  1
  3  2  1  0
  4  3  1  0
  5  6  2  0
  5  2  1  0
  7  5  1  0
  8  7  1  0
  9 11  1  0
  9  8  1  0
 10  9  2  0
 12 11  1  0
 12 13  1  1
 13 14  1  0
 14 15  1  0
 15 16  1  0
 16 17  1  0
 18 12  1  0
 19 18  1  0
 20 18  2  0
M  END
$$$$
