CGK.pdb
     RDKit          3D

 20 19  0  0  1  0  0  0  0  0999 V2000
   28.8407  -17.2426  -18.2702 N   0  0  0  0  0  0  0  0  0  0  0  0
   27.6948  -17.4716  -17.4283 C   0  0  1  0  0  0  0  0  0  0  0  0
   26.4660  -17.6060  -18.2912 C   0  0  0  0  0  0  0  0  0  0  0  0
   26.0963  -16.0613  -19.1701 S   0  0  0  0  0  0  0  0  0  0  0  0
   27.8749  -18.7545  -16.7031 C   0  0  0  0  0  0  0  0  0  0  0  0
   27.8319  -19.8633  -17.3113 O   0  0  0  0  0  0  0  0  0  0  0  0
   28.1003  -18.7622  -15.3037 N   0  0  0  0  0  0  0  0  0  0  0  0
   28.3924  -19.9662  -14.5557 C   0  0  0  0  0  0  0  0  0  0  0  0
   27.1595  -20.7643  -14.4395 C   0  0  0  0  0  0  0  0  0  0  0  0
   27.1822  -21.8352  -13.7954 O   0  0  0  0  0  0  0  0  0  0  0  0
   25.9739  -20.3287  -15.0439 N   0  0  0  0  0  0  0  0  0  0  0  0
   24.7842  -21.1502  -15.0053 C   0  0  1  0  0  0  0  0  0  0  0  0
   23.7013  -20.5587  -14.1570 C   0  0  0  0  0  0  0  0  0  0  0  0
   22.4132  -21.2769  -14.1814 C   0  0  0  0  0  0  0  0  0  0  0  0
   21.3212  -20.7344  -13.3291 C   0  0  0  0  0  0  0  0  0  0  0  0
   20.0334  -21.5360  -13.5170 C   0  0  0  0  0  0  0  0  0  0  0  0
   19.0280  -20.9031  -12.6958 N   0  0  0  0  0  0  0  0  0  0  0  0
   24.3445  -21.5100  -16.3697 C   0  0  0  0  0  0  0  0  0  0  0  0
   24.3464  -20.5561  -17.3949 O   0  0  0  0  0  0  0  0  0  0  0  0
   23.9598  -22.6652  -16.6663 O   0  0  0  0  0  0  0  0  0  0  0  0
  2  1  1  6
  3  2  1  0
  4  3  1  0
  5  6  2  0
  5  2  1  0
  7  5  1  0
  8  7  1  0
  9 11  1  0
  9  8  1  0
 10  9  2  0
 12 11  1  0
 12 13  1  6
 13 14  1  0
 14 15  1  0
 15 16  1  0
 16 17  1  0
 18 12  1  0
 19 18  1  0
 20 18  2  0
M  END
$$$$
