CGK.pdb
     RDKit          3D

 20 19  0  0  1  0  0  0  0  0999 V2000
   25.0741  -20.7216   -7.5229 N   0  0  0  0  0  0  0  0  0  0  0  0
   26.1799  -20.2445   -8.3127 C   0  0  1  0  0  0  0  0  0  0  0  0
   27.4652  -20.4916   -7.5646 C   0  0  0  0  0  0  0  0  0  0  0  0
   27.7723  -19.2032   -6.3232 S   0  0  0  0  0  0  0  0  0  0  0  0
   26.2422  -21.0195   -9.5774 C   0  0  0  0  0  0  0  0  0  0  0  0
   26.0601  -22.2717   -9.5890 O   0  0  0  0  0  0  0  0  0  0  0  0
   26.5091  -20.3665  -10.8068 N   0  0  0  0  0  0  0  0  0  0  0  0
   26.4244  -21.0299  -12.0902 C   0  0  0  0  0  0  0  0  0  0  0  0
   25.5390  -20.2486  -12.9715 C   0  0  0  0  0  0  0  0  0  0  0  0
   24.7722  -19.3983  -12.4703 O   0  0  0  0  0  0  0  0  0  0  0  0
   25.5558  -20.4557  -14.3562 N   0  0  0  0  0  0  0  0  0  0  0  0
   24.7255  -19.6553  -15.2291 C   0  0  1  0  0  0  0  0  0  0  0  0
   25.2827  -19.5449  -16.6146 C   0  0  0  0  0  0  0  0  0  0  0  0
   24.5851  -18.5980  -17.5048 C   0  0  0  0  0  0  0  0  0  0  0  0
   25.0428  -18.5385  -18.9191 C   0  0  0  0  0  0  0  0  0  0  0  0
   24.1938  -17.5566  -19.7261 C   0  0  0  0  0  0  0  0  0  0  0  0
   24.6436  -17.6482  -21.0955 N   0  0  0  0  0  0  0  0  0  0  0  0
   23.3195  -20.1091  -15.1854 C   0  0  0  0  0  0  0  0  0  0  0  0
   22.2708  -19.2047  -15.3931 O   0  0  0  0  0  0  0  0  0  0  0  0
   23.0080  -21.3032  -14.9673 O   0  0  0  0  0  0  0  0  0  0  0  0
  2  1  1  1
  3  2  1  0
  4  3  1  0
  5  6  2  0
  5  2  1  0
  7  5  1  0
  8  7  1  0
  9 11  1  0
  9  8  1  0
 10  9  2  0
 12 11  1  0
 12 13  1  6
 13 14  1  0
 14 15  1  0
 15 16  1  0
 16 17  1  0
 18 12  1  0
 19 18  1  0
 20 18  2  0
M  END
$$$$
