CGK.pdb
     RDKit          3D

 20 19  0  0  1  0  0  0  0  0999 V2000
   28.6067  -19.8554  -14.1510 N   0  0  0  0  0  0  0  0  0  0  0  0
   27.2867  -20.3679  -14.4139 C   0  0  1  0  0  0  0  0  0  0  0  0
   27.4015  -21.7465  -15.0130 C   0  0  0  0  0  0  0  0  0  0  0  0
   28.3339  -21.7210  -16.5704 S   0  0  0  0  0  0  0  0  0  0  0  0
   26.5525  -20.4977  -13.1300 C   0  0  0  0  0  0  0  0  0  0  0  0
   27.1688  -20.6232  -12.0319 O   0  0  0  0  0  0  0  0  0  0  0  0
   25.1354  -20.4834  -13.1091 N   0  0  0  0  0  0  0  0  0  0  0  0
   24.3610  -20.5508  -11.8884 C   0  0  0  0  0  0  0  0  0  0  0  0
   22.9331  -20.4098  -12.2230 C   0  0  0  0  0  0  0  0  0  0  0  0
   22.1569  -19.8965  -11.3886 O   0  0  0  0  0  0  0  0  0  0  0  0
   22.4496  -20.8460  -13.4625 N   0  0  0  0  0  0  0  0  0  0  0  0
   21.0599  -20.6583  -13.8168 C   0  0  1  0  0  0  0  0  0  0  0  0
   20.8438  -20.6035  -15.2975 C   0  0  0  0  0  0  0  0  0  0  0  0
   21.1606  -19.3127  -15.9371 C   0  0  0  0  0  0  0  0  0  0  0  0
   22.5751  -19.0875  -16.3393 C   0  0  0  0  0  0  0  0  0  0  0  0
   22.7630  -17.6814  -16.9082 C   0  0  0  0  0  0  0  0  0  0  0  0
   24.1802  -17.5087  -17.1266 N   0  0  0  0  0  0  0  0  0  0  0  0
   20.1994  -21.6400  -13.1236 C   0  0  0  0  0  0  0  0  0  0  0  0
   18.9622  -21.2551  -12.5925 O   0  0  0  0  0  0  0  0  0  0  0  0
   20.5310  -22.8406  -12.9850 O   0  0  0  0  0  0  0  0  0  0  0  0
  2  1  1  1
  3  2  1  0
  4  3  1  0
  5  6  2  0
  5  2  1  0
  7  5  1  0
  8  7  1  0
  9 11  1  0
  9  8  1  0
 10  9  2  0
 12 11  1  0
 12 13  1  6
 13 14  1  0
 14 15  1  0
 15 16  1  0
 16 17  1  0
 18 12  1  0
 19 18  1  0
 20 18  2  0
M  END
$$$$
