CGK.pdb
     RDKit          3D

 20 19  0  0  1  0  0  0  0  0999 V2000
   18.9574  -27.3516   -1.2273 N   0  0  0  0  0  0  0  0  0  0  0  0
   19.4424  -27.1193    0.1087 C   0  0  1  0  0  0  0  0  0  0  0  0
   20.5730  -26.1234    0.0585 C   0  0  0  0  0  0  0  0  0  0  0  0
   21.7916  -26.5619   -1.2135 S   0  0  0  0  0  0  0  0  0  0  0  0
   18.3543  -26.5205    0.9221 C   0  0  0  0  0  0  0  0  0  0  0  0
   17.1554  -26.5228    0.5170 O   0  0  0  0  0  0  0  0  0  0  0  0
   18.6395  -25.9295    2.1784 N   0  0  0  0  0  0  0  0  0  0  0  0
   17.7210  -25.9642    3.2962 C   0  0  0  0  0  0  0  0  0  0  0  0
   18.3332  -25.2599    4.4364 C   0  0  0  0  0  0  0  0  0  0  0  0
   19.5444  -24.9554    4.3886 O   0  0  0  0  0  0  0  0  0  0  0  0
   17.5669  -24.9346    5.5623 N   0  0  0  0  0  0  0  0  0  0  0  0
   18.1687  -24.2590    6.6907 C   0  0  1  0  0  0  0  0  0  0  0  0
   17.1787  -23.4598    7.4803 C   0  0  0  0  0  0  0  0  0  0  0  0
   17.7461  -22.6521    8.5763 C   0  0  0  0  0  0  0  0  0  0  0  0
   16.7829  -21.9493    9.4659 C   0  0  0  0  0  0  0  0  0  0  0  0
   17.5168  -21.1683   10.5557 C   0  0  0  0  0  0  0  0  0  0  0  0
   16.5056  -20.4866   11.3293 N   0  0  0  0  0  0  0  0  0  0  0  0
   18.9647  -25.1989    7.5077 C   0  0  0  0  0  0  0  0  0  0  0  0
   20.2023  -24.8129    8.0372 O   0  0  0  0  0  0  0  0  0  0  0  0
   18.5735  -26.3621    7.7615 O   0  0  0  0  0  0  0  0  0  0  0  0
  2  1  1  6
  3  2  1  0
  4  3  1  0
  5  6  2  0
  5  2  1  0
  7  5  1  0
  8  7  1  0
  9 11  1  0
  9  8  1  0
 10  9  2  0
 12 11  1  0
 12 13  1  1
 13 14  1  0
 14 15  1  0
 15 16  1  0
 16 17  1  0
 18 12  1  0
 19 18  1  0
 20 18  2  0
M  END
$$$$
