CGK.pdb
     RDKit          3D

 20 19  0  0  1  0  0  0  0  0999 V2000
   20.8559  -13.2030  -18.0637 N   0  0  0  0  0  0  0  0  0  0  0  0
   19.5726  -13.7776  -17.7519 C   0  0  1  0  0  0  0  0  0  0  0  0
   19.7750  -15.1531  -17.1689 C   0  0  0  0  0  0  0  0  0  0  0  0
   19.7912  -16.4288  -18.4603 S   0  0  0  0  0  0  0  0  0  0  0  0
   18.9079  -12.9463  -16.7169 C   0  0  0  0  0  0  0  0  0  0  0  0
   17.7557  -13.2374  -16.2823 O   0  0  0  0  0  0  0  0  0  0  0  0
   19.5564  -11.8008  -16.1912 N   0  0  0  0  0  0  0  0  0  0  0  0
   18.9776  -10.9672  -15.1595 C   0  0  0  0  0  0  0  0  0  0  0  0
   18.4393   -9.7452  -15.7822 C   0  0  0  0  0  0  0  0  0  0  0  0
   18.9277   -9.3413  -16.8594 O   0  0  0  0  0  0  0  0  0  0  0  0
   17.3914   -9.0430  -15.1745 N   0  0  0  0  0  0  0  0  0  0  0  0
   16.9055   -7.8069  -15.7472 C   0  0  1  0  0  0  0  0  0  0  0  0
   15.5137   -7.4742  -15.3065 C   0  0  0  0  0  0  0  0  0  0  0  0
   14.9679   -6.2085  -15.8316 C   0  0  0  0  0  0  0  0  0  0  0  0
   13.5810   -5.8520  -15.4283 C   0  0  0  0  0  0  0  0  0  0  0  0
   13.1212   -4.5733  -16.1280 C   0  0  0  0  0  0  0  0  0  0  0  0
   11.7368   -4.3779  -15.7660 N   0  0  0  0  0  0  0  0  0  0  0  0
   17.8752   -6.7106  -15.5411 C   0  0  0  0  0  0  0  0  0  0  0  0
   18.7074   -6.6961  -14.4150 O   0  0  0  0  0  0  0  0  0  0  0  0
   17.9964   -5.7629  -16.3520 O   0  0  0  0  0  0  0  0  0  0  0  0
  2  1  1  1
  3  2  1  0
  4  3  1  0
  5  6  2  0
  5  2  1  0
  7  5  1  0
  8  7  1  0
  9 11  1  0
  9  8  1  0
 10  9  2  0
 12 11  1  0
 12 13  1  1
 13 14  1  0
 14 15  1  0
 15 16  1  0
 16 17  1  0
 18 12  1  0
 19 18  1  0
 20 18  2  0
M  END
$$$$
