CGK.pdb
     RDKit          3D

 20 19  0  0  1  0  0  0  0  0999 V2000
   29.5180  -22.1809  -13.6167 N   0  0  0  0  0  0  0  0  0  0  0  0
   28.8646  -21.2047  -12.7834 C   0  0  1  0  0  0  0  0  0  0  0  0
   29.8887  -20.5516  -11.8905 C   0  0  0  0  0  0  0  0  0  0  0  0
   30.4353  -21.6729  -10.5717 S   0  0  0  0  0  0  0  0  0  0  0  0
   28.2809  -20.1454  -13.6443 C   0  0  0  0  0  0  0  0  0  0  0  0
   28.8821  -19.7368  -14.6801 O   0  0  0  0  0  0  0  0  0  0  0  0
   27.0284  -19.5664  -13.3201 N   0  0  0  0  0  0  0  0  0  0  0  0
   26.3822  -18.5661  -14.1425 C   0  0  0  0  0  0  0  0  0  0  0  0
   24.9609  -18.9226  -14.2956 C   0  0  0  0  0  0  0  0  0  0  0  0
   24.4996  -19.8889  -13.6509 O   0  0  0  0  0  0  0  0  0  0  0  0
   24.1346  -18.1873  -15.1541 N   0  0  0  0  0  0  0  0  0  0  0  0
   22.7455  -18.5511  -15.3275 C   0  0  1  0  0  0  0  0  0  0  0  0
   21.9459  -17.4755  -15.9952 C   0  0  0  0  0  0  0  0  0  0  0  0
   20.4953  -17.7270  -16.0851 C   0  0  0  0  0  0  0  0  0  0  0  0
   19.6897  -16.7587  -16.8766 C   0  0  0  0  0  0  0  0  0  0  0  0
   18.2252  -17.1914  -16.9404 C   0  0  0  0  0  0  0  0  0  0  0  0
   17.5434  -16.2254  -17.7697 N   0  0  0  0  0  0  0  0  0  0  0  0
   22.6214  -19.8751  -15.9726 C   0  0  0  0  0  0  0  0  0  0  0  0
   21.6010  -20.7583  -15.5988 O   0  0  0  0  0  0  0  0  0  0  0  0
   23.4079  -20.2591  -16.8695 O   0  0  0  0  0  0  0  0  0  0  0  0
  2  1  1  6
  3  2  1  0
  4  3  1  0
  5  6  2  0
  5  2  1  0
  7  5  1  0
  8  7  1  0
  9 11  1  0
  9  8  1  0
 10  9  2  0
 12 11  1  0
 12 13  1  6
 13 14  1  0
 14 15  1  0
 15 16  1  0
 16 17  1  0
 18 12  1  0
 19 18  1  0
 20 18  2  0
M  END
$$$$
