ANT.pdb
     RDKit          3D

 21 20  0  0  1  0  0  0  0  0999 V2000
    8.2356  -12.3260   18.9384 C   0  0  0  0  0  0  0  0  0  0  0  0
    8.3729  -13.7900   18.6015 C   0  0  2  0  0  0  0  0  0  0  0  0
    7.3102  -14.2300   17.7272 N   0  0  0  0  0  0  0  0  0  0  0  0
    8.2806  -14.5636   19.8626 C   0  0  0  0  0  0  0  0  0  0  0  0
    7.1312  -14.9044   20.2571 O   0  0  0  0  0  0  0  0  0  0  0  0
   10.1654  -19.0706   22.7971 N   0  0  0  0  0  0  0  0  0  0  0  0
   10.5803  -17.7200   22.8102 C   0  0  0  0  0  0  0  0  0  0  0  0
   11.0517  -17.3153   23.9278 O   0  0  0  0  0  0  0  0  0  0  0  0
   10.4930  -16.8200   21.6487 C   0  0  0  0  0  0  0  0  0  0  0  0
    9.4117  -15.7780   21.7500 C   0  0  2  0  0  0  0  0  0  0  0  0
    9.4380  -14.9133   20.6073 N   0  0  0  0  0  0  0  0  0  0  0  0
    9.4521  -15.0694   23.0506 C   0  0  0  0  0  0  0  0  0  0  0  0
   10.2663  -14.1475   23.2438 O   0  0  0  0  0  0  0  0  0  0  0  0
    6.9708  -13.3956   26.8577 C   0  0  0  0  0  0  0  0  0  0  0  0
    7.0333  -14.2430   25.5931 C   0  0  1  0  0  0  0  0  0  0  0  0
    6.6887  -13.3909   24.5414 O   0  0  0  0  0  0  0  0  0  0  0  0
    8.4155  -14.7544   25.3284 C   0  0  2  0  0  0  0  0  0  0  0  0
    8.5762  -15.4280   24.0752 N   0  0  0  0  0  0  0  0  0  0  0  0
    8.8061  -15.6424   26.4419 C   0  0  0  0  0  0  0  0  0  0  0  0
    9.5401  -15.2101   27.5376 O   0  0  0  0  0  0  0  0  0  0  0  0
    8.4756  -16.8695   26.4383 O   0  0  0  0  0  0  0  0  0  0  0  0
  2  1  1  1
  2  4  1  0
  3  2  1  0
  4 11  1  0
  4  5  2  0
  6  7  1  0
  7  8  2  0
 10  9  1  6
  9  7  1  0
 10 12  1  0
 11 10  1  0
 12 18  1  0
 13 12  2  0
 15 14  1  1
 16 15  1  0
 17 19  1  0
 17 15  1  0
 17 18  1  6
 19 21  2  0
 19 20  1  0
M  END
$$$$
