ANT.pdb
     RDKit          3D

 21 20  0  0  1  0  0  0  0  0999 V2000
    8.3712  -12.0517   18.6193 C   0  0  0  0  0  0  0  0  0  0  0  0
    8.7397  -13.2989   17.8549 C   0  0  2  0  0  0  0  0  0  0  0  0
    7.5813  -13.8933   17.2289 N   0  0  0  0  0  0  0  0  0  0  0  0
    9.2973  -14.2803   18.8159 C   0  0  0  0  0  0  0  0  0  0  0  0
    8.4874  -15.0524   19.3997 O   0  0  0  0  0  0  0  0  0  0  0  0
   12.6394  -17.6005   17.8088 N   0  0  0  0  0  0  0  0  0  0  0  0
   12.8198  -16.2278   18.0915 C   0  0  0  0  0  0  0  0  0  0  0  0
   13.0976  -15.5036   17.0750 O   0  0  0  0  0  0  0  0  0  0  0  0
   12.7040  -15.6416   19.4367 C   0  0  0  0  0  0  0  0  0  0  0  0
   11.2899  -15.3807   19.8811 C   0  0  2  0  0  0  0  0  0  0  0  0
   10.6910  -14.3565   19.0772 N   0  0  0  0  0  0  0  0  0  0  0  0
   11.2095  -15.1344   21.3400 C   0  0  0  0  0  0  0  0  0  0  0  0
   11.8984  -14.2431   21.8701 O   0  0  0  0  0  0  0  0  0  0  0  0
    8.1875  -14.1938   23.4092 C   0  0  0  0  0  0  0  0  0  0  0  0
    8.7241  -15.5152   23.9452 C   0  0  1  0  0  0  0  0  0  0  0  0
    7.9505  -16.5144   23.3502 O   0  0  0  0  0  0  0  0  0  0  0  0
   10.1486  -15.7457   23.5452 C   0  0  2  0  0  0  0  0  0  0  0  0
   10.3589  -15.9001   22.1374 N   0  0  0  0  0  0  0  0  0  0  0  0
   10.6522  -16.9285   24.2720 C   0  0  0  0  0  0  0  0  0  0  0  0
   10.8552  -16.9479   25.6448 O   0  0  0  0  0  0  0  0  0  0  0  0
   10.9261  -18.0025   23.6503 O   0  0  0  0  0  0  0  0  0  0  0  0
  2  1  1  1
  2  4  1  0
  3  2  1  0
  4 11  1  0
  4  5  2  0
  6  7  1  0
  7  8  2  0
 10  9  1  6
  9  7  1  0
 10 12  1  0
 11 10  1  0
 12 18  1  0
 13 12  2  0
 15 14  1  6
 16 15  1  0
 17 19  1  0
 17 15  1  0
 17 18  1  6
 19 21  2  0
 19 20  1  0
M  END
$$$$
