ANT.pdb
     RDKit          3D

 21 20  0  0  1  0  0  0  0  0999 V2000
    6.3729  -19.1485   21.5256 C   0  0  0  0  0  0  0  0  0  0  0  0
    5.9724  -19.0069   20.0781 C   0  0  2  0  0  0  0  0  0  0  0  0
    6.1336  -20.2525   19.3639 N   0  0  0  0  0  0  0  0  0  0  0  0
    6.8602  -17.9991   19.4509 C   0  0  0  0  0  0  0  0  0  0  0  0
    7.5672  -18.3699   18.4734 O   0  0  0  0  0  0  0  0  0  0  0  0
    8.0704  -11.9508   19.2138 N   0  0  0  0  0  0  0  0  0  0  0  0
    7.9604  -13.2716   18.7240 C   0  0  0  0  0  0  0  0  0  0  0  0
    8.6226  -13.5034   17.6549 O   0  0  0  0  0  0  0  0  0  0  0  0
    7.1576  -14.3245   19.3669 C   0  0  0  0  0  0  0  0  0  0  0  0
    7.8185  -15.6763   19.4010 C   0  0  2  0  0  0  0  0  0  0  0  0
    6.9203  -16.6622   19.9256 N   0  0  0  0  0  0  0  0  0  0  0  0
    9.1337  -15.6274   20.0815 C   0  0  0  0  0  0  0  0  0  0  0  0
    9.3014  -14.9074   21.0832 O   0  0  0  0  0  0  0  0  0  0  0  0
   11.4915  -13.6094   20.0857 C   0  0  0  0  0  0  0  0  0  0  0  0
   12.0117  -14.7565   19.2284 C   0  0  1  0  0  0  0  0  0  0  0  0
   13.4050  -14.6901   19.3010 O   0  0  0  0  0  0  0  0  0  0  0  0
   11.5925  -16.0910   19.7629 C   0  0  2  0  0  0  0  0  0  0  0  0
   10.2010  -16.3896   19.6064 N   0  0  0  0  0  0  0  0  0  0  0  0
   11.9762  -16.1652   21.1871 C   0  0  0  0  0  0  0  0  0  0  0  0
   11.0579  -16.3331   22.2141 O   0  0  0  0  0  0  0  0  0  0  0  0
   13.1951  -16.0756   21.5350 O   0  0  0  0  0  0  0  0  0  0  0  0
  2  1  1  1
  2  4  1  0
  3  2  1  0
  4 11  1  0
  4  5  2  0
  6  7  1  0
  7  8  2  0
 10  9  1  1
  9  7  1  0
 10 12  1  0
 11 10  1  0
 12 18  1  0
 13 12  2  0
 15 14  1  1
 16 15  1  0
 17 19  1  0
 17 15  1  0
 17 18  1  1
 19 21  2  0
 19 20  1  0
M  END
$$$$
