ANT.pdb
     RDKit          3D

 21 20  0  0  1  0  0  0  0  0999 V2000
    8.2682  -12.4788   19.0518 C   0  0  0  0  0  0  0  0  0  0  0  0
    8.5007  -13.8845   18.5560 C   0  0  2  0  0  0  0  0  0  0  0  0
    7.3837  -14.3561   17.7703 N   0  0  0  0  0  0  0  0  0  0  0  0
    8.6405  -14.7717   19.7352 C   0  0  0  0  0  0  0  0  0  0  0  0
    7.5853  -15.1210   20.3329 O   0  0  0  0  0  0  0  0  0  0  0  0
   12.1842  -17.7610   18.6886 N   0  0  0  0  0  0  0  0  0  0  0  0
   11.2742  -17.8550   19.7654 C   0  0  0  0  0  0  0  0  0  0  0  0
   10.3711  -18.7496   19.6269 O   0  0  0  0  0  0  0  0  0  0  0  0
   11.3306  -17.0081   20.9680 C   0  0  0  0  0  0  0  0  0  0  0  0
   10.0872  -16.1971   21.2156 C   0  0  2  0  0  0  0  0  0  0  0  0
    9.9117  -15.2178   20.1841 N   0  0  0  0  0  0  0  0  0  0  0  0
   10.0562  -15.6454   22.5904 C   0  0  0  0  0  0  0  0  0  0  0  0
   10.8115  -14.7100   22.9139 O   0  0  0  0  0  0  0  0  0  0  0  0
    7.3921  -13.8493   24.3522 C   0  0  0  0  0  0  0  0  0  0  0  0
    7.6485  -15.1137   25.1627 C   0  0  1  0  0  0  0  0  0  0  0  0
    6.6903  -16.0399   24.7443 O   0  0  0  0  0  0  0  0  0  0  0  0
    8.9979  -15.6976   24.8794 C   0  0  2  0  0  0  0  0  0  0  0  0
    9.1783  -16.1691   23.5395 N   0  0  0  0  0  0  0  0  0  0  0  0
    9.2474  -16.7872   25.8446 C   0  0  0  0  0  0  0  0  0  0  0  0
    9.3190  -16.5864   27.2160 O   0  0  0  0  0  0  0  0  0  0  0  0
    9.4103  -17.9822   25.4444 O   0  0  0  0  0  0  0  0  0  0  0  0
  2  1  1  1
  2  4  1  0
  3  2  1  0
  4 11  1  0
  4  5  2  0
  6  7  1  0
  7  8  2  0
 10  9  1  6
  9  7  1  0
 10 12  1  0
 11 10  1  0
 12 18  1  0
 13 12  2  0
 15 14  1  6
 16 15  1  0
 17 19  1  0
 17 15  1  0
 17 18  1  6
 19 21  2  0
 19 20  1  0
M  END
$$$$
