ANT.pdb
     RDKit          3D

 21 20  0  0  1  0  0  0  0  0999 V2000
   -1.5427  -25.1652   26.6883 C   0  0  0  0  0  0  0  0  0  0  0  0
   -1.8606  -26.3430   27.5758 C   0  0  2  0  0  0  0  0  0  0  0  0
   -1.8994  -27.5744   26.8211 N   0  0  0  0  0  0  0  0  0  0  0  0
   -3.2015  -26.1246   28.1686 C   0  0  0  0  0  0  0  0  0  0  0  0
   -4.1842  -26.0481   27.3803 O   0  0  0  0  0  0  0  0  0  0  0  0
   -7.1494  -25.5803   31.6373 N   0  0  0  0  0  0  0  0  0  0  0  0
   -6.1197  -26.4335   32.0936 C   0  0  0  0  0  0  0  0  0  0  0  0
   -6.4120  -27.1170   33.1340 O   0  0  0  0  0  0  0  0  0  0  0  0
   -4.8025  -26.5535   31.4477 C   0  0  0  0  0  0  0  0  0  0  0  0
   -4.6541  -25.7485   30.1848 C   0  0  2  0  0  0  0  0  0  0  0  0
   -3.3841  -26.0042   29.5717 N   0  0  0  0  0  0  0  0  0  0  0  0
   -4.9425  -24.3129   30.4116 C   0  0  0  0  0  0  0  0  0  0  0  0
   -4.2681  -23.6528   31.2237 O   0  0  0  0  0  0  0  0  0  0  0  0
   -4.9790  -21.4875   27.8287 C   0  0  0  0  0  0  0  0  0  0  0  0
   -6.3612  -21.5950   28.4606 C   0  0  1  0  0  0  0  0  0  0  0  0
   -7.1226  -22.3780   27.5899 O   0  0  0  0  0  0  0  0  0  0  0  0
   -6.3204  -22.2959   29.7831 C   0  0  2  0  0  0  0  0  0  0  0  0
   -5.9750  -23.6838   29.7160 N   0  0  0  0  0  0  0  0  0  0  0  0
   -7.6304  -22.1246   30.4431 C   0  0  0  0  0  0  0  0  0  0  0  0
   -8.0715  -20.9121   30.9544 O   0  0  0  0  0  0  0  0  0  0  0  0
   -8.4247  -23.1083   30.5711 O   0  0  0  0  0  0  0  0  0  0  0  0
  2  1  1  6
  2  4  1  0
  3  2  1  0
  4 11  1  0
  4  5  2  0
  6  7  1  0
  7  8  2  0
 10  9  1  1
  9  7  1  0
 10 12  1  0
 11 10  1  0
 12 18  1  0
 13 12  2  0
 15 14  1  6
 16 15  1  0
 17 19  1  0
 17 15  1  0
 17 18  1  6
 19 21  2  0
 19 20  1  0
M  END
$$$$
