ANT.pdb
     RDKit          3D

 21 20  0  0  1  0  0  0  0  0999 V2000
    8.8561  -14.5100   18.7479 C   0  0  0  0  0  0  0  0  0  0  0  0
    7.8671  -13.7731   19.6166 C   0  0  2  0  0  0  0  0  0  0  0  0
    8.0572  -12.3434   19.5330 N   0  0  0  0  0  0  0  0  0  0  0  0
    8.0922  -14.1854   21.0226 C   0  0  0  0  0  0  0  0  0  0  0  0
    8.8276  -13.4498   21.7373 O   0  0  0  0  0  0  0  0  0  0  0  0
    6.3939  -18.2422   25.2608 N   0  0  0  0  0  0  0  0  0  0  0  0
    6.3777  -16.9168   24.7714 C   0  0  0  0  0  0  0  0  0  0  0  0
    6.3300  -16.0129   25.6746 O   0  0  0  0  0  0  0  0  0  0  0  0
    6.4129  -16.5658   23.3424 C   0  0  0  0  0  0  0  0  0  0  0  0
    7.6050  -15.7429   22.9339 C   0  0  2  0  0  0  0  0  0  0  0  0
    7.5060  -15.3640   21.5553 N   0  0  0  0  0  0  0  0  0  0  0  0
    8.8799  -16.4075   23.2925 C   0  0  0  0  0  0  0  0  0  0  0  0
    9.0959  -16.7720   24.4632 O   0  0  0  0  0  0  0  0  0  0  0  0
   10.8947  -18.6374   20.3781 C   0  0  0  0  0  0  0  0  0  0  0  0
   11.7758  -17.7391   21.2373 C   0  0  1  0  0  0  0  0  0  0  0  0
   11.9988  -16.5844   20.4838 O   0  0  0  0  0  0  0  0  0  0  0  0
   11.0917  -17.3290   22.5046 C   0  0  2  0  0  0  0  0  0  0  0  0
    9.8542  -16.6328   22.3200 N   0  0  0  0  0  0  0  0  0  0  0  0
   12.0292  -16.5075   23.2966 C   0  0  0  0  0  0  0  0  0  0  0  0
   13.2522  -16.9777   23.7543 O   0  0  0  0  0  0  0  0  0  0  0  0
   11.7432  -15.3064   23.5970 O   0  0  0  0  0  0  0  0  0  0  0  0
  2  1  1  6
  2  4  1  0
  3  2  1  0
  4 11  1  0
  4  5  2  0
  6  7  1  0
  7  8  2  0
 10  9  1  6
  9  7  1  0
 10 12  1  0
 11 10  1  0
 12 18  1  0
 13 12  2  0
 15 14  1  6
 16 15  1  0
 17 19  1  0
 17 15  1  0
 17 18  1  6
 19 21  2  0
 19 20  1  0
M  END
$$$$
