ANT.pdb
     RDKit          3D

 21 20  0  0  1  0  0  0  0  0999 V2000
    8.1716  -12.3533   19.3799 C   0  0  0  0  0  0  0  0  0  0  0  0
    8.3289  -13.8516   19.3038 C   0  0  2  0  0  0  0  0  0  0  0  0
    7.4820  -14.4177   18.2793 N   0  0  0  0  0  0  0  0  0  0  0  0
    7.9186  -14.4248   20.6078 C   0  0  0  0  0  0  0  0  0  0  0  0
    6.7081  -14.7536   20.7475 O   0  0  0  0  0  0  0  0  0  0  0  0
    7.9726  -18.3883   24.3716 N   0  0  0  0  0  0  0  0  0  0  0  0
    8.9241  -17.3572   24.2041 C   0  0  0  0  0  0  0  0  0  0  0  0
    9.6081  -17.0845   25.2495 O   0  0  0  0  0  0  0  0  0  0  0  0
    9.1399  -16.6326   22.9412 C   0  0  0  0  0  0  0  0  0  0  0  0
    8.5245  -15.2597   22.8996 C   0  0  2  0  0  0  0  0  0  0  0  0
    8.8466  -14.6013   21.6680 N   0  0  0  0  0  0  0  0  0  0  0  0
    8.8509  -14.4747   24.1131 C   0  0  0  0  0  0  0  0  0  0  0  0
    9.9424  -13.8836   24.2096 O   0  0  0  0  0  0  0  0  0  0  0  0
    6.4808  -11.7633   25.6655 C   0  0  0  0  0  0  0  0  0  0  0  0
    6.8376  -12.8125   26.7111 C   0  0  1  0  0  0  0  0  0  0  0  0
    5.7684  -13.7109   26.7352 O   0  0  0  0  0  0  0  0  0  0  0  0
    8.0675  -13.5808   26.3378 C   0  0  2  0  0  0  0  0  0  0  0  0
    7.9365  -14.3888   25.1630 N   0  0  0  0  0  0  0  0  0  0  0  0
    8.4663  -14.4129   27.4909 C   0  0  0  0  0  0  0  0  0  0  0  0
    8.8402  -13.8828   28.7179 O   0  0  0  0  0  0  0  0  0  0  0  0
    8.4824  -15.6803   27.4002 O   0  0  0  0  0  0  0  0  0  0  0  0
  2  1  1  1
  2  4  1  0
  3  2  1  0
  4 11  1  0
  4  5  2  0
  6  7  1  0
  7  8  2  0
 10  9  1  1
  9  7  1  0
 10 12  1  0
 11 10  1  0
 12 18  1  0
 13 12  2  0
 15 14  1  6
 16 15  1  0
 17 19  1  0
 17 15  1  0
 17 18  1  6
 19 21  2  0
 19 20  1  0
M  END
$$$$
