ANT.pdb
     RDKit          3D

 21 20  0  0  1  0  0  0  0  0999 V2000
    8.2425  -13.6420   17.0645 C   0  0  0  0  0  0  0  0  0  0  0  0
    8.5498  -14.0111   15.6344 C   0  0  2  0  0  0  0  0  0  0  0  0
    7.3394  -14.2253   14.8752 N   0  0  0  0  0  0  0  0  0  0  0  0
    9.3189  -15.2782   15.6407 C   0  0  0  0  0  0  0  0  0  0  0  0
    8.6697  -16.3571   15.5541 O   0  0  0  0  0  0  0  0  0  0  0  0
   12.6928  -17.7680   12.9686 N   0  0  0  0  0  0  0  0  0  0  0  0
   12.6268  -16.5331   13.6522 C   0  0  0  0  0  0  0  0  0  0  0  0
   12.4080  -15.5185   12.9054 O   0  0  0  0  0  0  0  0  0  0  0  0
   12.7908  -16.3874   15.1077 C   0  0  0  0  0  0  0  0  0  0  0  0
   11.5090  -16.4855   15.8904 C   0  0  2  0  0  0  0  0  0  0  0  0
   10.7354  -15.2884   15.7405 N   0  0  0  0  0  0  0  0  0  0  0  0
   11.7536  -16.8800   17.2975 C   0  0  0  0  0  0  0  0  0  0  0  0
   12.2051  -16.0575   18.1158 O   0  0  0  0  0  0  0  0  0  0  0  0
    9.0650  -18.6667   19.5039 C   0  0  0  0  0  0  0  0  0  0  0  0
   10.3515  -19.4827   19.4879 C   0  0  1  0  0  0  0  0  0  0  0  0
   10.1648  -20.4767   18.5246 O   0  0  0  0  0  0  0  0  0  0  0  0
   11.5315  -18.6613   19.0694 C   0  0  2  0  0  0  0  0  0  0  0  0
   11.4800  -18.1803   17.7218 N   0  0  0  0  0  0  0  0  0  0  0  0
   12.7555  -19.4596   19.2827 C   0  0  0  0  0  0  0  0  0  0  0  0
   13.2162  -19.8237   20.5403 O   0  0  0  0  0  0  0  0  0  0  0  0
   13.4519  -19.8538   18.2956 O   0  0  0  0  0  0  0  0  0  0  0  0
  2  1  1  1
  2  4  1  0
  3  2  1  0
  4 11  1  0
  4  5  2  0
  6  7  1  0
  7  8  2  0
 10  9  1  1
  9  7  1  0
 10 12  1  0
 11 10  1  0
 12 18  1  0
 13 12  2  0
 15 14  1  6
 16 15  1  0
 17 19  1  0
 17 15  1  0
 17 18  1  6
 19 21  2  0
 19 20  1  0
M  END
$$$$
