ANT.pdb
     RDKit          3D

 21 20  0  0  1  0  0  0  0  0999 V2000
    7.9615  -12.2508   18.8145 C   0  0  0  0  0  0  0  0  0  0  0  0
    8.5271  -13.1522   17.7452 C   0  0  2  0  0  0  0  0  0  0  0  0
    7.4818  -13.8852   17.0688 N   0  0  0  0  0  0  0  0  0  0  0  0
    9.4276  -14.1323   18.3977 C   0  0  0  0  0  0  0  0  0  0  0  0
    8.9535  -15.2690   18.6736 O   0  0  0  0  0  0  0  0  0  0  0  0
   15.4345  -15.1829   19.5042 N   0  0  0  0  0  0  0  0  0  0  0  0
   14.0861  -15.4895   19.2141 C   0  0  0  0  0  0  0  0  0  0  0  0
   13.7727  -16.7203   19.3628 O   0  0  0  0  0  0  0  0  0  0  0  0
   13.0918  -14.4973   18.7741 C   0  0  0  0  0  0  0  0  0  0  0  0
   11.6978  -14.7464   19.2839 C   0  0  2  0  0  0  0  0  0  0  0  0
   10.7766  -13.8132   18.7056 N   0  0  0  0  0  0  0  0  0  0  0  0
   11.6566  -14.8048   20.7638 C   0  0  0  0  0  0  0  0  0  0  0  0
   12.3702  -14.0472   21.4470 O   0  0  0  0  0  0  0  0  0  0  0  0
    8.3306  -15.0500   22.9695 C   0  0  0  0  0  0  0  0  0  0  0  0
    9.2955  -16.1834   23.2949 C   0  0  1  0  0  0  0  0  0  0  0  0
    8.8357  -17.2957   22.5862 O   0  0  0  0  0  0  0  0  0  0  0  0
   10.6861  -15.8887   22.8243 C   0  0  2  0  0  0  0  0  0  0  0  0
   10.8157  -15.7113   21.4094 N   0  0  0  0  0  0  0  0  0  0  0  0
   11.5759  -16.9718   23.2892 C   0  0  0  0  0  0  0  0  0  0  0  0
   11.8299  -17.2244   24.6301 O   0  0  0  0  0  0  0  0  0  0  0  0
   12.1584  -17.7341   22.4558 O   0  0  0  0  0  0  0  0  0  0  0  0
  2  1  1  1
  2  4  1  0
  3  2  1  0
  4 11  1  0
  4  5  2  0
  6  7  1  0
  7  8  2  0
 10  9  1  1
  9  7  1  0
 10 12  1  0
 11 10  1  0
 12 18  1  0
 13 12  2  0
 15 14  1  6
 16 15  1  0
 17 19  1  0
 17 15  1  0
 17 18  1  6
 19 21  2  0
 19 20  1  0
M  END
$$$$
