ANT.pdb
     RDKit          3D

 21 20  0  0  1  0  0  0  0  0999 V2000
    7.8532  -12.1381   19.8260 C   0  0  0  0  0  0  0  0  0  0  0  0
    8.1190  -13.5594   19.3961 C   0  0  2  0  0  0  0  0  0  0  0  0
    7.1386  -14.0101   18.4354 N   0  0  0  0  0  0  0  0  0  0  0  0
    8.0230  -14.4284   20.5931 C   0  0  0  0  0  0  0  0  0  0  0  0
    6.8692  -14.7217   21.0121 O   0  0  0  0  0  0  0  0  0  0  0  0
   10.7964  -18.0510   20.1374 N   0  0  0  0  0  0  0  0  0  0  0  0
    9.9071  -17.8218   21.2113 C   0  0  0  0  0  0  0  0  0  0  0  0
    8.8372  -18.5213   21.1793 O   0  0  0  0  0  0  0  0  0  0  0  0
   10.1589  -16.8628   22.2991 C   0  0  0  0  0  0  0  0  0  0  0  0
    9.1361  -15.7641   22.4079 C   0  0  2  0  0  0  0  0  0  0  0  0
    9.1817  -14.9182   21.2519 N   0  0  0  0  0  0  0  0  0  0  0  0
    9.2426  -15.0404   23.6964 C   0  0  0  0  0  0  0  0  0  0  0  0
   10.2013  -14.2769   23.9158 O   0  0  0  0  0  0  0  0  0  0  0  0
    6.9815  -12.4989   25.3897 C   0  0  0  0  0  0  0  0  0  0  0  0
    7.0274  -13.7583   26.2461 C   0  0  1  0  0  0  0  0  0  0  0  0
    5.9127  -14.5150   25.8776 O   0  0  0  0  0  0  0  0  0  0  0  0
    8.2468  -14.5816   25.9680 C   0  0  2  0  0  0  0  0  0  0  0  0
    8.2676  -15.2067   24.6800 N   0  0  0  0  0  0  0  0  0  0  0  0
    8.3781  -15.5963   27.0329 C   0  0  0  0  0  0  0  0  0  0  0  0
    8.6061  -15.2764   28.3640 O   0  0  0  0  0  0  0  0  0  0  0  0
    8.2846  -16.8345   26.7628 O   0  0  0  0  0  0  0  0  0  0  0  0
  2  1  1  1
  2  4  1  0
  3  2  1  0
  4 11  1  0
  4  5  2  0
  6  7  1  0
  7  8  2  0
 10  9  1  6
  9  7  1  0
 10 12  1  0
 11 10  1  0
 12 18  1  0
 13 12  2  0
 15 14  1  6
 16 15  1  0
 17 19  1  0
 17 15  1  0
 17 18  1  6
 19 21  2  0
 19 20  1  0
M  END
$$$$
