ANT.pdb
     RDKit          3D

 21 20  0  0  1  0  0  0  0  0999 V2000
   13.5198  -21.0816   17.2990 C   0  0  0  0  0  0  0  0  0  0  0  0
   12.5113  -19.9891   17.0436 C   0  0  2  0  0  0  0  0  0  0  0  0
   13.1138  -18.8665   16.3624 N   0  0  0  0  0  0  0  0  0  0  0  0
   12.0048  -19.5143   18.3533 C   0  0  0  0  0  0  0  0  0  0  0  0
   12.4638  -18.4261   18.7983 O   0  0  0  0  0  0  0  0  0  0  0  0
    7.2864  -19.9758   18.9104 N   0  0  0  0  0  0  0  0  0  0  0  0
    8.1355  -19.5093   19.9389 C   0  0  0  0  0  0  0  0  0  0  0  0
    7.9549  -18.2873   20.2695 O   0  0  0  0  0  0  0  0  0  0  0  0
    9.1577  -20.3354   20.6015 C   0  0  0  0  0  0  0  0  0  0  0  0
   10.5712  -19.8651   20.3875 C   0  0  2  0  0  0  0  0  0  0  0  0
   11.0382  -20.2502   19.0884 N   0  0  0  0  0  0  0  0  0  0  0  0
   11.4604  -20.2741   21.4999 C   0  0  0  0  0  0  0  0  0  0  0  0
   12.1911  -21.2761   21.3902 O   0  0  0  0  0  0  0  0  0  0  0  0
   13.1561  -17.3302   23.9515 C   0  0  0  0  0  0  0  0  0  0  0  0
   13.5789  -18.7808   23.7552 C   0  0  1  0  0  0  0  0  0  0  0  0
   14.3858  -19.0980   24.8502 O   0  0  0  0  0  0  0  0  0  0  0  0
   12.4075  -19.7133   23.7695 C   0  0  2  0  0  0  0  0  0  0  0  0
   11.4888  -19.5391   22.6852 N   0  0  0  0  0  0  0  0  0  0  0  0
   11.7090  -19.5660   25.0624 C   0  0  0  0  0  0  0  0  0  0  0  0
   12.1905  -20.0958   26.2513 O   0  0  0  0  0  0  0  0  0  0  0  0
   10.6107  -18.9312   25.1365 O   0  0  0  0  0  0  0  0  0  0  0  0
  2  1  1  1
  2  4  1  0
  3  2  1  0
  4 11  1  0
  4  5  2  0
  6  7  1  0
  7  8  2  0
 10  9  1  1
  9  7  1  0
 10 12  1  0
 11 10  1  0
 12 18  1  0
 13 12  2  0
 15 14  1  1
 16 15  1  0
 17 19  1  0
 17 15  1  0
 17 18  1  6
 19 21  2  0
 19 20  1  0
M  END
$$$$
