ANT.pdb
     RDKit          3D

 21 20  0  0  1  0  0  0  0  0999 V2000
   -1.2916  -27.6357   29.4074 C   0  0  0  0  0  0  0  0  0  0  0  0
   -1.4817  -26.4208   30.2812 C   0  0  2  0  0  0  0  0  0  0  0  0
   -1.1345  -26.7021   31.6551 N   0  0  0  0  0  0  0  0  0  0  0  0
   -2.9139  -26.0413   30.2374 C   0  0  0  0  0  0  0  0  0  0  0  0
   -3.4135  -25.7719   29.1101 O   0  0  0  0  0  0  0  0  0  0  0  0
   -5.7578  -28.8271   33.2621 N   0  0  0  0  0  0  0  0  0  0  0  0
   -5.9625  -27.8375   32.2746 C   0  0  0  0  0  0  0  0  0  0  0  0
   -6.2947  -28.2885   31.1251 O   0  0  0  0  0  0  0  0  0  0  0  0
   -5.8153  -26.3925   32.5133 C   0  0  0  0  0  0  0  0  0  0  0  0
   -5.0988  -25.6514   31.4167 C   0  0  2  0  0  0  0  0  0  0  0  0
   -3.7038  -25.9801   31.4159 N   0  0  0  0  0  0  0  0  0  0  0  0
   -5.3817  -24.1977   31.4607 C   0  0  0  0  0  0  0  0  0  0  0  0
   -4.9308  -23.4930   32.3828 O   0  0  0  0  0  0  0  0  0  0  0  0
   -4.4682  -21.6367   28.9025 C   0  0  0  0  0  0  0  0  0  0  0  0
   -5.9838  -21.5877   29.0511 C   0  0  1  0  0  0  0  0  0  0  0  0
   -6.4980  -22.3584   28.0059 O   0  0  0  0  0  0  0  0  0  0  0  0
   -6.4415  -22.2037   30.3369 C   0  0  2  0  0  0  0  0  0  0  0  0
   -6.1578  -23.6011   30.4670 N   0  0  0  0  0  0  0  0  0  0  0  0
   -7.8906  -21.9587   30.4823 C   0  0  0  0  0  0  0  0  0  0  0  0
   -8.4334  -20.6945   30.6651 O   0  0  0  0  0  0  0  0  0  0  0  0
   -8.7175  -22.9229   30.4444 O   0  0  0  0  0  0  0  0  0  0  0  0
  2  1  1  6
  2  4  1  0
  3  2  1  0
  4 11  1  0
  4  5  2  0
  6  7  1  0
  7  8  2  0
 10  9  1  1
  9  7  1  0
 10 12  1  0
 11 10  1  0
 12 18  1  0
 13 12  2  0
 15 14  1  1
 16 15  1  0
 17 19  1  0
 17 15  1  0
 17 18  1  6
 19 21  2  0
 19 20  1  0
M  END
$$$$
