ANT.pdb
     RDKit          3D

 21 20  0  0  1  0  0  0  0  0999 V2000
   10.3119  -19.1820   19.1573 C   0  0  0  0  0  0  0  0  0  0  0  0
    8.9352  -19.7932   19.0748 C   0  0  2  0  0  0  0  0  0  0  0  0
    8.1785  -19.2376   17.9767 N   0  0  0  0  0  0  0  0  0  0  0  0
    8.2164  -19.4809   20.3330 C   0  0  0  0  0  0  0  0  0  0  0  0
    7.6795  -18.3431   20.4331 O   0  0  0  0  0  0  0  0  0  0  0  0
    5.6081  -19.9685   24.8488 N   0  0  0  0  0  0  0  0  0  0  0  0
    5.9674  -21.2344   24.3343 C   0  0  0  0  0  0  0  0  0  0  0  0
    5.4381  -22.2286   24.9399 O   0  0  0  0  0  0  0  0  0  0  0  0
    6.8751  -21.4323   23.1927 C   0  0  0  0  0  0  0  0  0  0  0  0
    7.4491  -20.1609   22.6276 C   0  0  2  0  0  0  0  0  0  0  0  0
    8.1296  -20.4213   21.3935 N   0  0  0  0  0  0  0  0  0  0  0  0
    8.2626  -19.4329   23.6294 C   0  0  0  0  0  0  0  0  0  0  0  0
    9.4742  -19.6853   23.7647 O   0  0  0  0  0  0  0  0  0  0  0  0
    7.9836  -15.4159   24.3029 C   0  0  0  0  0  0  0  0  0  0  0  0
    7.7864  -16.2595   25.5562 C   0  0  1  0  0  0  0  0  0  0  0  0
    6.4052  -16.3838   25.7230 O   0  0  0  0  0  0  0  0  0  0  0  0
    8.3503  -17.6377   25.3991 C   0  0  2  0  0  0  0  0  0  0  0  0
    7.6785  -18.4543   24.4338 N   0  0  0  0  0  0  0  0  0  0  0  0
    8.3467  -18.2972   26.7205 C   0  0  0  0  0  0  0  0  0  0  0  0
    9.0784  -17.8323   27.8043 O   0  0  0  0  0  0  0  0  0  0  0  0
    7.6545  -19.3441   26.9199 O   0  0  0  0  0  0  0  0  0  0  0  0
  2  1  1  1
  2  4  1  0
  3  2  1  0
  4 11  1  0
  4  5  2  0
  6  7  1  0
  7  8  2  0
 10  9  1  1
  9  7  1  0
 10 12  1  0
 11 10  1  0
 12 18  1  0
 13 12  2  0
 15 14  1  6
 16 15  1  0
 17 19  1  0
 17 15  1  0
 17 18  1  6
 19 21  2  0
 19 20  1  0
M  END
$$$$
