ANT.pdb
     RDKit          3D

 21 20  0  0  1  0  0  0  0  0999 V2000
    9.0081  -14.0161   17.3546 C   0  0  0  0  0  0  0  0  0  0  0  0
    9.6755  -15.0024   18.2806 C   0  0  2  0  0  0  0  0  0  0  0  0
    9.0510  -16.3029   18.2018 N   0  0  0  0  0  0  0  0  0  0  0  0
    9.5267  -14.5044   19.6688 C   0  0  0  0  0  0  0  0  0  0  0  0
   10.0379  -13.3844   19.9464 O   0  0  0  0  0  0  0  0  0  0  0  0
    6.4560  -13.3140   20.9921 N   0  0  0  0  0  0  0  0  0  0  0  0
    6.2419  -14.3510   21.9277 C   0  0  0  0  0  0  0  0  0  0  0  0
    5.0156  -14.5614   22.2228 O   0  0  0  0  0  0  0  0  0  0  0  0
    7.3200  -15.1481   22.5351 C   0  0  0  0  0  0  0  0  0  0  0  0
    8.6967  -14.8266   22.0190 C   0  0  2  0  0  0  0  0  0  0  0  0
    8.8359  -15.2533   20.6579 N   0  0  0  0  0  0  0  0  0  0  0  0
    9.7546  -15.3303   22.9260 C   0  0  0  0  0  0  0  0  0  0  0  0
    9.7898  -14.9716   24.1177 O   0  0  0  0  0  0  0  0  0  0  0  0
   10.4594  -18.7455   24.1570 C   0  0  0  0  0  0  0  0  0  0  0  0
   11.6719  -18.3123   23.3424 C   0  0  1  0  0  0  0  0  0  0  0  0
   11.4763  -18.8259   22.0583 O   0  0  0  0  0  0  0  0  0  0  0  0
   11.7660  -16.8225   23.2257 C   0  0  2  0  0  0  0  0  0  0  0  0
   10.7248  -16.2142   22.4537 N   0  0  0  0  0  0  0  0  0  0  0  0
   13.0881  -16.4806   22.6632 C   0  0  0  0  0  0  0  0  0  0  0  0
   14.2802  -16.6884   23.3428 O   0  0  0  0  0  0  0  0  0  0  0  0
   13.1862  -15.9694   21.5040 O   0  0  0  0  0  0  0  0  0  0  0  0
  2  1  1  6
  2  4  1  0
  3  2  1  0
  4 11  1  0
  4  5  2  0
  6  7  1  0
  7  8  2  0
 10  9  1  1
  9  7  1  0
 10 12  1  0
 11 10  1  0
 12 18  1  0
 13 12  2  0
 15 14  1  1
 16 15  1  0
 17 19  1  0
 17 15  1  0
 17 18  1  6
 19 21  2  0
 19 20  1  0
M  END
$$$$
