ANT.pdb
     RDKit          3D

 21 20  0  0  1  0  0  0  0  0999 V2000
    7.7441  -12.1832   19.7808 C   0  0  0  0  0  0  0  0  0  0  0  0
    8.1469  -13.5971   19.4424 C   0  0  2  0  0  0  0  0  0  0  0  0
    7.2982  -14.1535   18.4141 N   0  0  0  0  0  0  0  0  0  0  0  0
    7.9934  -14.4244   20.6628 C   0  0  0  0  0  0  0  0  0  0  0  0
    6.8778  -14.9827   20.8545 O   0  0  0  0  0  0  0  0  0  0  0  0
    8.6479  -18.0902   24.3347 N   0  0  0  0  0  0  0  0  0  0  0  0
    9.8245  -17.4686   23.8597 C   0  0  0  0  0  0  0  0  0  0  0  0
   10.8795  -17.7345   24.5316 O   0  0  0  0  0  0  0  0  0  0  0  0
    9.8711  -16.5800   22.6872 C   0  0  0  0  0  0  0  0  0  0  0  0
    8.9570  -15.3875   22.7747 C   0  0  2  0  0  0  0  0  0  0  0  0
    9.0572  -14.5889   21.5888 N   0  0  0  0  0  0  0  0  0  0  0  0
    9.1566  -14.6339   24.0347 C   0  0  0  0  0  0  0  0  0  0  0  0
   10.2289  -14.0405   24.2539 O   0  0  0  0  0  0  0  0  0  0  0  0
    6.5038  -12.0433   25.4367 C   0  0  0  0  0  0  0  0  0  0  0  0
    6.8422  -13.1024   26.4784 C   0  0  1  0  0  0  0  0  0  0  0  0
    5.8305  -14.0618   26.3946 O   0  0  0  0  0  0  0  0  0  0  0  0
    8.1412  -13.7857   26.1822 C   0  0  2  0  0  0  0  0  0  0  0  0
    8.1429  -14.5807   24.9914 N   0  0  0  0  0  0  0  0  0  0  0  0
    8.5123  -14.6100   27.3500 C   0  0  0  0  0  0  0  0  0  0  0  0
    8.7728  -14.0773   28.6048 O   0  0  0  0  0  0  0  0  0  0  0  0
    8.6097  -15.8728   27.2466 O   0  0  0  0  0  0  0  0  0  0  0  0
  2  1  1  1
  2  4  1  0
  3  2  1  0
  4 11  1  0
  4  5  2  0
  6  7  1  0
  7  8  2  0
 10  9  1  6
  9  7  1  0
 10 12  1  0
 11 10  1  0
 12 18  1  0
 13 12  2  0
 15 14  1  6
 16 15  1  0
 17 19  1  0
 17 15  1  0
 17 18  1  6
 19 21  2  0
 19 20  1  0
M  END
$$$$
