ANT.pdb
     RDKit          3D

 21 20  0  0  1  0  0  0  0  0999 V2000
    7.3245  -18.2958   17.4371 C   0  0  0  0  0  0  0  0  0  0  0  0
    8.1533  -17.4007   18.3246 C   0  0  2  0  0  0  0  0  0  0  0  0
    9.5521  -17.4560   17.9675 N   0  0  0  0  0  0  0  0  0  0  0  0
    8.0157  -17.8807   19.7203 C   0  0  0  0  0  0  0  0  0  0  0  0
    6.8615  -17.8726   20.2306 O   0  0  0  0  0  0  0  0  0  0  0  0
   10.8976  -21.0308   24.1206 N   0  0  0  0  0  0  0  0  0  0  0  0
    9.7690  -20.5539   23.4166 C   0  0  0  0  0  0  0  0  0  0  0  0
    8.6709  -20.6013   24.0699 O   0  0  0  0  0  0  0  0  0  0  0  0
    9.8155  -20.0352   22.0399 C   0  0  0  0  0  0  0  0  0  0  0  0
    9.0604  -18.7496   21.8345 C   0  0  2  0  0  0  0  0  0  0  0  0
    9.1364  -18.3351   20.4646 N   0  0  0  0  0  0  0  0  0  0  0  0
    9.4699  -17.7107   22.8084 C   0  0  0  0  0  0  0  0  0  0  0  0
   10.6363  -17.2757   22.8165 O   0  0  0  0  0  0  0  0  0  0  0  0
    7.6441  -14.2403   23.7205 C   0  0  0  0  0  0  0  0  0  0  0  0
    7.7203  -15.2009   24.9008 C   0  0  1  0  0  0  0  0  0  0  0  0
    6.5026  -15.8848   24.9196 O   0  0  0  0  0  0  0  0  0  0  0  0
    8.8080  -16.2155   24.7289 C   0  0  2  0  0  0  0  0  0  0  0  0
    8.5506  -17.2073   23.7289 N   0  0  0  0  0  0  0  0  0  0  0  0
    9.0589  -16.8571   26.0352 C   0  0  0  0  0  0  0  0  0  0  0  0
    9.4995  -16.1609   27.1521 O   0  0  0  0  0  0  0  0  0  0  0  0
    8.8757  -18.1051   26.1896 O   0  0  0  0  0  0  0  0  0  0  0  0
  2  1  1  6
  2  4  1  0
  3  2  1  0
  4 11  1  0
  4  5  2  0
  6  7  1  0
  7  8  2  0
 10  9  1  6
  9  7  1  0
 10 12  1  0
 11 10  1  0
 12 18  1  0
 13 12  2  0
 15 14  1  6
 16 15  1  0
 17 19  1  0
 17 15  1  0
 17 18  1  6
 19 21  2  0
 19 20  1  0
M  END
$$$$
