NSV.pdb
     RDKit          3D

 22 21  0  0  1  0  0  0  0  0999 V2000
   17.8391  -14.5616  -16.0581 N   0  0  0  0  0  0  0  0  0  0  0  0
   17.6220  -13.7996  -17.2247 C   0  0  0  0  0  0  0  0  0  0  0  0
   17.2615  -14.3246  -18.3135 O   0  0  0  0  0  0  0  0  0  0  0  0
   17.8237  -12.3181  -17.1785 C   0  0  0  0  0  0  0  0  0  0  0  0
   18.3004  -11.8931  -15.8050 C   0  0  2  0  0  0  0  0  0  0  0  0
   17.3117  -12.1220  -14.7908 N   0  0  0  0  0  0  0  0  0  0  0  0
   18.6577  -10.4334  -15.8985 C   0  0  0  0  0  0  0  0  0  0  0  0
   19.5106  -10.0156  -16.7260 O   0  0  0  0  0  0  0  0  0  0  0  0
   16.8510   -7.7754  -13.2658 O   0  0  0  0  0  0  0  0  0  0  0  0
   17.0633   -7.3592  -14.5770 C   0  0  0  0  0  0  0  0  0  0  0  0
   18.2859   -8.0400  -15.1512 C   0  0  2  0  0  0  0  0  0  0  0  0
   18.0489   -9.4700  -15.0591 N   0  0  0  0  0  0  0  0  0  0  0  0
   19.5413   -7.6460  -14.4925 C   0  0  0  0  0  0  0  0  0  0  0  0
   19.8494   -8.2368  -13.4118 O   0  0  0  0  0  0  0  0  0  0  0  0
   22.6167   -5.7082  -16.4503 C   0  0  0  0  0  0  0  0  0  0  0  0
   22.8249   -6.5444  -15.2168 C   0  0  2  0  0  0  0  0  0  0  0  0
   22.8168   -7.9981  -15.6627 C   0  0  0  0  0  0  0  0  0  0  0  0
   21.6655   -6.3513  -14.2751 C   0  0  2  0  0  0  0  0  0  0  0  0
   20.4162   -6.6661  -14.9772 N   0  0  0  0  0  0  0  0  0  0  0  0
   21.6276   -4.9632  -13.7449 C   0  0  0  0  0  0  0  0  0  0  0  0
   22.5438   -4.5341  -12.7981 O   0  0  0  0  0  0  0  0  0  0  0  0
   20.7696   -4.1434  -14.1368 O   0  0  0  0  0  0  0  0  0  0  0  0
  2  1  1  0
  2  4  1  0
  3  2  2  0
  5  4  1  0
  5  6  1  1
  7  8  2  0
  7  5  1  0
  9 10  1  0
 11 10  1  1
 11 12  1  0
 12  7  1  0
 13 14  2  0
 13 11  1  0
 16 15  1  6
 17 16  1  0
 18 16  1  0
 18 19  1  6
 19 13  1  0
 20 18  1  0
 21 20  1  0
 22 20  2  0
M  END
$$$$
