NSV.pdb
     RDKit          3D

 22 21  0  0  1  0  0  0  0  0999 V2000
   15.5875  -13.7938  -14.7615 N   0  0  0  0  0  0  0  0  0  0  0  0
   16.3723  -14.2364  -15.8464 C   0  0  0  0  0  0  0  0  0  0  0  0
   16.4657  -15.4558  -16.1555 O   0  0  0  0  0  0  0  0  0  0  0  0
   17.1227  -13.2330  -16.6635 C   0  0  0  0  0  0  0  0  0  0  0  0
   16.8470  -11.8309  -16.1609 C   0  0  2  0  0  0  0  0  0  0  0  0
   15.7265  -11.2262  -16.8223 N   0  0  0  0  0  0  0  0  0  0  0  0
   18.1049  -11.0327  -16.3795 C   0  0  0  0  0  0  0  0  0  0  0  0
   19.2286  -11.4571  -16.0003 O   0  0  0  0  0  0  0  0  0  0  0  0
   17.8015   -7.0819  -17.6331 O   0  0  0  0  0  0  0  0  0  0  0  0
   18.8266   -7.8408  -18.1906 C   0  0  0  0  0  0  0  0  0  0  0  0
   19.2451   -8.9373  -17.2364 C   0  0  2  0  0  0  0  0  0  0  0  0
   18.0756   -9.7713  -17.0209 N   0  0  0  0  0  0  0  0  0  0  0  0
   19.8034   -8.4338  -15.9715 C   0  0  0  0  0  0  0  0  0  0  0  0
   18.9973   -8.2319  -15.0116 O   0  0  0  0  0  0  0  0  0  0  0  0
   23.8199   -8.6810  -15.1440 C   0  0  0  0  0  0  0  0  0  0  0  0
   22.7991   -8.6510  -14.0390 C   0  0  2  0  0  0  0  0  0  0  0  0
   22.2545  -10.0643  -13.9029 C   0  0  0  0  0  0  0  0  0  0  0  0
   21.6527   -7.7583  -14.4355 C   0  0  2  0  0  0  0  0  0  0  0  0
   21.1604   -8.1637  -15.7569 N   0  0  0  0  0  0  0  0  0  0  0  0
   22.0626   -6.3296  -14.4499 C   0  0  0  0  0  0  0  0  0  0  0  0
   22.3298   -5.6504  -13.2720 O   0  0  0  0  0  0  0  0  0  0  0  0
   22.1782   -5.6998  -15.5230 O   0  0  0  0  0  0  0  0  0  0  0  0
  2  1  1  0
  2  4  1  0
  3  2  2  0
  5  4  1  0
  5  6  1  6
  7  8  2  0
  7  5  1  0
  9 10  1  0
 11 10  1  6
 11 12  1  0
 12  7  1  0
 13 14  2  0
 13 11  1  0
 16 15  1  6
 17 16  1  0
 18 16  1  0
 18 19  1  6
 19 13  1  0
 20 18  1  0
 21 20  1  0
 22 20  2  0
M  END
$$$$
