NSV.pdb
     RDKit          3D

 22 21  0  0  1  0  0  0  0  0999 V2000
   14.4268  -14.7863  -16.6426 N   0  0  0  0  0  0  0  0  0  0  0  0
   13.7883  -13.9104  -15.7403 C   0  0  0  0  0  0  0  0  0  0  0  0
   12.5386  -13.9155  -15.5686 O   0  0  0  0  0  0  0  0  0  0  0  0
   14.6129  -12.9394  -14.9564 C   0  0  0  0  0  0  0  0  0  0  0  0
   16.0732  -13.0554  -15.3418 C   0  0  2  0  0  0  0  0  0  0  0  0
   16.6624  -14.2794  -14.8800 N   0  0  0  0  0  0  0  0  0  0  0  0
   16.7758  -11.8581  -14.7588 C   0  0  0  0  0  0  0  0  0  0  0  0
   16.9272  -11.7239  -13.5155 O   0  0  0  0  0  0  0  0  0  0  0  0
   19.7700  -10.4538  -16.5280 O   0  0  0  0  0  0  0  0  0  0  0  0
   19.4994  -10.0089  -15.2370 C   0  0  0  0  0  0  0  0  0  0  0  0
   18.0299   -9.6809  -15.0933 C   0  0  2  0  0  0  0  0  0  0  0  0
   17.2953  -10.8332  -15.5853 N   0  0  0  0  0  0  0  0  0  0  0  0
   17.6347   -8.4412  -15.7805 C   0  0  0  0  0  0  0  0  0  0  0  0
   17.3502   -8.5180  -17.0154 O   0  0  0  0  0  0  0  0  0  0  0  0
   16.1272   -5.2325  -13.8590 C   0  0  0  0  0  0  0  0  0  0  0  0
   15.9730   -5.3569  -15.3506 C   0  0  2  0  0  0  0  0  0  0  0  0
   14.8145   -6.3108  -15.5964 C   0  0  0  0  0  0  0  0  0  0  0  0
   17.2108   -5.9852  -15.9349 C   0  0  2  0  0  0  0  0  0  0  0  0
   17.5517   -7.1865  -15.1646 N   0  0  0  0  0  0  0  0  0  0  0  0
   18.3496   -5.0298  -15.9381 C   0  0  0  0  0  0  0  0  0  0  0  0
   18.4041   -3.9852  -16.8468 O   0  0  0  0  0  0  0  0  0  0  0  0
   19.2899   -5.1404  -15.1225 O   0  0  0  0  0  0  0  0  0  0  0  0
  2  1  1  0
  2  4  1  0
  3  2  2  0
  5  4  1  0
  5  6  1  1
  7  8  2  0
  7  5  1  0
  9 10  1  0
 11 10  1  6
 11 12  1  0
 12  7  1  0
 13 14  2  0
 13 11  1  0
 16 15  1  1
 17 16  1  0
 18 16  1  0
 18 19  1  1
 19 13  1  0
 20 18  1  0
 21 20  1  0
 22 20  2  0
M  END
$$$$
