NSV.pdb
     RDKit          3D

 22 21  0  0  1  0  0  0  0  0999 V2000
   30.1214  -23.9684  -18.4546 N   0  0  0  0  0  0  0  0  0  0  0  0
   30.2449  -24.3001  -17.0895 C   0  0  0  0  0  0  0  0  0  0  0  0
   31.1993  -24.9985  -16.6508 O   0  0  0  0  0  0  0  0  0  0  0  0
   29.2141  -23.8114  -16.1220 C   0  0  0  0  0  0  0  0  0  0  0  0
   28.1179  -23.0630  -16.8521 C   0  0  2  0  0  0  0  0  0  0  0  0
   28.6079  -21.8865  -17.5110 N   0  0  0  0  0  0  0  0  0  0  0  0
   27.0681  -22.7179  -15.8294 C   0  0  0  0  0  0  0  0  0  0  0  0
   26.4606  -23.6113  -15.1817 O   0  0  0  0  0  0  0  0  0  0  0  0
   25.8577  -18.7421  -15.4078 O   0  0  0  0  0  0  0  0  0  0  0  0
   25.9946  -19.5154  -14.2585 C   0  0  0  0  0  0  0  0  0  0  0  0
   25.7292  -20.9712  -14.5720 C   0  0  2  0  0  0  0  0  0  0  0  0
   26.7207  -21.3738  -15.5540 N   0  0  0  0  0  0  0  0  0  0  0  0
   24.3572  -21.2316  -15.0356 C   0  0  0  0  0  0  0  0  0  0  0  0
   24.1445  -21.2082  -16.2870 O   0  0  0  0  0  0  0  0  0  0  0  0
   22.2996  -24.0957  -14.9475 C   0  0  0  0  0  0  0  0  0  0  0  0
   21.4078  -23.0411  -14.3501 C   0  0  2  0  0  0  0  0  0  0  0  0
   20.0373  -23.2097  -14.9869 C   0  0  0  0  0  0  0  0  0  0  0  0
   21.9193  -21.6756  -14.7270 C   0  0  2  0  0  0  0  0  0  0  0  0
   23.2741  -21.5030  -14.1907 N   0  0  0  0  0  0  0  0  0  0  0  0
   21.0204  -20.6053  -14.2213 C   0  0  0  0  0  0  0  0  0  0  0  0
   19.9807  -20.1187  -14.9974 O   0  0  0  0  0  0  0  0  0  0  0  0
   21.1755  -20.1134  -13.0830 O   0  0  0  0  0  0  0  0  0  0  0  0
  2  1  1  0
  2  4  1  0
  3  2  2  0
  5  4  1  0
  5  6  1  1
  7  8  2  0
  7  5  1  0
  9 10  1  0
 11 10  1  6
 11 12  1  0
 12  7  1  0
 13 14  2  0
 13 11  1  0
 16 15  1  6
 17 16  1  0
 18 16  1  0
 18 19  1  1
 19 13  1  0
 20 18  1  0
 21 20  1  0
 22 20  2  0
M  END
$$$$
