NSV.pdb
     RDKit          3D

 22 21  0  0  1  0  0  0  0  0999 V2000
   14.6889  -13.3953  -13.7726 N   0  0  0  0  0  0  0  0  0  0  0  0
   14.8082  -12.1039  -14.3267 C   0  0  0  0  0  0  0  0  0  0  0  0
   13.8129  -11.3449  -14.4835 O   0  0  0  0  0  0  0  0  0  0  0  0
   16.1564  -11.6094  -14.7454 C   0  0  0  0  0  0  0  0  0  0  0  0
   16.0704  -10.9173  -16.0901 C   0  0  2  0  0  0  0  0  0  0  0  0
   15.8466  -11.8415  -17.1645 N   0  0  0  0  0  0  0  0  0  0  0  0
   17.3611  -10.1650  -16.2780 C   0  0  0  0  0  0  0  0  0  0  0  0
   18.4414  -10.7624  -16.5283 O   0  0  0  0  0  0  0  0  0  0  0  0
   19.2229   -5.8532  -17.3635 O   0  0  0  0  0  0  0  0  0  0  0  0
   18.1397   -6.6936  -17.1220 C   0  0  0  0  0  0  0  0  0  0  0  0
   18.6022   -7.9606  -16.4375 C   0  0  2  0  0  0  0  0  0  0  0  0
   17.4129   -8.7539  -16.1809 N   0  0  0  0  0  0  0  0  0  0  0  0
   19.3770   -7.7164  -15.2107 C   0  0  0  0  0  0  0  0  0  0  0  0
   18.7306   -7.4765  -14.1446 O   0  0  0  0  0  0  0  0  0  0  0  0
   23.4043   -8.6491  -14.8747 C   0  0  0  0  0  0  0  0  0  0  0  0
   22.5039   -8.5823  -13.6709 C   0  0  2  0  0  0  0  0  0  0  0  0
   21.7678   -9.9108  -13.5963 C   0  0  0  0  0  0  0  0  0  0  0  0
   21.4735   -7.5023  -13.8712 C   0  0  2  0  0  0  0  0  0  0  0  0
   20.7753   -7.7312  -15.1412 N   0  0  0  0  0  0  0  0  0  0  0  0
   22.0975   -6.1533  -13.8574 C   0  0  0  0  0  0  0  0  0  0  0  0
   22.1307   -5.3690  -14.9992 O   0  0  0  0  0  0  0  0  0  0  0  0
   22.6099   -5.6874  -12.8171 O   0  0  0  0  0  0  0  0  0  0  0  0
  2  1  1  0
  2  4  1  0
  3  2  2  0
  5  4  1  0
  5  6  1  6
  7  8  2  0
  7  5  1  0
  9 10  1  0
 11 10  1  1
 11 12  1  0
 12  7  1  0
 13 14  2  0
 13 11  1  0
 16 15  1  6
 17 16  1  0
 18 16  1  0
 18 19  1  6
 19 13  1  0
 20 18  1  0
 21 20  1  0
 22 20  2  0
M  END
$$$$
