NSV.pdb
     RDKit          3D

 22 21  0  0  1  0  0  0  0  0999 V2000
   26.2214  -27.3811  -17.4467 N   0  0  0  0  0  0  0  0  0  0  0  0
   26.1121  -26.0403  -17.8700 C   0  0  0  0  0  0  0  0  0  0  0  0
   25.8081  -25.7318  -19.0547 O   0  0  0  0  0  0  0  0  0  0  0  0
   26.3633  -24.9406  -16.8877 C   0  0  0  0  0  0  0  0  0  0  0  0
   27.5171  -24.0743  -17.3491 C   0  0  2  0  0  0  0  0  0  0  0  0
   28.6965  -24.8422  -17.6283 N   0  0  0  0  0  0  0  0  0  0  0  0
   27.7688  -23.0650  -16.2604 C   0  0  0  0  0  0  0  0  0  0  0  0
   28.7415  -23.1792  -15.4683 O   0  0  0  0  0  0  0  0  0  0  0  0
   25.4939  -19.5694  -16.0973 O   0  0  0  0  0  0  0  0  0  0  0  0
   26.7665  -19.6351  -15.5373 C   0  0  0  0  0  0  0  0  0  0  0  0
   27.0194  -21.0150  -14.9717 C   0  0  2  0  0  0  0  0  0  0  0  0
   26.9213  -21.9454  -16.0827 N   0  0  0  0  0  0  0  0  0  0  0  0
   26.1117  -21.3739  -13.8706 C   0  0  0  0  0  0  0  0  0  0  0  0
   25.0891  -22.0709  -14.1544 O   0  0  0  0  0  0  0  0  0  0  0  0
   24.7912  -21.2255   -9.1081 C   0  0  0  0  0  0  0  0  0  0  0  0
   25.8314  -20.9417  -10.1576 C   0  0  2  0  0  0  0  0  0  0  0  0
   26.0942  -19.4443  -10.1248 C   0  0  0  0  0  0  0  0  0  0  0  0
   25.2794  -21.2766  -11.5183 C   0  0  2  0  0  0  0  0  0  0  0  0
   26.3005  -20.9993  -12.5348 N   0  0  0  0  0  0  0  0  0  0  0  0
   24.0411  -20.5049  -11.8021 C   0  0  0  0  0  0  0  0  0  0  0  0
   22.7962  -20.9898  -11.4345 O   0  0  0  0  0  0  0  0  0  0  0  0
   24.0862  -19.3976  -12.3797 O   0  0  0  0  0  0  0  0  0  0  0  0
  2  1  1  0
  2  4  1  0
  3  2  2  0
  5  4  1  0
  5  6  1  1
  7  8  2  0
  7  5  1  0
  9 10  1  0
 11 10  1  6
 11 12  1  0
 12  7  1  0
 13 14  2  0
 13 11  1  0
 16 15  1  1
 17 16  1  0
 18 16  1  0
 18 19  1  6
 19 13  1  0
 20 18  1  0
 21 20  1  0
 22 20  2  0
M  END
$$$$
