NSV.pdb
     RDKit          3D

 22 21  0  0  1  0  0  0  0  0999 V2000
   15.8987  -14.3598  -17.5008 N   0  0  0  0  0  0  0  0  0  0  0  0
   15.5438  -13.4157  -16.5151 C   0  0  0  0  0  0  0  0  0  0  0  0
   14.8508  -13.7240  -15.5072 O   0  0  0  0  0  0  0  0  0  0  0  0
   16.0001  -11.9987  -16.6616 C   0  0  0  0  0  0  0  0  0  0  0  0
   16.8465  -11.5914  -15.4733 C   0  0  2  0  0  0  0  0  0  0  0  0
   16.0745  -11.4749  -14.2696 N   0  0  0  0  0  0  0  0  0  0  0  0
   17.5006  -10.2830  -15.8303 C   0  0  0  0  0  0  0  0  0  0  0  0
   18.2932  -10.1869  -16.8045 O   0  0  0  0  0  0  0  0  0  0  0  0
   16.2759   -6.8572  -13.8594 O   0  0  0  0  0  0  0  0  0  0  0  0
   16.7718   -6.7772  -15.1576 C   0  0  0  0  0  0  0  0  0  0  0  0
   17.8514   -7.8150  -15.3709 C   0  0  2  0  0  0  0  0  0  0  0  0
   17.2510   -9.1062  -15.0845 N   0  0  0  0  0  0  0  0  0  0  0  0
   19.0604   -7.5789  -14.5661 C   0  0  0  0  0  0  0  0  0  0  0  0
   19.0408   -7.9496  -13.3520 O   0  0  0  0  0  0  0  0  0  0  0  0
   22.8104   -7.0370  -16.1111 C   0  0  0  0  0  0  0  0  0  0  0  0
   22.5833   -7.3977  -14.6680 C   0  0  2  0  0  0  0  0  0  0  0  0
   22.2998   -8.8911  -14.6258 C   0  0  0  0  0  0  0  0  0  0  0  0
   21.3570   -6.6877  -14.1577 C   0  0  2  0  0  0  0  0  0  0  0  0
   20.2274   -6.9746  -15.0491 N   0  0  0  0  0  0  0  0  0  0  0  0
   21.5840   -5.2218  -14.0624 C   0  0  0  0  0  0  0  0  0  0  0  0
   22.4016   -4.6871  -13.0796 O   0  0  0  0  0  0  0  0  0  0  0  0
   21.0448   -4.4294  -14.8644 O   0  0  0  0  0  0  0  0  0  0  0  0
  2  1  1  0
  2  4  1  0
  3  2  2  0
  5  4  1  0
  5  6  1  1
  7  8  2  0
  7  5  1  0
  9 10  1  0
 11 10  1  1
 11 12  1  0
 12  7  1  0
 13 14  2  0
 13 11  1  0
 16 15  1  6
 17 16  1  0
 18 16  1  0
 18 19  1  6
 19 13  1  0
 20 18  1  0
 21 20  1  0
 22 20  2  0
M  END
$$$$
