NSV.pdb
     RDKit          3D

 22 21  0  0  1  0  0  0  0  0999 V2000
   17.2197  -14.5038  -14.5715 N   0  0  0  0  0  0  0  0  0  0  0  0
   17.5243  -14.0707  -15.8787 C   0  0  0  0  0  0  0  0  0  0  0  0
   17.9179  -14.8653  -16.7758 O   0  0  0  0  0  0  0  0  0  0  0  0
   17.3784  -12.6221  -16.2217 C   0  0  0  0  0  0  0  0  0  0  0  0
   16.8661  -11.8457  -15.0261 C   0  0  2  0  0  0  0  0  0  0  0  0
   15.5128  -12.1879  -14.6943 N   0  0  0  0  0  0  0  0  0  0  0  0
   16.9909  -10.3845  -15.3675 C   0  0  0  0  0  0  0  0  0  0  0  0
   16.1774   -9.8177  -16.1445 O   0  0  0  0  0  0  0  0  0  0  0  0
   16.9525   -6.1712  -14.3387 O   0  0  0  0  0  0  0  0  0  0  0  0
   16.8759   -7.5610  -14.3553 C   0  0  0  0  0  0  0  0  0  0  0  0
   18.1189   -8.1466  -14.9878 C   0  0  2  0  0  0  0  0  0  0  0  0
   18.0288   -9.5874  -14.8283 N   0  0  0  0  0  0  0  0  0  0  0  0
   19.3703   -7.6079  -14.4321 C   0  0  0  0  0  0  0  0  0  0  0  0
   19.7262   -8.0131  -13.2827 O   0  0  0  0  0  0  0  0  0  0  0  0
   23.8754   -6.0065  -15.2741 C   0  0  0  0  0  0  0  0  0  0  0  0
   22.5102   -6.4278  -15.7463 C   0  0  2  0  0  0  0  0  0  0  0  0
   22.0558   -5.3922  -16.7628 C   0  0  0  0  0  0  0  0  0  0  0  0
   21.5428   -6.3872  -14.5926 C   0  0  2  0  0  0  0  0  0  0  0  0
   20.1923   -6.6812  -15.0849 N   0  0  0  0  0  0  0  0  0  0  0  0
   21.5713   -5.0661  -13.9120 C   0  0  0  0  0  0  0  0  0  0  0  0
   22.5171   -4.7828  -12.9397 O   0  0  0  0  0  0  0  0  0  0  0  0
   20.7444   -4.1733  -14.1961 O   0  0  0  0  0  0  0  0  0  0  0  0
  2  1  1  0
  2  4  1  0
  3  2  2  0
  5  4  1  0
  5  6  1  6
  7  8  2  0
  7  5  1  0
  9 10  1  0
 11 10  1  1
 11 12  1  0
 12  7  1  0
 13 14  2  0
 13 11  1  0
 16 15  1  1
 17 16  1  0
 18 16  1  0
 18 19  1  6
 19 13  1  0
 20 18  1  0
 21 20  1  0
 22 20  2  0
M  END
$$$$
