NSV.pdb
     RDKit          3D

 22 21  0  0  1  0  0  0  0  0999 V2000
   15.4289  -14.4723  -14.4178 N   0  0  0  0  0  0  0  0  0  0  0  0
   14.9124  -13.9992  -15.6418 C   0  0  0  0  0  0  0  0  0  0  0  0
   13.9813  -14.5916  -16.2527 O   0  0  0  0  0  0  0  0  0  0  0  0
   15.4818  -12.7536  -16.2432 C   0  0  0  0  0  0  0  0  0  0  0  0
   16.5956  -12.2089  -15.3728 C   0  0  2  0  0  0  0  0  0  0  0  0
   16.1153  -11.7381  -14.1055 N   0  0  0  0  0  0  0  0  0  0  0  0
   17.2569  -11.1021  -16.1506 C   0  0  0  0  0  0  0  0  0  0  0  0
   17.6839  -11.2840  -17.3217 O   0  0  0  0  0  0  0  0  0  0  0  0
   16.0054   -7.4859  -15.8580 O   0  0  0  0  0  0  0  0  0  0  0  0
   16.8672   -7.8844  -16.8759 C   0  0  0  0  0  0  0  0  0  0  0  0
   18.0147   -8.6883  -16.3061 C   0  0  2  0  0  0  0  0  0  0  0  0
   17.4257   -9.8106  -15.5967 N   0  0  0  0  0  0  0  0  0  0  0  0
   18.9123   -7.9021  -15.4451 C   0  0  0  0  0  0  0  0  0  0  0  0
   18.6627   -7.8789  -14.2005 O   0  0  0  0  0  0  0  0  0  0  0  0
   22.8029   -7.9069  -15.2679 C   0  0  0  0  0  0  0  0  0  0  0  0
   22.2987   -6.4995  -15.4385 C   0  0  2  0  0  0  0  0  0  0  0  0
   23.1263   -5.6193  -14.5151 C   0  0  0  0  0  0  0  0  0  0  0  0
   20.8662   -6.4181  -14.9808 C   0  0  2  0  0  0  0  0  0  0  0  0
   20.0201   -7.1804  -15.9059 N   0  0  0  0  0  0  0  0  0  0  0  0
   20.4062   -5.0070  -14.8991 C   0  0  0  0  0  0  0  0  0  0  0  0
   20.6238   -4.2487  -13.7599 O   0  0  0  0  0  0  0  0  0  0  0  0
   19.8104   -4.4638  -15.8539 O   0  0  0  0  0  0  0  0  0  0  0  0
  2  1  1  0
  2  4  1  0
  3  2  2  0
  5  4  1  0
  5  6  1  1
  7  8  2  0
  7  5  1  0
  9 10  1  0
 11 10  1  1
 11 12  1  0
 12  7  1  0
 13 14  2  0
 13 11  1  0
 16 15  1  1
 17 16  1  0
 18 16  1  0
 18 19  1  6
 19 13  1  0
 20 18  1  0
 21 20  1  0
 22 20  2  0
M  END
$$$$
