GPA.pdb
     RDKit          3D

 17 17  0  0  1  0  0  0  0  0999 V2000
   26.4621  -27.9553  -16.9033 N   0  0  0  0  0  0  0  0  0  0  0  0
   25.9937  -26.5824  -17.1427 C   0  0  0  0  0  0  0  0  0  0  0  0
   25.0905  -26.1308  -16.0862 C   0  0  0  0  0  0  0  0  0  0  0  0
   24.3530  -27.0719  -15.5633 O   0  0  0  0  0  0  0  0  0  0  0  0
   24.9075  -24.8404  -15.5621 N   0  0  0  0  0  0  0  0  0  0  0  0
   26.1471  -23.9620  -15.4508 C   0  0  0  0  0  0  0  0  0  0  0  0
   25.6411  -22.5580  -15.4877 C   0  0  0  0  0  0  0  0  0  0  0  0
   24.1870  -22.7210  -15.8650 C   0  0  0  0  0  0  0  0  0  0  0  0
   23.9033  -24.0027  -15.0510 C   0  0  1  0  0  0  0  0  0  0  0  0
   22.5148  -24.3376  -15.0247 C   0  0  0  0  0  0  0  0  0  0  0  0
   21.8820  -24.7597  -16.0045 O   0  0  0  0  0  0  0  0  0  0  0  0
   19.9695  -25.2232  -12.4678 C   0  0  0  0  0  0  0  0  0  0  0  0
   20.3391  -24.5774  -13.8029 C   0  0  2  0  0  0  0  0  0  0  0  0
   21.7129  -24.2070  -13.8162 N   0  0  0  0  0  0  0  0  0  0  0  0
   19.4255  -23.4388  -14.0695 C   0  0  0  0  0  0  0  0  0  0  0  0
   19.8220  -22.2475  -14.0517 O   0  0  0  0  0  0  0  0  0  0  0  0
   18.0891  -23.6725  -14.3492 O   0  0  0  0  0  0  0  0  0  0  0  0
  2  1  1  0
  3  2  1  0
  4  3  2  0
  5  3  1  0
  5  6  1  0
  7  6  1  0
  8  9  1  0
  8  7  1  0
  9  5  1  0
  9 10  1  6
 10 14  1  0
 11 10  2  0
 13 14  1  0
 13 15  1  0
 13 12  1  1
 15 17  1  0
 16 15  2  0
M  END
$$$$
