GPA.pdb
     RDKit          3D

 17 17  0  0  1  0  0  0  0  0999 V2000
   23.3994  -13.5282  -18.5433 N   0  0  0  0  0  0  0  0  0  0  0  0
   24.1712  -12.2801  -18.4518 C   0  0  0  0  0  0  0  0  0  0  0  0
   23.7500  -11.4703  -17.3105 C   0  0  0  0  0  0  0  0  0  0  0  0
   22.4604  -11.4387  -17.1134 O   0  0  0  0  0  0  0  0  0  0  0  0
   24.5306  -10.7297  -16.4073 N   0  0  0  0  0  0  0  0  0  0  0  0
   25.7921  -11.4006  -15.8790 C   0  0  0  0  0  0  0  0  0  0  0  0
   26.7043  -10.2821  -15.4973 C   0  0  0  0  0  0  0  0  0  0  0  0
   26.0129   -9.0611  -16.0582 C   0  0  0  0  0  0  0  0  0  0  0  0
   24.5596   -9.4871  -15.7543 C   0  0  1  0  0  0  0  0  0  0  0  0
   23.6214   -8.4354  -15.9877 C   0  0  0  0  0  0  0  0  0  0  0  0
   23.3849   -7.9488  -17.1040 O   0  0  0  0  0  0  0  0  0  0  0  0
   20.5582   -7.1433  -14.5086 C   0  0  0  0  0  0  0  0  0  0  0  0
   21.8974   -6.8114  -15.1662 C   0  0  2  0  0  0  0  0  0  0  0  0
   22.8495   -7.8368  -14.9078 N   0  0  0  0  0  0  0  0  0  0  0  0
   22.3482   -5.4706  -14.7178 C   0  0  0  0  0  0  0  0  0  0  0  0
   23.3698   -5.3147  -14.0045 O   0  0  0  0  0  0  0  0  0  0  0  0
   21.6359   -4.3406  -15.0849 O   0  0  0  0  0  0  0  0  0  0  0  0
  2  1  1  0
  3  2  1  0
  4  3  2  0
  5  3  1  0
  5  6  1  0
  7  6  1  0
  8  9  1  0
  8  7  1  0
  9  5  1  0
  9 10  1  6
 10 14  1  0
 11 10  2  0
 13 14  1  0
 13 15  1  0
 13 12  1  1
 15 17  1  0
 16 15  2  0
M  END
$$$$
