GPA.pdb
     RDKit          3D

 17 17  0  0  1  0  0  0  0  0999 V2000
   23.1669  -13.3202  -18.5913 N   0  0  0  0  0  0  0  0  0  0  0  0
   24.1220  -12.2206  -18.3901 C   0  0  0  0  0  0  0  0  0  0  0  0
   23.7461  -11.3837  -17.2526 C   0  0  0  0  0  0  0  0  0  0  0  0
   22.4600  -11.2311  -17.0921 O   0  0  0  0  0  0  0  0  0  0  0  0
   24.5665  -10.7281  -16.3195 N   0  0  0  0  0  0  0  0  0  0  0  0
   25.7113  -11.5372  -15.7233 C   0  0  0  0  0  0  0  0  0  0  0  0
   26.7325  -10.5305  -15.3083 C   0  0  0  0  0  0  0  0  0  0  0  0
   26.2209   -9.2442  -15.9143 C   0  0  0  0  0  0  0  0  0  0  0  0
   24.7140   -9.4879  -15.6779 C   0  0  1  0  0  0  0  0  0  0  0  0
   23.9217   -8.3350  -15.9674 C   0  0  0  0  0  0  0  0  0  0  0  0
   23.8406   -7.8098  -17.0883 O   0  0  0  0  0  0  0  0  0  0  0  0
   20.9684   -6.6274  -14.5634 C   0  0  0  0  0  0  0  0  0  0  0  0
   22.3259   -6.5359  -15.2598 C   0  0  2  0  0  0  0  0  0  0  0  0
   23.1271   -7.6689  -14.9450 N   0  0  0  0  0  0  0  0  0  0  0  0
   22.9741   -5.2478  -14.9093 C   0  0  0  0  0  0  0  0  0  0  0  0
   22.4530   -4.1408  -15.1916 O   0  0  0  0  0  0  0  0  0  0  0  0
   24.1923   -5.2410  -14.2501 O   0  0  0  0  0  0  0  0  0  0  0  0
  2  1  1  0
  3  2  1  0
  4  3  2  0
  5  3  1  0
  5  6  1  0
  7  6  1  0
  8  9  1  0
  8  7  1  0
  9  5  1  0
  9 10  1  6
 10 14  1  0
 11 10  2  0
 13 14  1  0
 13 15  1  0
 13 12  1  1
 15 17  1  0
 16 15  2  0
M  END
$$$$
