GPA.pdb
     RDKit          3D

 17 17  0  0  1  0  0  0  0  0999 V2000
   21.6264  -12.9590  -17.9396 N   0  0  0  0  0  0  0  0  0  0  0  0
   22.6200  -11.8756  -17.9657 C   0  0  0  0  0  0  0  0  0  0  0  0
   22.4732  -10.9839  -16.8172 C   0  0  0  0  0  0  0  0  0  0  0  0
   21.2393  -10.6809  -16.5192 O   0  0  0  0  0  0  0  0  0  0  0  0
   23.4632  -10.4141  -15.9996 N   0  0  0  0  0  0  0  0  0  0  0  0
   24.5478  -11.3496  -15.4807 C   0  0  0  0  0  0  0  0  0  0  0  0
   25.7286  -10.4760  -15.2138 C   0  0  0  0  0  0  0  0  0  0  0  0
   25.3296   -9.1534  -15.8261 C   0  0  0  0  0  0  0  0  0  0  0  0
   23.8361   -9.1845  -15.4335 C   0  0  1  0  0  0  0  0  0  0  0  0
   23.1753   -7.9458  -15.6976 C   0  0  0  0  0  0  0  0  0  0  0  0
   23.0404   -7.4565  -16.8294 O   0  0  0  0  0  0  0  0  0  0  0  0
   20.6361   -5.8530  -13.9995 C   0  0  0  0  0  0  0  0  0  0  0  0
   21.8461   -5.9652  -14.9266 C   0  0  2  0  0  0  0  0  0  0  0  0
   22.5938   -7.1399  -14.6333 N   0  0  0  0  0  0  0  0  0  0  0  0
   22.6529   -4.7229  -14.8370 C   0  0  0  0  0  0  0  0  0  0  0  0
   23.7195   -4.6668  -14.1768 O   0  0  0  0  0  0  0  0  0  0  0  0
   22.2365   -3.5766  -15.4937 O   0  0  0  0  0  0  0  0  0  0  0  0
  2  1  1  0
  3  2  1  0
  4  3  2  0
  5  3  1  0
  5  6  1  0
  7  6  1  0
  8  9  1  0
  8  7  1  0
  9  5  1  0
  9 10  1  6
 10 14  1  0
 11 10  2  0
 13 14  1  0
 13 15  1  0
 13 12  1  1
 15 17  1  0
 16 15  2  0
M  END
$$$$
