GPA.pdb
     RDKit          3D

 17 17  0  0  1  0  0  0  0  0999 V2000
   22.8657  -13.3050  -18.5122 N   0  0  0  0  0  0  0  0  0  0  0  0
   23.7306  -12.1233  -18.3807 C   0  0  0  0  0  0  0  0  0  0  0  0
   23.3656  -11.3169  -17.2179 C   0  0  0  0  0  0  0  0  0  0  0  0
   22.0815  -11.1539  -17.0515 O   0  0  0  0  0  0  0  0  0  0  0  0
   24.1944  -10.6998  -16.2662 N   0  0  0  0  0  0  0  0  0  0  0  0
   25.3472  -11.5308  -15.7173 C   0  0  0  0  0  0  0  0  0  0  0  0
   26.3706  -10.5402  -15.2702 C   0  0  0  0  0  0  0  0  0  0  0  0
   25.8498   -9.2304  -15.8151 C   0  0  0  0  0  0  0  0  0  0  0  0
   24.3461   -9.4879  -15.5736 C   0  0  1  0  0  0  0  0  0  0  0  0
   23.5483   -8.3257  -15.8050 C   0  0  0  0  0  0  0  0  0  0  0  0
   23.4899   -7.7262  -16.8895 O   0  0  0  0  0  0  0  0  0  0  0  0
   20.5149   -6.7606  -14.4961 C   0  0  0  0  0  0  0  0  0  0  0  0
   21.9423   -6.5731  -15.0092 C   0  0  2  0  0  0  0  0  0  0  0  0
   22.7203   -7.7384  -14.7611 N   0  0  0  0  0  0  0  0  0  0  0  0
   22.5239   -5.3455  -14.4117 C   0  0  0  0  0  0  0  0  0  0  0  0
   22.3732   -4.2138  -14.9345 O   0  0  0  0  0  0  0  0  0  0  0  0
   23.2599   -5.4254  -13.2410 O   0  0  0  0  0  0  0  0  0  0  0  0
  2  1  1  0
  3  2  1  0
  4  3  2  0
  5  3  1  0
  5  6  1  0
  7  6  1  0
  8  9  1  0
  8  7  1  0
  9  5  1  0
  9 10  1  6
 10 14  1  0
 11 10  2  0
 13 14  1  0
 13 15  1  0
 13 12  1  1
 15 17  1  0
 16 15  2  0
M  END
$$$$
