GPA.pdb
     RDKit          3D

 17 17  0  0  1  0  0  0  0  0999 V2000
   17.7367  -30.1710   -7.3698 N   0  0  0  0  0  0  0  0  0  0  0  0
   17.5538  -28.8205   -7.9217 C   0  0  0  0  0  0  0  0  0  0  0  0
   17.4415  -27.8184   -6.8640 C   0  0  0  0  0  0  0  0  0  0  0  0
   16.9810  -28.2739   -5.7310 O   0  0  0  0  0  0  0  0  0  0  0  0
   17.7557  -26.4496   -6.8967 N   0  0  0  0  0  0  0  0  0  0  0  0
   19.0706  -26.0624   -7.5613 C   0  0  0  0  0  0  0  0  0  0  0  0
   18.8832  -24.6531   -8.0168 C   0  0  0  0  0  0  0  0  0  0  0  0
   17.4060  -24.4127   -7.8086 C   0  0  0  0  0  0  0  0  0  0  0  0
   17.2500  -25.2041   -6.4914 C   0  0  1  0  0  0  0  0  0  0  0  0
   15.9687  -25.0155   -5.8886 C   0  0  0  0  0  0  0  0  0  0  0  0
   14.9017  -25.4088   -6.3842 O   0  0  0  0  0  0  0  0  0  0  0  0
   14.6541  -23.8120   -2.5433 C   0  0  0  0  0  0  0  0  0  0  0  0
   14.5249  -24.1623   -4.0254 C   0  0  2  0  0  0  0  0  0  0  0  0
   15.8096  -24.3302   -4.6137 N   0  0  0  0  0  0  0  0  0  0  0  0
   13.7021  -23.1316   -4.7057 C   0  0  0  0  0  0  0  0  0  0  0  0
   14.1866  -22.3485   -5.5595 O   0  0  0  0  0  0  0  0  0  0  0  0
   12.3551  -23.0103   -4.4062 O   0  0  0  0  0  0  0  0  0  0  0  0
  2  1  1  0
  3  2  1  0
  4  3  2  0
  5  3  1  0
  5  6  1  0
  7  6  1  0
  8  9  1  0
  8  7  1  0
  9  5  1  0
  9 10  1  6
 10 14  1  0
 11 10  2  0
 13 14  1  0
 13 15  1  0
 13 12  1  1
 15 17  1  0
 16 15  2  0
M  END
$$$$
