GPA.pdb
     RDKit          3D

 17 17  0  0  1  0  0  0  0  0999 V2000
   18.5886   -9.6714  -11.8743 N   0  0  0  0  0  0  0  0  0  0  0  0
   17.6437   -9.6081  -10.7496 C   0  0  0  0  0  0  0  0  0  0  0  0
   16.8366   -8.3905  -10.7936 C   0  0  0  0  0  0  0  0  0  0  0  0
   17.3491   -7.4248  -11.5061 O   0  0  0  0  0  0  0  0  0  0  0  0
   15.6013   -8.1182  -10.1828 N   0  0  0  0  0  0  0  0  0  0  0  0
   14.6031   -9.2666  -10.1095 C   0  0  0  0  0  0  0  0  0  0  0  0
   13.7218   -8.9507   -8.9467 C   0  0  0  0  0  0  0  0  0  0  0  0
   14.4205   -7.7850   -8.2860 C   0  0  0  0  0  0  0  0  0  0  0  0
   14.8940   -7.0708   -9.5711 C   0  0  1  0  0  0  0  0  0  0  0  0
   15.4421   -5.7781   -9.3079 C   0  0  0  0  0  0  0  0  0  0  0  0
   16.3740   -5.5651   -8.5174 O   0  0  0  0  0  0  0  0  0  0  0  0
   15.2256   -2.3572  -10.8961 C   0  0  0  0  0  0  0  0  0  0  0  0
   15.5507   -3.3127   -9.7483 C   0  0  2  0  0  0  0  0  0  0  0  0
   14.9383   -4.5790   -9.9627 N   0  0  0  0  0  0  0  0  0  0  0  0
   15.1611   -2.6870   -8.4603 C   0  0  0  0  0  0  0  0  0  0  0  0
   14.1726   -3.0866   -7.7971 O   0  0  0  0  0  0  0  0  0  0  0  0
   15.8954   -1.6273   -7.9537 O   0  0  0  0  0  0  0  0  0  0  0  0
  2  1  1  0
  3  2  1  0
  4  3  2  0
  5  3  1  0
  5  6  1  0
  7  6  1  0
  8  9  1  0
  8  7  1  0
  9  5  1  0
  9 10  1  1
 10 14  1  0
 11 10  2  0
 13 14  1  0
 13 15  1  0
 13 12  1  6
 15 17  1  0
 16 15  2  0
M  END
$$$$
