GPA.pdb
     RDKit          3D

 17 17  0  0  1  0  0  0  0  0999 V2000
   21.1473  -20.2507  -13.8365 N   0  0  0  0  0  0  0  0  0  0  0  0
   21.3011  -19.8802  -12.4220 C   0  0  0  0  0  0  0  0  0  0  0  0
   21.0938  -21.0273  -11.5405 C   0  0  0  0  0  0  0  0  0  0  0  0
   20.2059  -21.8845  -11.9644 O   0  0  0  0  0  0  0  0  0  0  0  0
   21.7095  -21.3315  -10.3150 N   0  0  0  0  0  0  0  0  0  0  0  0
   23.1824  -20.9681  -10.1772 C   0  0  0  0  0  0  0  0  0  0  0  0
   23.4120  -20.7975   -8.7120 C   0  0  0  0  0  0  0  0  0  0  0  0
   22.0160  -20.8281   -8.1342 C   0  0  0  0  0  0  0  0  0  0  0  0
   21.4286  -21.9102   -9.0669 C   0  0  1  0  0  0  0  0  0  0  0  0
   20.1300  -22.3405   -8.6555 C   0  0  0  0  0  0  0  0  0  0  0  0
   19.1173  -21.6248   -8.6872 O   0  0  0  0  0  0  0  0  0  0  0  0
   18.3704  -25.5788   -8.2459 C   0  0  0  0  0  0  0  0  0  0  0  0
   18.5711  -24.1217   -7.8303 C   0  0  2  0  0  0  0  0  0  0  0  0
   19.8863  -23.6857   -8.1541 N   0  0  0  0  0  0  0  0  0  0  0  0
   18.2443  -23.9700   -6.3907 C   0  0  0  0  0  0  0  0  0  0  0  0
   19.1352  -23.9028   -5.5083 O   0  0  0  0  0  0  0  0  0  0  0  0
   16.9223  -23.8981   -5.9833 O   0  0  0  0  0  0  0  0  0  0  0  0
  2  1  1  0
  3  2  1  0
  4  3  2  0
  5  3  1  0
  5  6  1  0
  7  6  1  0
  8  9  1  0
  8  7  1  0
  9  5  1  0
  9 10  1  1
 10 14  1  0
 11 10  2  0
 13 14  1  0
 13 15  1  0
 13 12  1  1
 15 17  1  0
 16 15  2  0
M  END
$$$$
