GPA.pdb
     RDKit          3D

 17 17  0  0  1  0  0  0  0  0999 V2000
   20.4774  -12.5748  -17.9675 N   0  0  0  0  0  0  0  0  0  0  0  0
   21.5506  -11.5710  -17.9206 C   0  0  0  0  0  0  0  0  0  0  0  0
   21.4397  -10.7207  -16.7372 C   0  0  0  0  0  0  0  0  0  0  0  0
   20.2223  -10.3516  -16.4459 O   0  0  0  0  0  0  0  0  0  0  0  0
   22.4488  -10.2506  -15.8804 N   0  0  0  0  0  0  0  0  0  0  0  0
   23.4443  -11.2803  -15.3616 C   0  0  0  0  0  0  0  0  0  0  0  0
   24.6813  -10.5081  -15.0421 C   0  0  0  0  0  0  0  0  0  0  0  0
   24.4014   -9.1432  -15.6271 C   0  0  0  0  0  0  0  0  0  0  0  0
   22.9001   -9.0685  -15.2716 C   0  0  1  0  0  0  0  0  0  0  0  0
   22.3436   -7.7760  -15.5173 C   0  0  0  0  0  0  0  0  0  0  0  0
   22.2458   -7.2627  -16.6423 O   0  0  0  0  0  0  0  0  0  0  0  0
   19.9071   -5.5208  -14.0333 C   0  0  0  0  0  0  0  0  0  0  0  0
   21.2714   -5.6593  -14.7084 C   0  0  2  0  0  0  0  0  0  0  0  0
   21.8347   -6.9382  -14.4404 N   0  0  0  0  0  0  0  0  0  0  0  0
   22.1461   -4.5369  -14.2875 C   0  0  0  0  0  0  0  0  0  0  0  0
   23.1278   -4.7072  -13.5233 O   0  0  0  0  0  0  0  0  0  0  0  0
   21.8915   -3.2522  -14.7386 O   0  0  0  0  0  0  0  0  0  0  0  0
  2  1  1  0
  3  2  1  0
  4  3  2  0
  5  3  1  0
  5  6  1  0
  7  6  1  0
  8  9  1  0
  8  7  1  0
  9  5  1  0
  9 10  1  6
 10 14  1  0
 11 10  2  0
 13 14  1  0
 13 15  1  0
 13 12  1  1
 15 17  1  0
 16 15  2  0
M  END
$$$$
