MPP.pdb
     RDKit          3D

 23 24  0  0  1  0  0  0  0  0999 V2000
    6.5874  -11.1654   27.1520 C   0  0  0  0  0  0  0  0  0  0  0  0
    7.4603  -12.6688   26.6917 S   0  0  0  0  0  0  0  0  0  0  0  0
    6.3208  -14.0594   26.4720 C   0  0  0  0  0  0  0  0  0  0  0  0
    7.0953  -15.3272   26.1587 C   0  0  0  0  0  0  0  0  0  0  0  0
    6.3135  -16.1829   25.1787 C   0  0  2  0  0  0  0  0  0  0  0  0
    5.8686  -17.3359   25.8891 N   0  0  0  0  0  0  0  0  0  0  0  0
    7.0301  -16.4119   23.9303 C   0  0  0  0  0  0  0  0  0  0  0  0
    6.9400  -17.5927   23.4347 O   0  0  0  0  0  0  0  0  0  0  0  0
    7.8162  -15.4852   23.1969 N   0  0  0  0  0  0  0  0  0  0  0  0
    8.1432  -14.0978   23.4460 C   0  0  0  0  0  0  0  0  0  0  0  0
    7.7449  -13.4879   22.1033 C   0  0  0  0  0  0  0  0  0  0  0  0
    8.3637  -14.4943   21.1635 C   0  0  0  0  0  0  0  0  0  0  0  0
    8.4647  -15.8001   21.9515 C   0  0  1  0  0  0  0  0  0  0  0  0
    9.8339  -16.2991   22.0103 C   0  0  0  0  0  0  0  0  0  0  0  0
   10.5701  -15.8090   22.9574 O   0  0  0  0  0  0  0  0  0  0  0  0
   10.4856  -17.2525   21.1684 N   0  0  0  0  0  0  0  0  0  0  0  0
    9.9645  -17.8367   19.9673 C   0  0  0  0  0  0  0  0  0  0  0  0
   10.8654  -19.0458   19.6738 C   0  0  0  0  0  0  0  0  0  0  0  0
   12.1825  -18.5685   20.2016 C   0  0  0  0  0  0  0  0  0  0  0  0
   11.8183  -17.7733   21.4138 C   0  0  1  0  0  0  0  0  0  0  0  0
   12.8188  -16.6875   21.6338 C   0  0  0  0  0  0  0  0  0  0  0  0
   13.9955  -16.9308   22.2833 O   0  0  0  0  0  0  0  0  0  0  0  0
   12.5550  -15.5452   21.2102 O   0  0  0  0  0  0  0  0  0  0  0  0
  2  1  1  0
  3  2  1  0
  4  3  1  0
  5  7  1  0
  5  4  1  0
  5  6  1  1
  7  9  1  0
  8  7  2  0
  9 10  1  0
  9 13  1  0
 10 11  1  0
 11 12  1  0
 13 12  1  0
 14 16  1  0
 13 14  1  1
 15 14  2  0
 16 17  1  0
 18 17  1  0
 19 18  1  0
 20 21  1  6
 20 16  1  0
 20 19  1  0
 21 22  1  0
 23 21  2  0
M  END
$$$$
