MPP.pdb
     RDKit          3D

 23 24  0  0  1  0  0  0  0  0999 V2000
   10.1964  -13.2709   28.8576 C   0  0  0  0  0  0  0  0  0  0  0  0
   10.1994  -15.0475   29.1359 S   0  0  0  0  0  0  0  0  0  0  0  0
    9.9000  -15.9622   27.6017 C   0  0  0  0  0  0  0  0  0  0  0  0
    9.1798  -17.2651   27.9003 C   0  0  0  0  0  0  0  0  0  0  0  0
    7.6787  -17.0602   27.8074 C   0  0  2  0  0  0  0  0  0  0  0  0
    7.0615  -18.2698   28.2411 N   0  0  0  0  0  0  0  0  0  0  0  0
    7.2586  -16.5306   26.5160 C   0  0  0  0  0  0  0  0  0  0  0  0
    6.6693  -17.3571   25.7302 O   0  0  0  0  0  0  0  0  0  0  0  0
    7.4236  -15.2098   26.0232 N   0  0  0  0  0  0  0  0  0  0  0  0
    7.9700  -14.0190   26.6376 C   0  0  0  0  0  0  0  0  0  0  0  0
    6.8286  -13.0387   26.3733 C   0  0  0  0  0  0  0  0  0  0  0  0
    6.5375  -13.3580   24.9268 C   0  0  0  0  0  0  0  0  0  0  0  0
    7.0155  -14.7931   24.7077 C   0  0  1  0  0  0  0  0  0  0  0  0
    7.9995  -14.8842   23.6349 C   0  0  0  0  0  0  0  0  0  0  0  0
    9.2381  -14.7677   23.9975 O   0  0  0  0  0  0  0  0  0  0  0  0
    7.7943  -15.0807   22.2343 N   0  0  0  0  0  0  0  0  0  0  0  0
    6.6051  -14.7851   21.4898 C   0  0  0  0  0  0  0  0  0  0  0  0
    6.7645  -15.5217   20.1512 C   0  0  0  0  0  0  0  0  0  0  0  0
    8.2474  -15.4610   19.9548 C   0  0  0  0  0  0  0  0  0  0  0  0
    8.8004  -15.6158   21.3349 C   0  0  1  0  0  0  0  0  0  0  0  0
   10.1025  -14.8947   21.4487 C   0  0  0  0  0  0  0  0  0  0  0  0
   10.1833  -13.6706   22.0492 O   0  0  0  0  0  0  0  0  0  0  0  0
   11.1221  -15.4370   20.9793 O   0  0  0  0  0  0  0  0  0  0  0  0
  2  1  1  0
  3  2  1  0
  4  3  1  0
  5  7  1  0
  5  4  1  0
  5  6  1  6
  7  9  1  0
  8  7  2  0
  9 10  1  0
  9 13  1  0
 10 11  1  0
 11 12  1  0
 13 12  1  0
 14 16  1  0
 13 14  1  6
 15 14  2  0
 16 17  1  0
 18 17  1  0
 19 18  1  0
 20 21  1  6
 20 16  1  0
 20 19  1  0
 21 22  1  0
 23 21  2  0
M  END
$$$$
