MPP.pdb
     RDKit          3D

 23 24  0  0  1  0  0  0  0  0999 V2000
    9.9770  -13.4102   28.8254 C   0  0  0  0  0  0  0  0  0  0  0  0
   10.6065  -15.0910   28.9356 S   0  0  0  0  0  0  0  0  0  0  0  0
    9.5945  -16.2453   27.9745 C   0  0  0  0  0  0  0  0  0  0  0  0
    8.2415  -16.4335   28.6375 C   0  0  0  0  0  0  0  0  0  0  0  0
    7.3444  -17.2797   27.7526 C   0  0  2  0  0  0  0  0  0  0  0  0
    7.9454  -18.5686   27.6546 N   0  0  0  0  0  0  0  0  0  0  0  0
    6.9951  -16.6169   26.5022 C   0  0  0  0  0  0  0  0  0  0  0  0
    6.3022  -17.3071   25.6706 O   0  0  0  0  0  0  0  0  0  0  0  0
    7.3296  -15.2994   26.0941 N   0  0  0  0  0  0  0  0  0  0  0  0
    8.0175  -14.2285   26.7825 C   0  0  0  0  0  0  0  0  0  0  0  0
    7.0115  -13.0967   26.5812 C   0  0  0  0  0  0  0  0  0  0  0  0
    6.6934  -13.2849   25.1176 C   0  0  0  0  0  0  0  0  0  0  0  0
    6.9877  -14.7524   24.8078 C   0  0  1  0  0  0  0  0  0  0  0  0
    7.9605  -14.8998   23.7310 C   0  0  0  0  0  0  0  0  0  0  0  0
    9.1466  -15.2751   24.0933 O   0  0  0  0  0  0  0  0  0  0  0  0
    7.7950  -14.6859   22.3277 N   0  0  0  0  0  0  0  0  0  0  0  0
    6.7736  -13.9065   21.6914 C   0  0  0  0  0  0  0  0  0  0  0  0
    6.8121  -14.3095   20.2096 C   0  0  0  0  0  0  0  0  0  0  0  0
    8.2672  -14.6078   20.0218 C   0  0  0  0  0  0  0  0  0  0  0  0
    8.6755  -15.2382   21.3143 C   0  0  1  0  0  0  0  0  0  0  0  0
   10.1129  -14.9481   21.5940 C   0  0  0  0  0  0  0  0  0  0  0  0
   11.1093  -15.5899   20.9152 O   0  0  0  0  0  0  0  0  0  0  0  0
   10.3865  -14.1022   22.4678 O   0  0  0  0  0  0  0  0  0  0  0  0
  2  1  1  0
  3  2  1  0
  4  3  1  0
  5  7  1  0
  5  4  1  0
  5  6  1  6
  7  9  1  0
  8  7  2  0
  9 10  1  0
  9 13  1  0
 10 11  1  0
 11 12  1  0
 13 12  1  0
 14 16  1  0
 13 14  1  6
 15 14  2  0
 16 17  1  0
 18 17  1  0
 19 18  1  0
 20 21  1  1
 20 16  1  0
 20 19  1  0
 21 22  1  0
 23 21  2  0
M  END
$$$$
