MPP.pdb
     RDKit          3D

 23 24  0  0  1  0  0  0  0  0999 V2000
    8.5240  -21.4738   23.0830 C   0  0  0  0  0  0  0  0  0  0  0  0
    8.9035  -20.1351   24.2221 S   0  0  0  0  0  0  0  0  0  0  0  0
    9.9678  -18.8879   23.4527 C   0  0  0  0  0  0  0  0  0  0  0  0
    9.5357  -18.6432   22.0178 C   0  0  0  0  0  0  0  0  0  0  0  0
   10.2386  -17.4156   21.4675 C   0  0  2  0  0  0  0  0  0  0  0  0
   11.6295  -17.7213   21.4024 N   0  0  0  0  0  0  0  0  0  0  0  0
    9.8635  -16.1899   22.1614 C   0  0  0  0  0  0  0  0  0  0  0  0
   10.8063  -15.5822   22.7858 O   0  0  0  0  0  0  0  0  0  0  0  0
    8.5799  -15.5879   22.2294 N   0  0  0  0  0  0  0  0  0  0  0  0
    7.3226  -15.9386   21.6048 C   0  0  0  0  0  0  0  0  0  0  0  0
    6.9561  -14.5948   20.9776 C   0  0  0  0  0  0  0  0  0  0  0  0
    7.2603  -13.6732   22.1338 C   0  0  0  0  0  0  0  0  0  0  0  0
    8.2959  -14.4005   22.9911 C   0  0  1  0  0  0  0  0  0  0  0  0
    7.8434  -14.5728   24.3669 C   0  0  0  0  0  0  0  0  0  0  0  0
    7.6341  -15.7959   24.7402 O   0  0  0  0  0  0  0  0  0  0  0  0
    7.5927  -13.5830   25.3669 N   0  0  0  0  0  0  0  0  0  0  0  0
    7.6524  -12.1600   25.2019 C   0  0  0  0  0  0  0  0  0  0  0  0
    7.6839  -11.5822   26.6250 C   0  0  0  0  0  0  0  0  0  0  0  0
    6.8588  -12.5852   27.3698 C   0  0  0  0  0  0  0  0  0  0  0  0
    7.2184  -13.8901   26.7354 C   0  0  1  0  0  0  0  0  0  0  0  0
    6.0617  -14.8310   26.8085 C   0  0  0  0  0  0  0  0  0  0  0  0
    5.8353  -15.5886   27.9222 O   0  0  0  0  0  0  0  0  0  0  0  0
    5.3020  -14.9122   25.8235 O   0  0  0  0  0  0  0  0  0  0  0  0
  2  1  1  0
  3  2  1  0
  4  3  1  0
  5  7  1  0
  5  4  1  0
  5  6  1  1
  7  9  1  0
  8  7  2  0
  9 10  1  0
  9 13  1  0
 10 11  1  0
 11 12  1  0
 13 12  1  0
 14 16  1  0
 13 14  1  1
 15 14  2  0
 16 17  1  0
 18 17  1  0
 19 18  1  0
 20 21  1  6
 20 16  1  0
 20 19  1  0
 21 22  1  0
 23 21  2  0
M  END
$$$$
