MPP.pdb
     RDKit          3D

 23 24  0  0  1  0  0  0  0  0999 V2000
    6.7959  -20.5619   22.6451 C   0  0  0  0  0  0  0  0  0  0  0  0
    8.0319  -19.9338   23.7904 S   0  0  0  0  0  0  0  0  0  0  0  0
    9.4271  -19.1793   22.9160 C   0  0  0  0  0  0  0  0  0  0  0  0
    8.9601  -18.5820   21.6005 C   0  0  0  0  0  0  0  0  0  0  0  0
    9.8635  -17.4277   21.2062 C   0  0  2  0  0  0  0  0  0  0  0  0
   11.1940  -17.9362   21.1476 N   0  0  0  0  0  0  0  0  0  0  0  0
    9.6467  -16.2365   22.0178 C   0  0  0  0  0  0  0  0  0  0  0  0
   10.6678  -15.7951   22.6585 O   0  0  0  0  0  0  0  0  0  0  0  0
    8.4411  -15.5062   22.1845 N   0  0  0  0  0  0  0  0  0  0  0  0
    7.1291  -15.6757   21.5982 C   0  0  0  0  0  0  0  0  0  0  0  0
    6.8885  -14.2603   21.0766 C   0  0  0  0  0  0  0  0  0  0  0  0
    7.3382  -13.4588   22.2742 C   0  0  0  0  0  0  0  0  0  0  0  0
    8.3203  -14.3506   23.0334 C   0  0  1  0  0  0  0  0  0  0  0  0
    7.9063  -14.5679   24.4150 C   0  0  0  0  0  0  0  0  0  0  0  0
    7.6491  -15.7963   24.7376 O   0  0  0  0  0  0  0  0  0  0  0  0
    7.7390  -13.6171   25.4688 N   0  0  0  0  0  0  0  0  0  0  0  0
    7.8141  -12.1896   25.3587 C   0  0  0  0  0  0  0  0  0  0  0  0
    7.9481  -11.6727   26.7990 C   0  0  0  0  0  0  0  0  0  0  0  0
    7.1546  -12.6929   27.5546 C   0  0  0  0  0  0  0  0  0  0  0  0
    7.4483  -13.9755   26.8452 C   0  0  1  0  0  0  0  0  0  0  0  0
    6.2817  -14.9004   26.9552 C   0  0  0  0  0  0  0  0  0  0  0  0
    6.1305  -15.7230   28.0349 O   0  0  0  0  0  0  0  0  0  0  0  0
    5.4430  -14.9069   26.0330 O   0  0  0  0  0  0  0  0  0  0  0  0
  2  1  1  0
  3  2  1  0
  4  3  1  0
  5  7  1  0
  5  4  1  0
  5  6  1  1
  7  9  1  0
  8  7  2  0
  9 10  1  0
  9 13  1  0
 10 11  1  0
 11 12  1  0
 13 12  1  0
 14 16  1  0
 13 14  1  1
 15 14  2  0
 16 17  1  0
 18 17  1  0
 19 18  1  0
 20 21  1  6
 20 16  1  0
 20 19  1  0
 21 22  1  0
 23 21  2  0
M  END
$$$$
