MPP.pdb
     RDKit          3D

 23 24  0  0  1  0  0  0  0  0999 V2000
   10.3465  -13.9641   29.8629 C   0  0  0  0  0  0  0  0  0  0  0  0
   11.0225  -15.5522   29.3582 S   0  0  0  0  0  0  0  0  0  0  0  0
    9.7122  -16.7328   28.9463 C   0  0  0  0  0  0  0  0  0  0  0  0
    8.4387  -15.9940   28.5750 C   0  0  0  0  0  0  0  0  0  0  0  0
    7.5071  -16.9186   27.8126 C   0  0  2  0  0  0  0  0  0  0  0  0
    8.1352  -18.1972   27.7587 N   0  0  0  0  0  0  0  0  0  0  0  0
    7.0559  -16.3506   26.5483 C   0  0  0  0  0  0  0  0  0  0  0  0
    6.3150  -17.1059   25.8213 O   0  0  0  0  0  0  0  0  0  0  0  0
    7.3380  -15.0618   26.0248 N   0  0  0  0  0  0  0  0  0  0  0  0
    8.0181  -13.9215   26.6002 C   0  0  0  0  0  0  0  0  0  0  0  0
    6.9735  -12.8362   26.3467 C   0  0  0  0  0  0  0  0  0  0  0  0
    6.6107  -13.1497   24.9152 C   0  0  0  0  0  0  0  0  0  0  0  0
    6.9363  -14.6293   24.7124 C   0  0  1  0  0  0  0  0  0  0  0  0
    7.8752  -14.8374   23.6158 C   0  0  0  0  0  0  0  0  0  0  0  0
    9.0968  -15.0941   23.9636 O   0  0  0  0  0  0  0  0  0  0  0  0
    7.6427  -14.7957   22.2064 N   0  0  0  0  0  0  0  0  0  0  0  0
    6.5069  -14.2298   21.5388 C   0  0  0  0  0  0  0  0  0  0  0  0
    6.5583  -14.7773   20.1045 C   0  0  0  0  0  0  0  0  0  0  0  0
    8.0346  -14.8978   19.8865 C   0  0  0  0  0  0  0  0  0  0  0  0
    8.5613  -15.3294   21.2172 C   0  0  1  0  0  0  0  0  0  0  0  0
    9.9530  -14.8234   21.4057 C   0  0  0  0  0  0  0  0  0  0  0  0
   11.0261  -15.4976   20.8963 O   0  0  0  0  0  0  0  0  0  0  0  0
   10.1163  -13.7651   22.0440 O   0  0  0  0  0  0  0  0  0  0  0  0
  2  1  1  0
  3  2  1  0
  4  3  1  0
  5  7  1  0
  5  4  1  0
  5  6  1  6
  7  9  1  0
  8  7  2  0
  9 10  1  0
  9 13  1  0
 10 11  1  0
 11 12  1  0
 13 12  1  0
 14 16  1  0
 13 14  1  6
 15 14  2  0
 16 17  1  0
 18 17  1  0
 19 18  1  0
 20 21  1  1
 20 16  1  0
 20 19  1  0
 21 22  1  0
 23 21  2  0
M  END
$$$$
