MPP.pdb
     RDKit          3D

 23 24  0  0  1  0  0  0  0  0999 V2000
   10.1032  -14.7816   27.8675 C   0  0  0  0  0  0  0  0  0  0  0  0
   10.6996  -16.4778   27.8340 S   0  0  0  0  0  0  0  0  0  0  0  0
   11.8267  -16.7599   26.4447 C   0  0  0  0  0  0  0  0  0  0  0  0
   11.1413  -17.5900   25.3739 C   0  0  0  0  0  0  0  0  0  0  0  0
   11.3562  -16.9570   24.0112 C   0  0  2  0  0  0  0  0  0  0  0  0
   12.7639  -16.8881   23.7969 N   0  0  0  0  0  0  0  0  0  0  0  0
   10.6000  -15.7234   23.8346 C   0  0  0  0  0  0  0  0  0  0  0  0
   11.2301  -14.6331   24.0841 O   0  0  0  0  0  0  0  0  0  0  0  0
    9.2499  -15.5837   23.4198 N   0  0  0  0  0  0  0  0  0  0  0  0
    8.3241  -16.5299   22.8354 C   0  0  0  0  0  0  0  0  0  0  0  0
    7.8651  -15.7314   21.6168 C   0  0  0  0  0  0  0  0  0  0  0  0
    7.6272  -14.3858   22.2584 C   0  0  0  0  0  0  0  0  0  0  0  0
    8.5143  -14.3497   23.5027 C   0  0  1  0  0  0  0  0  0  0  0  0
    7.7441  -14.1028   24.7165 C   0  0  0  0  0  0  0  0  0  0  0  0
    7.5951  -15.1212   25.5039 O   0  0  0  0  0  0  0  0  0  0  0  0
    7.1241  -12.8954   25.1639 N   0  0  0  0  0  0  0  0  0  0  0  0
    7.0672  -11.6469   24.4614 C   0  0  0  0  0  0  0  0  0  0  0  0
    6.6488  -10.6044   25.5092 C   0  0  0  0  0  0  0  0  0  0  0  0
    5.7704  -11.4213   26.4051 C   0  0  0  0  0  0  0  0  0  0  0  0
    6.4310  -12.7620   26.4324 C   0  0  1  0  0  0  0  0  0  0  0  0
    5.4100  -13.8319   26.6350 C   0  0  0  0  0  0  0  0  0  0  0  0
    4.8789  -14.5126   25.5766 O   0  0  0  0  0  0  0  0  0  0  0  0
    5.0486  -14.0920   27.7994 O   0  0  0  0  0  0  0  0  0  0  0  0
  2  1  1  0
  3  2  1  0
  4  3  1  0
  5  7  1  0
  5  4  1  0
  5  6  1  1
  7  9  1  0
  8  7  2  0
  9 10  1  0
  9 13  1  0
 10 11  1  0
 11 12  1  0
 13 12  1  0
 14 16  1  0
 13 14  1  1
 15 14  2  0
 16 17  1  0
 18 17  1  0
 19 18  1  0
 20 21  1  6
 20 16  1  0
 20 19  1  0
 21 22  1  0
 23 21  2  0
M  END
$$$$
