MPP.pdb
     RDKit          3D

 23 24  0  0  1  0  0  0  0  0999 V2000
   10.1000  -13.3339   28.6680 C   0  0  0  0  0  0  0  0  0  0  0  0
   10.4732  -15.0395   29.0984 S   0  0  0  0  0  0  0  0  0  0  0  0
    9.4832  -16.2034   28.1260 C   0  0  0  0  0  0  0  0  0  0  0  0
    8.1669  -16.4860   28.8282 C   0  0  0  0  0  0  0  0  0  0  0  0
    7.2643  -17.3072   27.9255 C   0  0  2  0  0  0  0  0  0  0  0  0
    7.8093  -18.6233   27.8708 N   0  0  0  0  0  0  0  0  0  0  0  0
    6.9899  -16.6524   26.6524 C   0  0  0  0  0  0  0  0  0  0  0  0
    6.3331  -17.3421   25.7916 O   0  0  0  0  0  0  0  0  0  0  0  0
    7.3625  -15.3431   26.2506 N   0  0  0  0  0  0  0  0  0  0  0  0
    8.0710  -14.2918   26.9482 C   0  0  0  0  0  0  0  0  0  0  0  0
    7.0966  -13.1340   26.7397 C   0  0  0  0  0  0  0  0  0  0  0  0
    6.7882  -13.3109   25.2726 C   0  0  0  0  0  0  0  0  0  0  0  0
    7.0474  -14.7849   24.9623 C   0  0  1  0  0  0  0  0  0  0  0  0
    8.0266  -14.9552   23.8947 C   0  0  0  0  0  0  0  0  0  0  0  0
    9.2063  -15.3374   24.2706 O   0  0  0  0  0  0  0  0  0  0  0  0
    7.8736  -14.7573   22.4877 N   0  0  0  0  0  0  0  0  0  0  0  0
    6.8809  -13.9543   21.8354 C   0  0  0  0  0  0  0  0  0  0  0  0
    6.9117  -14.3808   20.3600 C   0  0  0  0  0  0  0  0  0  0  0  0
    8.3567  -14.7298   20.1829 C   0  0  0  0  0  0  0  0  0  0  0  0
    8.7392  -15.3537   21.4864 C   0  0  1  0  0  0  0  0  0  0  0  0
   10.1843  -15.1069   21.7679 C   0  0  0  0  0  0  0  0  0  0  0  0
   11.1605  -15.8216   21.1341 O   0  0  0  0  0  0  0  0  0  0  0  0
   10.4832  -14.2292   22.6010 O   0  0  0  0  0  0  0  0  0  0  0  0
  2  1  1  0
  3  2  1  0
  4  3  1  0
  5  7  1  0
  5  4  1  0
  5  6  1  6
  7  9  1  0
  8  7  2  0
  9 10  1  0
  9 13  1  0
 10 11  1  0
 11 12  1  0
 13 12  1  0
 14 16  1  0
 13 14  1  6
 15 14  2  0
 16 17  1  0
 18 17  1  0
 19 18  1  0
 20 21  1  1
 20 16  1  0
 20 19  1  0
 21 22  1  0
 23 21  2  0
M  END
$$$$
