MPP.pdb
     RDKit          3D

 23 24  0  0  1  0  0  0  0  0999 V2000
    6.3123  -11.5526   27.0469 C   0  0  0  0  0  0  0  0  0  0  0  0
    7.6685  -12.7334   27.0313 S   0  0  0  0  0  0  0  0  0  0  0  0
    7.4396  -13.9931   25.7502 C   0  0  0  0  0  0  0  0  0  0  0  0
    6.5807  -15.1282   26.2787 C   0  0  0  0  0  0  0  0  0  0  0  0
    6.2118  -16.0691   25.1462 C   0  0  2  0  0  0  0  0  0  0  0  0
    5.4752  -17.1472   25.7183 N   0  0  0  0  0  0  0  0  0  0  0  0
    7.3513  -16.4193   24.3074 C   0  0  0  0  0  0  0  0  0  0  0  0
    7.7440  -17.6400   24.3677 O   0  0  0  0  0  0  0  0  0  0  0  0
    8.0788  -15.5716   23.4318 N   0  0  0  0  0  0  0  0  0  0  0  0
    8.0769  -14.1338   23.2687 C   0  0  0  0  0  0  0  0  0  0  0  0
    7.8524  -14.0399   21.7606 C   0  0  0  0  0  0  0  0  0  0  0  0
    8.8308  -15.0858   21.2835 C   0  0  0  0  0  0  0  0  0  0  0  0
    9.0161  -16.0536   22.4520 C   0  0  1  0  0  0  0  0  0  0  0  0
   10.4140  -16.1662   22.8527 C   0  0  0  0  0  0  0  0  0  0  0  0
   10.8586  -15.2155   23.6128 O   0  0  0  0  0  0  0  0  0  0  0  0
   11.3701  -17.1762   22.5241 N   0  0  0  0  0  0  0  0  0  0  0  0
   11.1686  -18.3021   21.6594 C   0  0  0  0  0  0  0  0  0  0  0  0
   12.3381  -19.2557   21.9470 C   0  0  0  0  0  0  0  0  0  0  0  0
   13.4312  -18.2901   22.2845 C   0  0  0  0  0  0  0  0  0  0  0  0
   12.7311  -17.1989   23.0286 C   0  0  1  0  0  0  0  0  0  0  0  0
   13.4356  -15.9001   22.8157 C   0  0  0  0  0  0  0  0  0  0  0  0
   14.5469  -15.5712   23.5384 O   0  0  0  0  0  0  0  0  0  0  0  0
   12.9838  -15.1156   21.9587 O   0  0  0  0  0  0  0  0  0  0  0  0
  2  1  1  0
  3  2  1  0
  4  3  1  0
  5  7  1  0
  5  4  1  0
  5  6  1  1
  7  9  1  0
  8  7  2  0
  9 10  1  0
  9 13  1  0
 10 11  1  0
 11 12  1  0
 13 12  1  0
 14 16  1  0
 13 14  1  1
 15 14  2  0
 16 17  1  0
 18 17  1  0
 19 18  1  0
 20 21  1  6
 20 16  1  0
 20 19  1  0
 21 22  1  0
 23 21  2  0
M  END
$$$$
