MPP.pdb
     RDKit          3D

 23 24  0  0  1  0  0  0  0  0999 V2000
    6.0053  -11.9257   27.0390 C   0  0  0  0  0  0  0  0  0  0  0  0
    7.6368  -12.6782   27.1143 S   0  0  0  0  0  0  0  0  0  0  0  0
    7.5924  -14.4161   26.6064 C   0  0  0  0  0  0  0  0  0  0  0  0
    6.3157  -14.7048   25.8367 C   0  0  0  0  0  0  0  0  0  0  0  0
    6.2727  -16.1680   25.4353 C   0  0  2  0  0  0  0  0  0  0  0  0
    6.6833  -16.9275   26.5696 N   0  0  0  0  0  0  0  0  0  0  0  0
    6.9639  -16.4308   24.1791 C   0  0  0  0  0  0  0  0  0  0  0  0
    6.9214  -17.6408   23.7525 O   0  0  0  0  0  0  0  0  0  0  0  0
    7.6785  -15.5084   23.3711 N   0  0  0  0  0  0  0  0  0  0  0  0
    7.9790  -14.1050   23.5555 C   0  0  0  0  0  0  0  0  0  0  0  0
    7.4856  -13.5520   22.2197 C   0  0  0  0  0  0  0  0  0  0  0  0
    8.0777  -14.5725   21.2779 C   0  0  0  0  0  0  0  0  0  0  0  0
    8.2623  -15.8476   22.1003 C   0  0  1  0  0  0  0  0  0  0  0  0
    9.6466  -16.3069   22.0941 C   0  0  0  0  0  0  0  0  0  0  0  0
   10.4383  -15.7155   22.9323 O   0  0  0  0  0  0  0  0  0  0  0  0
   10.2603  -17.3174   21.2911 N   0  0  0  0  0  0  0  0  0  0  0  0
    9.6571  -18.0403   20.2098 C   0  0  0  0  0  0  0  0  0  0  0  0
   10.5813  -19.2397   19.9510 C   0  0  0  0  0  0  0  0  0  0  0  0
   11.9185  -18.6633   20.2987 C   0  0  0  0  0  0  0  0  0  0  0  0
   11.6324  -17.7616   21.4562 C   0  0  1  0  0  0  0  0  0  0  0  0
   12.5983  -16.6235   21.4697 C   0  0  0  0  0  0  0  0  0  0  0  0
   13.7794  -16.7061   22.1506 O   0  0  0  0  0  0  0  0  0  0  0  0
   12.3010  -15.5878   20.8429 O   0  0  0  0  0  0  0  0  0  0  0  0
  2  1  1  0
  3  2  1  0
  4  3  1  0
  5  7  1  0
  5  4  1  0
  5  6  1  1
  7  9  1  0
  8  7  2  0
  9 10  1  0
  9 13  1  0
 10 11  1  0
 11 12  1  0
 13 12  1  0
 14 16  1  0
 13 14  1  1
 15 14  2  0
 16 17  1  0
 18 17  1  0
 19 18  1  0
 20 21  1  6
 20 16  1  0
 20 19  1  0
 21 22  1  0
 23 21  2  0
M  END
$$$$
