MPP.pdb
     RDKit          3D

 23 24  0  0  1  0  0  0  0  0999 V2000
    7.2929  -18.1082   25.3159 C   0  0  0  0  0  0  0  0  0  0  0  0
    6.6443  -18.6012   23.7128 S   0  0  0  0  0  0  0  0  0  0  0  0
    7.2726  -17.5408   22.3857 C   0  0  0  0  0  0  0  0  0  0  0  0
    6.4030  -16.3039   22.2469 C   0  0  0  0  0  0  0  0  0  0  0  0
    7.2741  -15.0802   22.0291 C   0  0  2  0  0  0  0  0  0  0  0  0
    8.1062  -15.3512   20.9038 N   0  0  0  0  0  0  0  0  0  0  0  0
    7.9366  -14.6329   23.2480 C   0  0  0  0  0  0  0  0  0  0  0  0
    9.1948  -14.3958   23.1536 O   0  0  0  0  0  0  0  0  0  0  0  0
    7.3568  -14.4283   24.5273 N   0  0  0  0  0  0  0  0  0  0  0  0
    6.0097  -14.6362   25.0132 C   0  0  0  0  0  0  0  0  0  0  0  0
    5.7417  -13.2691   25.6398 C   0  0  0  0  0  0  0  0  0  0  0  0
    7.0384  -13.0624   26.3845 C   0  0  0  0  0  0  0  0  0  0  0  0
    8.0817  -13.9104   25.6573 C   0  0  1  0  0  0  0  0  0  0  0  0
    8.7219  -14.8721   26.5475 C   0  0  0  0  0  0  0  0  0  0  0  0
    8.4460  -16.1177   26.3203 O   0  0  0  0  0  0  0  0  0  0  0  0
    9.6112  -14.6385   27.6416 N   0  0  0  0  0  0  0  0  0  0  0  0
    9.8575  -13.3874   28.2972 C   0  0  0  0  0  0  0  0  0  0  0  0
   11.1407  -13.5976   29.1151 C   0  0  0  0  0  0  0  0  0  0  0  0
   11.0249  -15.0447   29.4807 C   0  0  0  0  0  0  0  0  0  0  0  0
   10.4100  -15.6737   28.2721 C   0  0  1  0  0  0  0  0  0  0  0  0
    9.5913  -16.8566   28.6708 C   0  0  0  0  0  0  0  0  0  0  0  0
   10.1774  -18.0507   28.9804 O   0  0  0  0  0  0  0  0  0  0  0  0
    8.3518  -16.7306   28.7141 O   0  0  0  0  0  0  0  0  0  0  0  0
  2  1  1  0
  3  2  1  0
  4  3  1  0
  5  7  1  0
  5  4  1  0
  5  6  1  6
  7  9  1  0
  8  7  2  0
  9 10  1  0
  9 13  1  0
 10 11  1  0
 11 12  1  0
 13 12  1  0
 14 16  1  0
 13 14  1  1
 15 14  2  0
 16 17  1  0
 18 17  1  0
 19 18  1  0
 20 21  1  1
 20 16  1  0
 20 19  1  0
 21 22  1  0
 23 21  2  0
M  END
$$$$
