DCN.pdb
     RDKit          3D

 23 22  0  0  1  0  0  0  0  0999 V2000
   19.1715  -10.6023  -16.7656 N   0  0  0  0  0  0  0  0  0  0  0  0
   18.2957  -10.2116  -15.6966 C   0  0  1  0  0  0  0  0  0  0  0  0
   18.1056  -11.3082  -14.7032 C   0  0  0  0  0  0  0  0  0  0  0  0
   17.5068  -12.4787  -15.3794 C   0  0  0  0  0  0  0  0  0  0  0  0
   16.2646  -12.5176  -15.5417 O   0  0  0  0  0  0  0  0  0  0  0  0
   18.7397   -8.9412  -15.0833 C   0  0  0  0  0  0  0  0  0  0  0  0
   18.0668   -8.4667  -14.1425 O   0  0  0  0  0  0  0  0  0  0  0  0
   18.2395  -13.5576  -15.8557 O   0  0  0  0  0  0  0  0  0  0  0  0
   19.8882   -8.2295  -15.5033 N   0  0  0  0  0  0  0  0  0  0  0  0
   20.2581   -6.9402  -14.8685 C   0  0  1  0  0  0  0  0  0  0  0  0
   21.6711   -7.1256  -14.3085 C   0  0  0  0  0  0  0  0  0  0  0  0
   22.0210   -8.8118  -13.8177 S   0  0  0  0  0  0  0  0  0  0  0  0
   20.1982   -5.8694  -15.8670 C   0  0  0  0  0  0  0  0  0  0  0  0
   20.1540   -6.1050  -17.1233 O   0  0  0  0  0  0  0  0  0  0  0  0
   18.0300   -2.9523  -19.4781 N   0  0  0  0  0  0  0  0  0  0  0  0
   18.4260   -2.6012  -18.1422 C   0  0  0  0  0  0  0  0  0  0  0  0
   18.4759   -1.4136  -17.8120 O   0  0  0  0  0  0  0  0  0  0  0  0
   18.7536   -3.6881  -17.2322 C   0  0  0  0  0  0  0  0  0  0  0  0
   20.0040   -3.4594  -16.4674 C   0  0  2  0  0  0  0  0  0  0  0  0
   20.1846   -4.5182  -15.4710 N   0  0  0  0  0  0  0  0  0  0  0  0
   20.1400   -2.1679  -15.8004 C   0  0  0  0  0  0  0  0  0  0  0  0
   19.6682   -1.9352  -14.6826 O   0  0  0  0  0  0  0  0  0  0  0  0
   20.8259   -1.1308  -16.4240 O   0  0  0  0  0  0  0  0  0  0  0  0
  2  1  1  6
  3  4  1  0
  3  2  1  0
  4  8  1  0
  5  4  2  0
  6  2  1  0
  6  9  1  0
  7  6  2  0
 10  9  1  0
 10 13  1  0
 10 11  1  6
 11 12  1  0
 13 20  1  0
 14 13  2  0
 16 15  1  0
 16 17  2  0
 18 16  1  0
 19 21  1  0
 19 18  1  1
 20 19  1  0
 21 23  1  0
 22 21  2  0
M  END
$$$$
