DCN.pdb
     RDKit          3D

 23 22  0  0  1  0  0  0  0  0999 V2000
   15.3592  -14.0042  -16.7620 N   0  0  0  0  0  0  0  0  0  0  0  0
   15.9826  -13.2540  -15.7080 C   0  0  1  0  0  0  0  0  0  0  0  0
   17.2993  -13.8345  -15.3146 C   0  0  0  0  0  0  0  0  0  0  0  0
   17.0900  -15.1971  -14.7803 C   0  0  0  0  0  0  0  0  0  0  0  0
   17.8650  -16.1156  -15.1363 O   0  0  0  0  0  0  0  0  0  0  0  0
   16.0592  -11.8176  -16.0519 C   0  0  0  0  0  0  0  0  0  0  0  0
   16.4359  -11.4993  -17.2007 O   0  0  0  0  0  0  0  0  0  0  0  0
   16.0754  -15.5352  -13.8950 O   0  0  0  0  0  0  0  0  0  0  0  0
   15.7288  -10.7789  -15.1498 N   0  0  0  0  0  0  0  0  0  0  0  0
   15.8407   -9.3557  -15.5549 C   0  0  1  0  0  0  0  0  0  0  0  0
   14.6189   -8.6436  -14.9680 C   0  0  0  0  0  0  0  0  0  0  0  0
   14.7572   -6.8586  -15.0021 S   0  0  0  0  0  0  0  0  0  0  0  0
   17.0979   -8.8006  -15.0464 C   0  0  0  0  0  0  0  0  0  0  0  0
   17.6086   -9.1674  -13.9326 O   0  0  0  0  0  0  0  0  0  0  0  0
   22.5030   -7.8535  -15.8843 N   0  0  0  0  0  0  0  0  0  0  0  0
   21.4335   -7.7861  -14.9271 C   0  0  0  0  0  0  0  0  0  0  0  0
   21.6445   -7.3128  -13.8076 O   0  0  0  0  0  0  0  0  0  0  0  0
   20.1323   -8.2905  -15.3386 C   0  0  0  0  0  0  0  0  0  0  0  0
   19.0548   -7.2738  -15.2602 C   0  0  2  0  0  0  0  0  0  0  0  0
   17.8024   -7.8276  -15.7810 N   0  0  0  0  0  0  0  0  0  0  0  0
   19.3065   -5.9966  -15.9211 C   0  0  0  0  0  0  0  0  0  0  0  0
   18.8031   -5.6905  -17.0070 O   0  0  0  0  0  0  0  0  0  0  0  0
   20.1462   -5.0593  -15.3285 O   0  0  0  0  0  0  0  0  0  0  0  0
  2  1  1  6
  3  4  1  0
  3  2  1  0
  4  8  1  0
  5  4  2  0
  6  2  1  0
  6  9  1  0
  7  6  2  0
 10  9  1  0
 10 13  1  0
 10 11  1  1
 11 12  1  0
 13 20  1  0
 14 13  2  0
 16 15  1  0
 16 17  2  0
 18 16  1  0
 19 21  1  0
 19 18  1  6
 20 19  1  0
 21 23  1  0
 22 21  2  0
M  END
$$$$
