DCN.pdb
     RDKit          3D

 23 22  0  0  1  0  0  0  0  0999 V2000
   15.7275  -13.4796  -16.0720 N   0  0  0  0  0  0  0  0  0  0  0  0
   16.7392  -12.7912  -15.3204 C   0  0  1  0  0  0  0  0  0  0  0  0
   17.9358  -13.6493  -15.0808 C   0  0  0  0  0  0  0  0  0  0  0  0
   17.5210  -14.8727  -14.3618 C   0  0  0  0  0  0  0  0  0  0  0  0
   16.3363  -14.9726  -13.9648 O   0  0  0  0  0  0  0  0  0  0  0  0
   17.0706  -11.4909  -15.9422 C   0  0  0  0  0  0  0  0  0  0  0  0
   16.9327  -11.3695  -17.1789 O   0  0  0  0  0  0  0  0  0  0  0  0
   18.3691  -15.9381  -14.0912 O   0  0  0  0  0  0  0  0  0  0  0  0
   17.5369  -10.3717  -15.2131 N   0  0  0  0  0  0  0  0  0  0  0  0
   17.8411   -9.0908  -15.8981 C   0  0  1  0  0  0  0  0  0  0  0  0
   16.5162   -8.5871  -16.4774 C   0  0  0  0  0  0  0  0  0  0  0  0
   15.1791   -8.5858  -15.2863 S   0  0  0  0  0  0  0  0  0  0  0  0
   18.4151   -8.1467  -14.9357 C   0  0  0  0  0  0  0  0  0  0  0  0
   18.6570   -8.4673  -13.7214 O   0  0  0  0  0  0  0  0  0  0  0  0
   21.9212   -4.9086  -13.4513 N   0  0  0  0  0  0  0  0  0  0  0  0
   22.1522   -6.2312  -13.9632 C   0  0  0  0  0  0  0  0  0  0  0  0
   23.2702   -6.7413  -13.8558 O   0  0  0  0  0  0  0  0  0  0  0  0
   21.0314   -6.9114  -14.5940 C   0  0  0  0  0  0  0  0  0  0  0  0
   19.7942   -6.0937  -14.6363 C   0  0  2  0  0  0  0  0  0  0  0  0
   18.7287   -6.8294  -15.3218 N   0  0  0  0  0  0  0  0  0  0  0  0
   19.9026   -4.7679  -15.2379 C   0  0  0  0  0  0  0  0  0  0  0  0
   19.9269   -4.5835  -16.4592 O   0  0  0  0  0  0  0  0  0  0  0  0
   19.9840   -3.6401  -14.4278 O   0  0  0  0  0  0  0  0  0  0  0  0
  2  1  1  6
  3  4  1  0
  3  2  1  0
  4  8  1  0
  5  4  2  0
  6  2  1  0
  6  9  1  0
  7  6  2  0
 10  9  1  0
 10 13  1  0
 10 11  1  1
 11 12  1  0
 13 20  1  0
 14 13  2  0
 16 15  1  0
 16 17  2  0
 18 16  1  0
 19 21  1  0
 19 18  1  6
 20 19  1  0
 21 23  1  0
 22 21  2  0
M  END
$$$$
