DCN.pdb
     RDKit          3D

 23 22  0  0  1  0  0  0  0  0999 V2000
   17.5209  -10.4776  -14.4185 N   0  0  0  0  0  0  0  0  0  0  0  0
   18.4956   -9.8441  -15.2619 C   0  0  1  0  0  0  0  0  0  0  0  0
   18.0242   -9.7346  -16.6730 C   0  0  0  0  0  0  0  0  0  0  0  0
   17.8506  -11.0913  -17.2345 C   0  0  0  0  0  0  0  0  0  0  0  0
   18.6950  -11.5230  -18.0540 O   0  0  0  0  0  0  0  0  0  0  0  0
   18.9311   -8.5508  -14.6917 C   0  0  0  0  0  0  0  0  0  0  0  0
   18.0797   -7.8336  -14.1228 O   0  0  0  0  0  0  0  0  0  0  0  0
   16.7970  -11.9353  -16.9103 O   0  0  0  0  0  0  0  0  0  0  0  0
   20.2629   -8.0774  -14.7545 N   0  0  0  0  0  0  0  0  0  0  0  0
   20.6110   -6.7194  -14.2677 C   0  0  1  0  0  0  0  0  0  0  0  0
   22.0383   -6.8107  -13.7208 C   0  0  0  0  0  0  0  0  0  0  0  0
   22.7255   -5.2198  -13.2700 S   0  0  0  0  0  0  0  0  0  0  0  0
   20.5053   -5.7627  -15.3725 C   0  0  0  0  0  0  0  0  0  0  0  0
   20.7993   -6.0722  -16.5781 O   0  0  0  0  0  0  0  0  0  0  0  0
   19.7321   -1.7979  -18.3449 N   0  0  0  0  0  0  0  0  0  0  0  0
   18.5577   -2.5370  -17.9720 C   0  0  0  0  0  0  0  0  0  0  0  0
   17.5079   -2.3729  -18.5987 O   0  0  0  0  0  0  0  0  0  0  0  0
   18.6725   -3.4581  -16.8516 C   0  0  0  0  0  0  0  0  0  0  0  0
   20.0247   -3.4779  -16.2415 C   0  0  2  0  0  0  0  0  0  0  0  0
   20.0657   -4.4450  -15.1417 N   0  0  0  0  0  0  0  0  0  0  0  0
   20.5462   -2.2033  -15.7570 C   0  0  0  0  0  0  0  0  0  0  0  0
   20.7880   -1.9849  -14.5653 O   0  0  0  0  0  0  0  0  0  0  0  0
   20.7931   -1.1668  -16.6511 O   0  0  0  0  0  0  0  0  0  0  0  0
  2  1  1  1
  3  4  1  0
  3  2  1  0
  4  8  1  0
  5  4  2  0
  6  2  1  0
  6  9  1  0
  7  6  2  0
 10  9  1  0
 10 13  1  0
 10 11  1  6
 11 12  1  0
 13 20  1  0
 14 13  2  0
 16 15  1  0
 16 17  2  0
 18 16  1  0
 19 21  1  0
 19 18  1  1
 20 19  1  0
 21 23  1  0
 22 21  2  0
M  END
$$$$
