DCN.pdb
     RDKit          3D

 23 22  0  0  1  0  0  0  0  0999 V2000
   19.0608  -12.1210  -17.7692 N   0  0  0  0  0  0  0  0  0  0  0  0
   18.2592  -11.7876  -16.6253 C   0  0  1  0  0  0  0  0  0  0  0  0
   17.8019  -13.0036  -15.8919 C   0  0  0  0  0  0  0  0  0  0  0  0
   17.1983  -13.9523  -16.8518 C   0  0  0  0  0  0  0  0  0  0  0  0
   16.3285  -13.5364  -17.6526 O   0  0  0  0  0  0  0  0  0  0  0  0
   18.9520  -10.8107  -15.7574 C   0  0  0  0  0  0  0  0  0  0  0  0
   18.4051  -10.4737  -14.6849 O   0  0  0  0  0  0  0  0  0  0  0  0
   17.5351  -15.2970  -16.9285 O   0  0  0  0  0  0  0  0  0  0  0  0
   20.2042  -10.2334  -16.0743 N   0  0  0  0  0  0  0  0  0  0  0  0
   20.9154   -9.3748  -15.0948 C   0  0  1  0  0  0  0  0  0  0  0  0
   22.3467   -9.9120  -15.0106 C   0  0  0  0  0  0  0  0  0  0  0  0
   23.4503   -8.8420  -14.0921 S   0  0  0  0  0  0  0  0  0  0  0  0
   20.8763   -7.9818  -15.5479 C   0  0  0  0  0  0  0  0  0  0  0  0
   21.0391   -7.6545  -16.7735 O   0  0  0  0  0  0  0  0  0  0  0  0
   18.6134   -3.0709  -16.4364 N   0  0  0  0  0  0  0  0  0  0  0  0
   19.3037   -3.5167  -15.2576 C   0  0  0  0  0  0  0  0  0  0  0  0
   19.8462   -2.6914  -14.5184 O   0  0  0  0  0  0  0  0  0  0  0  0
   19.3261   -4.9474  -14.9943 C   0  0  0  0  0  0  0  0  0  0  0  0
   20.6825   -5.5417  -15.0843 C   0  0  2  0  0  0  0  0  0  0  0  0
   20.6515   -6.9352  -14.6330 N   0  0  0  0  0  0  0  0  0  0  0  0
   21.7527   -4.8485  -14.3734 C   0  0  0  0  0  0  0  0  0  0  0  0
   22.1138   -5.1586  -13.2334 O   0  0  0  0  0  0  0  0  0  0  0  0
   22.4165   -3.7863  -14.9783 O   0  0  0  0  0  0  0  0  0  0  0  0
  2  1  1  6
  3  4  1  0
  3  2  1  0
  4  8  1  0
  5  4  2  0
  6  2  1  0
  6  9  1  0
  7  6  2  0
 10  9  1  0
 10 13  1  0
 10 11  1  6
 11 12  1  0
 13 20  1  0
 14 13  2  0
 16 15  1  0
 16 17  2  0
 18 16  1  0
 19 21  1  0
 19 18  1  1
 20 19  1  0
 21 23  1  0
 22 21  2  0
M  END
$$$$
