DCN.pdb
     RDKit          3D

 23 22  0  0  1  0  0  0  0  0999 V2000
   21.8671  -11.2736  -19.8091 N   0  0  0  0  0  0  0  0  0  0  0  0
   22.4130  -10.8901  -18.5374 C   0  0  1  0  0  0  0  0  0  0  0  0
   23.7129  -10.1727  -18.6827 C   0  0  0  0  0  0  0  0  0  0  0  0
   24.7159  -11.0949  -19.2568 C   0  0  0  0  0  0  0  0  0  0  0  0
   24.4562  -11.6822  -20.3332 O   0  0  0  0  0  0  0  0  0  0  0  0
   21.4206  -10.1400  -17.7375 C   0  0  0  0  0  0  0  0  0  0  0  0
   20.3443   -9.8097  -18.2812 O   0  0  0  0  0  0  0  0  0  0  0  0
   25.9482  -11.3598  -18.6747 O   0  0  0  0  0  0  0  0  0  0  0  0
   21.6216   -9.7734  -16.3859 N   0  0  0  0  0  0  0  0  0  0  0  0
   20.5659   -9.0581  -15.6269 C   0  0  1  0  0  0  0  0  0  0  0  0
   19.9983  -10.0665  -14.6242 C   0  0  0  0  0  0  0  0  0  0  0  0
   18.8257   -9.3425  -13.4807 S   0  0  0  0  0  0  0  0  0  0  0  0
   21.1491   -7.8898  -14.9620 C   0  0  0  0  0  0  0  0  0  0  0  0
   22.2884   -7.9286  -14.3821 O   0  0  0  0  0  0  0  0  0  0  0  0
   24.0865   -3.4145  -15.3415 N   0  0  0  0  0  0  0  0  0  0  0  0
   22.9727   -3.9211  -14.5883 C   0  0  0  0  0  0  0  0  0  0  0  0
   22.5945   -3.3216  -13.5787 O   0  0  0  0  0  0  0  0  0  0  0  0
   22.3379   -5.1396  -15.0672 C   0  0  0  0  0  0  0  0  0  0  0  0
   21.0894   -5.4780  -14.3409 C   0  0  2  0  0  0  0  0  0  0  0  0
   20.4641   -6.6598  -14.9399 N   0  0  0  0  0  0  0  0  0  0  0  0
   20.0836   -4.4250  -14.2361 C   0  0  0  0  0  0  0  0  0  0  0  0
   20.2942   -3.3478  -13.6690 O   0  0  0  0  0  0  0  0  0  0  0  0
   18.8208   -4.6106  -14.7889 O   0  0  0  0  0  0  0  0  0  0  0  0
  2  1  1  6
  3  4  1  0
  3  2  1  0
  4  8  1  0
  5  4  2  0
  6  2  1  0
  6  9  1  0
  7  6  2  0
 10  9  1  0
 10 13  1  0
 10 11  1  1
 11 12  1  0
 13 20  1  0
 14 13  2  0
 16 15  1  0
 16 17  2  0
 18 16  1  0
 19 21  1  0
 19 18  1  6
 20 19  1  0
 21 23  1  0
 22 21  2  0
M  END
$$$$
