DCN.pdb
     RDKit          3D

 23 22  0  0  1  0  0  0  0  0999 V2000
   21.3898  -11.2986  -16.7791 N   0  0  0  0  0  0  0  0  0  0  0  0
   20.5902  -10.3042  -17.4382 C   0  0  1  0  0  0  0  0  0  0  0  0
   19.3877  -10.8991  -18.0906 C   0  0  0  0  0  0  0  0  0  0  0  0
   19.8087  -12.0229  -18.9541 C   0  0  0  0  0  0  0  0  0  0  0  0
   20.6257  -11.8059  -19.8795 O   0  0  0  0  0  0  0  0  0  0  0  0
   20.2638   -9.1911  -16.5207 C   0  0  0  0  0  0  0  0  0  0  0  0
   19.5863   -8.2365  -16.9596 O   0  0  0  0  0  0  0  0  0  0  0  0
   19.3528  -13.3261  -18.8076 O   0  0  0  0  0  0  0  0  0  0  0  0
   20.6772   -9.1457  -15.1684 N   0  0  0  0  0  0  0  0  0  0  0  0
   20.3620   -7.9725  -14.3159 C   0  0  1  0  0  0  0  0  0  0  0  0
   20.3430   -8.4820  -12.8721 C   0  0  0  0  0  0  0  0  0  0  0  0
   18.9885   -9.6042  -12.5365 S   0  0  0  0  0  0  0  0  0  0  0  0
   21.3759   -6.9344  -14.5197 C   0  0  0  0  0  0  0  0  0  0  0  0
   22.5433   -7.1955  -14.9721 O   0  0  0  0  0  0  0  0  0  0  0  0
   23.6426   -2.6412  -15.7123 N   0  0  0  0  0  0  0  0  0  0  0  0
   23.0757   -3.5675  -16.6532 C   0  0  0  0  0  0  0  0  0  0  0  0
   23.3106   -3.4362  -17.8571 O   0  0  0  0  0  0  0  0  0  0  0  0
   22.2377   -4.6326  -16.1239 C   0  0  0  0  0  0  0  0  0  0  0  0
   22.0055   -4.5282  -14.6623 C   0  0  2  0  0  0  0  0  0  0  0  0
   21.0944   -5.5874  -14.2213 N   0  0  0  0  0  0  0  0  0  0  0  0
   21.5047   -3.2501  -14.1656 C   0  0  0  0  0  0  0  0  0  0  0  0
   20.3072   -2.9463  -14.1777 O   0  0  0  0  0  0  0  0  0  0  0  0
   22.3890   -2.3090  -13.6487 O   0  0  0  0  0  0  0  0  0  0  0  0
  2  1  1  1
  3  4  1  0
  3  2  1  0
  4  8  1  0
  5  4  2  0
  6  2  1  0
  6  9  1  0
  7  6  2  0
 10  9  1  0
 10 13  1  0
 10 11  1  1
 11 12  1  0
 13 20  1  0
 14 13  2  0
 16 15  1  0
 16 17  2  0
 18 16  1  0
 19 21  1  0
 19 18  1  6
 20 19  1  0
 21 23  1  0
 22 21  2  0
M  END
$$$$
