DCN.pdb
     RDKit          3D

 23 22  0  0  1  0  0  0  0  0999 V2000
   24.5103  -19.5230  -14.7242 N   0  0  0  0  0  0  0  0  0  0  0  0
   23.1066  -19.6687  -14.9901 C   0  0  1  0  0  0  0  0  0  0  0  0
   22.8501  -20.1622  -16.3744 C   0  0  0  0  0  0  0  0  0  0  0  0
   23.5085  -19.2593  -17.3425 C   0  0  0  0  0  0  0  0  0  0  0  0
   23.4085  -18.0200  -17.1835 O   0  0  0  0  0  0  0  0  0  0  0  0
   22.4509  -20.4893  -13.9489 C   0  0  0  0  0  0  0  0  0  0  0  0
   22.2053  -21.6886  -14.2026 O   0  0  0  0  0  0  0  0  0  0  0  0
   24.2435  -19.6979  -18.4356 O   0  0  0  0  0  0  0  0  0  0  0  0
   22.0844  -19.9912  -12.6764 N   0  0  0  0  0  0  0  0  0  0  0  0
   21.4556  -20.8769  -11.6653 C   0  0  1  0  0  0  0  0  0  0  0  0
   21.7965  -20.2791  -10.2976 C   0  0  0  0  0  0  0  0  0  0  0  0
   21.2633  -21.3008   -8.9270 S   0  0  0  0  0  0  0  0  0  0  0  0
   20.0097  -20.9326  -11.8966 C   0  0  0  0  0  0  0  0  0  0  0  0
   19.3130  -19.8873  -12.1369 O   0  0  0  0  0  0  0  0  0  0  0  0
   18.4623  -22.3341  -14.6452 N   0  0  0  0  0  0  0  0  0  0  0  0
   17.7863  -23.4793  -14.1009 C   0  0  0  0  0  0  0  0  0  0  0  0
   17.5141  -24.4335  -14.8337 O   0  0  0  0  0  0  0  0  0  0  0  0
   17.4521  -23.4506  -12.6852 C   0  0  0  0  0  0  0  0  0  0  0  0
   17.8664  -22.1977  -12.0073 C   0  0  2  0  0  0  0  0  0  0  0  0
   19.3240  -22.1620  -11.8642 N   0  0  0  0  0  0  0  0  0  0  0  0
   17.2665  -21.9255  -10.7045 C   0  0  0  0  0  0  0  0  0  0  0  0
   17.8637  -22.1057   -9.6382 O   0  0  0  0  0  0  0  0  0  0  0  0
   15.9652  -21.4406  -10.6247 O   0  0  0  0  0  0  0  0  0  0  0  0
  2  1  1  1
  3  4  1  0
  3  2  1  0
  4  8  1  0
  5  4  2  0
  6  2  1  0
  6  9  1  0
  7  6  2  0
 10  9  1  0
 10 13  1  0
 10 11  1  1
 11 12  1  0
 13 20  1  0
 14 13  2  0
 16 15  1  0
 16 17  2  0
 18 16  1  0
 19 21  1  0
 19 18  1  1
 20 19  1  0
 21 23  1  0
 22 21  2  0
M  END
$$$$
