DCN.pdb
     RDKit          3D

 23 22  0  0  1  0  0  0  0  0999 V2000
   22.1056  -12.2315  -19.2751 N   0  0  0  0  0  0  0  0  0  0  0  0
   22.5411  -11.2787  -18.2929 C   0  0  1  0  0  0  0  0  0  0  0  0
   23.8200  -10.6186  -18.6858 C   0  0  0  0  0  0  0  0  0  0  0  0
   24.8937  -11.6334  -18.7428 C   0  0  0  0  0  0  0  0  0  0  0  0
   26.0367  -11.2886  -19.1242 O   0  0  0  0  0  0  0  0  0  0  0  0
   21.4645  -10.3169  -17.9716 C   0  0  0  0  0  0  0  0  0  0  0  0
   20.8073   -9.8221  -18.9131 O   0  0  0  0  0  0  0  0  0  0  0  0
   24.7195  -12.9665  -18.3965 O   0  0  0  0  0  0  0  0  0  0  0  0
   21.1351   -9.9235  -16.6531 N   0  0  0  0  0  0  0  0  0  0  0  0
   20.0520   -8.9410  -16.4009 C   0  0  1  0  0  0  0  0  0  0  0  0
   18.8925   -9.7273  -15.7831 C   0  0  0  0  0  0  0  0  0  0  0  0
   18.8848  -11.4568  -16.2473 S   0  0  0  0  0  0  0  0  0  0  0  0
   20.5440   -7.8912  -15.5048 C   0  0  0  0  0  0  0  0  0  0  0  0
   21.6085   -8.0269  -14.8088 O   0  0  0  0  0  0  0  0  0  0  0  0
   21.6855   -3.5582  -13.2958 N   0  0  0  0  0  0  0  0  0  0  0  0
   22.4430   -4.2005  -14.3342 C   0  0  0  0  0  0  0  0  0  0  0  0
   23.5708   -3.7857  -14.6135 O   0  0  0  0  0  0  0  0  0  0  0  0
   21.8259   -5.3289  -15.0145 C   0  0  0  0  0  0  0  0  0  0  0  0
   20.4246   -5.5752  -14.5945 C   0  0  2  0  0  0  0  0  0  0  0  0
   19.8506   -6.6722  -15.3778 N   0  0  0  0  0  0  0  0  0  0  0  0
   19.5112   -4.4378  -14.6522 C   0  0  0  0  0  0  0  0  0  0  0  0
   19.0170   -4.0248  -15.7064 O   0  0  0  0  0  0  0  0  0  0  0  0
   19.1608   -3.7662  -13.4855 O   0  0  0  0  0  0  0  0  0  0  0  0
  2  1  1  6
  3  4  1  0
  3  2  1  0
  4  8  1  0
  5  4  2  0
  6  2  1  0
  6  9  1  0
  7  6  2  0
 10  9  1  0
 10 13  1  0
 10 11  1  1
 11 12  1  0
 13 20  1  0
 14 13  2  0
 16 15  1  0
 16 17  2  0
 18 16  1  0
 19 21  1  0
 19 18  1  6
 20 19  1  0
 21 23  1  0
 22 21  2  0
M  END
$$$$
