DCN.pdb
     RDKit          3D

 23 22  0  0  1  0  0  0  0  0999 V2000
   18.4734  -11.3024  -17.4423 N   0  0  0  0  0  0  0  0  0  0  0  0
   17.8734  -10.7987  -16.2386 C   0  0  1  0  0  0  0  0  0  0  0  0
   17.1499  -11.8658  -15.4881 C   0  0  0  0  0  0  0  0  0  0  0  0
   15.9370  -12.2524  -16.2400 C   0  0  0  0  0  0  0  0  0  0  0  0
   16.0466  -13.0441  -17.2055 O   0  0  0  0  0  0  0  0  0  0  0  0
   18.8651  -10.0764  -15.4126 C   0  0  0  0  0  0  0  0  0  0  0  0
   18.5064   -9.6393  -14.2977 O   0  0  0  0  0  0  0  0  0  0  0  0
   14.6616  -11.7901  -15.9447 O   0  0  0  0  0  0  0  0  0  0  0  0
   20.2026   -9.8514  -15.8152 N   0  0  0  0  0  0  0  0  0  0  0  0
   21.1537   -9.1368  -14.9280 C   0  0  1  0  0  0  0  0  0  0  0  0
   22.5227   -9.7843  -15.1539 C   0  0  0  0  0  0  0  0  0  0  0  0
   23.3797  -10.1747  -13.6308 S   0  0  0  0  0  0  0  0  0  0  0  0
   21.1575   -7.7105  -15.2642 C   0  0  0  0  0  0  0  0  0  0  0  0
   21.2948   -7.2891  -16.4639 O   0  0  0  0  0  0  0  0  0  0  0  0
   21.0168   -2.6403  -15.0308 N   0  0  0  0  0  0  0  0  0  0  0  0
   19.7454   -3.2641  -14.7876 C   0  0  0  0  0  0  0  0  0  0  0  0
   18.7199   -2.5786  -14.7800 O   0  0  0  0  0  0  0  0  0  0  0  0
   19.7363   -4.7009  -14.5583 C   0  0  0  0  0  0  0  0  0  0  0  0
   21.0877   -5.3119  -14.5949 C   0  0  2  0  0  0  0  0  0  0  0  0
   21.0048   -6.7357  -14.2596 N   0  0  0  0  0  0  0  0  0  0  0  0
   22.1104   -4.6969  -13.7538 C   0  0  0  0  0  0  0  0  0  0  0  0
   22.4128   -5.1304  -12.6372 O   0  0  0  0  0  0  0  0  0  0  0  0
   22.7942   -3.5708  -14.1999 O   0  0  0  0  0  0  0  0  0  0  0  0
  2  1  1  6
  3  4  1  0
  3  2  1  0
  4  8  1  0
  5  4  2  0
  6  2  1  0
  6  9  1  0
  7  6  2  0
 10  9  1  0
 10 13  1  0
 10 11  1  6
 11 12  1  0
 13 20  1  0
 14 13  2  0
 16 15  1  0
 16 17  2  0
 18 16  1  0
 19 21  1  0
 19 18  1  1
 20 19  1  0
 21 23  1  0
 22 21  2  0
M  END
$$$$
