DCN.pdb
     RDKit          3D

 23 22  0  0  1  0  0  0  0  0999 V2000
   28.1411  -21.7551  -16.3669 N   0  0  0  0  0  0  0  0  0  0  0  0
   27.6477  -20.7289  -15.4917 C   0  0  1  0  0  0  0  0  0  0  0  0
   27.0154  -19.6088  -16.2475 C   0  0  0  0  0  0  0  0  0  0  0  0
   28.0534  -18.9004  -17.0263 C   0  0  0  0  0  0  0  0  0  0  0  0
   29.0571  -18.4454  -16.4291 O   0  0  0  0  0  0  0  0  0  0  0  0
   26.7664  -21.2982  -14.4493 C   0  0  0  0  0  0  0  0  0  0  0  0
   26.0757  -22.3002  -14.7352 O   0  0  0  0  0  0  0  0  0  0  0  0
   27.9917  -18.7009  -18.3988 O   0  0  0  0  0  0  0  0  0  0  0  0
   26.6606  -20.7701  -13.1410 N   0  0  0  0  0  0  0  0  0  0  0  0
   25.5820  -21.2177  -12.2252 C   0  0  1  0  0  0  0  0  0  0  0  0
   25.9832  -20.7465  -10.8247 C   0  0  0  0  0  0  0  0  0  0  0  0
   24.6856  -20.9587   -9.6090 S   0  0  0  0  0  0  0  0  0  0  0  0
   24.3055  -20.6408  -12.6552 C   0  0  0  0  0  0  0  0  0  0  0  0
   24.2099  -19.4485  -13.1081 O   0  0  0  0  0  0  0  0  0  0  0  0
   19.6600  -19.9406  -14.4100 N   0  0  0  0  0  0  0  0  0  0  0  0
   20.6583  -20.5330  -15.2569 C   0  0  0  0  0  0  0  0  0  0  0  0
   20.4507  -20.6323  -16.4688 O   0  0  0  0  0  0  0  0  0  0  0  0
   21.8857  -20.9935  -14.6258 C   0  0  0  0  0  0  0  0  0  0  0  0
   21.8736  -20.8619  -13.1481 C   0  0  2  0  0  0  0  0  0  0  0  0
   23.1176  -21.3936  -12.5859 N   0  0  0  0  0  0  0  0  0  0  0  0
   20.7495  -21.4705  -12.4429 C   0  0  0  0  0  0  0  0  0  0  0  0
   20.8208  -22.5715  -11.8871 O   0  0  0  0  0  0  0  0  0  0  0  0
   19.5286  -20.8074  -12.3749 O   0  0  0  0  0  0  0  0  0  0  0  0
  2  1  1  6
  3  4  1  0
  3  2  1  0
  4  8  1  0
  5  4  2  0
  6  2  1  0
  6  9  1  0
  7  6  2  0
 10  9  1  0
 10 13  1  0
 10 11  1  1
 11 12  1  0
 13 20  1  0
 14 13  2  0
 16 15  1  0
 16 17  2  0
 18 16  1  0
 19 21  1  0
 19 18  1  6
 20 19  1  0
 21 23  1  0
 22 21  2  0
M  END
$$$$
