DCN.pdb
     RDKit          3D

 23 22  0  0  1  0  0  0  0  0999 V2000
   34.7146  -29.8899  -18.7475 N   0  0  0  0  0  0  0  0  0  0  0  0
   33.3811  -29.3569  -18.7445 C   0  0  1  0  0  0  0  0  0  0  0  0
   32.4289  -30.2423  -18.0130 C   0  0  0  0  0  0  0  0  0  0  0  0
   32.4363  -31.5836  -18.6349 C   0  0  0  0  0  0  0  0  0  0  0  0
   32.1775  -31.6888  -19.8568 O   0  0  0  0  0  0  0  0  0  0  0  0
   33.3682  -27.9603  -18.2578 C   0  0  0  0  0  0  0  0  0  0  0  0
   34.4190  -27.4893  -17.7711 O   0  0  0  0  0  0  0  0  0  0  0  0
   32.7153  -32.7560  -17.9457 O   0  0  0  0  0  0  0  0  0  0  0  0
   32.2285  -27.1237  -18.3123 N   0  0  0  0  0  0  0  0  0  0  0  0
   32.3316  -25.6768  -17.9991 C   0  0  1  0  0  0  0  0  0  0  0  0
   33.3433  -25.0930  -18.9891 C   0  0  0  0  0  0  0  0  0  0  0  0
   35.0392  -25.5129  -18.5968 S   0  0  0  0  0  0  0  0  0  0  0  0
   31.0118  -25.0538  -18.1294 C   0  0  0  0  0  0  0  0  0  0  0  0
   30.2570  -25.2519  -19.1427 O   0  0  0  0  0  0  0  0  0  0  0  0
   26.6020  -22.7918  -17.1309 N   0  0  0  0  0  0  0  0  0  0  0  0
   27.3744  -22.5843  -15.9372 C   0  0  0  0  0  0  0  0  0  0  0  0
   26.8585  -22.0276  -14.9647 O   0  0  0  0  0  0  0  0  0  0  0  0
   28.7522  -23.0517  -15.9403 C   0  0  0  0  0  0  0  0  0  0  0  0
   29.1798  -23.6164  -17.2438 C   0  0  2  0  0  0  0  0  0  0  0  0
   30.5178  -24.2010  -17.1236 N   0  0  0  0  0  0  0  0  0  0  0  0
   29.1719  -22.7093  -18.3877 C   0  0  0  0  0  0  0  0  0  0  0  0
   30.1231  -21.9726  -18.6685 O   0  0  0  0  0  0  0  0  0  0  0  0
   28.0587  -22.6469  -19.2194 O   0  0  0  0  0  0  0  0  0  0  0  0
  2  1  1  1
  3  4  1  0
  3  2  1  0
  4  8  1  0
  5  4  2  0
  6  2  1  0
  6  9  1  0
  7  6  2  0
 10  9  1  0
 10 13  1  0
 10 11  1  6
 11 12  1  0
 13 20  1  0
 14 13  2  0
 16 15  1  0
 16 17  2  0
 18 16  1  0
 19 21  1  0
 19 18  1  1
 20 19  1  0
 21 23  1  0
 22 21  2  0
M  END
$$$$
