DCN.pdb
     RDKit          3D

 23 22  0  0  1  0  0  0  0  0999 V2000
   17.9510   -9.0338  -14.7627 N   0  0  0  0  0  0  0  0  0  0  0  0
   17.5957   -9.7068  -13.5448 C   0  0  1  0  0  0  0  0  0  0  0  0
   18.0656  -11.1226  -13.5332 C   0  0  0  0  0  0  0  0  0  0  0  0
   17.4030  -11.8641  -14.6272 C   0  0  0  0  0  0  0  0  0  0  0  0
   16.1617  -11.7614  -14.7668 O   0  0  0  0  0  0  0  0  0  0  0  0
   18.0397   -8.9364  -12.3630 C   0  0  0  0  0  0  0  0  0  0  0  0
   17.7659   -9.3788  -11.2262 O   0  0  0  0  0  0  0  0  0  0  0  0
   18.0737  -12.6815  -15.5270 O   0  0  0  0  0  0  0  0  0  0  0  0
   18.7600   -7.7215  -12.4470 N   0  0  0  0  0  0  0  0  0  0  0  0
   19.1689   -6.9936  -11.2201 C   0  0  1  0  0  0  0  0  0  0  0  0
   20.5581   -6.4161  -11.5050 C   0  0  0  0  0  0  0  0  0  0  0  0
   21.1290   -5.2894  -10.2356 S   0  0  0  0  0  0  0  0  0  0  0  0
   18.1879   -5.9462  -10.9239 C   0  0  0  0  0  0  0  0  0  0  0  0
   17.6363   -5.2444  -11.8399 O   0  0  0  0  0  0  0  0  0  0  0  0
   14.9321   -2.8261   -8.5941 N   0  0  0  0  0  0  0  0  0  0  0  0
   15.1571   -3.8962   -7.6620 C   0  0  0  0  0  0  0  0  0  0  0  0
   14.5098   -3.9388   -6.6127 O   0  0  0  0  0  0  0  0  0  0  0  0
   16.1575   -4.8924   -8.0135 C   0  0  0  0  0  0  0  0  0  0  0  0
   16.8258   -4.6240   -9.3105 C   0  0  2  0  0  0  0  0  0  0  0  0
   17.8089   -5.6722   -9.5957 N   0  0  0  0  0  0  0  0  0  0  0  0
   17.4770   -3.3258   -9.4585 C   0  0  0  0  0  0  0  0  0  0  0  0
   16.8765   -2.2537   -9.3311 O   0  0  0  0  0  0  0  0  0  0  0  0
   18.8340   -3.2572   -9.7562 O   0  0  0  0  0  0  0  0  0  0  0  0
  2  1  1  6
  3  4  1  0
  3  2  1  0
  4  8  1  0
  5  4  2  0
  6  2  1  0
  6  9  1  0
  7  6  2  0
 10  9  1  0
 10 13  1  0
 10 11  1  6
 11 12  1  0
 13 20  1  0
 14 13  2  0
 16 15  1  0
 16 17  2  0
 18 16  1  0
 19 21  1  0
 19 18  1  1
 20 19  1  0
 21 23  1  0
 22 21  2  0
M  END
$$$$
