DCN.pdb
     RDKit          3D

 23 22  0  0  1  0  0  0  0  0999 V2000
   13.6627  -12.6159  -11.4258 N   0  0  0  0  0  0  0  0  0  0  0  0
   14.9875  -12.1028  -11.6357 C   0  0  1  0  0  0  0  0  0  0  0  0
   15.5870  -12.6103  -12.9040 C   0  0  0  0  0  0  0  0  0  0  0  0
   15.6970  -14.0831  -12.8347 C   0  0  0  0  0  0  0  0  0  0  0  0
   16.2907  -14.6925  -13.7551 O   0  0  0  0  0  0  0  0  0  0  0  0
   15.0086  -10.6276  -11.5316 C   0  0  0  0  0  0  0  0  0  0  0  0
   14.0715   -9.9805  -12.0475 O   0  0  0  0  0  0  0  0  0  0  0  0
   15.1783  -14.8514  -11.8012 O   0  0  0  0  0  0  0  0  0  0  0  0
   16.0341   -9.9044  -10.8781 N   0  0  0  0  0  0  0  0  0  0  0  0
   16.0194   -8.4208  -10.8506 C   0  0  1  0  0  0  0  0  0  0  0  0
   14.7621   -8.0169  -10.0756 C   0  0  0  0  0  0  0  0  0  0  0  0
   14.4756   -9.0209   -8.6209 S   0  0  0  0  0  0  0  0  0  0  0  0
   17.2424   -7.9321  -10.2080 C   0  0  0  0  0  0  0  0  0  0  0  0
   18.1183   -8.7209   -9.7117 O   0  0  0  0  0  0  0  0  0  0  0  0
   21.4253   -5.2746   -9.5160 N   0  0  0  0  0  0  0  0  0  0  0  0
   21.1980   -6.2618  -10.5350 C   0  0  0  0  0  0  0  0  0  0  0  0
   22.1437   -6.6657  -11.2163 O   0  0  0  0  0  0  0  0  0  0  0  0
   19.8358   -6.7415  -10.7120 C   0  0  0  0  0  0  0  0  0  0  0  0
   18.8556   -6.0737   -9.8209 C   0  0  2  0  0  0  0  0  0  0  0  0
   17.5022   -6.5514  -10.1150 N   0  0  0  0  0  0  0  0  0  0  0  0
   18.8442   -4.6139   -9.8328 C   0  0  0  0  0  0  0  0  0  0  0  0
   18.2844   -3.9528  -10.7135 O   0  0  0  0  0  0  0  0  0  0  0  0
   19.4831   -3.9042   -8.8213 O   0  0  0  0  0  0  0  0  0  0  0  0
  2  1  1  6
  3  4  1  0
  3  2  1  0
  4  8  1  0
  5  4  2  0
  6  2  1  0
  6  9  1  0
  7  6  2  0
 10  9  1  0
 10 13  1  0
 10 11  1  1
 11 12  1  0
 13 20  1  0
 14 13  2  0
 16 15  1  0
 16 17  2  0
 18 16  1  0
 19 21  1  0
 19 18  1  6
 20 19  1  0
 21 23  1  0
 22 21  2  0
M  END
$$$$
