DCN.pdb
     RDKit          3D

 23 22  0  0  1  0  0  0  0  0999 V2000
   19.6824  -11.7701  -15.6374 N   0  0  0  0  0  0  0  0  0  0  0  0
   18.8735  -10.5851  -15.5762 C   0  0  1  0  0  0  0  0  0  0  0  0
   17.4261  -10.8878  -15.7740 C   0  0  0  0  0  0  0  0  0  0  0  0
   17.2359  -11.5078  -17.1026 C   0  0  0  0  0  0  0  0  0  0  0  0
   16.5154  -12.5287  -17.1998 O   0  0  0  0  0  0  0  0  0  0  0  0
   19.1444   -9.8201  -14.3398 C   0  0  0  0  0  0  0  0  0  0  0  0
   19.1863  -10.4382  -13.2539 O   0  0  0  0  0  0  0  0  0  0  0  0
   17.8113  -11.0279  -18.2715 O   0  0  0  0  0  0  0  0  0  0  0  0
   19.3598   -8.4219  -14.3167 N   0  0  0  0  0  0  0  0  0  0  0  0
   19.7012   -7.7259  -13.0513 C   0  0  1  0  0  0  0  0  0  0  0  0
   20.7437   -6.6639  -13.4118 C   0  0  0  0  0  0  0  0  0  0  0  0
   21.1156   -5.5510  -12.0591 S   0  0  0  0  0  0  0  0  0  0  0  0
   18.4897   -7.1349  -12.4768 C   0  0  0  0  0  0  0  0  0  0  0  0
   17.5831   -6.5926  -13.1976 O   0  0  0  0  0  0  0  0  0  0  0  0
   15.0064   -5.3666   -9.2066 N   0  0  0  0  0  0  0  0  0  0  0  0
   15.6727   -6.4314   -8.5087 C   0  0  0  0  0  0  0  0  0  0  0  0
   15.2543   -6.7955   -7.4068 O   0  0  0  0  0  0  0  0  0  0  0  0
   16.8292   -7.0350   -9.1529 C   0  0  0  0  0  0  0  0  0  0  0  0
   17.0844   -6.5103  -10.5168 C   0  0  2  0  0  0  0  0  0  0  0  0
   18.2759   -7.1458  -11.0850 N   0  0  0  0  0  0  0  0  0  0  0  0
   17.2239   -5.0631  -10.6492 C   0  0  0  0  0  0  0  0  0  0  0  0
   18.3176   -4.4888  -10.6361 O   0  0  0  0  0  0  0  0  0  0  0  0
   16.0942   -4.2654  -10.7984 O   0  0  0  0  0  0  0  0  0  0  0  0
  2  1  1  1
  3  4  1  0
  3  2  1  0
  4  8  1  0
  5  4  2  0
  6  2  1  0
  6  9  1  0
  7  6  2  0
 10  9  1  0
 10 13  1  0
 10 11  1  6
 11 12  1  0
 13 20  1  0
 14 13  2  0
 16 15  1  0
 16 17  2  0
 18 16  1  0
 19 21  1  0
 19 18  1  1
 20 19  1  0
 21 23  1  0
 22 21  2  0
M  END
$$$$
