DCN.pdb
     RDKit          3D

 23 22  0  0  1  0  0  0  0  0999 V2000
   19.1096  -12.7206  -15.0347 N   0  0  0  0  0  0  0  0  0  0  0  0
   18.6953  -11.6607  -15.9107 C   0  0  1  0  0  0  0  0  0  0  0  0
   17.2240  -11.6839  -16.1561 C   0  0  0  0  0  0  0  0  0  0  0  0
   16.8466  -12.9947  -16.7265 C   0  0  0  0  0  0  0  0  0  0  0  0
   17.4789  -13.4319  -17.7165 O   0  0  0  0  0  0  0  0  0  0  0  0
   19.1842  -10.3509  -15.4281 C   0  0  0  0  0  0  0  0  0  0  0  0
   18.7894   -9.9409  -14.3150 O   0  0  0  0  0  0  0  0  0  0  0  0
   15.8211  -13.7891  -16.2318 O   0  0  0  0  0  0  0  0  0  0  0  0
   20.0775   -9.5323  -16.1586 N   0  0  0  0  0  0  0  0  0  0  0  0
   20.5771   -8.2558  -15.5900 C   0  0  1  0  0  0  0  0  0  0  0  0
   22.1054   -8.3263  -15.6506 C   0  0  0  0  0  0  0  0  0  0  0  0
   22.8192   -9.3232  -14.3455 S   0  0  0  0  0  0  0  0  0  0  0  0
   20.0468   -7.1336  -16.3689 C   0  0  0  0  0  0  0  0  0  0  0  0
   19.5682   -7.2812  -17.5457 O   0  0  0  0  0  0  0  0  0  0  0  0
   18.0676   -2.9120  -18.0640 N   0  0  0  0  0  0  0  0  0  0  0  0
   17.3177   -4.0789  -17.6891 C   0  0  0  0  0  0  0  0  0  0  0  0
   16.1446   -4.1943  -18.0529 O   0  0  0  0  0  0  0  0  0  0  0  0
   17.9968   -5.0823  -16.8836 C   0  0  0  0  0  0  0  0  0  0  0  0
   19.4057   -4.7351  -16.5748 C   0  0  2  0  0  0  0  0  0  0  0  0
   20.0431   -5.8293  -15.8381 N   0  0  0  0  0  0  0  0  0  0  0  0
   19.6314   -3.4916  -15.8439 C   0  0  0  0  0  0  0  0  0  0  0  0
   19.2977   -3.3344  -14.6648 O   0  0  0  0  0  0  0  0  0  0  0  0
   20.2476   -2.4155  -16.4740 O   0  0  0  0  0  0  0  0  0  0  0  0
  2  1  1  1
  3  4  1  0
  3  2  1  0
  4  8  1  0
  5  4  2  0
  6  2  1  0
  6  9  1  0
  7  6  2  0
 10  9  1  0
 10 13  1  0
 10 11  1  6
 11 12  1  0
 13 20  1  0
 14 13  2  0
 16 15  1  0
 16 17  2  0
 18 16  1  0
 19 21  1  0
 19 18  1  1
 20 19  1  0
 21 23  1  0
 22 21  2  0
M  END
$$$$
