FMY.pdb
     RDKit          3D

 32 33  0  0  1  0  0  0  0  0999 V2000
    7.2722  -16.7173   25.5193 N   0  0  0  0  0  0  0  0  0  0  0  0
    6.5311  -16.7669   24.2761 C   0  0  1  0  0  0  0  0  0  0  0  0
    5.6703  -15.5237   24.2302 C   0  0  0  0  0  0  0  0  0  0  0  0
    6.3083  -14.5268   25.1291 C   0  0  0  0  0  0  0  0  0  0  0  0
    5.9996  -14.4051   26.4674 C   0  0  0  0  0  0  0  0  0  0  0  0
    6.6170  -13.4613   27.2759 C   0  0  0  0  0  0  0  0  0  0  0  0
    7.5636  -12.6172   26.7455 C   0  0  0  0  0  0  0  0  0  0  0  0
    7.8796  -12.7244   25.4265 C   0  0  0  0  0  0  0  0  0  0  0  0
    7.2617  -13.6680   24.6202 C   0  0  0  0  0  0  0  0  0  0  0  0
    7.4849  -16.8388   23.1618 C   0  0  0  0  0  0  0  0  0  0  0  0
    7.3155  -17.6997   22.2667 O   0  0  0  0  0  0  0  0  0  0  0  0
    7.2717  -11.7565   19.9842 C   0  0  0  0  0  0  0  0  0  0  0  0
    8.4759  -13.0657   19.7568 S   0  0  0  0  0  0  0  0  0  0  0  0
    8.5848  -14.1751   21.1880 C   0  0  0  0  0  0  0  0  0  0  0  0
    9.5415  -15.2928   20.8609 C   0  0  0  0  0  0  0  0  0  0  0  0
    9.6755  -16.1997   22.0663 C   0  0  2  0  0  0  0  0  0  0  0  0
    8.6113  -15.9825   23.0231 N   0  0  0  0  0  0  0  0  0  0  0  0
   10.9902  -16.0212   22.7265 C   0  0  0  0  0  0  0  0  0  0  0  0
   11.4991  -14.8719   22.8004 O   0  0  0  0  0  0  0  0  0  0  0  0
   10.8836  -13.7332   29.8249 O   0  0  0  0  0  0  0  0  0  0  0  0
   10.7290  -14.5633   28.7308 C   0  0  0  0  0  0  0  0  0  0  0  0
    9.5071  -14.8107   28.1728 C   0  0  0  0  0  0  0  0  0  0  0  0
    9.3858  -15.6454   27.0795 C   0  0  0  0  0  0  0  0  0  0  0  0
   10.4799  -16.2563   26.5126 C   0  0  0  0  0  0  0  0  0  0  0  0
   10.4073  -17.1568   25.3481 C   0  0  0  0  0  0  0  0  0  0  0  0
   11.7566  -17.3358   24.7495 C   0  0  2  0  0  0  0  0  0  0  0  0
   11.7252  -17.0879   23.2918 N   0  0  0  0  0  0  0  0  0  0  0  0
   12.4141  -18.6218   25.0340 C   0  0  0  0  0  0  0  0  0  0  0  0
   12.0392  -19.7022   24.5329 O   0  0  0  0  0  0  0  0  0  0  0  0
   11.7072  -15.9943   27.0902 C   0  0  0  0  0  0  0  0  0  0  0  0
   11.8427  -15.1631   28.1820 C   0  0  0  0  0  0  0  0  0  0  0  0
   13.4966  -18.6540   25.8922 O   0  0  0  0  0  0  0  0  0  0  0  0
  2  1  1  1
  2 10  1  0
  2  3  1  0
  4  3  1  0
  4  9  1  0
  5  4  2  0
  6  5  1  0
  6  7  2  0
  7  8  1  0
  8  9  2  0
 10 11  2  0
 13 12  1  0
 14 13  1  0
 14 15  1  0
 16 15  1  6
 17 16  1  0
 17 10  1  0
 18 19  2  0
 18 16  1  0
 20 21  1  0
 21 31  2  0
 21 22  1  0
 22 23  2  0
 23 24  1  0
 24 25  1  0
 26 25  1  6
 26 27  1  0
 27 18  1  0
 28 26  1  0
 28 32  1  0
 29 28  2  0
 30 24  2  0
 31 30  1  0
M  END
$$$$
