FMY.pdb
     RDKit          3D

 32 33  0  0  1  0  0  0  0  0999 V2000
    6.3542  -18.1227   25.8821 N   0  0  0  0  0  0  0  0  0  0  0  0
    6.7278  -16.7756   25.5041 C   0  0  1  0  0  0  0  0  0  0  0  0
    7.7320  -16.2964   26.5292 C   0  0  0  0  0  0  0  0  0  0  0  0
    7.5117  -14.8360   26.6955 C   0  0  0  0  0  0  0  0  0  0  0  0
    6.2619  -14.2538   26.7062 C   0  0  0  0  0  0  0  0  0  0  0  0
    6.0957  -12.8852   26.8640 C   0  0  0  0  0  0  0  0  0  0  0  0
    7.1947  -12.0733   27.0150 C   0  0  0  0  0  0  0  0  0  0  0  0
    8.4352  -12.6323   27.0066 C   0  0  0  0  0  0  0  0  0  0  0  0
    8.5994  -13.9999   26.8488 C   0  0  0  0  0  0  0  0  0  0  0  0
    7.2759  -16.8034   24.1420 C   0  0  0  0  0  0  0  0  0  0  0  0
    7.6473  -17.8969   23.6547 O   0  0  0  0  0  0  0  0  0  0  0  0
    8.1420  -11.4692   20.1516 C   0  0  0  0  0  0  0  0  0  0  0  0
    7.9924  -12.8573   19.0262 S   0  0  0  0  0  0  0  0  0  0  0  0
    8.2340  -14.4562   19.8484 C   0  0  0  0  0  0  0  0  0  0  0  0
    7.7706  -14.3392   21.2778 C   0  0  0  0  0  0  0  0  0  0  0  0
    7.8573  -15.6983   21.9402 C   0  0  2  0  0  0  0  0  0  0  0  0
    7.4183  -15.6531   23.3188 N   0  0  0  0  0  0  0  0  0  0  0  0
    9.2341  -16.2418   21.8679 C   0  0  0  0  0  0  0  0  0  0  0  0
    9.5920  -16.8986   20.8551 O   0  0  0  0  0  0  0  0  0  0  0  0
   11.3084  -13.3950   18.0792 O   0  0  0  0  0  0  0  0  0  0  0  0
   11.5392  -14.3076   19.0911 C   0  0  0  0  0  0  0  0  0  0  0  0
   12.1200  -13.9496   20.2744 C   0  0  0  0  0  0  0  0  0  0  0  0
   12.3373  -14.8855   21.2661 C   0  0  0  0  0  0  0  0  0  0  0  0
   11.9812  -16.2042   21.1050 C   0  0  0  0  0  0  0  0  0  0  0  0
   12.1918  -17.2437   22.1285 C   0  0  0  0  0  0  0  0  0  0  0  0
   11.1931  -17.1017   23.2210 C   0  0  2  0  0  0  0  0  0  0  0  0
   10.1929  -16.0634   22.8909 N   0  0  0  0  0  0  0  0  0  0  0  0
   11.7477  -16.8666   24.5642 C   0  0  0  0  0  0  0  0  0  0  0  0
   12.6374  -17.5838   25.0672 O   0  0  0  0  0  0  0  0  0  0  0  0
   11.3952  -16.5476   19.9021 C   0  0  0  0  0  0  0  0  0  0  0  0
   11.1724  -15.6234   18.9033 C   0  0  0  0  0  0  0  0  0  0  0  0
   11.2743  -15.8090   25.3170 O   0  0  0  0  0  0  0  0  0  0  0  0
  2  1  1  1
  2 10  1  0
  2  3  1  0
  4  3  1  0
  4  9  1  0
  5  4  2  0
  6  5  1  0
  6  7  2  0
  7  8  1  0
  8  9  2  0
 10 11  2  0
 13 12  1  0
 14 13  1  0
 14 15  1  0
 16 15  1  1
 17 16  1  0
 17 10  1  0
 18 19  2  0
 18 16  1  0
 20 21  1  0
 21 31  2  0
 21 22  1  0
 22 23  2  0
 23 24  1  0
 24 25  1  0
 26 25  1  6
 26 27  1  0
 27 18  1  0
 28 26  1  0
 28 32  1  0
 29 28  2  0
 30 24  2  0
 31 30  1  0
M  END
$$$$
