FMY.pdb
     RDKit          3D

 32 33  0  0  1  0  0  0  0  0999 V2000
    8.4277  -17.7915   21.4084 N   0  0  0  0  0  0  0  0  0  0  0  0
    8.5803  -16.3711   21.1709 C   0  0  1  0  0  0  0  0  0  0  0  0
    7.4916  -15.9708   20.1996 C   0  0  0  0  0  0  0  0  0  0  0  0
    7.6920  -14.5287   19.9011 C   0  0  0  0  0  0  0  0  0  0  0  0
    7.2782  -13.5157   20.7400 C   0  0  0  0  0  0  0  0  0  0  0  0
    7.4832  -12.1795   20.4270 C   0  0  0  0  0  0  0  0  0  0  0  0
    8.1138  -11.8383   19.2540 C   0  0  0  0  0  0  0  0  0  0  0  0
    8.5283  -12.8261   18.4152 C   0  0  0  0  0  0  0  0  0  0  0  0
    8.3226  -14.1607   18.7295 C   0  0  0  0  0  0  0  0  0  0  0  0
    8.4832  -15.6657   22.4551 C   0  0  0  0  0  0  0  0  0  0  0  0
    8.0467  -14.4909   22.4759 O   0  0  0  0  0  0  0  0  0  0  0  0
    6.9104  -12.0218   27.8559 C   0  0  0  0  0  0  0  0  0  0  0  0
    7.0950  -12.9450   26.3297 S   0  0  0  0  0  0  0  0  0  0  0  0
    6.9373  -14.7363   26.5699 C   0  0  0  0  0  0  0  0  0  0  0  0
    7.1267  -15.4203   25.2403 C   0  0  0  0  0  0  0  0  0  0  0  0
    8.6079  -15.6021   24.9826 C   0  0  2  0  0  0  0  0  0  0  0  0
    8.8573  -16.2331   23.7039 N   0  0  0  0  0  0  0  0  0  0  0  0
    9.2468  -16.3874   26.0647 C   0  0  0  0  0  0  0  0  0  0  0  0
    9.2188  -15.9560   27.2473 O   0  0  0  0  0  0  0  0  0  0  0  0
   10.1363  -21.2429   21.3318 O   0  0  0  0  0  0  0  0  0  0  0  0
   10.5302  -20.7270   22.5519 C   0  0  0  0  0  0  0  0  0  0  0  0
   11.4526  -19.7249   22.6540 C   0  0  0  0  0  0  0  0  0  0  0  0
   11.8253  -19.2308   23.8884 C   0  0  0  0  0  0  0  0  0  0  0  0
   11.2881  -19.7227   25.0551 C   0  0  0  0  0  0  0  0  0  0  0  0
   11.6510  -19.2342   26.3974 C   0  0  0  0  0  0  0  0  0  0  0  0
   10.5771  -18.3574   26.9350 C   0  0  2  0  0  0  0  0  0  0  0  0
    9.9013  -17.6208   25.8451 N   0  0  0  0  0  0  0  0  0  0  0  0
   10.9874  -17.4282   28.0006 C   0  0  0  0  0  0  0  0  0  0  0  0
   11.5641  -17.8016   29.0431 O   0  0  0  0  0  0  0  0  0  0  0  0
   10.3569  -20.7357   24.9322 C   0  0  0  0  0  0  0  0  0  0  0  0
    9.9757  -21.2384   23.7062 C   0  0  0  0  0  0  0  0  0  0  0  0
   10.7307  -16.0780   27.8578 O   0  0  0  0  0  0  0  0  0  0  0  0
  2  1  1  1
  2 10  1  0
  2  3  1  0
  4  3  1  0
  4  9  1  0
  5  4  2  0
  6  5  1  0
  6  7  2  0
  7  8  1  0
  8  9  2  0
 10 11  2  0
 13 12  1  0
 14 13  1  0
 14 15  1  0
 16 15  1  1
 17 16  1  0
 17 10  1  0
 18 19  2  0
 18 16  1  0
 20 21  1  0
 21 31  2  0
 21 22  1  0
 22 23  2  0
 23 24  1  0
 24 25  1  0
 26 25  1  6
 26 27  1  0
 27 18  1  0
 28 26  1  0
 28 32  1  0
 29 28  2  0
 30 24  2  0
 31 30  1  0
M  END
$$$$
