FMY.pdb
     RDKit          3D

 32 33  0  0  1  0  0  0  0  0999 V2000
    5.9923  -18.3728   24.6126 N   0  0  0  0  0  0  0  0  0  0  0  0
    6.3850  -16.9798   24.5627 C   0  0  1  0  0  0  0  0  0  0  0  0
    6.7021  -16.5638   25.9823 C   0  0  0  0  0  0  0  0  0  0  0  0
    6.7001  -15.0777   26.0045 C   0  0  0  0  0  0  0  0  0  0  0  0
    5.5478  -14.3209   26.0253 C   0  0  0  0  0  0  0  0  0  0  0  0
    5.5859  -12.9339   26.0457 C   0  0  0  0  0  0  0  0  0  0  0  0
    6.7954  -12.2805   26.0455 C   0  0  0  0  0  0  0  0  0  0  0  0
    7.9420  -13.0129   26.0251 C   0  0  0  0  0  0  0  0  0  0  0  0
    7.9020  -14.3986   26.0047 C   0  0  0  0  0  0  0  0  0  0  0  0
    7.5365  -16.8471   23.6613 C   0  0  0  0  0  0  0  0  0  0  0  0
    8.2497  -17.8512   23.4286 O   0  0  0  0  0  0  0  0  0  0  0  0
    8.5127  -12.0820   18.7894 C   0  0  0  0  0  0  0  0  0  0  0  0
    7.8026  -13.7169   18.5931 S   0  0  0  0  0  0  0  0  0  0  0  0
    7.4716  -14.5331   20.1791 C   0  0  0  0  0  0  0  0  0  0  0  0
    8.6531  -14.3167   21.0894 C   0  0  0  0  0  0  0  0  0  0  0  0
    8.8622  -15.5562   21.9339 C   0  0  2  0  0  0  0  0  0  0  0  0
    7.9080  -15.6340   23.0196 N   0  0  0  0  0  0  0  0  0  0  0  0
   10.2421  -15.6108   22.4715 C   0  0  0  0  0  0  0  0  0  0  0  0
   11.0619  -14.7018   22.1764 O   0  0  0  0  0  0  0  0  0  0  0  0
   11.4662  -15.7179   30.9747 O   0  0  0  0  0  0  0  0  0  0  0  0
   11.1339  -15.6836   29.6337 C   0  0  0  0  0  0  0  0  0  0  0  0
   11.1762  -14.5301   28.9034 C   0  0  0  0  0  0  0  0  0  0  0  0
   10.8379  -14.5289   27.5647 C   0  0  0  0  0  0  0  0  0  0  0  0
   10.4481  -15.6781   26.9173 C   0  0  0  0  0  0  0  0  0  0  0  0
   10.0748  -15.7330   25.4926 C   0  0  0  0  0  0  0  0  0  0  0  0
   11.1499  -16.3895   24.7026 C   0  0  2  0  0  0  0  0  0  0  0  0
   10.7051  -16.6456   23.3156 N   0  0  0  0  0  0  0  0  0  0  0  0
   11.7152  -17.6147   25.2913 C   0  0  0  0  0  0  0  0  0  0  0  0
   12.6778  -17.6051   26.0863 O   0  0  0  0  0  0  0  0  0  0  0  0
   10.4114  -16.8348   27.6718 C   0  0  0  0  0  0  0  0  0  0  0  0
   10.7465  -16.8504   29.0092 C   0  0  0  0  0  0  0  0  0  0  0  0
   11.1685  -18.8398   24.9603 O   0  0  0  0  0  0  0  0  0  0  0  0
  2  1  1  1
  2 10  1  0
  2  3  1  0
  4  3  1  0
  4  9  1  0
  5  4  2  0
  6  5  1  0
  6  7  2  0
  7  8  1  0
  8  9  2  0
 10 11  2  0
 13 12  1  0
 14 13  1  0
 14 15  1  0
 16 15  1  1
 17 16  1  0
 17 10  1  0
 18 19  2  0
 18 16  1  0
 20 21  1  0
 21 31  2  0
 21 22  1  0
 22 23  2  0
 23 24  1  0
 24 25  1  0
 26 25  1  1
 26 27  1  0
 27 18  1  0
 28 26  1  0
 28 32  1  0
 29 28  2  0
 30 24  2  0
 31 30  1  0
M  END
$$$$
