FMY.pdb
     RDKit          3D

 32 33  0  0  1  0  0  0  0  0999 V2000
    8.2321  -17.4318   19.7346 N   0  0  0  0  0  0  0  0  0  0  0  0
    9.4018  -16.5799   19.6764 C   0  0  1  0  0  0  0  0  0  0  0  0
    9.1567  -15.5755   18.5719 C   0  0  0  0  0  0  0  0  0  0  0  0
    8.3395  -14.4821   19.1599 C   0  0  0  0  0  0  0  0  0  0  0  0
    6.9810  -14.5811   19.3733 C   0  0  0  0  0  0  0  0  0  0  0  0
    6.2510  -13.5379   19.9251 C   0  0  0  0  0  0  0  0  0  0  0  0
    6.8825  -12.3678   20.2741 C   0  0  0  0  0  0  0  0  0  0  0  0
    8.2229  -12.2541   20.0700 C   0  0  0  0  0  0  0  0  0  0  0  0
    8.9506  -13.2974   19.5185 C   0  0  0  0  0  0  0  0  0  0  0  0
    9.5892  -15.9471   20.9882 C   0  0  0  0  0  0  0  0  0  0  0  0
   10.6786  -15.3827   21.2447 O   0  0  0  0  0  0  0  0  0  0  0  0
    6.4013  -11.7016   26.2860 C   0  0  0  0  0  0  0  0  0  0  0  0
    6.6543  -13.4441   25.9463 S   0  0  0  0  0  0  0  0  0  0  0  0
    7.5827  -13.7326   24.4147 C   0  0  0  0  0  0  0  0  0  0  0  0
    7.5996  -15.2129   24.1319 C   0  0  0  0  0  0  0  0  0  0  0  0
    8.8699  -15.5605   23.3842 C   0  0  2  0  0  0  0  0  0  0  0  0
    8.6011  -15.9286   22.0103 N   0  0  0  0  0  0  0  0  0  0  0  0
    9.6083  -16.6517   24.0625 C   0  0  0  0  0  0  0  0  0  0  0  0
    9.0379  -17.7550   24.2695 O   0  0  0  0  0  0  0  0  0  0  0  0
   11.9180  -15.6278   32.1240 O   0  0  0  0  0  0  0  0  0  0  0  0
   11.6969  -15.4879   30.7670 C   0  0  0  0  0  0  0  0  0  0  0  0
   11.0771  -14.3904   30.2407 C   0  0  0  0  0  0  0  0  0  0  0  0
   10.8709  -14.2804   28.8798 C   0  0  0  0  0  0  0  0  0  0  0  0
   11.2771  -15.2620   28.0063 C   0  0  0  0  0  0  0  0  0  0  0  0
   11.0805  -15.1969   26.5470 C   0  0  0  0  0  0  0  0  0  0  0  0
   11.3066  -16.5335   25.9360 C   0  0  2  0  0  0  0  0  0  0  0  0
   10.9459  -16.5266   24.5017 N   0  0  0  0  0  0  0  0  0  0  0  0
   10.6576  -17.6643   26.6196 C   0  0  0  0  0  0  0  0  0  0  0  0
    9.4181  -17.7808   26.7134 O   0  0  0  0  0  0  0  0  0  0  0  0
   11.9020  -16.3643   28.5566 C   0  0  0  0  0  0  0  0  0  0  0  0
   12.1144  -16.4871   29.9134 C   0  0  0  0  0  0  0  0  0  0  0  0
   11.4398  -18.6508   27.1891 O   0  0  0  0  0  0  0  0  0  0  0  0
  2  1  1  1
  2 10  1  0
  2  3  1  0
  4  3  1  0
  4  9  1  0
  5  4  2  0
  6  5  1  0
  6  7  2  0
  7  8  1  0
  8  9  2  0
 10 11  2  0
 13 12  1  0
 14 13  1  0
 14 15  1  0
 16 15  1  1
 17 16  1  0
 17 10  1  0
 18 19  2  0
 18 16  1  0
 20 21  1  0
 21 31  2  0
 21 22  1  0
 22 23  2  0
 23 24  1  0
 24 25  1  0
 26 25  1  1
 26 27  1  0
 27 18  1  0
 28 26  1  0
 28 32  1  0
 29 28  2  0
 30 24  2  0
 31 30  1  0
M  END
$$$$
