FMY.pdb
     RDKit          3D

 32 33  0  0  1  0  0  0  0  0999 V2000
    7.8185  -18.1182   20.6803 N   0  0  0  0  0  0  0  0  0  0  0  0
    8.5301  -17.1808   19.8365 C   0  0  1  0  0  0  0  0  0  0  0  0
    7.6960  -16.9962   18.5878 C   0  0  0  0  0  0  0  0  0  0  0  0
    7.6868  -18.3035   17.8809 C   0  0  0  0  0  0  0  0  0  0  0  0
    8.8268  -18.9176   17.4070 C   0  0  0  0  0  0  0  0  0  0  0  0
    8.7785  -20.1396   16.7512 C   0  0  0  0  0  0  0  0  0  0  0  0
    7.5713  -20.7688   16.5602 C   0  0  0  0  0  0  0  0  0  0  0  0
    6.4369  -20.1760   17.0220 C   0  0  0  0  0  0  0  0  0  0  0  0
    6.4870  -18.9550   17.6770 C   0  0  0  0  0  0  0  0  0  0  0  0
    8.7230  -15.9297   20.5807 C   0  0  0  0  0  0  0  0  0  0  0  0
    9.2877  -14.9634   20.0163 O   0  0  0  0  0  0  0  0  0  0  0  0
    6.9276  -11.3679   26.7369 C   0  0  0  0  0  0  0  0  0  0  0  0
    6.8013  -12.9074   25.8259 S   0  0  0  0  0  0  0  0  0  0  0  0
    7.5748  -12.8184   24.1874 C   0  0  0  0  0  0  0  0  0  0  0  0
    7.2887  -14.1002   23.4480 C   0  0  0  0  0  0  0  0  0  0  0  0
    8.5190  -14.5053   22.6633 C   0  0  2  0  0  0  0  0  0  0  0  0
    8.3056  -15.7323   21.9254 N   0  0  0  0  0  0  0  0  0  0  0  0
    9.6964  -14.6502   23.5514 C   0  0  0  0  0  0  0  0  0  0  0  0
    9.9369  -13.7669   24.4158 O   0  0  0  0  0  0  0  0  0  0  0  0
   10.4565  -14.4928   30.6736 O   0  0  0  0  0  0  0  0  0  0  0  0
   10.3429  -15.1075   29.4411 C   0  0  0  0  0  0  0  0  0  0  0  0
   10.5303  -16.4506   29.2784 C   0  0  0  0  0  0  0  0  0  0  0  0
   10.4098  -17.0349   28.0331 C   0  0  0  0  0  0  0  0  0  0  0  0
   10.0988  -16.2956   26.9157 C   0  0  0  0  0  0  0  0  0  0  0  0
    9.9601  -16.8670   25.5642 C   0  0  0  0  0  0  0  0  0  0  0  0
   11.0870  -16.4266   24.6999 C   0  0  2  0  0  0  0  0  0  0  0  0
   10.5870  -15.7457   23.4859 N   0  0  0  0  0  0  0  0  0  0  0  0
   12.0564  -17.4726   24.3351 C   0  0  0  0  0  0  0  0  0  0  0  0
   12.0861  -18.0084   23.2078 O   0  0  0  0  0  0  0  0  0  0  0  0
    9.9128  -14.9391   27.0995 C   0  0  0  0  0  0  0  0  0  0  0  0
   10.0302  -14.3427   28.3371 C   0  0  0  0  0  0  0  0  0  0  0  0
   12.9830  -17.8932   25.2700 O   0  0  0  0  0  0  0  0  0  0  0  0
  2  1  1  1
  2 10  1  0
  2  3  1  0
  4  3  1  0
  4  9  1  0
  5  4  2  0
  6  5  1  0
  6  7  2  0
  7  8  1  0
  8  9  2  0
 10 11  2  0
 13 12  1  0
 14 13  1  0
 14 15  1  0
 16 15  1  1
 17 16  1  0
 17 10  1  0
 18 19  2  0
 18 16  1  0
 20 21  1  0
 21 31  2  0
 21 22  1  0
 22 23  2  0
 23 24  1  0
 24 25  1  0
 26 25  1  6
 26 27  1  0
 27 18  1  0
 28 26  1  0
 28 32  1  0
 29 28  2  0
 30 24  2  0
 31 30  1  0
M  END
$$$$
