FMY.pdb
     RDKit          3D

 32 33  0  0  1  0  0  0  0  0999 V2000
    7.2481  -16.8542   26.0809 N   0  0  0  0  0  0  0  0  0  0  0  0
    6.7440  -16.9542   24.7269 C   0  0  1  0  0  0  0  0  0  0  0  0
    5.8389  -15.7619   24.5082 C   0  0  0  0  0  0  0  0  0  0  0  0
    6.5332  -14.5837   25.0902 C   0  0  0  0  0  0  0  0  0  0  0  0
    6.3469  -14.1583   26.3884 C   0  0  0  0  0  0  0  0  0  0  0  0
    7.0137  -13.0527   26.8969 C   0  0  0  0  0  0  0  0  0  0  0  0
    7.8867  -12.3512   26.0997 C   0  0  0  0  0  0  0  0  0  0  0  0
    8.0818  -12.7581   24.8160 C   0  0  0  0  0  0  0  0  0  0  0  0
    7.4147  -13.8630   24.3097 C   0  0  0  0  0  0  0  0  0  0  0  0
    7.8834  -16.9799   23.8009 C   0  0  0  0  0  0  0  0  0  0  0  0
    8.6172  -17.9953   23.7623 O   0  0  0  0  0  0  0  0  0  0  0  0
    6.1857  -12.2257   19.4849 C   0  0  0  0  0  0  0  0  0  0  0  0
    7.8207  -12.9365   19.6783 S   0  0  0  0  0  0  0  0  0  0  0  0
    7.8427  -14.3449   20.8216 C   0  0  0  0  0  0  0  0  0  0  0  0
    9.2702  -14.7880   21.0146 C   0  0  0  0  0  0  0  0  0  0  0  0
    9.2992  -15.9689   21.9622 C   0  0  2  0  0  0  0  0  0  0  0  0
    8.2205  -15.9114   22.9257 N   0  0  0  0  0  0  0  0  0  0  0  0
   10.5997  -16.0574   22.6671 C   0  0  0  0  0  0  0  0  0  0  0  0
   11.6696  -16.0543   22.0032 O   0  0  0  0  0  0  0  0  0  0  0  0
    9.1660  -16.8510   30.4078 O   0  0  0  0  0  0  0  0  0  0  0  0
    9.7853  -16.3750   29.2678 C   0  0  0  0  0  0  0  0  0  0  0  0
    9.9421  -17.1445   28.1503 C   0  0  0  0  0  0  0  0  0  0  0  0
   10.5657  -16.6394   27.0266 C   0  0  0  0  0  0  0  0  0  0  0  0
   11.0502  -15.3528   26.9866 C   0  0  0  0  0  0  0  0  0  0  0  0
   11.7250  -14.7643   25.8158 C   0  0  0  0  0  0  0  0  0  0  0  0
   11.9671  -15.8058   24.7826 C   0  0  2  0  0  0  0  0  0  0  0  0
   10.7152  -16.1472   24.0729 N   0  0  0  0  0  0  0  0  0  0  0  0
   12.6347  -17.0295   25.2559 C   0  0  0  0  0  0  0  0  0  0  0  0
   13.6861  -17.0131   25.9290 O   0  0  0  0  0  0  0  0  0  0  0  0
   10.8826  -14.5895   28.1258 C   0  0  0  0  0  0  0  0  0  0  0  0
   10.2619  -15.0811   29.2546 C   0  0  0  0  0  0  0  0  0  0  0  0
   12.0873  -18.2611   24.9509 O   0  0  0  0  0  0  0  0  0  0  0  0
  2  1  1  1
  2 10  1  0
  2  3  1  0
  4  3  1  0
  4  9  1  0
  5  4  2  0
  6  5  1  0
  6  7  2  0
  7  8  1  0
  8  9  2  0
 10 11  2  0
 13 12  1  0
 14 13  1  0
 14 15  1  0
 16 15  1  1
 17 16  1  0
 17 10  1  0
 18 19  2  0
 18 16  1  0
 20 21  1  0
 21 31  2  0
 21 22  1  0
 22 23  2  0
 23 24  1  0
 24 25  1  0
 26 25  1  1
 26 27  1  0
 27 18  1  0
 28 26  1  0
 28 32  1  0
 29 28  2  0
 30 24  2  0
 31 30  1  0
M  END
$$$$
