FMY.pdb
     RDKit          3D

 32 33  0  0  1  0  0  0  0  0999 V2000
    5.7029  -18.1968   24.7393 N   0  0  0  0  0  0  0  0  0  0  0  0
    6.4647  -16.9735   24.5965 C   0  0  1  0  0  0  0  0  0  0  0  0
    7.1695  -16.7410   25.9148 C   0  0  0  0  0  0  0  0  0  0  0  0
    7.5208  -15.2977   25.9647 C   0  0  0  0  0  0  0  0  0  0  0  0
    6.6652  -14.3246   26.4361 C   0  0  0  0  0  0  0  0  0  0  0  0
    7.0290  -12.9859   26.4672 C   0  0  0  0  0  0  0  0  0  0  0  0
    8.2710  -12.6016   26.0206 C   0  0  0  0  0  0  0  0  0  0  0  0
    9.1272  -13.5497   25.5523 C   0  0  0  0  0  0  0  0  0  0  0  0
    8.7621  -14.8869   25.5219 C   0  0  0  0  0  0  0  0  0  0  0  0
    7.3977  -17.1281   23.4732 C   0  0  0  0  0  0  0  0  0  0  0  0
    7.9121  -18.2502   23.2556 O   0  0  0  0  0  0  0  0  0  0  0  0
    7.7081  -11.0969   19.9330 C   0  0  0  0  0  0  0  0  0  0  0  0
    8.0200  -12.7929   19.4414 S   0  0  0  0  0  0  0  0  0  0  0  0
    8.4159  -13.8693   20.8470 C   0  0  0  0  0  0  0  0  0  0  0  0
    8.4430  -15.2982   20.3684 C   0  0  0  0  0  0  0  0  0  0  0  0
    8.7482  -16.2080   21.5400 C   0  0  2  0  0  0  0  0  0  0  0  0
    7.7670  -16.0723   22.5955 N   0  0  0  0  0  0  0  0  0  0  0  0
   10.1050  -15.9509   22.0778 C   0  0  0  0  0  0  0  0  0  0  0  0
   10.7467  -14.9389   21.6911 O   0  0  0  0  0  0  0  0  0  0  0  0
   10.7769  -14.9243   30.5512 O   0  0  0  0  0  0  0  0  0  0  0  0
   10.5335  -15.1098   29.2035 C   0  0  0  0  0  0  0  0  0  0  0  0
   10.3656  -14.0616   28.3440 C   0  0  0  0  0  0  0  0  0  0  0  0
   10.1235  -14.2802   27.0022 C   0  0  0  0  0  0  0  0  0  0  0  0
   10.0421  -15.5503   26.4808 C   0  0  0  0  0  0  0  0  0  0  0  0
    9.7839  -15.8405   25.0590 C   0  0  0  0  0  0  0  0  0  0  0  0
   11.0173  -16.3521   24.4048 C   0  0  2  0  0  0  0  0  0  0  0  0
   10.7376  -16.7923   23.0209 N   0  0  0  0  0  0  0  0  0  0  0  0
   11.7378  -17.4051   25.1391 C   0  0  0  0  0  0  0  0  0  0  0  0
   12.7947  -17.1929   25.7688 O   0  0  0  0  0  0  0  0  0  0  0  0
   10.2144  -16.5977   27.3649 C   0  0  0  0  0  0  0  0  0  0  0  0
   10.4567  -16.3939   28.7069 C   0  0  0  0  0  0  0  0  0  0  0  0
   11.2364  -18.6927   25.1424 O   0  0  0  0  0  0  0  0  0  0  0  0
  2  1  1  1
  2 10  1  0
  2  3  1  0
  4  3  1  0
  4  9  1  0
  5  4  2  0
  6  5  1  0
  6  7  2  0
  7  8  1  0
  8  9  2  0
 10 11  2  0
 13 12  1  0
 14 13  1  0
 14 15  1  0
 16 15  1  6
 17 16  1  0
 17 10  1  0
 18 19  2  0
 18 16  1  0
 20 21  1  0
 21 31  2  0
 21 22  1  0
 22 23  2  0
 23 24  1  0
 24 25  1  0
 26 25  1  1
 26 27  1  0
 27 18  1  0
 28 26  1  0
 28 32  1  0
 29 28  2  0
 30 24  2  0
 31 30  1  0
M  END
$$$$
