FMY.pdb
     RDKit          3D

 32 33  0  0  1  0  0  0  0  0999 V2000
    7.6890  -16.9940   20.1105 N   0  0  0  0  0  0  0  0  0  0  0  0
    6.8417  -17.1145   21.2787 C   0  0  1  0  0  0  0  0  0  0  0  0
    6.5803  -18.5911   21.4789 C   0  0  0  0  0  0  0  0  0  0  0  0
    5.1057  -18.7738   21.4482 C   0  0  0  0  0  0  0  0  0  0  0  0
    4.3552  -19.0750   22.5650 C   0  0  0  0  0  0  0  0  0  0  0  0
    2.9789  -19.2382   22.4970 C   0  0  0  0  0  0  0  0  0  0  0  0
    2.3299  -19.0996   21.2930 C   0  0  0  0  0  0  0  0  0  0  0  0
    3.0561  -18.8025   20.1814 C   0  0  0  0  0  0  0  0  0  0  0  0
    4.4312  -18.6397   20.2512 C   0  0  0  0  0  0  0  0  0  0  0  0
    7.5263  -16.4986   22.4225 C   0  0  0  0  0  0  0  0  0  0  0  0
    8.7318  -16.7704   22.6322 O   0  0  0  0  0  0  0  0  0  0  0  0
    6.6107  -10.7156   26.6078 C   0  0  0  0  0  0  0  0  0  0  0  0
    6.3593  -12.3510   27.2990 S   0  0  0  0  0  0  0  0  0  0  0  0
    7.3763  -13.6178   26.4915 C   0  0  0  0  0  0  0  0  0  0  0  0
    6.6843  -14.0590   25.2274 C   0  0  0  0  0  0  0  0  0  0  0  0
    7.5418  -15.0926   24.5274 C   0  0  2  0  0  0  0  0  0  0  0  0
    6.9053  -15.5961   23.3288 N   0  0  0  0  0  0  0  0  0  0  0  0
    7.8702  -16.2180   25.4338 C   0  0  0  0  0  0  0  0  0  0  0  0
    6.9438  -16.9279   25.9062 O   0  0  0  0  0  0  0  0  0  0  0  0
    5.2055  -22.0068   25.1063 O   0  0  0  0  0  0  0  0  0  0  0  0
    6.3315  -21.2535   25.3791 C   0  0  0  0  0  0  0  0  0  0  0  0
    6.7859  -21.0599   26.6526 C   0  0  0  0  0  0  0  0  0  0  0  0
    7.9146  -20.3015   26.8922 C   0  0  0  0  0  0  0  0  0  0  0  0
    8.6214  -19.7153   25.8682 C   0  0  0  0  0  0  0  0  0  0  0  0
    9.8298  -18.8953   26.0673 C   0  0  0  0  0  0  0  0  0  0  0  0
    9.4859  -17.6329   26.7738 C   0  0  2  0  0  0  0  0  0  0  0  0
    9.1914  -16.5510   25.8094 N   0  0  0  0  0  0  0  0  0  0  0  0
   10.4664  -17.1739   27.7714 C   0  0  0  0  0  0  0  0  0  0  0  0
   10.6993  -17.7930   28.8302 O   0  0  0  0  0  0  0  0  0  0  0  0
    8.1472  -19.9221   24.5873 C   0  0  0  0  0  0  0  0  0  0  0  0
    7.0215  -20.6769   24.3337 C   0  0  0  0  0  0  0  0  0  0  0  0
   11.1701  -16.0070   27.5423 O   0  0  0  0  0  0  0  0  0  0  0  0
  2  1  1  6
  2 10  1  0
  2  3  1  0
  4  3  1  0
  4  9  1  0
  5  4  2  0
  6  5  1  0
  6  7  2  0
  7  8  1  0
  8  9  2  0
 10 11  2  0
 13 12  1  0
 14 13  1  0
 14 15  1  0
 16 15  1  1
 17 16  1  0
 17 10  1  0
 18 19  2  0
 18 16  1  0
 20 21  1  0
 21 31  2  0
 21 22  1  0
 22 23  2  0
 23 24  1  0
 24 25  1  0
 26 25  1  6
 26 27  1  0
 27 18  1  0
 28 26  1  0
 28 32  1  0
 29 28  2  0
 30 24  2  0
 31 30  1  0
M  END
$$$$
