FMY.pdb
     RDKit          3D

 32 33  0  0  1  0  0  0  0  0999 V2000
    8.7450  -17.4794   18.6426 N   0  0  0  0  0  0  0  0  0  0  0  0
    7.7164  -17.2655   19.6393 C   0  0  1  0  0  0  0  0  0  0  0  0
    7.2268  -18.6329   20.0628 C   0  0  0  0  0  0  0  0  0  0  0  0
    6.0476  -18.4135   20.9405 C   0  0  0  0  0  0  0  0  0  0  0  0
    6.0972  -18.5076   22.3152 C   0  0  0  0  0  0  0  0  0  0  0  0
    4.9741  -18.2957   23.1021 C   0  0  0  0  0  0  0  0  0  0  0  0
    3.7722  -17.9826   22.5128 C   0  0  0  0  0  0  0  0  0  0  0  0
    3.7065  -17.8858   21.1572 C   0  0  0  0  0  0  0  0  0  0  0  0
    4.8296  -18.0980   20.3724 C   0  0  0  0  0  0  0  0  0  0  0  0
    8.2908  -16.4981   20.7517 C   0  0  0  0  0  0  0  0  0  0  0  0
    9.5344  -16.4852   20.9076 O   0  0  0  0  0  0  0  0  0  0  0  0
    7.0116  -11.2572   26.6185 C   0  0  0  0  0  0  0  0  0  0  0  0
    6.3428  -12.3425   25.3574 S   0  0  0  0  0  0  0  0  0  0  0  0
    7.6229  -13.0232   24.2669 C   0  0  0  0  0  0  0  0  0  0  0  0
    6.9817  -14.0141   23.3295 C   0  0  0  0  0  0  0  0  0  0  0  0
    8.0617  -14.7030   22.5216 C   0  0  2  0  0  0  0  0  0  0  0  0
    7.5197  -15.7524   21.6848 N   0  0  0  0  0  0  0  0  0  0  0  0
    9.1177  -15.2560   23.4020 C   0  0  0  0  0  0  0  0  0  0  0  0
    9.7017  -14.5017   24.2238 O   0  0  0  0  0  0  0  0  0  0  0  0
   10.4385  -14.6090   30.2895 O   0  0  0  0  0  0  0  0  0  0  0  0
   10.0532  -15.2998   29.1562 C   0  0  0  0  0  0  0  0  0  0  0  0
   10.4131  -16.5995   28.9394 C   0  0  0  0  0  0  0  0  0  0  0  0
   10.0120  -17.2622   27.7964 C   0  0  0  0  0  0  0  0  0  0  0  0
    9.2408  -16.6469   26.8380 C   0  0  0  0  0  0  0  0  0  0  0  0
    8.7871  -17.3057   25.6001 C   0  0  0  0  0  0  0  0  0  0  0  0
    9.8898  -17.3461   24.6034 C   0  0  2  0  0  0  0  0  0  0  0  0
    9.5189  -16.6110   23.3749 N   0  0  0  0  0  0  0  0  0  0  0  0
   10.3918  -18.6875   24.2630 C   0  0  0  0  0  0  0  0  0  0  0  0
   10.0833  -19.2813   23.2090 O   0  0  0  0  0  0  0  0  0  0  0  0
    8.8866  -15.3327   27.0744 C   0  0  0  0  0  0  0  0  0  0  0  0
    9.2801  -14.6589   28.2112 C   0  0  0  0  0  0  0  0  0  0  0  0
   11.2440  -19.3340   25.1378 O   0  0  0  0  0  0  0  0  0  0  0  0
  2  1  1  6
  2 10  1  0
  2  3  1  0
  4  3  1  0
  4  9  1  0
  5  4  2  0
  6  5  1  0
  6  7  2  0
  7  8  1  0
  8  9  2  0
 10 11  2  0
 13 12  1  0
 14 13  1  0
 14 15  1  0
 16 15  1  1
 17 16  1  0
 17 10  1  0
 18 19  2  0
 18 16  1  0
 20 21  1  0
 21 31  2  0
 21 22  1  0
 22 23  2  0
 23 24  1  0
 24 25  1  0
 26 25  1  1
 26 27  1  0
 27 18  1  0
 28 26  1  0
 28 32  1  0
 29 28  2  0
 30 24  2  0
 31 30  1  0
M  END
$$$$
