CVT.pdb
     RDKit          3D

 21 20  0  0  1  0  0  0  0  0999 V2000
   19.2839  -15.8447  -16.7944 N   0  0  0  0  0  0  0  0  0  0  0  0
   19.8873  -14.6487  -17.3462 C   0  0  1  0  0  0  0  0  0  0  0  0
   18.8992  -14.0908  -18.3600 C   0  0  0  0  0  0  0  0  0  0  0  0
   18.7784  -15.1566  -19.8180 S   0  0  0  0  0  0  0  0  0  0  0  0
   20.1907  -13.6559  -16.2881 C   0  0  0  0  0  0  0  0  0  0  0  0
   19.3351  -13.4125  -15.4097 O   0  0  0  0  0  0  0  0  0  0  0  0
   24.1446  -12.2458  -16.1419 C   0  0  0  0  0  0  0  0  0  0  0  0
   23.2700  -12.3265  -14.9104 C   0  0  1  0  0  0  0  0  0  0  0  0
   23.7958  -11.3586  -13.9030 C   0  0  0  0  0  0  0  0  0  0  0  0
   21.8092  -12.0172  -15.2674 C   0  0  2  0  0  0  0  0  0  0  0  0
   21.4244  -12.9921  -16.2665 N   0  0  0  0  0  0  0  0  0  0  0  0
   21.6851  -10.6550  -15.8110 C   0  0  0  0  0  0  0  0  0  0  0  0
   22.1909  -10.3642  -16.9259 O   0  0  0  0  0  0  0  0  0  0  0  0
   18.9946   -8.8616  -17.3222 C   0  0  0  0  0  0  0  0  0  0  0  0
   19.4326   -8.0128  -16.1796 C   0  0  1  0  0  0  0  0  0  0  0  0
   18.5870   -8.1757  -15.0898 O   0  0  0  0  0  0  0  0  0  0  0  0
   20.8350   -8.2801  -15.7144 C   0  0  2  0  0  0  0  0  0  0  0  0
   21.0022   -9.5940  -15.1346 N   0  0  0  0  0  0  0  0  0  0  0  0
   21.3308   -7.2131  -14.7949 C   0  0  0  0  0  0  0  0  0  0  0  0
   21.5470   -5.9210  -15.2058 O   0  0  0  0  0  0  0  0  0  0  0  0
   21.5522   -7.5317  -13.6030 O   0  0  0  0  0  0  0  0  0  0  0  0
  2  1  1  1
  2  3  1  0
  3  4  1  0
  5  2  1  0
  6  5  2  0
  8 10  1  0
  8  7  1  6
  9  8  1  0
 10 12  1  0
 10 11  1  6
 11  5  1  0
 12 18  1  0
 13 12  2  0
 15 14  1  6
 15 16  1  0
 17 18  1  1
 17 19  1  0
 17 15  1  0
 19 21  2  0
 19 20  1  0
M  END
$$$$
