CVT.pdb
     RDKit          3D

 21 20  0  0  1  0  0  0  0  0999 V2000
   22.2848  -21.1078   -7.5439 N   0  0  0  0  0  0  0  0  0  0  0  0
   22.1280  -21.6138   -8.8924 C   0  0  1  0  0  0  0  0  0  0  0  0
   20.6328  -21.7716   -9.1267 C   0  0  0  0  0  0  0  0  0  0  0  0
   19.9547  -23.1414   -8.1571 S   0  0  0  0  0  0  0  0  0  0  0  0
   22.7354  -20.7002   -9.8891 C   0  0  0  0  0  0  0  0  0  0  0  0
   22.6156  -19.4643   -9.7438 O   0  0  0  0  0  0  0  0  0  0  0  0
   26.2584  -20.5439  -10.6633 C   0  0  0  0  0  0  0  0  0  0  0  0
   25.5840  -20.8759  -11.9759 C   0  0  1  0  0  0  0  0  0  0  0  0
   25.6643  -22.3525  -12.1789 C   0  0  0  0  0  0  0  0  0  0  0  0
   24.1259  -20.3954  -11.9676 C   0  0  2  0  0  0  0  0  0  0  0  0
   23.4393  -21.2108  -10.9878 N   0  0  0  0  0  0  0  0  0  0  0  0
   23.5140  -20.5709  -13.2948 C   0  0  0  0  0  0  0  0  0  0  0  0
   23.2217  -21.7201  -13.7158 O   0  0  0  0  0  0  0  0  0  0  0  0
   20.6020  -18.9101  -16.8691 C   0  0  0  0  0  0  0  0  0  0  0  0
   21.2843  -18.8167  -15.5486 C   0  0  1  0  0  0  0  0  0  0  0  0
   20.4226  -19.1760  -14.5202 O   0  0  0  0  0  0  0  0  0  0  0  0
   22.5174  -19.6652  -15.4298 C   0  0  2  0  0  0  0  0  0  0  0  0
   23.2155  -19.4835  -14.1768 N   0  0  0  0  0  0  0  0  0  0  0  0
   23.4342  -19.4831  -16.5942 C   0  0  0  0  0  0  0  0  0  0  0  0
   24.6441  -18.8417  -16.4929 O   0  0  0  0  0  0  0  0  0  0  0  0
   23.0648  -19.9423  -17.7005 O   0  0  0  0  0  0  0  0  0  0  0  0
  2  1  1  1
  2  3  1  0
  3  4  1  0
  5  2  1  0
  6  5  2  0
  8 10  1  0
  8  7  1  1
  9  8  1  0
 10 12  1  0
 10 11  1  1
 11  5  1  0
 12 18  1  0
 13 12  2  0
 15 14  1  6
 15 16  1  0
 17 18  1  1
 17 19  1  0
 17 15  1  0
 19 21  2  0
 19 20  1  0
M  END
$$$$
