CVT.pdb
     RDKit          3D

 21 20  0  0  1  0  0  0  0  0999 V2000
   24.6149  -16.7642  -16.9480 N   0  0  0  0  0  0  0  0  0  0  0  0
   24.5394  -15.4264  -17.4991 C   0  0  1  0  0  0  0  0  0  0  0  0
   23.3321  -15.4049  -18.4251 C   0  0  0  0  0  0  0  0  0  0  0  0
   23.5884  -16.4690  -19.8669 S   0  0  0  0  0  0  0  0  0  0  0  0
   24.4167  -14.4055  -16.4315 C   0  0  0  0  0  0  0  0  0  0  0  0
   23.8010  -14.6861  -15.3802 O   0  0  0  0  0  0  0  0  0  0  0  0
   27.2492  -12.9853  -14.9048 C   0  0  0  0  0  0  0  0  0  0  0  0
   26.4746  -11.7600  -15.3369 C   0  0  1  0  0  0  0  0  0  0  0  0
   27.1038  -11.2279  -16.5815 C   0  0  0  0  0  0  0  0  0  0  0  0
   24.9981  -12.1114  -15.5679 C   0  0  2  0  0  0  0  0  0  0  0  0
   24.9838  -13.1344  -16.5925 N   0  0  0  0  0  0  0  0  0  0  0  0
   24.2475  -10.9284  -16.0191 C   0  0  0  0  0  0  0  0  0  0  0  0
   24.5307  -10.3712  -17.1112 O   0  0  0  0  0  0  0  0  0  0  0  0
   21.0934  -10.5403  -17.4608 C   0  0  0  0  0  0  0  0  0  0  0  0
   21.0512   -9.6226  -16.2887 C   0  0  1  0  0  0  0  0  0  0  0  0
   20.3444  -10.1940  -15.2383 O   0  0  0  0  0  0  0  0  0  0  0  0
   22.4021   -9.2245  -15.7679 C   0  0  2  0  0  0  0  0  0  0  0  0
   23.1746  -10.3424  -15.2741 N   0  0  0  0  0  0  0  0  0  0  0  0
   22.3090   -8.1362  -14.7497 C   0  0  0  0  0  0  0  0  0  0  0  0
   22.5592   -8.3446  -13.4157 O   0  0  0  0  0  0  0  0  0  0  0  0
   21.9877   -6.9929  -15.1506 O   0  0  0  0  0  0  0  0  0  0  0  0
  2  1  1  1
  2  3  1  0
  3  4  1  0
  5  2  1  0
  6  5  2  0
  8 10  1  0
  8  7  1  6
  9  8  1  0
 10 12  1  0
 10 11  1  6
 11  5  1  0
 12 18  1  0
 13 12  2  0
 15 14  1  6
 15 16  1  0
 17 18  1  1
 17 19  1  0
 17 15  1  0
 19 21  2  0
 19 20  1  0
M  END
$$$$
