CVT.pdb
     RDKit          3D

 21 20  0  0  1  0  0  0  0  0999 V2000
   19.6985  -13.3489  -17.2093 N   0  0  0  0  0  0  0  0  0  0  0  0
   20.1873  -12.0246  -17.5352 C   0  0  1  0  0  0  0  0  0  0  0  0
   19.1507  -11.3917  -18.4520 C   0  0  0  0  0  0  0  0  0  0  0  0
   19.1357  -12.1871  -20.0779 S   0  0  0  0  0  0  0  0  0  0  0  0
   20.3973  -11.2081  -16.3161 C   0  0  0  0  0  0  0  0  0  0  0  0
   19.5322  -11.2167  -15.4136 O   0  0  0  0  0  0  0  0  0  0  0  0
   22.9789  -11.6233  -13.9465 C   0  0  0  0  0  0  0  0  0  0  0  0
   23.1776  -10.2064  -14.4374 C   0  0  1  0  0  0  0  0  0  0  0  0
   24.2448  -10.2218  -15.4808 C   0  0  0  0  0  0  0  0  0  0  0  0
   21.8636   -9.6419  -14.9956 C   0  0  2  0  0  0  0  0  0  0  0  0
   21.5537  -10.4306  -16.1697 N   0  0  0  0  0  0  0  0  0  0  0  0
   22.0214   -8.2249  -15.3613 C   0  0  0  0  0  0  0  0  0  0  0  0
   22.6763   -7.8991  -16.3852 O   0  0  0  0  0  0  0  0  0  0  0  0
   20.5570   -3.5897  -15.5779 C   0  0  0  0  0  0  0  0  0  0  0  0
   20.3798   -5.0299  -15.2428 C   0  0  1  0  0  0  0  0  0  0  0  0
   19.7307   -5.7008  -16.2714 O   0  0  0  0  0  0  0  0  0  0  0  0
   21.6610   -5.7592  -14.9579 C   0  0  2  0  0  0  0  0  0  0  0  0
   21.4604   -7.1468  -14.6046 N   0  0  0  0  0  0  0  0  0  0  0  0
   22.4899   -5.0527  -13.9364 C   0  0  0  0  0  0  0  0  0  0  0  0
   22.6058   -5.4930  -12.6411 O   0  0  0  0  0  0  0  0  0  0  0  0
   23.0965   -4.0169  -14.2975 O   0  0  0  0  0  0  0  0  0  0  0  0
  2  1  1  1
  2  3  1  0
  3  4  1  0
  5  2  1  0
  6  5  2  0
  8 10  1  0
  8  7  1  6
  9  8  1  0
 10 12  1  0
 10 11  1  6
 11  5  1  0
 12 18  1  0
 13 12  2  0
 15 14  1  6
 15 16  1  0
 17 18  1  1
 17 19  1  0
 17 15  1  0
 19 21  2  0
 19 20  1  0
M  END
$$$$
