CVT.pdb
     RDKit          3D

 21 20  0  0  1  0  0  0  0  0999 V2000
   16.5544  -11.4375  -11.6307 N   0  0  0  0  0  0  0  0  0  0  0  0
   17.0886  -10.1532  -11.2254 C   0  0  1  0  0  0  0  0  0  0  0  0
   18.1529   -9.7824  -12.2479 C   0  0  0  0  0  0  0  0  0  0  0  0
   19.6705  -10.7359  -11.9949 S   0  0  0  0  0  0  0  0  0  0  0  0
   16.0270   -9.1212  -11.1556 C   0  0  0  0  0  0  0  0  0  0  0  0
   15.1945   -9.0315  -12.0840 O   0  0  0  0  0  0  0  0  0  0  0  0
   13.3050   -8.9623   -9.0744 C   0  0  0  0  0  0  0  0  0  0  0  0
   14.0615   -7.7034   -8.7124 C   0  0  1  0  0  0  0  0  0  0  0  0
   14.8969   -7.9932   -7.5098 C   0  0  0  0  0  0  0  0  0  0  0  0
   14.9281   -7.2393   -9.8916 C   0  0  2  0  0  0  0  0  0  0  0  0
   15.9512   -8.2498  -10.0610 N   0  0  0  0  0  0  0  0  0  0  0  0
   15.5444   -5.9346   -9.6008 C   0  0  0  0  0  0  0  0  0  0  0  0
   16.5963   -5.8647   -8.9138 O   0  0  0  0  0  0  0  0  0  0  0  0
   16.5595   -1.3017  -10.8019 C   0  0  0  0  0  0  0  0  0  0  0  0
   15.8956   -2.6126  -11.0438 C   0  0  1  0  0  0  0  0  0  0  0  0
   16.6432   -3.3921  -11.9172 O   0  0  0  0  0  0  0  0  0  0  0  0
   15.6547   -3.4208   -9.8014 C   0  0  2  0  0  0  0  0  0  0  0  0
   15.0111   -4.6888  -10.0625 N   0  0  0  0  0  0  0  0  0  0  0  0
   14.9179   -2.6409   -8.7628 C   0  0  0  0  0  0  0  0  0  0  0  0
   15.5561   -1.8812   -7.8136 O   0  0  0  0  0  0  0  0  0  0  0  0
   13.6657   -2.6962   -8.7759 O   0  0  0  0  0  0  0  0  0  0  0  0
  2  1  1  6
  2  3  1  0
  3  4  1  0
  5  2  1  0
  6  5  2  0
  8 10  1  0
  8  7  1  6
  9  8  1  0
 10 12  1  0
 10 11  1  1
 11  5  1  0
 12 18  1  0
 13 12  2  0
 15 14  1  1
 15 16  1  0
 17 18  1  6
 17 19  1  0
 17 15  1  0
 19 21  2  0
 19 20  1  0
M  END
$$$$
