CVT.pdb
     RDKit          3D

 21 20  0  0  1  0  0  0  0  0999 V2000
   23.7768  -13.3104  -17.4584 N   0  0  0  0  0  0  0  0  0  0  0  0
   23.7734  -12.2891  -16.4307 C   0  0  1  0  0  0  0  0  0  0  0  0
   25.2041  -11.7841  -16.3147 C   0  0  0  0  0  0  0  0  0  0  0  0
   26.2842  -13.0297  -15.5674 S   0  0  0  0  0  0  0  0  0  0  0  0
   22.8393  -11.1874  -16.7632 C   0  0  0  0  0  0  0  0  0  0  0  0
   22.7571  -10.7862  -17.9444 O   0  0  0  0  0  0  0  0  0  0  0  0
   18.7099   -8.9863  -15.4303 C   0  0  0  0  0  0  0  0  0  0  0  0
   19.7326  -10.0974  -15.5188 C   0  0  1  0  0  0  0  0  0  0  0  0
   19.2054  -11.1409  -16.4469 C   0  0  0  0  0  0  0  0  0  0  0  0
   21.0806   -9.5493  -16.0080 C   0  0  2  0  0  0  0  0  0  0  0  0
   22.0517  -10.5958  -15.7667 N   0  0  0  0  0  0  0  0  0  0  0  0
   21.4471   -8.3332  -15.2642 C   0  0  0  0  0  0  0  0  0  0  0  0
   21.7885   -8.4033  -14.0551 O   0  0  0  0  0  0  0  0  0  0  0  0
   23.0842   -3.6721  -15.1397 C   0  0  0  0  0  0  0  0  0  0  0  0
   22.6419   -4.8748  -15.8986 C   0  0  1  0  0  0  0  0  0  0  0  0
   23.7330   -5.5672  -16.4078 O   0  0  0  0  0  0  0  0  0  0  0  0
   21.8197   -5.8422  -15.0969 C   0  0  2  0  0  0  0  0  0  0  0  0
   21.4429   -7.0231  -15.8412 N   0  0  0  0  0  0  0  0  0  0  0  0
   20.6289   -5.1853  -14.4804 C   0  0  0  0  0  0  0  0  0  0  0  0
   20.6100   -4.7566  -13.1761 O   0  0  0  0  0  0  0  0  0  0  0  0
   19.6153   -5.0285  -15.2010 O   0  0  0  0  0  0  0  0  0  0  0  0
  2  1  1  6
  2  3  1  0
  3  4  1  0
  5  2  1  0
  6  5  2  0
  8 10  1  0
  8  7  1  6
  9  8  1  0
 10 12  1  0
 10 11  1  1
 11  5  1  0
 12 18  1  0
 13 12  2  0
 15 14  1  1
 15 16  1  0
 17 18  1  6
 17 19  1  0
 17 15  1  0
 19 21  2  0
 19 20  1  0
M  END
$$$$
