CVT.pdb
     RDKit          3D

 21 20  0  0  1  0  0  0  0  0999 V2000
   17.3045  -11.9442  -16.4824 N   0  0  0  0  0  0  0  0  0  0  0  0
   18.0228  -10.7560  -16.8959 C   0  0  1  0  0  0  0  0  0  0  0  0
   16.9725   -9.7058  -17.2270 C   0  0  0  0  0  0  0  0  0  0  0  0
   16.1809  -10.0445  -18.8192 S   0  0  0  0  0  0  0  0  0  0  0  0
   18.9428  -10.2810  -15.8353 C   0  0  0  0  0  0  0  0  0  0  0  0
   18.5379  -10.2151  -14.6543 O   0  0  0  0  0  0  0  0  0  0  0  0
   23.6408   -9.5555  -14.6099 C   0  0  0  0  0  0  0  0  0  0  0  0
   22.5230  -10.1439  -15.4419 C   0  0  1  0  0  0  0  0  0  0  0  0
   22.3960  -11.5897  -15.0932 C   0  0  0  0  0  0  0  0  0  0  0  0
   21.2088   -9.3933  -15.1843 C   0  0  2  0  0  0  0  0  0  0  0  0
   20.2568   -9.9072  -16.1466 N   0  0  0  0  0  0  0  0  0  0  0  0
   21.3926   -7.9452  -15.3735 C   0  0  0  0  0  0  0  0  0  0  0  0
   21.8712   -7.4976  -16.4478 O   0  0  0  0  0  0  0  0  0  0  0  0
   19.1057   -5.2267  -15.9118 C   0  0  0  0  0  0  0  0  0  0  0  0
   19.9199   -4.8133  -14.7353 C   0  0  1  0  0  0  0  0  0  0  0  0
   19.2075   -4.9860  -13.5555 O   0  0  0  0  0  0  0  0  0  0  0  0
   21.2210   -5.5498  -14.5960 C   0  0  2  0  0  0  0  0  0  0  0  0
   21.0520   -6.9697  -14.3826 N   0  0  0  0  0  0  0  0  0  0  0  0
   22.0961   -4.9431  -13.5491 C   0  0  0  0  0  0  0  0  0  0  0  0
   22.6949   -3.7169  -13.7017 O   0  0  0  0  0  0  0  0  0  0  0  0
   22.2783   -5.5971  -12.4954 O   0  0  0  0  0  0  0  0  0  0  0  0
  2  1  1  1
  2  3  1  0
  3  4  1  0
  5  2  1  0
  6  5  2  0
  8 10  1  0
  8  7  1  1
  9  8  1  0
 10 12  1  0
 10 11  1  6
 11  5  1  0
 12 18  1  0
 13 12  2  0
 15 14  1  6
 15 16  1  0
 17 18  1  1
 17 19  1  0
 17 15  1  0
 19 21  2  0
 19 20  1  0
M  END
$$$$
