CVT.pdb
     RDKit          3D

 21 20  0  0  1  0  0  0  0  0999 V2000
   17.8301  -14.6120  -15.7840 N   0  0  0  0  0  0  0  0  0  0  0  0
   18.3697  -13.4913  -16.5268 C   0  0  1  0  0  0  0  0  0  0  0  0
   17.1941  -12.8292  -17.2304 C   0  0  0  0  0  0  0  0  0  0  0  0
   16.5204  -13.8928  -18.5309 S   0  0  0  0  0  0  0  0  0  0  0  0
   19.0706  -12.5363  -15.6358 C   0  0  0  0  0  0  0  0  0  0  0  0
   18.5656  -12.2423  -14.5306 O   0  0  0  0  0  0  0  0  0  0  0  0
   23.3824  -10.3814  -14.6484 C   0  0  0  0  0  0  0  0  0  0  0  0
   22.5074  -11.3892  -15.3603 C   0  0  1  0  0  0  0  0  0  0  0  0
   22.7679  -12.7329  -14.7649 C   0  0  0  0  0  0  0  0  0  0  0  0
   21.0274  -11.0022  -15.2310 C   0  0  2  0  0  0  0  0  0  0  0  0
   20.2896  -11.9639  -16.0228 N   0  0  0  0  0  0  0  0  0  0  0  0
   20.8005   -9.6407  -15.7422 C   0  0  0  0  0  0  0  0  0  0  0  0
   21.1668   -9.3260  -16.9042 O   0  0  0  0  0  0  0  0  0  0  0  0
   17.8010   -7.7908  -16.6609 C   0  0  0  0  0  0  0  0  0  0  0  0
   18.5174   -6.9221  -15.6862 C   0  0  1  0  0  0  0  0  0  0  0  0
   17.9050   -6.9671  -14.4403 O   0  0  0  0  0  0  0  0  0  0  0  0
   19.9655   -7.2712  -15.4970 C   0  0  2  0  0  0  0  0  0  0  0  0
   20.1670   -8.6067  -14.9812 N   0  0  0  0  0  0  0  0  0  0  0  0
   20.6807   -6.2550  -14.6688 C   0  0  0  0  0  0  0  0  0  0  0  0
   20.9146   -4.9740  -15.1045 O   0  0  0  0  0  0  0  0  0  0  0  0
   21.0753   -6.6069  -13.5323 O   0  0  0  0  0  0  0  0  0  0  0  0
  2  1  1  1
  2  3  1  0
  3  4  1  0
  5  2  1  0
  6  5  2  0
  8 10  1  0
  8  7  1  1
  9  8  1  0
 10 12  1  0
 10 11  1  6
 11  5  1  0
 12 18  1  0
 13 12  2  0
 15 14  1  6
 15 16  1  0
 17 18  1  1
 17 19  1  0
 17 15  1  0
 19 21  2  0
 19 20  1  0
M  END
$$$$
