CVT.pdb
     RDKit          3D

 21 20  0  0  1  0  0  0  0  0999 V2000
   19.9096  -14.6278  -17.7722 N   0  0  0  0  0  0  0  0  0  0  0  0
   20.4182  -13.3052  -18.0740 C   0  0  1  0  0  0  0  0  0  0  0  0
   19.6273  -12.7975  -19.2707 C   0  0  0  0  0  0  0  0  0  0  0  0
   19.9608  -13.7875  -20.7490 S   0  0  0  0  0  0  0  0  0  0  0  0
   20.2823  -12.3933  -16.9133 C   0  0  0  0  0  0  0  0  0  0  0  0
   19.2648  -12.4655  -16.1905 O   0  0  0  0  0  0  0  0  0  0  0  0
   22.8801   -9.5105  -13.8657 C   0  0  0  0  0  0  0  0  0  0  0  0
   22.7373  -10.5258  -14.9779 C   0  0  1  0  0  0  0  0  0  0  0  0
   23.1993  -11.8480  -14.4617 C   0  0  0  0  0  0  0  0  0  0  0  0
   21.2808  -10.5956  -15.4581 C   0  0  2  0  0  0  0  0  0  0  0  0
   21.2821  -11.4557  -16.6228 N   0  0  0  0  0  0  0  0  0  0  0  0
   20.7874   -9.2556  -15.8152 C   0  0  0  0  0  0  0  0  0  0  0  0
   21.3586   -8.5834  -16.7125 O   0  0  0  0  0  0  0  0  0  0  0  0
   17.2222   -5.7798  -15.7506 C   0  0  0  0  0  0  0  0  0  0  0  0
   17.7114   -7.1562  -15.4608 C   0  0  1  0  0  0  0  0  0  0  0  0
   17.1450   -8.0765  -16.3334 O   0  0  0  0  0  0  0  0  0  0  0  0
   19.2030   -7.3100  -15.5387 C   0  0  2  0  0  0  0  0  0  0  0  0
   19.6580   -8.6372  -15.1894 N   0  0  0  0  0  0  0  0  0  0  0  0
   19.9140   -6.2649  -14.7436 C   0  0  0  0  0  0  0  0  0  0  0  0
   20.4594   -5.1414  -15.3144 O   0  0  0  0  0  0  0  0  0  0  0  0
   20.0052   -6.4402  -13.5059 O   0  0  0  0  0  0  0  0  0  0  0  0
  2  1  1  1
  2  3  1  0
  3  4  1  0
  5  2  1  0
  6  5  2  0
  8 10  1  0
  8  7  1  1
  9  8  1  0
 10 12  1  0
 10 11  1  6
 11  5  1  0
 12 18  1  0
 13 12  2  0
 15 14  1  6
 15 16  1  0
 17 18  1  1
 17 19  1  0
 17 15  1  0
 19 21  2  0
 19 20  1  0
M  END
$$$$
