CVT.pdb
     RDKit          3D

 21 20  0  0  1  0  0  0  0  0999 V2000
   28.8378  -21.0952  -15.9048 N   0  0  0  0  0  0  0  0  0  0  0  0
   28.0937  -20.2419  -15.0008 C   0  0  1  0  0  0  0  0  0  0  0  0
   27.5073  -19.1200  -15.8453 C   0  0  0  0  0  0  0  0  0  0  0  0
   28.7557  -17.8698  -16.2389 S   0  0  0  0  0  0  0  0  0  0  0  0
   27.0307  -20.9954  -14.2944 C   0  0  0  0  0  0  0  0  0  0  0  0
   26.3944  -21.8809  -14.9060 O   0  0  0  0  0  0  0  0  0  0  0  0
   25.9548  -19.5466  -10.4760 C   0  0  0  0  0  0  0  0  0  0  0  0
   25.9066  -21.0356  -10.7378 C   0  0  1  0  0  0  0  0  0  0  0  0
   24.8417  -21.6249   -9.8737 C   0  0  0  0  0  0  0  0  0  0  0  0
   25.6321  -21.3115  -12.2229 C   0  0  2  0  0  0  0  0  0  0  0  0
   26.7360  -20.7228  -12.9520 N   0  0  0  0  0  0  0  0  0  0  0  0
   24.3614  -20.6961  -12.6389 C   0  0  0  0  0  0  0  0  0  0  0  0
   24.2962  -19.4610  -12.8706 O   0  0  0  0  0  0  0  0  0  0  0  0
   21.2229  -22.8495  -14.6701 C   0  0  0  0  0  0  0  0  0  0  0  0
   21.5589  -21.3988  -14.6869 C   0  0  1  0  0  0  0  0  0  0  0  0
   20.4931  -20.6498  -15.1689 O   0  0  0  0  0  0  0  0  0  0  0  0
   21.9429  -20.8388  -13.3477 C   0  0  2  0  0  0  0  0  0  0  0  0
   23.1447  -21.4320  -12.8054 N   0  0  0  0  0  0  0  0  0  0  0  0
   20.8154  -20.9057  -12.3709 C   0  0  0  0  0  0  0  0  0  0  0  0
   19.6517  -20.1945  -12.5310 O   0  0  0  0  0  0  0  0  0  0  0  0
   20.9579  -21.6476  -11.3707 O   0  0  0  0  0  0  0  0  0  0  0  0
  2  1  1  6
  2  3  1  0
  3  4  1  0
  5  2  1  0
  6  5  2  0
  8 10  1  0
  8  7  1  6
  9  8  1  0
 10 12  1  0
 10 11  1  6
 11  5  1  0
 12 18  1  0
 13 12  2  0
 15 14  1  1
 15 16  1  0
 17 18  1  1
 17 19  1  0
 17 15  1  0
 19 21  2  0
 19 20  1  0
M  END
$$$$
