CVT.pdb
     RDKit          3D

 21 20  0  0  1  0  0  0  0  0999 V2000
   18.6703  -14.2118  -16.4087 N   0  0  0  0  0  0  0  0  0  0  0  0
   19.2022  -13.0349  -17.0652 C   0  0  1  0  0  0  0  0  0  0  0  0
   18.1628  -12.6002  -18.0881 C   0  0  0  0  0  0  0  0  0  0  0  0
   17.9950  -13.8190  -19.4158 S   0  0  0  0  0  0  0  0  0  0  0  0
   19.4857  -11.9524  -16.0931 C   0  0  0  0  0  0  0  0  0  0  0  0
   18.6918  -11.7505  -15.1487 O   0  0  0  0  0  0  0  0  0  0  0  0
   22.9250   -8.8350  -14.4145 C   0  0  0  0  0  0  0  0  0  0  0  0
   22.4591  -10.0816  -15.1337 C   0  0  1  0  0  0  0  0  0  0  0  0
   22.8301  -11.2639  -14.3015 C   0  0  0  0  0  0  0  0  0  0  0  0
   20.9442  -10.0272  -15.3767 C   0  0  2  0  0  0  0  0  0  0  0  0
   20.6323  -11.1581  -16.2255 N   0  0  0  0  0  0  0  0  0  0  0  0
   20.5707   -8.7704  -16.0455 C   0  0  0  0  0  0  0  0  0  0  0  0
   20.9625   -8.5298  -17.2169 O   0  0  0  0  0  0  0  0  0  0  0  0
   17.6046   -5.0569  -16.9980 C   0  0  0  0  0  0  0  0  0  0  0  0
   17.9798   -6.3761  -16.4176 C   0  0  1  0  0  0  0  0  0  0  0  0
   17.6385   -7.4106  -17.2793 O   0  0  0  0  0  0  0  0  0  0  0  0
   19.4392   -6.5144  -16.0923 C   0  0  2  0  0  0  0  0  0  0  0  0
   19.7605   -7.7609  -15.4340 N   0  0  0  0  0  0  0  0  0  0  0  0
   19.9520   -5.3438  -15.3200 C   0  0  0  0  0  0  0  0  0  0  0  0
   20.2562   -5.4127  -13.9828 O   0  0  0  0  0  0  0  0  0  0  0  0
   20.1037   -4.2634  -15.9371 O   0  0  0  0  0  0  0  0  0  0  0  0
  2  1  1  1
  2  3  1  0
  3  4  1  0
  5  2  1  0
  6  5  2  0
  8 10  1  0
  8  7  1  1
  9  8  1  0
 10 12  1  0
 10 11  1  6
 11  5  1  0
 12 18  1  0
 13 12  2  0
 15 14  1  6
 15 16  1  0
 17 18  1  1
 17 19  1  0
 17 15  1  0
 19 21  2  0
 19 20  1  0
M  END
$$$$
