TRV.pdb
     RDKit          3D

 26 25  0  0  1  0  0  0  0  0999 V2000
   25.5175  -11.3689  -20.1331 C   0  0  0  0  0  0  0  0  0  0  0  0
   24.6117  -10.3717  -19.4424 C   0  0  1  0  0  0  0  0  0  0  0  0
   24.7172   -9.0985  -19.9613 O   0  0  0  0  0  0  0  0  0  0  0  0
   23.2094  -10.9029  -19.4913 C   0  0  2  0  0  0  0  0  0  0  0  0
   22.6879  -11.0739  -20.8094 N   0  0  0  0  0  0  0  0  0  0  0  0
   22.2858  -10.0948  -18.6314 C   0  0  0  0  0  0  0  0  0  0  0  0
   21.6633   -9.1341  -19.1372 O   0  0  0  0  0  0  0  0  0  0  0  0
   15.3574  -11.9706  -14.8329 N   0  0  0  0  0  0  0  0  0  0  0  0
   15.4998  -10.5502  -14.5570 C   0  0  0  0  0  0  0  0  0  0  0  0
   14.4790   -9.8374  -14.3755 N   0  0  0  0  0  0  0  0  0  0  0  0
   16.7948   -9.9786  -14.4921 N   0  0  0  0  0  0  0  0  0  0  0  0
   17.9960  -10.5194  -15.0013 C   0  0  0  0  0  0  0  0  0  0  0  0
   19.2591   -9.7494  -14.8285 C   0  0  0  0  0  0  0  0  0  0  0  0
   20.4752  -10.4797  -15.4393 C   0  0  0  0  0  0  0  0  0  0  0  0
   21.2622   -9.6617  -16.3813 C   0  0  2  0  0  0  0  0  0  0  0  0
   22.1099  -10.4009  -17.2676 N   0  0  0  0  0  0  0  0  0  0  0  0
   21.9710   -8.5234  -15.6986 C   0  0  0  0  0  0  0  0  0  0  0  0
   23.0831   -8.6748  -15.1545 O   0  0  0  0  0  0  0  0  0  0  0  0
   14.4125   -8.8694  -14.1635 C   0  0  0  0  0  0  0  0  0  0  0  0
   22.2836   -4.9017  -17.2567 C   0  0  2  0  0  0  0  0  0  0  0  0
   21.8083   -4.8128  -15.8217 C   0  0  0  0  0  0  0  0  0  0  0  0
   20.2975   -4.6023  -15.8856 C   0  0  2  0  0  0  0  0  0  0  0  0
   22.1027   -6.0926  -15.0657 N   0  0  0  0  0  0  0  0  0  0  0  0
   21.4054   -7.2237  -15.6430 C   0  0  0  0  0  0  0  0  0  0  0  0
   21.6792   -5.9445  -13.6717 O   0  0  0  0  0  0  0  0  0  0  0  0
   22.2051   -5.0923  -12.8970 O   0  0  0  0  0  0  0  0  0  0  0  0
  2  1  1  6
  2  3  1  0
  4  6  1  0
  4  2  1  0
  4  5  1  6
  6  7  2  0
  9 11  1  0
  9  8  1  0
 10  9  2  0
 12 11  1  0
 13 12  1  0
 15 14  1  1
 14 13  1  0
 16  6  1  0
 16 15  1  0
 17 15  1  0
 17 18  2  0
 20 19  1  6
 20 22  1  0
 21 20  1  0
 22 23  1  1
 22 24  1  0
 23 17  1  0
 24 26  1  0
 25 24  2  0
M  END
$$$$
