TRV.pdb
     RDKit          3D

 26 25  0  0  1  0  0  0  0  0999 V2000
   21.7528  -19.7262  -18.7866 C   0  0  0  0  0  0  0  0  0  0  0  0
   21.5162  -18.2317  -18.7376 C   0  0  1  0  0  0  0  0  0  0  0  0
   20.3786  -17.8438  -19.4134 O   0  0  0  0  0  0  0  0  0  0  0  0
   21.5084  -17.8071  -17.2987 C   0  0  2  0  0  0  0  0  0  0  0  0
   21.1681  -16.4363  -17.0889 N   0  0  0  0  0  0  0  0  0  0  0  0
   22.7897  -18.1704  -16.6119 C   0  0  0  0  0  0  0  0  0  0  0  0
   23.7700  -17.3970  -16.6974 O   0  0  0  0  0  0  0  0  0  0  0  0
   25.2835  -20.7983   -9.1045 N   0  0  0  0  0  0  0  0  0  0  0  0
   23.9499  -20.7855   -9.6838 C   0  0  0  0  0  0  0  0  0  0  0  0
   22.9631  -20.4327   -8.9877 N   0  0  0  0  0  0  0  0  0  0  0  0
   23.7732  -21.1703  -11.0360 N   0  0  0  0  0  0  0  0  0  0  0  0
   24.7434  -21.7172  -11.9045 C   0  0  0  0  0  0  0  0  0  0  0  0
   25.0673  -20.9930  -13.1650 C   0  0  0  0  0  0  0  0  0  0  0  0
   23.8044  -20.4384  -13.8598 C   0  0  0  0  0  0  0  0  0  0  0  0
   24.0700  -19.7427  -15.1331 C   0  0  2  0  0  0  0  0  0  0  0  0
   22.9047  -19.3654  -15.8748 N   0  0  0  0  0  0  0  0  0  0  0  0
   25.0990  -20.4525  -15.9705 C   0  0  0  0  0  0  0  0  0  0  0  0
   24.8645  -21.5563  -16.5022 O   0  0  0  0  0  0  0  0  0  0  0  0
   21.9995  -20.4005   -9.2260 C   0  0  0  0  0  0  0  0  0  0  0  0
   27.7382  -18.4271  -18.3353 C   0  0  2  0  0  0  0  0  0  0  0  0
   28.3979  -19.5380  -17.5455 C   0  0  0  0  0  0  0  0  0  0  0  0
   29.0791  -18.8677  -16.3550 C   0  0  2  0  0  0  0  0  0  0  0  0
   27.3745  -20.5342  -17.0395 N   0  0  0  0  0  0  0  0  0  0  0  0
   26.3851  -19.8974  -16.1942 C   0  0  0  0  0  0  0  0  0  0  0  0
   28.0499  -21.5769  -16.2642 O   0  0  0  0  0  0  0  0  0  0  0  0
   28.8212  -22.4227  -16.8052 O   0  0  0  0  0  0  0  0  0  0  0  0
  2  1  1  1
  2  3  1  0
  4  6  1  0
  4  2  1  0
  4  5  1  6
  6  7  2  0
  9 11  1  0
  9  8  1  0
 10  9  2  0
 12 11  1  0
 13 12  1  0
 15 14  1  1
 14 13  1  0
 16  6  1  0
 16 15  1  0
 17 15  1  0
 17 18  2  0
 20 19  1  6
 20 22  1  0
 21 20  1  0
 22 23  1  6
 22 24  1  0
 23 17  1  0
 24 26  1  0
 25 24  2  0
M  END
$$$$
