TRV.pdb
     RDKit          3D

 26 25  0  0  1  0  0  0  0  0999 V2000
   14.2373  -20.4800    2.5114 C   0  0  0  0  0  0  0  0  0  0  0  0
   15.5088  -20.1925    3.2813 C   0  0  1  0  0  0  0  0  0  0  0  0
   16.5345  -21.0601    2.9708 O   0  0  0  0  0  0  0  0  0  0  0  0
   15.8768  -18.7558    3.0550 C   0  0  2  0  0  0  0  0  0  0  0  0
   16.0116  -18.3895    1.6815 N   0  0  0  0  0  0  0  0  0  0  0  0
   17.0840  -18.3659    3.8526 C   0  0  0  0  0  0  0  0  0  0  0  0
   18.0870  -17.9086    3.2599 O   0  0  0  0  0  0  0  0  0  0  0  0
   18.5044  -11.4685    7.7413 N   0  0  0  0  0  0  0  0  0  0  0  0
   19.4638  -11.8474    6.7165 C   0  0  0  0  0  0  0  0  0  0  0  0
   20.2871  -11.0022    6.2798 N   0  0  0  0  0  0  0  0  0  0  0  0
   19.4645  -13.1738    6.2180 N   0  0  0  0  0  0  0  0  0  0  0  0
   18.7035  -14.2662    6.6894 C   0  0  0  0  0  0  0  0  0  0  0  0
   18.7997  -15.5690    5.9741 C   0  0  0  0  0  0  0  0  0  0  0  0
   17.9433  -16.6662    6.6436 C   0  0  0  0  0  0  0  0  0  0  0  0
   18.1559  -18.0189    6.0951 C   0  0  2  0  0  0  0  0  0  0  0  0
   17.1045  -18.5066    5.2542 N   0  0  0  0  0  0  0  0  0  0  0  0
   18.5741  -19.0064    7.1506 C   0  0  0  0  0  0  0  0  0  0  0  0
   17.7497  -19.5164    7.9355 O   0  0  0  0  0  0  0  0  0  0  0  0
   21.0152  -11.1135    5.6135 C   0  0  0  0  0  0  0  0  0  0  0  0
   21.7826  -22.4686    8.5306 C   0  0  1  0  0  0  0  0  0  0  0  0
   21.3708  -21.3644    7.5798 C   0  0  0  0  0  0  0  0  0  0  0  0
   20.7578  -22.0553    6.3642 C   0  0  1  0  0  0  0  0  0  0  0  0
   20.3371  -20.4537    8.2108 N   0  0  0  0  0  0  0  0  0  0  0  0
   19.9276  -19.4032    7.3011 C   0  0  0  0  0  0  0  0  0  0  0  0
   20.8994  -19.8368    9.4141 O   0  0  0  0  0  0  0  0  0  0  0  0
   21.5436  -18.7476    9.3719 O   0  0  0  0  0  0  0  0  0  0  0  0
  2  1  1  6
  2  3  1  0
  4  6  1  0
  4  2  1  0
  4  5  1  6
  6  7  2  0
  9 11  1  0
  9  8  1  0
 10  9  2  0
 12 11  1  0
 13 12  1  0
 15 14  1  1
 14 13  1  0
 16  6  1  0
 16 15  1  0
 17 15  1  0
 17 18  2  0
 20 19  1  6
 20 22  1  0
 21 20  1  0
 22 23  1  6
 22 24  1  0
 23 17  1  0
 24 26  1  0
 25 24  2  0
M  END
$$$$
