TRV.pdb
     RDKit          3D

 26 25  0  0  1  0  0  0  0  0999 V2000
   24.7979  -19.0822  -16.6079 C   0  0  0  0  0  0  0  0  0  0  0  0
   25.4460  -20.4282  -16.8535 C   0  0  1  0  0  0  0  0  0  0  0  0
   26.7189  -20.3263  -17.3737 O   0  0  0  0  0  0  0  0  0  0  0  0
   25.4045  -21.2072  -15.5720 C   0  0  2  0  0  0  0  0  0  0  0  0
   26.0819  -22.4631  -15.6217 N   0  0  0  0  0  0  0  0  0  0  0  0
   24.0025  -21.3545  -15.0639 C   0  0  0  0  0  0  0  0  0  0  0  0
   23.3012  -22.3074  -15.4720 O   0  0  0  0  0  0  0  0  0  0  0  0
   22.1680  -20.9407   -7.9084 N   0  0  0  0  0  0  0  0  0  0  0  0
   20.8397  -21.4755   -8.1612 C   0  0  0  0  0  0  0  0  0  0  0  0
   20.3371  -22.3156   -7.3711 N   0  0  0  0  0  0  0  0  0  0  0  0
   20.1181  -21.0409   -9.3006 N   0  0  0  0  0  0  0  0  0  0  0  0
   20.4705  -20.0052  -10.1938 C   0  0  0  0  0  0  0  0  0  0  0  0
   20.5524  -20.3102  -11.6493 C   0  0  0  0  0  0  0  0  0  0  0  0
   21.9948  -20.1941  -12.1891 C   0  0  0  0  0  0  0  0  0  0  0  0
   22.1306  -20.5040  -13.6248 C   0  0  2  0  0  0  0  0  0  0  0  0
   23.4660  -20.4387  -14.1376 N   0  0  0  0  0  0  0  0  0  0  0  0
   21.1363  -19.7546  -14.4698 C   0  0  0  0  0  0  0  0  0  0  0  0
   21.1481  -18.5098  -14.5483 O   0  0  0  0  0  0  0  0  0  0  0  0
   19.4563  -22.7729   -7.4097 C   0  0  0  0  0  0  0  0  0  0  0  0
   20.4019  -20.1850  -18.1292 C   0  0  2  0  0  0  0  0  0  0  0  0
   19.0693  -20.2930  -17.4181 C   0  0  0  0  0  0  0  0  0  0  0  0
   18.7435  -21.7828  -17.3476 C   0  0  2  0  0  0  0  0  0  0  0  0
   19.1499  -19.7322  -16.0128 N   0  0  0  0  0  0  0  0  0  0  0  0
   20.1385  -20.4314  -15.2172 C   0  0  0  0  0  0  0  0  0  0  0  0
   17.8462  -19.8637  -15.3591 O   0  0  0  0  0  0  0  0  0  0  0  0
   17.6573  -20.6577  -14.3911 O   0  0  0  0  0  0  0  0  0  0  0  0
  2  1  1  1
  2  3  1  0
  4  6  1  0
  4  2  1  0
  4  5  1  6
  6  7  2  0
  9 11  1  0
  9  8  1  0
 10  9  2  0
 12 11  1  0
 13 12  1  0
 15 14  1  1
 14 13  1  0
 16  6  1  0
 16 15  1  0
 17 15  1  0
 17 18  2  0
 20 19  1  6
 20 22  1  0
 21 20  1  0
 22 23  1  6
 22 24  1  0
 23 17  1  0
 24 26  1  0
 25 24  2  0
M  END
$$$$
