TRV.pdb
     RDKit          3D

 26 25  0  0  1  0  0  0  0  0999 V2000
   15.2280  -22.9464   -1.1428 C   0  0  0  0  0  0  0  0  0  0  0  0
   13.8693  -22.6170   -1.7237 C   0  0  1  0  0  0  0  0  0  0  0  0
   13.3529  -21.4306   -1.2471 O   0  0  0  0  0  0  0  0  0  0  0  0
   13.9830  -22.6399   -3.2195 C   0  0  2  0  0  0  0  0  0  0  0  0
   12.7995  -22.2352   -3.9083 N   0  0  0  0  0  0  0  0  0  0  0  0
   14.4846  -23.9633   -3.7119 C   0  0  0  0  0  0  0  0  0  0  0  0
   13.7184  -24.9529   -3.6937 O   0  0  0  0  0  0  0  0  0  0  0  0
   19.4620  -26.7700  -10.2136 N   0  0  0  0  0  0  0  0  0  0  0  0
   18.2728  -26.0399   -9.8049 C   0  0  0  0  0  0  0  0  0  0  0  0
   17.6404  -25.3453  -10.6419 N   0  0  0  0  0  0  0  0  0  0  0  0
   17.8329  -26.1200   -8.4604 N   0  0  0  0  0  0  0  0  0  0  0  0
   18.4332  -26.8405   -7.4044 C   0  0  0  0  0  0  0  0  0  0  0  0
   17.8034  -26.7942   -6.0555 C   0  0  0  0  0  0  0  0  0  0  0  0
   17.1270  -25.4345   -5.7744 C   0  0  0  0  0  0  0  0  0  0  0  0
   16.4163  -25.3674   -4.4835 C   0  0  2  0  0  0  0  0  0  0  0  0
   15.8008  -24.1076   -4.1927 N   0  0  0  0  0  0  0  0  0  0  0  0
   17.2448  -25.8968   -3.3445 C   0  0  0  0  0  0  0  0  0  0  0  0
   18.3234  -25.3641   -3.0147 O   0  0  0  0  0  0  0  0  0  0  0  0
   16.7878  -24.8471  -10.5356 C   0  0  0  0  0  0  0  0  0  0  0  0
   15.6432  -26.9227    0.1183 C   0  0  2  0  0  0  0  0  0  0  0  0
   16.5883  -28.0054   -0.3587 C   0  0  0  0  0  0  0  0  0  0  0  0
   15.7129  -29.0938   -0.9752 C   0  0  2  0  0  0  0  0  0  0  0  0
   17.5427  -27.4768   -1.4101 N   0  0  0  0  0  0  0  0  0  0  0  0
   16.8359  -27.0278   -2.5924 C   0  0  0  0  0  0  0  0  0  0  0  0
   18.4768  -28.5357   -1.7982 O   0  0  0  0  0  0  0  0  0  0  0  0
   18.3844  -29.1395   -2.9073 O   0  0  0  0  0  0  0  0  0  0  0  0
  2  1  1  1
  2  3  1  0
  4  6  1  0
  4  2  1  0
  4  5  1  6
  6  7  2  0
  9 11  1  0
  9  8  1  0
 10  9  2  0
 12 11  1  0
 13 12  1  0
 15 14  1  6
 14 13  1  0
 16  6  1  0
 16 15  1  0
 17 15  1  0
 17 18  2  0
 20 19  1  1
 20 22  1  0
 21 20  1  0
 22 23  1  1
 22 24  1  0
 23 17  1  0
 24 26  1  0
 25 24  2  0
M  END
$$$$
