TRV.pdb
     RDKit          3D

 26 25  0  0  1  0  0  0  0  0999 V2000
   23.5295  -17.1725  -20.4242 C   0  0  0  0  0  0  0  0  0  0  0  0
   24.7048  -16.9793  -19.4897 C   0  0  1  0  0  0  0  0  0  0  0  0
   25.3402  -15.7684  -19.6664 O   0  0  0  0  0  0  0  0  0  0  0  0
   24.2214  -17.1802  -18.0837 C   0  0  2  0  0  0  0  0  0  0  0  0
   25.1696  -16.8263  -17.0766 N   0  0  0  0  0  0  0  0  0  0  0  0
   23.6879  -18.5655  -17.8791 C   0  0  0  0  0  0  0  0  0  0  0  0
   22.6542  -18.9191  -18.4897 O   0  0  0  0  0  0  0  0  0  0  0  0
   29.4838  -23.0457  -16.4558 N   0  0  0  0  0  0  0  0  0  0  0  0
   28.4223  -24.0388  -16.4221 C   0  0  0  0  0  0  0  0  0  0  0  0
   28.5846  -25.1144  -15.7898 N   0  0  0  0  0  0  0  0  0  0  0  0
   27.2065  -23.7836  -17.1035 N   0  0  0  0  0  0  0  0  0  0  0  0
   26.8218  -22.5884  -17.7501 C   0  0  0  0  0  0  0  0  0  0  0  0
   26.3043  -21.4612  -16.9254 C   0  0  0  0  0  0  0  0  0  0  0  0
   24.9060  -21.7599  -16.3418 C   0  0  0  0  0  0  0  0  0  0  0  0
   23.8636  -20.7972  -16.7447 C   0  0  2  0  0  0  0  0  0  0  0  0
   24.3315  -19.4706  -17.0125 N   0  0  0  0  0  0  0  0  0  0  0  0
   22.6693  -20.8288  -15.8299 C   0  0  0  0  0  0  0  0  0  0  0  0
   22.1761  -21.9030  -15.4316 O   0  0  0  0  0  0  0  0  0  0  0  0
   27.9943  -25.9112  -15.7342 C   0  0  0  0  0  0  0  0  0  0  0  0
   20.6422  -17.1570  -14.7388 C   0  0  2  0  0  0  0  0  0  0  0  0
   20.7152  -18.3328  -13.7874 C   0  0  0  0  0  0  0  0  0  0  0  0
   19.3945  -18.3439  -13.0215 C   0  0  1  0  0  0  0  0  0  0  0  0
   20.8672  -19.6391  -14.5399 N   0  0  0  0  0  0  0  0  0  0  0  0
   22.0492  -19.6359  -15.3777 C   0  0  0  0  0  0  0  0  0  0  0  0
   19.6934  -19.8530  -15.3889 O   0  0  0  0  0  0  0  0  0  0  0  0
   19.7528  -19.7681  -16.6508 O   0  0  0  0  0  0  0  0  0  0  0  0
  2  1  1  6
  2  3  1  0
  4  6  1  0
  4  2  1  0
  4  5  1  1
  6  7  2  0
  9 11  1  0
  9  8  1  0
 10  9  2  0
 12 11  1  0
 13 12  1  0
 15 14  1  1
 14 13  1  0
 16  6  1  0
 16 15  1  0
 17 15  1  0
 17 18  2  0
 20 19  1  1
 20 22  1  0
 21 20  1  0
 22 23  1  1
 22 24  1  0
 23 17  1  0
 24 26  1  0
 25 24  2  0
M  END
$$$$
