TRV.pdb
     RDKit          3D

 26 25  0  0  1  0  0  0  0  0999 V2000
   29.0490  -20.3360  -15.4670 C   0  0  0  0  0  0  0  0  0  0  0  0
   28.2990  -20.3137  -14.1522 C   0  0  1  0  0  0  0  0  0  0  0  0
   29.0597  -19.8360  -13.1060 O   0  0  0  0  0  0  0  0  0  0  0  0
   27.0322  -19.5347  -14.3504 C   0  0  2  0  0  0  0  0  0  0  0  0
   27.2179  -18.2412  -14.9260 N   0  0  0  0  0  0  0  0  0  0  0  0
   26.2252  -19.4684  -13.0895 C   0  0  0  0  0  0  0  0  0  0  0  0
   26.3230  -18.4611  -12.3531 O   0  0  0  0  0  0  0  0  0  0  0  0
   19.3232  -18.9922  -12.8280 N   0  0  0  0  0  0  0  0  0  0  0  0
   19.5399  -19.8824  -13.9571 C   0  0  0  0  0  0  0  0  0  0  0  0
   19.1897  -19.5314  -15.1134 N   0  0  0  0  0  0  0  0  0  0  0  0
   20.1496  -21.1436  -13.7439 N   0  0  0  0  0  0  0  0  0  0  0  0
   21.0919  -21.4818  -12.7477 C   0  0  0  0  0  0  0  0  0  0  0  0
   22.3566  -20.7000  -12.6617 C   0  0  0  0  0  0  0  0  0  0  0  0
   23.3163  -21.2599  -11.5889 C   0  0  0  0  0  0  0  0  0  0  0  0
   24.6094  -20.5550  -11.5063 C   0  0  2  0  0  0  0  0  0  0  0  0
   25.3620  -20.5200  -12.7240 N   0  0  0  0  0  0  0  0  0  0  0  0
   25.4255  -20.9914  -10.3199 C   0  0  0  0  0  0  0  0  0  0  0  0
   25.9346  -22.1283  -10.2560 O   0  0  0  0  0  0  0  0  0  0  0  0
   19.2237  -20.0389  -15.9664 C   0  0  0  0  0  0  0  0  0  0  0  0
   28.0506  -19.8885   -6.2966 C   0  0  2  0  0  0  0  0  0  0  0  0
   27.3797  -19.4968   -7.5964 C   0  0  0  0  0  0  0  0  0  0  0  0
   28.4924  -19.3974   -8.6371 C   0  0  1  0  0  0  0  0  0  0  0  0
   26.3779  -20.5456   -8.0349 N   0  0  0  0  0  0  0  0  0  0  0  0
   25.6538  -20.1276   -9.2181 C   0  0  0  0  0  0  0  0  0  0  0  0
   25.4150  -20.7818   -6.9571 O   0  0  0  0  0  0  0  0  0  0  0  0
   24.1823  -20.5251   -7.0896 O   0  0  0  0  0  0  0  0  0  0  0  0
  2  1  1  6
  2  3  1  0
  4  6  1  0
  4  2  1  0
  4  5  1  1
  6  7  2  0
  9 11  1  0
  9  8  1  0
 10  9  2  0
 12 11  1  0
 13 12  1  0
 15 14  1  6
 14 13  1  0
 16  6  1  0
 16 15  1  0
 17 15  1  0
 17 18  2  0
 20 19  1  1
 20 22  1  0
 21 20  1  0
 22 23  1  1
 22 24  1  0
 23 17  1  0
 24 26  1  0
 25 24  2  0
M  END
$$$$
