TRV.pdb
     RDKit          3D

 26 25  0  0  1  0  0  0  0  0999 V2000
   16.6117  -10.8698  -17.8965 C   0  0  0  0  0  0  0  0  0  0  0  0
   16.4514  -12.1935  -17.1796 C   0  0  1  0  0  0  0  0  0  0  0  0
   15.4679  -12.9883  -17.7294 O   0  0  0  0  0  0  0  0  0  0  0  0
   17.7900  -12.8699  -17.1432 C   0  0  2  0  0  0  0  0  0  0  0  0
   17.7604  -14.2132  -16.6599 N   0  0  0  0  0  0  0  0  0  0  0  0
   18.8042  -12.0419  -16.4143 C   0  0  0  0  0  0  0  0  0  0  0  0
   18.7650  -11.9875  -15.1645 O   0  0  0  0  0  0  0  0  0  0  0  0
   27.2228  -12.4579  -16.1361 N   0  0  0  0  0  0  0  0  0  0  0  0
   25.9541  -13.0840  -15.8005 C   0  0  0  0  0  0  0  0  0  0  0  0
   25.9157  -14.3005  -15.4818 N   0  0  0  0  0  0  0  0  0  0  0  0
   24.7657  -12.3130  -15.8330 N   0  0  0  0  0  0  0  0  0  0  0  0
   24.6480  -10.9321  -16.1046 C   0  0  0  0  0  0  0  0  0  0  0  0
   23.3095  -10.2894  -15.9864 C   0  0  0  0  0  0  0  0  0  0  0  0
   22.1891  -11.1594  -16.5973 C   0  0  0  0  0  0  0  0  0  0  0  0
   20.8394  -10.5752  -16.4841 C   0  0  2  0  0  0  0  0  0  0  0  0
   19.7963  -11.3273  -17.1140 N   0  0  0  0  0  0  0  0  0  0  0  0
   20.8147   -9.1146  -16.8446 C   0  0  0  0  0  0  0  0  0  0  0  0
   21.0888   -8.7179  -17.9950 O   0  0  0  0  0  0  0  0  0  0  0  0
   25.1320  -14.8830  -15.3009 C   0  0  0  0  0  0  0  0  0  0  0  0
   18.0983   -6.9968  -17.1758 C   0  0  2  0  0  0  0  0  0  0  0  0
   18.9607   -6.2208  -16.2025 C   0  0  0  0  0  0  0  0  0  0  0  0
   18.3663   -6.4657  -14.8177 C   0  0  2  0  0  0  0  0  0  0  0  0
   20.3935   -6.7133  -16.2253 N   0  0  0  0  0  0  0  0  0  0  0  0
   20.4775   -8.1204  -15.8906 C   0  0  0  0  0  0  0  0  0  0  0  0
   21.1861   -5.9543  -15.2557 O   0  0  0  0  0  0  0  0  0  0  0  0
   21.5767   -6.4618  -14.1635 O   0  0  0  0  0  0  0  0  0  0  0  0
  2  1  1  6
  2  3  1  0
  4  6  1  0
  4  2  1  0
  4  5  1  1
  6  7  2  0
  9 11  1  0
  9  8  1  0
 10  9  2  0
 12 11  1  0
 13 12  1  0
 15 14  1  6
 14 13  1  0
 16  6  1  0
 16 15  1  0
 17 15  1  0
 17 18  2  0
 20 19  1  6
 20 22  1  0
 21 20  1  0
 22 23  1  6
 22 24  1  0
 23 17  1  0
 24 26  1  0
 25 24  2  0
M  END
$$$$
