TRV.pdb
     RDKit          3D

 26 25  0  0  1  0  0  0  0  0999 V2000
   26.4524  -24.5513  -16.6900 C   0  0  0  0  0  0  0  0  0  0  0  0
   27.9466  -24.5212  -16.4487 C   0  0  1  0  0  0  0  0  0  0  0  0
   28.6226  -25.5104  -17.1311 O   0  0  0  0  0  0  0  0  0  0  0  0
   28.4452  -23.1452  -16.7790 C   0  0  2  0  0  0  0  0  0  0  0  0
   29.8608  -22.9891  -16.6758 N   0  0  0  0  0  0  0  0  0  0  0  0
   27.7144  -22.0945  -15.9996 C   0  0  0  0  0  0  0  0  0  0  0  0
   28.2468  -21.6124  -14.9746 O   0  0  0  0  0  0  0  0  0  0  0  0
   20.1593  -19.1295  -16.1520 N   0  0  0  0  0  0  0  0  0  0  0  0
   20.5803  -17.7524  -15.9503 C   0  0  0  0  0  0  0  0  0  0  0  0
   19.7718  -16.9071  -15.4870 N   0  0  0  0  0  0  0  0  0  0  0  0
   21.9059  -17.3734  -16.2769 N   0  0  0  0  0  0  0  0  0  0  0  0
   22.9242  -18.1934  -16.8110 C   0  0  0  0  0  0  0  0  0  0  0  0
   23.7271  -19.0365  -15.8821 C   0  0  0  0  0  0  0  0  0  0  0  0
   24.8869  -19.7571  -16.6039 C   0  0  0  0  0  0  0  0  0  0  0  0
   25.7000  -20.6225  -15.7288 C   0  0  2  0  0  0  0  0  0  0  0  0
   26.4422  -21.6444  -16.4036 N   0  0  0  0  0  0  0  0  0  0  0  0
   24.9212  -21.1392  -14.5496 C   0  0  0  0  0  0  0  0  0  0  0  0
   24.0299  -22.0022  -14.6790 O   0  0  0  0  0  0  0  0  0  0  0  0
   19.9030  -15.9398  -15.3040 C   0  0  0  0  0  0  0  0  0  0  0  0
   26.6893  -21.2288  -10.9174 C   0  0  2  0  0  0  0  0  0  0  0  0
   25.2204  -20.8822  -10.7936 C   0  0  0  0  0  0  0  0  0  0  0  0
   25.1581  -19.3806  -10.5252 C   0  0  2  0  0  0  0  0  0  0  0  0
   24.4734  -21.1921  -12.0750 N   0  0  0  0  0  0  0  0  0  0  0  0
   25.1660  -20.6676  -13.2344 C   0  0  0  0  0  0  0  0  0  0  0  0
   23.1379  -20.5941  -12.0184 O   0  0  0  0  0  0  0  0  0  0  0  0
   22.8144  -19.6039  -12.7381 O   0  0  0  0  0  0  0  0  0  0  0  0
  2  1  1  6
  2  3  1  0
  4  6  1  0
  4  2  1  0
  4  5  1  1
  6  7  2  0
  9 11  1  0
  9  8  1  0
 10  9  2  0
 12 11  1  0
 13 12  1  0
 15 14  1  6
 14 13  1  0
 16  6  1  0
 16 15  1  0
 17 15  1  0
 17 18  2  0
 20 19  1  1
 20 22  1  0
 21 20  1  0
 22 23  1  1
 22 24  1  0
 23 17  1  0
 24 26  1  0
 25 24  2  0
M  END
$$$$
