TRV.pdb
     RDKit          3D

 26 25  0  0  1  0  0  0  0  0999 V2000
   24.8753  -17.9047  -17.5579 C   0  0  0  0  0  0  0  0  0  0  0  0
   25.6381  -19.0721  -18.1473 C   0  0  1  0  0  0  0  0  0  0  0  0
   26.6192  -18.6821  -19.0342 O   0  0  0  0  0  0  0  0  0  0  0  0
   26.1751  -19.8979  -17.0157 C   0  0  2  0  0  0  0  0  0  0  0  0
   27.0649  -20.9407  -17.4155 N   0  0  0  0  0  0  0  0  0  0  0  0
   25.0730  -20.4156  -16.1423 C   0  0  0  0  0  0  0  0  0  0  0  0
   24.4098  -21.4082  -16.5184 O   0  0  0  0  0  0  0  0  0  0  0  0
   23.3178  -21.8269   -8.1288 N   0  0  0  0  0  0  0  0  0  0  0  0
   22.7347  -20.6783   -8.8032 C   0  0  0  0  0  0  0  0  0  0  0  0
   21.5241  -20.3877   -8.6216 N   0  0  0  0  0  0  0  0  0  0  0  0
   23.5407  -19.8904   -9.6619 N   0  0  0  0  0  0  0  0  0  0  0  0
   24.7155  -20.2882  -10.3373 C   0  0  0  0  0  0  0  0  0  0  0  0
   24.6066  -20.7714  -11.7420 C   0  0  0  0  0  0  0  0  0  0  0  0
   23.8377  -19.7793  -12.6418 C   0  0  0  0  0  0  0  0  0  0  0  0
   23.7080  -20.2113  -14.0463 C   0  0  2  0  0  0  0  0  0  0  0  0
   24.7751  -19.8027  -14.9094 N   0  0  0  0  0  0  0  0  0  0  0  0
   22.3452  -19.9185  -14.6128 C   0  0  0  0  0  0  0  0  0  0  0  0
   22.0313  -18.7791  -15.0117 O   0  0  0  0  0  0  0  0  0  0  0  0
   20.9921  -19.6339   -8.9892 C   0  0  0  0  0  0  0  0  0  0  0  0
   20.4775  -22.1482  -17.2166 C   0  0  2  0  0  0  0  0  0  0  0  0
   19.5275  -21.8329  -16.0803 C   0  0  0  0  0  0  0  0  0  0  0  0
   19.4745  -23.0857  -15.2093 C   0  0  2  0  0  0  0  0  0  0  0  0
   20.0307  -20.6689  -15.2510 N   0  0  0  0  0  0  0  0  0  0  0  0
   21.3535  -20.9272  -14.7194 C   0  0  0  0  0  0  0  0  0  0  0  0
   19.1153  -20.4346  -14.1322 O   0  0  0  0  0  0  0  0  0  0  0  0
   19.4297  -20.7128  -12.9377 O   0  0  0  0  0  0  0  0  0  0  0  0
  2  1  1  1
  2  3  1  0
  4  6  1  0
  4  2  1  0
  4  5  1  6
  6  7  2  0
  9 11  1  0
  9  8  1  0
 10  9  2  0
 12 11  1  0
 13 12  1  0
 15 14  1  1
 14 13  1  0
 16  6  1  0
 16 15  1  0
 17 15  1  0
 17 18  2  0
 20 19  1  6
 20 22  1  0
 21 20  1  0
 22 23  1  6
 22 24  1  0
 23 17  1  0
 24 26  1  0
 25 24  2  0
M  END
$$$$
