TRV.pdb
     RDKit          3D

 26 25  0  0  1  0  0  0  0  0999 V2000
   16.9850   -6.2443  -20.4205 C   0  0  0  0  0  0  0  0  0  0  0  0
   17.4698   -7.5658  -20.9781 C   0  0  1  0  0  0  0  0  0  0  0  0
   17.2154   -7.7077  -22.3258 O   0  0  0  0  0  0  0  0  0  0  0  0
   18.9259   -7.7069  -20.6453 C   0  0  2  0  0  0  0  0  0  0  0  0
   19.5932   -8.7566  -21.3465 N   0  0  0  0  0  0  0  0  0  0  0  0
   19.1443   -7.8036  -19.1660 C   0  0  0  0  0  0  0  0  0  0  0  0
   18.4435   -7.1074  -18.3975 O   0  0  0  0  0  0  0  0  0  0  0  0
   20.8412  -15.5223  -16.4742 N   0  0  0  0  0  0  0  0  0  0  0  0
   19.6150  -14.8201  -16.1316 C   0  0  0  0  0  0  0  0  0  0  0  0
   18.6908  -15.4229  -15.5271 N   0  0  0  0  0  0  0  0  0  0  0  0
   19.4722  -13.4545  -16.4814 N   0  0  0  0  0  0  0  0  0  0  0  0
   20.3811  -12.6581  -17.2123 C   0  0  0  0  0  0  0  0  0  0  0  0
   19.9664  -11.2870  -17.6200 C   0  0  0  0  0  0  0  0  0  0  0  0
   20.6782  -10.1929  -16.7943 C   0  0  0  0  0  0  0  0  0  0  0  0
   20.3815   -8.8156  -17.2312 C   0  0  2  0  0  0  0  0  0  0  0  0
   20.1235   -8.6639  -18.6315 N   0  0  0  0  0  0  0  0  0  0  0  0
   21.3777   -7.8194  -16.7029 C   0  0  0  0  0  0  0  0  0  0  0  0
   22.5161   -7.7034  -17.1992 O   0  0  0  0  0  0  0  0  0  0  0  0
   17.7657  -15.1232  -15.3251 C   0  0  0  0  0  0  0  0  0  0  0  0
   21.5357   -4.4081  -16.9506 C   0  0  2  0  0  0  0  0  0  0  0  0
   21.6215   -4.5834  -15.4489 C   0  0  0  0  0  0  0  0  0  0  0  0
   20.2261   -4.2871  -14.9050 C   0  0  2  0  0  0  0  0  0  0  0  0
   22.0095   -6.0017  -15.0830 N   0  0  0  0  0  0  0  0  0  0  0  0
   21.0665   -6.9648  -15.6142 C   0  0  0  0  0  0  0  0  0  0  0  0
   22.0449   -6.1376  -13.6254 O   0  0  0  0  0  0  0  0  0  0  0  0
   21.2078   -6.8498  -12.9968 O   0  0  0  0  0  0  0  0  0  0  0  0
  2  1  1  6
  2  3  1  0
  4  6  1  0
  4  2  1  0
  4  5  1  6
  6  7  2  0
  9 11  1  0
  9  8  1  0
 10  9  2  0
 12 11  1  0
 13 12  1  0
 15 14  1  6
 14 13  1  0
 16  6  1  0
 16 15  1  0
 17 15  1  0
 17 18  2  0
 20 19  1  1
 20 22  1  0
 21 20  1  0
 22 23  1  1
 22 24  1  0
 23 17  1  0
 24 26  1  0
 25 24  2  0
M  END
$$$$
