TRV.pdb
     RDKit          3D

 26 25  0  0  1  0  0  0  0  0999 V2000
   27.8021  -19.3376  -17.3473 C   0  0  0  0  0  0  0  0  0  0  0  0
   28.0417  -20.6487  -18.0653 C   0  0  1  0  0  0  0  0  0  0  0  0
   29.0516  -20.5739  -19.0011 O   0  0  0  0  0  0  0  0  0  0  0  0
   28.2865  -21.7088  -17.0322 C   0  0  2  0  0  0  0  0  0  0  0  0
   28.5927  -22.9965  -17.5679 N   0  0  0  0  0  0  0  0  0  0  0  0
   27.1677  -21.7752  -16.0375 C   0  0  0  0  0  0  0  0  0  0  0  0
   26.1005  -22.3468  -16.3549 O   0  0  0  0  0  0  0  0  0  0  0  0
   23.0035  -20.5263   -9.5665 N   0  0  0  0  0  0  0  0  0  0  0  0
   24.0333  -20.9601   -8.6361 C   0  0  0  0  0  0  0  0  0  0  0  0
   23.7114  -21.4691   -7.5314 N   0  0  0  0  0  0  0  0  0  0  0  0
   25.3980  -20.8073   -8.9852 N   0  0  0  0  0  0  0  0  0  0  0  0
   25.9245  -20.1246  -10.1038 C   0  0  0  0  0  0  0  0  0  0  0  0
   25.4621  -20.5144  -11.4649 C   0  0  0  0  0  0  0  0  0  0  0  0
   26.6391  -20.7216  -12.4433 C   0  0  0  0  0  0  0  0  0  0  0  0
   26.2311  -21.0964  -13.8104 C   0  0  2  0  0  0  0  0  0  0  0  0
   27.3007  -21.2052  -14.7561 N   0  0  0  0  0  0  0  0  0  0  0  0
   25.0804  -20.2673  -14.3130 C   0  0  0  0  0  0  0  0  0  0  0  0
   25.1814  -19.0347  -14.4755 O   0  0  0  0  0  0  0  0  0  0  0  0
   24.2893  -21.8030   -6.7960 C   0  0  0  0  0  0  0  0  0  0  0  0
   21.0703  -19.7662  -16.9876 C   0  0  2  0  0  0  0  0  0  0  0  0
   22.2502  -20.5691  -16.4815 C   0  0  0  0  0  0  0  0  0  0  0  0
   23.3729  -20.3617  -17.4951 C   0  0  1  0  0  0  0  0  0  0  0  0
   22.7066  -20.0773  -15.1229 N   0  0  0  0  0  0  0  0  0  0  0  0
   23.8260  -20.8511  -14.6257 C   0  0  0  0  0  0  0  0  0  0  0  0
   21.6021  -20.1868  -14.1677 O   0  0  0  0  0  0  0  0  0  0  0  0
   20.6064  -19.4053  -14.1999 O   0  0  0  0  0  0  0  0  0  0  0  0
  2  1  1  1
  2  3  1  0
  4  6  1  0
  4  2  1  0
  4  5  1  6
  6  7  2  0
  9 11  1  0
  9  8  1  0
 10  9  2  0
 12 11  1  0
 13 12  1  0
 15 14  1  1
 14 13  1  0
 16  6  1  0
 16 15  1  0
 17 15  1  0
 17 18  2  0
 20 19  1  6
 20 22  1  0
 21 20  1  0
 22 23  1  6
 22 24  1  0
 23 17  1  0
 24 26  1  0
 25 24  2  0
M  END
$$$$
