TRV.pdb
     RDKit          3D

 26 25  0  0  1  0  0  0  0  0999 V2000
   21.5589   -7.2817    8.9775 C   0  0  0  0  0  0  0  0  0  0  0  0
   22.8308   -7.2119    8.1594 C   0  0  1  0  0  0  0  0  0  0  0  0
   23.3780   -5.9468    8.1210 O   0  0  0  0  0  0  0  0  0  0  0  0
   23.7852   -8.2400    8.6914 C   0  0  2  0  0  0  0  0  0  0  0  0
   25.1088   -8.1466    8.1640 N   0  0  0  0  0  0  0  0  0  0  0  0
   23.2317   -9.6259    8.5549 C   0  0  0  0  0  0  0  0  0  0  0  0
   23.6238  -10.3509    7.6131 O   0  0  0  0  0  0  0  0  0  0  0  0
   21.7179  -15.3321   14.7384 N   0  0  0  0  0  0  0  0  0  0  0  0
   20.8366  -15.1667   13.5938 C   0  0  0  0  0  0  0  0  0  0  0  0
   19.7112  -15.7290   13.5778 N   0  0  0  0  0  0  0  0  0  0  0  0
   21.2545  -14.3669   12.5014 N   0  0  0  0  0  0  0  0  0  0  0  0
   22.4636  -13.6472   12.3803 C   0  0  0  0  0  0  0  0  0  0  0  0
   22.7228  -12.8861   11.1265 C   0  0  0  0  0  0  0  0  0  0  0  0
   21.4730  -12.1194   10.6411 C   0  0  0  0  0  0  0  0  0  0  0  0
   21.6587  -11.4065    9.3631 C   0  0  2  0  0  0  0  0  0  0  0  0
   22.2804  -10.1209    9.4684 N   0  0  0  0  0  0  0  0  0  0  0  0
   20.4070  -11.3906    8.5282 C   0  0  0  0  0  0  0  0  0  0  0  0
   19.5365  -10.5082    8.6675 O   0  0  0  0  0  0  0  0  0  0  0  0
   19.0281  -15.7578   12.8574 C   0  0  0  0  0  0  0  0  0  0  0  0
   18.1992  -12.4887    4.3037 C   0  0  2  0  0  0  0  0  0  0  0  0
   19.4118  -12.4743    5.2106 C   0  0  0  0  0  0  0  0  0  0  0  0
   20.2360  -11.2563    4.8006 C   0  0  1  0  0  0  0  0  0  0  0  0
   19.0081  -12.3378    6.6647 N   0  0  0  0  0  0  0  0  0  0  0  0
   20.1598  -12.3804    7.5426 C   0  0  0  0  0  0  0  0  0  0  0  0
   18.1049  -13.4326    7.0255 O   0  0  0  0  0  0  0  0  0  0  0  0
   18.5282  -14.5135    7.5311 O   0  0  0  0  0  0  0  0  0  0  0  0
  2  1  1  1
  2  3  1  0
  4  6  1  0
  4  2  1  0
  4  5  1  6
  6  7  2  0
  9 11  1  0
  9  8  1  0
 10  9  2  0
 12 11  1  0
 13 12  1  0
 15 14  1  1
 14 13  1  0
 16  6  1  0
 16 15  1  0
 17 15  1  0
 17 18  2  0
 20 19  1  6
 20 22  1  0
 21 20  1  0
 22 23  1  6
 22 24  1  0
 23 17  1  0
 24 26  1  0
 25 24  2  0
M  END
$$$$
