TRV.pdb
     RDKit          3D

 26 25  0  0  1  0  0  0  0  0999 V2000
   26.3027  -17.3110  -16.3274 C   0  0  0  0  0  0  0  0  0  0  0  0
   27.0372  -18.3205  -17.1837 C   0  0  1  0  0  0  0  0  0  0  0  0
   28.0783  -17.7656  -17.8974 O   0  0  0  0  0  0  0  0  0  0  0  0
   27.4779  -19.4498  -16.2997 C   0  0  2  0  0  0  0  0  0  0  0  0
   28.3613  -20.3804  -16.9261 N   0  0  0  0  0  0  0  0  0  0  0  0
   26.3085  -20.1386  -15.6645 C   0  0  0  0  0  0  0  0  0  0  0  0
   25.7413  -21.0709  -16.2771 O   0  0  0  0  0  0  0  0  0  0  0  0
   24.7091  -20.6735   -8.2862 N   0  0  0  0  0  0  0  0  0  0  0  0
   26.1027  -20.3477   -8.5430 C   0  0  0  0  0  0  0  0  0  0  0  0
   26.7536  -19.6623   -7.7127 N   0  0  0  0  0  0  0  0  0  0  0  0
   26.7194  -20.8101   -9.7319 N   0  0  0  0  0  0  0  0  0  0  0  0
   26.2898  -21.8671  -10.5643 C   0  0  0  0  0  0  0  0  0  0  0  0
   26.1124  -21.6069  -12.0200 C   0  0  0  0  0  0  0  0  0  0  0  0
   24.9285  -20.6561  -12.3023 C   0  0  0  0  0  0  0  0  0  0  0  0
   24.7227  -20.3532  -13.7312 C   0  0  2  0  0  0  0  0  0  0  0  0
   25.8415  -19.7522  -14.3928 N   0  0  0  0  0  0  0  0  0  0  0  0
   23.4284  -19.6283  -13.9831 C   0  0  0  0  0  0  0  0  0  0  0  0
   23.1139  -18.6052  -13.3427 O   0  0  0  0  0  0  0  0  0  0  0  0
   27.6946  -19.3471   -7.7514 C   0  0  0  0  0  0  0  0  0  0  0  0
   19.6853  -18.6425  -17.0444 C   0  0  2  0  0  0  0  0  0  0  0  0
   20.9267  -19.4507  -16.7297 C   0  0  0  0  0  0  0  0  0  0  0  0
   22.0569  -18.8319  -17.5486 C   0  0  1  0  0  0  0  0  0  0  0  0
   21.2750  -19.3707  -15.2572 N   0  0  0  0  0  0  0  0  0  0  0  0
   22.5055  -20.0765  -14.9627 C   0  0  0  0  0  0  0  0  0  0  0  0
   20.1948  -19.9651  -14.4670 O   0  0  0  0  0  0  0  0  0  0  0  0
   20.0911  -21.2166  -14.3057 O   0  0  0  0  0  0  0  0  0  0  0  0
  2  1  1  1
  2  3  1  0
  4  6  1  0
  4  2  1  0
  4  5  1  6
  6  7  2  0
  9 11  1  0
  9  8  1  0
 10  9  2  0
 12 11  1  0
 13 12  1  0
 15 14  1  1
 14 13  1  0
 16  6  1  0
 16 15  1  0
 17 15  1  0
 17 18  2  0
 20 19  1  6
 20 22  1  0
 21 20  1  0
 22 23  1  6
 22 24  1  0
 23 17  1  0
 24 26  1  0
 25 24  2  0
M  END
$$$$
