TMY.pdb
     RDKit          3D

 28 28  0  0  1  0  0  0  0  0999 V2000
    7.7599  -21.0678   20.7052 C   0  0  0  0  0  0  0  0  0  0  0  0
    8.3955  -19.7850   21.1875 C   0  0  1  0  0  0  0  0  0  0  0  0
    9.4986  -20.0257   21.9760 O   0  0  0  0  0  0  0  0  0  0  0  0
    8.6609  -18.8387   20.0482 C   0  0  2  0  0  0  0  0  0  0  0  0
    9.6291  -19.4123   19.1168 N   0  0  0  0  0  0  0  0  0  0  0  0
    9.2100  -17.5728   20.5675 C   0  0  0  0  0  0  0  0  0  0  0  0
   10.4241  -17.3235   20.3995 O   0  0  0  0  0  0  0  0  0  0  0  0
    6.2855  -11.4641   23.5378 C   0  0  0  0  0  0  0  0  0  0  0  0
    7.0965  -11.7878   21.9672 S   0  0  0  0  0  0  0  0  0  0  0  0
    8.5047  -12.9580   22.1846 C   0  0  0  0  0  0  0  0  0  0  0  0
    8.0019  -14.2744   21.6646 C   0  0  0  0  0  0  0  0  0  0  0  0
    8.9903  -15.3855   21.7500 C   0  0  2  0  0  0  0  0  0  0  0  0
    8.4149  -16.6259   21.2505 N   0  0  0  0  0  0  0  0  0  0  0  0
    9.5680  -15.5859   23.0996 C   0  0  0  0  0  0  0  0  0  0  0  0
   10.4317  -14.8407   23.6153 O   0  0  0  0  0  0  0  0  0  0  0  0
    6.2864  -11.6357   26.4097 O   0  0  0  0  0  0  0  0  0  0  0  0
    6.8765  -12.8887   26.3934 C   0  0  0  0  0  0  0  0  0  0  0  0
    8.1570  -13.0732   26.8664 C   0  0  0  0  0  0  0  0  0  0  0  0
    8.7284  -14.3416   26.8395 C   0  0  0  0  0  0  0  0  0  0  0  0
    8.0431  -15.4329   26.3476 C   0  0  0  0  0  0  0  0  0  0  0  0
    8.6636  -16.7677   26.3269 C   0  0  0  0  0  0  0  0  0  0  0  0
    9.7127  -16.9125   25.2471 C   0  0  2  0  0  0  0  0  0  0  0  0
    9.1552  -16.6912   23.9300 N   0  0  0  0  0  0  0  0  0  0  0  0
   10.4191  -18.2156   25.3221 C   0  0  0  0  0  0  0  0  0  0  0  0
   10.4709  -19.0355   24.3982 O   0  0  0  0  0  0  0  0  0  0  0  0
    6.7639  -15.2119   25.8824 C   0  0  0  0  0  0  0  0  0  0  0  0
    6.1755  -13.9630   25.8986 C   0  0  0  0  0  0  0  0  0  0  0  0
   11.0655  -18.5367   26.5085 O   0  0  0  0  0  0  0  0  0  0  0  0
  2  1  1  6
  2  4  1  0
  3  2  1  0
  4  6  1  0
  4  5  1  6
  6  7  2  0
  9  8  1  0
 10  9  1  0
 11 10  1  0
 12 11  1  1
 13 12  1  0
 13  6  1  0
 14 15  2  0
 14 12  1  0
 16 17  1  0
 17 27  2  0
 17 18  1  0
 18 19  2  0
 19 20  1  0
 20 21  1  0
 22 21  1  1
 22 23  1  0
 22 24  1  0
 23 14  1  0
 24 28  1  0
 25 24  2  0
 26 20  2  0
 27 26  1  0
M  END
$$$$
