TMY.pdb
     RDKit          3D

 28 28  0  0  1  0  0  0  0  0999 V2000
    9.0703  -14.4147   18.4044 C   0  0  0  0  0  0  0  0  0  0  0  0
    7.6558  -14.7847   18.7848 C   0  0  1  0  0  0  0  0  0  0  0  0
    6.8790  -15.0421   17.6772 O   0  0  0  0  0  0  0  0  0  0  0  0
    7.6306  -15.8851   19.8106 C   0  0  2  0  0  0  0  0  0  0  0  0
    6.2554  -16.2499   20.1414 N   0  0  0  0  0  0  0  0  0  0  0  0
    8.3008  -15.4342   21.0439 C   0  0  0  0  0  0  0  0  0  0  0  0
    9.5056  -15.1018   20.9934 O   0  0  0  0  0  0  0  0  0  0  0  0
    6.9572  -11.9002   26.6954 C   0  0  0  0  0  0  0  0  0  0  0  0
    5.7165  -12.7395   25.7028 S   0  0  0  0  0  0  0  0  0  0  0  0
    6.4452  -13.3568   24.1257 C   0  0  0  0  0  0  0  0  0  0  0  0
    7.3442  -14.4906   24.5287 C   0  0  0  0  0  0  0  0  0  0  0  0
    8.3219  -14.8999   23.4822 C   0  0  2  0  0  0  0  0  0  0  0  0
    7.6325  -15.3624   22.2863 N   0  0  0  0  0  0  0  0  0  0  0  0
    9.3135  -15.9044   23.9329 C   0  0  0  0  0  0  0  0  0  0  0  0
    9.2581  -17.1242   23.6564 O   0  0  0  0  0  0  0  0  0  0  0  0
    9.7912  -15.0261   31.2041 O   0  0  0  0  0  0  0  0  0  0  0  0
   10.4209  -15.2475   29.9904 C   0  0  0  0  0  0  0  0  0  0  0  0
   11.1187  -16.4123   29.7581 C   0  0  0  0  0  0  0  0  0  0  0  0
   11.7430  -16.6118   28.5308 C   0  0  0  0  0  0  0  0  0  0  0  0
   11.6835  -15.6672   27.5275 C   0  0  0  0  0  0  0  0  0  0  0  0
   12.3502  -15.8953   26.2350 C   0  0  0  0  0  0  0  0  0  0  0  0
   11.4271  -16.4861   25.1926 C   0  0  2  0  0  0  0  0  0  0  0  0
   10.4426  -15.5237   24.7464 N   0  0  0  0  0  0  0  0  0  0  0  0
   10.7836  -17.7397   25.6587 C   0  0  0  0  0  0  0  0  0  0  0  0
   11.3715  -18.8195   25.7885 O   0  0  0  0  0  0  0  0  0  0  0  0
   10.9767  -14.5135   27.7942 C   0  0  0  0  0  0  0  0  0  0  0  0
   10.3490  -14.2926   29.0038 C   0  0  0  0  0  0  0  0  0  0  0  0
    9.4308  -17.6985   25.9702 O   0  0  0  0  0  0  0  0  0  0  0  0
  2  1  1  6
  2  4  1  0
  3  2  1  0
  4  6  1  0
  4  5  1  1
  6  7  2  0
  9  8  1  0
 10  9  1  0
 11 10  1  0
 12 11  1  1
 13 12  1  0
 13  6  1  0
 14 15  2  0
 14 12  1  0
 16 17  1  0
 17 27  2  0
 17 18  1  0
 18 19  2  0
 19 20  1  0
 20 21  1  0
 22 21  1  1
 22 23  1  0
 22 24  1  0
 23 14  1  0
 24 28  1  0
 25 24  2  0
 26 20  2  0
 27 26  1  0
M  END
$$$$
