TMY.pdb
     RDKit          3D

 28 28  0  0  1  0  0  0  0  0999 V2000
    7.3821  -15.0578   17.4523 C   0  0  0  0  0  0  0  0  0  0  0  0
    8.0998  -14.9113   18.7736 C   0  0  1  0  0  0  0  0  0  0  0  0
    9.3808  -15.4136   18.7183 O   0  0  0  0  0  0  0  0  0  0  0  0
    8.0251  -13.4994   19.2880 C   0  0  2  0  0  0  0  0  0  0  0  0
    8.6791  -12.5782   18.3619 N   0  0  0  0  0  0  0  0  0  0  0  0
    8.7050  -13.4062   20.5930 C   0  0  0  0  0  0  0  0  0  0  0  0
    9.8799  -12.9792   20.6363 O   0  0  0  0  0  0  0  0  0  0  0  0
    5.3917  -12.2508   27.0349 C   0  0  0  0  0  0  0  0  0  0  0  0
    6.8346  -11.9019   26.0224 S   0  0  0  0  0  0  0  0  0  0  0  0
    7.1482  -13.2743   24.8317 C   0  0  0  0  0  0  0  0  0  0  0  0
    8.3219  -12.8194   24.0122 C   0  0  0  0  0  0  0  0  0  0  0  0
    8.8283  -13.8363   23.0487 C   0  0  2  0  0  0  0  0  0  0  0  0
    8.0787  -13.7822   21.8019 N   0  0  0  0  0  0  0  0  0  0  0  0
    8.8566  -15.2192   23.5797 C   0  0  0  0  0  0  0  0  0  0  0  0
    8.1720  -15.6170   24.5494 O   0  0  0  0  0  0  0  0  0  0  0  0
   12.7338  -14.7670   17.9327 O   0  0  0  0  0  0  0  0  0  0  0  0
   12.5835  -15.0677   19.2764 C   0  0  0  0  0  0  0  0  0  0  0  0
   12.8480  -14.1252   20.2456 C   0  0  0  0  0  0  0  0  0  0  0  0
   12.6896  -14.4510   21.5891 C   0  0  0  0  0  0  0  0  0  0  0  0
   12.2707  -15.7043   21.9844 C   0  0  0  0  0  0  0  0  0  0  0  0
   12.1087  -16.0313   23.4105 C   0  0  0  0  0  0  0  0  0  0  0  0
   10.8332  -16.7913   23.6990 C   0  0  2  0  0  0  0  0  0  0  0  0
    9.7050  -16.2264   22.9901 N   0  0  0  0  0  0  0  0  0  0  0  0
   10.5589  -16.8957   25.1539 C   0  0  0  0  0  0  0  0  0  0  0  0
    9.5471  -16.4500   25.7071 O   0  0  0  0  0  0  0  0  0  0  0  0
   12.0149  -16.6228   20.9881 C   0  0  0  0  0  0  0  0  0  0  0  0
   12.1647  -16.3233   19.6487 C   0  0  0  0  0  0  0  0  0  0  0  0
   11.5008  -17.5366   25.9480 O   0  0  0  0  0  0  0  0  0  0  0  0
  2  1  1  6
  2  4  1  0
  3  2  1  0
  4  6  1  0
  4  5  1  6
  6  7  2  0
  9  8  1  0
 10  9  1  0
 11 10  1  0
 12 11  1  1
 13 12  1  0
 13  6  1  0
 14 15  2  0
 14 12  1  0
 16 17  1  0
 17 27  2  0
 17 18  1  0
 18 19  2  0
 19 20  1  0
 20 21  1  0
 22 21  1  1
 22 23  1  0
 22 24  1  0
 23 14  1  0
 24 28  1  0
 25 24  2  0
 26 20  2  0
 27 26  1  0
M  END
$$$$
