TMY.pdb
     RDKit          3D

 28 28  0  0  1  0  0  0  0  0999 V2000
    7.3472  -14.9996   17.2898 C   0  0  0  0  0  0  0  0  0  0  0  0
    7.9777  -14.9167   18.6601 C   0  0  1  0  0  0  0  0  0  0  0  0
    9.3384  -15.1227   18.6105 O   0  0  0  0  0  0  0  0  0  0  0  0
    7.5827  -13.6521   19.3733 C   0  0  2  0  0  0  0  0  0  0  0  0
    8.1216  -12.4821   18.6844 N   0  0  0  0  0  0  0  0  0  0  0  0
    8.1143  -13.6669   20.7484 C   0  0  0  0  0  0  0  0  0  0  0  0
    9.3058  -13.3394   20.9421 O   0  0  0  0  0  0  0  0  0  0  0  0
    5.4518  -12.6607   26.6966 C   0  0  0  0  0  0  0  0  0  0  0  0
    7.1898  -12.9883   26.3784 S   0  0  0  0  0  0  0  0  0  0  0  0
    7.4133  -14.6431   25.5966 C   0  0  0  0  0  0  0  0  0  0  0  0
    6.8828  -14.4896   24.1998 C   0  0  0  0  0  0  0  0  0  0  0  0
    7.9306  -14.2492   23.1687 C   0  0  2  0  0  0  0  0  0  0  0  0
    7.3271  -14.0381   21.8609 N   0  0  0  0  0  0  0  0  0  0  0  0
    8.9706  -15.3023   23.0984 C   0  0  0  0  0  0  0  0  0  0  0  0
    9.8325  -15.3837   22.1942 O   0  0  0  0  0  0  0  0  0  0  0  0
   10.5076  -14.6567   30.4983 O   0  0  0  0  0  0  0  0  0  0  0  0
   10.6929  -14.9572   29.1590 C   0  0  0  0  0  0  0  0  0  0  0  0
   10.5701  -16.2505   28.7010 C   0  0  0  0  0  0  0  0  0  0  0  0
   10.7609  -16.5275   27.3509 C   0  0  0  0  0  0  0  0  0  0  0  0
   11.0732  -15.5342   26.4463 C   0  0  0  0  0  0  0  0  0  0  0  0
   11.2717  -15.8458   25.0213 C   0  0  0  0  0  0  0  0  0  0  0  0
   10.3203  -16.9058   24.5124 C   0  0  2  0  0  0  0  0  0  0  0  0
    9.0553  -16.3339   24.1036 N   0  0  0  0  0  0  0  0  0  0  0  0
   10.1248  -18.0022   25.4935 C   0  0  0  0  0  0  0  0  0  0  0  0
   11.0435  -18.6484   26.0101 O   0  0  0  0  0  0  0  0  0  0  0  0
   11.1883  -14.2514   26.9391 C   0  0  0  0  0  0  0  0  0  0  0  0
   11.0036  -13.9517   28.2741 C   0  0  0  0  0  0  0  0  0  0  0  0
    8.8237  -18.3248   25.8564 O   0  0  0  0  0  0  0  0  0  0  0  0
  2  1  1  6
  2  4  1  0
  3  2  1  0
  4  6  1  0
  4  5  1  6
  6  7  2  0
  9  8  1  0
 10  9  1  0
 11 10  1  0
 12 11  1  1
 13 12  1  0
 13  6  1  0
 14 15  2  0
 14 12  1  0
 16 17  1  0
 17 27  2  0
 17 18  1  0
 18 19  2  0
 19 20  1  0
 20 21  1  0
 22 21  1  1
 22 23  1  0
 22 24  1  0
 23 14  1  0
 24 28  1  0
 25 24  2  0
 26 20  2  0
 27 26  1  0
M  END
$$$$
