TMY.pdb
     RDKit          3D

 28 28  0  0  1  0  0  0  0  0999 V2000
    7.5380  -19.3985   19.8965 C   0  0  0  0  0  0  0  0  0  0  0  0
    8.1753  -18.3583   20.7876 C   0  0  1  0  0  0  0  0  0  0  0  0
    9.5057  -18.6283   21.0185 O   0  0  0  0  0  0  0  0  0  0  0  0
    7.9199  -16.9654   20.2790 C   0  0  2  0  0  0  0  0  0  0  0  0
    8.5922  -16.7525   18.9998 N   0  0  0  0  0  0  0  0  0  0  0  0
    8.4364  -15.9783   21.2448 C   0  0  0  0  0  0  0  0  0  0  0  0
    9.5302  -15.4174   21.0133 O   0  0  0  0  0  0  0  0  0  0  0  0
    6.2036  -11.0097   26.9725 C   0  0  0  0  0  0  0  0  0  0  0  0
    5.9260  -12.4122   25.8840 S   0  0  0  0  0  0  0  0  0  0  0  0
    7.4633  -12.8406   24.9605 C   0  0  0  0  0  0  0  0  0  0  0  0
    7.0824  -14.0003   24.0852 C   0  0  0  0  0  0  0  0  0  0  0  0
    8.2079  -14.5626   23.2879 C   0  0  2  0  0  0  0  0  0  0  0  0
    7.7411  -15.6394   22.4267 N   0  0  0  0  0  0  0  0  0  0  0  0
    9.3663  -15.0081   24.0972 C   0  0  0  0  0  0  0  0  0  0  0  0
    9.7591  -14.4385   25.1406 O   0  0  0  0  0  0  0  0  0  0  0  0
   10.5397  -14.1012   30.4127 O   0  0  0  0  0  0  0  0  0  0  0  0
   10.4674  -14.9163   29.2952 C   0  0  0  0  0  0  0  0  0  0  0  0
   10.9982  -16.1873   29.3118 C   0  0  0  0  0  0  0  0  0  0  0  0
   10.9134  -16.9875   28.1766 C   0  0  0  0  0  0  0  0  0  0  0  0
   10.3064  -16.5411   27.0213 C   0  0  0  0  0  0  0  0  0  0  0  0
   10.2258  -17.4016   25.8296 C   0  0  0  0  0  0  0  0  0  0  0  0
   11.0031  -16.8530   24.6538 C   0  0  2  0  0  0  0  0  0  0  0  0
   10.1387  -16.1662   23.7180 N   0  0  0  0  0  0  0  0  0  0  0  0
   11.8086  -17.8994   23.9763 C   0  0  0  0  0  0  0  0  0  0  0  0
   12.7387  -18.5170   24.5072 O   0  0  0  0  0  0  0  0  0  0  0  0
    9.7860  -15.2641   27.0400 C   0  0  0  0  0  0  0  0  0  0  0  0
    9.8579  -14.4515   28.1538 C   0  0  0  0  0  0  0  0  0  0  0  0
   11.4979  -18.2063   22.6580 O   0  0  0  0  0  0  0  0  0  0  0  0
  2  1  1  6
  2  4  1  0
  3  2  1  0
  4  6  1  0
  4  5  1  6
  6  7  2  0
  9  8  1  0
 10  9  1  0
 11 10  1  0
 12 11  1  1
 13 12  1  0
 13  6  1  0
 14 15  2  0
 14 12  1  0
 16 17  1  0
 17 27  2  0
 17 18  1  0
 18 19  2  0
 19 20  1  0
 20 21  1  0
 22 21  1  1
 22 23  1  0
 22 24  1  0
 23 14  1  0
 24 28  1  0
 25 24  2  0
 26 20  2  0
 27 26  1  0
M  END
$$$$
