TMY.pdb
     RDKit          3D

 28 28  0  0  1  0  0  0  0  0999 V2000
    7.0478  -18.2408   19.7946 C   0  0  0  0  0  0  0  0  0  0  0  0
    7.6790  -17.6926   21.0529 C   0  0  1  0  0  0  0  0  0  0  0  0
    8.9466  -18.1935   21.2494 O   0  0  0  0  0  0  0  0  0  0  0  0
    7.6089  -16.1902   21.0955 C   0  0  2  0  0  0  0  0  0  0  0  0
    8.3135  -15.6088   19.9556 N   0  0  0  0  0  0  0  0  0  0  0  0
    8.2396  -15.6952   22.3328 C   0  0  0  0  0  0  0  0  0  0  0  0
    8.8465  -14.6017   22.3093 O   0  0  0  0  0  0  0  0  0  0  0  0
    6.4635  -11.5784   27.8047 C   0  0  0  0  0  0  0  0  0  0  0  0
    6.4741  -12.4860   26.2538 S   0  0  0  0  0  0  0  0  0  0  0  0
    7.6240  -13.9245   26.3430 C   0  0  0  0  0  0  0  0  0  0  0  0
    7.5554  -14.5637   24.9856 C   0  0  0  0  0  0  0  0  0  0  0  0
    8.4425  -15.7488   24.8201 C   0  0  2  0  0  0  0  0  0  0  0  0
    8.1853  -16.4109   23.5494 N   0  0  0  0  0  0  0  0  0  0  0  0
    8.3768  -16.7209   25.9364 C   0  0  0  0  0  0  0  0  0  0  0  0
    7.5037  -16.7073   26.8335 O   0  0  0  0  0  0  0  0  0  0  0  0
   13.1063  -17.2987   21.1809 O   0  0  0  0  0  0  0  0  0  0  0  0
   12.7058  -17.1527   22.4987 C   0  0  0  0  0  0  0  0  0  0  0  0
   12.4844  -18.2537   23.2964 C   0  0  0  0  0  0  0  0  0  0  0  0
   12.0825  -18.0815   24.6173 C   0  0  0  0  0  0  0  0  0  0  0  0
   11.8967  -16.8266   25.1587 C   0  0  0  0  0  0  0  0  0  0  0  0
   11.4711  -16.6634   26.5584 C   0  0  0  0  0  0  0  0  0  0  0  0
   10.4567  -17.6990   26.9898 C   0  0  2  0  0  0  0  0  0  0  0  0
    9.3496  -17.7790   26.0611 N   0  0  0  0  0  0  0  0  0  0  0  0
    9.9814  -17.4750   28.3778 C   0  0  0  0  0  0  0  0  0  0  0  0
    8.7993  -17.2907   28.6896 O   0  0  0  0  0  0  0  0  0  0  0  0
   12.1273  -15.7471   24.3320 C   0  0  0  0  0  0  0  0  0  0  0  0
   12.5265  -15.8925   23.0184 C   0  0  0  0  0  0  0  0  0  0  0  0
   10.9265  -17.4718   29.3954 O   0  0  0  0  0  0  0  0  0  0  0  0
  2  1  1  6
  2  4  1  0
  3  2  1  0
  4  6  1  0
  4  5  1  6
  6  7  2  0
  9  8  1  0
 10  9  1  0
 11 10  1  0
 12 11  1  1
 13 12  1  0
 13  6  1  0
 14 15  2  0
 14 12  1  0
 16 17  1  0
 17 27  2  0
 17 18  1  0
 18 19  2  0
 19 20  1  0
 20 21  1  0
 22 21  1  6
 22 23  1  0
 22 24  1  0
 23 14  1  0
 24 28  1  0
 25 24  2  0
 26 20  2  0
 27 26  1  0
M  END
$$$$
