TMY.pdb
     RDKit          3D

 28 28  0  0  1  0  0  0  0  0999 V2000
    7.2061  -18.8895   19.4940 C   0  0  0  0  0  0  0  0  0  0  0  0
    7.8461  -17.9706   20.5081 C   0  0  1  0  0  0  0  0  0  0  0  0
    8.9513  -18.5461   21.0942 O   0  0  0  0  0  0  0  0  0  0  0  0
    8.1096  -16.6075   19.9280 C   0  0  2  0  0  0  0  0  0  0  0  0
    9.0894  -16.6878   18.8475 N   0  0  0  0  0  0  0  0  0  0  0  0
    8.6429  -15.7143   20.9728 C   0  0  0  0  0  0  0  0  0  0  0  0
    9.8797  -15.5457   21.0540 O   0  0  0  0  0  0  0  0  0  0  0  0
    4.8998  -12.5813   25.4757 C   0  0  0  0  0  0  0  0  0  0  0  0
    6.5972  -12.4449   26.0497 S   0  0  0  0  0  0  0  0  0  0  0  0
    7.7723  -12.4425   24.6289 C   0  0  0  0  0  0  0  0  0  0  0  0
    7.2919  -13.5404   23.7234 C   0  0  0  0  0  0  0  0  0  0  0  0
    8.3717  -14.2126   22.9482 C   0  0  2  0  0  0  0  0  0  0  0  0
    7.8080  -15.0383   21.8900 N   0  0  0  0  0  0  0  0  0  0  0  0
    9.3172  -14.9990   23.7745 C   0  0  0  0  0  0  0  0  0  0  0  0
   10.5317  -15.1470   23.5095 O   0  0  0  0  0  0  0  0  0  0  0  0
   12.3432  -17.0597   31.8285 O   0  0  0  0  0  0  0  0  0  0  0  0
   11.5818  -16.6692   30.7393 C   0  0  0  0  0  0  0  0  0  0  0  0
   10.8478  -17.5893   30.0236 C   0  0  0  0  0  0  0  0  0  0  0  0
   10.0906  -17.1729   28.9331 C   0  0  0  0  0  0  0  0  0  0  0  0
   10.0522  -15.8506   28.5424 C   0  0  0  0  0  0  0  0  0  0  0  0
    9.2454  -15.4280   27.3859 C   0  0  0  0  0  0  0  0  0  0  0  0
    9.7835  -15.9476   26.0713 C   0  0  2  0  0  0  0  0  0  0  0  0
    8.8794  -15.6653   24.9771 N   0  0  0  0  0  0  0  0  0  0  0  0
   10.1201  -17.3917   26.1342 C   0  0  0  0  0  0  0  0  0  0  0  0
   11.1304  -17.8497   26.6802 O   0  0  0  0  0  0  0  0  0  0  0  0
   10.7987  -14.9569   29.2813 C   0  0  0  0  0  0  0  0  0  0  0  0
   11.5576  -15.3459   30.3670 C   0  0  0  0  0  0  0  0  0  0  0  0
    9.2426  -18.2897   25.5407 O   0  0  0  0  0  0  0  0  0  0  0  0
  2  1  1  6
  2  4  1  0
  3  2  1  0
  4  6  1  0
  4  5  1  6
  6  7  2  0
  9  8  1  0
 10  9  1  0
 11 10  1  0
 12 11  1  1
 13 12  1  0
 13  6  1  0
 14 15  2  0
 14 12  1  0
 16 17  1  0
 17 27  2  0
 17 18  1  0
 18 19  2  0
 19 20  1  0
 20 21  1  0
 22 21  1  1
 22 23  1  0
 22 24  1  0
 23 14  1  0
 24 28  1  0
 25 24  2  0
 26 20  2  0
 27 26  1  0
M  END
$$$$
