TMY.pdb
     RDKit          3D

 28 28  0  0  1  0  0  0  0  0999 V2000
    8.0803  -18.8974   19.7072 C   0  0  0  0  0  0  0  0  0  0  0  0
    8.6031  -18.1316   20.8999 C   0  0  1  0  0  0  0  0  0  0  0  0
    9.7439  -18.7050   21.4159 O   0  0  0  0  0  0  0  0  0  0  0  0
    8.7481  -16.6657   20.5935 C   0  0  2  0  0  0  0  0  0  0  0  0
    9.7819  -16.4499   19.5842 N   0  0  0  0  0  0  0  0  0  0  0  0
    9.1326  -15.9354   21.8153 C   0  0  0  0  0  0  0  0  0  0  0  0
   10.3447  -15.8384   22.1084 O   0  0  0  0  0  0  0  0  0  0  0  0
    6.6564  -11.1192   27.5993 C   0  0  0  0  0  0  0  0  0  0  0  0
    6.3592  -12.1378   26.1491 S   0  0  0  0  0  0  0  0  0  0  0  0
    7.8428  -13.1558   25.7468 C   0  0  0  0  0  0  0  0  0  0  0  0
    7.4982  -13.8583   24.4648 C   0  0  0  0  0  0  0  0  0  0  0  0
    8.5858  -14.7226   23.9274 C   0  0  2  0  0  0  0  0  0  0  0  0
    8.1812  -15.3381   22.6717 N   0  0  0  0  0  0  0  0  0  0  0  0
    9.0747  -15.7495   24.8770 C   0  0  0  0  0  0  0  0  0  0  0  0
    8.6599  -16.9301   24.9149 O   0  0  0  0  0  0  0  0  0  0  0  0
   12.9521  -19.3293   21.5457 O   0  0  0  0  0  0  0  0  0  0  0  0
   12.7360  -18.6980   22.7595 C   0  0  0  0  0  0  0  0  0  0  0  0
   12.2348  -19.3927   23.8383 C   0  0  0  0  0  0  0  0  0  0  0  0
   12.0262  -18.7366   25.0474 C   0  0  0  0  0  0  0  0  0  0  0  0
   12.3096  -17.3954   25.2004 C   0  0  0  0  0  0  0  0  0  0  0  0
   12.0826  -16.7176   26.4872 C   0  0  0  0  0  0  0  0  0  0  0  0
   10.6205  -16.4381   26.7555 C   0  0  2  0  0  0  0  0  0  0  0  0
   10.0944  -15.4397   25.8495 N   0  0  0  0  0  0  0  0  0  0  0  0
   10.3704  -16.0678   28.1708 C   0  0  0  0  0  0  0  0  0  0  0  0
   10.7490  -16.7310   29.1430 O   0  0  0  0  0  0  0  0  0  0  0  0
   12.8100  -16.7313   24.1002 C   0  0  0  0  0  0  0  0  0  0  0  0
   13.0254  -17.3603   22.8903 C   0  0  0  0  0  0  0  0  0  0  0  0
    9.6640  -14.8987   28.4212 O   0  0  0  0  0  0  0  0  0  0  0  0
  2  1  1  6
  2  4  1  0
  3  2  1  0
  4  6  1  0
  4  5  1  6
  6  7  2  0
  9  8  1  0
 10  9  1  0
 11 10  1  0
 12 11  1  1
 13 12  1  0
 13  6  1  0
 14 15  2  0
 14 12  1  0
 16 17  1  0
 17 27  2  0
 17 18  1  0
 18 19  2  0
 19 20  1  0
 20 21  1  0
 22 21  1  1
 22 23  1  0
 22 24  1  0
 23 14  1  0
 24 28  1  0
 25 24  2  0
 26 20  2  0
 27 26  1  0
M  END
$$$$
