TMY.pdb
     RDKit          3D

 28 28  0  0  1  0  0  0  0  0999 V2000
    7.4790  -15.9055   17.7853 C   0  0  0  0  0  0  0  0  0  0  0  0
    8.0107  -15.5150   19.1444 C   0  0  1  0  0  0  0  0  0  0  0  0
    9.3850  -15.4287   19.1506 O   0  0  0  0  0  0  0  0  0  0  0  0
    7.3247  -14.2841   19.6719 C   0  0  2  0  0  0  0  0  0  0  0  0
    7.5365  -13.1513   18.7743 N   0  0  0  0  0  0  0  0  0  0  0  0
    7.8718  -13.9357   20.9960 C   0  0  0  0  0  0  0  0  0  0  0  0
    8.8833  -13.2028   21.0612 O   0  0  0  0  0  0  0  0  0  0  0  0
    5.7765  -10.5403   26.7774 C   0  0  0  0  0  0  0  0  0  0  0  0
    6.2538  -12.2451   26.4693 S   0  0  0  0  0  0  0  0  0  0  0  0
    6.4015  -12.5686   24.6602 C   0  0  0  0  0  0  0  0  0  0  0  0
    6.9335  -13.9694   24.5565 C   0  0  0  0  0  0  0  0  0  0  0  0
    7.9454  -14.1632   23.4807 C   0  0  2  0  0  0  0  0  0  0  0  0
    7.2958  -14.3995   22.1995 N   0  0  0  0  0  0  0  0  0  0  0  0
    8.9410  -15.2235   23.7631 C   0  0  0  0  0  0  0  0  0  0  0  0
    8.8454  -16.4060   23.3631 O   0  0  0  0  0  0  0  0  0  0  0  0
   11.0256  -17.2085   31.2967 O   0  0  0  0  0  0  0  0  0  0  0  0
   11.2717  -16.7937   29.9983 C   0  0  0  0  0  0  0  0  0  0  0  0
   11.8700  -17.6369   29.0881 C   0  0  0  0  0  0  0  0  0  0  0  0
   12.1069  -17.1974   27.7894 C   0  0  0  0  0  0  0  0  0  0  0  0
   11.7565  -15.9274   27.3809 C   0  0  0  0  0  0  0  0  0  0  0  0
   12.0149  -15.4793   26.0027 C   0  0  0  0  0  0  0  0  0  0  0  0
   10.9964  -16.0008   25.0134 C   0  0  2  0  0  0  0  0  0  0  0  0
   10.1224  -14.9473   24.5439 N   0  0  0  0  0  0  0  0  0  0  0  0
   10.2206  -17.1436   25.5565 C   0  0  0  0  0  0  0  0  0  0  0  0
   10.5575  -18.3285   25.4517 O   0  0  0  0  0  0  0  0  0  0  0  0
   11.1597  -15.1102   28.3177 C   0  0  0  0  0  0  0  0  0  0  0  0
   10.9144  -15.5234   29.6119 C   0  0  0  0  0  0  0  0  0  0  0  0
    9.0371  -16.8648   26.2275 O   0  0  0  0  0  0  0  0  0  0  0  0
  2  1  1  6
  2  4  1  0
  3  2  1  0
  4  6  1  0
  4  5  1  6
  6  7  2  0
  9  8  1  0
 10  9  1  0
 11 10  1  0
 12 11  1  1
 13 12  1  0
 13  6  1  0
 14 15  2  0
 14 12  1  0
 16 17  1  0
 17 27  2  0
 17 18  1  0
 18 19  2  0
 19 20  1  0
 20 21  1  0
 22 21  1  1
 22 23  1  0
 22 24  1  0
 23 14  1  0
 24 28  1  0
 25 24  2  0
 26 20  2  0
 27 26  1  0
M  END
$$$$
