CGE.pdb
     RDKit          3D

 20 19  0  0  1  0  0  0  0  0999 V2000
    9.0142  -15.2069   18.5368 N   0  0  0  0  0  0  0  0  0  0  0  0
    9.5371  -13.9124   18.1428 C   0  0  1  0  0  0  0  0  0  0  0  0
    8.3707  -12.9468   18.1492 C   0  0  0  0  0  0  0  0  0  0  0  0
    7.5890  -12.8242   19.7716 S   0  0  0  0  0  0  0  0  0  0  0  0
   10.6222  -13.4853   19.0400 C   0  0  0  0  0  0  0  0  0  0  0  0
   11.3269  -12.4855   18.8140 O   0  0  0  0  0  0  0  0  0  0  0  0
   10.8794  -14.2425   20.2136 N   0  0  0  0  0  0  0  0  0  0  0  0
   11.8297  -13.8068   21.1936 C   0  0  0  0  0  0  0  0  0  0  0  0
   12.9764  -14.7759   21.1996 C   0  0  0  0  0  0  0  0  0  0  0  0
   12.8910  -15.9083   20.6415 O   0  0  0  0  0  0  0  0  0  0  0  0
   14.1845  -14.4432   21.8326 N   0  0  0  0  0  0  0  0  0  0  0  0
   15.3037  -15.4065   21.8612 C   0  0  1  0  0  0  0  0  0  0  0  0
   16.5858  -14.6346   22.0194 C   0  0  0  0  0  0  0  0  0  0  0  0
   17.8279  -15.4843   22.0216 C   0  0  0  0  0  0  0  0  0  0  0  0
   19.0372  -14.6148   22.1832 C   0  0  0  0  0  0  0  0  0  0  0  0
   18.8957  -13.3649   22.2195 O   0  0  0  0  0  0  0  0  0  0  0  0
   15.0943  -16.3933   22.9433 C   0  0  0  0  0  0  0  0  0  0  0  0
   14.4935  -16.1143   23.9787 O   0  0  0  0  0  0  0  0  0  0  0  0
   20.2939  -15.1467   22.2926 O   0  0  0  0  0  0  0  0  0  0  0  0
   15.6076  -17.6905   22.7636 O   0  0  0  0  0  0  0  0  0  0  0  0
  2  3  1  0
  2  1  1  1
  4  3  1  0
  5  2  1  0
  5  6  2  0
  7  5  1  0
  8  7  1  0
  9  8  1  0
 10  9  2  0
 11  9  1  0
 12 13  1  1
 12 11  1  0
 13 14  1  0
 15 14  1  0
 15 19  1  0
 16 15  2  0
 17 20  1  0
 17 12  1  0
 18 17  2  0
M  END
$$$$
