CGE.pdb
     RDKit          3D

 20 19  0  0  1  0  0  0  0  0999 V2000
    8.4618  -14.6517   18.5931 N   0  0  0  0  0  0  0  0  0  0  0  0
    8.8806  -14.0438   19.8419 C   0  0  1  0  0  0  0  0  0  0  0  0
    8.7308  -12.5465   19.6739 C   0  0  0  0  0  0  0  0  0  0  0  0
    7.0138  -12.0522   19.4169 S   0  0  0  0  0  0  0  0  0  0  0  0
    8.0936  -14.5619   20.9719 C   0  0  0  0  0  0  0  0  0  0  0  0
    7.0357  -15.1980   20.8185 O   0  0  0  0  0  0  0  0  0  0  0  0
    8.5566  -14.3285   22.2940 N   0  0  0  0  0  0  0  0  0  0  0  0
    7.8228  -14.7855   23.4369 C   0  0  0  0  0  0  0  0  0  0  0  0
    8.5226  -15.9918   23.9930 C   0  0  0  0  0  0  0  0  0  0  0  0
    8.1319  -17.1661   23.7289 O   0  0  0  0  0  0  0  0  0  0  0  0
    9.6405  -15.8422   24.8291 N   0  0  0  0  0  0  0  0  0  0  0  0
   10.3252  -17.0286   25.3814 C   0  0  1  0  0  0  0  0  0  0  0  0
   11.7692  -16.9775   24.9609 C   0  0  0  0  0  0  0  0  0  0  0  0
   11.9863  -16.5749   23.5272 C   0  0  0  0  0  0  0  0  0  0  0  0
   13.4502  -16.5990   23.2094 C   0  0  0  0  0  0  0  0  0  0  0  0
   14.2283  -15.8337   23.8360 O   0  0  0  0  0  0  0  0  0  0  0  0
   10.1597  -17.0698   26.8509 C   0  0  0  0  0  0  0  0  0  0  0  0
   10.5594  -18.0130   27.5302 O   0  0  0  0  0  0  0  0  0  0  0  0
   13.9633  -17.4338   22.2533 O   0  0  0  0  0  0  0  0  0  0  0  0
    9.5206  -15.9832   27.4750 O   0  0  0  0  0  0  0  0  0  0  0  0
  2  3  1  0
  2  1  1  6
  4  3  1  0
  5  2  1  0
  5  6  2  0
  7  5  1  0
  8  7  1  0
  9  8  1  0
 10  9  2  0
 11  9  1  0
 12 13  1  1
 12 11  1  0
 13 14  1  0
 15 14  1  0
 15 19  1  0
 16 15  2  0
 17 20  1  0
 17 12  1  0
 18 17  2  0
M  END
$$$$
