CGE.pdb
     RDKit          3D

 20 19  0  0  1  0  0  0  0  0999 V2000
    6.2479  -22.3384   24.3037 N   0  0  0  0  0  0  0  0  0  0  0  0
    7.2609  -21.3448   24.6053 C   0  0  1  0  0  0  0  0  0  0  0  0
    6.8348  -20.0618   23.9233 C   0  0  0  0  0  0  0  0  0  0  0  0
    6.2754  -20.3369   22.2294 S   0  0  0  0  0  0  0  0  0  0  0  0
    7.4227  -21.1793   26.0583 C   0  0  0  0  0  0  0  0  0  0  0  0
    8.1789  -20.3270   26.5576 O   0  0  0  0  0  0  0  0  0  0  0  0
    6.6875  -22.0249   26.9307 N   0  0  0  0  0  0  0  0  0  0  0  0
    6.7614  -21.8793   28.3544 C   0  0  0  0  0  0  0  0  0  0  0  0
    7.8592  -22.7692   28.8614 C   0  0  0  0  0  0  0  0  0  0  0  0
    7.9967  -23.9562   28.4451 O   0  0  0  0  0  0  0  0  0  0  0  0
    8.7695  -22.2983   29.8209 N   0  0  0  0  0  0  0  0  0  0  0  0
    9.8803  -23.1557   30.2819 C   0  0  1  0  0  0  0  0  0  0  0  0
   11.0684  -22.2762   30.5642 C   0  0  0  0  0  0  0  0  0  0  0  0
   11.7410  -21.7253   29.3358 C   0  0  0  0  0  0  0  0  0  0  0  0
   12.8326  -20.7802   29.7358 C   0  0  0  0  0  0  0  0  0  0  0  0
   13.4723  -20.9937   30.7982 O   0  0  0  0  0  0  0  0  0  0  0  0
    9.4574  -23.9401   31.4627 C   0  0  0  0  0  0  0  0  0  0  0  0
   10.1933  -24.7647   32.0007 O   0  0  0  0  0  0  0  0  0  0  0  0
   13.1518  -19.6889   28.9735 O   0  0  0  0  0  0  0  0  0  0  0  0
    8.1652  -23.7214   31.9736 O   0  0  0  0  0  0  0  0  0  0  0  0
  2  3  1  0
  2  1  1  1
  4  3  1  0
  5  2  1  0
  5  6  2  0
  7  5  1  0
  8  7  1  0
  9  8  1  0
 10  9  2  0
 11  9  1  0
 12 13  1  1
 12 11  1  0
 13 14  1  0
 15 14  1  0
 15 19  1  0
 16 15  2  0
 17 20  1  0
 17 12  1  0
 18 17  2  0
M  END
$$$$
