CGE.pdb
     RDKit          3D

 20 19  0  0  1  0  0  0  0  0999 V2000
   10.3657  -15.3795   28.0256 N   0  0  0  0  0  0  0  0  0  0  0  0
    9.0839  -14.7403   27.7956 C   0  0  1  0  0  0  0  0  0  0  0  0
    9.2177  -13.3065   28.2637 C   0  0  0  0  0  0  0  0  0  0  0  0
   10.4594  -13.1198   29.5604 S   0  0  0  0  0  0  0  0  0  0  0  0
    8.6936  -14.8328   26.3801 C   0  0  0  0  0  0  0  0  0  0  0  0
    7.6503  -14.3215   25.9358 O   0  0  0  0  0  0  0  0  0  0  0  0
    9.5394  -15.5338   25.4801 N   0  0  0  0  0  0  0  0  0  0  0  0
    9.2846  -15.5497   24.0701 C   0  0  0  0  0  0  0  0  0  0  0  0
   10.3898  -16.3149   23.4015 C   0  0  0  0  0  0  0  0  0  0  0  0
   10.3802  -16.5432   22.1568 O   0  0  0  0  0  0  0  0  0  0  0  0
   11.4726  -16.8005   24.1516 N   0  0  0  0  0  0  0  0  0  0  0  0
   12.2515  -17.9614   23.6752 C   0  0  1  0  0  0  0  0  0  0  0  0
   13.7024  -17.5656   23.6221 C   0  0  0  0  0  0  0  0  0  0  0  0
   13.9592  -16.2252   22.9880 C   0  0  0  0  0  0  0  0  0  0  0  0
   15.4346  -15.9793   22.9011 C   0  0  0  0  0  0  0  0  0  0  0  0
   16.0871  -15.7738   23.9574 O   0  0  0  0  0  0  0  0  0  0  0  0
   12.0097  -19.1274   24.5530 C   0  0  0  0  0  0  0  0  0  0  0  0
   12.4558  -20.2442   24.2987 O   0  0  0  0  0  0  0  0  0  0  0  0
   16.0914  -15.9725   21.7000 O   0  0  0  0  0  0  0  0  0  0  0  0
   11.2406  -18.9324   25.7145 O   0  0  0  0  0  0  0  0  0  0  0  0
  2  3  1  0
  2  1  1  6
  4  3  1  0
  5  2  1  0
  5  6  2  0
  7  5  1  0
  8  7  1  0
  9  8  1  0
 10  9  2  0
 11  9  1  0
 12 13  1  1
 12 11  1  0
 13 14  1  0
 15 14  1  0
 15 19  1  0
 16 15  2  0
 17 20  1  0
 17 12  1  0
 18 17  2  0
M  END
$$$$
