CGE.pdb
     RDKit          3D

 20 19  0  0  1  0  0  0  0  0999 V2000
    7.7718  -13.7932   17.5742 N   0  0  0  0  0  0  0  0  0  0  0  0
    8.6162  -13.8257   18.7534 C   0  0  1  0  0  0  0  0  0  0  0  0
    7.8983  -13.0391   19.8298 C   0  0  0  0  0  0  0  0  0  0  0  0
    7.7070  -11.2974   19.3962 S   0  0  0  0  0  0  0  0  0  0  0  0
    8.8965  -15.2103   19.1647 C   0  0  0  0  0  0  0  0  0  0  0  0
    8.3419  -16.1925   18.6404 O   0  0  0  0  0  0  0  0  0  0  0  0
    9.8382  -15.4398   20.2026 N   0  0  0  0  0  0  0  0  0  0  0  0
   10.3267  -16.7550   20.4943 C   0  0  0  0  0  0  0  0  0  0  0  0
   11.3285  -16.6479   21.6074 C   0  0  0  0  0  0  0  0  0  0  0  0
   12.1841  -15.7162   21.6428 O   0  0  0  0  0  0  0  0  0  0  0  0
   11.3388  -17.5912   22.6473 N   0  0  0  0  0  0  0  0  0  0  0  0
   12.3347  -17.4954   23.7338 C   0  0  1  0  0  0  0  0  0  0  0  0
   11.9072  -18.4135   24.8469 C   0  0  0  0  0  0  0  0  0  0  0  0
   12.8310  -18.4239   26.0348 C   0  0  0  0  0  0  0  0  0  0  0  0
   12.3335  -19.4009   27.0559 C   0  0  0  0  0  0  0  0  0  0  0  0
   11.2791  -20.0481   26.8255 O   0  0  0  0  0  0  0  0  0  0  0  0
   13.6822  -17.8165   23.2147 C   0  0  0  0  0  0  0  0  0  0  0  0
   14.7089  -17.4654   23.7922 O   0  0  0  0  0  0  0  0  0  0  0  0
   12.9981  -19.6076   28.2348 O   0  0  0  0  0  0  0  0  0  0  0  0
   13.7722  -18.5497   22.0176 O   0  0  0  0  0  0  0  0  0  0  0  0
  2  3  1  0
  2  1  1  6
  4  3  1  0
  5  2  1  0
  5  6  2  0
  7  5  1  0
  8  7  1  0
  9  8  1  0
 10  9  2  0
 11  9  1  0
 12 13  1  1
 12 11  1  0
 13 14  1  0
 15 14  1  0
 15 19  1  0
 16 15  2  0
 17 20  1  0
 17 12  1  0
 18 17  2  0
M  END
$$$$
