CGE.pdb
     RDKit          3D

 20 19  0  0  1  0  0  0  0  0999 V2000
    6.0134  -13.8448   26.8642 N   0  0  0  0  0  0  0  0  0  0  0  0
    5.7310  -13.1369   25.6298 C   0  0  1  0  0  0  0  0  0  0  0  0
    5.8080  -11.6577   25.9441 C   0  0  0  0  0  0  0  0  0  0  0  0
    7.4061  -11.1845   26.6371 S   0  0  0  0  0  0  0  0  0  0  0  0
    6.6684  -13.5329   24.5671 C   0  0  0  0  0  0  0  0  0  0  0  0
    6.4952  -13.2333   23.3723 O   0  0  0  0  0  0  0  0  0  0  0  0
    7.8195  -14.2883   24.9148 N   0  0  0  0  0  0  0  0  0  0  0  0
    8.7621  -14.7172   23.9243 C   0  0  0  0  0  0  0  0  0  0  0  0
    9.9269  -15.3517   24.6278 C   0  0  0  0  0  0  0  0  0  0  0  0
   10.5212  -14.7720   25.5828 O   0  0  0  0  0  0  0  0  0  0  0  0
   10.3888  -16.6185   24.2368 N   0  0  0  0  0  0  0  0  0  0  0  0
   11.5691  -17.2187   24.8910 C   0  0  1  0  0  0  0  0  0  0  0  0
   11.1969  -18.5996   25.3592 C   0  0  0  0  0  0  0  0  0  0  0  0
   12.2341  -19.2647   26.2232 C   0  0  0  0  0  0  0  0  0  0  0  0
   11.6292  -19.6458   27.5399 C   0  0  0  0  0  0  0  0  0  0  0  0
   10.4195  -19.9895   27.5845 O   0  0  0  0  0  0  0  0  0  0  0  0
   12.7173  -17.2224   23.9582 C   0  0  0  0  0  0  0  0  0  0  0  0
   12.5729  -17.1557   22.7394 O   0  0  0  0  0  0  0  0  0  0  0  0
   12.3605  -19.6293   28.6970 O   0  0  0  0  0  0  0  0  0  0  0  0
   14.0115  -17.3056   24.5030 O   0  0  0  0  0  0  0  0  0  0  0  0
  2  3  1  0
  2  1  1  1
  4  3  1  0
  5  2  1  0
  5  6  2  0
  7  5  1  0
  8  7  1  0
  9  8  1  0
 10  9  2  0
 11  9  1  0
 12 13  1  6
 12 11  1  0
 13 14  1  0
 15 14  1  0
 15 19  1  0
 16 15  2  0
 17 20  1  0
 17 12  1  0
 18 17  2  0
M  END
$$$$
