CGE.pdb
     RDKit          3D

 20 19  0  0  1  0  0  0  0  0999 V2000
    2.3019  -22.7300   21.4538 N   0  0  0  0  0  0  0  0  0  0  0  0
    3.0231  -21.6609   20.7894 C   0  0  1  0  0  0  0  0  0  0  0  0
    1.9844  -20.7200   20.2162 C   0  0  0  0  0  0  0  0  0  0  0  0
    0.9286  -20.0022   21.4922 S   0  0  0  0  0  0  0  0  0  0  0  0
    3.9392  -20.9833   21.7202 C   0  0  0  0  0  0  0  0  0  0  0  0
    4.7444  -20.1089   21.3536 O   0  0  0  0  0  0  0  0  0  0  0  0
    3.9065  -21.3387   23.0948 N   0  0  0  0  0  0  0  0  0  0  0  0
    4.7622  -20.7048   24.0536 C   0  0  0  0  0  0  0  0  0  0  0  0
    5.9753  -21.5687   24.2443 C   0  0  0  0  0  0  0  0  0  0  0  0
    6.7214  -21.8885   23.2735 O   0  0  0  0  0  0  0  0  0  0  0  0
    6.3134  -22.0472   25.5201 N   0  0  0  0  0  0  0  0  0  0  0  0
    7.5443  -22.8386   25.7198 C   0  0  1  0  0  0  0  0  0  0  0  0
    8.7216  -21.9840   25.3349 C   0  0  0  0  0  0  0  0  0  0  0  0
    9.1067  -20.9550   26.3633 C   0  0  0  0  0  0  0  0  0  0  0  0
   10.5450  -20.5746   26.1866 C   0  0  0  0  0  0  0  0  0  0  0  0
   10.9054  -20.0095   25.1215 O   0  0  0  0  0  0  0  0  0  0  0  0
    7.6179  -23.3152   27.1184 C   0  0  0  0  0  0  0  0  0  0  0  0
    8.4754  -24.1107   27.4964 O   0  0  0  0  0  0  0  0  0  0  0  0
   11.4782  -20.8266   27.1560 O   0  0  0  0  0  0  0  0  0  0  0  0
    6.6656  -22.8305   28.0331 O   0  0  0  0  0  0  0  0  0  0  0  0
  2  3  1  0
  2  1  1  1
  4  3  1  0
  5  2  1  0
  5  6  2  0
  7  5  1  0
  8  7  1  0
  9  8  1  0
 10  9  2  0
 11  9  1  0
 12 13  1  1
 12 11  1  0
 13 14  1  0
 15 14  1  0
 15 19  1  0
 16 15  2  0
 17 20  1  0
 17 12  1  0
 18 17  2  0
M  END
$$$$
