CGE.pdb
     RDKit          3D

 20 19  0  0  1  0  0  0  0  0999 V2000
    7.2101  -13.3066   20.5468 N   0  0  0  0  0  0  0  0  0  0  0  0
    7.5353  -13.9373   19.2815 C   0  0  1  0  0  0  0  0  0  0  0  0
    8.6811  -13.1509   18.6802 C   0  0  0  0  0  0  0  0  0  0  0  0
    8.6269  -11.4039   19.1309 S   0  0  0  0  0  0  0  0  0  0  0  0
    7.8691  -15.3578   19.4693 C   0  0  0  0  0  0  0  0  0  0  0  0
    8.1363  -16.1166   18.5205 O   0  0  0  0  0  0  0  0  0  0  0  0
    7.8883  -15.8893   20.7861 N   0  0  0  0  0  0  0  0  0  0  0  0
    8.0960  -17.2864   21.0278 C   0  0  0  0  0  0  0  0  0  0  0  0
    9.4606  -17.4614   21.6289 C   0  0  0  0  0  0  0  0  0  0  0  0
    9.8487  -18.5782   22.0799 O   0  0  0  0  0  0  0  0  0  0  0  0
   10.3480  -16.3762   21.7052 N   0  0  0  0  0  0  0  0  0  0  0  0
   11.7473  -16.5830   22.1301 C   0  0  1  0  0  0  0  0  0  0  0  0
   12.6424  -15.8203   21.1912 C   0  0  0  0  0  0  0  0  0  0  0  0
   14.0914  -15.7934   21.5966 C   0  0  0  0  0  0  0  0  0  0  0  0
   14.8856  -15.0181   20.5901 C   0  0  0  0  0  0  0  0  0  0  0  0
   14.2810  -14.3684   19.6979 O   0  0  0  0  0  0  0  0  0  0  0  0
   11.9141  -16.1687   23.5405 C   0  0  0  0  0  0  0  0  0  0  0  0
   12.9666  -16.3348   24.1532 O   0  0  0  0  0  0  0  0  0  0  0  0
   16.2542  -14.9987   20.6169 O   0  0  0  0  0  0  0  0  0  0  0  0
   10.8197  -15.5656   24.1863 O   0  0  0  0  0  0  0  0  0  0  0  0
  2  3  1  0
  2  1  1  1
  4  3  1  0
  5  2  1  0
  5  6  2  0
  7  5  1  0
  8  7  1  0
  9  8  1  0
 10  9  2  0
 11  9  1  0
 12 13  1  6
 12 11  1  0
 13 14  1  0
 15 14  1  0
 15 19  1  0
 16 15  2  0
 17 20  1  0
 17 12  1  0
 18 17  2  0
M  END
$$$$
