CGE.pdb
     RDKit          3D

 20 19  0  0  1  0  0  0  0  0999 V2000
    6.3936  -14.5564   19.9310 N   0  0  0  0  0  0  0  0  0  0  0  0
    7.8403  -14.6164   19.8407 C   0  0  1  0  0  0  0  0  0  0  0  0
    8.3518  -13.2050   20.0381 C   0  0  0  0  0  0  0  0  0  0  0  0
    7.6623  -12.0495   18.8349 S   0  0  0  0  0  0  0  0  0  0  0  0
    8.3930  -15.5555   20.8293 C   0  0  0  0  0  0  0  0  0  0  0  0
    7.8644  -15.7526   21.9379 O   0  0  0  0  0  0  0  0  0  0  0  0
    9.5787  -16.2686   20.5093 N   0  0  0  0  0  0  0  0  0  0  0  0
   10.1547  -17.2128   21.4204 C   0  0  0  0  0  0  0  0  0  0  0  0
   11.1888  -16.5006   22.2436 C   0  0  0  0  0  0  0  0  0  0  0  0
   11.5358  -15.3107   21.9886 O   0  0  0  0  0  0  0  0  0  0  0  0
   11.8018  -17.1471   23.3287 N   0  0  0  0  0  0  0  0  0  0  0  0
   12.8825  -16.4802   24.0829 C   0  0  1  0  0  0  0  0  0  0  0  0
   13.0656  -17.2085   25.3870 C   0  0  0  0  0  0  0  0  0  0  0  0
   11.8275  -17.2800   26.2394 C   0  0  0  0  0  0  0  0  0  0  0  0
   12.0749  -18.1683   27.4202 C   0  0  0  0  0  0  0  0  0  0  0  0
   13.1738  -18.7743   27.5144 O   0  0  0  0  0  0  0  0  0  0  0  0
   14.1184  -16.4442   23.2708 C   0  0  0  0  0  0  0  0  0  0  0  0
   15.0722  -15.7242   23.5586 O   0  0  0  0  0  0  0  0  0  0  0  0
   11.1344  -18.3376   28.4004 O   0  0  0  0  0  0  0  0  0  0  0  0
   14.1865  -17.2691   22.1334 O   0  0  0  0  0  0  0  0  0  0  0  0
  2  3  1  0
  2  1  1  1
  4  3  1  0
  5  2  1  0
  5  6  2  0
  7  5  1  0
  8  7  1  0
  9  8  1  0
 10  9  2  0
 11  9  1  0
 12 13  1  1
 12 11  1  0
 13 14  1  0
 15 14  1  0
 15 19  1  0
 16 15  2  0
 17 20  1  0
 17 12  1  0
 18 17  2  0
M  END
$$$$
