CGE.pdb
     RDKit          3D

 20 19  0  0  1  0  0  0  0  0999 V2000
    5.9541  -14.0742   26.4676 N   0  0  0  0  0  0  0  0  0  0  0  0
    6.8940  -13.4660   25.5450 C   0  0  1  0  0  0  0  0  0  0  0  0
    8.2264  -13.3914   26.2605 C   0  0  0  0  0  0  0  0  0  0  0  0
    8.1787  -12.2888   27.6889 S   0  0  0  0  0  0  0  0  0  0  0  0
    6.9741  -14.2315   24.2911 C   0  0  0  0  0  0  0  0  0  0  0  0
    6.6129  -15.4186   24.2041 O   0  0  0  0  0  0  0  0  0  0  0  0
    7.4841  -13.5931   23.1295 N   0  0  0  0  0  0  0  0  0  0  0  0
    7.4953  -14.2507   21.8564 C   0  0  0  0  0  0  0  0  0  0  0  0
    8.6172  -15.2485   21.8528 C   0  0  0  0  0  0  0  0  0  0  0  0
    8.8823  -15.9452   20.8303 O   0  0  0  0  0  0  0  0  0  0  0  0
    9.4073  -15.4335   22.9985 N   0  0  0  0  0  0  0  0  0  0  0  0
   10.4470  -16.4821   23.0285 C   0  0  1  0  0  0  0  0  0  0  0  0
   11.7824  -15.8160   23.2228 C   0  0  0  0  0  0  0  0  0  0  0  0
   12.9319  -16.7689   23.4102 C   0  0  0  0  0  0  0  0  0  0  0  0
   14.2236  -16.0099   23.4208 C   0  0  0  0  0  0  0  0  0  0  0  0
   14.3213  -14.9719   24.1257 O   0  0  0  0  0  0  0  0  0  0  0  0
   10.1410  -17.4676   24.0885 C   0  0  0  0  0  0  0  0  0  0  0  0
    9.4328  -17.1935   25.0550 O   0  0  0  0  0  0  0  0  0  0  0  0
   15.3016  -16.4176   22.6820 O   0  0  0  0  0  0  0  0  0  0  0  0
   10.6883  -18.7580   23.9695 O   0  0  0  0  0  0  0  0  0  0  0  0
  2  3  1  0
  2  1  1  1
  4  3  1  0
  5  2  1  0
  5  6  2  0
  7  5  1  0
  8  7  1  0
  9  8  1  0
 10  9  2  0
 11  9  1  0
 12 13  1  1
 12 11  1  0
 13 14  1  0
 15 14  1  0
 15 19  1  0
 16 15  2  0
 17 20  1  0
 17 12  1  0
 18 17  2  0
M  END
$$$$
