CGE.pdb
     RDKit          3D

 20 19  0  0  1  0  0  0  0  0999 V2000
    7.6936  -16.8544   21.2757 N   0  0  0  0  0  0  0  0  0  0  0  0
    8.4568  -15.7447   21.8148 C   0  0  1  0  0  0  0  0  0  0  0  0
    8.0264  -14.5063   21.0572 C   0  0  0  0  0  0  0  0  0  0  0  0
    6.2597  -14.1770   21.2254 S   0  0  0  0  0  0  0  0  0  0  0  0
    8.2475  -15.6145   23.2653 C   0  0  0  0  0  0  0  0  0  0  0  0
    8.9220  -14.8477   23.9755 O   0  0  0  0  0  0  0  0  0  0  0  0
    7.2349  -16.3942   23.8846 N   0  0  0  0  0  0  0  0  0  0  0  0
    6.9174  -16.2439   25.2738 C   0  0  0  0  0  0  0  0  0  0  0  0
    7.3239  -17.5007   25.9874 C   0  0  0  0  0  0  0  0  0  0  0  0
    6.7900  -18.6168   25.7219 O   0  0  0  0  0  0  0  0  0  0  0  0
    8.3183  -17.4654   26.9779 N   0  0  0  0  0  0  0  0  0  0  0  0
    9.1187  -18.6701   27.2770 C   0  0  1  0  0  0  0  0  0  0  0  0
    9.8460  -19.0758   26.0236 C   0  0  0  0  0  0  0  0  0  0  0  0
   10.7505  -20.2674   26.1866 C   0  0  0  0  0  0  0  0  0  0  0  0
   11.9535  -20.1155   25.3066 C   0  0  0  0  0  0  0  0  0  0  0  0
   11.9096  -19.3134   24.3379 O   0  0  0  0  0  0  0  0  0  0  0  0
   10.0349  -18.4010   28.4069 C   0  0  0  0  0  0  0  0  0  0  0  0
   10.4714  -19.2975   29.1257 O   0  0  0  0  0  0  0  0  0  0  0  0
   13.1007  -20.8282   25.5303 O   0  0  0  0  0  0  0  0  0  0  0  0
   10.4085  -17.0672   28.6520 O   0  0  0  0  0  0  0  0  0  0  0  0
  2  3  1  0
  2  1  1  6
  4  3  1  0
  5  2  1  0
  5  6  2  0
  7  5  1  0
  8  7  1  0
  9  8  1  0
 10  9  2  0
 11  9  1  0
 12 13  1  6
 12 11  1  0
 13 14  1  0
 15 14  1  0
 15 19  1  0
 16 15  2  0
 17 20  1  0
 17 12  1  0
 18 17  2  0
M  END
$$$$
