GTC.pdb
     RDKit          3D

 18 17  0  0  1  0  0  0  0  0999 V2000
   19.5534  -12.6631  -17.7336 N   0  0  0  0  0  0  0  0  0  0  0  0
   19.6814  -11.3264  -18.2727 C   0  0  0  0  0  0  0  0  0  0  0  0
   20.7142  -10.6044  -17.5233 C   0  0  0  0  0  0  0  0  0  0  0  0
   21.2167  -11.1339  -16.4978 O   0  0  0  0  0  0  0  0  0  0  0  0
   24.0402   -7.0311  -17.1730 C   0  0  0  0  0  0  0  0  0  0  0  0
   23.0126   -7.7920  -17.9770 C   0  0  1  0  0  0  0  0  0  0  0  0
   23.6230   -8.6101  -18.8934 O   0  0  0  0  0  0  0  0  0  0  0  0
   22.0916   -8.5921  -17.0781 C   0  0  2  0  0  0  0  0  0  0  0  0
   21.1523   -9.3346  -17.9284 N   0  0  0  0  0  0  0  0  0  0  0  0
   21.3440   -7.7184  -16.1369 C   0  0  0  0  0  0  0  0  0  0  0  0
   20.4183   -6.9447  -16.5466 O   0  0  0  0  0  0  0  0  0  0  0  0
   21.6315   -7.7153  -14.7593 N   0  0  0  0  0  0  0  0  0  0  0  0
   20.9342   -6.8588  -13.8173 C   0  0  1  0  0  0  0  0  0  0  0  0
   20.7680   -7.4924  -12.4722 C   0  0  0  0  0  0  0  0  0  0  0  0
   19.7417   -8.9764  -12.6804 S   0  0  0  0  0  0  0  0  0  0  0  0
   21.6202   -5.5575  -13.6405 C   0  0  0  0  0  0  0  0  0  0  0  0
   21.0116   -4.6794  -12.9764 O   0  0  0  0  0  0  0  0  0  0  0  0
   22.8600   -5.2520  -14.1474 O   0  0  0  0  0  0  0  0  0  0  0  0
  2  1  1  0
  3  2  1  0
  4  3  2  0
  6  5  1  1
  6  7  1  0
  6  8  1  0
  8  9  1  6
  9  3  1  0
 10  8  1  0
 10 12  1  0
 11 10  2  0
 13 14  1  1
 13 12  1  0
 13 16  1  0
 14 15  1  0
 16 18  1  0
 17 16  2  0
M  END
$$$$
