GTC.pdb
     RDKit          3D

 18 17  0  0  1  0  0  0  0  0999 V2000
   16.9294  -12.6070  -16.3663 N   0  0  0  0  0  0  0  0  0  0  0  0
   17.0313  -11.1637  -16.3869 C   0  0  0  0  0  0  0  0  0  0  0  0
   18.3122  -10.7653  -15.7951 C   0  0  0  0  0  0  0  0  0  0  0  0
   18.5563  -11.0597  -14.5959 O   0  0  0  0  0  0  0  0  0  0  0  0
   21.7796  -11.6146  -16.7669 C   0  0  0  0  0  0  0  0  0  0  0  0
   21.6774  -10.1076  -16.7532 C   0  0  1  0  0  0  0  0  0  0  0  0
   21.5591   -9.6183  -18.0293 O   0  0  0  0  0  0  0  0  0  0  0  0
   20.5195   -9.6416  -15.8939 C   0  0  2  0  0  0  0  0  0  0  0  0
   19.2701  -10.0621  -16.5410 N   0  0  0  0  0  0  0  0  0  0  0  0
   20.5266   -8.1668  -15.7119 C   0  0  0  0  0  0  0  0  0  0  0  0
   19.7004   -7.4203  -16.3310 O   0  0  0  0  0  0  0  0  0  0  0  0
   21.4459   -7.5426  -14.8483 N   0  0  0  0  0  0  0  0  0  0  0  0
   21.5379   -6.0999  -14.7155 C   0  0  1  0  0  0  0  0  0  0  0  0
   21.3329   -5.6340  -13.3086 C   0  0  0  0  0  0  0  0  0  0  0  0
   21.5825   -3.8352  -13.2774 S   0  0  0  0  0  0  0  0  0  0  0  0
   22.8405   -5.5823  -15.1952 C   0  0  0  0  0  0  0  0  0  0  0  0
   23.8197   -6.3703  -15.1427 O   0  0  0  0  0  0  0  0  0  0  0  0
   23.0457   -4.3158  -15.6865 O   0  0  0  0  0  0  0  0  0  0  0  0
  2  1  1  0
  3  2  1  0
  4  3  2  0
  6  5  1  6
  6  7  1  0
  6  8  1  0
  8  9  1  6
  9  3  1  0
 10  8  1  0
 10 12  1  0
 11 10  2  0
 13 14  1  1
 13 12  1  0
 13 16  1  0
 14 15  1  0
 16 18  1  0
 17 16  2  0
M  END
$$$$
