GTC.pdb
     RDKit          3D

 18 17  0  0  1  0  0  0  0  0999 V2000
   16.4346  -15.5886  -15.3753 N   0  0  0  0  0  0  0  0  0  0  0  0
   16.4131  -14.4433  -16.2594 C   0  0  0  0  0  0  0  0  0  0  0  0
   17.2958  -13.4046  -15.7194 C   0  0  0  0  0  0  0  0  0  0  0  0
   17.5387  -13.3815  -14.4846 O   0  0  0  0  0  0  0  0  0  0  0  0
   20.7670  -12.5578  -16.5100 C   0  0  0  0  0  0  0  0  0  0  0  0
   19.9896  -11.2725  -16.6690 C   0  0  1  0  0  0  0  0  0  0  0  0
   19.8135  -10.9737  -17.9963 O   0  0  0  0  0  0  0  0  0  0  0  0
   18.6540  -11.3445  -15.9569 C   0  0  2  0  0  0  0  0  0  0  0  0
   17.8743  -12.4364  -16.5539 N   0  0  0  0  0  0  0  0  0  0  0  0
   17.9031  -10.0666  -16.0627 C   0  0  0  0  0  0  0  0  0  0  0  0
   16.7614  -10.0153  -16.6258 O   0  0  0  0  0  0  0  0  0  0  0  0
   18.4264   -8.8677  -15.5436 N   0  0  0  0  0  0  0  0  0  0  0  0
   17.7092   -7.6075  -15.6125 C   0  0  1  0  0  0  0  0  0  0  0  0
   16.4592   -7.6071  -14.7902 C   0  0  0  0  0  0  0  0  0  0  0  0
   15.7432   -5.9397  -14.8690 S   0  0  0  0  0  0  0  0  0  0  0  0
   18.5522   -6.4672  -15.1837 C   0  0  0  0  0  0  0  0  0  0  0  0
   19.2983   -6.6542  -14.1883 O   0  0  0  0  0  0  0  0  0  0  0  0
   18.5719   -5.2364  -15.7939 O   0  0  0  0  0  0  0  0  0  0  0  0
  2  1  1  0
  3  2  1  0
  4  3  2  0
  6  5  1  6
  6  7  1  0
  6  8  1  0
  8  9  1  6
  9  3  1  0
 10  8  1  0
 10 12  1  0
 11 10  2  0
 13 14  1  1
 13 12  1  0
 13 16  1  0
 14 15  1  0
 16 18  1  0
 17 16  2  0
M  END
$$$$
