GTC.pdb
     RDKit          3D

 18 17  0  0  1  0  0  0  0  0999 V2000
   18.6907  -21.2853  -12.8992 N   0  0  0  0  0  0  0  0  0  0  0  0
   19.6896  -20.2614  -13.1167 C   0  0  0  0  0  0  0  0  0  0  0  0
   21.0181  -20.8257  -12.8593 C   0  0  0  0  0  0  0  0  0  0  0  0
   21.2680  -21.3273  -11.7322 O   0  0  0  0  0  0  0  0  0  0  0  0
   22.5466  -23.7389  -13.9578 C   0  0  0  0  0  0  0  0  0  0  0  0
   23.4953  -22.6476  -14.3940 C   0  0  1  0  0  0  0  0  0  0  0  0
   23.3198  -22.3553  -15.7228 O   0  0  0  0  0  0  0  0  0  0  0  0
   23.3288  -21.4018  -13.5475 C   0  0  2  0  0  0  0  0  0  0  0  0
   22.0154  -20.8167  -13.8461 N   0  0  0  0  0  0  0  0  0  0  0  0
   24.4006  -20.4074  -13.8131 C   0  0  0  0  0  0  0  0  0  0  0  0
   24.1449  -19.2950  -14.3792 O   0  0  0  0  0  0  0  0  0  0  0  0
   25.7363  -20.6590  -13.4479 N   0  0  0  0  0  0  0  0  0  0  0  0
   26.8053  -19.7073  -13.6903 C   0  0  1  0  0  0  0  0  0  0  0  0
   27.8719  -19.7557  -12.6422 C   0  0  0  0  0  0  0  0  0  0  0  0
   28.2657  -21.5012  -12.3308 S   0  0  0  0  0  0  0  0  0  0  0  0
   27.4392  -19.9128  -15.0135 C   0  0  0  0  0  0  0  0  0  0  0  0
   27.1937  -20.9988  -15.5991 O   0  0  0  0  0  0  0  0  0  0  0  0
   28.2658  -19.0074  -15.6335 O   0  0  0  0  0  0  0  0  0  0  0  0
  2  1  1  0
  3  2  1  0
  4  3  2  0
  6  5  1  1
  6  7  1  0
  6  8  1  0
  8  9  1  6
  9  3  1  0
 10  8  1  0
 10 12  1  0
 11 10  2  0
 13 14  1  1
 13 12  1  0
 13 16  1  0
 14 15  1  0
 16 18  1  0
 17 16  2  0
M  END
$$$$
