GTC.pdb
     RDKit          3D

 18 17  0  0  1  0  0  0  0  0999 V2000
   24.3913  -12.5723  -15.7598 N   0  0  0  0  0  0  0  0  0  0  0  0
   22.9469  -12.4879  -15.7489 C   0  0  0  0  0  0  0  0  0  0  0  0
   22.5416  -11.1510  -16.1939 C   0  0  0  0  0  0  0  0  0  0  0  0
   23.3453  -10.4544  -16.8672 O   0  0  0  0  0  0  0  0  0  0  0  0
   19.4619  -10.2859  -18.1807 C   0  0  0  0  0  0  0  0  0  0  0  0
   19.4967   -9.3995  -16.9582 C   0  0  1  0  0  0  0  0  0  0  0  0
   18.6142   -9.8485  -16.0087 O   0  0  0  0  0  0  0  0  0  0  0  0
   20.8960   -9.3069  -16.3841 C   0  0  2  0  0  0  0  0  0  0  0  0
   21.2748  -10.6343  -15.8831 N   0  0  0  0  0  0  0  0  0  0  0  0
   20.9771   -8.3073  -15.2876 C   0  0  0  0  0  0  0  0  0  0  0  0
   20.8852   -8.6572  -14.0660 O   0  0  0  0  0  0  0  0  0  0  0  0
   21.1593   -6.9386  -15.5599 N   0  0  0  0  0  0  0  0  0  0  0  0
   21.3026   -5.9455  -14.5109 C   0  0  1  0  0  0  0  0  0  0  0  0
   22.6893   -5.3904  -14.4249 C   0  0  0  0  0  0  0  0  0  0  0  0
   22.7014   -4.1260  -13.1210 S   0  0  0  0  0  0  0  0  0  0  0  0
   20.3568   -4.8182  -14.6838 C   0  0  0  0  0  0  0  0  0  0  0  0
   20.0863   -4.4788  -15.8645 O   0  0  0  0  0  0  0  0  0  0  0  0
   19.7646   -4.1294  -13.6531 O   0  0  0  0  0  0  0  0  0  0  0  0
  2  1  1  0
  3  2  1  0
  4  3  2  0
  6  5  1  6
  6  7  1  0
  6  8  1  0
  8  9  1  1
  9  3  1  0
 10  8  1  0
 10 12  1  0
 11 10  2  0
 13 14  1  6
 13 12  1  0
 13 16  1  0
 14 15  1  0
 16 18  1  0
 17 16  2  0
M  END
$$$$
