GTC.pdb
     RDKit          3D

 18 17  0  0  1  0  0  0  0  0999 V2000
   26.3381  -12.8846  -16.8361 N   0  0  0  0  0  0  0  0  0  0  0  0
   25.9611  -11.7270  -16.0540 C   0  0  0  0  0  0  0  0  0  0  0  0
   24.5756  -11.3659  -16.3697 C   0  0  0  0  0  0  0  0  0  0  0  0
   24.0349  -11.8380  -17.4037 O   0  0  0  0  0  0  0  0  0  0  0  0
   21.6348  -12.3338  -14.7976 C   0  0  0  0  0  0  0  0  0  0  0  0
   21.5725  -10.8248  -14.7733 C   0  0  1  0  0  0  0  0  0  0  0  0
   21.9392  -10.3444  -13.5418 O   0  0  0  0  0  0  0  0  0  0  0  0
   22.4373  -10.2199  -15.8607 C   0  0  2  0  0  0  0  0  0  0  0  0
   23.8420  -10.5041  -15.5405 N   0  0  0  0  0  0  0  0  0  0  0  0
   22.2293   -8.7533  -15.9786 C   0  0  0  0  0  0  0  0  0  0  0  0
   23.1046   -7.9259  -15.5633 O   0  0  0  0  0  0  0  0  0  0  0  0
   21.0582   -8.2263  -16.5543 N   0  0  0  0  0  0  0  0  0  0  0  0
   20.8362   -6.8000  -16.7075 C   0  0  1  0  0  0  0  0  0  0  0  0
   19.8290   -6.4815  -17.7671 C   0  0  0  0  0  0  0  0  0  0  0  0
   19.6308   -4.6768  -17.8203 S   0  0  0  0  0  0  0  0  0  0  0  0
   20.3984   -6.1692  -15.4404 C   0  0  0  0  0  0  0  0  0  0  0  0
   19.5094   -6.7698  -14.7836 O   0  0  0  0  0  0  0  0  0  0  0  0
   20.8932   -4.9878  -14.9434 O   0  0  0  0  0  0  0  0  0  0  0  0
  2  1  1  0
  3  2  1  0
  4  3  2  0
  6  5  1  1
  6  7  1  0
  6  8  1  0
  8  9  1  1
  9  3  1  0
 10  8  1  0
 10 12  1  0
 11 10  2  0
 13 14  1  6
 13 12  1  0
 13 16  1  0
 14 15  1  0
 16 18  1  0
 17 16  2  0
M  END
$$$$
