GTC.pdb
     RDKit          3D

 18 17  0  0  1  0  0  0  0  0999 V2000
   17.7832  -13.1547  -15.3576 N   0  0  0  0  0  0  0  0  0  0  0  0
   17.2014  -11.9458  -14.8156 C   0  0  0  0  0  0  0  0  0  0  0  0
   17.8786  -10.7843  -15.4002 C   0  0  0  0  0  0  0  0  0  0  0  0
   18.8709  -10.9628  -16.1537 O   0  0  0  0  0  0  0  0  0  0  0  0
   16.4046   -8.3539  -17.6587 C   0  0  0  0  0  0  0  0  0  0  0  0
   17.0213   -7.5536  -16.5360 C   0  0  1  0  0  0  0  0  0  0  0  0
   16.0575   -7.1305  -15.6561 O   0  0  0  0  0  0  0  0  0  0  0  0
   18.0899   -8.3493  -15.8142 C   0  0  2  0  0  0  0  0  0  0  0  0
   17.4408   -9.4780  -15.1349 N   0  0  0  0  0  0  0  0  0  0  0  0
   18.8253   -7.5167  -14.8273 C   0  0  0  0  0  0  0  0  0  0  0  0
   18.4558   -7.4538  -13.6096 O   0  0  0  0  0  0  0  0  0  0  0  0
   19.9566   -6.7686  -15.2028 N   0  0  0  0  0  0  0  0  0  0  0  0
   20.6831   -5.9281  -14.2684 C   0  0  1  0  0  0  0  0  0  0  0  0
   22.1147   -6.3352  -14.1161 C   0  0  0  0  0  0  0  0  0  0  0  0
   22.8887   -5.2074  -12.9210 S   0  0  0  0  0  0  0  0  0  0  0  0
   20.6415   -4.5002  -14.6613 C   0  0  0  0  0  0  0  0  0  0  0  0
   20.6591   -4.2487  -15.8937 O   0  0  0  0  0  0  0  0  0  0  0  0
   20.5858   -3.4479  -13.7796 O   0  0  0  0  0  0  0  0  0  0  0  0
  2  1  1  0
  3  2  1  0
  4  3  2  0
  6  5  1  6
  6  7  1  0
  6  8  1  0
  8  9  1  1
  9  3  1  0
 10  8  1  0
 10 12  1  0
 11 10  2  0
 13 14  1  6
 13 12  1  0
 13 16  1  0
 14 15  1  0
 16 18  1  0
 17 16  2  0
M  END
$$$$
