GTC.pdb
     RDKit          3D

 18 17  0  0  1  0  0  0  0  0999 V2000
   25.5066  -20.4538   -9.4264 N   0  0  0  0  0  0  0  0  0  0  0  0
   25.9199  -21.2479  -10.5631 C   0  0  0  0  0  0  0  0  0  0  0  0
   25.5010  -20.5742  -11.7961 C   0  0  0  0  0  0  0  0  0  0  0  0
   24.9192  -19.4604  -11.7239 O   0  0  0  0  0  0  0  0  0  0  0  0
   26.4212  -19.4985  -16.3727 C   0  0  0  0  0  0  0  0  0  0  0  0
   26.6352  -20.3735  -15.1603 C   0  0  1  0  0  0  0  0  0  0  0  0
   27.7420  -19.9674  -14.4588 O   0  0  0  0  0  0  0  0  0  0  0  0
   25.4119  -20.3852  -14.2662 C   0  0  2  0  0  0  0  0  0  0  0  0
   25.7369  -21.1483  -13.0543 N   0  0  0  0  0  0  0  0  0  0  0  0
   24.2369  -20.9885  -14.9471 C   0  0  0  0  0  0  0  0  0  0  0  0
   24.2034  -22.2297  -15.2323 O   0  0  0  0  0  0  0  0  0  0  0  0
   23.1190  -20.2100  -15.3003 N   0  0  0  0  0  0  0  0  0  0  0  0
   21.9308  -20.7797  -15.9094 C   0  0  1  0  0  0  0  0  0  0  0  0
   20.6646  -20.2575  -15.3072 C   0  0  0  0  0  0  0  0  0  0  0  0
   20.7114  -20.6074  -13.5256 S   0  0  0  0  0  0  0  0  0  0  0  0
   21.8887  -20.5388  -17.3706 C   0  0  0  0  0  0  0  0  0  0  0  0
   22.6738  -19.6679  -17.8262 O   0  0  0  0  0  0  0  0  0  0  0  0
   21.0598  -21.1955  -18.2477 O   0  0  0  0  0  0  0  0  0  0  0  0
  2  1  1  0
  3  2  1  0
  4  3  2  0
  6  5  1  6
  6  7  1  0
  6  8  1  0
  8  9  1  1
  9  3  1  0
 10  8  1  0
 10 12  1  0
 11 10  2  0
 13 14  1  1
 13 12  1  0
 13 16  1  0
 14 15  1  0
 16 18  1  0
 17 16  2  0
M  END
$$$$
