GTC.pdb
     RDKit          3D

 18 17  0  0  1  0  0  0  0  0999 V2000
   20.1971  -14.5758  -17.9749 N   0  0  0  0  0  0  0  0  0  0  0  0
   21.0871  -13.9419  -18.9234 C   0  0  0  0  0  0  0  0  0  0  0  0
   21.1849  -12.5134  -18.6080 C   0  0  0  0  0  0  0  0  0  0  0  0
   22.3193  -11.9942  -18.4411 O   0  0  0  0  0  0  0  0  0  0  0  0
   18.9826   -8.0956  -18.4679 C   0  0  0  0  0  0  0  0  0  0  0  0
   18.9376   -9.5786  -18.7510 C   0  0  1  0  0  0  0  0  0  0  0  0
   18.7662   -9.8110  -20.0921 O   0  0  0  0  0  0  0  0  0  0  0  0
   20.1847  -10.2745  -18.2444 C   0  0  2  0  0  0  0  0  0  0  0  0
   20.0373  -11.7150  -18.4889 N   0  0  0  0  0  0  0  0  0  0  0  0
   20.4060  -10.0245  -16.7965 C   0  0  0  0  0  0  0  0  0  0  0  0
   19.5913  -10.4590  -15.9185 O   0  0  0  0  0  0  0  0  0  0  0  0
   21.5240   -9.2996  -16.3436 N   0  0  0  0  0  0  0  0  0  0  0  0
   21.7720   -9.0439  -14.9363 C   0  0  1  0  0  0  0  0  0  0  0  0
   23.1989   -9.2730  -14.5491 C   0  0  0  0  0  0  0  0  0  0  0  0
   23.5799  -11.0243  -14.8437 S   0  0  0  0  0  0  0  0  0  0  0  0
   21.3980   -7.6632  -14.5508 C   0  0  0  0  0  0  0  0  0  0  0  0
   21.4812   -6.7812  -15.4439 O   0  0  0  0  0  0  0  0  0  0  0  0
   20.9723   -7.2889  -13.2993 O   0  0  0  0  0  0  0  0  0  0  0  0
  2  1  1  0
  3  2  1  0
  4  3  2  0
  6  5  1  6
  6  7  1  0
  6  8  1  0
  8  9  1  1
  9  3  1  0
 10  8  1  0
 10 12  1  0
 11 10  2  0
 13 14  1  6
 13 12  1  0
 13 16  1  0
 14 15  1  0
 16 18  1  0
 17 16  2  0
M  END
$$$$
