GTC.pdb
     RDKit          3D

 18 17  0  0  1  0  0  0  0  0999 V2000
   18.6155   -6.2933  -21.4765 N   0  0  0  0  0  0  0  0  0  0  0  0
   19.6860   -6.8570  -20.6829 C   0  0  0  0  0  0  0  0  0  0  0  0
   19.3782   -6.6706  -19.2616 C   0  0  0  0  0  0  0  0  0  0  0  0
   18.2722   -6.1695  -18.9300 O   0  0  0  0  0  0  0  0  0  0  0  0
   18.6479   -8.9182  -16.6811 C   0  0  0  0  0  0  0  0  0  0  0  0
   19.8346   -8.1409  -16.1624 C   0  0  1  0  0  0  0  0  0  0  0  0
   20.9895   -8.8675  -16.3046 O   0  0  0  0  0  0  0  0  0  0  0  0
   19.9601   -6.7992  -16.8554 C   0  0  2  0  0  0  0  0  0  0  0  0
   20.2938   -7.0405  -18.2649 N   0  0  0  0  0  0  0  0  0  0  0  0
   21.0022   -5.9482  -16.2246 C   0  0  0  0  0  0  0  0  0  0  0  0
   22.1878   -5.9015  -16.6888 O   0  0  0  0  0  0  0  0  0  0  0  0
   20.7161   -5.1629  -15.0923 N   0  0  0  0  0  0  0  0  0  0  0  0
   21.7046   -4.3027  -14.4677 C   0  0  1  0  0  0  0  0  0  0  0  0
   21.2065   -2.9081  -14.2547 C   0  0  0  0  0  0  0  0  0  0  0  0
   20.7989   -2.2095  -15.8810 S   0  0  0  0  0  0  0  0  0  0  0  0
   22.1619   -4.8407  -13.1653 C   0  0  0  0  0  0  0  0  0  0  0  0
   21.3822   -5.6281  -12.5699 O   0  0  0  0  0  0  0  0  0  0  0  0
   23.3650   -4.5399  -12.5740 O   0  0  0  0  0  0  0  0  0  0  0  0
  2  1  1  0
  3  2  1  0
  4  3  2  0
  6  5  1  6
  6  7  1  0
  6  8  1  0
  8  9  1  6
  9  3  1  0
 10  8  1  0
 10 12  1  0
 11 10  2  0
 13 14  1  1
 13 12  1  0
 13 16  1  0
 14 15  1  0
 16 18  1  0
 17 16  2  0
M  END
$$$$
