GTC.pdb
     RDKit          3D

 18 17  0  0  1  0  0  0  0  0999 V2000
   22.8147  -15.3825  -18.3513 N   0  0  0  0  0  0  0  0  0  0  0  0
   23.0475  -14.0139  -18.7592 C   0  0  0  0  0  0  0  0  0  0  0  0
   23.2226  -13.1812  -17.5651 C   0  0  0  0  0  0  0  0  0  0  0  0
   22.6146  -13.4854  -16.5058 O   0  0  0  0  0  0  0  0  0  0  0  0
   25.5674   -9.7327  -15.0225 C   0  0  0  0  0  0  0  0  0  0  0  0
   25.4852  -10.6938  -16.1848 C   0  0  1  0  0  0  0  0  0  0  0  0
   26.3032  -11.7755  -15.9781 O   0  0  0  0  0  0  0  0  0  0  0  0
   24.0586  -11.1430  -16.4287 C   0  0  2  0  0  0  0  0  0  0  0  0
   24.0550  -12.0520  -17.5821 N   0  0  0  0  0  0  0  0  0  0  0  0
   23.1544   -9.9921  -16.6855 C   0  0  0  0  0  0  0  0  0  0  0  0
   23.0305   -9.4962  -17.8525 O   0  0  0  0  0  0  0  0  0  0  0  0
   22.4021   -9.4096  -15.6485 N   0  0  0  0  0  0  0  0  0  0  0  0
   21.5062   -8.2886  -15.8675 C   0  0  1  0  0  0  0  0  0  0  0  0
   20.0699   -8.7014  -15.9406 C   0  0  0  0  0  0  0  0  0  0  0  0
   19.0659   -7.1947  -16.0849 S   0  0  0  0  0  0  0  0  0  0  0  0
   21.6438   -7.2566  -14.8135 C   0  0  0  0  0  0  0  0  0  0  0  0
   21.9023   -7.6619  -13.6510 O   0  0  0  0  0  0  0  0  0  0  0  0
   21.5094   -5.9050  -15.0203 O   0  0  0  0  0  0  0  0  0  0  0  0
  2  1  1  0
  3  2  1  0
  4  3  2  0
  6  5  1  1
  6  7  1  0
  6  8  1  0
  8  9  1  6
  9  3  1  0
 10  8  1  0
 10 12  1  0
 11 10  2  0
 13 14  1  1
 13 12  1  0
 13 16  1  0
 14 15  1  0
 16 18  1  0
 17 16  2  0
M  END
$$$$
