GTC.pdb
     RDKit          3D

 18 17  0  0  1  0  0  0  0  0999 V2000
   24.8610  -14.2434  -18.3975 N   0  0  0  0  0  0  0  0  0  0  0  0
   24.8231  -14.9248  -17.1216 C   0  0  0  0  0  0  0  0  0  0  0  0
   23.8989  -16.0594  -17.2116 C   0  0  0  0  0  0  0  0  0  0  0  0
   23.1457  -16.1641  -18.2146 O   0  0  0  0  0  0  0  0  0  0  0  0
   24.5778  -19.4945  -17.4735 C   0  0  0  0  0  0  0  0  0  0  0  0
   23.6038  -19.4328  -16.3207 C   0  0  1  0  0  0  0  0  0  0  0  0
   24.2504  -19.6376  -15.1283 O   0  0  0  0  0  0  0  0  0  0  0  0
   22.8550  -18.1155  -16.3018 C   0  0  2  0  0  0  0  0  0  0  0  0
   23.8391  -17.0302  -16.2004 N   0  0  0  0  0  0  0  0  0  0  0  0
   21.8979  -18.0416  -15.1676 C   0  0  0  0  0  0  0  0  0  0  0  0
   22.0853  -17.2396  -14.1955 O   0  0  0  0  0  0  0  0  0  0  0  0
   20.7497  -18.8544  -15.1276 N   0  0  0  0  0  0  0  0  0  0  0  0
   19.7223  -18.7063  -14.1127 C   0  0  1  0  0  0  0  0  0  0  0  0
   19.1122  -17.3402  -14.1017 C   0  0  0  0  0  0  0  0  0  0  0  0
   17.8760  -17.2948  -12.7719 S   0  0  0  0  0  0  0  0  0  0  0  0
   18.6375  -19.7023  -14.2745 C   0  0  0  0  0  0  0  0  0  0  0  0
   18.2509  -19.9365  -15.4485 O   0  0  0  0  0  0  0  0  0  0  0  0
   18.0350  -20.3771  -13.2405 O   0  0  0  0  0  0  0  0  0  0  0  0
  2  1  1  0
  3  2  1  0
  4  3  2  0
  6  5  1  6
  6  7  1  0
  6  8  1  0
  8  9  1  1
  9  3  1  0
 10  8  1  0
 10 12  1  0
 11 10  2  0
 13 14  1  6
 13 12  1  0
 13 16  1  0
 14 15  1  0
 16 18  1  0
 17 16  2  0
M  END
$$$$
