GTC.pdb
     RDKit          3D

 18 17  0  0  1  0  0  0  0  0999 V2000
   21.7572  -14.0270  -16.8972 N   0  0  0  0  0  0  0  0  0  0  0  0
   21.4914  -12.7082  -17.4298 C   0  0  0  0  0  0  0  0  0  0  0  0
   21.9290  -11.7016  -16.4577 C   0  0  0  0  0  0  0  0  0  0  0  0
   21.4428  -11.7122  -15.2968 O   0  0  0  0  0  0  0  0  0  0  0  0
   25.4466  -10.9378  -15.4359 C   0  0  0  0  0  0  0  0  0  0  0  0
   24.7969   -9.6290  -15.8184 C   0  0  1  0  0  0  0  0  0  0  0  0
   25.2313   -9.2145  -17.0519 O   0  0  0  0  0  0  0  0  0  0  0  0
   23.2855   -9.7360  -15.7936 C   0  0  2  0  0  0  0  0  0  0  0  0
   22.8795  -10.7274  -16.7981 N   0  0  0  0  0  0  0  0  0  0  0  0
   22.6356   -8.4300  -16.0766 C   0  0  0  0  0  0  0  0  0  0  0  0
   22.0296   -8.2177  -17.1770 O   0  0  0  0  0  0  0  0  0  0  0  0
   22.6657   -7.3815  -15.1383 N   0  0  0  0  0  0  0  0  0  0  0  0
   21.9771   -6.1215  -15.3519 C   0  0  1  0  0  0  0  0  0  0  0  0
   20.4880   -6.2658  -15.3355 C   0  0  0  0  0  0  0  0  0  0  0  0
   19.7675   -4.6073  -15.5069 S   0  0  0  0  0  0  0  0  0  0  0  0
   22.3602   -5.1042  -14.3453 C   0  0  0  0  0  0  0  0  0  0  0  0
   22.5901   -5.5165  -13.1793 O   0  0  0  0  0  0  0  0  0  0  0  0
   22.4791   -3.7592  -14.5990 O   0  0  0  0  0  0  0  0  0  0  0  0
  2  1  1  0
  3  2  1  0
  4  3  2  0
  6  5  1  6
  6  7  1  0
  6  8  1  0
  8  9  1  6
  9  3  1  0
 10  8  1  0
 10 12  1  0
 11 10  2  0
 13 14  1  1
 13 12  1  0
 13 16  1  0
 14 15  1  0
 16 18  1  0
 17 16  2  0
M  END
$$$$
