KPW.pdb
     RDKit          3D

 31 33  0  0  1  0  0  0  0  0999 V2000
   23.4066  -17.8989  -15.6492 N   0  0  0  0  0  0  0  0  0  0  0  0
   24.6477  -18.1719  -15.0073 C   0  0  1  0  0  0  0  0  0  0  0  0
   25.3522  -16.8969  -14.6368 C   0  0  0  0  0  0  0  0  0  0  0  0
   26.1473  -16.3110  -15.7524 C   0  0  0  0  0  0  0  0  0  0  0  0
   27.3240  -17.1543  -16.1746 C   0  0  0  0  0  0  0  0  0  0  0  0
   28.1985  -16.4957  -17.1871 C   0  0  0  0  0  0  0  0  0  0  0  0
   29.2762  -17.3497  -17.6524 N   0  0  0  0  0  0  0  0  0  0  0  0
   24.4763  -19.0389  -13.7984 C   0  0  0  0  0  0  0  0  0  0  0  0
   23.4240  -18.9076  -13.0972 O   0  0  0  0  0  0  0  0  0  0  0  0
   25.4432  -20.0004  -13.4057 N   0  0  0  0  0  0  0  0  0  0  0  0
   26.7364  -20.2925  -13.9815 C   0  0  0  0  0  0  0  0  0  0  0  0
   27.1633  -21.6505  -13.4087 C   0  0  0  0  0  0  0  0  0  0  0  0
   25.8355  -22.2050  -12.8618 C   0  0  0  0  0  0  0  0  0  0  0  0
   25.2762  -20.8965  -12.2846 C   0  0  1  0  0  0  0  0  0  0  0  0
   26.1928  -20.5542  -11.1559 C   0  0  0  0  0  0  0  0  0  0  0  0
   27.3790  -20.1755  -11.3272 O   0  0  0  0  0  0  0  0  0  0  0  0
   25.7344  -20.6515   -9.8404 N   0  0  0  0  0  0  0  0  0  0  0  0
   26.4864  -20.4439   -8.6366 C   0  0  1  0  0  0  0  0  0  0  0  0
   26.2667  -19.1753   -7.9407 C   0  0  0  0  0  0  0  0  0  0  0  0
   27.3584  -18.7737   -7.0279 C   0  0  0  0  0  0  0  0  0  0  0  0
   28.2147  -17.6906   -7.2839 C   0  0  0  0  0  0  0  0  0  0  0  0
   29.0783  -17.5373   -6.2798 N   0  0  0  0  0  0  0  0  0  0  0  0
   28.8590  -18.4616   -5.3456 C   0  0  0  0  0  0  0  0  0  0  0  0
   29.4547  -18.7548   -4.1325 C   0  0  0  0  0  0  0  0  0  0  0  0
   29.0120  -19.7990   -3.3691 C   0  0  0  0  0  0  0  0  0  0  0  0
   27.9664  -20.5599   -3.8164 C   0  0  0  0  0  0  0  0  0  0  0  0
   27.3764  -20.2679   -5.0195 C   0  0  0  0  0  0  0  0  0  0  0  0
   27.7889  -19.2306   -5.8130 C   0  0  0  0  0  0  0  0  0  0  0  0
   26.4544  -21.6099   -7.7590 C   0  0  0  0  0  0  0  0  0  0  0  0
   25.3902  -22.2512   -7.5610 O   0  0  0  0  0  0  0  0  0  0  0  0
   27.5858  -22.0852   -7.0900 O   0  0  0  0  0  0  0  0  0  0  0  0
  2  1  1  1
  3  2  1  0
  4  3  1  0
  5  4  1  0
  5  6  1  0
  6  7  1  0
  8  2  1  0
  9  8  2  0
 10  8  1  0
 10 11  1  0
 12 11  1  0
 13 12  1  0
 14 13  1  0
 14 10  1  0
 14 15  1  1
 15 16  2  0
 17 15  1  0
 18 29  1  0
 18 17  1  0
 18 19  1  1
 20 19  1  0
 20 21  2  0
 22 21  1  0
 23 22  1  0
 24 23  2  0
 25 24  1  0
 26 25  2  0
 26 27  1  0
 27 28  2  0
 28 23  1  0
 28 20  1  0
 29 31  1  0
 30 29  2  0
M  END
$$$$
