KPW.pdb
     RDKit          3D

 31 33  0  0  1  0  0  0  0  0999 V2000
   21.3143  -18.8240  -15.2846 N   0  0  0  0  0  0  0  0  0  0  0  0
   22.5705  -19.4910  -15.2206 C   0  0  1  0  0  0  0  0  0  0  0  0
   23.6586  -18.6450  -15.8200 C   0  0  0  0  0  0  0  0  0  0  0  0
   23.5080  -18.4344  -17.2873 C   0  0  0  0  0  0  0  0  0  0  0  0
   24.6506  -17.6789  -17.9180 C   0  0  0  0  0  0  0  0  0  0  0  0
   24.2122  -16.6141  -18.8654 C   0  0  0  0  0  0  0  0  0  0  0  0
   25.3187  -15.8711  -19.4407 N   0  0  0  0  0  0  0  0  0  0  0  0
   22.9294  -19.8798  -13.8197 C   0  0  0  0  0  0  0  0  0  0  0  0
   22.4098  -19.2350  -12.8549 O   0  0  0  0  0  0  0  0  0  0  0  0
   23.8270  -20.9394  -13.5280 N   0  0  0  0  0  0  0  0  0  0  0  0
   24.5168  -21.8347  -14.4290 C   0  0  0  0  0  0  0  0  0  0  0  0
   25.0312  -22.9961  -13.5681 C   0  0  0  0  0  0  0  0  0  0  0  0
   24.1975  -22.8429  -12.2831 C   0  0  0  0  0  0  0  0  0  0  0  0
   24.2247  -21.3104  -12.1893 C   0  0  1  0  0  0  0  0  0  0  0  0
   25.6533  -20.9695  -11.9175 C   0  0  0  0  0  0  0  0  0  0  0  0
   26.5543  -21.0470  -12.7904 O   0  0  0  0  0  0  0  0  0  0  0  0
   26.0307  -20.5426  -10.6426 N   0  0  0  0  0  0  0  0  0  0  0  0
   27.3119  -20.0442  -10.2328 C   0  0  1  0  0  0  0  0  0  0  0  0
   27.3172  -19.0979   -9.1165 C   0  0  0  0  0  0  0  0  0  0  0  0
   27.0969  -19.7080   -7.7877 C   0  0  0  0  0  0  0  0  0  0  0  0
   26.0083  -20.5463   -7.4981 C   0  0  0  0  0  0  0  0  0  0  0  0
   26.0805  -20.9788   -6.2390 N   0  0  0  0  0  0  0  0  0  0  0  0
   27.1648  -20.4791   -5.6476 C   0  0  0  0  0  0  0  0  0  0  0  0
   27.7010  -20.5962   -4.3783 C   0  0  0  0  0  0  0  0  0  0  0  0
   28.8537  -19.9425   -4.0419 C   0  0  0  0  0  0  0  0  0  0  0  0
   29.4798  -19.1640   -4.9770 C   0  0  0  0  0  0  0  0  0  0  0  0
   28.9470  -19.0490   -6.2355 C   0  0  0  0  0  0  0  0  0  0  0  0
   27.7958  -19.6880   -6.6124 C   0  0  0  0  0  0  0  0  0  0  0  0
   28.3026  -21.1088  -10.1067 C   0  0  0  0  0  0  0  0  0  0  0  0
   29.5353  -20.8576  -10.0926 O   0  0  0  0  0  0  0  0  0  0  0  0
   27.9542  -22.4578   -9.9945 O   0  0  0  0  0  0  0  0  0  0  0  0
  2  1  1  1
  3  2  1  0
  4  3  1  0
  5  4  1  0
  5  6  1  0
  6  7  1  0
  8  2  1  0
  9  8  2  0
 10  8  1  0
 10 11  1  0
 12 11  1  0
 13 12  1  0
 14 13  1  0
 14 10  1  0
 14 15  1  6
 15 16  2  0
 17 15  1  0
 18 29  1  0
 18 17  1  0
 18 19  1  1
 20 19  1  0
 20 21  2  0
 22 21  1  0
 23 22  1  0
 24 23  2  0
 25 24  1  0
 26 25  2  0
 26 27  1  0
 27 28  2  0
 28 23  1  0
 28 20  1  0
 29 31  1  0
 30 29  2  0
M  END
$$$$
