KPW.pdb
     RDKit          3D

 31 33  0  0  1  0  0  0  0  0999 V2000
   21.7328  -21.2715  -13.3507 N   0  0  0  0  0  0  0  0  0  0  0  0
   22.8815  -20.4308  -13.3790 C   0  0  1  0  0  0  0  0  0  0  0  0
   22.5894  -19.1013  -12.7416 C   0  0  0  0  0  0  0  0  0  0  0  0
   21.8606  -18.1596  -13.6371 C   0  0  0  0  0  0  0  0  0  0  0  0
   20.3717  -18.1187  -13.4011 C   0  0  0  0  0  0  0  0  0  0  0  0
   19.6661  -17.0869  -14.2142 C   0  0  0  0  0  0  0  0  0  0  0  0
   18.2268  -17.0976  -14.0254 N   0  0  0  0  0  0  0  0  0  0  0  0
   24.0635  -21.0723  -12.7205 C   0  0  0  0  0  0  0  0  0  0  0  0
   23.8610  -21.9600  -11.8332 O   0  0  0  0  0  0  0  0  0  0  0  0
   25.4003  -20.7270  -13.0485 N   0  0  0  0  0  0  0  0  0  0  0  0
   25.8924  -19.7423  -13.9853 C   0  0  0  0  0  0  0  0  0  0  0  0
   27.3755  -20.0669  -14.2080 C   0  0  0  0  0  0  0  0  0  0  0  0
   27.4782  -21.5056  -13.6700 C   0  0  0  0  0  0  0  0  0  0  0  0
   26.5603  -21.3458  -12.4492 C   0  0  1  0  0  0  0  0  0  0  0  0
   27.2882  -20.4065  -11.5442 C   0  0  0  0  0  0  0  0  0  0  0  0
   26.9849  -19.1922  -11.4297 O   0  0  0  0  0  0  0  0  0  0  0  0
   28.3588  -20.8749  -10.7796 N   0  0  0  0  0  0  0  0  0  0  0  0
   28.5117  -20.8021   -9.3552 C   0  0  1  0  0  0  0  0  0  0  0  0
   27.2974  -20.5410   -8.5812 C   0  0  0  0  0  0  0  0  0  0  0  0
   27.5086  -19.7577   -7.3450 C   0  0  0  0  0  0  0  0  0  0  0  0
   27.0665  -18.4341   -7.1891 C   0  0  0  0  0  0  0  0  0  0  0  0
   27.3607  -17.9898   -5.9669 N   0  0  0  0  0  0  0  0  0  0  0  0
   27.9839  -18.9421   -5.2742 C   0  0  0  0  0  0  0  0  0  0  0  0
   28.5019  -19.0090   -3.9937 C   0  0  0  0  0  0  0  0  0  0  0  0
   29.1130  -20.1463   -3.5441 C   0  0  0  0  0  0  0  0  0  0  0  0
   29.2104  -21.2283   -4.3760 C   0  0  0  0  0  0  0  0  0  0  0  0
   28.6961  -21.1607   -5.6456 C   0  0  0  0  0  0  0  0  0  0  0  0
   28.0758  -20.0413   -6.1334 C   0  0  0  0  0  0  0  0  0  0  0  0
   29.3193  -21.8992   -8.8309 C   0  0  0  0  0  0  0  0  0  0  0  0
   30.5490  -21.7574   -8.6056 O   0  0  0  0  0  0  0  0  0  0  0  0
   28.7895  -23.1613   -8.5480 O   0  0  0  0  0  0  0  0  0  0  0  0
  2  1  1  1
  3  2  1  0
  4  3  1  0
  5  4  1  0
  5  6  1  0
  6  7  1  0
  8  2  1  0
  9  8  2  0
 10  8  1  0
 10 11  1  0
 12 11  1  0
 13 12  1  0
 14 13  1  0
 14 10  1  0
 14 15  1  1
 15 16  2  0
 17 15  1  0
 18 29  1  0
 18 17  1  0
 18 19  1  1
 20 19  1  0
 20 21  2  0
 22 21  1  0
 23 22  1  0
 24 23  2  0
 25 24  1  0
 26 25  2  0
 26 27  1  0
 27 28  2  0
 28 23  1  0
 28 20  1  0
 29 31  1  0
 30 29  2  0
M  END
$$$$
