KPW.pdb
     RDKit          3D

 31 33  0  0  1  0  0  0  0  0999 V2000
   27.9502  -24.5054  -16.1040 N   0  0  0  0  0  0  0  0  0  0  0  0
   27.8616  -23.1108  -16.3766 C   0  0  1  0  0  0  0  0  0  0  0  0
   27.4131  -22.8677  -17.7904 C   0  0  0  0  0  0  0  0  0  0  0  0
   28.2687  -23.5381  -18.8095 C   0  0  0  0  0  0  0  0  0  0  0  0
   27.5030  -24.4040  -19.7780 C   0  0  0  0  0  0  0  0  0  0  0  0
   26.9430  -23.6522  -20.9377 C   0  0  0  0  0  0  0  0  0  0  0  0
   26.3571  -24.5147  -21.9477 N   0  0  0  0  0  0  0  0  0  0  0  0
   26.9527  -22.4074  -15.4168 C   0  0  0  0  0  0  0  0  0  0  0  0
   26.3759  -23.0884  -14.5113 O   0  0  0  0  0  0  0  0  0  0  0  0
   26.7103  -21.0106  -15.4795 N   0  0  0  0  0  0  0  0  0  0  0  0
   27.1948  -20.0348  -16.4294 C   0  0  0  0  0  0  0  0  0  0  0  0
   26.9387  -18.6596  -15.7989 C   0  0  0  0  0  0  0  0  0  0  0  0
   26.6989  -19.0185  -14.3212 C   0  0  0  0  0  0  0  0  0  0  0  0
   25.8763  -20.2966  -14.5401 C   0  0  1  0  0  0  0  0  0  0  0  0
   24.6038  -19.8293  -15.1674 C   0  0  0  0  0  0  0  0  0  0  0  0
   24.5454  -19.3633  -16.3332 O   0  0  0  0  0  0  0  0  0  0  0  0
   23.4105  -19.9033  -14.4458 N   0  0  0  0  0  0  0  0  0  0  0  0
   22.0748  -19.7740  -14.9525 C   0  0  1  0  0  0  0  0  0  0  0  0
   21.0008  -20.2813  -14.0976 C   0  0  0  0  0  0  0  0  0  0  0  0
   21.0113  -19.7573  -12.7150 C   0  0  0  0  0  0  0  0  0  0  0  0
   21.2590  -18.4102  -12.4057 C   0  0  0  0  0  0  0  0  0  0  0  0
   21.1721  -18.2149  -11.0896 N   0  0  0  0  0  0  0  0  0  0  0  0
   20.8772  -19.3612  -10.4779 C   0  0  0  0  0  0  0  0  0  0  0  0
   20.6836  -19.7167   -9.1556 C   0  0  0  0  0  0  0  0  0  0  0  0
   20.3937  -21.0081   -8.8129 C   0  0  0  0  0  0  0  0  0  0  0  0
   20.2955  -21.9560   -9.7948 C   0  0  0  0  0  0  0  0  0  0  0  0
   20.4876  -21.6019  -11.1058 C   0  0  0  0  0  0  0  0  0  0  0  0
   20.7782  -20.3201  -11.4906 C   0  0  0  0  0  0  0  0  0  0  0  0
   21.8173  -18.4430  -15.4938 C   0  0  0  0  0  0  0  0  0  0  0  0
   22.4732  -17.4411  -15.1078 O   0  0  0  0  0  0  0  0  0  0  0  0
   20.8405  -18.1956  -16.4624 O   0  0  0  0  0  0  0  0  0  0  0  0
  2  1  1  1
  3  2  1  0
  4  3  1  0
  5  4  1  0
  5  6  1  0
  6  7  1  0
  8  2  1  0
  9  8  2  0
 10  8  1  0
 10 11  1  0
 12 11  1  0
 13 12  1  0
 14 13  1  0
 14 10  1  0
 14 15  1  6
 15 16  2  0
 17 15  1  0
 18 29  1  0
 18 17  1  0
 18 19  1  1
 20 19  1  0
 20 21  2  0
 22 21  1  0
 23 22  1  0
 24 23  2  0
 25 24  1  0
 26 25  2  0
 26 27  1  0
 27 28  2  0
 28 23  1  0
 28 20  1  0
 29 31  1  0
 30 29  2  0
M  END
$$$$
