KPW.pdb
     RDKit          3D

 31 33  0  0  1  0  0  0  0  0999 V2000
   24.3474  -17.8686  -17.7576 N   0  0  0  0  0  0  0  0  0  0  0  0
   25.1270  -17.8400  -16.5667 C   0  0  1  0  0  0  0  0  0  0  0  0
   24.2942  -17.4150  -15.3899 C   0  0  0  0  0  0  0  0  0  0  0  0
   22.8278  -17.4720  -15.6476 C   0  0  0  0  0  0  0  0  0  0  0  0
   22.1535  -18.6957  -15.0802 C   0  0  0  0  0  0  0  0  0  0  0  0
   20.6913  -18.7588  -15.3661 C   0  0  0  0  0  0  0  0  0  0  0  0
   20.0540  -19.9440  -14.8216 N   0  0  0  0  0  0  0  0  0  0  0  0
   25.7789  -19.1595  -16.2901 C   0  0  0  0  0  0  0  0  0  0  0  0
   25.4259  -20.1705  -16.9754 O   0  0  0  0  0  0  0  0  0  0  0  0
   26.7745  -19.3245  -15.2925 N   0  0  0  0  0  0  0  0  0  0  0  0
   27.1927  -18.4137  -14.2509 C   0  0  0  0  0  0  0  0  0  0  0  0
   28.5339  -18.9464  -13.7294 C   0  0  0  0  0  0  0  0  0  0  0  0
   28.9580  -19.9131  -14.8498 C   0  0  0  0  0  0  0  0  0  0  0  0
   27.5779  -20.5168  -15.1483 C   0  0  1  0  0  0  0  0  0  0  0  0
   27.2218  -21.2835  -13.9168 C   0  0  0  0  0  0  0  0  0  0  0  0
   27.9337  -22.2122  -13.4581 O   0  0  0  0  0  0  0  0  0  0  0  0
   26.0489  -20.9733  -13.2255 N   0  0  0  0  0  0  0  0  0  0  0  0
   25.4203  -21.7370  -12.1866 C   0  0  1  0  0  0  0  0  0  0  0  0
   26.2638  -22.1116  -11.0508 C   0  0  0  0  0  0  0  0  0  0  0  0
   26.2939  -21.1241   -9.9507 C   0  0  0  0  0  0  0  0  0  0  0  0
   25.1838  -20.3449   -9.5872 C   0  0  0  0  0  0  0  0  0  0  0  0
   25.4850  -19.5698   -8.5449 N   0  0  0  0  0  0  0  0  0  0  0  0
   26.7476  -19.7768   -8.1736 C   0  0  0  0  0  0  0  0  0  0  0  0
   27.5515  -19.2457   -7.1815 C   0  0  0  0  0  0  0  0  0  0  0  0
   28.8488  -19.6528   -7.0387 C   0  0  0  0  0  0  0  0  0  0  0  0
   29.3523  -20.5975   -7.8910 C   0  0  0  0  0  0  0  0  0  0  0  0
   28.5539  -21.1235   -8.8742 C   0  0  0  0  0  0  0  0  0  0  0  0
   27.2498  -20.7437   -9.0497 C   0  0  0  0  0  0  0  0  0  0  0  0
   24.1263  -21.1824  -11.8010 C   0  0  0  0  0  0  0  0  0  0  0  0
   23.3061  -21.8481  -11.1175 O   0  0  0  0  0  0  0  0  0  0  0  0
   23.7175  -19.8946  -12.1590 O   0  0  0  0  0  0  0  0  0  0  0  0
  2  1  1  6
  3  2  1  0
  4  3  1  0
  5  4  1  0
  5  6  1  0
  6  7  1  0
  8  2  1  0
  9  8  2  0
 10  8  1  0
 10 11  1  0
 12 11  1  0
 13 12  1  0
 14 13  1  0
 14 10  1  0
 14 15  1  1
 15 16  2  0
 17 15  1  0
 18 29  1  0
 18 17  1  0
 18 19  1  1
 20 19  1  0
 20 21  2  0
 22 21  1  0
 23 22  1  0
 24 23  2  0
 25 24  1  0
 26 25  2  0
 26 27  1  0
 27 28  2  0
 28 23  1  0
 28 20  1  0
 29 31  1  0
 30 29  2  0
M  END
$$$$
