KPW.pdb
     RDKit          3D

 31 33  0  0  1  0  0  0  0  0999 V2000
   24.2305  -19.0291  -16.7005 N   0  0  0  0  0  0  0  0  0  0  0  0
   25.2602  -18.6882  -15.7782 C   0  0  1  0  0  0  0  0  0  0  0  0
   24.8271  -17.5618  -14.8824 C   0  0  0  0  0  0  0  0  0  0  0  0
   23.6322  -16.8276  -15.3855 C   0  0  0  0  0  0  0  0  0  0  0  0
   23.9021  -15.3859  -15.7361 C   0  0  0  0  0  0  0  0  0  0  0  0
   22.6788  -14.6260  -16.1232 C   0  0  0  0  0  0  0  0  0  0  0  0
   22.9583  -13.2573  -16.5181 N   0  0  0  0  0  0  0  0  0  0  0  0
   25.6925  -19.8647  -14.9587 C   0  0  0  0  0  0  0  0  0  0  0  0
   24.9813  -20.9183  -14.9804 O   0  0  0  0  0  0  0  0  0  0  0  0
   26.8646  -19.8482  -14.1590 N   0  0  0  0  0  0  0  0  0  0  0  0
   27.8273  -18.7886  -13.9599 C   0  0  0  0  0  0  0  0  0  0  0  0
   29.0596  -19.4440  -13.3223 C   0  0  0  0  0  0  0  0  0  0  0  0
   28.8200  -20.9371  -13.6105 C   0  0  0  0  0  0  0  0  0  0  0  0
   27.3057  -20.9659  -13.3565 C   0  0  1  0  0  0  0  0  0  0  0  0
   27.1582  -20.6955  -11.8949 C   0  0  0  0  0  0  0  0  0  0  0  0
   27.3036  -19.5532  -11.3913 O   0  0  0  0  0  0  0  0  0  0  0  0
   26.8447  -21.7438  -11.0271 N   0  0  0  0  0  0  0  0  0  0  0  0
   26.0635  -21.6782   -9.8258 C   0  0  1  0  0  0  0  0  0  0  0  0
   26.7814  -21.8911   -8.5684 C   0  0  0  0  0  0  0  0  0  0  0  0
   27.0349  -20.6625   -7.7855 C   0  0  0  0  0  0  0  0  0  0  0  0
   26.4269  -19.4297   -8.0721 C   0  0  0  0  0  0  0  0  0  0  0  0
   26.8100  -18.5090   -7.1870 N   0  0  0  0  0  0  0  0  0  0  0  0
   27.6518  -19.0473   -6.3058 C   0  0  0  0  0  0  0  0  0  0  0  0
   28.3372  -18.5508   -5.2120 C   0  0  0  0  0  0  0  0  0  0  0  0
   29.1627  -19.3564   -4.4781 C   0  0  0  0  0  0  0  0  0  0  0  0
   29.3086  -20.6692   -4.8353 C   0  0  0  0  0  0  0  0  0  0  0  0
   28.6282  -21.1604   -5.9200 C   0  0  0  0  0  0  0  0  0  0  0  0
   27.7913  -20.3872   -6.6800 C   0  0  0  0  0  0  0  0  0  0  0  0
   25.1764  -20.5191   -9.8081 C   0  0  0  0  0  0  0  0  0  0  0  0
   24.0986  -20.5295   -9.1590 O   0  0  0  0  0  0  0  0  0  0  0  0
   25.4598  -19.3381  -10.4998 O   0  0  0  0  0  0  0  0  0  0  0  0
  2  1  1  6
  3  2  1  0
  4  3  1  0
  5  4  1  0
  5  6  1  0
  6  7  1  0
  8  2  1  0
  9  8  2  0
 10  8  1  0
 10 11  1  0
 12 11  1  0
 13 12  1  0
 14 13  1  0
 14 10  1  0
 14 15  1  1
 15 16  2  0
 17 15  1  0
 18 29  1  0
 18 17  1  0
 18 19  1  1
 20 19  1  0
 20 21  2  0
 22 21  1  0
 23 22  1  0
 24 23  2  0
 25 24  1  0
 26 25  2  0
 26 27  1  0
 27 28  2  0
 28 23  1  0
 28 20  1  0
 29 31  1  0
 30 29  2  0
M  END
$$$$
