KPW.pdb
     RDKit          3D

 31 33  0  0  1  0  0  0  0  0999 V2000
   27.4131  -20.9265  -17.1063 N   0  0  0  0  0  0  0  0  0  0  0  0
   27.8305  -20.1965  -15.9575 C   0  0  1  0  0  0  0  0  0  0  0  0
   27.1447  -18.8607  -15.8919 C   0  0  0  0  0  0  0  0  0  0  0  0
   27.3999  -18.0021  -17.0825 C   0  0  0  0  0  0  0  0  0  0  0  0
   26.2024  -17.8327  -17.9833 C   0  0  0  0  0  0  0  0  0  0  0  0
   26.4789  -17.0109  -19.1965 C   0  0  0  0  0  0  0  0  0  0  0  0
   25.3969  -17.0394  -20.1639 N   0  0  0  0  0  0  0  0  0  0  0  0
   27.5976  -20.9609  -14.6910 C   0  0  0  0  0  0  0  0  0  0  0  0
   26.7641  -21.9208  -14.7016 O   0  0  0  0  0  0  0  0  0  0  0  0
   28.2709  -20.6545  -13.4800 N   0  0  0  0  0  0  0  0  0  0  0  0
   29.2687  -19.6434  -13.2129 C   0  0  0  0  0  0  0  0  0  0  0  0
   29.9077  -20.0170  -11.8688 C   0  0  0  0  0  0  0  0  0  0  0  0
   29.4756  -21.4848  -11.6997 C   0  0  0  0  0  0  0  0  0  0  0  0
   28.0425  -21.3512  -12.2349 C   0  0  1  0  0  0  0  0  0  0  0  0
   27.3400  -20.4914  -11.2357 C   0  0  0  0  0  0  0  0  0  0  0  0
   27.5079  -19.2479  -11.1635 O   0  0  0  0  0  0  0  0  0  0  0  0
   26.4508  -21.0722  -10.3290 N   0  0  0  0  0  0  0  0  0  0  0  0
   25.5434  -20.4001   -9.4443 C   0  0  1  0  0  0  0  0  0  0  0  0
   24.6176  -19.4481  -10.0594 C   0  0  0  0  0  0  0  0  0  0  0  0
   23.6550  -20.0471  -11.0087 C   0  0  0  0  0  0  0  0  0  0  0  0
   22.4825  -20.7041  -10.6021 C   0  0  0  0  0  0  0  0  0  0  0  0
   21.7892  -21.1120  -11.6655 N   0  0  0  0  0  0  0  0  0  0  0  0
   22.4269  -20.7684  -12.7837 C   0  0  0  0  0  0  0  0  0  0  0  0
   22.1609  -20.9469  -14.1290 C   0  0  0  0  0  0  0  0  0  0  0  0
   23.0252  -20.4827  -15.0813 C   0  0  0  0  0  0  0  0  0  0  0  0
   24.1657  -19.8345  -14.6922 C   0  0  0  0  0  0  0  0  0  0  0  0
   24.4280  -19.6580  -13.3577 C   0  0  0  0  0  0  0  0  0  0  0  0
   23.5880  -20.1065  -12.3733 C   0  0  0  0  0  0  0  0  0  0  0  0
   24.9057  -21.3193   -8.5067 C   0  0  0  0  0  0  0  0  0  0  0  0
   24.2218  -20.8971   -7.5388 O   0  0  0  0  0  0  0  0  0  0  0  0
   25.0098  -22.7086   -8.6192 O   0  0  0  0  0  0  0  0  0  0  0  0
  2  1  1  6
  3  2  1  0
  4  3  1  0
  5  4  1  0
  5  6  1  0
  6  7  1  0
  8  2  1  0
  9  8  2  0
 10  8  1  0
 10 11  1  0
 12 11  1  0
 13 12  1  0
 14 13  1  0
 14 10  1  0
 14 15  1  1
 15 16  2  0
 17 15  1  0
 18 29  1  0
 18 17  1  0
 18 19  1  6
 20 19  1  0
 20 21  2  0
 22 21  1  0
 23 22  1  0
 24 23  2  0
 25 24  1  0
 26 25  2  0
 26 27  1  0
 27 28  2  0
 28 23  1  0
 28 20  1  0
 29 31  1  0
 30 29  2  0
M  END
$$$$
