KPW.pdb
     RDKit          3D

 31 33  0  0  1  0  0  0  0  0999 V2000
   25.3974  -18.5984  -19.1023 N   0  0  0  0  0  0  0  0  0  0  0  0
   25.9698  -19.2023  -17.9471 C   0  0  1  0  0  0  0  0  0  0  0  0
   25.2491  -18.7684  -16.7016 C   0  0  0  0  0  0  0  0  0  0  0  0
   23.8106  -19.1562  -16.6812 C   0  0  0  0  0  0  0  0  0  0  0  0
   23.0634  -18.6729  -15.4638 C   0  0  0  0  0  0  0  0  0  0  0  0
   21.6123  -19.0164  -15.4779 C   0  0  0  0  0  0  0  0  0  0  0  0
   20.9673  -18.8223  -14.1920 N   0  0  0  0  0  0  0  0  0  0  0  0
   25.9842  -20.6967  -18.0431 C   0  0  0  0  0  0  0  0  0  0  0  0
   25.1879  -21.2640  -18.8557 O   0  0  0  0  0  0  0  0  0  0  0  0
   26.8517  -21.5032  -17.2617 N   0  0  0  0  0  0  0  0  0  0  0  0
   27.7377  -21.1246  -16.1842 C   0  0  0  0  0  0  0  0  0  0  0  0
   28.6921  -22.3083  -15.9785 C   0  0  0  0  0  0  0  0  0  0  0  0
   28.5080  -23.1053  -17.2826 C   0  0  0  0  0  0  0  0  0  0  0  0
   26.9892  -22.9318  -17.4293 C   0  0  1  0  0  0  0  0  0  0  0  0
   26.4056  -23.6867  -16.2801 C   0  0  0  0  0  0  0  0  0  0  0  0
   27.0704  -24.4925  -15.5813 O   0  0  0  0  0  0  0  0  0  0  0  0
   25.0616  -23.5063  -15.9468 N   0  0  0  0  0  0  0  0  0  0  0  0
   24.3829  -23.9755  -14.7734 C   0  0  1  0  0  0  0  0  0  0  0  0
   25.0687  -23.7699  -13.4970 C   0  0  0  0  0  0  0  0  0  0  0  0
   25.1838  -22.3566  -13.0776 C   0  0  0  0  0  0  0  0  0  0  0  0
   24.1512  -21.6615  -12.4277 C   0  0  0  0  0  0  0  0  0  0  0  0
   24.5418  -20.4202  -12.1370 N   0  0  0  0  0  0  0  0  0  0  0  0
   25.7918  -20.2267  -12.5551 C   0  0  0  0  0  0  0  0  0  0  0  0
   26.6569  -19.1485  -12.5154 C   0  0  0  0  0  0  0  0  0  0  0  0
   27.9133  -19.2387  -13.0470 C   0  0  0  0  0  0  0  0  0  0  0  0
   28.3138  -20.4129  -13.6243 C   0  0  0  0  0  0  0  0  0  0  0  0
   27.4549  -21.4815  -13.6627 C   0  0  0  0  0  0  0  0  0  0  0  0
   26.1897  -21.4323  -13.1408 C   0  0  0  0  0  0  0  0  0  0  0  0
   22.9770  -23.5831  -14.7561 C   0  0  0  0  0  0  0  0  0  0  0  0
   22.5623  -22.6038  -15.4283 O   0  0  0  0  0  0  0  0  0  0  0  0
   22.0118  -24.2583  -14.0037 O   0  0  0  0  0  0  0  0  0  0  0  0
  2  1  1  6
  3  2  1  0
  4  3  1  0
  5  4  1  0
  5  6  1  0
  6  7  1  0
  8  2  1  0
  9  8  2  0
 10  8  1  0
 10 11  1  0
 12 11  1  0
 13 12  1  0
 14 13  1  0
 14 10  1  0
 14 15  1  1
 15 16  2  0
 17 15  1  0
 18 29  1  0
 18 17  1  0
 18 19  1  1
 20 19  1  0
 20 21  2  0
 22 21  1  0
 23 22  1  0
 24 23  2  0
 25 24  1  0
 26 25  2  0
 26 27  1  0
 27 28  2  0
 28 23  1  0
 28 20  1  0
 29 31  1  0
 30 29  2  0
M  END
$$$$
