KPW.pdb
     RDKit          3D

 31 33  0  0  1  0  0  0  0  0999 V2000
   28.9093  -24.0371  -17.2112 N   0  0  0  0  0  0  0  0  0  0  0  0
   28.4806  -22.7026  -17.4608 C   0  0  1  0  0  0  0  0  0  0  0  0
   27.7788  -22.6033  -18.7862 C   0  0  0  0  0  0  0  0  0  0  0  0
   28.7030  -22.6556  -19.9538 C   0  0  0  0  0  0  0  0  0  0  0  0
   28.4632  -23.8273  -20.8724 C   0  0  0  0  0  0  0  0  0  0  0  0
   29.3826  -23.8643  -22.0459 C   0  0  0  0  0  0  0  0  0  0  0  0
   29.1204  -24.9764  -22.9414 N   0  0  0  0  0  0  0  0  0  0  0  0
   27.5990  -22.1820  -16.3679 C   0  0  0  0  0  0  0  0  0  0  0  0
   27.0674  -23.0119  -15.5648 O   0  0  0  0  0  0  0  0  0  0  0  0
   27.3342  -20.7987  -16.1949 N   0  0  0  0  0  0  0  0  0  0  0  0
   27.6558  -19.6856  -17.0591 C   0  0  0  0  0  0  0  0  0  0  0  0
   27.4842  -18.4198  -16.2088 C   0  0  0  0  0  0  0  0  0  0  0  0
   27.4784  -18.9873  -14.7778 C   0  0  0  0  0  0  0  0  0  0  0  0
   26.6464  -20.2492  -15.0491 C   0  0  1  0  0  0  0  0  0  0  0  0
   25.2874  -19.7417  -15.4051 C   0  0  0  0  0  0  0  0  0  0  0  0
   24.9817  -19.3546  -16.5611 O   0  0  0  0  0  0  0  0  0  0  0  0
   24.2934  -19.6847  -14.4259 N   0  0  0  0  0  0  0  0  0  0  0  0
   23.0263  -20.3571  -14.4286 C   0  0  1  0  0  0  0  0  0  0  0  0
   22.9065  -21.5265  -13.5568 C   0  0  0  0  0  0  0  0  0  0  0  0
   23.3022  -21.2931  -12.1513 C   0  0  0  0  0  0  0  0  0  0  0  0
   22.3937  -20.9132  -11.1503 C   0  0  0  0  0  0  0  0  0  0  0  0
   23.0173  -20.8079   -9.9765 N   0  0  0  0  0  0  0  0  0  0  0  0
   24.3101  -21.0961  -10.1204 C   0  0  0  0  0  0  0  0  0  0  0  0
   25.3837  -21.1335   -9.2496 C   0  0  0  0  0  0  0  0  0  0  0  0
   26.6341  -21.4632   -9.6933 C   0  0  0  0  0  0  0  0  0  0  0  0
   26.8193  -21.7584  -11.0166 C   0  0  0  0  0  0  0  0  0  0  0  0
   25.7535  -21.7211  -11.8790 C   0  0  0  0  0  0  0  0  0  0  0  0
   24.4859  -21.3971  -11.4744 C   0  0  0  0  0  0  0  0  0  0  0  0
   21.9079  -19.4254  -14.3205 C   0  0  0  0  0  0  0  0  0  0  0  0
   20.7255  -19.7934  -14.5429 O   0  0  0  0  0  0  0  0  0  0  0  0
   22.0722  -18.0829  -13.9680 O   0  0  0  0  0  0  0  0  0  0  0  0
  2  1  1  1
  3  2  1  0
  4  3  1  0
  5  4  1  0
  5  6  1  0
  6  7  1  0
  8  2  1  0
  9  8  2  0
 10  8  1  0
 10 11  1  0
 12 11  1  0
 13 12  1  0
 14 13  1  0
 14 10  1  0
 14 15  1  6
 15 16  2  0
 17 15  1  0
 18 29  1  0
 18 17  1  0
 18 19  1  1
 20 19  1  0
 20 21  2  0
 22 21  1  0
 23 22  1  0
 24 23  2  0
 25 24  1  0
 26 25  2  0
 26 27  1  0
 27 28  2  0
 28 23  1  0
 28 20  1  0
 29 31  1  0
 30 29  2  0
M  END
$$$$
