KPW.pdb
     RDKit          3D

 31 33  0  0  1  0  0  0  0  0999 V2000
   26.3711  -17.2071  -16.7545 N   0  0  0  0  0  0  0  0  0  0  0  0
   27.3010  -17.9325  -15.9569 C   0  0  1  0  0  0  0  0  0  0  0  0
   28.2090  -16.9981  -15.2076 C   0  0  0  0  0  0  0  0  0  0  0  0
   29.5187  -16.7736  -15.8816 C   0  0  0  0  0  0  0  0  0  0  0  0
   29.5375  -15.5778  -16.8001 C   0  0  0  0  0  0  0  0  0  0  0  0
   30.8650  -15.3317  -17.4335 C   0  0  0  0  0  0  0  0  0  0  0  0
   30.8469  -14.2412  -18.3915 N   0  0  0  0  0  0  0  0  0  0  0  0
   26.6174  -18.8646  -15.0049 C   0  0  0  0  0  0  0  0  0  0  0  0
   25.4692  -18.5486  -14.5595 O   0  0  0  0  0  0  0  0  0  0  0  0
   27.2020  -20.0860  -14.5807 N   0  0  0  0  0  0  0  0  0  0  0  0
   28.5250  -20.6097  -14.8353 C   0  0  0  0  0  0  0  0  0  0  0  0
   28.4729  -22.0997  -14.4723 C   0  0  0  0  0  0  0  0  0  0  0  0
   26.9584  -22.3729  -14.4349 C   0  0  0  0  0  0  0  0  0  0  0  0
   26.5190  -21.0631  -13.7643 C   0  0  1  0  0  0  0  0  0  0  0  0
   27.0866  -21.1313  -12.3843 C   0  0  0  0  0  0  0  0  0  0  0  0
   28.2218  -21.6090  -12.1332 O   0  0  0  0  0  0  0  0  0  0  0  0
   26.3412  -20.6487  -11.3065 N   0  0  0  0  0  0  0  0  0  0  0  0
   25.9256  -21.3719  -10.1395 C   0  0  1  0  0  0  0  0  0  0  0  0
   26.9489  -21.6101   -9.1208 C   0  0  0  0  0  0  0  0  0  0  0  0
   27.1726  -20.4805   -8.1932 C   0  0  0  0  0  0  0  0  0  0  0  0
   26.5753  -19.2206   -8.3586 C   0  0  0  0  0  0  0  0  0  0  0  0
   26.9247  -18.4091   -7.3601 N   0  0  0  0  0  0  0  0  0  0  0  0
   27.7334  -19.0482   -6.5159 C   0  0  0  0  0  0  0  0  0  0  0  0
   28.3773  -18.6832   -5.3477 C   0  0  0  0  0  0  0  0  0  0  0  0
   29.1751  -19.5709   -4.6810 C   0  0  0  0  0  0  0  0  0  0  0  0
   29.3347  -20.8346   -5.1809 C   0  0  0  0  0  0  0  0  0  0  0  0
   28.6954  -21.1954   -6.3393 C   0  0  0  0  0  0  0  0  0  0  0  0
   27.8872  -20.3368   -7.0361 C   0  0  0  0  0  0  0  0  0  0  0  0
   24.6645  -20.8713   -9.6012 C   0  0  0  0  0  0  0  0  0  0  0  0
   24.0872  -19.8738  -10.1060 O   0  0  0  0  0  0  0  0  0  0  0  0
   24.0231  -21.4569   -8.5061 O   0  0  0  0  0  0  0  0  0  0  0  0
  2  1  1  1
  3  2  1  0
  4  3  1  0
  5  4  1  0
  5  6  1  0
  6  7  1  0
  8  2  1  0
  9  8  2  0
 10  8  1  0
 10 11  1  0
 12 11  1  0
 13 12  1  0
 14 13  1  0
 14 10  1  0
 14 15  1  1
 15 16  2  0
 17 15  1  0
 18 29  1  0
 18 17  1  0
 18 19  1  1
 20 19  1  0
 20 21  2  0
 22 21  1  0
 23 22  1  0
 24 23  2  0
 25 24  1  0
 26 25  2  0
 26 27  1  0
 27 28  2  0
 28 23  1  0
 28 20  1  0
 29 31  1  0
 30 29  2  0
M  END
$$$$
