KPW.pdb
     RDKit          3D

 31 33  0  0  1  0  0  0  0  0999 V2000
   25.1027  -19.5458  -15.8125 N   0  0  0  0  0  0  0  0  0  0  0  0
   26.0523  -19.2063  -14.8075 C   0  0  1  0  0  0  0  0  0  0  0  0
   25.7432  -17.8627  -14.2089 C   0  0  0  0  0  0  0  0  0  0  0  0
   25.9658  -16.7277  -15.1483 C   0  0  0  0  0  0  0  0  0  0  0  0
   24.6984  -16.0388  -15.5875 C   0  0  0  0  0  0  0  0  0  0  0  0
   24.9300  -14.9026  -16.5252 C   0  0  0  0  0  0  0  0  0  0  0  0
   25.2370  -13.6564  -15.8469 N   0  0  0  0  0  0  0  0  0  0  0  0
   26.1293  -20.2465  -13.7330 C   0  0  0  0  0  0  0  0  0  0  0  0
   25.1381  -21.0246  -13.5643 O   0  0  0  0  0  0  0  0  0  0  0  0
   27.2654  -20.3964  -12.8961 N   0  0  0  0  0  0  0  0  0  0  0  0
   28.4750  -19.6072  -12.8374 C   0  0  0  0  0  0  0  0  0  0  0  0
   29.4907  -20.4390  -12.0430 C   0  0  0  0  0  0  0  0  0  0  0  0
   28.8633  -21.8442  -12.0833 C   0  0  0  0  0  0  0  0  0  0  0  0
   27.3961  -21.4312  -11.8962 C   0  0  1  0  0  0  0  0  0  0  0  0
   27.3285  -20.8789  -10.5100 C   0  0  0  0  0  0  0  0  0  0  0  0
   27.8728  -19.7962  -10.1765 O   0  0  0  0  0  0  0  0  0  0  0  0
   26.6344  -21.5791   -9.5210 N   0  0  0  0  0  0  0  0  0  0  0  0
   25.8048  -21.0343   -8.4853 C   0  0  1  0  0  0  0  0  0  0  0  0
   25.9326  -19.5981   -8.2349 C   0  0  0  0  0  0  0  0  0  0  0  0
   27.0327  -19.2254   -7.3198 C   0  0  0  0  0  0  0  0  0  0  0  0
   27.7295  -18.0098   -7.4111 C   0  0  0  0  0  0  0  0  0  0  0  0
   28.6409  -17.9260   -6.4415 N   0  0  0  0  0  0  0  0  0  0  0  0
   28.6060  -19.0240   -5.6879 C   0  0  0  0  0  0  0  0  0  0  0  0
   29.3220  -19.4486   -4.5835 C   0  0  0  0  0  0  0  0  0  0  0  0
   29.0678  -20.6626   -4.0085 C   0  0  0  0  0  0  0  0  0  0  0  0
   28.0918  -21.4630   -4.5368 C   0  0  0  0  0  0  0  0  0  0  0  0
   27.3823  -21.0406   -5.6318 C   0  0  0  0  0  0  0  0  0  0  0  0
   27.6052  -19.8319   -6.2361 C   0  0  0  0  0  0  0  0  0  0  0  0
   24.4229  -21.4933   -8.5876 C   0  0  0  0  0  0  0  0  0  0  0  0
   23.6280  -21.3984   -7.6171 O   0  0  0  0  0  0  0  0  0  0  0  0
   23.8977  -22.0599   -9.7524 O   0  0  0  0  0  0  0  0  0  0  0  0
  2  1  1  6
  3  2  1  0
  4  3  1  0
  5  4  1  0
  5  6  1  0
  6  7  1  0
  8  2  1  0
  9  8  2  0
 10  8  1  0
 10 11  1  0
 12 11  1  0
 13 12  1  0
 14 13  1  0
 14 10  1  0
 14 15  1  1
 15 16  2  0
 17 15  1  0
 18 29  1  0
 18 17  1  0
 18 19  1  6
 20 19  1  0
 20 21  2  0
 22 21  1  0
 23 22  1  0
 24 23  2  0
 25 24  1  0
 26 25  2  0
 26 27  1  0
 27 28  2  0
 28 23  1  0
 28 20  1  0
 29 31  1  0
 30 29  2  0
M  END
$$$$
