KPW.pdb
     RDKit          3D

 31 33  0  0  1  0  0  0  0  0999 V2000
   27.9135  -22.2826  -17.6065 N   0  0  0  0  0  0  0  0  0  0  0  0
   26.9416  -21.6406  -16.7877 C   0  0  1  0  0  0  0  0  0  0  0  0
   25.6630  -22.4299  -16.7532 C   0  0  0  0  0  0  0  0  0  0  0  0
   24.4578  -21.6250  -17.0989 C   0  0  0  0  0  0  0  0  0  0  0  0
   24.6852  -20.6262  -18.2056 C   0  0  0  0  0  0  0  0  0  0  0  0
   23.5317  -19.7075  -18.4277 C   0  0  0  0  0  0  0  0  0  0  0  0
   23.7782  -18.7225  -19.4651 N   0  0  0  0  0  0  0  0  0  0  0  0
   27.4443  -21.4082  -15.3964 C   0  0  0  0  0  0  0  0  0  0  0  0
   28.1979  -22.2836  -14.8652 O   0  0  0  0  0  0  0  0  0  0  0  0
   27.1115  -20.2491  -14.6485 N   0  0  0  0  0  0  0  0  0  0  0  0
   26.2180  -19.1635  -14.9836 C   0  0  0  0  0  0  0  0  0  0  0  0
   26.5385  -18.0271  -14.0036 C   0  0  0  0  0  0  0  0  0  0  0  0
   27.9137  -18.4485  -13.4550 C   0  0  0  0  0  0  0  0  0  0  0  0
   27.6472  -19.9564  -13.3389 C   0  0  1  0  0  0  0  0  0  0  0  0
   26.6095  -20.0799  -12.2716 C   0  0  0  0  0  0  0  0  0  0  0  0
   25.3927  -19.8332  -12.4672 O   0  0  0  0  0  0  0  0  0  0  0  0
   26.9833  -20.4863  -10.9890 N   0  0  0  0  0  0  0  0  0  0  0  0
   26.2000  -21.2325  -10.0471 C   0  0  1  0  0  0  0  0  0  0  0  0
   26.8822  -21.6601   -8.8249 C   0  0  0  0  0  0  0  0  0  0  0  0
   27.1568  -20.5754   -7.8583 C   0  0  0  0  0  0  0  0  0  0  0  0
   26.6110  -19.2868   -7.9740 C   0  0  0  0  0  0  0  0  0  0  0  0
   26.9984  -18.5275   -6.9488 N   0  0  0  0  0  0  0  0  0  0  0  0
   27.7841  -19.2297   -6.1335 C   0  0  0  0  0  0  0  0  0  0  0  0
   28.4481  -18.9344   -4.9569 C   0  0  0  0  0  0  0  0  0  0  0  0
   29.2119  -19.8780   -4.3281 C   0  0  0  0  0  0  0  0  0  0  0  0
   29.3169  -21.1280   -4.8746 C   0  0  0  0  0  0  0  0  0  0  0  0
   28.6577  -21.4196   -6.0414 C   0  0  0  0  0  0  0  0  0  0  0  0
   27.8822  -20.5036   -6.7012 C   0  0  0  0  0  0  0  0  0  0  0  0
   24.8951  -20.6228   -9.8101 C   0  0  0  0  0  0  0  0  0  0  0  0
   24.6986  -19.3969  -10.0138 O   0  0  0  0  0  0  0  0  0  0  0  0
   23.7931  -21.3481   -9.3485 O   0  0  0  0  0  0  0  0  0  0  0  0
  2  1  1  6
  3  2  1  0
  4  3  1  0
  5  4  1  0
  5  6  1  0
  6  7  1  0
  8  2  1  0
  9  8  2  0
 10  8  1  0
 10 11  1  0
 12 11  1  0
 13 12  1  0
 14 13  1  0
 14 10  1  0
 14 15  1  1
 15 16  2  0
 17 15  1  0
 18 29  1  0
 18 17  1  0
 18 19  1  1
 20 19  1  0
 20 21  2  0
 22 21  1  0
 23 22  1  0
 24 23  2  0
 25 24  1  0
 26 25  2  0
 26 27  1  0
 27 28  2  0
 28 23  1  0
 28 20  1  0
 29 31  1  0
 30 29  2  0
M  END
$$$$
