KPW.pdb
     RDKit          3D

 31 33  0  0  1  0  0  0  0  0999 V2000
   27.7415  -21.2560  -19.2619 N   0  0  0  0  0  0  0  0  0  0  0  0
   27.0794  -20.3439  -18.3920 C   0  0  1  0  0  0  0  0  0  0  0  0
   25.5898  -20.4057  -18.5825 C   0  0  0  0  0  0  0  0  0  0  0  0
   25.1475  -20.0034  -19.9473 C   0  0  0  0  0  0  0  0  0  0  0  0
   23.9742  -20.7944  -20.4687 C   0  0  0  0  0  0  0  0  0  0  0  0
   23.4936  -20.3396  -21.8051 C   0  0  0  0  0  0  0  0  0  0  0  0
   22.2762  -19.5519  -21.7360 N   0  0  0  0  0  0  0  0  0  0  0  0
   27.4281  -20.5838  -16.9556 C   0  0  0  0  0  0  0  0  0  0  0  0
   28.0479  -21.6503  -16.6476 O   0  0  0  0  0  0  0  0  0  0  0  0
   27.0930  -19.6670  -15.9256 N   0  0  0  0  0  0  0  0  0  0  0  0
   26.2673  -18.4819  -15.9820 C   0  0  0  0  0  0  0  0  0  0  0  0
   26.5674  -17.6897  -14.7026 C   0  0  0  0  0  0  0  0  0  0  0  0
   27.8857  -18.3267  -14.2270 C   0  0  0  0  0  0  0  0  0  0  0  0
   27.5525  -19.7881  -14.5611 C   0  0  1  0  0  0  0  0  0  0  0  0
   26.4426  -20.1496  -13.6290 C   0  0  0  0  0  0  0  0  0  0  0  0
   25.3303  -19.5642  -13.6284 O   0  0  0  0  0  0  0  0  0  0  0  0
   26.6245  -21.1820  -12.7065 N   0  0  0  0  0  0  0  0  0  0  0  0
   25.7117  -21.6120  -11.6869 C   0  0  1  0  0  0  0  0  0  0  0  0
   26.3069  -22.1042  -10.4438 C   0  0  0  0  0  0  0  0  0  0  0  0
   26.4517  -21.0855   -9.3818 C   0  0  0  0  0  0  0  0  0  0  0  0
   25.4284  -20.1900   -9.0315 C   0  0  0  0  0  0  0  0  0  0  0  0
   25.8216  -19.4110   -8.0234 N   0  0  0  0  0  0  0  0  0  0  0  0
   27.0650  -19.7258   -7.6630 C   0  0  0  0  0  0  0  0  0  0  0  0
   27.9340  -19.2398   -6.7033 C   0  0  0  0  0  0  0  0  0  0  0  0
   29.1886  -19.7652   -6.5643 C   0  0  0  0  0  0  0  0  0  0  0  0
   29.5834  -20.7840   -7.3880 C   0  0  0  0  0  0  0  0  0  0  0  0
   28.7204  -21.2651   -8.3391 C   0  0  0  0  0  0  0  0  0  0  0  0
   27.4559  -20.7674   -8.5097 C   0  0  0  0  0  0  0  0  0  0  0  0
   24.6253  -20.6587  -11.4822 C   0  0  0  0  0  0  0  0  0  0  0  0
   24.8267  -19.4175  -11.5253 O   0  0  0  0  0  0  0  0  0  0  0  0
   23.3089  -21.0540  -11.2288 O   0  0  0  0  0  0  0  0  0  0  0  0
  2  1  1  6
  3  2  1  0
  4  3  1  0
  5  4  1  0
  5  6  1  0
  6  7  1  0
  8  2  1  0
  9  8  2  0
 10  8  1  0
 10 11  1  0
 12 11  1  0
 13 12  1  0
 14 13  1  0
 14 10  1  0
 14 15  1  1
 15 16  2  0
 17 15  1  0
 18 29  1  0
 18 17  1  0
 18 19  1  1
 20 19  1  0
 20 21  2  0
 22 21  1  0
 23 22  1  0
 24 23  2  0
 25 24  1  0
 26 25  2  0
 26 27  1  0
 27 28  2  0
 28 23  1  0
 28 20  1  0
 29 31  1  0
 30 29  2  0
M  END
$$$$
