KPW.pdb
     RDKit          3D

 31 33  0  0  1  0  0  0  0  0999 V2000
   27.0333  -19.7985  -19.4989 N   0  0  0  0  0  0  0  0  0  0  0  0
   27.0675  -20.2757  -18.1580 C   0  0  1  0  0  0  0  0  0  0  0  0
   27.3164  -19.1499  -17.1938 C   0  0  0  0  0  0  0  0  0  0  0  0
   26.4174  -17.9799  -17.4008 C   0  0  0  0  0  0  0  0  0  0  0  0
   26.5999  -16.8803  -16.3850 C   0  0  0  0  0  0  0  0  0  0  0  0
   25.6947  -15.7144  -16.5976 C   0  0  0  0  0  0  0  0  0  0  0  0
   25.1485  -15.1833  -15.3619 N   0  0  0  0  0  0  0  0  0  0  0  0
   25.8130  -21.0055  -17.7892 C   0  0  0  0  0  0  0  0  0  0  0  0
   24.7314  -20.6993  -18.3831 O   0  0  0  0  0  0  0  0  0  0  0  0
   25.7852  -22.0249  -16.8024 N   0  0  0  0  0  0  0  0  0  0  0  0
   26.8475  -22.5089  -15.9500 C   0  0  0  0  0  0  0  0  0  0  0  0
   26.3594  -23.8449  -15.3743 C   0  0  0  0  0  0  0  0  0  0  0  0
   25.1926  -24.1977  -16.3145 C   0  0  0  0  0  0  0  0  0  0  0  0
   24.6045  -22.7874  -16.4675 C   0  0  1  0  0  0  0  0  0  0  0  0
   24.0835  -22.4414  -15.1110 C   0  0  0  0  0  0  0  0  0  0  0  0
   24.8155  -22.3793  -14.0912 O   0  0  0  0  0  0  0  0  0  0  0  0
   22.7241  -22.1704  -14.9420 N   0  0  0  0  0  0  0  0  0  0  0  0
   22.0758  -21.6567  -13.7700 C   0  0  1  0  0  0  0  0  0  0  0  0
   22.7141  -20.5111  -13.1205 C   0  0  0  0  0  0  0  0  0  0  0  0
   23.0171  -19.3789  -14.0221 C   0  0  0  0  0  0  0  0  0  0  0  0
   22.0285  -18.6668  -14.7202 C   0  0  0  0  0  0  0  0  0  0  0  0
   22.5817  -17.6807  -15.4268 N   0  0  0  0  0  0  0  0  0  0  0  0
   23.9022  -17.6794  -15.2498 C   0  0  0  0  0  0  0  0  0  0  0  0
   24.9315  -16.8966  -15.7401 C   0  0  0  0  0  0  0  0  0  0  0  0
   26.2284  -17.1409  -15.3827 C   0  0  0  0  0  0  0  0  0  0  0  0
   26.5049  -18.1742  -14.5293 C   0  0  0  0  0  0  0  0  0  0  0  0
   25.4832  -18.9494  -14.0437 C   0  0  0  0  0  0  0  0  0  0  0  0
   24.1716  -18.7370  -14.3760 C   0  0  0  0  0  0  0  0  0  0  0  0
   20.6372  -21.4989  -13.9606 C   0  0  0  0  0  0  0  0  0  0  0  0
   20.1234  -21.5139  -15.1089 O   0  0  0  0  0  0  0  0  0  0  0  0
   19.7473  -21.3235  -12.8971 O   0  0  0  0  0  0  0  0  0  0  0  0
  2  1  1  6
  3  2  1  0
  4  3  1  0
  5  4  1  0
  5  6  1  0
  6  7  1  0
  8  2  1  0
  9  8  2  0
 10  8  1  0
 10 11  1  0
 12 11  1  0
 13 12  1  0
 14 13  1  0
 14 10  1  0
 14 15  1  1
 15 16  2  0
 17 15  1  0
 18 29  1  0
 18 17  1  0
 18 19  1  6
 20 19  1  0
 20 21  2  0
 22 21  1  0
 23 22  1  0
 24 23  2  0
 25 24  1  0
 26 25  2  0
 26 27  1  0
 27 28  2  0
 28 23  1  0
 28 20  1  0
 29 31  1  0
 30 29  2  0
M  END
$$$$
