KPW.pdb
     RDKit          3D

 31 33  0  0  1  0  0  0  0  0999 V2000
   24.6588  -19.6409  -19.0024 N   0  0  0  0  0  0  0  0  0  0  0  0
   25.4013  -19.0403  -17.9465 C   0  0  1  0  0  0  0  0  0  0  0  0
   24.6859  -17.8342  -17.4057 C   0  0  0  0  0  0  0  0  0  0  0  0
   24.5545  -16.7276  -18.3948 C   0  0  0  0  0  0  0  0  0  0  0  0
   23.1288  -16.3272  -18.6798 C   0  0  0  0  0  0  0  0  0  0  0  0
   22.8600  -14.8771  -18.4595 C   0  0  0  0  0  0  0  0  0  0  0  0
   21.4837  -14.5040  -18.7317 N   0  0  0  0  0  0  0  0  0  0  0  0
   25.6911  -20.0089  -16.8418 C   0  0  0  0  0  0  0  0  0  0  0  0
   24.8528  -20.9353  -16.6064 O   0  0  0  0  0  0  0  0  0  0  0  0
   26.8648  -19.9320  -16.0479 N   0  0  0  0  0  0  0  0  0  0  0  0
   27.9220  -18.9464  -16.0623 C   0  0  0  0  0  0  0  0  0  0  0  0
   29.0928  -19.5630  -15.2855 C   0  0  0  0  0  0  0  0  0  0  0  0
   28.7154  -21.0552  -15.2580 C   0  0  0  0  0  0  0  0  0  0  0  0
   27.2065  -20.8921  -15.0236 C   0  0  1  0  0  0  0  0  0  0  0  0
   27.0936  -20.3092  -13.6530 C   0  0  0  0  0  0  0  0  0  0  0  0
   27.4563  -19.1385  -13.3743 O   0  0  0  0  0  0  0  0  0  0  0  0
   26.5640  -21.0804  -12.6162 N   0  0  0  0  0  0  0  0  0  0  0  0
   26.1605  -20.6333  -11.3143 C   0  0  1  0  0  0  0  0  0  0  0  0
   25.3381  -19.4236  -11.2658 C   0  0  0  0  0  0  0  0  0  0  0  0
   24.0253  -19.5412  -11.9359 C   0  0  0  0  0  0  0  0  0  0  0  0
   22.9335  -20.2216  -11.3731 C   0  0  0  0  0  0  0  0  0  0  0  0
   21.8730  -20.1380  -12.1768 N   0  0  0  0  0  0  0  0  0  0  0  0
   22.1811  -19.4340  -13.2651 C   0  0  0  0  0  0  0  0  0  0  0  0
   21.4743  -19.0600  -14.3934 C   0  0  0  0  0  0  0  0  0  0  0  0
   22.0692  -18.3249  -15.3807 C   0  0  0  0  0  0  0  0  0  0  0  0
   23.3805  -17.9578  -15.2452 C   0  0  0  0  0  0  0  0  0  0  0  0
   24.0801  -18.3292  -14.1256 C   0  0  0  0  0  0  0  0  0  0  0  0
   23.5209  -19.0640  -13.1141 C   0  0  0  0  0  0  0  0  0  0  0  0
   25.6506  -21.7249  -10.4903 C   0  0  0  0  0  0  0  0  0  0  0  0
   25.4302  -21.5697   -9.2614 O   0  0  0  0  0  0  0  0  0  0  0  0
   25.3769  -22.9962  -11.0027 O   0  0  0  0  0  0  0  0  0  0  0  0
  2  1  1  6
  3  2  1  0
  4  3  1  0
  5  4  1  0
  5  6  1  0
  6  7  1  0
  8  2  1  0
  9  8  2  0
 10  8  1  0
 10 11  1  0
 12 11  1  0
 13 12  1  0
 14 13  1  0
 14 10  1  0
 14 15  1  1
 15 16  2  0
 17 15  1  0
 18 29  1  0
 18 17  1  0
 18 19  1  6
 20 19  1  0
 20 21  2  0
 22 21  1  0
 23 22  1  0
 24 23  2  0
 25 24  1  0
 26 25  2  0
 26 27  1  0
 27 28  2  0
 28 23  1  0
 28 20  1  0
 29 31  1  0
 30 29  2  0
M  END
$$$$
