EVD.pdb
     RDKit          3D

 25 24  0  0  1  0  0  0  0  0999 V2000
    8.4383  -14.2358   20.2434 N   0  0  0  0  0  0  0  0  0  0  0  0
    7.4387  -14.3715   21.2767 C   0  0  1  0  0  0  0  0  0  0  0  0
    6.7068  -15.6974   21.1677 C   0  0  0  0  0  0  0  0  0  0  0  0
    7.5334  -16.7082   20.3973 C   0  0  0  0  0  0  0  0  0  0  0  0
    6.7971  -17.9768   20.3186 C   0  0  0  0  0  0  0  0  0  0  0  0
    6.4507  -18.4868   19.2186 O   0  0  0  0  0  0  0  0  0  0  0  0
    7.9973  -14.2838   22.6482 C   0  0  0  0  0  0  0  0  0  0  0  0
    9.2038  -14.6028   22.8936 O   0  0  0  0  0  0  0  0  0  0  0  0
    6.4598  -18.6526   21.4719 O   0  0  0  0  0  0  0  0  0  0  0  0
    7.5643  -12.8265   27.3108 C   0  0  0  0  0  0  0  0  0  0  0  0
    6.8614  -12.9496   25.9723 C   0  0  1  0  0  0  0  0  0  0  0  0
    6.6310  -11.5774   25.3420 C   0  0  0  0  0  0  0  0  0  0  0  0
    7.7605  -13.7159   25.0443 C   0  0  2  0  0  0  0  0  0  0  0  0
    7.1762  -13.8363   23.7136 N   0  0  0  0  0  0  0  0  0  0  0  0
    7.8805  -15.1133   25.5888 C   0  0  0  0  0  0  0  0  0  0  0  0
    7.2663  -16.0843   25.1072 O   0  0  0  0  0  0  0  0  0  0  0  0
    8.7305  -15.2912   26.6858 N   0  0  0  0  0  0  0  0  0  0  0  0
    9.6027  -16.4776   26.8427 C   0  0  1  0  0  0  0  0  0  0  0  0
   10.5317  -16.4239   25.6761 C   0  0  0  0  0  0  0  0  0  0  0  0
   11.1018  -17.6816   25.2289 C   0  0  0  0  0  0  0  0  0  0  0  0
   10.7225  -18.7281   25.8183 O   0  0  0  0  0  0  0  0  0  0  0  0
   10.2409  -16.3354   28.1603 C   0  0  0  0  0  0  0  0  0  0  0  0
   10.7697  -15.1288   28.5502 O   0  0  0  0  0  0  0  0  0  0  0  0
   12.0212  -17.8024   24.2129 O   0  0  0  0  0  0  0  0  0  0  0  0
   10.3136  -17.3074   28.9442 O   0  0  0  0  0  0  0  0  0  0  0  0
  2  1  1  6
  2  7  1  0
  3  2  1  0
  4  3  1  0
  5  4  1  0
  6  5  2  0
  7  8  2  0
  9  5  1  0
 11 10  1  1
 11 12  1  0
 13 11  1  0
 14  7  1  0
 13 14  1  6
 15 17  1  0
 15 13  1  0
 16 15  2  0
 18 22  1  0
 18 19  1  6
 18 17  1  0
 19 20  1  0
 20 21  2  0
 20 24  1  0
 22 23  1  0
 25 22  2  0
M  END
$$$$
