EVD.pdb
     RDKit          3D

 25 24  0  0  1  0  0  0  0  0999 V2000
    9.5012  -16.5455   15.7063 N   0  0  0  0  0  0  0  0  0  0  0  0
    8.6055  -16.7086   16.8272 C   0  0  1  0  0  0  0  0  0  0  0  0
    8.3606  -18.1760   17.1307 C   0  0  0  0  0  0  0  0  0  0  0  0
    9.6611  -18.8841   17.4555 C   0  0  0  0  0  0  0  0  0  0  0  0
    9.3980  -20.3166   17.6465 C   0  0  0  0  0  0  0  0  0  0  0  0
    8.5817  -20.9529   16.9261 O   0  0  0  0  0  0  0  0  0  0  0  0
    9.1032  -16.0743   18.0726 C   0  0  0  0  0  0  0  0  0  0  0  0
   10.3481  -15.9651   18.3084 O   0  0  0  0  0  0  0  0  0  0  0  0
   10.0517  -21.0126   18.6409 O   0  0  0  0  0  0  0  0  0  0  0  0
    8.2139  -13.2809   21.9971 C   0  0  0  0  0  0  0  0  0  0  0  0
    7.6300  -13.9473   20.7659 C   0  0  1  0  0  0  0  0  0  0  0  0
    7.2614  -12.9148   19.7023 C   0  0  0  0  0  0  0  0  0  0  0  0
    8.6874  -14.8340   20.1723 C   0  0  2  0  0  0  0  0  0  0  0  0
    8.1786  -15.5770   19.0253 N   0  0  0  0  0  0  0  0  0  0  0  0
    9.0553  -15.8536   21.2158 C   0  0  0  0  0  0  0  0  0  0  0  0
    8.3274  -16.8226   21.5038 O   0  0  0  0  0  0  0  0  0  0  0  0
   10.2783  -15.6719   21.8705 N   0  0  0  0  0  0  0  0  0  0  0  0
   10.7758  -16.5962   22.9151 C   0  0  1  0  0  0  0  0  0  0  0  0
   12.2245  -16.2667   23.0562 C   0  0  0  0  0  0  0  0  0  0  0  0
   13.0940  -16.6308   21.9524 C   0  0  0  0  0  0  0  0  0  0  0  0
   12.8547  -17.7192   21.3652 O   0  0  0  0  0  0  0  0  0  0  0  0
    9.9539  -16.3353   24.1066 C   0  0  0  0  0  0  0  0  0  0  0  0
    9.4620  -15.0757   24.3498 O   0  0  0  0  0  0  0  0  0  0  0  0
   14.1525  -15.8711   21.5114 O   0  0  0  0  0  0  0  0  0  0  0  0
    9.6912  -17.2521   24.9159 O   0  0  0  0  0  0  0  0  0  0  0  0
  2  1  1  6
  2  7  1  0
  3  2  1  0
  4  3  1  0
  5  4  1  0
  6  5  2  0
  7  8  2  0
  9  5  1  0
 11 10  1  1
 11 12  1  0
 13 11  1  0
 14  7  1  0
 13 14  1  6
 15 17  1  0
 15 13  1  0
 16 15  2  0
 18 22  1  0
 18 19  1  1
 18 17  1  0
 19 20  1  0
 20 21  2  0
 20 24  1  0
 22 23  1  0
 25 22  2  0
M  END
$$$$
