EVD.pdb
     RDKit          3D

 25 24  0  0  1  0  0  0  0  0999 V2000
    8.3429  -17.8682   20.0472 N   0  0  0  0  0  0  0  0  0  0  0  0
    9.7108  -17.4979   20.3251 C   0  0  1  0  0  0  0  0  0  0  0  0
   10.3313  -16.7550   19.1553 C   0  0  0  0  0  0  0  0  0  0  0  0
   10.2419  -17.5778   17.8851 C   0  0  0  0  0  0  0  0  0  0  0  0
   11.5977  -17.8770   17.4054 C   0  0  0  0  0  0  0  0  0  0  0  0
   12.3411  -18.7227   17.9730 O   0  0  0  0  0  0  0  0  0  0  0  0
    9.8530  -16.6363   21.5244 C   0  0  0  0  0  0  0  0  0  0  0  0
   10.9920  -16.2256   21.9135 O   0  0  0  0  0  0  0  0  0  0  0  0
   12.0990  -17.2242   16.2994 O   0  0  0  0  0  0  0  0  0  0  0  0
    7.9501  -13.8732   25.0616 C   0  0  0  0  0  0  0  0  0  0  0  0
    7.7012  -14.5990   23.7532 C   0  0  1  0  0  0  0  0  0  0  0  0
    7.6210  -13.6182   22.5849 C   0  0  0  0  0  0  0  0  0  0  0  0
    8.8738  -15.5010   23.4921 C   0  0  2  0  0  0  0  0  0  0  0  0
    8.7004  -16.2582   22.2580 N   0  0  0  0  0  0  0  0  0  0  0  0
    8.9234  -16.5068   24.6100 C   0  0  0  0  0  0  0  0  0  0  0  0
    7.9587  -17.2357   24.9101 O   0  0  0  0  0  0  0  0  0  0  0  0
   10.1244  -16.5994   25.3216 N   0  0  0  0  0  0  0  0  0  0  0  0
   10.3953  -17.6727   26.3051 C   0  0  1  0  0  0  0  0  0  0  0  0
   11.5425  -18.4349   25.7305 C   0  0  0  0  0  0  0  0  0  0  0  0
   12.1092  -19.4904   26.5499 C   0  0  0  0  0  0  0  0  0  0  0  0
   11.5233  -19.7569   27.6326 O   0  0  0  0  0  0  0  0  0  0  0  0
   10.6702  -16.9903   27.5788 C   0  0  0  0  0  0  0  0  0  0  0  0
   10.2646  -17.5470   28.7676 O   0  0  0  0  0  0  0  0  0  0  0  0
   13.2344  -20.2109   26.2231 O   0  0  0  0  0  0  0  0  0  0  0  0
   11.2745  -15.8954   27.6006 O   0  0  0  0  0  0  0  0  0  0  0  0
  2  1  1  6
  2  7  1  0
  3  2  1  0
  4  3  1  0
  5  4  1  0
  6  5  2  0
  7  8  2  0
  9  5  1  0
 11 10  1  1
 11 12  1  0
 13 11  1  0
 14  7  1  0
 13 14  1  6
 15 17  1  0
 15 13  1  0
 16 15  2  0
 18 22  1  0
 18 19  1  6
 18 17  1  0
 19 20  1  0
 20 21  2  0
 20 24  1  0
 22 23  1  0
 25 22  2  0
M  END
$$$$
