EVD.pdb
     RDKit          3D

 25 24  0  0  1  0  0  0  0  0999 V2000
    9.0841  -16.1526   15.0925 N   0  0  0  0  0  0  0  0  0  0  0  0
    8.4280  -16.6436   16.2816 C   0  0  1  0  0  0  0  0  0  0  0  0
    8.5736  -18.1493   16.4120 C   0  0  0  0  0  0  0  0  0  0  0  0
    7.9164  -18.6466   17.6846 C   0  0  0  0  0  0  0  0  0  0  0  0
    8.1635  -20.0877   17.8260 C   0  0  0  0  0  0  0  0  0  0  0  0
    9.2316  -20.5422   18.3187 O   0  0  0  0  0  0  0  0  0  0  0  0
    8.9485  -16.0369   17.5313 C   0  0  0  0  0  0  0  0  0  0  0  0
   10.1975  -15.9481   17.7543 O   0  0  0  0  0  0  0  0  0  0  0  0
    7.2119  -20.9956   17.4128 O   0  0  0  0  0  0  0  0  0  0  0  0
    8.1069  -13.3974   21.5831 C   0  0  0  0  0  0  0  0  0  0  0  0
    7.5021  -14.0172   20.3377 C   0  0  1  0  0  0  0  0  0  0  0  0
    7.0415  -12.9427   19.3547 C   0  0  0  0  0  0  0  0  0  0  0  0
    8.5728  -14.8151   19.6493 C   0  0  2  0  0  0  0  0  0  0  0  0
    8.0418  -15.5433   18.5029 N   0  0  0  0  0  0  0  0  0  0  0  0
    9.0599  -15.8495   20.6274 C   0  0  0  0  0  0  0  0  0  0  0  0
    8.5694  -16.9918   20.7073 O   0  0  0  0  0  0  0  0  0  0  0  0
   10.1135  -15.4748   21.4682 N   0  0  0  0  0  0  0  0  0  0  0  0
   10.8066  -16.4299   22.3627 C   0  0  1  0  0  0  0  0  0  0  0  0
   12.2567  -16.2535   22.0574 C   0  0  0  0  0  0  0  0  0  0  0  0
   13.1969  -17.0101   22.8638 C   0  0  0  0  0  0  0  0  0  0  0  0
   12.7176  -17.7738   23.7433 O   0  0  0  0  0  0  0  0  0  0  0  0
   10.4040  -16.0647   23.7295 C   0  0  0  0  0  0  0  0  0  0  0  0
   10.2083  -17.0374   24.6799 O   0  0  0  0  0  0  0  0  0  0  0  0
   14.5646  -16.9467   22.7306 O   0  0  0  0  0  0  0  0  0  0  0  0
   10.2327  -14.8673   24.0476 O   0  0  0  0  0  0  0  0  0  0  0  0
  2  1  1  6
  2  7  1  0
  3  2  1  0
  4  3  1  0
  5  4  1  0
  6  5  2  0
  7  8  2  0
  9  5  1  0
 11 10  1  1
 11 12  1  0
 13 11  1  0
 14  7  1  0
 13 14  1  6
 15 17  1  0
 15 13  1  0
 16 15  2  0
 18 22  1  0
 18 19  1  1
 18 17  1  0
 19 20  1  0
 20 21  2  0
 20 24  1  0
 22 23  1  0
 25 22  2  0
M  END
$$$$
