EVD.pdb
     RDKit          3D

 25 24  0  0  1  0  0  0  0  0999 V2000
    6.4486  -16.3997   22.1120 N   0  0  0  0  0  0  0  0  0  0  0  0
    7.8916  -16.4212   22.1643 C   0  0  1  0  0  0  0  0  0  0  0  0
    8.4997  -15.8894   20.8788 C   0  0  0  0  0  0  0  0  0  0  0  0
    7.8141  -16.4916   19.6681 C   0  0  0  0  0  0  0  0  0  0  0  0
    8.4540  -15.9845   18.4470 C   0  0  0  0  0  0  0  0  0  0  0  0
    8.0270  -16.2696   17.2952 O   0  0  0  0  0  0  0  0  0  0  0  0
    8.4497  -15.6231   23.2834 C   0  0  0  0  0  0  0  0  0  0  0  0
    9.7026  -15.4443   23.4090 O   0  0  0  0  0  0  0  0  0  0  0  0
    9.5613  -15.1680   18.5352 O   0  0  0  0  0  0  0  0  0  0  0  0
    7.8410  -12.6807   27.1449 C   0  0  0  0  0  0  0  0  0  0  0  0
    7.1495  -13.4127   26.0105 C   0  0  1  0  0  0  0  0  0  0  0  0
    6.6831  -12.4396   24.9294 C   0  0  0  0  0  0  0  0  0  0  0  0
    8.1510  -14.3332   25.3731 C   0  0  2  0  0  0  0  0  0  0  0  0
    7.5755  -15.0440   24.2373 N   0  0  0  0  0  0  0  0  0  0  0  0
    8.5138  -15.3771   26.3941 C   0  0  0  0  0  0  0  0  0  0  0  0
    7.6757  -16.1388   26.9131 O   0  0  0  0  0  0  0  0  0  0  0  0
    9.8636  -15.4669   26.7512 N   0  0  0  0  0  0  0  0  0  0  0  0
   10.3768  -16.4747   27.7071 C   0  0  1  0  0  0  0  0  0  0  0  0
   11.6186  -17.0046   27.0714 C   0  0  0  0  0  0  0  0  0  0  0  0
   12.4058  -17.9461   27.8463 C   0  0  0  0  0  0  0  0  0  0  0  0
   11.9091  -18.3601   28.9273 O   0  0  0  0  0  0  0  0  0  0  0  0
   10.5778  -15.7588   28.9762 C   0  0  0  0  0  0  0  0  0  0  0  0
   10.3023  -16.3746   30.1731 O   0  0  0  0  0  0  0  0  0  0  0  0
   13.6477  -18.4102   27.4797 O   0  0  0  0  0  0  0  0  0  0  0  0
   11.0002  -14.5815   28.9866 O   0  0  0  0  0  0  0  0  0  0  0  0
  2  1  1  6
  2  7  1  0
  3  2  1  0
  4  3  1  0
  5  4  1  0
  6  5  2  0
  7  8  2  0
  9  5  1  0
 11 10  1  1
 11 12  1  0
 13 11  1  0
 14  7  1  0
 13 14  1  6
 15 17  1  0
 15 13  1  0
 16 15  2  0
 18 22  1  0
 18 19  1  6
 18 17  1  0
 19 20  1  0
 20 21  2  0
 20 24  1  0
 22 23  1  0
 25 22  2  0
M  END
$$$$
