EVD.pdb
     RDKit          3D

 25 24  0  0  1  0  0  0  0  0999 V2000
    9.4627  -17.2260   16.1961 N   0  0  0  0  0  0  0  0  0  0  0  0
    8.5817  -17.2401   17.3403 C   0  0  1  0  0  0  0  0  0  0  0  0
    8.3790  -18.6504   17.8650 C   0  0  0  0  0  0  0  0  0  0  0  0
    9.5027  -19.5615   17.4115 C   0  0  0  0  0  0  0  0  0  0  0  0
    9.3495  -20.8749   18.0514 C   0  0  0  0  0  0  0  0  0  0  0  0
   10.3396  -21.5674   18.4120 O   0  0  0  0  0  0  0  0  0  0  0  0
    9.0733  -16.4124   18.4690 C   0  0  0  0  0  0  0  0  0  0  0  0
   10.3010  -16.0976   18.5740 O   0  0  0  0  0  0  0  0  0  0  0  0
    8.0912  -21.3915   18.2757 O   0  0  0  0  0  0  0  0  0  0  0  0
    8.0683  -13.4710   22.2598 C   0  0  0  0  0  0  0  0  0  0  0  0
    7.5382  -14.2026   21.0413 C   0  0  1  0  0  0  0  0  0  0  0  0
    7.1391  -13.2226   19.9398 C   0  0  0  0  0  0  0  0  0  0  0  0
    8.6469  -15.0551   20.4928 C   0  0  2  0  0  0  0  0  0  0  0  0
    8.1623  -15.9587   19.4560 N   0  0  0  0  0  0  0  0  0  0  0  0
    9.1458  -15.9204   21.6181 C   0  0  0  0  0  0  0  0  0  0  0  0
    8.5349  -16.9287   22.0208 O   0  0  0  0  0  0  0  0  0  0  0  0
   10.3544  -15.5442   22.2141 N   0  0  0  0  0  0  0  0  0  0  0  0
   10.9628  -16.2913   23.3386 C   0  0  1  0  0  0  0  0  0  0  0  0
   12.3380  -15.7270   23.4706 C   0  0  0  0  0  0  0  0  0  0  0  0
   13.4034  -16.4146   22.7642 C   0  0  0  0  0  0  0  0  0  0  0  0
   13.1190  -17.5162   22.2237 O   0  0  0  0  0  0  0  0  0  0  0  0
   10.0795  -16.0684   24.4934 C   0  0  0  0  0  0  0  0  0  0  0  0
    9.8565  -17.0741   25.4026 O   0  0  0  0  0  0  0  0  0  0  0  0
   14.6912  -15.9451   22.6489 O   0  0  0  0  0  0  0  0  0  0  0  0
    9.5179  -14.9641   24.6656 O   0  0  0  0  0  0  0  0  0  0  0  0
  2  1  1  6
  2  7  1  0
  3  2  1  0
  4  3  1  0
  5  4  1  0
  6  5  2  0
  7  8  2  0
  9  5  1  0
 11 10  1  1
 11 12  1  0
 13 11  1  0
 14  7  1  0
 13 14  1  6
 15 17  1  0
 15 13  1  0
 16 15  2  0
 18 22  1  0
 18 19  1  1
 18 17  1  0
 19 20  1  0
 20 21  2  0
 20 24  1  0
 22 23  1  0
 25 22  2  0
M  END
$$$$
