EVD.pdb
     RDKit          3D

 25 24  0  0  1  0  0  0  0  0999 V2000
    7.8214  -14.5294   20.6439 N   0  0  0  0  0  0  0  0  0  0  0  0
    7.1391  -14.5706   21.9159 C   0  0  1  0  0  0  0  0  0  0  0  0
    6.4481  -15.9055   22.1301 C   0  0  0  0  0  0  0  0  0  0  0  0
    6.8324  -16.8921   21.0451 C   0  0  0  0  0  0  0  0  0  0  0  0
    6.8887  -18.2438   21.6174 C   0  0  0  0  0  0  0  0  0  0  0  0
    7.9800  -18.8285   21.8565 O   0  0  0  0  0  0  0  0  0  0  0  0
    8.0407  -14.3463   23.0725 C   0  0  0  0  0  0  0  0  0  0  0  0
    9.3005  -14.4846   22.9667 O   0  0  0  0  0  0  0  0  0  0  0  0
    5.7231  -18.9188   21.9112 O   0  0  0  0  0  0  0  0  0  0  0  0
    7.6805  -11.4020   25.8454 C   0  0  0  0  0  0  0  0  0  0  0  0
    7.7771  -12.7896   26.4503 C   0  0  1  0  0  0  0  0  0  0  0  0
    6.3920  -13.3540   26.7602 C   0  0  0  0  0  0  0  0  0  0  0  0
    8.4055  -13.6975   25.4317 C   0  0  2  0  0  0  0  0  0  0  0  0
    7.4951  -13.9697   24.3256 N   0  0  0  0  0  0  0  0  0  0  0  0
    8.6671  -15.0163   26.1072 C   0  0  0  0  0  0  0  0  0  0  0  0
    7.7841  -15.8783   26.2776 O   0  0  0  0  0  0  0  0  0  0  0  0
    9.9737  -15.2491   26.5500 N   0  0  0  0  0  0  0  0  0  0  0  0
   10.3945  -16.5221   27.1787 C   0  0  1  0  0  0  0  0  0  0  0  0
   11.7399  -16.8065   26.5989 C   0  0  0  0  0  0  0  0  0  0  0  0
   11.7746  -17.4350   25.2910 C   0  0  0  0  0  0  0  0  0  0  0  0
   10.6691  -17.6685   24.7344 O   0  0  0  0  0  0  0  0  0  0  0  0
   10.3748  -16.2794   28.6293 C   0  0  0  0  0  0  0  0  0  0  0  0
   10.2647  -17.3294   29.5085 O   0  0  0  0  0  0  0  0  0  0  0  0
   12.9263  -17.7889   24.6273 O   0  0  0  0  0  0  0  0  0  0  0  0
   10.4563  -15.1173   29.0847 O   0  0  0  0  0  0  0  0  0  0  0  0
  2  1  1  6
  2  7  1  0
  3  2  1  0
  4  3  1  0
  5  4  1  0
  6  5  2  0
  7  8  2  0
  9  5  1  0
 11 10  1  6
 11 12  1  0
 13 11  1  0
 14  7  1  0
 13 14  1  6
 15 17  1  0
 15 13  1  0
 16 15  2  0
 18 22  1  0
 18 19  1  6
 18 17  1  0
 19 20  1  0
 20 21  2  0
 20 24  1  0
 22 23  1  0
 25 22  2  0
M  END
$$$$
