EVD.pdb
     RDKit          3D

 25 24  0  0  1  0  0  0  0  0999 V2000
    7.8845  -13.1588   20.2411 N   0  0  0  0  0  0  0  0  0  0  0  0
    7.1492  -13.8268   21.2892 C   0  0  1  0  0  0  0  0  0  0  0  0
    6.8324  -15.2634   20.9135 C   0  0  0  0  0  0  0  0  0  0  0  0
    8.0715  -15.9739   20.4051 C   0  0  0  0  0  0  0  0  0  0  0  0
    7.7339  -17.3672   20.0851 C   0  0  0  0  0  0  0  0  0  0  0  0
    7.7089  -18.2723   20.9627 O   0  0  0  0  0  0  0  0  0  0  0  0
    7.8706  -13.8551   22.5851 C   0  0  0  0  0  0  0  0  0  0  0  0
    9.1399  -13.7940   22.6380 O   0  0  0  0  0  0  0  0  0  0  0  0
    7.4312  -17.7244   18.7884 O   0  0  0  0  0  0  0  0  0  0  0  0
    7.8011  -13.1545   27.4053 C   0  0  0  0  0  0  0  0  0  0  0  0
    6.9856  -13.2339   26.1288 C   0  0  1  0  0  0  0  0  0  0  0  0
    6.5750  -11.8431   25.6491 C   0  0  0  0  0  0  0  0  0  0  0  0
    7.8548  -13.8308   25.0588 C   0  0  2  0  0  0  0  0  0  0  0  0
    7.1379  -13.9522   23.7948 N   0  0  0  0  0  0  0  0  0  0  0  0
    8.2022  -15.2293   25.4917 C   0  0  0  0  0  0  0  0  0  0  0  0
    7.3523  -16.1313   25.6181 O   0  0  0  0  0  0  0  0  0  0  0  0
    9.5513  -15.4906   25.7547 N   0  0  0  0  0  0  0  0  0  0  0  0
   10.0492  -16.8289   26.1470 C   0  0  1  0  0  0  0  0  0  0  0  0
   11.4806  -16.8412   25.7253 C   0  0  0  0  0  0  0  0  0  0  0  0
   11.7492  -16.7533   24.3016 C   0  0  0  0  0  0  0  0  0  0  0  0
   10.9962  -17.4066   23.5317 O   0  0  0  0  0  0  0  0  0  0  0  0
    9.8210  -16.9333   27.5963 C   0  0  0  0  0  0  0  0  0  0  0  0
    9.8209  -18.1608   28.2135 O   0  0  0  0  0  0  0  0  0  0  0  0
   12.7639  -16.0098   23.7448 O   0  0  0  0  0  0  0  0  0  0  0  0
    9.6227  -15.9103   28.2881 O   0  0  0  0  0  0  0  0  0  0  0  0
  2  1  1  6
  2  7  1  0
  3  2  1  0
  4  3  1  0
  5  4  1  0
  6  5  2  0
  7  8  2  0
  9  5  1  0
 11 10  1  1
 11 12  1  0
 13 11  1  0
 14  7  1  0
 13 14  1  6
 15 17  1  0
 15 13  1  0
 16 15  2  0
 18 22  1  0
 18 19  1  1
 18 17  1  0
 19 20  1  0
 20 21  2  0
 20 24  1  0
 22 23  1  0
 25 22  2  0
M  END
$$$$
