EVD.pdb
     RDKit          3D

 25 24  0  0  1  0  0  0  0  0999 V2000
    7.6816  -15.8581   21.1423 N   0  0  0  0  0  0  0  0  0  0  0  0
    7.1651  -16.0029   22.4830 C   0  0  1  0  0  0  0  0  0  0  0  0
    7.1269  -17.4604   22.9067 C   0  0  0  0  0  0  0  0  0  0  0  0
    6.2056  -18.2599   22.0065 C   0  0  0  0  0  0  0  0  0  0  0  0
    6.1630  -19.6527   22.4714 C   0  0  0  0  0  0  0  0  0  0  0  0
    5.3448  -20.0453   23.3470 O   0  0  0  0  0  0  0  0  0  0  0  0
    7.9558  -15.2654   23.4988 C   0  0  0  0  0  0  0  0  0  0  0  0
    9.2255  -15.2173   23.4429 O   0  0  0  0  0  0  0  0  0  0  0  0
    7.0373  -20.5822   21.9497 O   0  0  0  0  0  0  0  0  0  0  0  0
    8.1777  -12.4535   27.5118 C   0  0  0  0  0  0  0  0  0  0  0  0
    7.2756  -13.0334   26.4390 C   0  0  1  0  0  0  0  0  0  0  0  0
    6.7677  -11.9436   25.4970 C   0  0  0  0  0  0  0  0  0  0  0  0
    8.0909  -13.9865   25.6121 C   0  0  2  0  0  0  0  0  0  0  0  0
    7.2904  -14.5976   24.5575 N   0  0  0  0  0  0  0  0  0  0  0  0
    8.5313  -15.1033   26.5190 C   0  0  0  0  0  0  0  0  0  0  0  0
    7.7447  -15.9504   26.9835 O   0  0  0  0  0  0  0  0  0  0  0  0
    9.8938  -15.1609   26.8319 N   0  0  0  0  0  0  0  0  0  0  0  0
   10.4779  -16.2187   27.6878 C   0  0  1  0  0  0  0  0  0  0  0  0
   11.8935  -16.3393   27.2310 C   0  0  0  0  0  0  0  0  0  0  0  0
   12.1187  -16.9633   25.9400 C   0  0  0  0  0  0  0  0  0  0  0  0
   11.1952  -17.6861   25.4804 O   0  0  0  0  0  0  0  0  0  0  0  0
   10.3027  -15.7566   29.0732 C   0  0  0  0  0  0  0  0  0  0  0  0
   10.2050  -16.6629   30.1013 O   0  0  0  0  0  0  0  0  0  0  0  0
   13.2652  -16.8177   25.1940 O   0  0  0  0  0  0  0  0  0  0  0  0
   10.2387  -14.5358   29.3372 O   0  0  0  0  0  0  0  0  0  0  0  0
  2  1  1  6
  2  7  1  0
  3  2  1  0
  4  3  1  0
  5  4  1  0
  6  5  2  0
  7  8  2  0
  9  5  1  0
 11 10  1  1
 11 12  1  0
 13 11  1  0
 14  7  1  0
 13 14  1  6
 15 17  1  0
 15 13  1  0
 16 15  2  0
 18 22  1  0
 18 19  1  6
 18 17  1  0
 19 20  1  0
 20 21  2  0
 20 24  1  0
 22 23  1  0
 25 22  2  0
M  END
$$$$
