EVD.pdb
     RDKit          3D

 25 24  0  0  1  0  0  0  0  0999 V2000
    8.0861  -17.5425   17.0908 N   0  0  0  0  0  0  0  0  0  0  0  0
    9.2884  -17.7377   17.8666 C   0  0  1  0  0  0  0  0  0  0  0  0
   10.5156  -17.8131   16.9757 C   0  0  0  0  0  0  0  0  0  0  0  0
   10.2464  -18.6757   15.7584 C   0  0  0  0  0  0  0  0  0  0  0  0
   11.4664  -18.7592   14.9446 C   0  0  0  0  0  0  0  0  0  0  0  0
   12.5934  -19.0206   15.4462 O   0  0  0  0  0  0  0  0  0  0  0  0
    9.5260  -16.6621   18.8603 C   0  0  0  0  0  0  0  0  0  0  0  0
   10.7035  -16.3271   19.2048 O   0  0  0  0  0  0  0  0  0  0  0  0
   11.4050  -18.5477   13.5837 O   0  0  0  0  0  0  0  0  0  0  0  0
    7.8479  -13.1534   21.8384 C   0  0  0  0  0  0  0  0  0  0  0  0
    7.5482  -14.0490   20.6513 C   0  0  1  0  0  0  0  0  0  0  0  0
    7.4975  -13.2456   19.3532 C   0  0  0  0  0  0  0  0  0  0  0  0
    8.6743  -15.0340   20.5168 C   0  0  2  0  0  0  0  0  0  0  0  0
    8.4233  -15.9883   19.4431 N   0  0  0  0  0  0  0  0  0  0  0  0
    8.7300  -15.8285   21.7934 C   0  0  0  0  0  0  0  0  0  0  0  0
    7.7323  -16.3847   22.2904 O   0  0  0  0  0  0  0  0  0  0  0  0
    9.9764  -15.9250   22.4215 N   0  0  0  0  0  0  0  0  0  0  0  0
   10.2287  -16.8206   23.5735 C   0  0  1  0  0  0  0  0  0  0  0  0
   10.8213  -18.0527   22.9751 C   0  0  0  0  0  0  0  0  0  0  0  0
   11.2559  -19.0885   23.8943 C   0  0  0  0  0  0  0  0  0  0  0  0
   11.0774  -18.8801   25.1236 O   0  0  0  0  0  0  0  0  0  0  0  0
   11.1159  -16.0725   24.4772 C   0  0  0  0  0  0  0  0  0  0  0  0
   11.9450  -15.0938   23.9846 O   0  0  0  0  0  0  0  0  0  0  0  0
   11.8450  -20.2715   23.5125 O   0  0  0  0  0  0  0  0  0  0  0  0
   11.1312  -16.3148   25.7041 O   0  0  0  0  0  0  0  0  0  0  0  0
  2  1  1  6
  2  7  1  0
  3  2  1  0
  4  3  1  0
  5  4  1  0
  6  5  2  0
  7  8  2  0
  9  5  1  0
 11 10  1  1
 11 12  1  0
 13 11  1  0
 14  7  1  0
 13 14  1  6
 15 17  1  0
 15 13  1  0
 16 15  2  0
 18 22  1  0
 18 19  1  6
 18 17  1  0
 19 20  1  0
 20 21  2  0
 20 24  1  0
 22 23  1  0
 25 22  2  0
M  END
$$$$
