EVD.pdb
     RDKit          3D

 25 24  0  0  1  0  0  0  0  0999 V2000
    8.8580  -17.9136   17.1565 N   0  0  0  0  0  0  0  0  0  0  0  0
   10.1680  -17.3786   17.4446 C   0  0  1  0  0  0  0  0  0  0  0  0
   10.8074  -16.7825   16.2031 C   0  0  0  0  0  0  0  0  0  0  0  0
   10.5368  -17.6482   14.9883 C   0  0  0  0  0  0  0  0  0  0  0  0
   11.1733  -17.0429   13.8108 C   0  0  0  0  0  0  0  0  0  0  0  0
   10.5416  -16.8263   12.7411 O   0  0  0  0  0  0  0  0  0  0  0  0
   10.1541  -16.3236   18.4874 C   0  0  0  0  0  0  0  0  0  0  0  0
   11.2013  -15.6610   18.7733 O   0  0  0  0  0  0  0  0  0  0  0  0
   12.5057  -16.6912   13.8499 O   0  0  0  0  0  0  0  0  0  0  0  0
    7.8007  -13.2564   21.4233 C   0  0  0  0  0  0  0  0  0  0  0  0
    7.7620  -14.1656   20.2098 C   0  0  1  0  0  0  0  0  0  0  0  0
    7.8333  -13.3597   18.9142 C   0  0  0  0  0  0  0  0  0  0  0  0
    8.9791  -15.0453   20.2497 C   0  0  2  0  0  0  0  0  0  0  0  0
    8.9526  -16.0415   19.1851 N   0  0  0  0  0  0  0  0  0  0  0  0
    8.9418  -15.8037   21.5487 C   0  0  0  0  0  0  0  0  0  0  0  0
    8.0005  -16.5539   21.8696 O   0  0  0  0  0  0  0  0  0  0  0  0
   10.0319  -15.6335   22.4090 N   0  0  0  0  0  0  0  0  0  0  0  0
   10.6244  -16.7466   23.1854 C   0  0  1  0  0  0  0  0  0  0  0  0
   11.0428  -17.7460   22.1591 C   0  0  0  0  0  0  0  0  0  0  0  0
   11.0513  -19.1404   22.5619 C   0  0  0  0  0  0  0  0  0  0  0  0
   11.2466  -19.9992   21.6614 O   0  0  0  0  0  0  0  0  0  0  0  0
   11.7203  -16.1528   23.9665 C   0  0  0  0  0  0  0  0  0  0  0  0
   12.3140  -14.9843   23.5544 O   0  0  0  0  0  0  0  0  0  0  0  0
   10.8612  -19.5798   23.8515 O   0  0  0  0  0  0  0  0  0  0  0  0
   12.1290  -16.7003   25.0141 O   0  0  0  0  0  0  0  0  0  0  0  0
  2  1  1  6
  2  7  1  0
  3  2  1  0
  4  3  1  0
  5  4  1  0
  6  5  2  0
  7  8  2  0
  9  5  1  0
 11 10  1  1
 11 12  1  0
 13 11  1  0
 14  7  1  0
 13 14  1  6
 15 17  1  0
 15 13  1  0
 16 15  2  0
 18 22  1  0
 18 19  1  6
 18 17  1  0
 19 20  1  0
 20 21  2  0
 20 24  1  0
 22 23  1  0
 25 22  2  0
M  END
$$$$
