EVD.pdb
     RDKit          3D

 25 24  0  0  1  0  0  0  0  0999 V2000
    6.3344  -16.4310   21.9382 N   0  0  0  0  0  0  0  0  0  0  0  0
    7.7714  -16.2965   21.8921 C   0  0  1  0  0  0  0  0  0  0  0  0
    8.2224  -15.6146   20.6126 C   0  0  0  0  0  0  0  0  0  0  0  0
    7.7693  -16.3971   19.3957 C   0  0  0  0  0  0  0  0  0  0  0  0
    8.2709  -15.7386   18.1822 C   0  0  0  0  0  0  0  0  0  0  0  0
    7.6266  -15.7440   17.0982 O   0  0  0  0  0  0  0  0  0  0  0  0
    8.3244  -15.5194   23.0284 C   0  0  0  0  0  0  0  0  0  0  0  0
    9.5678  -15.2670   23.1153 O   0  0  0  0  0  0  0  0  0  0  0  0
    9.4853  -15.0864   18.2017 O   0  0  0  0  0  0  0  0  0  0  0  0
    7.7302  -12.7185   26.9792 C   0  0  0  0  0  0  0  0  0  0  0  0
    7.0300  -13.4514   25.8507 C   0  0  1  0  0  0  0  0  0  0  0  0
    6.5352  -12.4771   24.7834 C   0  0  0  0  0  0  0  0  0  0  0  0
    8.0324  -14.3557   25.1918 C   0  0  2  0  0  0  0  0  0  0  0  0
    7.4558  -15.0445   24.0431 N   0  0  0  0  0  0  0  0  0  0  0  0
    8.4009  -15.4195   26.1901 C   0  0  0  0  0  0  0  0  0  0  0  0
    7.5820  -16.2473   26.6329 O   0  0  0  0  0  0  0  0  0  0  0  0
    9.7332  -15.4491   26.6164 N   0  0  0  0  0  0  0  0  0  0  0  0
   10.2599  -16.4833   27.5360 C   0  0  1  0  0  0  0  0  0  0  0  0
   11.3998  -17.1032   26.7988 C   0  0  0  0  0  0  0  0  0  0  0  0
   12.1734  -18.1078   27.5052 C   0  0  0  0  0  0  0  0  0  0  0  0
   11.7342  -18.4942   28.6207 O   0  0  0  0  0  0  0  0  0  0  0  0
   10.6236  -15.7739   28.7722 C   0  0  0  0  0  0  0  0  0  0  0  0
   10.5271  -16.4039   29.9894 O   0  0  0  0  0  0  0  0  0  0  0  0
   13.3443  -18.6591   27.0391 O   0  0  0  0  0  0  0  0  0  0  0  0
   11.0240  -14.5895   28.7360 O   0  0  0  0  0  0  0  0  0  0  0  0
  2  1  1  1
  2  7  1  0
  3  2  1  0
  4  3  1  0
  5  4  1  0
  6  5  2  0
  7  8  2  0
  9  5  1  0
 11 10  1  1
 11 12  1  0
 13 11  1  0
 14  7  1  0
 13 14  1  6
 15 17  1  0
 15 13  1  0
 16 15  2  0
 18 22  1  0
 18 19  1  6
 18 17  1  0
 19 20  1  0
 20 21  2  0
 20 24  1  0
 22 23  1  0
 25 22  2  0
M  END
$$$$
