EVD.pdb
     RDKit          3D

 25 24  0  0  1  0  0  0  0  0999 V2000
    7.5792  -14.5248   20.3208 N   0  0  0  0  0  0  0  0  0  0  0  0
    7.0195  -14.8917   21.6004 C   0  0  1  0  0  0  0  0  0  0  0  0
    6.9024  -16.3989   21.7414 C   0  0  0  0  0  0  0  0  0  0  0  0
    7.0152  -17.0775   20.3904 C   0  0  0  0  0  0  0  0  0  0  0  0
    6.7813  -18.5188   20.5512 C   0  0  0  0  0  0  0  0  0  0  0  0
    7.4817  -19.2327   21.3192 O   0  0  0  0  0  0  0  0  0  0  0  0
    7.8148  -14.3982   22.7514 C   0  0  0  0  0  0  0  0  0  0  0  0
    9.0805  -14.2926   22.6852 O   0  0  0  0  0  0  0  0  0  0  0  0
    5.7684  -19.1368   19.8492 O   0  0  0  0  0  0  0  0  0  0  0  0
    6.0566  -13.8043   26.5700 C   0  0  0  0  0  0  0  0  0  0  0  0
    7.1072  -12.8257   26.0808 C   0  0  1  0  0  0  0  0  0  0  0  0
    8.0311  -12.3941   27.2181 C   0  0  0  0  0  0  0  0  0  0  0  0
    7.9593  -13.5293   25.0632 C   0  0  2  0  0  0  0  0  0  0  0  0
    7.1584  -14.0347   23.9543 N   0  0  0  0  0  0  0  0  0  0  0  0
    8.5646  -14.7300   25.7383 C   0  0  0  0  0  0  0  0  0  0  0  0
    8.0164  -15.8486   25.7524 O   0  0  0  0  0  0  0  0  0  0  0  0
    9.8001  -14.5429   26.3675 N   0  0  0  0  0  0  0  0  0  0  0  0
   10.5454  -15.6444   27.0187 C   0  0  1  0  0  0  0  0  0  0  0  0
    9.5434  -16.3134   27.8994 C   0  0  0  0  0  0  0  0  0  0  0  0
    9.9826  -17.4953   28.6184 C   0  0  0  0  0  0  0  0  0  0  0  0
   11.2034  -17.7959   28.5419 O   0  0  0  0  0  0  0  0  0  0  0  0
   11.0726  -16.4744   25.9247 C   0  0  0  0  0  0  0  0  0  0  0  0
   12.3844  -16.3573   25.5333 O   0  0  0  0  0  0  0  0  0  0  0  0
    9.1588  -18.3007   29.3700 O   0  0  0  0  0  0  0  0  0  0  0  0
   10.3379  -17.2965   25.3342 O   0  0  0  0  0  0  0  0  0  0  0  0
  2  1  1  6
  2  7  1  0
  3  2  1  0
  4  3  1  0
  5  4  1  0
  6  5  2  0
  7  8  2  0
  9  5  1  0
 11 10  1  1
 11 12  1  0
 13 11  1  0
 14  7  1  0
 13 14  1  6
 15 17  1  0
 15 13  1  0
 16 15  2  0
 18 22  1  0
 18 19  1  1
 18 17  1  0
 19 20  1  0
 20 21  2  0
 20 24  1  0
 22 23  1  0
 25 22  2  0
M  END
$$$$
