EVD.pdb
     RDKit          3D

 25 24  0  0  1  0  0  0  0  0999 V2000
    8.4538  -15.1652   20.6211 N   0  0  0  0  0  0  0  0  0  0  0  0
    7.7877  -15.5478   21.8440 C   0  0  1  0  0  0  0  0  0  0  0  0
    7.7608  -17.0567   22.0105 C   0  0  0  0  0  0  0  0  0  0  0  0
    9.0651  -17.6741   21.5456 C   0  0  0  0  0  0  0  0  0  0  0  0
    9.0132  -19.1277   21.7509 C   0  0  0  0  0  0  0  0  0  0  0  0
    9.3732  -19.6680   22.8318 O   0  0  0  0  0  0  0  0  0  0  0  0
    8.4197  -14.9778   23.0590 C   0  0  0  0  0  0  0  0  0  0  0  0
    9.6649  -14.7221   23.1001 O   0  0  0  0  0  0  0  0  0  0  0  0
    8.5604  -19.9521   20.7429 O   0  0  0  0  0  0  0  0  0  0  0  0
    8.0146  -12.9010   27.4725 C   0  0  0  0  0  0  0  0  0  0  0  0
    7.2760  -13.4238   26.2551 C   0  0  1  0  0  0  0  0  0  0  0  0
    6.6915  -12.2785   25.4306 C   0  0  0  0  0  0  0  0  0  0  0  0
    8.2682  -14.1357   25.3802 C   0  0  2  0  0  0  0  0  0  0  0  0
    7.6266  -14.7093   24.2030 N   0  0  0  0  0  0  0  0  0  0  0  0
    8.8195  -15.2889   26.1739 C   0  0  0  0  0  0  0  0  0  0  0  0
    8.2002  -16.3573   26.3379 O   0  0  0  0  0  0  0  0  0  0  0  0
   10.0884  -15.1164   26.7376 N   0  0  0  0  0  0  0  0  0  0  0  0
   10.7905  -16.1881   27.4800 C   0  0  1  0  0  0  0  0  0  0  0  0
    9.7351  -17.2013   27.7746 C   0  0  0  0  0  0  0  0  0  0  0  0
   10.0204  -18.1651   28.8217 C   0  0  0  0  0  0  0  0  0  0  0  0
   10.6597  -17.7528   29.8257 O   0  0  0  0  0  0  0  0  0  0  0  0
   11.8720  -16.6474   26.5953 C   0  0  0  0  0  0  0  0  0  0  0  0
   12.7912  -17.5666   27.0402 O   0  0  0  0  0  0  0  0  0  0  0  0
    9.6414  -19.4870   28.7879 O   0  0  0  0  0  0  0  0  0  0  0  0
   11.9731  -16.2096   25.4280 O   0  0  0  0  0  0  0  0  0  0  0  0
  2  1  1  6
  2  7  1  0
  3  2  1  0
  4  3  1  0
  5  4  1  0
  6  5  2  0
  7  8  2  0
  9  5  1  0
 11 10  1  1
 11 12  1  0
 13 11  1  0
 14  7  1  0
 13 14  1  6
 15 17  1  0
 15 13  1  0
 16 15  2  0
 18 22  1  0
 18 19  1  6
 18 17  1  0
 19 20  1  0
 20 21  2  0
 20 24  1  0
 22 23  1  0
 25 22  2  0
M  END
$$$$
