EVD.pdb
     RDKit          3D

 25 24  0  0  1  0  0  0  0  0999 V2000
    8.9963  -17.3299   16.1981 N   0  0  0  0  0  0  0  0  0  0  0  0
    8.0826  -17.1281   17.2980 C   0  0  1  0  0  0  0  0  0  0  0  0
    7.6138  -18.4509   17.8775 C   0  0  0  0  0  0  0  0  0  0  0  0
    7.3197  -19.4490   16.7749 C   0  0  0  0  0  0  0  0  0  0  0  0
    6.7024  -20.6474   17.3584 C   0  0  0  0  0  0  0  0  0  0  0  0
    7.3829  -21.6414   17.7311 O   0  0  0  0  0  0  0  0  0  0  0  0
    8.6681  -16.3387   18.4093 C   0  0  0  0  0  0  0  0  0  0  0  0
    9.9233  -16.3099   18.6118 O   0  0  0  0  0  0  0  0  0  0  0  0
    5.3341  -20.7137   17.5139 O   0  0  0  0  0  0  0  0  0  0  0  0
    8.1273  -13.1981   22.1404 C   0  0  0  0  0  0  0  0  0  0  0  0
    7.4747  -13.8317   20.9265 C   0  0  1  0  0  0  0  0  0  0  0  0
    7.2597  -12.8044   19.8166 C   0  0  0  0  0  0  0  0  0  0  0  0
    8.4116  -14.8745   20.3868 C   0  0  2  0  0  0  0  0  0  0  0  0
    7.8179  -15.5981   19.2686 N   0  0  0  0  0  0  0  0  0  0  0  0
    8.6372  -15.8834   21.4800 C   0  0  0  0  0  0  0  0  0  0  0  0
    7.9943  -16.9471   21.5649 O   0  0  0  0  0  0  0  0  0  0  0  0
    9.6225  -15.5783   22.4254 N   0  0  0  0  0  0  0  0  0  0  0  0
   10.3507  -16.6159   23.1908 C   0  0  1  0  0  0  0  0  0  0  0  0
   11.6424  -16.7890   22.4636 C   0  0  0  0  0  0  0  0  0  0  0  0
   12.1231  -18.1472   22.2880 C   0  0  0  0  0  0  0  0  0  0  0  0
   11.4504  -19.0699   22.8197 O   0  0  0  0  0  0  0  0  0  0  0  0
   10.4671  -16.0961   24.5618 C   0  0  0  0  0  0  0  0  0  0  0  0
   10.2687  -16.9254   25.6391 O   0  0  0  0  0  0  0  0  0  0  0  0
   13.2556  -18.4878   21.5854 O   0  0  0  0  0  0  0  0  0  0  0  0
   10.7464  -14.8946   24.7689 O   0  0  0  0  0  0  0  0  0  0  0  0
  2  1  1  6
  2  7  1  0
  3  2  1  0
  4  3  1  0
  5  4  1  0
  6  5  2  0
  7  8  2  0
  9  5  1  0
 11 10  1  1
 11 12  1  0
 13 11  1  0
 14  7  1  0
 13 14  1  6
 15 17  1  0
 15 13  1  0
 16 15  2  0
 18 22  1  0
 18 19  1  6
 18 17  1  0
 19 20  1  0
 20 21  2  0
 20 24  1  0
 22 23  1  0
 25 22  2  0
M  END
$$$$
