EVD.pdb
     RDKit          3D

 25 24  0  0  1  0  0  0  0  0999 V2000
    8.1423  -14.6411   20.5419 N   0  0  0  0  0  0  0  0  0  0  0  0
    7.4977  -15.0999   21.7499 C   0  0  1  0  0  0  0  0  0  0  0  0
    7.4689  -16.6164   21.8198 C   0  0  0  0  0  0  0  0  0  0  0  0
    6.7509  -17.1983   20.6180 C   0  0  0  0  0  0  0  0  0  0  0  0
    6.7457  -18.6637   20.7197 C   0  0  0  0  0  0  0  0  0  0  0  0
    7.6434  -19.3779   20.1962 O   0  0  0  0  0  0  0  0  0  0  0  0
    8.1541  -14.6104   22.9870 C   0  0  0  0  0  0  0  0  0  0  0  0
    9.4173  -14.4835   23.0608 O   0  0  0  0  0  0  0  0  0  0  0  0
    5.7356  -19.3051   21.4045 O   0  0  0  0  0  0  0  0  0  0  0  0
    7.8670  -12.7458   27.5088 C   0  0  0  0  0  0  0  0  0  0  0  0
    7.1181  -13.0684   26.2298 C   0  0  1  0  0  0  0  0  0  0  0  0
    6.7459  -11.7952   25.4724 C   0  0  0  0  0  0  0  0  0  0  0  0
    8.0361  -13.8581   25.3407 C   0  0  2  0  0  0  0  0  0  0  0  0
    7.3642  -14.2749   24.1154 N   0  0  0  0  0  0  0  0  0  0  0  0
    8.4023  -15.1167   26.0793 C   0  0  0  0  0  0  0  0  0  0  0  0
    7.5557  -15.9326   26.4911 O   0  0  0  0  0  0  0  0  0  0  0  0
    9.7655  -15.3473   26.2940 N   0  0  0  0  0  0  0  0  0  0  0  0
   10.2778  -16.5530   26.9843 C   0  0  1  0  0  0  0  0  0  0  0  0
   11.6157  -16.8026   26.3720 C   0  0  0  0  0  0  0  0  0  0  0  0
   12.4168  -17.8664   26.9493 C   0  0  0  0  0  0  0  0  0  0  0  0
   11.8964  -18.5412   27.8769 O   0  0  0  0  0  0  0  0  0  0  0  0
   10.2957  -16.2186   28.4166 C   0  0  0  0  0  0  0  0  0  0  0  0
   10.1416  -17.2032   29.3624 O   0  0  0  0  0  0  0  0  0  0  0  0
   13.6957  -18.1813   26.5524 O   0  0  0  0  0  0  0  0  0  0  0  0
   10.4497  -15.0367   28.7957 O   0  0  0  0  0  0  0  0  0  0  0  0
  2  1  1  6
  2  7  1  0
  3  2  1  0
  4  3  1  0
  5  4  1  0
  6  5  2  0
  7  8  2  0
  9  5  1  0
 11 10  1  1
 11 12  1  0
 13 11  1  0
 14  7  1  0
 13 14  1  6
 15 17  1  0
 15 13  1  0
 16 15  2  0
 18 22  1  0
 18 19  1  6
 18 17  1  0
 19 20  1  0
 20 21  2  0
 20 24  1  0
 22 23  1  0
 25 22  2  0
M  END
$$$$
