EVD.pdb
     RDKit          3D

 25 24  0  0  1  0  0  0  0  0999 V2000
    8.2428  -14.8368   20.6408 N   0  0  0  0  0  0  0  0  0  0  0  0
    7.4169  -14.9902   21.8155 C   0  0  1  0  0  0  0  0  0  0  0  0
    6.9744  -16.4314   21.9961 C   0  0  0  0  0  0  0  0  0  0  0  0
    8.0247  -17.3886   21.4677 C   0  0  0  0  0  0  0  0  0  0  0  0
    7.5453  -18.7682   21.6245 C   0  0  0  0  0  0  0  0  0  0  0  0
    8.2615  -19.7660   21.3392 O   0  0  0  0  0  0  0  0  0  0  0  0
    8.0949  -14.5733   23.0674 C   0  0  0  0  0  0  0  0  0  0  0  0
    9.3584  -14.4401   23.1237 O   0  0  0  0  0  0  0  0  0  0  0  0
    6.2723  -19.0079   22.0966 O   0  0  0  0  0  0  0  0  0  0  0  0
    7.8377  -12.5714   27.5173 C   0  0  0  0  0  0  0  0  0  0  0  0
    7.0689  -13.0179   26.2883 C   0  0  1  0  0  0  0  0  0  0  0  0
    6.5997  -11.8194   25.4656 C   0  0  0  0  0  0  0  0  0  0  0  0
    8.0027  -13.8111   25.4192 C   0  0  2  0  0  0  0  0  0  0  0  0
    7.3259  -14.3160   24.2303 N   0  0  0  0  0  0  0  0  0  0  0  0
    8.4373  -15.0151   26.2100 C   0  0  0  0  0  0  0  0  0  0  0  0
    7.6642  -15.9444   26.5109 O   0  0  0  0  0  0  0  0  0  0  0  0
    9.7781  -15.0575   26.6073 N   0  0  0  0  0  0  0  0  0  0  0  0
   10.3603  -16.1980   27.3511 C   0  0  1  0  0  0  0  0  0  0  0  0
   11.7960  -16.2245   26.9445 C   0  0  0  0  0  0  0  0  0  0  0  0
   12.1112  -16.8623   25.6794 C   0  0  0  0  0  0  0  0  0  0  0  0
   13.1894  -16.5300   25.1194 O   0  0  0  0  0  0  0  0  0  0  0  0
   10.1161  -15.9162   28.7739 C   0  0  0  0  0  0  0  0  0  0  0  0
    9.9297  -16.9456   29.6646 O   0  0  0  0  0  0  0  0  0  0  0  0
   11.3152  -17.7969   25.0587 O   0  0  0  0  0  0  0  0  0  0  0  0
   10.0729  -14.7392   29.1947 O   0  0  0  0  0  0  0  0  0  0  0  0
  2  1  1  6
  2  7  1  0
  3  2  1  0
  4  3  1  0
  5  4  1  0
  6  5  2  0
  7  8  2  0
  9  5  1  0
 11 10  1  1
 11 12  1  0
 13 11  1  0
 14  7  1  0
 13 14  1  6
 15 17  1  0
 15 13  1  0
 16 15  2  0
 18 22  1  0
 18 19  1  1
 18 17  1  0
 19 20  1  0
 20 21  2  0
 20 24  1  0
 22 23  1  0
 25 22  2  0
M  END
$$$$
