VSI.pdb
     RDKit          3D

 22 21  0  0  1  0  0  0  0  0999 V2000
    9.4805  -12.9555   19.9851 C   0  0  0  0  0  0  0  0  0  0  0  0
    8.4855  -13.4764   18.9655 C   0  0  2  0  0  0  0  0  0  0  0  0
    7.1375  -12.8549   19.1462 C   0  0  0  0  0  0  0  0  0  0  0  0
    8.4039  -14.9862   18.9918 C   0  0  2  0  0  0  0  0  0  0  0  0
    7.5686  -15.5228   17.9667 N   0  0  0  0  0  0  0  0  0  0  0  0
    7.8657  -15.3848   20.3130 C   0  0  0  0  0  0  0  0  0  0  0  0
    6.6365  -15.3857   20.5336 O   0  0  0  0  0  0  0  0  0  0  0  0
    9.6892  -18.0733   22.8249 O   0  0  0  0  0  0  0  0  0  0  0  0
    8.3463  -17.7175   22.8353 C   0  0  0  0  0  0  0  0  0  0  0  0
    8.2139  -16.2407   22.6108 C   0  0  2  0  0  0  0  0  0  0  0  0
    8.7159  -15.7775   21.3701 N   0  0  0  0  0  0  0  0  0  0  0  0
    8.8041  -15.4569   23.7129 C   0  0  0  0  0  0  0  0  0  0  0  0
    9.9836  -15.0489   23.6312 O   0  0  0  0  0  0  0  0  0  0  0  0
    5.5847  -12.1306   26.3193 C   0  0  0  0  0  0  0  0  0  0  0  0
    6.7727  -12.8176   25.6755 C   0  0  0  0  0  0  0  0  0  0  0  0
    7.5401  -13.6495   26.6738 C   0  0  2  0  0  0  0  0  0  0  0  0
    8.1085  -12.8518   27.8012 C   0  0  0  0  0  0  0  0  0  0  0  0
    8.6231  -14.4312   25.9873 C   0  0  2  0  0  0  0  0  0  0  0  0
    8.0569  -15.1525   24.8741 N   0  0  0  0  0  0  0  0  0  0  0  0
    9.2983  -15.3809   26.9147 C   0  0  0  0  0  0  0  0  0  0  0  0
   10.3119  -15.0558   27.5808 O   0  0  0  0  0  0  0  0  0  0  0  0
    8.8137  -16.6725   27.0674 O   0  0  0  0  0  0  0  0  0  0  0  0
  2  1  1  1
  3  2  1  0
  4  2  1  0
  4  5  1  6
  6  4  1  0
  6  7  2  0
  8  9  1  0
 10  9  1  1
 10 11  1  0
 10 12  1  0
 11  6  1  0
 12 13  2  0
 12 19  1  0
 14 15  1  0
 16 17  1  1
 16 15  1  0
 18 16  1  0
 18 19  1  6
 20 22  1  0
 20 18  1  0
 21 20  2  0
M  END
$$$$
