VSI.pdb
     RDKit          3D

 22 21  0  0  1  0  0  0  0  0999 V2000
    7.7857  -12.6791   18.4941 C   0  0  0  0  0  0  0  0  0  0  0  0
    7.6365  -13.4753   19.7766 C   0  0  2  0  0  0  0  0  0  0  0  0
    8.2609  -12.7693   20.9373 C   0  0  0  0  0  0  0  0  0  0  0  0
    8.1833  -14.8772   19.6254 C   0  0  2  0  0  0  0  0  0  0  0  0
    7.5504  -15.6189   18.5833 N   0  0  0  0  0  0  0  0  0  0  0  0
    7.9798  -15.5808   20.9128 C   0  0  0  0  0  0  0  0  0  0  0  0
    6.8433  -15.9578   21.2676 O   0  0  0  0  0  0  0  0  0  0  0  0
   10.7979  -17.8270   22.8881 O   0  0  0  0  0  0  0  0  0  0  0  0
    9.4359  -17.8551   23.1608 C   0  0  0  0  0  0  0  0  0  0  0  0
    8.8696  -16.4714   23.0456 C   0  0  2  0  0  0  0  0  0  0  0  0
    9.0564  -15.8521   21.7856 N   0  0  0  0  0  0  0  0  0  0  0  0
    9.3569  -15.5815   24.1171 C   0  0  0  0  0  0  0  0  0  0  0  0
   10.4143  -14.9320   23.9610 O   0  0  0  0  0  0  0  0  0  0  0  0
    6.2777  -12.0833   26.0706 C   0  0  0  0  0  0  0  0  0  0  0  0
    7.4571  -12.9472   25.6700 C   0  0  0  0  0  0  0  0  0  0  0  0
    8.0249  -13.6934   26.8525 C   0  0  2  0  0  0  0  0  0  0  0  0
    8.5046  -12.7976   27.9469 C   0  0  0  0  0  0  0  0  0  0  0  0
    9.1232  -14.6191   26.4142 C   0  0  2  0  0  0  0  0  0  0  0  0
    8.6464  -15.4446   25.3320 N   0  0  0  0  0  0  0  0  0  0  0  0
    9.6068  -15.4780   27.5306 C   0  0  0  0  0  0  0  0  0  0  0  0
    9.1021  -16.6017   27.7745 O   0  0  0  0  0  0  0  0  0  0  0  0
   10.6466  -15.0485   28.3433 O   0  0  0  0  0  0  0  0  0  0  0  0
  2  1  1  6
  3  2  1  0
  4  2  1  0
  4  5  1  6
  6  4  1  0
  6  7  2  0
  8  9  1  0
 10  9  1  6
 10 11  1  0
 10 12  1  0
 11  6  1  0
 12 13  2  0
 12 19  1  0
 14 15  1  0
 16 17  1  1
 16 15  1  0
 18 16  1  0
 18 19  1  6
 20 22  1  0
 20 18  1  0
 21 20  2  0
M  END
$$$$
