VSI.pdb
     RDKit          3D

 22 21  0  0  1  0  0  0  0  0999 V2000
    7.5084  -12.8370   20.8128 C   0  0  0  0  0  0  0  0  0  0  0  0
    8.5655  -13.5550   19.9955 C   0  0  2  0  0  0  0  0  0  0  0  0
    8.7662  -12.9045   18.6642 C   0  0  0  0  0  0  0  0  0  0  0  0
    8.2472  -15.0260   19.8474 C   0  0  2  0  0  0  0  0  0  0  0  0
    7.0735  -15.2728   19.0739 N   0  0  0  0  0  0  0  0  0  0  0  0
    8.0578  -15.5844   21.2062 C   0  0  0  0  0  0  0  0  0  0  0  0
    6.9215  -15.6584   21.7191 O   0  0  0  0  0  0  0  0  0  0  0  0
   10.9078  -17.9880   23.0925 O   0  0  0  0  0  0  0  0  0  0  0  0
    9.5536  -18.0116   23.4021 C   0  0  0  0  0  0  0  0  0  0  0  0
    8.9776  -16.6353   23.2515 C   0  0  2  0  0  0  0  0  0  0  0  0
    9.1482  -16.0527   21.9718 N   0  0  0  0  0  0  0  0  0  0  0  0
    9.4698  -15.7111   24.2911 C   0  0  0  0  0  0  0  0  0  0  0  0
   10.4702  -14.9936   24.0703 O   0  0  0  0  0  0  0  0  0  0  0  0
    6.0990  -12.6110   26.4893 C   0  0  0  0  0  0  0  0  0  0  0  0
    7.3761  -13.2621   25.9963 C   0  0  0  0  0  0  0  0  0  0  0  0
    8.1193  -13.9449   27.1185 C   0  0  2  0  0  0  0  0  0  0  0  0
    8.5667  -13.0085   28.1923 C   0  0  0  0  0  0  0  0  0  0  0  0
    9.2867  -14.7222   26.5816 C   0  0  2  0  0  0  0  0  0  0  0  0
    8.8279  -15.6168   25.5475 N   0  0  0  0  0  0  0  0  0  0  0  0
    9.9793  -15.4958   27.6491 C   0  0  0  0  0  0  0  0  0  0  0  0
   10.7769  -14.9549   28.4542 O   0  0  0  0  0  0  0  0  0  0  0  0
    9.7553  -16.8591   27.7819 O   0  0  0  0  0  0  0  0  0  0  0  0
  2  1  1  6
  3  2  1  0
  4  2  1  0
  4  5  1  6
  6  4  1  0
  6  7  2  0
  8  9  1  0
 10  9  1  6
 10 11  1  0
 10 12  1  0
 11  6  1  0
 12 13  2  0
 12 19  1  0
 14 15  1  0
 16 17  1  1
 16 15  1  0
 18 16  1  0
 18 19  1  6
 20 22  1  0
 20 18  1  0
 21 20  2  0
M  END
$$$$
