VSI.pdb
     RDKit          3D

 22 21  0  0  1  0  0  0  0  0999 V2000
    6.9044  -13.2745   20.3010 C   0  0  0  0  0  0  0  0  0  0  0  0
    8.3647  -13.4550   19.9321 C   0  0  2  0  0  0  0  0  0  0  0  0
    8.7488  -12.5930   18.7722 C   0  0  0  0  0  0  0  0  0  0  0  0
    8.6952  -14.9076   19.6721 C   0  0  2  0  0  0  0  0  0  0  0  0
    8.0066  -15.4486   18.5452 N   0  0  0  0  0  0  0  0  0  0  0  0
    8.3232  -15.6771   20.8820 C   0  0  0  0  0  0  0  0  0  0  0  0
    7.3878  -16.5042   20.8563 O   0  0  0  0  0  0  0  0  0  0  0  0
    8.7689  -18.4712   24.2170 O   0  0  0  0  0  0  0  0  0  0  0  0
    9.0566  -17.7786   23.0475 C   0  0  0  0  0  0  0  0  0  0  0  0
    8.7492  -16.3228   23.2347 C   0  0  2  0  0  0  0  0  0  0  0  0
    9.0074  -15.5074   22.1057 N   0  0  0  0  0  0  0  0  0  0  0  0
    9.4232  -15.7615   24.4212 C   0  0  0  0  0  0  0  0  0  0  0  0
   10.6560  -15.5514   24.4019 O   0  0  0  0  0  0  0  0  0  0  0  0
    6.5597  -12.1095   26.7710 C   0  0  0  0  0  0  0  0  0  0  0  0
    7.6810  -12.9711   26.2248 C   0  0  0  0  0  0  0  0  0  0  0  0
    8.3102  -13.8139   27.3072 C   0  0  2  0  0  0  0  0  0  0  0  0
    8.9478  -13.0101   28.3923 C   0  0  0  0  0  0  0  0  0  0  0  0
    9.3007  -14.7763   26.7173 C   0  0  2  0  0  0  0  0  0  0  0  0
    8.6977  -15.4518   25.5948 N   0  0  0  0  0  0  0  0  0  0  0  0
    9.7697  -15.7758   27.7168 C   0  0  0  0  0  0  0  0  0  0  0  0
   10.7927  -15.5865   28.4200 O   0  0  0  0  0  0  0  0  0  0  0  0
    9.0736  -16.9628   27.8981 O   0  0  0  0  0  0  0  0  0  0  0  0
  2  1  1  6
  3  2  1  0
  4  2  1  0
  4  5  1  6
  6  4  1  0
  6  7  2  0
  8  9  1  0
 10  9  1  6
 10 11  1  0
 10 12  1  0
 11  6  1  0
 12 13  2  0
 12 19  1  0
 14 15  1  0
 16 17  1  1
 16 15  1  0
 18 16  1  0
 18 19  1  6
 20 22  1  0
 20 18  1  0
 21 20  2  0
M  END
$$$$
