VSI.pdb
     RDKit          3D

 22 21  0  0  1  0  0  0  0  0999 V2000
    7.1507  -13.0276   19.7282 C   0  0  0  0  0  0  0  0  0  0  0  0
    8.3099  -13.9127   19.3114 C   0  0  2  0  0  0  0  0  0  0  0  0
    8.8104  -13.5566   17.9482 C   0  0  0  0  0  0  0  0  0  0  0  0
    7.9478  -15.3784   19.3998 C   0  0  2  0  0  0  0  0  0  0  0  0
    7.0718  -15.8056   18.3572 N   0  0  0  0  0  0  0  0  0  0  0  0
    7.2888  -15.6010   20.7075 C   0  0  0  0  0  0  0  0  0  0  0  0
    6.0793  -15.3368   20.8720 O   0  0  0  0  0  0  0  0  0  0  0  0
    8.3363  -18.2957   23.6773 O   0  0  0  0  0  0  0  0  0  0  0  0
    7.1484  -17.5792   23.6006 C   0  0  0  0  0  0  0  0  0  0  0  0
    7.4277  -16.1903   23.1090 C   0  0  2  0  0  0  0  0  0  0  0  0
    7.9975  -16.1179   21.8143 N   0  0  0  0  0  0  0  0  0  0  0  0
    8.2506  -15.4198   24.0611 C   0  0  0  0  0  0  0  0  0  0  0  0
    9.4679  -15.2406   23.8364 O   0  0  0  0  0  0  0  0  0  0  0  0
    5.8184  -11.8961   27.7739 C   0  0  0  0  0  0  0  0  0  0  0  0
    6.4642  -13.1645   27.2524 C   0  0  0  0  0  0  0  0  0  0  0  0
    7.7785  -12.8768   26.5687 C   0  0  2  0  0  0  0  0  0  0  0  0
    7.6449  -12.0002   25.3671 C   0  0  0  0  0  0  0  0  0  0  0  0
    8.4767  -14.1566   26.2083 C   0  0  2  0  0  0  0  0  0  0  0  0
    7.6871  -14.8725   25.2367 N   0  0  0  0  0  0  0  0  0  0  0  0
    8.7137  -15.0170   27.4006 C   0  0  0  0  0  0  0  0  0  0  0  0
    8.0921  -16.0931   27.5808 O   0  0  0  0  0  0  0  0  0  0  0  0
    9.6450  -14.6424   28.3590 O   0  0  0  0  0  0  0  0  0  0  0  0
  2  1  1  6
  3  2  1  0
  4  2  1  0
  4  5  1  6
  6  4  1  0
  6  7  2  0
  8  9  1  0
 10  9  1  1
 10 11  1  0
 10 12  1  0
 11  6  1  0
 12 13  2  0
 12 19  1  0
 14 15  1  0
 16 17  1  6
 16 15  1  0
 18 16  1  0
 18 19  1  6
 20 22  1  0
 20 18  1  0
 21 20  2  0
M  END
$$$$
