VSI.pdb
     RDKit          3D

 22 21  0  0  1  0  0  0  0  0999 V2000
    8.4024  -12.9529   18.3172 C   0  0  0  0  0  0  0  0  0  0  0  0
    7.8954  -13.5897   19.5972 C   0  0  2  0  0  0  0  0  0  0  0  0
    8.3659  -12.8447   20.8052 C   0  0  0  0  0  0  0  0  0  0  0  0
    8.2677  -15.0535   19.6732 C   0  0  2  0  0  0  0  0  0  0  0  0
    7.7485  -15.8232   18.5894 N   0  0  0  0  0  0  0  0  0  0  0  0
    7.7329  -15.5883   20.9467 C   0  0  0  0  0  0  0  0  0  0  0  0
    6.6880  -16.2720   20.9694 O   0  0  0  0  0  0  0  0  0  0  0  0
    8.2487  -18.3770   24.2050 O   0  0  0  0  0  0  0  0  0  0  0  0
    8.3984  -17.6564   23.0266 C   0  0  0  0  0  0  0  0  0  0  0  0
    8.2051  -16.1949   23.3010 C   0  0  2  0  0  0  0  0  0  0  0  0
    8.3792  -15.3480   22.1792 N   0  0  0  0  0  0  0  0  0  0  0  0
    9.0465  -15.7241   24.4180 C   0  0  0  0  0  0  0  0  0  0  0  0
   10.2836  -15.6153   24.2693 O   0  0  0  0  0  0  0  0  0  0  0  0
    6.4083  -12.1199   27.0444 C   0  0  0  0  0  0  0  0  0  0  0  0
    7.5503  -12.8726   26.3908 C   0  0  0  0  0  0  0  0  0  0  0  0
    8.2967  -13.7235   27.3890 C   0  0  2  0  0  0  0  0  0  0  0  0
    9.0500  -12.9278   28.4037 C   0  0  0  0  0  0  0  0  0  0  0  0
    9.2168  -14.6786   26.6842 C   0  0  2  0  0  0  0  0  0  0  0  0
    8.4788  -15.3889   25.6689 N   0  0  0  0  0  0  0  0  0  0  0  0
    9.8420  -15.6477   27.6264 C   0  0  0  0  0  0  0  0  0  0  0  0
   10.9536  -15.4290   28.1680 O   0  0  0  0  0  0  0  0  0  0  0  0
    9.1984  -16.8384   27.9338 O   0  0  0  0  0  0  0  0  0  0  0  0
  2  1  1  6
  3  2  1  0
  4  2  1  0
  4  5  1  6
  6  4  1  0
  6  7  2  0
  8  9  1  0
 10  9  1  6
 10 11  1  0
 10 12  1  0
 11  6  1  0
 12 13  2  0
 12 19  1  0
 14 15  1  0
 16 17  1  1
 16 15  1  0
 18 16  1  0
 18 19  1  6
 20 22  1  0
 20 18  1  0
 21 20  2  0
M  END
$$$$
