VSI.pdb
     RDKit          3D

 22 21  0  0  1  0  0  0  0  0999 V2000
    7.2335  -12.7318   19.5595 C   0  0  0  0  0  0  0  0  0  0  0  0
    8.5984  -13.3076   19.2332 C   0  0  2  0  0  0  0  0  0  0  0  0
    9.1992  -12.6499   18.0323 C   0  0  0  0  0  0  0  0  0  0  0  0
    8.5410  -14.8098   19.0677 C   0  0  2  0  0  0  0  0  0  0  0  0
    7.8218  -15.2209   17.9057 N   0  0  0  0  0  0  0  0  0  0  0  0
    7.8805  -15.3699   20.2694 C   0  0  0  0  0  0  0  0  0  0  0  0
    6.6420  -15.5263   20.3091 O   0  0  0  0  0  0  0  0  0  0  0  0
    9.2287  -18.1951   22.7794 O   0  0  0  0  0  0  0  0  0  0  0  0
    7.9399  -17.6761   22.7772 C   0  0  0  0  0  0  0  0  0  0  0  0
    7.9957  -16.1876   22.6043 C   0  0  2  0  0  0  0  0  0  0  0  0
    8.6201  -15.7474   21.4116 N   0  0  0  0  0  0  0  0  0  0  0  0
    8.6090  -15.5166   23.7666 C   0  0  0  0  0  0  0  0  0  0  0  0
    9.8255  -15.2264   23.7538 O   0  0  0  0  0  0  0  0  0  0  0  0
    5.6923  -11.9755   26.4692 C   0  0  0  0  0  0  0  0  0  0  0  0
    6.7996  -12.7812   25.8190 C   0  0  0  0  0  0  0  0  0  0  0  0
    7.4174  -13.7582   26.7892 C   0  0  2  0  0  0  0  0  0  0  0  0
    8.0214  -13.1045   27.9884 C   0  0  0  0  0  0  0  0  0  0  0  0
    8.4330  -14.6198   26.0952 C   0  0  2  0  0  0  0  0  0  0  0  0
    7.8427  -15.1900   24.9092 N   0  0  0  0  0  0  0  0  0  0  0  0
    8.9406  -15.7052   26.9796 C   0  0  0  0  0  0  0  0  0  0  0  0
    8.3279  -16.7922   27.1205 O   0  0  0  0  0  0  0  0  0  0  0  0
   10.1256  -15.5375   27.6824 O   0  0  0  0  0  0  0  0  0  0  0  0
  2  1  1  6
  3  2  1  0
  4  2  1  0
  4  5  1  6
  6  4  1  0
  6  7  2  0
  8  9  1  0
 10  9  1  1
 10 11  1  0
 10 12  1  0
 11  6  1  0
 12 13  2  0
 12 19  1  0
 14 15  1  0
 16 17  1  1
 16 15  1  0
 18 16  1  0
 18 19  1  6
 20 22  1  0
 20 18  1  0
 21 20  2  0
M  END
$$$$
