VSI.pdb
     RDKit          3D

 22 21  0  0  1  0  0  0  0  0999 V2000
    7.1263  -12.8138   19.6398 C   0  0  0  0  0  0  0  0  0  0  0  0
    8.4835  -13.4381   19.3764 C   0  0  2  0  0  0  0  0  0  0  0  0
    9.1412  -12.8365   18.1760 C   0  0  0  0  0  0  0  0  0  0  0  0
    8.3875  -14.9426   19.2560 C   0  0  2  0  0  0  0  0  0  0  0  0
    7.6686  -15.3699   18.0996 N   0  0  0  0  0  0  0  0  0  0  0  0
    7.7008  -15.4480   20.4673 C   0  0  0  0  0  0  0  0  0  0  0  0
    6.4551  -15.4310   20.5552 O   0  0  0  0  0  0  0  0  0  0  0  0
    8.9513  -18.2835   23.1851 O   0  0  0  0  0  0  0  0  0  0  0  0
    7.6865  -17.7108   23.1339 C   0  0  0  0  0  0  0  0  0  0  0  0
    7.8060  -16.2521   22.8073 C   0  0  2  0  0  0  0  0  0  0  0  0
    8.4227  -15.9664   21.5647 N   0  0  0  0  0  0  0  0  0  0  0  0
    8.4753  -15.4957   23.8831 C   0  0  0  0  0  0  0  0  0  0  0  0
    9.6940  -15.2282   23.7976 O   0  0  0  0  0  0  0  0  0  0  0  0
    5.7675  -11.6852   26.4544 C   0  0  0  0  0  0  0  0  0  0  0  0
    6.8250  -12.5641   25.8164 C   0  0  0  0  0  0  0  0  0  0  0  0
    7.4473  -13.5017   26.8221 C   0  0  2  0  0  0  0  0  0  0  0  0
    8.1121  -12.7983   27.9595 C   0  0  0  0  0  0  0  0  0  0  0  0
    8.4118  -14.4343   26.1474 C   0  0  2  0  0  0  0  0  0  0  0  0
    7.7608  -15.0608   25.0232 N   0  0  0  0  0  0  0  0  0  0  0  0
    8.9247  -15.4759   27.0800 C   0  0  0  0  0  0  0  0  0  0  0  0
    8.2920  -16.5362   27.3088 O   0  0  0  0  0  0  0  0  0  0  0  0
   10.1373  -15.2958   27.7307 O   0  0  0  0  0  0  0  0  0  0  0  0
  2  1  1  6
  3  2  1  0
  4  2  1  0
  4  5  1  6
  6  4  1  0
  6  7  2  0
  8  9  1  0
 10  9  1  1
 10 11  1  0
 10 12  1  0
 11  6  1  0
 12 13  2  0
 12 19  1  0
 14 15  1  0
 16 17  1  1
 16 15  1  0
 18 16  1  0
 18 19  1  6
 20 22  1  0
 20 18  1  0
 21 20  2  0
M  END
$$$$
