VSI.pdb
     RDKit          3D

 22 21  0  0  1  0  0  0  0  0999 V2000
    7.2942  -12.6771   19.9571 C   0  0  0  0  0  0  0  0  0  0  0  0
    8.5623  -13.3073   19.4133 C   0  0  2  0  0  0  0  0  0  0  0  0
    8.9812  -12.6749   18.1248 C   0  0  0  0  0  0  0  0  0  0  0  0
    8.4190  -14.8060   19.2704 C   0  0  2  0  0  0  0  0  0  0  0  0
    7.5162  -15.1888   18.2336 N   0  0  0  0  0  0  0  0  0  0  0  0
    7.9253  -15.3361   20.5625 C   0  0  0  0  0  0  0  0  0  0  0  0
    6.7052  -15.3488   20.8289 O   0  0  0  0  0  0  0  0  0  0  0  0
    9.9717  -18.0493   22.9336 O   0  0  0  0  0  0  0  0  0  0  0  0
    8.6098  -17.7917   23.0289 C   0  0  0  0  0  0  0  0  0  0  0  0
    8.3541  -16.3338   22.7883 C   0  0  2  0  0  0  0  0  0  0  0  0
    8.8091  -15.8454   21.5391 N   0  0  0  0  0  0  0  0  0  0  0  0
    8.8832  -15.4906   23.8775 C   0  0  0  0  0  0  0  0  0  0  0  0
    9.9713  -14.8907   23.7346 O   0  0  0  0  0  0  0  0  0  0  0  0
    5.6574  -12.3015   26.4279 C   0  0  0  0  0  0  0  0  0  0  0  0
    6.8737  -12.9802   25.8295 C   0  0  0  0  0  0  0  0  0  0  0  0
    7.6033  -13.8142   26.8541 C   0  0  2  0  0  0  0  0  0  0  0  0
    8.1294  -13.0188   28.0034 C   0  0  0  0  0  0  0  0  0  0  0  0
    8.7110  -14.5947   26.2067 C   0  0  2  0  0  0  0  0  0  0  0  0
    8.1790  -15.3434   25.0948 N   0  0  0  0  0  0  0  0  0  0  0  0
    9.3764  -15.5187   27.1666 C   0  0  0  0  0  0  0  0  0  0  0  0
    8.9661  -16.6898   27.3587 O   0  0  0  0  0  0  0  0  0  0  0  0
   10.4872  -15.0990   27.8852 O   0  0  0  0  0  0  0  0  0  0  0  0
  2  1  1  6
  3  2  1  0
  4  2  1  0
  4  5  1  6
  6  4  1  0
  6  7  2  0
  8  9  1  0
 10  9  1  1
 10 11  1  0
 10 12  1  0
 11  6  1  0
 12 13  2  0
 12 19  1  0
 14 15  1  0
 16 17  1  1
 16 15  1  0
 18 16  1  0
 18 19  1  6
 20 22  1  0
 20 18  1  0
 21 20  2  0
M  END
$$$$
