VSI.pdb
     RDKit          3D

 22 21  0  0  1  0  0  0  0  0999 V2000
   12.2915  -16.7640   21.4658 C   0  0  0  0  0  0  0  0  0  0  0  0
   11.5686  -17.9703   20.8973 C   0  0  2  0  0  0  0  0  0  0  0  0
   12.5072  -18.8831   20.1751 C   0  0  0  0  0  0  0  0  0  0  0  0
   10.4123  -17.5580   20.0141 C   0  0  2  0  0  0  0  0  0  0  0  0
   10.8200  -16.8289   18.8570 N   0  0  0  0  0  0  0  0  0  0  0  0
    9.5061  -16.7122   20.8249 C   0  0  0  0  0  0  0  0  0  0  0  0
    9.6040  -15.4672   20.8115 O   0  0  0  0  0  0  0  0  0  0  0  0
    6.4860  -18.3116   23.3824 O   0  0  0  0  0  0  0  0  0  0  0  0
    6.2875  -17.1174   22.7005 C   0  0  0  0  0  0  0  0  0  0  0  0
    7.6119  -16.4800   22.4034 C   0  0  2  0  0  0  0  0  0  0  0  0
    8.5009  -17.2763   21.6408 N   0  0  0  0  0  0  0  0  0  0  0  0
    8.2878  -16.0087   23.6275 C   0  0  0  0  0  0  0  0  0  0  0  0
    9.4174  -16.4518   23.9308 O   0  0  0  0  0  0  0  0  0  0  0  0
    6.1066  -11.4998   25.8332 C   0  0  0  0  0  0  0  0  0  0  0  0
    7.1378  -12.4835   25.3166 C   0  0  0  0  0  0  0  0  0  0  0  0
    7.4416  -13.5546   26.3356 C   0  0  2  0  0  0  0  0  0  0  0  0
    8.0948  -13.0312   27.5723 C   0  0  0  0  0  0  0  0  0  0  0  0
    8.2754  -14.6434   25.7236 C   0  0  2  0  0  0  0  0  0  0  0  0
    7.6797  -15.0552   24.4763 N   0  0  0  0  0  0  0  0  0  0  0  0
    8.4125  -15.8168   26.6304 C   0  0  0  0  0  0  0  0  0  0  0  0
    7.4921  -16.6586   26.7757 O   0  0  0  0  0  0  0  0  0  0  0  0
    9.5832  -16.0110   27.3502 O   0  0  0  0  0  0  0  0  0  0  0  0
  2  1  1  6
  3  2  1  0
  4  2  1  0
  4  5  1  6
  6  4  1  0
  6  7  2  0
  8  9  1  0
 10  9  1  1
 10 11  1  0
 10 12  1  0
 11  6  1  0
 12 13  2  0
 12 19  1  0
 14 15  1  0
 16 17  1  1
 16 15  1  0
 18 16  1  0
 18 19  1  6
 20 22  1  0
 20 18  1  0
 21 20  2  0
M  END
$$$$
