VSI.pdb
     RDKit          3D

 22 21  0  0  1  0  0  0  0  0999 V2000
    8.3273  -12.6568   18.0929 C   0  0  0  0  0  0  0  0  0  0  0  0
    7.9080  -13.4465   19.3182 C   0  0  2  0  0  0  0  0  0  0  0  0
    8.3499  -12.7777   20.5805 C   0  0  0  0  0  0  0  0  0  0  0  0
    8.3985  -14.8755   19.2511 C   0  0  2  0  0  0  0  0  0  0  0  0
    7.9025  -15.5882   18.1185 N   0  0  0  0  0  0  0  0  0  0  0  0
    7.9556  -15.5617   20.4869 C   0  0  0  0  0  0  0  0  0  0  0  0
    6.9939  -16.3583   20.4714 O   0  0  0  0  0  0  0  0  0  0  0  0
    9.8433  -17.8492   22.5231 O   0  0  0  0  0  0  0  0  0  0  0  0
    8.4968  -17.5825   22.7377 C   0  0  0  0  0  0  0  0  0  0  0  0
    8.2917  -16.1039   22.8799 C   0  0  2  0  0  0  0  0  0  0  0  0
    8.5992  -15.3440   21.7249 N   0  0  0  0  0  0  0  0  0  0  0  0
    9.0095  -15.5538   24.0459 C   0  0  0  0  0  0  0  0  0  0  0  0
   10.2235  -15.2665   23.9571 O   0  0  0  0  0  0  0  0  0  0  0  0
    6.0664  -12.0747   26.4936 C   0  0  0  0  0  0  0  0  0  0  0  0
    7.1657  -12.9341   25.9013 C   0  0  0  0  0  0  0  0  0  0  0  0
    7.9108  -13.6957   26.9702 C   0  0  2  0  0  0  0  0  0  0  0  0
    8.5324  -12.8155   28.0042 C   0  0  0  0  0  0  0  0  0  0  0  0
    8.9463  -14.5921   26.3543 C   0  0  2  0  0  0  0  0  0  0  0  0
    8.3476  -15.3413   25.2772 N   0  0  0  0  0  0  0  0  0  0  0  0
    9.5392  -15.5258   27.3516 C   0  0  0  0  0  0  0  0  0  0  0  0
    9.0600  -16.6668   27.5644 O   0  0  0  0  0  0  0  0  0  0  0  0
   10.6570  -15.1496   28.0833 O   0  0  0  0  0  0  0  0  0  0  0  0
  2  1  1  6
  3  2  1  0
  4  2  1  0
  4  5  1  6
  6  4  1  0
  6  7  2  0
  8  9  1  0
 10  9  1  6
 10 11  1  0
 10 12  1  0
 11  6  1  0
 12 13  2  0
 12 19  1  0
 14 15  1  0
 16 17  1  1
 16 15  1  0
 18 16  1  0
 18 19  1  6
 20 22  1  0
 20 18  1  0
 21 20  2  0
M  END
$$$$
