VSI.pdb
     RDKit          3D

 22 21  0  0  1  0  0  0  0  0999 V2000
    7.9340  -12.9533   18.6916 C   0  0  0  0  0  0  0  0  0  0  0  0
    7.7329  -13.5589   20.0677 C   0  0  2  0  0  0  0  0  0  0  0  0
    8.6291  -12.9251   21.0831 C   0  0  0  0  0  0  0  0  0  0  0  0
    7.9047  -15.0612   20.0426 C   0  0  2  0  0  0  0  0  0  0  0  0
    7.0502  -15.7097   19.1013 N   0  0  0  0  0  0  0  0  0  0  0  0
    7.6045  -15.5712   21.4005 C   0  0  0  0  0  0  0  0  0  0  0  0
    6.4269  -15.7577   21.7723 O   0  0  0  0  0  0  0  0  0  0  0  0
    9.7494  -18.3693   23.3192 O   0  0  0  0  0  0  0  0  0  0  0  0
    8.4471  -17.9666   23.5878 C   0  0  0  0  0  0  0  0  0  0  0  0
    8.3700  -16.4690   23.5780 C   0  0  2  0  0  0  0  0  0  0  0  0
    8.6318  -15.8652   22.3239 N   0  0  0  0  0  0  0  0  0  0  0  0
    9.2283  -15.8625   24.6138 C   0  0  0  0  0  0  0  0  0  0  0  0
   10.4098  -15.5515   24.3465 O   0  0  0  0  0  0  0  0  0  0  0  0
    7.0275  -12.1806   27.4722 C   0  0  0  0  0  0  0  0  0  0  0  0
    8.0113  -13.0773   26.7469 C   0  0  0  0  0  0  0  0  0  0  0  0
    8.7161  -14.0118   27.6996 C   0  0  2  0  0  0  0  0  0  0  0  0
    9.5487  -13.3059   28.7187 C   0  0  0  0  0  0  0  0  0  0  0  0
    9.5473  -15.0078   26.9430 C   0  0  2  0  0  0  0  0  0  0  0  0
    8.7391  -15.6219   25.9184 N   0  0  0  0  0  0  0  0  0  0  0  0
   10.1124  -16.0559   27.8375 C   0  0  0  0  0  0  0  0  0  0  0  0
    9.4860  -17.1099   28.1087 O   0  0  0  0  0  0  0  0  0  0  0  0
   11.3687  -15.8890   28.4032 O   0  0  0  0  0  0  0  0  0  0  0  0
  2  1  1  6
  3  2  1  0
  4  2  1  0
  4  5  1  6
  6  4  1  0
  6  7  2  0
  8  9  1  0
 10  9  1  6
 10 11  1  0
 10 12  1  0
 11  6  1  0
 12 13  2  0
 12 19  1  0
 14 15  1  0
 16 17  1  1
 16 15  1  0
 18 16  1  0
 18 19  1  6
 20 22  1  0
 20 18  1  0
 21 20  2  0
M  END
$$$$
