TAV.pdb
     RDKit          3D

 20 19  0  0  1  0  0  0  0  0999 V2000
    9.0413  -12.7818   20.1559 C   0  0  0  0  0  0  0  0  0  0  0  0
    8.1618  -13.4350   19.0860 C   0  0  1  0  0  0  0  0  0  0  0  0
    8.5770  -13.1161   17.8087 O   0  0  0  0  0  0  0  0  0  0  0  0
    8.2042  -14.9377   19.3348 C   0  0  2  0  0  0  0  0  0  0  0  0
    7.3742  -15.5949   18.3501 N   0  0  0  0  0  0  0  0  0  0  0  0
    7.6790  -15.2431   20.6837 C   0  0  0  0  0  0  0  0  0  0  0  0
    6.5400  -14.8539   21.0097 O   0  0  0  0  0  0  0  0  0  0  0  0
    8.2023  -17.5540   23.5441 C   0  0  0  0  0  0  0  0  0  0  0  0
    7.8574  -16.2004   22.9703 C   0  0  2  0  0  0  0  0  0  0  0  0
    8.4049  -15.9739   21.6681 N   0  0  0  0  0  0  0  0  0  0  0  0
    8.3003  -15.1541   23.9483 C   0  0  0  0  0  0  0  0  0  0  0  0
    9.4685  -14.7053   23.9242 O   0  0  0  0  0  0  0  0  0  0  0  0
    5.4529  -13.1367   26.6035 C   0  0  0  0  0  0  0  0  0  0  0  0
    6.7414  -12.5918   26.0784 C   0  0  1  0  0  0  0  0  0  0  0  0
    7.2800  -11.5039   26.9473 C   0  0  0  0  0  0  0  0  0  0  0  0
    7.7946  -13.6555   25.8601 C   0  0  2  0  0  0  0  0  0  0  0  0
    7.4000  -14.6513   24.9229 N   0  0  0  0  0  0  0  0  0  0  0  0
    8.2905  -14.2114   27.1412 C   0  0  0  0  0  0  0  0  0  0  0  0
    7.9669  -15.5197   27.4603 O   0  0  0  0  0  0  0  0  0  0  0  0
    8.9895  -13.5876   27.9743 O   0  0  0  0  0  0  0  0  0  0  0  0
  2  1  1  1
  2  3  1  0
  4  5  1  6
  4  2  1  0
  6 10  1  0
  6  4  1  0
  7  6  2  0
  9 10  1  0
  9  8  1  1
 11  9  1  0
 12 11  2  0
 14 13  1  1
 14 15  1  0
 16 17  1  6
 16 14  1  0
 17 11  1  0
 18 16  1  0
 19 18  1  0
 20 18  2  0
M  END
$$$$
