TAV.pdb
     RDKit          3D

 20 19  0  0  1  0  0  0  0  0999 V2000
    8.3112  -16.0567   18.8604 C   0  0  0  0  0  0  0  0  0  0  0  0
    8.3720  -15.7888   20.3669 C   0  0  1  0  0  0  0  0  0  0  0  0
    8.6767  -14.4718   20.6468 O   0  0  0  0  0  0  0  0  0  0  0  0
    7.0196  -16.1903   20.9429 C   0  0  2  0  0  0  0  0  0  0  0  0
    6.0124  -15.2847   20.4371 N   0  0  0  0  0  0  0  0  0  0  0  0
    7.0493  -16.0964   22.4190 C   0  0  0  0  0  0  0  0  0  0  0  0
    6.8348  -15.0018   22.9764 O   0  0  0  0  0  0  0  0  0  0  0  0
    7.1232  -18.4196   25.4074 C   0  0  0  0  0  0  0  0  0  0  0  0
    7.1642  -17.0889   24.6947 C   0  0  2  0  0  0  0  0  0  0  0  0
    7.3139  -17.2032   23.2764 N   0  0  0  0  0  0  0  0  0  0  0  0
    8.2609  -16.2683   25.3042 C   0  0  0  0  0  0  0  0  0  0  0  0
    9.4072  -16.2532   24.8019 O   0  0  0  0  0  0  0  0  0  0  0  0
    7.8767  -12.5782   26.3168 C   0  0  0  0  0  0  0  0  0  0  0  0
    8.5503  -13.3032   27.4366 C   0  0  1  0  0  0  0  0  0  0  0  0
    7.6819  -13.3841   28.6482 C   0  0  0  0  0  0  0  0  0  0  0  0
    9.0351  -14.6825   27.0485 C   0  0  2  0  0  0  0  0  0  0  0  0
    8.0186  -15.4909   26.4661 N   0  0  0  0  0  0  0  0  0  0  0  0
    9.7555  -15.3467   28.1603 C   0  0  0  0  0  0  0  0  0  0  0  0
   10.9601  -14.8070   28.5798 O   0  0  0  0  0  0  0  0  0  0  0  0
    9.3605  -16.3725   28.7632 O   0  0  0  0  0  0  0  0  0  0  0  0
  2  1  1  6
  2  3  1  0
  4  5  1  6
  4  2  1  0
  6 10  1  0
  6  4  1  0
  7  6  2  0
  9 10  1  0
  9  8  1  1
 11  9  1  0
 12 11  2  0
 14 13  1  6
 14 15  1  0
 16 17  1  1
 16 14  1  0
 17 11  1  0
 18 16  1  0
 19 18  1  0
 20 18  2  0
M  END
$$$$
