TAV.pdb
     RDKit          3D

 20 19  0  0  1  0  0  0  0  0999 V2000
    8.9919  -12.4785   19.8918 C   0  0  0  0  0  0  0  0  0  0  0  0
    8.4347  -13.2755   18.7089 C   0  0  1  0  0  0  0  0  0  0  0  0
    8.9388  -12.8325   17.5025 O   0  0  0  0  0  0  0  0  0  0  0  0
    8.7769  -14.7390   18.9606 C   0  0  2  0  0  0  0  0  0  0  0  0
    8.2635  -15.5307   17.8651 N   0  0  0  0  0  0  0  0  0  0  0  0
    8.1474  -15.1976   20.2184 C   0  0  0  0  0  0  0  0  0  0  0  0
    6.9047  -15.2467   20.3092 O   0  0  0  0  0  0  0  0  0  0  0  0
    8.4791  -17.4052   22.9934 C   0  0  0  0  0  0  0  0  0  0  0  0
    8.2148  -15.9779   22.5770 C   0  0  2  0  0  0  0  0  0  0  0  0
    8.8834  -15.6001   21.3699 N   0  0  0  0  0  0  0  0  0  0  0  0
    8.5869  -15.0831   23.7209 C   0  0  0  0  0  0  0  0  0  0  0  0
    9.7647  -14.6870   23.8701 O   0  0  0  0  0  0  0  0  0  0  0  0
    5.5748  -13.1056   26.2406 C   0  0  0  0  0  0  0  0  0  0  0  0
    6.9657  -12.6642   25.9185 C   0  0  1  0  0  0  0  0  0  0  0  0
    7.4881  -11.6940   26.9257 C   0  0  0  0  0  0  0  0  0  0  0  0
    7.9333  -13.8147   25.7509 C   0  0  2  0  0  0  0  0  0  0  0  0
    7.6069  -14.6674   24.6590 N   0  0  0  0  0  0  0  0  0  0  0  0
    8.1526  -14.5407   27.0241 C   0  0  0  0  0  0  0  0  0  0  0  0
    8.8736  -13.9111   28.0252 O   0  0  0  0  0  0  0  0  0  0  0  0
    7.7340  -15.6952   27.2761 O   0  0  0  0  0  0  0  0  0  0  0  0
  2  1  1  1
  2  3  1  0
  4  5  1  6
  4  2  1  0
  6 10  1  0
  6  4  1  0
  7  6  2  0
  9 10  1  0
  9  8  1  1
 11  9  1  0
 12 11  2  0
 14 13  1  1
 14 15  1  0
 16 17  1  6
 16 14  1  0
 17 11  1  0
 18 16  1  0
 19 18  1  0
 20 18  2  0
M  END
$$$$
