TAV.pdb
     RDKit          3D

 20 19  0  0  1  0  0  0  0  0999 V2000
    9.0555  -12.6432   19.9306 C   0  0  0  0  0  0  0  0  0  0  0  0
    8.2222  -13.3561   18.8618 C   0  0  1  0  0  0  0  0  0  0  0  0
    8.5942  -12.9884   17.5844 O   0  0  0  0  0  0  0  0  0  0  0  0
    8.3946  -14.8527   19.0914 C   0  0  2  0  0  0  0  0  0  0  0  0
    7.6524  -15.5665   18.0765 N   0  0  0  0  0  0  0  0  0  0  0  0
    7.8658  -15.2256   20.4218 C   0  0  0  0  0  0  0  0  0  0  0  0
    6.6528  -15.0793   20.6715 O   0  0  0  0  0  0  0  0  0  0  0  0
    8.4243  -17.5347   23.1558 C   0  0  0  0  0  0  0  0  0  0  0  0
    8.0917  -16.1253   22.7275 C   0  0  2  0  0  0  0  0  0  0  0  0
    8.6694  -15.7571   21.4714 N   0  0  0  0  0  0  0  0  0  0  0  0
    8.5109  -15.1944   23.8253 C   0  0  0  0  0  0  0  0  0  0  0  0
    9.6820  -14.7569   23.8848 O   0  0  0  0  0  0  0  0  0  0  0  0
    5.5865  -13.3480   26.5213 C   0  0  0  0  0  0  0  0  0  0  0  0
    6.9121  -12.8062   26.0941 C   0  0  1  0  0  0  0  0  0  0  0  0
    7.4350  -11.7930   27.0577 C   0  0  0  0  0  0  0  0  0  0  0  0
    7.9477  -13.8825   25.8547 C   0  0  2  0  0  0  0  0  0  0  0  0
    7.5840  -14.7906   24.8209 N   0  0  0  0  0  0  0  0  0  0  0  0
    8.3503  -14.5503   27.1149 C   0  0  0  0  0  0  0  0  0  0  0  0
    9.1853  -13.8679   27.9840 O   0  0  0  0  0  0  0  0  0  0  0  0
    7.9932  -15.6994   27.4668 O   0  0  0  0  0  0  0  0  0  0  0  0
  2  1  1  1
  2  3  1  0
  4  5  1  6
  4  2  1  0
  6 10  1  0
  6  4  1  0
  7  6  2  0
  9 10  1  0
  9  8  1  1
 11  9  1  0
 12 11  2  0
 14 13  1  1
 14 15  1  0
 16 17  1  6
 16 14  1  0
 17 11  1  0
 18 16  1  0
 19 18  1  0
 20 18  2  0
M  END
$$$$
