TAV.pdb
     RDKit          3D

 20 19  0  0  1  0  0  0  0  0999 V2000
    8.4753  -16.0047   20.7430 C   0  0  0  0  0  0  0  0  0  0  0  0
    7.1719  -16.4538   20.0762 C   0  0  1  0  0  0  0  0  0  0  0  0
    7.3392  -16.7058   18.7293 O   0  0  0  0  0  0  0  0  0  0  0  0
    6.6938  -17.6906   20.8270 C   0  0  2  0  0  0  0  0  0  0  0  0
    5.4175  -18.0987   20.2840 N   0  0  0  0  0  0  0  0  0  0  0  0
    6.5247  -17.3779   22.2631 C   0  0  0  0  0  0  0  0  0  0  0  0
    5.6268  -16.5926   22.6264 O   0  0  0  0  0  0  0  0  0  0  0  0
    7.6363  -18.5914   25.6450 C   0  0  0  0  0  0  0  0  0  0  0  0
    7.1535  -17.5524   24.6612 C   0  0  2  0  0  0  0  0  0  0  0  0
    7.3407  -17.9280   23.2934 N   0  0  0  0  0  0  0  0  0  0  0  0
    7.8377  -16.2570   24.9796 C   0  0  0  0  0  0  0  0  0  0  0  0
    8.8974  -15.9303   24.3991 O   0  0  0  0  0  0  0  0  0  0  0  0
    5.8376  -13.2892   27.4563 C   0  0  0  0  0  0  0  0  0  0  0  0
    6.7919  -13.0071   26.3415 C   0  0  1  0  0  0  0  0  0  0  0  0
    7.4389  -11.6698   26.4888 C   0  0  0  0  0  0  0  0  0  0  0  0
    7.8442  -14.0803   26.1706 C   0  0  2  0  0  0  0  0  0  0  0  0
    7.2945  -15.3742   25.9485 N   0  0  0  0  0  0  0  0  0  0  0  0
    8.8511  -14.0432   27.2573 C   0  0  0  0  0  0  0  0  0  0  0  0
    8.9981  -15.1643   28.0572 O   0  0  0  0  0  0  0  0  0  0  0  0
    9.5933  -13.0670   27.5182 O   0  0  0  0  0  0  0  0  0  0  0  0
  2  1  1  1
  2  3  1  0
  4  5  1  6
  4  2  1  0
  6 10  1  0
  6  4  1  0
  7  6  2  0
  9 10  1  0
  9  8  1  1
 11  9  1  0
 12 11  2  0
 14 13  1  1
 14 15  1  0
 16 17  1  1
 16 14  1  0
 17 11  1  0
 18 16  1  0
 19 18  1  0
 20 18  2  0
M  END
$$$$
