TAV.pdb
     RDKit          3D

 20 19  0  0  1  0  0  0  0  0999 V2000
   10.8325  -14.2584   18.2246 C   0  0  0  0  0  0  0  0  0  0  0  0
   10.1877  -14.3641   19.6096 C   0  0  1  0  0  0  0  0  0  0  0  0
   10.5805  -13.3366   20.4435 O   0  0  0  0  0  0  0  0  0  0  0  0
    8.6790  -14.3726   19.3960 C   0  0  2  0  0  0  0  0  0  0  0  0
    8.2784  -13.0894   18.8635 N   0  0  0  0  0  0  0  0  0  0  0  0
    7.9859  -14.5934   20.6842 C   0  0  0  0  0  0  0  0  0  0  0  0
    7.4571  -13.6327   21.2778 O   0  0  0  0  0  0  0  0  0  0  0  0
    6.9453  -17.4642   22.9389 C   0  0  0  0  0  0  0  0  0  0  0  0
    7.1481  -16.0229   22.5366 C   0  0  2  0  0  0  0  0  0  0  0  0
    7.8759  -15.8662   21.3148 N   0  0  0  0  0  0  0  0  0  0  0  0
    7.8154  -15.3116   23.6751 C   0  0  0  0  0  0  0  0  0  0  0  0
    9.0554  -15.1425   23.6889 O   0  0  0  0  0  0  0  0  0  0  0  0
    7.3399  -12.3863   27.6413 C   0  0  0  0  0  0  0  0  0  0  0  0
    6.6875  -13.2051   26.5750 C   0  0  1  0  0  0  0  0  0  0  0  0
    5.9308  -12.3567   25.6075 C   0  0  0  0  0  0  0  0  0  0  0  0
    7.6548  -14.1034   25.8364 C   0  0  2  0  0  0  0  0  0  0  0  0
    7.0505  -14.8152   24.7622 N   0  0  0  0  0  0  0  0  0  0  0  0
    8.4210  -14.9692   26.7637 C   0  0  0  0  0  0  0  0  0  0  0  0
    9.4594  -14.4042   27.4854 O   0  0  0  0  0  0  0  0  0  0  0  0
    8.2053  -16.1895   26.9533 O   0  0  0  0  0  0  0  0  0  0  0  0
  2  1  1  6
  2  3  1  0
  4  5  1  1
  4  2  1  0
  6 10  1  0
  6  4  1  0
  7  6  2  0
  9 10  1  0
  9  8  1  1
 11  9  1  0
 12 11  2  0
 14 13  1  1
 14 15  1  0
 16 17  1  6
 16 14  1  0
 17 11  1  0
 18 16  1  0
 19 18  1  0
 20 18  2  0
M  END
$$$$
