TAV.pdb
     RDKit          3D

 20 19  0  0  1  0  0  0  0  0999 V2000
   10.9791  -13.9747   18.4137 C   0  0  0  0  0  0  0  0  0  0  0  0
   10.1687  -13.9095   19.7114 C   0  0  1  0  0  0  0  0  0  0  0  0
   10.0907  -12.6243   20.2092 O   0  0  0  0  0  0  0  0  0  0  0  0
    8.7900  -14.4796   19.4015 C   0  0  2  0  0  0  0  0  0  0  0  0
    8.0864  -13.5525   18.5436 N   0  0  0  0  0  0  0  0  0  0  0  0
    8.0199  -14.6522   20.6528 C   0  0  0  0  0  0  0  0  0  0  0  0
    7.1543  -13.8127   20.9704 O   0  0  0  0  0  0  0  0  0  0  0  0
    7.2012  -17.2625   23.2077 C   0  0  0  0  0  0  0  0  0  0  0  0
    7.4421  -15.8413   22.7573 C   0  0  2  0  0  0  0  0  0  0  0  0
    8.2025  -15.7445   21.5492 N   0  0  0  0  0  0  0  0  0  0  0  0
    8.0953  -15.1004   23.8851 C   0  0  0  0  0  0  0  0  0  0  0  0
    9.3418  -15.0211   23.9653 O   0  0  0  0  0  0  0  0  0  0  0  0
    7.0398  -11.5296   25.3040 C   0  0  0  0  0  0  0  0  0  0  0  0
    7.1434  -12.5469   26.3937 C   0  0  1  0  0  0  0  0  0  0  0  0
    5.8031  -12.9209   26.9343 C   0  0  0  0  0  0  0  0  0  0  0  0
    7.9050  -13.7873   25.9818 C   0  0  2  0  0  0  0  0  0  0  0  0
    7.3093  -14.4729   24.8860 N   0  0  0  0  0  0  0  0  0  0  0  0
    8.1985  -14.6640   27.1400 C   0  0  0  0  0  0  0  0  0  0  0  0
    9.0449  -14.1886   28.1279 O   0  0  0  0  0  0  0  0  0  0  0  0
    7.7381  -15.8185   27.3041 O   0  0  0  0  0  0  0  0  0  0  0  0
  2  1  1  6
  2  3  1  0
  4  5  1  6
  4  2  1  0
  6 10  1  0
  6  4  1  0
  7  6  2  0
  9 10  1  0
  9  8  1  1
 11  9  1  0
 12 11  2  0
 14 13  1  6
 14 15  1  0
 16 17  1  6
 16 14  1  0
 17 11  1  0
 18 16  1  0
 19 18  1  0
 20 18  2  0
M  END
$$$$
