TAV.pdb
     RDKit          3D

 20 19  0  0  1  0  0  0  0  0999 V2000
    9.0827  -12.4626   19.9261 C   0  0  0  0  0  0  0  0  0  0  0  0
    8.1730  -13.2009   18.9401 C   0  0  1  0  0  0  0  0  0  0  0  0
    8.4571  -12.8746   17.6292 O   0  0  0  0  0  0  0  0  0  0  0  0
    8.3525  -14.6911   19.2027 C   0  0  2  0  0  0  0  0  0  0  0  0
    7.5529  -15.4297   18.2513 N   0  0  0  0  0  0  0  0  0  0  0  0
    7.8968  -15.0232   20.5704 C   0  0  0  0  0  0  0  0  0  0  0  0
    6.6806  -14.9944   20.8442 O   0  0  0  0  0  0  0  0  0  0  0  0
    8.6664  -17.2981   23.1759 C   0  0  0  0  0  0  0  0  0  0  0  0
    8.2685  -15.8725   22.8764 C   0  0  2  0  0  0  0  0  0  0  0  0
    8.7768  -15.3855   21.6308 N   0  0  0  0  0  0  0  0  0  0  0  0
    8.7053  -15.0162   24.0269 C   0  0  0  0  0  0  0  0  0  0  0  0
    9.8742  -14.5734   24.0909 O   0  0  0  0  0  0  0  0  0  0  0  0
    6.6819  -11.9159   25.3930 C   0  0  0  0  0  0  0  0  0  0  0  0
    7.0569  -12.8452   26.5016 C   0  0  1  0  0  0  0  0  0  0  0  0
    5.8751  -13.5933   27.0234 C   0  0  0  0  0  0  0  0  0  0  0  0
    8.1604  -13.8089   26.1250 C   0  0  2  0  0  0  0  0  0  0  0  0
    7.7981  -14.6908   25.0683 N   0  0  0  0  0  0  0  0  0  0  0  0
    8.7152  -14.5025   27.3113 C   0  0  0  0  0  0  0  0  0  0  0  0
    8.6121  -15.8822   27.3752 O   0  0  0  0  0  0  0  0  0  0  0  0
    9.2791  -13.9371   28.2777 O   0  0  0  0  0  0  0  0  0  0  0  0
  2  1  1  1
  2  3  1  0
  4  5  1  6
  4  2  1  0
  6 10  1  0
  6  4  1  0
  7  6  2  0
  9 10  1  0
  9  8  1  1
 11  9  1  0
 12 11  2  0
 14 13  1  6
 14 15  1  0
 16 17  1  6
 16 14  1  0
 17 11  1  0
 18 16  1  0
 19 18  1  0
 20 18  2  0
M  END
$$$$
