TAV.pdb
     RDKit          3D

 20 19  0  0  1  0  0  0  0  0999 V2000
    8.8609  -12.7646   20.4199 C   0  0  0  0  0  0  0  0  0  0  0  0
    7.8195  -13.4025   19.4960 C   0  0  1  0  0  0  0  0  0  0  0  0
    8.0629  -13.1186   18.1672 O   0  0  0  0  0  0  0  0  0  0  0  0
    7.8463  -14.9017   19.7672 C   0  0  2  0  0  0  0  0  0  0  0  0
    6.9148  -15.5519   18.8728 N   0  0  0  0  0  0  0  0  0  0  0  0
    7.4369  -15.1717   21.1630 C   0  0  0  0  0  0  0  0  0  0  0  0
    6.3480  -14.7360   21.5864 O   0  0  0  0  0  0  0  0  0  0  0  0
    8.0729  -17.5274   23.9433 C   0  0  0  0  0  0  0  0  0  0  0  0
    7.7731  -16.1403   23.4269 C   0  0  2  0  0  0  0  0  0  0  0  0
    8.2234  -15.9181   22.0873 N   0  0  0  0  0  0  0  0  0  0  0  0
    8.3661  -15.1498   24.3833 C   0  0  0  0  0  0  0  0  0  0  0  0
    9.5446  -14.7509   24.2468 O   0  0  0  0  0  0  0  0  0  0  0  0
    7.0423  -11.6957   25.5060 C   0  0  0  0  0  0  0  0  0  0  0  0
    7.2755  -12.5551   26.7061 C   0  0  1  0  0  0  0  0  0  0  0  0
    5.9936  -12.9971   27.3307 C   0  0  0  0  0  0  0  0  0  0  0  0
    8.1574  -13.7507   26.4219 C   0  0  2  0  0  0  0  0  0  0  0  0
    7.5993  -14.6442   25.4649 N   0  0  0  0  0  0  0  0  0  0  0  0
    8.5992  -14.4188   27.6688 C   0  0  0  0  0  0  0  0  0  0  0  0
    9.4032  -13.7101   28.5461 O   0  0  0  0  0  0  0  0  0  0  0  0
    8.3019  -15.5901   28.0022 O   0  0  0  0  0  0  0  0  0  0  0  0
  2  1  1  1
  2  3  1  0
  4  5  1  6
  4  2  1  0
  6 10  1  0
  6  4  1  0
  7  6  2  0
  9 10  1  0
  9  8  1  1
 11  9  1  0
 12 11  2  0
 14 13  1  6
 14 15  1  0
 16 17  1  6
 16 14  1  0
 17 11  1  0
 18 16  1  0
 19 18  1  0
 20 18  2  0
M  END
$$$$
