TAV.pdb
     RDKit          3D

 20 19  0  0  1  0  0  0  0  0999 V2000
   10.2802  -17.4457   19.0615 C   0  0  0  0  0  0  0  0  0  0  0  0
    9.7144  -16.6682   20.2533 C   0  0  1  0  0  0  0  0  0  0  0  0
    9.9047  -15.3073   20.1213 O   0  0  0  0  0  0  0  0  0  0  0  0
    8.2362  -17.0247   20.3529 C   0  0  2  0  0  0  0  0  0  0  0  0
    7.5352  -16.4106   19.2475 N   0  0  0  0  0  0  0  0  0  0  0  0
    7.6749  -16.5093   21.6209 C   0  0  0  0  0  0  0  0  0  0  0  0
    7.2334  -15.3444   21.6768 O   0  0  0  0  0  0  0  0  0  0  0  0
    6.5729  -17.8312   24.9869 C   0  0  0  0  0  0  0  0  0  0  0  0
    6.9285  -16.7656   23.9776 C   0  0  2  0  0  0  0  0  0  0  0  0
    7.6001  -17.2736   22.8210 N   0  0  0  0  0  0  0  0  0  0  0  0
    7.7412  -15.7167   24.6753 C   0  0  0  0  0  0  0  0  0  0  0  0
    8.9877  -15.6907   24.5651 O   0  0  0  0  0  0  0  0  0  0  0  0
    6.7036  -11.8153   25.2031 C   0  0  0  0  0  0  0  0  0  0  0  0
    7.1286  -12.4883   26.4678 C   0  0  1  0  0  0  0  0  0  0  0  0
    5.9792  -12.7049   27.3955 C   0  0  0  0  0  0  0  0  0  0  0  0
    7.8631  -13.7898   26.2338 C   0  0  2  0  0  0  0  0  0  0  0  0
    7.1098  -14.7304   25.4765 N   0  0  0  0  0  0  0  0  0  0  0  0
    8.4124  -14.3469   27.4924 C   0  0  0  0  0  0  0  0  0  0  0  0
    9.3951  -13.6309   28.1557 O   0  0  0  0  0  0  0  0  0  0  0  0
    8.0571  -15.4291   28.0162 O   0  0  0  0  0  0  0  0  0  0  0  0
  2  1  1  6
  2  3  1  0
  4  5  1  6
  4  2  1  0
  6 10  1  0
  6  4  1  0
  7  6  2  0
  9 10  1  0
  9  8  1  1
 11  9  1  0
 12 11  2  0
 14 13  1  6
 14 15  1  0
 16 17  1  1
 16 14  1  0
 17 11  1  0
 18 16  1  0
 19 18  1  0
 20 18  2  0
M  END
$$$$
