TAV.pdb
     RDKit          3D

 20 19  0  0  1  0  0  0  0  0999 V2000
    9.2611  -12.4927   20.0300 C   0  0  0  0  0  0  0  0  0  0  0  0
    8.3865  -13.2074   18.9959 C   0  0  1  0  0  0  0  0  0  0  0  0
    8.7812  -12.9291   17.7027 O   0  0  0  0  0  0  0  0  0  0  0  0
    8.4668  -14.6979   19.3025 C   0  0  2  0  0  0  0  0  0  0  0  0
    7.7205  -15.4196   18.2962 N   0  0  0  0  0  0  0  0  0  0  0  0
    7.8734  -14.9752   20.6289 C   0  0  0  0  0  0  0  0  0  0  0  0
    6.6928  -14.6483   20.8620 O   0  0  0  0  0  0  0  0  0  0  0  0
    8.1158  -17.3322   23.3893 C   0  0  0  0  0  0  0  0  0  0  0  0
    7.9278  -15.9049   22.9331 C   0  0  2  0  0  0  0  0  0  0  0  0
    8.5771  -15.6098   21.6929 N   0  0  0  0  0  0  0  0  0  0  0  0
    8.3947  -14.9997   24.0332 C   0  0  0  0  0  0  0  0  0  0  0  0
    9.5798  -14.5998   24.0769 O   0  0  0  0  0  0  0  0  0  0  0  0
    6.9708  -11.6331   25.2274 C   0  0  0  0  0  0  0  0  0  0  0  0
    7.0328  -12.5760   26.3851 C   0  0  1  0  0  0  0  0  0  0  0  0
    5.6743  -13.0320   26.8038 C   0  0  0  0  0  0  0  0  0  0  0  0
    7.9302  -13.7681   26.1366 C   0  0  2  0  0  0  0  0  0  0  0  0
    7.4981  -14.5782   25.0490 N   0  0  0  0  0  0  0  0  0  0  0  0
    8.1872  -14.5333   27.3794 C   0  0  0  0  0  0  0  0  0  0  0  0
    8.8774  -13.9098   28.4056 O   0  0  0  0  0  0  0  0  0  0  0  0
    7.8268  -15.7165   27.5840 O   0  0  0  0  0  0  0  0  0  0  0  0
  2  1  1  1
  2  3  1  0
  4  5  1  6
  4  2  1  0
  6 10  1  0
  6  4  1  0
  7  6  2  0
  9 10  1  0
  9  8  1  1
 11  9  1  0
 12 11  2  0
 14 13  1  6
 14 15  1  0
 16 17  1  6
 16 14  1  0
 17 11  1  0
 18 16  1  0
 19 18  1  0
 20 18  2  0
M  END
$$$$
