TAV.pdb
     RDKit          3D

 20 19  0  0  1  0  0  0  0  0999 V2000
    8.7906  -12.4617   20.0309 C   0  0  0  0  0  0  0  0  0  0  0  0
    8.0328  -13.2900   18.9895 C   0  0  1  0  0  0  0  0  0  0  0  0
    8.3832  -12.9461   17.6993 O   0  0  0  0  0  0  0  0  0  0  0  0
    8.3329  -14.7545   19.2848 C   0  0  2  0  0  0  0  0  0  0  0  0
    7.6496  -15.5742   18.3094 N   0  0  0  0  0  0  0  0  0  0  0  0
    7.8439  -15.1098   20.6351 C   0  0  0  0  0  0  0  0  0  0  0  0
    6.6191  -15.2154   20.8444 O   0  0  0  0  0  0  0  0  0  0  0  0
    8.5043  -17.2235   23.3301 C   0  0  0  0  0  0  0  0  0  0  0  0
    8.1717  -15.7871   23.0037 C   0  0  2  0  0  0  0  0  0  0  0  0
    8.7000  -15.3477   21.7488 N   0  0  0  0  0  0  0  0  0  0  0  0
    8.6490  -14.9300   24.1374 C   0  0  0  0  0  0  0  0  0  0  0  0
    9.8592  -14.6326   24.2529 O   0  0  0  0  0  0  0  0  0  0  0  0
    7.0359  -11.5447   25.5516 C   0  0  0  0  0  0  0  0  0  0  0  0
    7.2066  -12.5810   26.6147 C   0  0  1  0  0  0  0  0  0  0  0  0
    5.8991  -13.1660   27.0355 C   0  0  0  0  0  0  0  0  0  0  0  0
    8.1702  -13.6807   26.2271 C   0  0  2  0  0  0  0  0  0  0  0  0
    7.7339  -14.4384   25.1040 N   0  0  0  0  0  0  0  0  0  0  0  0
    8.5527  -14.5142   27.3912 C   0  0  0  0  0  0  0  0  0  0  0  0
    9.2572  -13.9185   28.4243 O   0  0  0  0  0  0  0  0  0  0  0  0
    8.2883  -15.7326   27.5224 O   0  0  0  0  0  0  0  0  0  0  0  0
  2  1  1  1
  2  3  1  0
  4  5  1  6
  4  2  1  0
  6 10  1  0
  6  4  1  0
  7  6  2  0
  9 10  1  0
  9  8  1  1
 11  9  1  0
 12 11  2  0
 14 13  1  6
 14 15  1  0
 16 17  1  6
 16 14  1  0
 17 11  1  0
 18 16  1  0
 19 18  1  0
 20 18  2  0
M  END
$$$$
