LAD.pdb
     RDKit          3D

 22 21  0  0  1  0  0  0  0  0999 V2000
    5.5107  -12.7157   26.8701 C   0  0  0  0  0  0  0  0  0  0  0  0
    6.9148  -13.1596   27.2422 C   0  0  2  0  0  0  0  0  0  0  0  0
    7.6721  -11.9851   27.8107 C   0  0  0  0  0  0  0  0  0  0  0  0
    7.6199  -13.7970   26.0867 C   0  0  0  0  0  0  0  0  0  0  0  0
    6.9094  -14.9735   25.5189 C   0  0  2  0  0  0  0  0  0  0  0  0
    6.7940  -16.0678   26.4694 N   0  0  0  0  0  0  0  0  0  0  0  0
    7.4953  -15.5231   24.2803 C   0  0  0  0  0  0  0  0  0  0  0  0
    8.0003  -16.6647   24.2136 O   0  0  0  0  0  0  0  0  0  0  0  0
    7.7302  -14.3609   20.6463 C   0  0  0  0  0  0  0  0  0  0  0  0
    7.8898  -15.3115   21.7811 C   0  0  2  0  0  0  0  0  0  0  0  0
    7.5249  -14.7747   23.0532 N   0  0  0  0  0  0  0  0  0  0  0  0
    9.2477  -15.8991   21.7611 C   0  0  0  0  0  0  0  0  0  0  0  0
    9.7282  -16.5008   20.7797 O   0  0  0  0  0  0  0  0  0  0  0  0
   10.0485  -15.7690   22.9281 N   0  0  0  0  0  0  0  0  0  0  0  0
   11.3191  -16.4148   23.1060 C   0  0  1  0  0  0  0  0  0  0  0  0
   12.4481  -15.4518   22.9209 C   0  0  0  0  0  0  0  0  0  0  0  0
   13.7356  -16.1034   22.6518 C   0  0  0  0  0  0  0  0  0  0  0  0
   13.7168  -17.3020   22.2602 O   0  0  0  0  0  0  0  0  0  0  0  0
   11.4199  -17.2211   24.3157 C   0  0  0  0  0  0  0  0  0  0  0  0
   10.6985  -16.8736   25.4327 O   0  0  0  0  0  0  0  0  0  0  0  0
   14.9429  -15.4823   22.8035 O   0  0  0  0  0  0  0  0  0  0  0  0
   12.1530  -18.2237   24.3513 O   0  0  0  0  0  0  0  0  0  0  0  0
  2  3  1  6
  2  1  1  0
  4  2  1  0
  4  5  1  0
  5  7  1  0
  5  6  1  1
  7  8  2  0
 10  9  1  6
 10 12  1  0
 11  7  1  0
 11 10  1  0
 12 13  2  0
 14 12  1  0
 14 15  1  0
 15 19  1  0
 16 17  1  0
 15 16  1  1
 17 21  1  0
 17 18  2  0
 19 22  2  0
 19 20  1  0
M  END
$$$$
