LAD.pdb
     RDKit          3D

 22 21  0  0  1  0  0  0  0  0999 V2000
    7.9865  -12.1197   27.1341 C   0  0  0  0  0  0  0  0  0  0  0  0
    6.7756  -12.6566   26.3906 C   0  0  2  0  0  0  0  0  0  0  0  0
    5.5781  -11.7945   26.7047 C   0  0  0  0  0  0  0  0  0  0  0  0
    6.5393  -14.1040   26.6867 C   0  0  0  0  0  0  0  0  0  0  0  0
    7.4788  -15.0246   25.9932 C   0  0  2  0  0  0  0  0  0  0  0  0
    8.8559  -14.5609   26.0468 N   0  0  0  0  0  0  0  0  0  0  0  0
    7.1591  -15.2992   24.5783 C   0  0  0  0  0  0  0  0  0  0  0  0
    6.1361  -15.9216   24.2194 O   0  0  0  0  0  0  0  0  0  0  0  0
    7.9163  -13.9897   21.2181 C   0  0  0  0  0  0  0  0  0  0  0  0
    7.8002  -15.1646   22.1253 C   0  0  2  0  0  0  0  0  0  0  0  0
    8.0115  -14.8645   23.5054 N   0  0  0  0  0  0  0  0  0  0  0  0
    8.6483  -16.2714   21.6301 C   0  0  0  0  0  0  0  0  0  0  0  0
    8.6959  -16.6271   20.4354 O   0  0  0  0  0  0  0  0  0  0  0  0
    9.4538  -16.9676   22.5716 N   0  0  0  0  0  0  0  0  0  0  0  0
   10.6721  -17.6507   22.2361 C   0  0  1  0  0  0  0  0  0  0  0  0
   11.5615  -16.7926   21.3941 C   0  0  0  0  0  0  0  0  0  0  0  0
   12.8008  -17.4619   20.9810 C   0  0  0  0  0  0  0  0  0  0  0  0
   12.9828  -18.6497   21.3638 O   0  0  0  0  0  0  0  0  0  0  0  0
   11.3462  -18.2702   23.3700 C   0  0  0  0  0  0  0  0  0  0  0  0
   12.4524  -19.0588   23.1618 O   0  0  0  0  0  0  0  0  0  0  0  0
   13.7593  -16.8678   20.2097 O   0  0  0  0  0  0  0  0  0  0  0  0
   10.9323  -18.0944   24.5283 O   0  0  0  0  0  0  0  0  0  0  0  0
  2  3  1  1
  2  1  1  0
  4  2  1  0
  4  5  1  0
  5  7  1  0
  5  6  1  6
  7  8  2  0
 10  9  1  6
 10 12  1  0
 11  7  1  0
 11 10  1  0
 12 13  2  0
 14 12  1  0
 14 15  1  0
 15 19  1  0
 16 17  1  0
 15 16  1  1
 17 21  1  0
 17 18  2  0
 19 22  2  0
 19 20  1  0
M  END
$$$$
