LAD.pdb
     RDKit          3D

 22 21  0  0  1  0  0  0  0  0999 V2000
    7.8339  -12.2524   27.2608 C   0  0  0  0  0  0  0  0  0  0  0  0
    6.6552  -12.5986   26.3675 C   0  0  2  0  0  0  0  0  0  0  0  0
    5.5170  -11.6524   26.6592 C   0  0  0  0  0  0  0  0  0  0  0  0
    6.2607  -14.0356   26.5011 C   0  0  0  0  0  0  0  0  0  0  0  0
    7.2788  -14.9923   25.9916 C   0  0  2  0  0  0  0  0  0  0  0  0
    8.6394  -14.5367   26.2265 N   0  0  0  0  0  0  0  0  0  0  0  0
    7.1650  -15.3257   24.5579 C   0  0  0  0  0  0  0  0  0  0  0  0
    6.2921  -16.0975   24.1051 O   0  0  0  0  0  0  0  0  0  0  0  0
    7.9304  -14.1554   21.2079 C   0  0  0  0  0  0  0  0  0  0  0  0
    8.1512  -15.2244   22.2205 C   0  0  2  0  0  0  0  0  0  0  0  0
    8.0599  -14.7793   23.5743 N   0  0  0  0  0  0  0  0  0  0  0  0
    9.4076  -15.9483   21.9255 C   0  0  0  0  0  0  0  0  0  0  0  0
    9.6936  -16.4115   20.8031 O   0  0  0  0  0  0  0  0  0  0  0  0
   10.3404  -16.1247   22.9832 N   0  0  0  0  0  0  0  0  0  0  0  0
   11.6104  -16.7788   22.8331 C   0  0  1  0  0  0  0  0  0  0  0  0
   12.7027  -15.7907   22.5749 C   0  0  0  0  0  0  0  0  0  0  0  0
   14.0327  -16.4026   22.4676 C   0  0  0  0  0  0  0  0  0  0  0  0
   14.2377  -17.1981   21.5108 O   0  0  0  0  0  0  0  0  0  0  0  0
   11.9183  -17.7426   23.8819 C   0  0  0  0  0  0  0  0  0  0  0  0
   12.8669  -18.7129   23.6635 O   0  0  0  0  0  0  0  0  0  0  0  0
   15.0506  -16.1563   23.3448 O   0  0  0  0  0  0  0  0  0  0  0  0
   11.3320  -17.6989   24.9765 O   0  0  0  0  0  0  0  0  0  0  0  0
  2  3  1  1
  2  1  1  0
  4  2  1  0
  4  5  1  0
  5  7  1  0
  5  6  1  6
  7  8  2  0
 10  9  1  6
 10 12  1  0
 11  7  1  0
 11 10  1  0
 12 13  2  0
 14 12  1  0
 14 15  1  0
 15 19  1  0
 16 17  1  0
 15 16  1  1
 17 21  1  0
 17 18  2  0
 19 22  2  0
 19 20  1  0
M  END
$$$$
