LAD.pdb
     RDKit          3D

 22 21  0  0  1  0  0  0  0  0999 V2000
    8.8586  -12.8962   18.3798 C   0  0  0  0  0  0  0  0  0  0  0  0
    7.6427  -13.2328   19.2257 C   0  0  2  0  0  0  0  0  0  0  0  0
    6.8332  -11.9799   19.4515 C   0  0  0  0  0  0  0  0  0  0  0  0
    8.0258  -13.9112   20.5030 C   0  0  0  0  0  0  0  0  0  0  0  0
    8.8028  -15.1648   20.3127 C   0  0  2  0  0  0  0  0  0  0  0  0
    8.1682  -16.0778   19.3758 N   0  0  0  0  0  0  0  0  0  0  0  0
    9.0838  -15.9229   21.5480 C   0  0  0  0  0  0  0  0  0  0  0  0
    9.6044  -15.4068   22.5605 O   0  0  0  0  0  0  0  0  0  0  0  0
    8.5438  -19.5086   22.7531 C   0  0  0  0  0  0  0  0  0  0  0  0
    9.1134  -18.1335   22.7963 C   0  0  2  0  0  0  0  0  0  0  0  0
    8.7742  -17.3213   21.6718 N   0  0  0  0  0  0  0  0  0  0  0  0
   10.5690  -18.1974   23.0548 C   0  0  0  0  0  0  0  0  0  0  0  0
   11.4226  -18.3979   22.1676 O   0  0  0  0  0  0  0  0  0  0  0  0
   11.0178  -18.0196   24.3916 N   0  0  0  0  0  0  0  0  0  0  0  0
   12.3998  -17.9052   24.7661 C   0  0  1  0  0  0  0  0  0  0  0  0
   13.0154  -16.6664   24.1982 C   0  0  0  0  0  0  0  0  0  0  0  0
   14.3887  -16.8619   23.7183 C   0  0  0  0  0  0  0  0  0  0  0  0
   14.8879  -18.0155   23.8201 O   0  0  0  0  0  0  0  0  0  0  0  0
   12.6555  -18.0961   26.1881 C   0  0  0  0  0  0  0  0  0  0  0  0
   13.9354  -18.3360   26.6278 O   0  0  0  0  0  0  0  0  0  0  0  0
   15.1472  -15.8654   23.1721 O   0  0  0  0  0  0  0  0  0  0  0  0
   11.7274  -18.0448   27.0127 O   0  0  0  0  0  0  0  0  0  0  0  0
  2  3  1  1
  2  1  1  0
  4  2  1  0
  4  5  1  0
  5  7  1  0
  5  6  1  6
  7  8  2  0
 10  9  1  6
 10 12  1  0
 11  7  1  0
 11 10  1  0
 12 13  2  0
 14 12  1  0
 14 15  1  0
 15 19  1  0
 16 17  1  0
 15 16  1  1
 17 21  1  0
 17 18  2  0
 19 22  2  0
 19 20  1  0
M  END
$$$$
