LAD.pdb
     RDKit          3D

 22 21  0  0  1  0  0  0  0  0999 V2000
    7.9347  -11.8365   26.0965 C   0  0  0  0  0  0  0  0  0  0  0  0
    6.5073  -12.2198   25.7463 C   0  0  2  0  0  0  0  0  0  0  0  0
    5.5570  -11.4693   26.6461 C   0  0  0  0  0  0  0  0  0  0  0  0
    6.3021  -13.7010   25.7964 C   0  0  0  0  0  0  0  0  0  0  0  0
    7.4020  -14.4854   25.1749 C   0  0  2  0  0  0  0  0  0  0  0  0
    7.5657  -14.1927   23.7601 N   0  0  0  0  0  0  0  0  0  0  0  0
    7.2840  -15.9505   25.3129 C   0  0  0  0  0  0  0  0  0  0  0  0
    6.9571  -16.5100   26.3820 O   0  0  0  0  0  0  0  0  0  0  0  0
    7.1066  -18.9454   23.0324 C   0  0  0  0  0  0  0  0  0  0  0  0
    7.4995  -18.2682   24.2989 C   0  0  2  0  0  0  0  0  0  0  0  0
    7.5395  -16.8431   24.2153 N   0  0  0  0  0  0  0  0  0  0  0  0
    8.7513  -18.8596   24.8211 C   0  0  0  0  0  0  0  0  0  0  0  0
    8.8975  -20.0756   25.0577 O   0  0  0  0  0  0  0  0  0  0  0  0
    9.8487  -17.9902   25.0661 N   0  0  0  0  0  0  0  0  0  0  0  0
   11.0886  -18.4094   25.6579 C   0  0  1  0  0  0  0  0  0  0  0  0
   12.2496  -17.6827   25.0576 C   0  0  0  0  0  0  0  0  0  0  0  0
   12.2637  -17.7121   23.5902 C   0  0  0  0  0  0  0  0  0  0  0  0
   12.4268  -16.6192   22.9823 O   0  0  0  0  0  0  0  0  0  0  0  0
   11.0858  -18.4216   27.1151 C   0  0  0  0  0  0  0  0  0  0  0  0
   12.1514  -18.9578   27.7977 O   0  0  0  0  0  0  0  0  0  0  0  0
   12.1096  -18.8538   22.8559 O   0  0  0  0  0  0  0  0  0  0  0  0
   10.1284  -17.9514   27.7523 O   0  0  0  0  0  0  0  0  0  0  0  0
  2  3  1  1
  2  1  1  0
  4  2  1  0
  4  5  1  0
  5  7  1  0
  5  6  1  6
  7  8  2  0
 10  9  1  6
 10 12  1  0
 11  7  1  0
 11 10  1  0
 12 13  2  0
 14 12  1  0
 14 15  1  0
 15 19  1  0
 16 17  1  0
 15 16  1  1
 17 21  1  0
 17 18  2  0
 19 22  2  0
 19 20  1  0
M  END
$$$$
