LAD.pdb
     RDKit          3D

 22 21  0  0  1  0  0  0  0  0999 V2000
    5.7751  -11.4098   27.5743 C   0  0  0  0  0  0  0  0  0  0  0  0
    6.7902  -12.3513   26.9495 C   0  0  2  0  0  0  0  0  0  0  0  0
    7.4254  -11.6768   25.7589 C   0  0  0  0  0  0  0  0  0  0  0  0
    6.1825  -13.6751   26.6075 C   0  0  0  0  0  0  0  0  0  0  0  0
    7.1735  -14.7130   26.2178 C   0  0  2  0  0  0  0  0  0  0  0  0
    8.5449  -14.2916   26.4539 N   0  0  0  0  0  0  0  0  0  0  0  0
    7.0859  -15.1702   24.8168 C   0  0  0  0  0  0  0  0  0  0  0  0
    6.1181  -15.8254   24.3733 O   0  0  0  0  0  0  0  0  0  0  0  0
    8.1821  -14.3041   21.4780 C   0  0  0  0  0  0  0  0  0  0  0  0
    8.1341  -15.3731   22.5133 C   0  0  2  0  0  0  0  0  0  0  0  0
    8.1187  -14.8896   23.8569 N   0  0  0  0  0  0  0  0  0  0  0  0
    9.1994  -16.3688   22.2614 C   0  0  0  0  0  0  0  0  0  0  0  0
    9.5744  -16.7094   21.1215 O   0  0  0  0  0  0  0  0  0  0  0  0
    9.8298  -16.9701   23.3843 N   0  0  0  0  0  0  0  0  0  0  0  0
   11.1173  -17.6053   23.3376 C   0  0  1  0  0  0  0  0  0  0  0  0
   12.1640  -16.6730   22.8164 C   0  0  0  0  0  0  0  0  0  0  0  0
   13.0300  -17.2761   21.7961 C   0  0  0  0  0  0  0  0  0  0  0  0
   12.4875  -18.0045   20.9211 O   0  0  0  0  0  0  0  0  0  0  0  0
   11.4941  -18.2924   24.5663 C   0  0  0  0  0  0  0  0  0  0  0  0
   10.7044  -18.1774   25.6852 O   0  0  0  0  0  0  0  0  0  0  0  0
   14.3826  -17.0903   21.7475 O   0  0  0  0  0  0  0  0  0  0  0  0
   12.5249  -18.9844   24.6164 O   0  0  0  0  0  0  0  0  0  0  0  0
  2  3  1  6
  2  1  1  0
  4  2  1  0
  4  5  1  0
  5  7  1  0
  5  6  1  6
  7  8  2  0
 10  9  1  6
 10 12  1  0
 11  7  1  0
 11 10  1  0
 12 13  2  0
 14 12  1  0
 14 15  1  0
 15 19  1  0
 16 17  1  0
 15 16  1  1
 17 21  1  0
 17 18  2  0
 19 22  2  0
 19 20  1  0
M  END
$$$$
