LAD.pdb
     RDKit          3D

 22 21  0  0  1  0  0  0  0  0999 V2000
    5.8972  -11.9936   25.1599 C   0  0  0  0  0  0  0  0  0  0  0  0
    6.2367  -12.7855   26.4108 C   0  0  2  0  0  0  0  0  0  0  0  0
    6.7408  -11.8413   27.4741 C   0  0  0  0  0  0  0  0  0  0  0  0
    7.1972  -13.8955   26.1214 C   0  0  0  0  0  0  0  0  0  0  0  0
    6.7129  -14.8643   25.1024 C   0  0  2  0  0  0  0  0  0  0  0  0
    5.6997  -15.7656   25.6267 N   0  0  0  0  0  0  0  0  0  0  0  0
    7.7615  -15.6934   24.4760 C   0  0  0  0  0  0  0  0  0  0  0  0
    8.2268  -16.7226   25.0117 O   0  0  0  0  0  0  0  0  0  0  0  0
    9.6401  -15.6702   21.1473 C   0  0  0  0  0  0  0  0  0  0  0  0
    9.3110  -16.1512   22.5175 C   0  0  2  0  0  0  0  0  0  0  0  0
    8.3248  -15.3703   23.1934 N   0  0  0  0  0  0  0  0  0  0  0  0
   10.5529  -16.3324   23.3014 C   0  0  0  0  0  0  0  0  0  0  0  0
   11.1429  -15.4042   23.8898 O   0  0  0  0  0  0  0  0  0  0  0  0
   11.1031  -17.6401   23.3872 N   0  0  0  0  0  0  0  0  0  0  0  0
   12.2791  -17.9683   24.1439 C   0  0  1  0  0  0  0  0  0  0  0  0
   12.1239  -19.2790   24.8469 C   0  0  0  0  0  0  0  0  0  0  0  0
   12.4009  -19.2078   26.2866 C   0  0  0  0  0  0  0  0  0  0  0  0
   12.0150  -20.1681   27.0073 O   0  0  0  0  0  0  0  0  0  0  0  0
   13.5272  -17.8369   23.4031 C   0  0  0  0  0  0  0  0  0  0  0  0
   14.5810  -17.1472   23.9533 O   0  0  0  0  0  0  0  0  0  0  0  0
   13.0495  -18.1622   26.8804 O   0  0  0  0  0  0  0  0  0  0  0  0
   13.6523  -18.3424   22.2750 O   0  0  0  0  0  0  0  0  0  0  0  0
  2  3  1  1
  2  1  1  0
  4  2  1  0
  4  5  1  0
  5  7  1  0
  5  6  1  1
  7  8  2  0
 10  9  1  6
 10 12  1  0
 11  7  1  0
 11 10  1  0
 12 13  2  0
 14 12  1  0
 14 15  1  0
 15 19  1  0
 16 17  1  0
 15 16  1  6
 17 21  1  0
 17 18  2  0
 19 22  2  0
 19 20  1  0
M  END
$$$$
