LAD.pdb
     RDKit          3D

 22 21  0  0  1  0  0  0  0  0999 V2000
    7.5355  -11.6017   26.3226 C   0  0  0  0  0  0  0  0  0  0  0  0
    6.3155  -12.4088   25.9133 C   0  0  2  0  0  0  0  0  0  0  0  0
    5.0754  -11.7435   26.4570 C   0  0  0  0  0  0  0  0  0  0  0  0
    6.4324  -13.8412   26.3294 C   0  0  0  0  0  0  0  0  0  0  0  0
    7.6923  -14.4978   25.8902 C   0  0  2  0  0  0  0  0  0  0  0  0
    8.5809  -13.5863   25.1876 N   0  0  0  0  0  0  0  0  0  0  0  0
    7.5148  -15.6890   25.0363 C   0  0  0  0  0  0  0  0  0  0  0  0
    6.7455  -16.6294   25.3302 O   0  0  0  0  0  0  0  0  0  0  0  0
    8.0936  -16.7079   21.5030 C   0  0  0  0  0  0  0  0  0  0  0  0
    8.1487  -17.0065   22.9606 C   0  0  2  0  0  0  0  0  0  0  0  0
    8.2221  -15.8500   23.7951 N   0  0  0  0  0  0  0  0  0  0  0  0
    9.2157  -17.9947   23.2341 C   0  0  0  0  0  0  0  0  0  0  0  0
    9.2922  -19.1057   22.6722 O   0  0  0  0  0  0  0  0  0  0  0  0
   10.2093  -17.6560   24.1923 N   0  0  0  0  0  0  0  0  0  0  0  0
   11.2290  -18.5604   24.6455 C   0  0  1  0  0  0  0  0  0  0  0  0
   12.5955  -18.0039   24.4020 C   0  0  0  0  0  0  0  0  0  0  0  0
   13.1136  -18.2901   23.0587 C   0  0  0  0  0  0  0  0  0  0  0  0
   12.3550  -18.8952   22.2532 O   0  0  0  0  0  0  0  0  0  0  0  0
   11.0270  -19.0661   25.9973 C   0  0  0  0  0  0  0  0  0  0  0  0
   10.2357  -18.3687   26.8784 O   0  0  0  0  0  0  0  0  0  0  0  0
   14.3656  -17.9375   22.6409 O   0  0  0  0  0  0  0  0  0  0  0  0
   11.5632  -20.1246   26.3660 O   0  0  0  0  0  0  0  0  0  0  0  0
  2  3  1  1
  2  1  1  0
  4  2  1  0
  4  5  1  0
  5  7  1  0
  5  6  1  6
  7  8  2  0
 10  9  1  6
 10 12  1  0
 11  7  1  0
 11 10  1  0
 12 13  2  0
 14 12  1  0
 14 15  1  0
 15 19  1  0
 16 17  1  0
 15 16  1  1
 17 21  1  0
 17 18  2  0
 19 22  2  0
 19 20  1  0
M  END
$$$$
