LAD.pdb
     RDKit          3D

 22 21  0  0  1  0  0  0  0  0999 V2000
    5.8832  -12.6917   26.5591 C   0  0  0  0  0  0  0  0  0  0  0  0
    7.1141  -13.3953   27.1040 C   0  0  2  0  0  0  0  0  0  0  0  0
    8.0201  -12.3786   27.7532 C   0  0  0  0  0  0  0  0  0  0  0  0
    7.8081  -14.1970   26.0484 C   0  0  0  0  0  0  0  0  0  0  0  0
    6.9271  -15.1719   25.3522 C   0  0  2  0  0  0  0  0  0  0  0  0
    6.4001  -16.1874   26.2495 N   0  0  0  0  0  0  0  0  0  0  0  0
    7.5447  -15.8702   24.2075 C   0  0  0  0  0  0  0  0  0  0  0  0
    7.9271  -17.0592   24.2605 O   0  0  0  0  0  0  0  0  0  0  0  0
    8.1113  -15.0580   20.5218 C   0  0  0  0  0  0  0  0  0  0  0  0
    8.2251  -15.8749   21.7614 C   0  0  2  0  0  0  0  0  0  0  0  0
    7.7504  -15.2234   22.9402 N   0  0  0  0  0  0  0  0  0  0  0  0
    9.6022  -16.3995   21.8964 C   0  0  0  0  0  0  0  0  0  0  0  0
   10.1362  -17.1657   21.0696 O   0  0  0  0  0  0  0  0  0  0  0  0
   10.3576  -16.0062   23.0343 N   0  0  0  0  0  0  0  0  0  0  0  0
   11.6671  -16.5099   23.3419 C   0  0  1  0  0  0  0  0  0  0  0  0
   12.6946  -15.4251   23.2790 C   0  0  0  0  0  0  0  0  0  0  0  0
   13.9432  -15.8381   22.6273 C   0  0  0  0  0  0  0  0  0  0  0  0
   14.9793  -15.1571   22.8577 O   0  0  0  0  0  0  0  0  0  0  0  0
   11.7316  -17.3182   24.5527 C   0  0  0  0  0  0  0  0  0  0  0  0
   12.5720  -18.4044   24.6073 O   0  0  0  0  0  0  0  0  0  0  0  0
   14.0387  -16.9136   21.7902 O   0  0  0  0  0  0  0  0  0  0  0  0
   11.0335  -17.0376   25.5415 O   0  0  0  0  0  0  0  0  0  0  0  0
  2  3  1  6
  2  1  1  0
  4  2  1  0
  4  5  1  0
  5  7  1  0
  5  6  1  1
  7  8  2  0
 10  9  1  6
 10 12  1  0
 11  7  1  0
 11 10  1  0
 12 13  2  0
 14 12  1  0
 14 15  1  0
 15 19  1  0
 16 17  1  0
 15 16  1  1
 17 21  1  0
 17 18  2  0
 19 22  2  0
 19 20  1  0
M  END
$$$$
