LAD.pdb
     RDKit          3D

 22 21  0  0  1  0  0  0  0  0999 V2000
    7.8581  -12.4041   19.0062 C   0  0  0  0  0  0  0  0  0  0  0  0
    7.8375  -13.6037   19.9379 C   0  0  2  0  0  0  0  0  0  0  0  0
    7.6673  -13.1256   21.3586 C   0  0  0  0  0  0  0  0  0  0  0  0
    9.0471  -14.4659   19.7594 C   0  0  0  0  0  0  0  0  0  0  0  0
    9.0383  -15.6997   20.5894 C   0  0  2  0  0  0  0  0  0  0  0  0
    7.7645  -16.3988   20.5365 N   0  0  0  0  0  0  0  0  0  0  0  0
    9.3754  -15.5011   22.0130 C   0  0  0  0  0  0  0  0  0  0  0  0
   10.4690  -15.0316   22.3951 O   0  0  0  0  0  0  0  0  0  0  0  0
    7.6706  -15.2297   25.3076 C   0  0  0  0  0  0  0  0  0  0  0  0
    8.7651  -15.7805   24.4616 C   0  0  2  0  0  0  0  0  0  0  0  0
    8.4586  -15.8377   23.0680 N   0  0  0  0  0  0  0  0  0  0  0  0
    9.2282  -17.0733   25.0129 C   0  0  0  0  0  0  0  0  0  0  0  0
    8.5978  -18.1432   24.8943 O   0  0  0  0  0  0  0  0  0  0  0  0
   10.4623  -17.0946   25.7175 N   0  0  0  0  0  0  0  0  0  0  0  0
   11.0834  -18.2913   26.2131 C   0  0  1  0  0  0  0  0  0  0  0  0
   12.5513  -18.2993   25.9276 C   0  0  0  0  0  0  0  0  0  0  0  0
   12.8781  -18.6912   24.5513 C   0  0  0  0  0  0  0  0  0  0  0  0
   11.9216  -18.9548   23.7728 O   0  0  0  0  0  0  0  0  0  0  0  0
   10.7459  -18.6171   27.5929 C   0  0  0  0  0  0  0  0  0  0  0  0
   11.0981  -19.8391   28.1140 O   0  0  0  0  0  0  0  0  0  0  0  0
   14.1553  -18.7845   24.0755 O   0  0  0  0  0  0  0  0  0  0  0  0
   10.1408  -17.8010   28.3083 O   0  0  0  0  0  0  0  0  0  0  0  0
  2  3  1  1
  2  1  1  0
  4  2  1  0
  4  5  1  0
  5  7  1  0
  5  6  1  1
  7  8  2  0
 10  9  1  1
 10 12  1  0
 11  7  1  0
 11 10  1  0
 12 13  2  0
 14 12  1  0
 14 15  1  0
 15 19  1  0
 16 17  1  0
 15 16  1  1
 17 21  1  0
 17 18  2  0
 19 22  2  0
 19 20  1  0
M  END
$$$$
