LAD.pdb
     RDKit          3D

 22 21  0  0  1  0  0  0  0  0999 V2000
    9.0892  -13.5862   18.9740 C   0  0  0  0  0  0  0  0  0  0  0  0
    7.7726  -13.4668   19.7221 C   0  0  2  0  0  0  0  0  0  0  0  0
    7.1651  -12.1141   19.4444 C   0  0  0  0  0  0  0  0  0  0  0  0
    7.9387  -13.7364   21.1844 C   0  0  0  0  0  0  0  0  0  0  0  0
    8.4635  -15.0930   21.4937 C   0  0  2  0  0  0  0  0  0  0  0  0
    7.6345  -16.1514   20.9400 N   0  0  0  0  0  0  0  0  0  0  0  0
    8.6497  -15.3818   22.9294 C   0  0  0  0  0  0  0  0  0  0  0  0
    9.4977  -14.7970   23.6376 O   0  0  0  0  0  0  0  0  0  0  0  0
    6.7177  -17.0836   25.6644 C   0  0  0  0  0  0  0  0  0  0  0  0
    7.9927  -16.6931   25.0019 C   0  0  2  0  0  0  0  0  0  0  0  0
    7.8597  -16.3658   23.6182 N   0  0  0  0  0  0  0  0  0  0  0  0
    9.0321  -17.7129   25.2652 C   0  0  0  0  0  0  0  0  0  0  0  0
    9.0709  -18.8248   24.7013 O   0  0  0  0  0  0  0  0  0  0  0  0
   10.0432  -17.4053   26.2156 N   0  0  0  0  0  0  0  0  0  0  0  0
   11.0866  -18.3143   26.6005 C   0  0  1  0  0  0  0  0  0  0  0  0
   12.4297  -17.6605   26.5296 C   0  0  0  0  0  0  0  0  0  0  0  0
   13.1220  -17.8816   25.2543 C   0  0  0  0  0  0  0  0  0  0  0  0
   12.5259  -18.5569   24.3716 O   0  0  0  0  0  0  0  0  0  0  0  0
   10.8370  -19.0224   27.8496 C   0  0  0  0  0  0  0  0  0  0  0  0
   10.3419  -18.3414   28.9359 O   0  0  0  0  0  0  0  0  0  0  0  0
   14.3693  -17.3974   24.9780 O   0  0  0  0  0  0  0  0  0  0  0  0
   11.0670  -20.2396   27.9464 O   0  0  0  0  0  0  0  0  0  0  0  0
  2  3  1  1
  2  1  1  0
  4  2  1  0
  4  5  1  0
  5  7  1  0
  5  6  1  1
  7  8  2  0
 10  9  1  6
 10 12  1  0
 11  7  1  0
 11 10  1  0
 12 13  2  0
 14 12  1  0
 14 15  1  0
 15 19  1  0
 16 17  1  0
 15 16  1  1
 17 21  1  0
 17 18  2  0
 19 22  2  0
 19 20  1  0
M  END
$$$$
