LAD.pdb
     RDKit          3D

 22 21  0  0  1  0  0  0  0  0999 V2000
    5.9340  -12.3446   26.5209 C   0  0  0  0  0  0  0  0  0  0  0  0
    7.2233  -12.9421   27.0576 C   0  0  2  0  0  0  0  0  0  0  0  0
    8.1518  -11.8277   27.4720 C   0  0  0  0  0  0  0  0  0  0  0  0
    7.8502  -13.8817   26.0763 C   0  0  0  0  0  0  0  0  0  0  0  0
    6.9087  -14.8862   25.5142 C   0  0  2  0  0  0  0  0  0  0  0  0
    6.5419  -15.9090   26.4803 N   0  0  0  0  0  0  0  0  0  0  0  0
    7.3797  -15.5758   24.2968 C   0  0  0  0  0  0  0  0  0  0  0  0
    7.6591  -16.7939   24.2688 O   0  0  0  0  0  0  0  0  0  0  0  0
    7.8628  -14.6196   20.6310 C   0  0  0  0  0  0  0  0  0  0  0  0
    7.9568  -15.5037   21.8254 C   0  0  2  0  0  0  0  0  0  0  0  0
    7.5505  -14.8859   23.0471 N   0  0  0  0  0  0  0  0  0  0  0  0
    9.3026  -16.1147   21.8973 C   0  0  0  0  0  0  0  0  0  0  0  0
    9.8010  -16.8030   20.9841 O   0  0  0  0  0  0  0  0  0  0  0  0
   10.0692  -15.9038   23.0753 N   0  0  0  0  0  0  0  0  0  0  0  0
   11.3370  -16.5288   23.3309 C   0  0  1  0  0  0  0  0  0  0  0  0
   12.4513  -15.5324   23.2906 C   0  0  0  0  0  0  0  0  0  0  0  0
   13.5015  -15.8671   22.3213 C   0  0  0  0  0  0  0  0  0  0  0  0
   13.3258  -16.8804   21.5913 O   0  0  0  0  0  0  0  0  0  0  0  0
   11.3561  -17.3927   24.5044 C   0  0  0  0  0  0  0  0  0  0  0  0
   12.4126  -18.2478   24.7083 O   0  0  0  0  0  0  0  0  0  0  0  0
   14.6503  -15.1428   22.1718 O   0  0  0  0  0  0  0  0  0  0  0  0
   10.4255  -17.3667   25.3273 O   0  0  0  0  0  0  0  0  0  0  0  0
  2  3  1  6
  2  1  1  0
  4  2  1  0
  4  5  1  0
  5  7  1  0
  5  6  1  1
  7  8  2  0
 10  9  1  6
 10 12  1  0
 11  7  1  0
 11 10  1  0
 12 13  2  0
 14 12  1  0
 14 15  1  0
 15 19  1  0
 16 17  1  0
 15 16  1  1
 17 21  1  0
 17 18  2  0
 19 22  2  0
 19 20  1  0
M  END
$$$$
