LAD.pdb
     RDKit          3D

 22 21  0  0  1  0  0  0  0  0999 V2000
    7.4920  -11.4051   24.7893 C   0  0  0  0  0  0  0  0  0  0  0  0
    6.4415  -12.2856   25.4437 C   0  0  2  0  0  0  0  0  0  0  0  0
    5.6327  -11.4575   26.4112 C   0  0  0  0  0  0  0  0  0  0  0  0
    7.0501  -13.4928   26.0847 C   0  0  0  0  0  0  0  0  0  0  0  0
    7.7141  -14.4164   25.1270 C   0  0  2  0  0  0  0  0  0  0  0  0
    7.2531  -14.2294   23.7607 N   0  0  0  0  0  0  0  0  0  0  0  0
    7.5831  -15.8519   25.4457 C   0  0  0  0  0  0  0  0  0  0  0  0
    7.5237  -16.2873   26.6160 O   0  0  0  0  0  0  0  0  0  0  0  0
    6.6862  -19.0017   23.5699 C   0  0  0  0  0  0  0  0  0  0  0  0
    7.3714  -18.2578   24.6626 C   0  0  2  0  0  0  0  0  0  0  0  0
    7.5140  -16.8576   24.4207 N   0  0  0  0  0  0  0  0  0  0  0  0
    8.6464  -18.9255   25.0064 C   0  0  0  0  0  0  0  0  0  0  0  0
    8.7327  -20.1234   25.3434 O   0  0  0  0  0  0  0  0  0  0  0  0
    9.8397  -18.1557   24.9486 N   0  0  0  0  0  0  0  0  0  0  0  0
   11.1499  -18.6848   25.2070 C   0  0  1  0  0  0  0  0  0  0  0  0
   12.2010  -17.9135   24.4745 C   0  0  0  0  0  0  0  0  0  0  0  0
   11.9201  -17.7552   23.0425 C   0  0  0  0  0  0  0  0  0  0  0  0
   11.5826  -18.7822   22.3930 O   0  0  0  0  0  0  0  0  0  0  0  0
   11.4454  -18.8969   26.6182 C   0  0  0  0  0  0  0  0  0  0  0  0
   10.6147  -18.3710   27.5786 O   0  0  0  0  0  0  0  0  0  0  0  0
   12.0058  -16.5617   22.3832 O   0  0  0  0  0  0  0  0  0  0  0  0
   12.4432  -19.5500   26.9668 O   0  0  0  0  0  0  0  0  0  0  0  0
  2  3  1  1
  2  1  1  0
  4  2  1  0
  4  5  1  0
  5  7  1  0
  5  6  1  6
  7  8  2  0
 10  9  1  6
 10 12  1  0
 11  7  1  0
 11 10  1  0
 12 13  2  0
 14 12  1  0
 14 15  1  0
 15 19  1  0
 16 17  1  0
 15 16  1  1
 17 21  1  0
 17 18  2  0
 19 22  2  0
 19 20  1  0
M  END
$$$$
