LAD.pdb
     RDKit          3D

 22 21  0  0  1  0  0  0  0  0999 V2000
    7.5086  -12.2039   27.3895 C   0  0  0  0  0  0  0  0  0  0  0  0
    6.4404  -12.5935   26.3824 C   0  0  2  0  0  0  0  0  0  0  0  0
    5.2089  -11.7538   26.6156 C   0  0  0  0  0  0  0  0  0  0  0  0
    6.1538  -14.0615   26.4171 C   0  0  0  0  0  0  0  0  0  0  0  0
    7.2654  -14.9071   25.9065 C   0  0  2  0  0  0  0  0  0  0  0  0
    8.5665  -14.2809   26.0771 N   0  0  0  0  0  0  0  0  0  0  0  0
    7.1496  -15.3084   24.4905 C   0  0  0  0  0  0  0  0  0  0  0  0
    6.4108  -16.2400   24.1046 O   0  0  0  0  0  0  0  0  0  0  0  0
    7.8979  -13.9309   21.1041 C   0  0  0  0  0  0  0  0  0  0  0  0
    7.9041  -15.0559   22.0794 C   0  0  2  0  0  0  0  0  0  0  0  0
    7.8863  -14.6476   23.4477 N   0  0  0  0  0  0  0  0  0  0  0  0
    9.0041  -15.9936   21.7624 C   0  0  0  0  0  0  0  0  0  0  0  0
    9.1880  -16.4899   20.6329 O   0  0  0  0  0  0  0  0  0  0  0  0
    9.9012  -16.3474   22.8065 N   0  0  0  0  0  0  0  0  0  0  0  0
   11.1490  -17.0273   22.5970 C   0  0  1  0  0  0  0  0  0  0  0  0
   12.2387  -16.0656   22.2449 C   0  0  0  0  0  0  0  0  0  0  0  0
   13.5458  -16.7057   22.0541 C   0  0  0  0  0  0  0  0  0  0  0  0
   13.6262  -17.6356   21.2059 O   0  0  0  0  0  0  0  0  0  0  0  0
   11.5060  -17.9679   23.6512 C   0  0  0  0  0  0  0  0  0  0  0  0
   10.6763  -18.1295   24.7349 O   0  0  0  0  0  0  0  0  0  0  0  0
   14.6698  -16.3485   22.7437 O   0  0  0  0  0  0  0  0  0  0  0  0
   12.5557  -18.6293   23.5835 O   0  0  0  0  0  0  0  0  0  0  0  0
  2  3  1  1
  2  1  1  0
  4  2  1  0
  4  5  1  0
  5  7  1  0
  5  6  1  6
  7  8  2  0
 10  9  1  6
 10 12  1  0
 11  7  1  0
 11 10  1  0
 12 13  2  0
 14 12  1  0
 14 15  1  0
 15 19  1  0
 16 17  1  0
 15 16  1  1
 17 21  1  0
 17 18  2  0
 19 22  2  0
 19 20  1  0
M  END
$$$$
