LAD.pdb
     RDKit          3D

 22 21  0  0  1  0  0  0  0  0999 V2000
    8.1725  -11.5371   19.7140 C   0  0  0  0  0  0  0  0  0  0  0  0
    8.3131  -12.9996   19.3287 C   0  0  2  0  0  0  0  0  0  0  0  0
    7.0095  -13.4868   18.7464 C   0  0  0  0  0  0  0  0  0  0  0  0
    8.7797  -13.8343   20.4795 C   0  0  0  0  0  0  0  0  0  0  0  0
    9.7553  -14.8917   20.1034 C   0  0  2  0  0  0  0  0  0  0  0  0
    9.2981  -15.7005   18.9850 N   0  0  0  0  0  0  0  0  0  0  0  0
   10.1316  -15.8147   21.1925 C   0  0  0  0  0  0  0  0  0  0  0  0
   10.2899  -15.4438   22.3757 O   0  0  0  0  0  0  0  0  0  0  0  0
   10.3284  -19.5652   21.6692 C   0  0  0  0  0  0  0  0  0  0  0  0
   10.7163  -18.1596   21.9708 C   0  0  2  0  0  0  0  0  0  0  0  0
   10.3435  -17.2181   20.9638 N   0  0  0  0  0  0  0  0  0  0  0  0
   12.1507  -18.0969   22.3289 C   0  0  0  0  0  0  0  0  0  0  0  0
   13.0747  -18.3898   21.5438 O   0  0  0  0  0  0  0  0  0  0  0  0
   12.4927  -17.6786   23.6435 N   0  0  0  0  0  0  0  0  0  0  0  0
   13.8364  -17.4181   24.0791 C   0  0  1  0  0  0  0  0  0  0  0  0
   14.3361  -16.1129   23.5470 C   0  0  0  0  0  0  0  0  0  0  0  0
   15.6350  -16.2149   22.8709 C   0  0  0  0  0  0  0  0  0  0  0  0
   16.1760  -17.3522   22.8065 O   0  0  0  0  0  0  0  0  0  0  0  0
   14.0501  -17.5961   25.5097 C   0  0  0  0  0  0  0  0  0  0  0  0
   12.9754  -17.7916   26.3438 O   0  0  0  0  0  0  0  0  0  0  0  0
   16.2821  -15.1487   22.3131 O   0  0  0  0  0  0  0  0  0  0  0  0
   15.1966  -17.5733   25.9881 O   0  0  0  0  0  0  0  0  0  0  0  0
  2  3  1  1
  2  1  1  0
  4  2  1  0
  4  5  1  0
  5  7  1  0
  5  6  1  6
  7  8  2  0
 10  9  1  6
 10 12  1  0
 11  7  1  0
 11 10  1  0
 12 13  2  0
 14 12  1  0
 14 15  1  0
 15 19  1  0
 16 17  1  0
 15 16  1  1
 17 21  1  0
 17 18  2  0
 19 22  2  0
 19 20  1  0
M  END
$$$$
