PNC.pdb
     RDKit          3D

 22 22  0  0  1  0  0  0  0  0999 V2000
    8.4168  -15.0732   19.6904 N   0  0  0  0  0  0  0  0  0  0  0  0
    8.3259  -14.5172   18.3305 C   0  0  0  0  0  0  0  0  0  0  0  0
    7.2158  -13.5157   18.4787 C   0  0  0  0  0  0  0  0  0  0  0  0
    7.5132  -12.8903   19.8261 C   0  0  0  0  0  0  0  0  0  0  0  0
    8.4436  -13.8874   20.4823 C   0  0  1  0  0  0  0  0  0  0  0  0
    8.0669  -14.1304   21.9014 C   0  0  0  0  0  0  0  0  0  0  0  0
    7.8075  -13.2193   22.7074 O   0  0  0  0  0  0  0  0  0  0  0  0
    5.3357  -17.9169   22.2882 N   0  0  0  0  0  0  0  0  0  0  0  0
    6.7490  -17.9559   22.5211 C   0  0  0  0  0  0  0  0  0  0  0  0
    7.4374  -18.5443   21.6162 O   0  0  0  0  0  0  0  0  0  0  0  0
    7.3598  -17.3585   23.7195 C   0  0  0  0  0  0  0  0  0  0  0  0
    7.5776  -15.8838   23.6737 C   0  0  2  0  0  0  0  0  0  0  0  0
    7.9966  -15.4731   22.3728 N   0  0  0  0  0  0  0  0  0  0  0  0
    8.3324  -15.3251   24.8061 C   0  0  0  0  0  0  0  0  0  0  0  0
    9.6010  -15.4341   24.7480 O   0  0  0  0  0  0  0  0  0  0  0  0
    7.8108  -14.6894   25.9438 N   0  0  0  0  0  0  0  0  0  0  0  0
    8.6643  -14.0391   26.9460 C   0  0  1  0  0  0  0  0  0  0  0  0
    7.9924  -12.8363   27.5689 C   0  0  0  0  0  0  0  0  0  0  0  0
    6.9822  -12.0675   26.2753 S   0  0  0  0  0  0  0  0  0  0  0  0
    9.0188  -15.0264   27.9773 C   0  0  0  0  0  0  0  0  0  0  0  0
    8.5099  -16.1834   27.9473 O   0  0  0  0  0  0  0  0  0  0  0  0
    9.9076  -14.7805   29.0293 O   0  0  0  0  0  0  0  0  0  0  0  0
  1  2  1  0
  3  4  1  0
  3  2  1  0
  4  5  1  0
  5  1  1  0
  5  6  1  1
  7  6  2  0
  9 11  1  0
  9  8  1  0
 10  9  2  0
 12 11  1  6
 12 13  1  0
 12 14  1  0
 13  6  1  0
 14 16  1  0
 15 14  2  0
 16 17  1  0
 17 20  1  0
 17 18  1  1
 18 19  1  0
 20 21  2  0
 20 22  1  0
M  END
$$$$
