PNC.pdb
     RDKit          3D

 22 22  0  0  1  0  0  0  0  0999 V2000
    8.3507  -13.4393   19.2715 N   0  0  0  0  0  0  0  0  0  0  0  0
    7.5220  -12.4815   18.5214 C   0  0  0  0  0  0  0  0  0  0  0  0
    8.1018  -12.5859   17.1393 C   0  0  0  0  0  0  0  0  0  0  0  0
    8.3380  -14.0751   16.9921 C   0  0  0  0  0  0  0  0  0  0  0  0
    8.3101  -14.5813   18.4181 C   0  0  1  0  0  0  0  0  0  0  0  0
    9.4206  -15.5376   18.6775 C   0  0  0  0  0  0  0  0  0  0  0  0
    9.5020  -16.6558   18.1392 O   0  0  0  0  0  0  0  0  0  0  0  0
   13.9492  -13.7768   19.3969 N   0  0  0  0  0  0  0  0  0  0  0  0
   13.0672  -14.6013   18.6254 C   0  0  0  0  0  0  0  0  0  0  0  0
   12.6591  -14.0880   17.5258 O   0  0  0  0  0  0  0  0  0  0  0  0
   12.6630  -15.9442   19.0721 C   0  0  0  0  0  0  0  0  0  0  0  0
   11.5215  -15.9960   20.0306 C   0  0  2  0  0  0  0  0  0  0  0  0
   10.4500  -15.1634   19.5887 N   0  0  0  0  0  0  0  0  0  0  0  0
   11.8885  -15.8839   21.4507 C   0  0  0  0  0  0  0  0  0  0  0  0
   12.2567  -14.7306   21.8495 O   0  0  0  0  0  0  0  0  0  0  0  0
   11.8818  -16.9057   22.4132 N   0  0  0  0  0  0  0  0  0  0  0  0
   12.1878  -16.6598   23.8280 C   0  0  1  0  0  0  0  0  0  0  0  0
   10.9498  -16.3143   24.6243 C   0  0  0  0  0  0  0  0  0  0  0  0
    9.7349  -17.6206   24.3041 S   0  0  0  0  0  0  0  0  0  0  0  0
   12.8452  -17.8527   24.3837 C   0  0  0  0  0  0  0  0  0  0  0  0
   13.3677  -17.8092   25.5343 O   0  0  0  0  0  0  0  0  0  0  0  0
   12.9434  -19.0789   23.7176 O   0  0  0  0  0  0  0  0  0  0  0  0
  1  2  1  0
  3  4  1  0
  3  2  1  0
  4  5  1  0
  5  1  1  0
  5  6  1  1
  7  6  2  0
  9 11  1  0
  9  8  1  0
 10  9  2  0
 12 11  1  6
 12 13  1  0
 12 14  1  0
 13  6  1  0
 14 16  1  0
 15 14  2  0
 16 17  1  0
 17 20  1  0
 17 18  1  1
 18 19  1  0
 20 21  2  0
 20 22  1  0
M  END
$$$$
