PNC.pdb
     RDKit          3D

 22 22  0  0  1  0  0  0  0  0999 V2000
    7.1808  -18.4357   19.8261 N   0  0  0  0  0  0  0  0  0  0  0  0
    6.1890  -19.1761   19.0295 C   0  0  0  0  0  0  0  0  0  0  0  0
    5.9490  -18.2362   17.8822 C   0  0  0  0  0  0  0  0  0  0  0  0
    7.3430  -17.7297   17.5733 C   0  0  0  0  0  0  0  0  0  0  0  0
    8.1253  -18.0581   18.8265 C   0  0  1  0  0  0  0  0  0  0  0  0
    8.9862  -16.9183   19.2446 C   0  0  0  0  0  0  0  0  0  0  0  0
   10.2142  -16.8798   19.0511 O   0  0  0  0  0  0  0  0  0  0  0  0
    6.2965  -12.8353   18.6618 N   0  0  0  0  0  0  0  0  0  0  0  0
    7.6433  -13.2916   18.8379 C   0  0  0  0  0  0  0  0  0  0  0  0
    8.2713  -13.5749   17.7589 O   0  0  0  0  0  0  0  0  0  0  0  0
    8.2555  -13.4230   20.1699 C   0  0  0  0  0  0  0  0  0  0  0  0
    9.0644  -14.6553   20.3966 C   0  0  2  0  0  0  0  0  0  0  0  0
    8.3830  -15.8075   19.9019 N   0  0  0  0  0  0  0  0  0  0  0  0
    9.6599  -14.7778   21.7361 C   0  0  0  0  0  0  0  0  0  0  0  0
    9.8150  -13.6927   22.3867 O   0  0  0  0  0  0  0  0  0  0  0  0
   10.0794  -15.9552   22.3750 N   0  0  0  0  0  0  0  0  0  0  0  0
   10.2362  -16.0504   23.8318 C   0  0  1  0  0  0  0  0  0  0  0  0
    8.9487  -15.7419   24.5622 C   0  0  0  0  0  0  0  0  0  0  0  0
    9.2881  -15.9308   26.3325 S   0  0  0  0  0  0  0  0  0  0  0  0
   10.7123  -17.4008   24.1688 C   0  0  0  0  0  0  0  0  0  0  0  0
   10.2881  -18.4011   23.5222 O   0  0  0  0  0  0  0  0  0  0  0  0
   11.6318  -17.6798   25.1856 O   0  0  0  0  0  0  0  0  0  0  0  0
  1  2  1  0
  3  4  1  0
  3  2  1  0
  4  5  1  0
  5  1  1  0
  5  6  1  1
  7  6  2  0
  9 11  1  0
  9  8  1  0
 10  9  2  0
 12 11  1  1
 12 13  1  0
 12 14  1  0
 13  6  1  0
 14 16  1  0
 15 14  2  0
 16 17  1  0
 17 20  1  0
 17 18  1  1
 18 19  1  0
 20 21  2  0
 20 22  1  0
M  END
$$$$
