PNC.pdb
     RDKit          3D

 22 22  0  0  1  0  0  0  0  0999 V2000
    8.6449  -14.9562   19.1387 N   0  0  0  0  0  0  0  0  0  0  0  0
    8.7021  -14.4246   17.7673 C   0  0  0  0  0  0  0  0  0  0  0  0
    7.5942  -13.4098   17.7818 C   0  0  0  0  0  0  0  0  0  0  0  0
    7.7573  -12.7625   19.1418 C   0  0  0  0  0  0  0  0  0  0  0  0
    8.6031  -13.7562   19.9083 C   0  0  1  0  0  0  0  0  0  0  0  0
    8.0785  -13.9693   21.2847 C   0  0  0  0  0  0  0  0  0  0  0  0
    7.8527  -13.0428   22.0832 O   0  0  0  0  0  0  0  0  0  0  0  0
    8.8169  -18.2023   24.1495 N   0  0  0  0  0  0  0  0  0  0  0  0
    7.9122  -18.1119   23.0420 C   0  0  0  0  0  0  0  0  0  0  0  0
    8.0975  -18.9715   22.1115 O   0  0  0  0  0  0  0  0  0  0  0  0
    6.8463  -17.0986   22.9849 C   0  0  0  0  0  0  0  0  0  0  0  0
    7.2973  -15.6770   22.9959 C   0  0  2  0  0  0  0  0  0  0  0  0
    7.8176  -15.3001   21.7216 N   0  0  0  0  0  0  0  0  0  0  0  0
    8.0948  -15.2804   24.1666 C   0  0  0  0  0  0  0  0  0  0  0  0
    9.3609  -15.3527   24.0383 O   0  0  0  0  0  0  0  0  0  0  0  0
    7.6166  -14.8351   25.4090 N   0  0  0  0  0  0  0  0  0  0  0  0
    8.4881  -14.2130   26.4137 C   0  0  1  0  0  0  0  0  0  0  0  0
    7.7502  -13.1932   27.2514 C   0  0  0  0  0  0  0  0  0  0  0  0
    7.0986  -11.9451   26.1102 S   0  0  0  0  0  0  0  0  0  0  0  0
    9.0569  -15.2692   27.2652 C   0  0  0  0  0  0  0  0  0  0  0  0
    8.6969  -16.4710   27.1083 O   0  0  0  0  0  0  0  0  0  0  0  0
   10.0001  -15.0440   28.2735 O   0  0  0  0  0  0  0  0  0  0  0  0
  1  2  1  0
  3  4  1  0
  3  2  1  0
  4  5  1  0
  5  1  1  0
  5  6  1  1
  7  6  2  0
  9 11  1  0
  9  8  1  0
 10  9  2  0
 12 11  1  6
 12 13  1  0
 12 14  1  0
 13  6  1  0
 14 16  1  0
 15 14  2  0
 16 17  1  0
 17 20  1  0
 17 18  1  1
 18 19  1  0
 20 21  2  0
 20 22  1  0
M  END
$$$$
