PNC.pdb
     RDKit          3D

 22 22  0  0  1  0  0  0  0  0999 V2000
    8.6532  -15.2281   19.3684 N   0  0  0  0  0  0  0  0  0  0  0  0
    8.7650  -14.7193   17.9917 C   0  0  0  0  0  0  0  0  0  0  0  0
    7.6719  -13.6894   17.9521 C   0  0  0  0  0  0  0  0  0  0  0  0
    7.7973  -13.0227   19.3068 C   0  0  0  0  0  0  0  0  0  0  0  0
    8.6020  -14.0155   20.1174 C   0  0  1  0  0  0  0  0  0  0  0  0
    8.0274  -14.1993   21.4779 C   0  0  0  0  0  0  0  0  0  0  0  0
    7.7758  -13.2563   22.2489 O   0  0  0  0  0  0  0  0  0  0  0  0
    6.4683  -17.0068   25.7613 N   0  0  0  0  0  0  0  0  0  0  0  0
    6.9081  -17.8823   24.7158 C   0  0  0  0  0  0  0  0  0  0  0  0
    6.8742  -19.1310   24.9962 O   0  0  0  0  0  0  0  0  0  0  0  0
    7.3655  -17.3742   23.4124 C   0  0  0  0  0  0  0  0  0  0  0  0
    7.3862  -15.8905   23.2622 C   0  0  2  0  0  0  0  0  0  0  0  0
    7.7468  -15.5203   21.9319 N   0  0  0  0  0  0  0  0  0  0  0  0
    8.0608  -15.1592   24.3457 C   0  0  0  0  0  0  0  0  0  0  0  0
    9.3237  -15.3104   24.4283 O   0  0  0  0  0  0  0  0  0  0  0  0
    7.4681  -14.3172   25.2998 N   0  0  0  0  0  0  0  0  0  0  0  0
    8.2568  -13.4971   26.2279 C   0  0  1  0  0  0  0  0  0  0  0  0
    7.5978  -12.1657   26.5090 C   0  0  0  0  0  0  0  0  0  0  0  0
    5.8323  -12.4926   26.7563 S   0  0  0  0  0  0  0  0  0  0  0  0
    8.4534  -14.2516   27.4753 C   0  0  0  0  0  0  0  0  0  0  0  0
    7.8538  -15.3508   27.6513 O   0  0  0  0  0  0  0  0  0  0  0  0
    9.2816  -13.8364   28.5236 O   0  0  0  0  0  0  0  0  0  0  0  0
  1  2  1  0
  3  4  1  0
  3  2  1  0
  4  5  1  0
  5  1  1  0
  5  6  1  1
  7  6  2  0
  9 11  1  0
  9  8  1  0
 10  9  2  0
 12 11  1  1
 12 13  1  0
 12 14  1  0
 13  6  1  0
 14 16  1  0
 15 14  2  0
 16 17  1  0
 17 20  1  0
 17 18  1  1
 18 19  1  0
 20 21  2  0
 20 22  1  0
M  END
$$$$
