PNC.pdb
     RDKit          3D

 22 22  0  0  1  0  0  0  0  0999 V2000
    8.5605  -15.0984   19.4774 N   0  0  0  0  0  0  0  0  0  0  0  0
    8.4996  -14.5515   18.1122 C   0  0  0  0  0  0  0  0  0  0  0  0
    7.3658  -13.5718   18.2210 C   0  0  0  0  0  0  0  0  0  0  0  0
    7.6099  -12.9333   19.5731 C   0  0  0  0  0  0  0  0  0  0  0  0
    8.5398  -13.9080   20.2628 C   0  0  1  0  0  0  0  0  0  0  0  0
    8.1255  -14.1510   21.6714 C   0  0  0  0  0  0  0  0  0  0  0  0
    7.9516  -13.2412   22.5014 O   0  0  0  0  0  0  0  0  0  0  0  0
    5.9002  -17.9172   25.3934 N   0  0  0  0  0  0  0  0  0  0  0  0
    7.2296  -17.9371   24.8592 C   0  0  0  0  0  0  0  0  0  0  0  0
    8.1172  -18.4622   25.6180 O   0  0  0  0  0  0  0  0  0  0  0  0
    7.5454  -17.3904   23.5298 C   0  0  0  0  0  0  0  0  0  0  0  0
    7.5738  -15.9028   23.4269 C   0  0  2  0  0  0  0  0  0  0  0  0
    7.9142  -15.4922   22.1032 N   0  0  0  0  0  0  0  0  0  0  0  0
    8.2716  -15.2109   24.5215 C   0  0  0  0  0  0  0  0  0  0  0  0
    9.5451  -15.2073   24.4664 O   0  0  0  0  0  0  0  0  0  0  0  0
    7.6915  -14.5583   25.6207 N   0  0  0  0  0  0  0  0  0  0  0  0
    8.4826  -13.7929   26.5923 C   0  0  1  0  0  0  0  0  0  0  0  0
    7.7187  -12.6075   27.1378 C   0  0  0  0  0  0  0  0  0  0  0  0
    6.6245  -12.0302   25.8132 S   0  0  0  0  0  0  0  0  0  0  0  0
    8.8912  -14.6921   27.6824 C   0  0  0  0  0  0  0  0  0  0  0  0
    8.4529  -15.8774   27.7230 O   0  0  0  0  0  0  0  0  0  0  0  0
    9.7588  -14.3292   28.7182 O   0  0  0  0  0  0  0  0  0  0  0  0
  1  2  1  0
  3  4  1  0
  3  2  1  0
  4  5  1  0
  5  1  1  0
  5  6  1  1
  7  6  2  0
  9 11  1  0
  9  8  1  0
 10  9  2  0
 12 11  1  6
 12 13  1  0
 12 14  1  0
 13  6  1  0
 14 16  1  0
 15 14  2  0
 16 17  1  0
 17 20  1  0
 17 18  1  1
 18 19  1  0
 20 21  2  0
 20 22  1  0
M  END
$$$$
