PNC.pdb
     RDKit          3D

 22 22  0  0  1  0  0  0  0  0999 V2000
    8.6514  -15.1040   19.6201 N   0  0  0  0  0  0  0  0  0  0  0  0
    8.3912  -14.4502   18.3273 C   0  0  0  0  0  0  0  0  0  0  0  0
    7.2112  -13.5789   18.6526 C   0  0  0  0  0  0  0  0  0  0  0  0
    7.5670  -13.0395   20.0229 C   0  0  0  0  0  0  0  0  0  0  0  0
    8.6388  -13.9901   20.5108 C   0  0  1  0  0  0  0  0  0  0  0  0
    8.4119  -14.3845   21.9278 C   0  0  0  0  0  0  0  0  0  0  0  0
    8.2528  -13.5656   22.8502 O   0  0  0  0  0  0  0  0  0  0  0  0
    5.9851  -18.7628   25.0375 N   0  0  0  0  0  0  0  0  0  0  0  0
    7.3303  -18.4586   24.6489 C   0  0  0  0  0  0  0  0  0  0  0  0
    8.2369  -18.8394   25.4687 O   0  0  0  0  0  0  0  0  0  0  0  0
    7.6407  -17.7570   23.3929 C   0  0  0  0  0  0  0  0  0  0  0  0
    8.0203  -16.3208   23.5254 C   0  0  2  0  0  0  0  0  0  0  0  0
    8.3730  -15.7702   22.2569 N   0  0  0  0  0  0  0  0  0  0  0  0
    8.9258  -16.0112   24.6426 C   0  0  0  0  0  0  0  0  0  0  0  0
   10.1710  -15.9899   24.3711 O   0  0  0  0  0  0  0  0  0  0  0  0
    8.5714  -15.7406   25.9736 N   0  0  0  0  0  0  0  0  0  0  0  0
    9.5006  -15.1237   26.9285 C   0  0  1  0  0  0  0  0  0  0  0  0
    8.9188  -13.8813   27.5643 C   0  0  0  0  0  0  0  0  0  0  0  0
   10.2040  -13.1861   28.6366 S   0  0  0  0  0  0  0  0  0  0  0  0
    9.8505  -16.1164   27.9562 C   0  0  0  0  0  0  0  0  0  0  0  0
    9.0282  -17.0264   28.2631 O   0  0  0  0  0  0  0  0  0  0  0  0
   11.0659  -16.1367   28.6488 O   0  0  0  0  0  0  0  0  0  0  0  0
  1  2  1  0
  3  4  1  0
  3  2  1  0
  4  5  1  0
  5  1  1  0
  5  6  1  1
  7  6  2  0
  9 11  1  0
  9  8  1  0
 10  9  2  0
 12 11  1  6
 12 13  1  0
 12 14  1  0
 13  6  1  0
 14 16  1  0
 15 14  2  0
 16 17  1  0
 17 20  1  0
 17 18  1  1
 18 19  1  0
 20 21  2  0
 20 22  1  0
M  END
$$$$
