PNC.pdb
     RDKit          3D

 22 22  0  0  1  0  0  0  0  0999 V2000
    9.0173  -14.7297   17.8345 N   0  0  0  0  0  0  0  0  0  0  0  0
    8.5363  -13.9320   16.6949 C   0  0  0  0  0  0  0  0  0  0  0  0
    7.1412  -13.5815   17.1289 C   0  0  0  0  0  0  0  0  0  0  0  0
    7.3224  -13.2661   18.5996 C   0  0  0  0  0  0  0  0  0  0  0  0
    8.6545  -13.9005   18.9367 C   0  0  1  0  0  0  0  0  0  0  0  0
    8.5923  -14.6439   20.2246 C   0  0  0  0  0  0  0  0  0  0  0  0
    8.0338  -14.2026   21.2445 O   0  0  0  0  0  0  0  0  0  0  0  0
   10.1866  -19.0357   18.7690 N   0  0  0  0  0  0  0  0  0  0  0  0
    9.3120  -18.7586   19.8696 C   0  0  0  0  0  0  0  0  0  0  0  0
    8.0918  -19.1074   19.7011 O   0  0  0  0  0  0  0  0  0  0  0  0
    9.7903  -18.1174   21.1051 C   0  0  0  0  0  0  0  0  0  0  0  0
    9.1747  -16.7999   21.4359 C   0  0  2  0  0  0  0  0  0  0  0  0
    9.2011  -15.9295   20.3052 N   0  0  0  0  0  0  0  0  0  0  0  0
    9.5970  -16.2136   22.7172 C   0  0  0  0  0  0  0  0  0  0  0  0
   10.8001  -15.7973   22.7787 O   0  0  0  0  0  0  0  0  0  0  0  0
    8.8239  -16.0655   23.8796 N   0  0  0  0  0  0  0  0  0  0  0  0
    9.3432  -15.4313   25.0978 C   0  0  1  0  0  0  0  0  0  0  0  0
    8.2721  -14.6624   25.8378 C   0  0  0  0  0  0  0  0  0  0  0  0
    7.5407  -13.5028   24.6523 S   0  0  0  0  0  0  0  0  0  0  0  0
    9.9246  -16.4709   25.9609 C   0  0  0  0  0  0  0  0  0  0  0  0
    9.8198  -17.6899   25.6420 O   0  0  0  0  0  0  0  0  0  0  0  0
   10.6108  -16.2113   27.1521 O   0  0  0  0  0  0  0  0  0  0  0  0
  1  2  1  0
  3  4  1  0
  3  2  1  0
  4  5  1  0
  5  1  1  0
  5  6  1  1
  7  6  2  0
  9 11  1  0
  9  8  1  0
 10  9  2  0
 12 11  1  6
 12 13  1  0
 12 14  1  0
 13  6  1  0
 14 16  1  0
 15 14  2  0
 16 17  1  0
 17 20  1  0
 17 18  1  1
 18 19  1  0
 20 21  2  0
 20 22  1  0
M  END
$$$$
