PNC.pdb
     RDKit          3D

 22 22  0  0  1  0  0  0  0  0999 V2000
    9.0061  -14.2315   17.7134 N   0  0  0  0  0  0  0  0  0  0  0  0
    8.1547  -13.2648   17.0013 C   0  0  0  0  0  0  0  0  0  0  0  0
    6.8436  -13.4192   17.7185 C   0  0  0  0  0  0  0  0  0  0  0  0
    7.2716  -13.5390   19.1668 C   0  0  0  0  0  0  0  0  0  0  0  0
    8.7387  -13.8989   19.0743 C   0  0  1  0  0  0  0  0  0  0  0  0
    9.0902  -14.9949   20.0179 C   0  0  0  0  0  0  0  0  0  0  0  0
    8.6606  -15.0603   21.1832 O   0  0  0  0  0  0  0  0  0  0  0  0
    9.5185  -19.7154   18.2130 N   0  0  0  0  0  0  0  0  0  0  0  0
   10.3779  -18.5693   18.2444 C   0  0  0  0  0  0  0  0  0  0  0  0
   10.4884  -17.9368   17.1368 O   0  0  0  0  0  0  0  0  0  0  0  0
   11.0813  -18.1538   19.4686 C   0  0  0  0  0  0  0  0  0  0  0  0
   10.3636  -17.1710   20.3309 C   0  0  2  0  0  0  0  0  0  0  0  0
    9.9642  -16.0289   19.5741 N   0  0  0  0  0  0  0  0  0  0  0  0
   10.9933  -16.9003   21.6325 C   0  0  0  0  0  0  0  0  0  0  0  0
   11.7551  -15.8801   21.6900 O   0  0  0  0  0  0  0  0  0  0  0  0
   10.8512  -17.6422   22.8157 N   0  0  0  0  0  0  0  0  0  0  0  0
   11.3161  -17.1484   24.1180 C   0  0  1  0  0  0  0  0  0  0  0  0
   10.2548  -16.3403   24.8299 C   0  0  0  0  0  0  0  0  0  0  0  0
   10.9651  -15.8142   26.4121 S   0  0  0  0  0  0  0  0  0  0  0  0
   11.7303  -18.2969   24.9386 C   0  0  0  0  0  0  0  0  0  0  0  0
   11.3560  -19.4641   24.6284 O   0  0  0  0  0  0  0  0  0  0  0  0
   12.5356  -18.1996   26.0784 O   0  0  0  0  0  0  0  0  0  0  0  0
  1  2  1  0
  3  4  1  0
  3  2  1  0
  4  5  1  0
  5  1  1  0
  5  6  1  1
  7  6  2  0
  9 11  1  0
  9  8  1  0
 10  9  2  0
 12 11  1  6
 12 13  1  0
 12 14  1  0
 13  6  1  0
 14 16  1  0
 15 14  2  0
 16 17  1  0
 17 20  1  0
 17 18  1  1
 18 19  1  0
 20 21  2  0
 20 22  1  0
M  END
$$$$
