QQS.pdb
     RDKit          3D

 25 24  0  0  1  0  0  0  0  0999 V2000
   15.6727  -14.2820  -14.2704 N   0  0  0  0  0  0  0  0  0  0  0  0
   15.0334  -14.6295  -13.0534 C   0  0  0  0  0  0  0  0  0  0  0  0
   14.8637  -15.8492  -12.8095 O   0  0  0  0  0  0  0  0  0  0  0  0
   14.5677  -13.6308  -12.0787 C   0  0  0  0  0  0  0  0  0  0  0  0
   14.8784  -12.2197  -12.4924 C   0  0  0  0  0  0  0  0  0  0  0  0
   14.3091  -11.2744  -11.4586 C   0  0  2  0  0  0  0  0  0  0  0  0
   12.8686  -11.3707  -11.5123 N   0  0  0  0  0  0  0  0  0  0  0  0
   14.7956   -9.8856  -11.6533 C   0  0  0  0  0  0  0  0  0  0  0  0
   14.4181   -9.2682  -12.6600 O   0  0  0  0  0  0  0  0  0  0  0  0
   15.5159   -5.4175   -7.2950 N   0  0  0  0  0  0  0  0  0  0  0  0
   14.4129   -5.8286   -8.0829 C   0  0  0  0  0  0  0  0  0  0  0  0
   13.2628   -5.4740   -7.7661 O   0  0  0  0  0  0  0  0  0  0  0  0
   14.5775   -6.6890   -9.3099 C   0  0  0  0  0  0  0  0  0  0  0  0
   15.9687   -7.1171   -9.5525 C   0  0  0  0  0  0  0  0  0  0  0  0
   16.2414   -8.0102  -10.7161 C   0  0  2  0  0  0  0  0  0  0  0  0
   15.6621   -9.3087  -10.7043 N   0  0  0  0  0  0  0  0  0  0  0  0
   17.6822   -7.9633  -11.0496 C   0  0  0  0  0  0  0  0  0  0  0  0
   18.4885   -8.8555  -10.6441 O   0  0  0  0  0  0  0  0  0  0  0  0
   21.0943   -8.2888  -13.7180 O   0  0  0  0  0  0  0  0  0  0  0  0
   19.8160   -8.2063  -13.2236 C   0  0  0  0  0  0  0  0  0  0  0  0
   19.5885   -6.9903  -12.3675 C   0  0  2  0  0  0  0  0  0  0  0  0
   18.2453   -6.9189  -11.8414 N   0  0  0  0  0  0  0  0  0  0  0  0
   19.9582   -5.7447  -13.1295 C   0  0  0  0  0  0  0  0  0  0  0  0
   19.0893   -5.1906  -13.8343 O   0  0  0  0  0  0  0  0  0  0  0  0
   21.2202   -5.1998  -13.0735 O   0  0  0  0  0  0  0  0  0  0  0  0
  1  2  1  0
  2  4  1  0
  3  2  2  0
  4  5  1  0
  6  7  1  6
  6  5  1  0
  8  6  1  0
  8  9  2  0
 10 11  1  0
 11 13  1  0
 12 11  2  0
 13 14  1  0
 15 14  1  1
 15 16  1  0
 15 17  1  0
 16  8  1  0
 17 22  1  0
 17 18  2  0
 20 19  1  0
 21 20  1  6
 22 21  1  0
 23 25  1  0
 23 21  1  0
 24 23  2  0
M  END
$$$$
