QQS.pdb
     RDKit          3D

 25 24  0  0  1  0  0  0  0  0999 V2000
   18.3949  -27.0531   -3.1695 N   0  0  0  0  0  0  0  0  0  0  0  0
   17.4551  -27.5090   -4.1284 C   0  0  0  0  0  0  0  0  0  0  0  0
   17.7526  -28.5265   -4.8008 O   0  0  0  0  0  0  0  0  0  0  0  0
   16.1630  -26.8459   -4.3631 C   0  0  0  0  0  0  0  0  0  0  0  0
   15.8834  -25.7438   -3.3801 C   0  0  0  0  0  0  0  0  0  0  0  0
   15.0634  -24.6761   -4.0684 C   0  0  2  0  0  0  0  0  0  0  0  0
   15.5691  -24.5235   -5.4130 N   0  0  0  0  0  0  0  0  0  0  0  0
   15.0686  -23.4008   -3.3088 C   0  0  0  0  0  0  0  0  0  0  0  0
   15.7553  -22.4637   -3.7418 O   0  0  0  0  0  0  0  0  0  0  0  0
   10.4111  -19.9199   -1.2267 N   0  0  0  0  0  0  0  0  0  0  0  0
   10.8024  -20.5510   -2.4329 C   0  0  0  0  0  0  0  0  0  0  0  0
   10.0748  -20.4631   -3.4388 O   0  0  0  0  0  0  0  0  0  0  0  0
   12.0849  -21.3346   -2.5512 C   0  0  0  0  0  0  0  0  0  0  0  0
   12.8125  -21.4784   -1.2754 C   0  0  0  0  0  0  0  0  0  0  0  0
   14.1459  -22.1475   -1.2929 C   0  0  2  0  0  0  0  0  0  0  0  0
   14.3049  -23.2853   -2.1308 N   0  0  0  0  0  0  0  0  0  0  0  0
   14.6373  -22.3091    0.0933 C   0  0  0  0  0  0  0  0  0  0  0  0
   14.5702  -23.4231    0.6975 O   0  0  0  0  0  0  0  0  0  0  0  0
   14.9774  -21.5455    4.4815 O   0  0  0  0  0  0  0  0  0  0  0  0
   14.5468  -21.4616    3.1803 C   0  0  0  0  0  0  0  0  0  0  0  0
   15.6736  -21.3810    2.1867 C   0  0  2  0  0  0  0  0  0  0  0  0
   15.2115  -21.2288    0.8268 N   0  0  0  0  0  0  0  0  0  0  0  0
   16.5835  -22.5717    2.3388 C   0  0  0  0  0  0  0  0  0  0  0  0
   16.7544  -23.3271    1.3595 O   0  0  0  0  0  0  0  0  0  0  0  0
   17.2305  -22.8525    3.5201 O   0  0  0  0  0  0  0  0  0  0  0  0
  1  2  1  0
  2  4  1  0
  3  2  2  0
  4  5  1  0
  6  7  1  6
  6  5  1  0
  8  6  1  0
  8  9  2  0
 10 11  1  0
 11 13  1  0
 12 11  2  0
 13 14  1  0
 15 14  1  1
 15 16  1  0
 15 17  1  0
 16  8  1  0
 17 22  1  0
 17 18  2  0
 20 19  1  0
 21 20  1  1
 22 21  1  0
 23 25  1  0
 23 21  1  0
 24 23  2  0
M  END
$$$$
