QQS.pdb
     RDKit          3D

 25 24  0  0  1  0  0  0  0  0999 V2000
   28.6355  -17.9523  -14.9763 N   0  0  0  0  0  0  0  0  0  0  0  0
   28.5513  -18.1391  -16.3794 C   0  0  0  0  0  0  0  0  0  0  0  0
   29.4525  -17.6328  -17.0918 O   0  0  0  0  0  0  0  0  0  0  0  0
   27.4645  -18.8923  -17.0243 C   0  0  0  0  0  0  0  0  0  0  0  0
   26.4506  -19.4121  -16.0440 C   0  0  0  0  0  0  0  0  0  0  0  0
   27.0288  -20.6201  -15.3423 C   0  0  2  0  0  0  0  0  0  0  0  0
   27.7044  -21.4285  -16.3308 N   0  0  0  0  0  0  0  0  0  0  0  0
   25.9899  -21.3769  -14.5998 C   0  0  0  0  0  0  0  0  0  0  0  0
   25.2223  -22.1057  -15.2453 O   0  0  0  0  0  0  0  0  0  0  0  0
   25.3255  -21.1320   -8.0636 N   0  0  0  0  0  0  0  0  0  0  0  0
   25.8003  -20.0871   -8.8937 C   0  0  0  0  0  0  0  0  0  0  0  0
   26.3648  -19.1023   -8.3831 O   0  0  0  0  0  0  0  0  0  0  0  0
   25.6504  -20.1203  -10.3934 C   0  0  0  0  0  0  0  0  0  0  0  0
   24.9508  -21.3195  -10.8936 C   0  0  0  0  0  0  0  0  0  0  0  0
   24.7687  -21.4693  -12.3668 C   0  0  2  0  0  0  0  0  0  0  0  0
   25.9007  -21.2522  -13.1995 N   0  0  0  0  0  0  0  0  0  0  0  0
   23.5321  -20.7736  -12.7864 C   0  0  0  0  0  0  0  0  0  0  0  0
   23.4749  -19.5084  -12.8666 O   0  0  0  0  0  0  0  0  0  0  0  0
   19.6044  -20.6334  -15.4291 O   0  0  0  0  0  0  0  0  0  0  0  0
   20.7335  -21.2654  -14.9697 C   0  0  0  0  0  0  0  0  0  0  0  0
   21.1541  -20.8069  -13.5999 C   0  0  2  0  0  0  0  0  0  0  0  0
   22.3396  -21.4803  -13.1232 N   0  0  0  0  0  0  0  0  0  0  0  0
   20.0065  -20.9428  -12.6339 C   0  0  0  0  0  0  0  0  0  0  0  0
   20.1436  -21.6818  -11.6369 O   0  0  0  0  0  0  0  0  0  0  0  0
   18.8146  -20.2797  -12.8151 O   0  0  0  0  0  0  0  0  0  0  0  0
  1  2  1  0
  2  4  1  0
  3  2  2  0
  4  5  1  0
  6  7  1  6
  6  5  1  0
  8  6  1  0
  8  9  2  0
 10 11  1  0
 11 13  1  0
 12 11  2  0
 13 14  1  0
 15 14  1  1
 15 16  1  0
 15 17  1  0
 16  8  1  0
 17 22  1  0
 17 18  2  0
 20 19  1  0
 21 20  1  6
 22 21  1  0
 23 25  1  0
 23 21  1  0
 24 23  2  0
M  END
$$$$
