QQS.pdb
     RDKit          3D

 25 24  0  0  1  0  0  0  0  0999 V2000
   24.3400   -9.1744  -17.4084 N   0  0  0  0  0  0  0  0  0  0  0  0
   24.5773  -10.5513  -17.6497 C   0  0  0  0  0  0  0  0  0  0  0  0
   25.6335  -11.0517  -17.1915 O   0  0  0  0  0  0  0  0  0  0  0  0
   23.6474  -11.4048  -18.4055 C   0  0  0  0  0  0  0  0  0  0  0  0
   22.4156  -10.6717  -18.8575 C   0  0  0  0  0  0  0  0  0  0  0  0
   21.3325  -10.8560  -17.8187 C   0  0  2  0  0  0  0  0  0  0  0  0
   20.6634  -12.1074  -18.0899 N   0  0  0  0  0  0  0  0  0  0  0  0
   20.3968   -9.7042  -17.7865 C   0  0  0  0  0  0  0  0  0  0  0  0
   19.5979   -9.5718  -18.7252 O   0  0  0  0  0  0  0  0  0  0  0  0
   15.6737   -8.3222  -14.7700 N   0  0  0  0  0  0  0  0  0  0  0  0
   16.0701   -9.1025  -15.8837 C   0  0  0  0  0  0  0  0  0  0  0  0
   15.2910   -9.9549  -16.3477 O   0  0  0  0  0  0  0  0  0  0  0  0
   17.4164   -8.9385  -16.5420 C   0  0  0  0  0  0  0  0  0  0  0  0
   18.2491   -7.8820  -15.9354 C   0  0  0  0  0  0  0  0  0  0  0  0
   19.6190   -7.6592  -16.4830 C   0  0  2  0  0  0  0  0  0  0  0  0
   20.4367   -8.8008  -16.7063 N   0  0  0  0  0  0  0  0  0  0  0  0
   20.2693   -6.5481  -15.7537 C   0  0  0  0  0  0  0  0  0  0  0  0
   20.6488   -6.6746  -14.5494 O   0  0  0  0  0  0  0  0  0  0  0  0
   19.0817   -2.8551  -15.7815 O   0  0  0  0  0  0  0  0  0  0  0  0
   20.0533   -3.3279  -14.9343 C   0  0  0  0  0  0  0  0  0  0  0  0
   21.0854   -4.1741  -15.6288 C   0  0  2  0  0  0  0  0  0  0  0  0
   20.5061   -5.2779  -16.3582 N   0  0  0  0  0  0  0  0  0  0  0  0
   22.1230   -4.6390  -14.6409 C   0  0  0  0  0  0  0  0  0  0  0  0
   21.8722   -4.5552  -13.4207 O   0  0  0  0  0  0  0  0  0  0  0  0
   23.3357   -5.1518  -15.0399 O   0  0  0  0  0  0  0  0  0  0  0  0
  1  2  1  0
  2  4  1  0
  3  2  2  0
  4  5  1  0
  6  7  1  6
  6  5  1  0
  8  6  1  0
  8  9  2  0
 10 11  1  0
 11 13  1  0
 12 11  2  0
 13 14  1  0
 15 14  1  1
 15 16  1  0
 15 17  1  0
 16  8  1  0
 17 22  1  0
 17 18  2  0
 20 19  1  0
 21 20  1  1
 22 21  1  0
 23 25  1  0
 23 21  1  0
 24 23  2  0
M  END
$$$$
