QQS.pdb
     RDKit          3D

 25 24  0  0  1  0  0  0  0  0999 V2000
   17.2842  -24.9210  -15.9112 N   0  0  0  0  0  0  0  0  0  0  0  0
   16.8591  -25.4544  -14.6681 C   0  0  0  0  0  0  0  0  0  0  0  0
   16.2269  -26.5388  -14.6827 O   0  0  0  0  0  0  0  0  0  0  0  0
   17.1260  -24.7962  -13.3798 C   0  0  0  0  0  0  0  0  0  0  0  0
   17.8840  -23.5067  -13.5270 C   0  0  0  0  0  0  0  0  0  0  0  0
   19.3352  -23.8261  -13.8071 C   0  0  2  0  0  0  0  0  0  0  0  0
   19.9569  -24.2049  -12.5593 N   0  0  0  0  0  0  0  0  0  0  0  0
   20.0310  -22.6954  -14.4710 C   0  0  0  0  0  0  0  0  0  0  0  0
   19.4054  -21.6379  -14.6357 O   0  0  0  0  0  0  0  0  0  0  0  0
   26.5098  -22.6078  -15.5640 N   0  0  0  0  0  0  0  0  0  0  0  0
   25.6293  -23.7171  -15.5888 C   0  0  0  0  0  0  0  0  0  0  0  0
   26.0932  -24.8720  -15.6014 O   0  0  0  0  0  0  0  0  0  0  0  0
   24.1307  -23.5542  -15.5980 C   0  0  0  0  0  0  0  0  0  0  0  0
   23.6854  -22.1511  -15.4949 C   0  0  0  0  0  0  0  0  0  0  0  0
   22.2196  -21.8732  -15.4810 C   0  0  2  0  0  0  0  0  0  0  0  0
   21.3665  -22.8469  -14.8927 N   0  0  0  0  0  0  0  0  0  0  0  0
   21.7960  -21.3818  -16.8108 C   0  0  0  0  0  0  0  0  0  0  0  0
   21.3291  -22.1661  -17.6924 O   0  0  0  0  0  0  0  0  0  0  0  0
   19.3802  -18.5334  -17.5777 O   0  0  0  0  0  0  0  0  0  0  0  0
   20.5255  -18.2952  -18.2968 C   0  0  0  0  0  0  0  0  0  0  0  0
   21.3978  -19.5122  -18.4429 C   0  0  2  0  0  0  0  0  0  0  0  0
   21.8871  -20.0061  -17.1769 N   0  0  0  0  0  0  0  0  0  0  0  0
   22.5213  -19.2306  -19.4059 C   0  0  0  0  0  0  0  0  0  0  0  0
   23.6984  -19.3153  -18.9983 O   0  0  0  0  0  0  0  0  0  0  0  0
   22.2917  -18.8839  -20.7174 O   0  0  0  0  0  0  0  0  0  0  0  0
  1  2  1  0
  2  4  1  0
  3  2  2  0
  4  5  1  0
  6  7  1  1
  6  5  1  0
  8  6  1  0
  8  9  2  0
 10 11  1  0
 11 13  1  0
 12 11  2  0
 13 14  1  0
 15 14  1  6
 15 16  1  0
 15 17  1  0
 16  8  1  0
 17 22  1  0
 17 18  2  0
 20 19  1  0
 21 20  1  1
 22 21  1  0
 23 25  1  0
 23 21  1  0
 24 23  2  0
M  END
$$$$
