QQS.pdb
     RDKit          3D

 25 24  0  0  1  0  0  0  0  0999 V2000
   32.1907  -24.5700  -14.7749 N   0  0  0  0  0  0  0  0  0  0  0  0
   32.1670  -25.7731  -15.5249 C   0  0  0  0  0  0  0  0  0  0  0  0
   32.8547  -26.7365  -15.1066 O   0  0  0  0  0  0  0  0  0  0  0  0
   31.3793  -25.9347  -16.7568 C   0  0  0  0  0  0  0  0  0  0  0  0
   30.6021  -24.7008  -17.1208 C   0  0  0  0  0  0  0  0  0  0  0  0
   29.2564  -24.7544  -16.4334 C   0  0  2  0  0  0  0  0  0  0  0  0
   28.6467  -26.0262  -16.7463 N   0  0  0  0  0  0  0  0  0  0  0  0
   28.3985  -23.6028  -16.8089 C   0  0  0  0  0  0  0  0  0  0  0  0
   28.8247  -22.8071  -17.6587 O   0  0  0  0  0  0  0  0  0  0  0  0
   24.6118  -22.1461  -20.5786 N   0  0  0  0  0  0  0  0  0  0  0  0
   24.4119  -23.3638  -19.8832 C   0  0  0  0  0  0  0  0  0  0  0  0
   23.8105  -24.3003  -20.4403 O   0  0  0  0  0  0  0  0  0  0  0  0
   24.9077  -23.5766  -18.4755 C   0  0  0  0  0  0  0  0  0  0  0  0
   25.6523  -22.4261  -17.9281 C   0  0  0  0  0  0  0  0  0  0  0  0
   26.1236  -22.4964  -16.5143 C   0  0  2  0  0  0  0  0  0  0  0  0
   27.1381  -23.4420  -16.2006 N   0  0  0  0  0  0  0  0  0  0  0  0
   24.9579  -22.4935  -15.6029 C   0  0  0  0  0  0  0  0  0  0  0  0
   24.4823  -23.5696  -15.1274 O   0  0  0  0  0  0  0  0  0  0  0  0
   22.4038  -19.1525  -15.0735 O   0  0  0  0  0  0  0  0  0  0  0  0
   22.7150  -19.8925  -13.9595 C   0  0  0  0  0  0  0  0  0  0  0  0
   23.1945  -21.2810  -14.2847 C   0  0  2  0  0  0  0  0  0  0  0  0
   24.3050  -21.2882  -15.2082 N   0  0  0  0  0  0  0  0  0  0  0  0
   22.0475  -22.1210  -14.7820 C   0  0  0  0  0  0  0  0  0  0  0  0
   22.0128  -22.4377  -15.9892 O   0  0  0  0  0  0  0  0  0  0  0  0
   21.0391  -22.5494  -13.9497 O   0  0  0  0  0  0  0  0  0  0  0  0
  1  2  1  0
  2  4  1  0
  3  2  2  0
  4  5  1  0
  6  7  1  6
  6  5  1  0
  8  6  1  0
  8  9  2  0
 10 11  1  0
 11 13  1  0
 12 11  2  0
 13 14  1  0
 15 14  1  6
 15 16  1  0
 15 17  1  0
 16  8  1  0
 17 22  1  0
 17 18  2  0
 20 19  1  0
 21 20  1  6
 22 21  1  0
 23 25  1  0
 23 21  1  0
 24 23  2  0
M  END
$$$$
