QQS.pdb
     RDKit          3D

 25 24  0  0  1  0  0  0  0  0999 V2000
   29.2195  -22.8191  -15.4537 N   0  0  0  0  0  0  0  0  0  0  0  0
   28.7720  -23.2474  -16.7292 C   0  0  0  0  0  0  0  0  0  0  0  0
   29.5256  -24.0036  -17.3897 O   0  0  0  0  0  0  0  0  0  0  0  0
   27.4774  -22.8461  -17.3012 C   0  0  0  0  0  0  0  0  0  0  0  0
   26.6366  -22.0484  -16.3442 C   0  0  0  0  0  0  0  0  0  0  0  0
   26.4016  -20.6756  -16.9328 C   0  0  2  0  0  0  0  0  0  0  0  0
   27.6840  -20.0250  -17.0716 N   0  0  0  0  0  0  0  0  0  0  0  0
   25.4449  -19.8831  -16.1204 C   0  0  0  0  0  0  0  0  0  0  0  0
   25.8318  -19.4351  -15.0311 O   0  0  0  0  0  0  0  0  0  0  0  0
   21.8530  -15.0778  -17.5076 N   0  0  0  0  0  0  0  0  0  0  0  0
   23.2342  -15.3333  -17.3246 C   0  0  0  0  0  0  0  0  0  0  0  0
   24.0688  -14.4661  -17.6415 O   0  0  0  0  0  0  0  0  0  0  0  0
   23.7427  -16.6312  -16.7505 C   0  0  0  0  0  0  0  0  0  0  0  0
   22.6848  -17.6348  -16.5237 C   0  0  0  0  0  0  0  0  0  0  0  0
   23.0762  -18.9609  -15.9629 C   0  0  2  0  0  0  0  0  0  0  0  0
   24.1384  -19.6611  -16.5981 N   0  0  0  0  0  0  0  0  0  0  0  0
   21.8621  -19.7625  -15.6933 C   0  0  0  0  0  0  0  0  0  0  0  0
   21.3641  -20.5317  -16.5713 O   0  0  0  0  0  0  0  0  0  0  0  0
   20.2482  -20.4648  -11.7545 O   0  0  0  0  0  0  0  0  0  0  0  0
   20.1835  -21.2966  -12.8451 C   0  0  0  0  0  0  0  0  0  0  0  0
   20.0460  -20.5568  -14.1479 C   0  0  2  0  0  0  0  0  0  0  0  0
   21.1851  -19.7177  -14.4386 N   0  0  0  0  0  0  0  0  0  0  0  0
   18.7572  -19.7774  -14.1666 C   0  0  0  0  0  0  0  0  0  0  0  0
   18.8078  -18.5336  -14.2632 O   0  0  0  0  0  0  0  0  0  0  0  0
   17.5290  -20.3915  -14.0808 O   0  0  0  0  0  0  0  0  0  0  0  0
  1  2  1  0
  2  4  1  0
  3  2  2  0
  4  5  1  0
  6  7  1  1
  6  5  1  0
  8  6  1  0
  8  9  2  0
 10 11  1  0
 11 13  1  0
 12 11  2  0
 13 14  1  0
 15 14  1  6
 15 16  1  0
 15 17  1  0
 16  8  1  0
 17 22  1  0
 17 18  2  0
 20 19  1  0
 21 20  1  1
 22 21  1  0
 23 25  1  0
 23 21  1  0
 24 23  2  0
M  END
$$$$
