QQS.pdb
     RDKit          3D

 25 24  0  0  1  0  0  0  0  0999 V2000
   13.8113  -12.7080  -13.7427 N   0  0  0  0  0  0  0  0  0  0  0  0
   14.4682  -13.3816  -14.8036 C   0  0  0  0  0  0  0  0  0  0  0  0
   14.2619  -14.6133  -14.9307 O   0  0  0  0  0  0  0  0  0  0  0  0
   15.3694  -12.7033  -15.7479 C   0  0  0  0  0  0  0  0  0  0  0  0
   15.5348  -11.2392  -15.4506 C   0  0  0  0  0  0  0  0  0  0  0  0
   17.0094  -10.9363  -15.3091 C   0  0  2  0  0  0  0  0  0  0  0  0
   17.6072  -11.9902  -14.5222 N   0  0  0  0  0  0  0  0  0  0  0  0
   17.2432   -9.5896  -14.7303 C   0  0  0  0  0  0  0  0  0  0  0  0
   16.7533   -8.6095  -15.3102 O   0  0  0  0  0  0  0  0  0  0  0  0
   16.1560   -7.5985   -9.4298 N   0  0  0  0  0  0  0  0  0  0  0  0
   17.2986   -6.7752   -9.5804 C   0  0  0  0  0  0  0  0  0  0  0  0
   17.4141   -5.7481   -8.8870 O   0  0  0  0  0  0  0  0  0  0  0  0
   18.3989   -7.0979  -10.5591 C   0  0  0  0  0  0  0  0  0  0  0  0
   18.1633   -8.3334  -11.3310 C   0  0  0  0  0  0  0  0  0  0  0  0
   18.2888   -8.2743  -12.8165 C   0  0  2  0  0  0  0  0  0  0  0  0
   18.0049   -9.4572  -13.5527 N   0  0  0  0  0  0  0  0  0  0  0  0
   19.5494   -7.5901  -13.1803 C   0  0  0  0  0  0  0  0  0  0  0  0
   20.6733   -8.1719  -13.0867 O   0  0  0  0  0  0  0  0  0  0  0  0
   20.1673   -5.0463  -16.2760 O   0  0  0  0  0  0  0  0  0  0  0  0
   20.6062   -4.5317  -15.0810 C   0  0  0  0  0  0  0  0  0  0  0  0
   20.8033   -5.5802  -14.0203 C   0  0  2  0  0  0  0  0  0  0  0  0
   19.5743   -6.2450  -13.6545 N   0  0  0  0  0  0  0  0  0  0  0  0
   21.4937   -4.9815  -12.8230 C   0  0  0  0  0  0  0  0  0  0  0  0
   20.8023   -4.4183  -11.9492 O   0  0  0  0  0  0  0  0  0  0  0  0
   22.8591   -5.0354  -12.6624 O   0  0  0  0  0  0  0  0  0  0  0  0
  1  2  1  0
  2  4  1  0
  3  2  2  0
  4  5  1  0
  6  7  1  1
  6  5  1  0
  8  6  1  0
  8  9  2  0
 10 11  1  0
 11 13  1  0
 12 11  2  0
 13 14  1  0
 15 14  1  1
 15 16  1  0
 15 17  1  0
 16  8  1  0
 17 22  1  0
 17 18  2  0
 20 19  1  0
 21 20  1  6
 22 21  1  0
 23 25  1  0
 23 21  1  0
 24 23  2  0
M  END
$$$$
