QQS.pdb
     RDKit          3D

 25 24  0  0  1  0  0  0  0  0999 V2000
   23.5582  -13.3369  -17.0213 N   0  0  0  0  0  0  0  0  0  0  0  0
   22.4224  -14.1788  -16.9124 C   0  0  0  0  0  0  0  0  0  0  0  0
   22.4415  -15.0757  -16.0343 O   0  0  0  0  0  0  0  0  0  0  0  0
   21.2389  -14.0444  -17.7758 C   0  0  0  0  0  0  0  0  0  0  0  0
   20.8220  -12.6148  -17.9794 C   0  0  0  0  0  0  0  0  0  0  0  0
   20.0345  -12.1621  -16.7706 C   0  0  2  0  0  0  0  0  0  0  0  0
   18.9085  -13.0534  -16.6131 N   0  0  0  0  0  0  0  0  0  0  0  0
   19.6250  -10.7395  -16.8797 C   0  0  0  0  0  0  0  0  0  0  0  0
   18.9184  -10.4053  -17.8420 O   0  0  0  0  0  0  0  0  0  0  0  0
   15.9376   -7.1388  -16.4227 N   0  0  0  0  0  0  0  0  0  0  0  0
   16.7794   -6.2022  -15.7741 C   0  0  0  0  0  0  0  0  0  0  0  0
   16.4314   -5.0096  -15.6983 O   0  0  0  0  0  0  0  0  0  0  0  0
   18.0983   -6.5968  -15.1598 C   0  0  0  0  0  0  0  0  0  0  0  0
   18.4061   -8.0344  -15.2874 C   0  0  0  0  0  0  0  0  0  0  0  0
   19.7437   -8.4270  -15.8193 C   0  0  2  0  0  0  0  0  0  0  0  0
   20.0420   -9.8148  -15.9022 N   0  0  0  0  0  0  0  0  0  0  0  0
   20.7910   -7.5912  -15.1917 C   0  0  0  0  0  0  0  0  0  0  0  0
   21.2375   -7.8441  -14.0310 O   0  0  0  0  0  0  0  0  0  0  0  0
   23.7097   -3.6571  -15.4991 O   0  0  0  0  0  0  0  0  0  0  0  0
   22.7954   -4.4845  -16.1032 C   0  0  0  0  0  0  0  0  0  0  0  0
   22.3060   -5.5856  -15.2023 C   0  0  2  0  0  0  0  0  0  0  0  0
   21.3564   -6.4596  -15.8510 N   0  0  0  0  0  0  0  0  0  0  0  0
   21.7517   -5.0038  -13.9284 C   0  0  0  0  0  0  0  0  0  0  0  0
   20.5440   -4.6898  -13.8860 O   0  0  0  0  0  0  0  0  0  0  0  0
   22.5325   -4.8078  -12.8127 O   0  0  0  0  0  0  0  0  0  0  0  0
  1  2  1  0
  2  4  1  0
  3  2  2  0
  4  5  1  0
  6  7  1  6
  6  5  1  0
  8  6  1  0
  8  9  2  0
 10 11  1  0
 11 13  1  0
 12 11  2  0
 13 14  1  0
 15 14  1  1
 15 16  1  0
 15 17  1  0
 16  8  1  0
 17 22  1  0
 17 18  2  0
 20 19  1  0
 21 20  1  6
 22 21  1  0
 23 25  1  0
 23 21  1  0
 24 23  2  0
M  END
$$$$
