QQS.pdb
     RDKit          3D

 25 24  0  0  1  0  0  0  0  0999 V2000
   25.3960  -20.0545   -9.2422 N   0  0  0  0  0  0  0  0  0  0  0  0
   24.4533  -21.0743   -9.5287 C   0  0  0  0  0  0  0  0  0  0  0  0
   23.7883  -21.5413   -8.5718 O   0  0  0  0  0  0  0  0  0  0  0  0
   24.2272  -21.5994  -10.8842 C   0  0  0  0  0  0  0  0  0  0  0  0
   25.0038  -20.8584  -11.9362 C   0  0  0  0  0  0  0  0  0  0  0  0
   24.7485  -21.5096  -13.2767 C   0  0  2  0  0  0  0  0  0  0  0  0
   25.7661  -22.5136  -13.4853 N   0  0  0  0  0  0  0  0  0  0  0  0
   24.6981  -20.5119  -14.3745 C   0  0  0  0  0  0  0  0  0  0  0  0
   25.7680  -20.1435  -14.8811 O   0  0  0  0  0  0  0  0  0  0  0  0
   20.7116  -20.9035  -19.0772 N   0  0  0  0  0  0  0  0  0  0  0  0
   21.2771  -19.6210  -19.2812 C   0  0  0  0  0  0  0  0  0  0  0  0
   21.0938  -19.0313  -20.3618 O   0  0  0  0  0  0  0  0  0  0  0  0
   22.1022  -18.9289  -18.2263 C   0  0  0  0  0  0  0  0  0  0  0  0
   22.3131  -19.7394  -17.0112 C   0  0  0  0  0  0  0  0  0  0  0  0
   23.1828  -19.1849  -15.9332 C   0  0  2  0  0  0  0  0  0  0  0  0
   23.4546  -20.0133  -14.8098 N   0  0  0  0  0  0  0  0  0  0  0  0
   22.7559  -17.8049  -15.6130 C   0  0  0  0  0  0  0  0  0  0  0  0
   21.8504  -17.5705  -14.7553 O   0  0  0  0  0  0  0  0  0  0  0  0
   23.6266  -13.0470  -15.6596 O   0  0  0  0  0  0  0  0  0  0  0  0
   24.0327  -14.3309  -15.9286 C   0  0  0  0  0  0  0  0  0  0  0  0
   22.8983  -15.3187  -15.9540 C   0  0  2  0  0  0  0  0  0  0  0  0
   23.3338  -16.6646  -16.2459 N   0  0  0  0  0  0  0  0  0  0  0  0
   21.8309  -14.8560  -16.9107 C   0  0  0  0  0  0  0  0  0  0  0  0
   21.9425  -15.1422  -18.1209 O   0  0  0  0  0  0  0  0  0  0  0  0
   20.7393  -14.1295  -16.4940 O   0  0  0  0  0  0  0  0  0  0  0  0
  1  2  1  0
  2  4  1  0
  3  2  2  0
  4  5  1  0
  6  7  1  6
  6  5  1  0
  8  6  1  0
  8  9  2  0
 10 11  1  0
 11 13  1  0
 12 11  2  0
 13 14  1  0
 15 14  1  1
 15 16  1  0
 15 17  1  0
 16  8  1  0
 17 22  1  0
 17 18  2  0
 20 19  1  0
 21 20  1  6
 22 21  1  0
 23 25  1  0
 23 21  1  0
 24 23  2  0
M  END
$$$$
