QQS.pdb
     RDKit          3D

 25 24  0  0  1  0  0  0  0  0999 V2000
   18.2014  -14.6846  -15.1414 N   0  0  0  0  0  0  0  0  0  0  0  0
   17.9560  -13.3208  -15.4422 C   0  0  0  0  0  0  0  0  0  0  0  0
   18.9358  -12.5360  -15.4393 O   0  0  0  0  0  0  0  0  0  0  0  0
   16.6171  -12.7966  -15.7534 C   0  0  0  0  0  0  0  0  0  0  0  0
   16.4364  -11.3651  -15.3326 C   0  0  0  0  0  0  0  0  0  0  0  0
   15.9406  -11.3378  -13.9044 C   0  0  2  0  0  0  0  0  0  0  0  0
   14.6205  -11.9242  -13.8799 N   0  0  0  0  0  0  0  0  0  0  0  0
   15.9663   -9.9664  -13.3373 C   0  0  0  0  0  0  0  0  0  0  0  0
   14.8844   -9.4182  -13.0803 O   0  0  0  0  0  0  0  0  0  0  0  0
   15.5599   -7.3780   -8.6335 N   0  0  0  0  0  0  0  0  0  0  0  0
   16.3108   -6.3291   -9.2184 C   0  0  0  0  0  0  0  0  0  0  0  0
   16.4308   -5.2466   -8.6160 O   0  0  0  0  0  0  0  0  0  0  0  0
   16.9833   -6.4728  -10.5600 C   0  0  0  0  0  0  0  0  0  0  0  0
   16.7374   -7.7742  -11.2109 C   0  0  0  0  0  0  0  0  0  0  0  0
   17.4385   -8.0666  -12.4950 C   0  0  2  0  0  0  0  0  0  0  0  0
   17.2006   -9.3278  -13.1071 N   0  0  0  0  0  0  0  0  0  0  0  0
   18.8613   -7.6763  -12.3825 C   0  0  0  0  0  0  0  0  0  0  0  0
   19.6142   -8.1577  -11.4815 O   0  0  0  0  0  0  0  0  0  0  0  0
   21.0711   -7.9848  -15.0120 O   0  0  0  0  0  0  0  0  0  0  0  0
   21.6423   -6.8941  -14.4041 C   0  0  0  0  0  0  0  0  0  0  0  0
   20.8698   -6.4100  -13.2072 C   0  0  2  0  0  0  0  0  0  0  0  0
   19.4657   -6.7420  -13.2750 N   0  0  0  0  0  0  0  0  0  0  0  0
   21.0870   -4.9321  -13.0146 C   0  0  0  0  0  0  0  0  0  0  0  0
   22.2410   -4.5196  -12.7757 O   0  0  0  0  0  0  0  0  0  0  0  0
   20.0561   -4.0243  -13.0934 O   0  0  0  0  0  0  0  0  0  0  0  0
  1  2  1  0
  2  4  1  0
  3  2  2  0
  4  5  1  0
  6  7  1  6
  6  5  1  0
  8  6  1  0
  8  9  2  0
 10 11  1  0
 11 13  1  0
 12 11  2  0
 13 14  1  0
 15 14  1  1
 15 16  1  0
 15 17  1  0
 16  8  1  0
 17 22  1  0
 17 18  2  0
 20 19  1  0
 21 20  1  6
 22 21  1  0
 23 25  1  0
 23 21  1  0
 24 23  2  0
M  END
$$$$
