QQS.pdb
     RDKit          3D

 25 24  0  0  1  0  0  0  0  0999 V2000
   27.9869  -17.6995  -15.4943 N   0  0  0  0  0  0  0  0  0  0  0  0
   28.4626  -18.0763  -16.7758 C   0  0  0  0  0  0  0  0  0  0  0  0
   29.5088  -17.5247  -17.1966 O   0  0  0  0  0  0  0  0  0  0  0  0
   27.7878  -19.0745  -17.6200 C   0  0  0  0  0  0  0  0  0  0  0  0
   26.5163  -19.5940  -17.0097 C   0  0  0  0  0  0  0  0  0  0  0  0
   26.8646  -20.6635  -15.9993 C   0  0  2  0  0  0  0  0  0  0  0  0
   27.5113  -21.7471  -16.7025 N   0  0  0  0  0  0  0  0  0  0  0  0
   25.6729  -21.1101  -15.2353 C   0  0  0  0  0  0  0  0  0  0  0  0
   24.8440  -21.8303  -15.8108 O   0  0  0  0  0  0  0  0  0  0  0  0
   25.0228  -20.5899   -8.7665 N   0  0  0  0  0  0  0  0  0  0  0  0
   23.7194  -20.8813   -9.2381 C   0  0  0  0  0  0  0  0  0  0  0  0
   22.7927  -21.0492   -8.4244 O   0  0  0  0  0  0  0  0  0  0  0  0
   23.4027  -20.9955  -10.7076 C   0  0  0  0  0  0  0  0  0  0  0  0
   24.5714  -20.7883  -11.5845 C   0  0  0  0  0  0  0  0  0  0  0  0
   24.3701  -20.8633  -13.0609 C   0  0  2  0  0  0  0  0  0  0  0  0
   25.5127  -20.7118  -13.8936 N   0  0  0  0  0  0  0  0  0  0  0  0
   23.1964  -20.0474  -13.4429 C   0  0  0  0  0  0  0  0  0  0  0  0
   23.2508  -18.7801  -13.4811 O   0  0  0  0  0  0  0  0  0  0  0  0
   19.6862  -19.1550  -16.2819 O   0  0  0  0  0  0  0  0  0  0  0  0
   20.6514  -19.9908  -15.7766 C   0  0  0  0  0  0  0  0  0  0  0  0
   20.8382  -19.8509  -14.2904 C   0  0  2  0  0  0  0  0  0  0  0  0
   21.9429  -20.6343  -13.7884 N   0  0  0  0  0  0  0  0  0  0  0  0
   19.5526  -20.1733  -13.5748 C   0  0  0  0  0  0  0  0  0  0  0  0
   19.2774  -21.3686  -13.3415 O   0  0  0  0  0  0  0  0  0  0  0  0
   18.6741  -19.1944  -13.1712 O   0  0  0  0  0  0  0  0  0  0  0  0
  1  2  1  0
  2  4  1  0
  3  2  2  0
  4  5  1  0
  6  7  1  6
  6  5  1  0
  8  6  1  0
  8  9  2  0
 10 11  1  0
 11 13  1  0
 12 11  2  0
 13 14  1  0
 15 14  1  1
 15 16  1  0
 15 17  1  0
 16  8  1  0
 17 22  1  0
 17 18  2  0
 20 19  1  0
 21 20  1  6
 22 21  1  0
 23 25  1  0
 23 21  1  0
 24 23  2  0
M  END
$$$$
