YHS.pdb
     RDKit          3D

 29 30  0  0  1  0  0  0  0  0999 V2000
   33.2250  -43.9371  -13.0239 O   0  0  0  0  0  0  0  0  0  0  0  0
   32.7661  -42.6355  -13.1281 C   0  0  0  0  0  0  0  0  0  0  0  0
   32.5932  -42.0720  -14.3797 C   0  0  0  0  0  0  0  0  0  0  0  0
   32.1381  -40.7801  -14.4809 C   0  0  0  0  0  0  0  0  0  0  0  0
   31.8391  -39.9992  -13.3944 C   0  0  0  0  0  0  0  0  0  0  0  0
   31.3478  -38.6152  -13.4630 C   0  0  0  0  0  0  0  0  0  0  0  0
   32.4909  -37.6754  -13.5938 C   0  0  2  0  0  0  0  0  0  0  0  0
   33.2097  -37.6075  -12.3441 N   0  0  0  0  0  0  0  0  0  0  0  0
   32.1305  -36.3344  -14.0532 C   0  0  0  0  0  0  0  0  0  0  0  0
   31.7145  -35.5176  -13.1598 O   0  0  0  0  0  0  0  0  0  0  0  0
   32.0192  -40.5827  -12.1420 C   0  0  0  0  0  0  0  0  0  0  0  0
   32.4782  -41.8876  -12.0297 C   0  0  0  0  0  0  0  0  0  0  0  0
   32.1806  -35.8213  -15.3604 N   0  0  0  0  0  0  0  0  0  0  0  0
   31.8558  -34.4846  -15.7345 C   0  0  1  0  0  0  0  0  0  0  0  0
   32.7942  -33.7584  -16.6013 C   0  0  0  0  0  0  0  0  0  0  0  0
   32.3673  -32.3965  -16.9863 C   0  0  0  0  0  0  0  0  0  0  0  0
   31.6119  -31.5957  -16.1325 C   0  0  0  0  0  0  0  0  0  0  0  0
   31.3763  -30.4372  -16.7435 N   0  0  0  0  0  0  0  0  0  0  0  0
   31.9550  -30.4906  -17.9395 C   0  0  0  0  0  0  0  0  0  0  0  0
   32.5706  -31.7000  -18.0974 N   0  0  0  0  0  0  0  0  0  0  0  0
   30.4555  -34.4509  -16.2395 C   0  0  0  0  0  0  0  0  0  0  0  0
   30.1008  -35.3328  -17.0544 O   0  0  0  0  0  0  0  0  0  0  0  0
   27.2005  -33.0419  -14.0076 O   0  0  0  0  0  0  0  0  0  0  0  0
   27.2875  -32.6060  -15.3046 C   0  0  0  0  0  0  0  0  0  0  0  0
   28.1025  -33.5157  -16.1978 C   0  0  2  0  0  0  0  0  0  0  0  0
   29.5078  -33.4889  -15.8548 N   0  0  0  0  0  0  0  0  0  0  0  0
   27.8550  -33.2580  -17.6290 C   0  0  0  0  0  0  0  0  0  0  0  0
   26.7613  -33.4689  -18.1835 O   0  0  0  0  0  0  0  0  0  0  0  0
   28.9038  -32.7458  -18.4196 O   0  0  0  0  0  0  0  0  0  0  0  0
  2  1  1  0
  3  2  2  0
  4  3  1  0
  5 11  1  0
  5  4  2  0
  6  7  1  0
  6  5  1  0
  7  9  1  0
  7  8  1  1
  9 10  2  0
 11 12  2  0
 12  2  1  0
 13 14  1  0
 13  9  1  0
 14 21  1  0
 15 16  1  0
 14 15  1  6
 16 17  2  0
 17 18  1  0
 19 18  1  0
 20 16  1  0
 20 19  2  0
 21 26  1  0
 22 21  2  0
 24 23  1  0
 25 24  1  1
 26 25  1  0
 27 29  1  0
 27 25  1  0
 28 27  2  0
M  END
$$$$
