YHS.pdb
     RDKit          3D

 29 30  0  0  1  0  0  0  0  0999 V2000
   24.4997  -20.6980   -7.1321 O   0  0  0  0  0  0  0  0  0  0  0  0
   24.6523  -20.5876   -8.5033 C   0  0  0  0  0  0  0  0  0  0  0  0
   23.5403  -20.6728   -9.3219 C   0  0  0  0  0  0  0  0  0  0  0  0
   23.6941  -20.5635  -10.6823 C   0  0  0  0  0  0  0  0  0  0  0  0
   24.9078  -20.3713  -11.2904 C   0  0  0  0  0  0  0  0  0  0  0  0
   25.1112  -20.2470  -12.7411 C   0  0  0  0  0  0  0  0  0  0  0  0
   24.7075  -21.5046  -13.4212 C   0  0  2  0  0  0  0  0  0  0  0  0
   25.6253  -22.5623  -13.0718 N   0  0  0  0  0  0  0  0  0  0  0  0
   24.5742  -21.3986  -14.8739 C   0  0  0  0  0  0  0  0  0  0  0  0
   25.6597  -21.2612  -15.5381 O   0  0  0  0  0  0  0  0  0  0  0  0
   26.0166  -20.2881  -10.4508 C   0  0  0  0  0  0  0  0  0  0  0  0
   25.8712  -20.3970   -9.0750 C   0  0  0  0  0  0  0  0  0  0  0  0
   23.3984  -21.4268  -15.6426 N   0  0  0  0  0  0  0  0  0  0  0  0
   23.3450  -21.4730  -17.0664 C   0  0  1  0  0  0  0  0  0  0  0  0
   23.3827  -22.7882  -17.7207 C   0  0  0  0  0  0  0  0  0  0  0  0
   24.5269  -23.6446  -17.3427 C   0  0  0  0  0  0  0  0  0  0  0  0
   24.3559  -24.8134  -16.6044 C   0  0  0  0  0  0  0  0  0  0  0  0
   25.5508  -25.3673  -16.4135 N   0  0  0  0  0  0  0  0  0  0  0  0
   26.4520  -24.5877  -17.0034 C   0  0  0  0  0  0  0  0  0  0  0  0
   25.8264  -23.5194  -17.5811 N   0  0  0  0  0  0  0  0  0  0  0  0
   22.2149  -20.6245  -17.5354 C   0  0  0  0  0  0  0  0  0  0  0  0
   21.1637  -20.6133  -16.8553 O   0  0  0  0  0  0  0  0  0  0  0  0
   22.6102  -17.1978  -19.8303 O   0  0  0  0  0  0  0  0  0  0  0  0
   21.6304  -18.0547  -20.2607 C   0  0  0  0  0  0  0  0  0  0  0  0
   21.1672  -19.0296  -19.2001 C   0  0  2  0  0  0  0  0  0  0  0  0
   22.2584  -19.8343  -18.6953 N   0  0  0  0  0  0  0  0  0  0  0  0
   20.0177  -19.8371  -19.6503 C   0  0  0  0  0  0  0  0  0  0  0  0
   20.1306  -20.9754  -20.1401 O   0  0  0  0  0  0  0  0  0  0  0  0
   18.7193  -19.3028  -19.5239 O   0  0  0  0  0  0  0  0  0  0  0  0
  2  1  1  0
  3  2  2  0
  4  3  1  0
  5 11  1  0
  5  4  2  0
  6  7  1  0
  6  5  1  0
  7  9  1  0
  7  8  1  6
  9 10  2  0
 11 12  2  0
 12  2  1  0
 13 14  1  0
 13  9  1  0
 14 21  1  0
 15 16  1  0
 14 15  1  1
 16 17  2  0
 17 18  1  0
 19 18  1  0
 20 16  1  0
 20 19  2  0
 21 26  1  0
 22 21  2  0
 24 23  1  0
 25 24  1  6
 26 25  1  0
 27 29  1  0
 27 25  1  0
 28 27  2  0
M  END
$$$$
