YHS.pdb
     RDKit          3D

 29 30  0  0  1  0  0  0  0  0999 V2000
   21.9668  -29.5566  -12.6146 O   0  0  0  0  0  0  0  0  0  0  0  0
   21.3262  -28.5734  -11.8807 C   0  0  0  0  0  0  0  0  0  0  0  0
   20.6666  -28.9149  -10.7136 C   0  0  0  0  0  0  0  0  0  0  0  0
   20.0312  -27.9378   -9.9871 C   0  0  0  0  0  0  0  0  0  0  0  0
   20.0105  -26.6176  -10.3563 C   0  0  0  0  0  0  0  0  0  0  0  0
   19.3442  -25.5443   -9.6042 C   0  0  0  0  0  0  0  0  0  0  0  0
   17.9278  -25.4241  -10.0356 C   0  0  2  0  0  0  0  0  0  0  0  0
   17.8690  -24.8362  -11.3524 N   0  0  0  0  0  0  0  0  0  0  0  0
   17.0657  -24.6931   -9.1073 C   0  0  0  0  0  0  0  0  0  0  0  0
   17.1265  -23.4156   -9.1576 O   0  0  0  0  0  0  0  0  0  0  0  0
   20.6795  -26.2918  -11.5343 C   0  0  0  0  0  0  0  0  0  0  0  0
   21.3248  -27.2720  -12.2749 C   0  0  0  0  0  0  0  0  0  0  0  0
   16.1719  -25.2156   -8.1574 N   0  0  0  0  0  0  0  0  0  0  0  0
   15.2749  -24.4472   -7.3591 C   0  0  1  0  0  0  0  0  0  0  0  0
   13.9085  -24.2364   -7.8568 C   0  0  0  0  0  0  0  0  0  0  0  0
   13.8126  -23.4954   -9.1324 C   0  0  0  0  0  0  0  0  0  0  0  0
   13.6875  -24.1522  -10.3545 C   0  0  0  0  0  0  0  0  0  0  0  0
   13.6278  -23.2364  -11.3183 N   0  0  0  0  0  0  0  0  0  0  0  0
   13.7114  -22.0416  -10.7408 C   0  0  0  0  0  0  0  0  0  0  0  0
   13.8259  -22.1933   -9.3879 N   0  0  0  0  0  0  0  0  0  0  0  0
   15.3101  -24.9611   -5.9620 C   0  0  0  0  0  0  0  0  0  0  0  0
   15.6800  -26.1429   -5.7772 O   0  0  0  0  0  0  0  0  0  0  0  0
   15.3326  -22.4090   -2.6804 O   0  0  0  0  0  0  0  0  0  0  0  0
   14.6200  -23.5651   -2.4932 C   0  0  0  0  0  0  0  0  0  0  0  0
   14.9786  -24.6646   -3.4690 C   0  0  2  0  0  0  0  0  0  0  0  0
   14.9542  -24.1981   -4.8383 N   0  0  0  0  0  0  0  0  0  0  0  0
   14.1682  -25.8796   -3.2610 C   0  0  0  0  0  0  0  0  0  0  0  0
   13.2182  -26.2031   -3.9967 O   0  0  0  0  0  0  0  0  0  0  0  0
   14.4765  -26.7260   -2.1767 O   0  0  0  0  0  0  0  0  0  0  0  0
  2  1  1  0
  3  2  2  0
  4  3  1  0
  5 11  1  0
  5  4  2  0
  6  7  1  0
  6  5  1  0
  7  9  1  0
  7  8  1  6
  9 10  2  0
 11 12  2  0
 12  2  1  0
 13 14  1  0
 13  9  1  0
 14 21  1  0
 15 16  1  0
 14 15  1  6
 16 17  2  0
 17 18  1  0
 19 18  1  0
 20 16  1  0
 20 19  2  0
 21 26  1  0
 22 21  2  0
 24 23  1  0
 25 24  1  1
 26 25  1  0
 27 29  1  0
 27 25  1  0
 28 27  2  0
M  END
$$$$
