YHS.pdb
     RDKit          3D

 29 30  0  0  1  0  0  0  0  0999 V2000
   30.1901   -8.0034  -17.6941 O   0  0  0  0  0  0  0  0  0  0  0  0
   29.3366   -9.0449  -18.0145 C   0  0  0  0  0  0  0  0  0  0  0  0
   29.3384  -10.1905  -17.2389 C   0  0  0  0  0  0  0  0  0  0  0  0
   28.4911  -11.2230  -17.5588 C   0  0  0  0  0  0  0  0  0  0  0  0
   27.6263  -11.1863  -18.6220 C   0  0  0  0  0  0  0  0  0  0  0  0
   26.7037  -12.2691  -18.9934 C   0  0  0  0  0  0  0  0  0  0  0  0
   27.4047  -13.5776  -18.9340 C   0  0  2  0  0  0  0  0  0  0  0  0
   28.4274  -13.6277  -19.9511 N   0  0  0  0  0  0  0  0  0  0  0  0
   26.5288  -14.7453  -19.0276 C   0  0  0  0  0  0  0  0  0  0  0  0
   26.3627  -15.2419  -20.1955 O   0  0  0  0  0  0  0  0  0  0  0  0
   27.6381  -10.0252  -19.3920 C   0  0  0  0  0  0  0  0  0  0  0  0
   28.4903   -8.9764  -19.0764 C   0  0  0  0  0  0  0  0  0  0  0  0
   25.8383  -15.3983  -17.9927 N   0  0  0  0  0  0  0  0  0  0  0  0
   24.9730  -16.5192  -18.1579 C   0  0  1  0  0  0  0  0  0  0  0  0
   25.1483  -17.6700  -17.2612 C   0  0  0  0  0  0  0  0  0  0  0  0
   24.1480  -18.7470  -17.4196 C   0  0  0  0  0  0  0  0  0  0  0  0
   22.8791  -18.6588  -16.8517 C   0  0  0  0  0  0  0  0  0  0  0  0
   22.2060  -19.7659  -17.1554 N   0  0  0  0  0  0  0  0  0  0  0  0
   23.0080  -20.5337  -17.8871 C   0  0  0  0  0  0  0  0  0  0  0  0
   24.2118  -19.9101  -18.0553 N   0  0  0  0  0  0  0  0  0  0  0  0
   23.5649  -16.0383  -18.2154 C   0  0  0  0  0  0  0  0  0  0  0  0
   23.2158  -15.1383  -17.4181 O   0  0  0  0  0  0  0  0  0  0  0  0
   21.2722  -14.3289  -20.8303 O   0  0  0  0  0  0  0  0  0  0  0  0
   20.8643  -15.6123  -20.5729 C   0  0  0  0  0  0  0  0  0  0  0  0
   21.2271  -16.0985  -19.1867 C   0  0  2  0  0  0  0  0  0  0  0  0
   22.6049  -16.5336  -19.1123 N   0  0  0  0  0  0  0  0  0  0  0  0
   20.2771  -17.1095  -18.6851 C   0  0  0  0  0  0  0  0  0  0  0  0
   20.2505  -18.2852  -19.0916 O   0  0  0  0  0  0  0  0  0  0  0  0
   19.3468  -16.7366  -17.6937 O   0  0  0  0  0  0  0  0  0  0  0  0
  2  1  1  0
  3  2  2  0
  4  3  1  0
  5 11  1  0
  5  4  2  0
  6  7  1  0
  6  5  1  0
  7  9  1  0
  7  8  1  6
  9 10  2  0
 11 12  2  0
 12  2  1  0
 13 14  1  0
 13  9  1  0
 14 21  1  0
 15 16  1  0
 14 15  1  1
 16 17  2  0
 17 18  1  0
 19 18  1  0
 20 16  1  0
 20 19  2  0
 21 26  1  0
 22 21  2  0
 24 23  1  0
 25 24  1  6
 26 25  1  0
 27 29  1  0
 27 25  1  0
 28 27  2  0
M  END
$$$$
