YHS.pdb
     RDKit          3D

 29 30  0  0  1  0  0  0  0  0999 V2000
   24.3642  -12.0696  -22.0923 O   0  0  0  0  0  0  0  0  0  0  0  0
   23.7849  -13.1045  -21.3787 C   0  0  0  0  0  0  0  0  0  0  0  0
   24.2563  -13.4076  -20.1138 C   0  0  0  0  0  0  0  0  0  0  0  0
   23.6805  -14.4352  -19.4076 C   0  0  0  0  0  0  0  0  0  0  0  0
   22.6458  -15.1942  -19.8903 C   0  0  0  0  0  0  0  0  0  0  0  0
   22.0028  -16.2988  -19.1637 C   0  0  0  0  0  0  0  0  0  0  0  0
   22.9272  -17.4587  -19.0793 C   0  0  2  0  0  0  0  0  0  0  0  0
   23.1992  -17.9608  -20.4049 N   0  0  0  0  0  0  0  0  0  0  0  0
   22.4745  -18.5389  -18.2032 C   0  0  0  0  0  0  0  0  0  0  0  0
   21.3520  -19.0794  -18.4968 O   0  0  0  0  0  0  0  0  0  0  0  0
   22.1840  -14.8752  -21.1655 C   0  0  0  0  0  0  0  0  0  0  0  0
   22.7592  -13.8384  -21.8867 C   0  0  0  0  0  0  0  0  0  0  0  0
   23.1169  -19.0649  -17.0697 N   0  0  0  0  0  0  0  0  0  0  0  0
   22.5685  -20.0450  -16.1916 C   0  0  1  0  0  0  0  0  0  0  0  0
   23.4816  -21.0252  -15.5877 C   0  0  0  0  0  0  0  0  0  0  0  0
   24.8644  -20.9995  -16.1099 C   0  0  0  0  0  0  0  0  0  0  0  0
   25.2201  -20.2173  -17.2063 C   0  0  0  0  0  0  0  0  0  0  0  0
   26.5162  -20.3985  -17.4479 N   0  0  0  0  0  0  0  0  0  0  0  0
   26.9745  -21.2610  -16.5455 C   0  0  0  0  0  0  0  0  0  0  0  0
   25.9584  -21.6376  -15.7136 N   0  0  0  0  0  0  0  0  0  0  0  0
   21.7025  -19.3651  -15.1891 C   0  0  0  0  0  0  0  0  0  0  0  0
   22.0696  -18.2510  -14.7512 O   0  0  0  0  0  0  0  0  0  0  0  0
   18.0586  -17.9089  -15.2545 O   0  0  0  0  0  0  0  0  0  0  0  0
   19.1630  -17.8584  -14.4438 C   0  0  0  0  0  0  0  0  0  0  0  0
   19.5518  -19.2003  -13.8626 C   0  0  2  0  0  0  0  0  0  0  0  0
   20.4969  -19.8989  -14.7063 N   0  0  0  0  0  0  0  0  0  0  0  0
   18.3745  -20.0195  -13.5173 C   0  0  0  0  0  0  0  0  0  0  0  0
   18.1225  -21.1151  -14.0507 O   0  0  0  0  0  0  0  0  0  0  0  0
   17.4818  -19.5476  -12.5336 O   0  0  0  0  0  0  0  0  0  0  0  0
  2  1  1  0
  3  2  2  0
  4  3  1  0
  5 11  1  0
  5  4  2  0
  6  7  1  0
  6  5  1  0
  7  9  1  0
  7  8  1  6
  9 10  2  0
 11 12  2  0
 12  2  1  0
 13 14  1  0
 13  9  1  0
 14 21  1  0
 15 16  1  0
 14 15  1  1
 16 17  2  0
 17 18  1  0
 19 18  1  0
 20 16  1  0
 20 19  2  0
 21 26  1  0
 22 21  2  0
 24 23  1  0
 25 24  1  6
 26 25  1  0
 27 29  1  0
 27 25  1  0
 28 27  2  0
M  END
$$$$
