YHS.pdb
     RDKit          3D

 29 30  0  0  1  0  0  0  0  0999 V2000
   15.1987  -31.1086  -12.5805 O   0  0  0  0  0  0  0  0  0  0  0  0
   16.0648  -31.7055  -11.6808 C   0  0  0  0  0  0  0  0  0  0  0  0
   16.0785  -33.0836  -11.5599 C   0  0  0  0  0  0  0  0  0  0  0  0
   16.9383  -33.6738  -10.6661 C   0  0  0  0  0  0  0  0  0  0  0  0
   17.8011  -32.9654   -9.8704 C   0  0  0  0  0  0  0  0  0  0  0  0
   18.7367  -33.5613   -8.9054 C   0  0  0  0  0  0  0  0  0  0  0  0
   20.1213  -33.5111   -9.4415 C   0  0  2  0  0  0  0  0  0  0  0  0
   20.2277  -34.3731  -10.5942 N   0  0  0  0  0  0  0  0  0  0  0  0
   21.1661  -33.8244   -8.4670 C   0  0  0  0  0  0  0  0  0  0  0  0
   21.6523  -35.0075   -8.5120 O   0  0  0  0  0  0  0  0  0  0  0  0
   17.7737  -31.5789  -10.0053 C   0  0  0  0  0  0  0  0  0  0  0  0
   16.9087  -30.9734  -10.9058 C   0  0  0  0  0  0  0  0  0  0  0  0
   21.7098  -32.9881   -7.4775 N   0  0  0  0  0  0  0  0  0  0  0  0
   22.7872  -33.3308   -6.6091 C   0  0  1  0  0  0  0  0  0  0  0  0
   23.9966  -32.4967   -6.6400 C   0  0  0  0  0  0  0  0  0  0  0  0
   24.8385  -32.6565   -7.8446 C   0  0  0  0  0  0  0  0  0  0  0  0
   24.6135  -33.6762   -8.7667 C   0  0  0  0  0  0  0  0  0  0  0  0
   25.5208  -33.5735   -9.7349 N   0  0  0  0  0  0  0  0  0  0  0  0
   26.2965  -32.5324   -9.4476 C   0  0  0  0  0  0  0  0  0  0  0  0
   25.8806  -31.9593   -8.2792 N   0  0  0  0  0  0  0  0  0  0  0  0
   22.2543  -33.5283   -5.2327 C   0  0  0  0  0  0  0  0  0  0  0  0
   21.4352  -32.6905   -4.7914 O   0  0  0  0  0  0  0  0  0  0  0  0
   21.8987  -36.5751   -1.3863 O   0  0  0  0  0  0  0  0  0  0  0  0
   22.5302  -36.1991   -2.5436 C   0  0  0  0  0  0  0  0  0  0  0  0
   22.0386  -34.8821   -3.1036 C   0  0  2  0  0  0  0  0  0  0  0  0
   22.6150  -34.5999   -4.4002 N   0  0  0  0  0  0  0  0  0  0  0  0
   22.2067  -33.7727   -2.1459 C   0  0  0  0  0  0  0  0  0  0  0  0
   23.2547  -33.1099   -2.0431 O   0  0  0  0  0  0  0  0  0  0  0  0
   21.1315  -33.4362   -1.2986 O   0  0  0  0  0  0  0  0  0  0  0  0
  2  1  1  0
  3  2  2  0
  4  3  1  0
  5 11  1  0
  5  4  2  0
  6  7  1  0
  6  5  1  0
  7  9  1  0
  7  8  1  6
  9 10  2  0
 11 12  2  0
 12  2  1  0
 13 14  1  0
 13  9  1  0
 14 21  1  0
 15 16  1  0
 14 15  1  1
 16 17  2  0
 17 18  1  0
 19 18  1  0
 20 16  1  0
 20 19  2  0
 21 26  1  0
 22 21  2  0
 24 23  1  0
 25 24  1  1
 26 25  1  0
 27 29  1  0
 27 25  1  0
 28 27  2  0
M  END
$$$$
