YHS.pdb
     RDKit          3D

 29 30  0  0  1  0  0  0  0  0999 V2000
   15.6518  -19.8440    5.5310 O   0  0  0  0  0  0  0  0  0  0  0  0
   15.2384  -20.8956    4.7317 C   0  0  0  0  0  0  0  0  0  0  0  0
   16.1646  -21.5624    3.9498 C   0  0  0  0  0  0  0  0  0  0  0  0
   15.7522  -22.6054    3.1570 C   0  0  0  0  0  0  0  0  0  0  0  0
   14.4515  -23.0341    3.0922 C   0  0  0  0  0  0  0  0  0  0  0  0
   13.9734  -24.1469    2.2588 C   0  0  0  0  0  0  0  0  0  0  0  0
   14.2542  -23.8675    0.8270 C   0  0  2  0  0  0  0  0  0  0  0  0
   13.2330  -22.9994    0.2918 N   0  0  0  0  0  0  0  0  0  0  0  0
   14.4076  -25.0575   -0.0095 C   0  0  0  0  0  0  0  0  0  0  0  0
   13.3900  -25.4007   -0.7059 O   0  0  0  0  0  0  0  0  0  0  0  0
   13.5325  -22.3511    3.8860 C   0  0  0  0  0  0  0  0  0  0  0  0
   13.9397  -21.2963    4.6906 C   0  0  0  0  0  0  0  0  0  0  0  0
   15.5371  -25.8817   -0.1486 N   0  0  0  0  0  0  0  0  0  0  0  0
   15.5993  -27.0693   -0.9348 C   0  0  1  0  0  0  0  0  0  0  0  0
   16.2518  -26.9986   -2.2495 C   0  0  0  0  0  0  0  0  0  0  0  0
   15.6900  -25.9926   -3.1757 C   0  0  0  0  0  0  0  0  0  0  0  0
   14.6357  -26.2945   -4.0348 C   0  0  0  0  0  0  0  0  0  0  0  0
   14.3485  -25.2060   -4.7445 N   0  0  0  0  0  0  0  0  0  0  0  0
   15.1828  -24.2451   -4.3587 C   0  0  0  0  0  0  0  0  0  0  0  0
   16.0162  -24.7239   -3.3878 N   0  0  0  0  0  0  0  0  0  0  0  0
   16.1163  -28.1814   -0.0902 C   0  0  0  0  0  0  0  0  0  0  0  0
   17.1880  -28.0010    0.5315 O   0  0  0  0  0  0  0  0  0  0  0  0
   14.4792  -32.3340    0.2935 O   0  0  0  0  0  0  0  0  0  0  0  0
   14.7464  -31.4169    1.2769 C   0  0  0  0  0  0  0  0  0  0  0  0
   15.8885  -30.4825    0.9420 C   0  0  2  0  0  0  0  0  0  0  0  0
   15.4720  -29.4209    0.0517 N   0  0  0  0  0  0  0  0  0  0  0  0
   17.0769  -31.2083    0.4548 C   0  0  0  0  0  0  0  0  0  0  0  0
   17.6415  -32.1092    1.1012 O   0  0  0  0  0  0  0  0  0  0  0  0
   17.6092  -30.8733   -0.8068 O   0  0  0  0  0  0  0  0  0  0  0  0
  2  1  1  0
  3  2  2  0
  4  3  1  0
  5 11  1  0
  5  4  2  0
  6  7  1  0
  6  5  1  0
  7  9  1  0
  7  8  1  6
  9 10  2  0
 11 12  2  0
 12  2  1  0
 13 14  1  0
 13  9  1  0
 14 21  1  0
 15 16  1  0
 14 15  1  6
 16 17  2  0
 17 18  1  0
 19 18  1  0
 20 16  1  0
 20 19  2  0
 21 26  1  0
 22 21  2  0
 24 23  1  0
 25 24  1  6
 26 25  1  0
 27 29  1  0
 27 25  1  0
 28 27  2  0
M  END
$$$$
