YHS.pdb
     RDKit          3D

 29 30  0  0  1  0  0  0  0  0999 V2000
   22.4112  -10.6172    6.2600 O   0  0  0  0  0  0  0  0  0  0  0  0
   21.2631  -11.3718    6.4283 C   0  0  0  0  0  0  0  0  0  0  0  0
   20.1928  -11.1843    5.5720 C   0  0  0  0  0  0  0  0  0  0  0  0
   19.0544  -11.9339    5.7411 C   0  0  0  0  0  0  0  0  0  0  0  0
   18.9117  -12.8756    6.7272 C   0  0  0  0  0  0  0  0  0  0  0  0
   17.7113  -13.6980    6.9374 C   0  0  0  0  0  0  0  0  0  0  0  0
   17.3693  -14.4274    5.6892 C   0  0  2  0  0  0  0  0  0  0  0  0
   16.2288  -13.8056    5.0599 N   0  0  0  0  0  0  0  0  0  0  0  0
   17.1425  -15.8620    5.8619 C   0  0  0  0  0  0  0  0  0  0  0  0
   15.9484  -16.2202    6.1520 O   0  0  0  0  0  0  0  0  0  0  0  0
   19.9993  -13.0509    7.5803 C   0  0  0  0  0  0  0  0  0  0  0  0
   21.1539  -12.2986    7.4172 C   0  0  0  0  0  0  0  0  0  0  0  0
   18.0739  -16.9082    5.7511 N   0  0  0  0  0  0  0  0  0  0  0  0
   17.7901  -18.2900    5.9562 C   0  0  1  0  0  0  0  0  0  0  0  0
   17.8653  -19.1938    4.8000 C   0  0  0  0  0  0  0  0  0  0  0  0
   16.7510  -19.0737    3.8361 C   0  0  0  0  0  0  0  0  0  0  0  0
   15.6418  -18.2711    4.0934 C   0  0  0  0  0  0  0  0  0  0  0  0
   14.8091  -18.3628    3.0593 N   0  0  0  0  0  0  0  0  0  0  0  0
   15.3589  -19.1896    2.1749 C   0  0  0  0  0  0  0  0  0  0  0  0
   16.5611  -19.6337    2.6481 N   0  0  0  0  0  0  0  0  0  0  0  0
   18.5753  -18.7764    7.1242 C   0  0  0  0  0  0  0  0  0  0  0  0
   19.7192  -18.3007    7.3054 O   0  0  0  0  0  0  0  0  0  0  0  0
   19.0861  -19.9181   11.5743 O   0  0  0  0  0  0  0  0  0  0  0  0
   18.3492  -19.5739   10.4706 C   0  0  0  0  0  0  0  0  0  0  0  0
   18.8361  -20.2171    9.1904 C   0  0  2  0  0  0  0  0  0  0  0  0
   18.1083  -19.7366    8.0360 N   0  0  0  0  0  0  0  0  0  0  0  0
   18.8620  -21.6892    9.2819 C   0  0  0  0  0  0  0  0  0  0  0  0
   17.8677  -22.4060    9.0676 O   0  0  0  0  0  0  0  0  0  0  0  0
   20.0696  -22.3285    9.6287 O   0  0  0  0  0  0  0  0  0  0  0  0
  2  1  1  0
  3  2  2  0
  4  3  1  0
  5 11  1  0
  5  4  2  0
  6  7  1  0
  6  5  1  0
  7  9  1  0
  7  8  1  1
  9 10  2  0
 11 12  2  0
 12  2  1  0
 13 14  1  0
 13  9  1  0
 14 21  1  0
 15 16  1  0
 14 15  1  6
 16 17  2  0
 17 18  1  0
 19 18  1  0
 20 16  1  0
 20 19  2  0
 21 26  1  0
 22 21  2  0
 24 23  1  0
 25 24  1  1
 26 25  1  0
 27 29  1  0
 27 25  1  0
 28 27  2  0
M  END
$$$$
