YHS.pdb
     RDKit          3D

 29 30  0  0  1  0  0  0  0  0999 V2000
   10.7090  -12.9388  -14.1429 O   0  0  0  0  0  0  0  0  0  0  0  0
   12.0687  -12.6962  -14.2330 C   0  0  0  0  0  0  0  0  0  0  0  0
   12.5311  -11.3925  -14.2145 C   0  0  0  0  0  0  0  0  0  0  0  0
   13.8806  -11.1540  -14.3046 C   0  0  0  0  0  0  0  0  0  0  0  0
   14.8162  -12.1502  -14.4141 C   0  0  0  0  0  0  0  0  0  0  0  0
   16.2673  -11.9343  -14.5098 C   0  0  0  0  0  0  0  0  0  0  0  0
   16.6638  -11.7636  -15.9313 C   0  0  2  0  0  0  0  0  0  0  0  0
   16.5627  -13.0284  -16.6192 N   0  0  0  0  0  0  0  0  0  0  0  0
   17.9876  -11.1744  -16.1304 C   0  0  0  0  0  0  0  0  0  0  0  0
   18.8414  -11.8892  -16.7616 O   0  0  0  0  0  0  0  0  0  0  0  0
   14.3327  -13.4568  -14.4313 C   0  0  0  0  0  0  0  0  0  0  0  0
   12.9709  -13.7078  -14.3405 C   0  0  0  0  0  0  0  0  0  0  0  0
   18.4491   -9.9144  -15.7138 N   0  0  0  0  0  0  0  0  0  0  0  0
   19.7254   -9.3599  -16.0236 C   0  0  1  0  0  0  0  0  0  0  0  0
   20.2379   -9.5183  -17.3916 C   0  0  0  0  0  0  0  0  0  0  0  0
   21.6075   -9.0073  -17.6117 C   0  0  0  0  0  0  0  0  0  0  0  0
   22.7281   -9.8188  -17.4492 C   0  0  0  0  0  0  0  0  0  0  0  0
   23.8127   -9.0926  -17.7088 N   0  0  0  0  0  0  0  0  0  0  0  0
   23.4071   -7.8663  -18.0243 C   0  0  0  0  0  0  0  0  0  0  0  0
   22.0435   -7.8053  -17.9668 N   0  0  0  0  0  0  0  0  0  0  0  0
   19.7676   -7.9493  -15.5485 C   0  0  0  0  0  0  0  0  0  0  0  0
   18.8272   -7.1891  -15.8728 O   0  0  0  0  0  0  0  0  0  0  0  0
   22.2031   -4.5449  -12.9456 O   0  0  0  0  0  0  0  0  0  0  0  0
   22.1280   -5.8077  -13.4741 C   0  0  0  0  0  0  0  0  0  0  0  0
   20.8526   -6.0685  -14.2455 C   0  0  2  0  0  0  0  0  0  0  0  0
   20.7996   -7.4210  -14.7565 N   0  0  0  0  0  0  0  0  0  0  0  0
   20.6138   -5.0509  -15.2865 C   0  0  0  0  0  0  0  0  0  0  0  0
   21.1576   -5.0754  -16.4054 O   0  0  0  0  0  0  0  0  0  0  0  0
   19.7253   -3.9915  -15.0115 O   0  0  0  0  0  0  0  0  0  0  0  0
  2  1  1  0
  3  2  2  0
  4  3  1  0
  5 11  1  0
  5  4  2  0
  6  7  1  0
  6  5  1  0
  7  9  1  0
  7  8  1  1
  9 10  2  0
 11 12  2  0
 12  2  1  0
 13 14  1  0
 13  9  1  0
 14 21  1  0
 15 16  1  0
 14 15  1  6
 16 17  2  0
 17 18  1  0
 19 18  1  0
 20 16  1  0
 20 19  2  0
 21 26  1  0
 22 21  2  0
 24 23  1  0
 25 24  1  6
 26 25  1  0
 27 29  1  0
 27 25  1  0
 28 27  2  0
M  END
$$$$
