YHS.pdb
     RDKit          3D

 29 30  0  0  1  0  0  0  0  0999 V2000
   26.2990  -38.2968  -15.4385 O   0  0  0  0  0  0  0  0  0  0  0  0
   26.6230  -37.3159  -14.5173 C   0  0  0  0  0  0  0  0  0  0  0  0
   27.3182  -36.1941  -14.9323 C   0  0  0  0  0  0  0  0  0  0  0  0
   27.6391  -35.2222  -14.0165 C   0  0  0  0  0  0  0  0  0  0  0  0
   27.3055  -35.2982  -12.6889 C   0  0  0  0  0  0  0  0  0  0  0  0
   27.6288  -34.2781  -11.6808 C   0  0  0  0  0  0  0  0  0  0  0  0
   26.4111  -33.5003  -11.3353 C   0  0  2  0  0  0  0  0  0  0  0  0
   26.0485  -32.6480  -12.4422 N   0  0  0  0  0  0  0  0  0  0  0  0
   26.5117  -32.7237  -10.0999 C   0  0  0  0  0  0  0  0  0  0  0  0
   27.0720  -31.5765  -10.1909 O   0  0  0  0  0  0  0  0  0  0  0  0
   26.6059  -36.4347  -12.2887 C   0  0  0  0  0  0  0  0  0  0  0  0
   26.2768  -37.4219  -13.2067 C   0  0  0  0  0  0  0  0  0  0  0  0
   26.0703  -33.0769   -8.8136 N   0  0  0  0  0  0  0  0  0  0  0  0
   26.2335  -32.2850   -7.6394 C   0  0  1  0  0  0  0  0  0  0  0  0
   25.2121  -31.2730   -7.3366 C   0  0  0  0  0  0  0  0  0  0  0  0
   23.8164  -31.7004   -7.5709 C   0  0  0  0  0  0  0  0  0  0  0  0
   23.5122  -32.9475   -8.1120 C   0  0  0  0  0  0  0  0  0  0  0  0
   22.1890  -33.0503   -8.2101 N   0  0  0  0  0  0  0  0  0  0  0  0
   21.6645  -31.9175   -7.7521 C   0  0  0  0  0  0  0  0  0  0  0  0
   22.6652  -31.0768   -7.3543 N   0  0  0  0  0  0  0  0  0  0  0  0
   26.5192  -33.1832   -6.4867 C   0  0  0  0  0  0  0  0  0  0  0  0
   26.0056  -34.3250   -6.4869 O   0  0  0  0  0  0  0  0  0  0  0  0
   29.2797  -34.1772   -2.5881 O   0  0  0  0  0  0  0  0  0  0  0  0
   28.9655  -33.3752   -3.6547 C   0  0  0  0  0  0  0  0  0  0  0  0
   27.6030  -33.6599   -4.2482 C   0  0  2  0  0  0  0  0  0  0  0  0
   27.3323  -32.8260   -5.3991 N   0  0  0  0  0  0  0  0  0  0  0  0
   26.5322  -33.6063   -3.2349 C   0  0  0  0  0  0  0  0  0  0  0  0
   25.7071  -32.6780   -3.1592 O   0  0  0  0  0  0  0  0  0  0  0  0
   26.4278  -34.6553   -2.2989 O   0  0  0  0  0  0  0  0  0  0  0  0
  2  1  1  0
  3  2  2  0
  4  3  1  0
  5 11  1  0
  5  4  2  0
  6  7  1  0
  6  5  1  0
  7  9  1  0
  7  8  1  6
  9 10  2  0
 11 12  2  0
 12  2  1  0
 13 14  1  0
 13  9  1  0
 14 21  1  0
 15 16  1  0
 14 15  1  1
 16 17  2  0
 17 18  1  0
 19 18  1  0
 20 16  1  0
 20 19  2  0
 21 26  1  0
 22 21  2  0
 24 23  1  0
 25 24  1  1
 26 25  1  0
 27 29  1  0
 27 25  1  0
 28 27  2  0
M  END
$$$$
