YHS.pdb
     RDKit          3D

 29 30  0  0  1  0  0  0  0  0999 V2000
   13.0930  -14.7833  -18.9909 O   0  0  0  0  0  0  0  0  0  0  0  0
   14.1678  -14.1615  -18.3793 C   0  0  0  0  0  0  0  0  0  0  0  0
   14.7608  -13.0702  -18.9886 C   0  0  0  0  0  0  0  0  0  0  0  0
   15.8274  -12.4550  -18.3802 C   0  0  0  0  0  0  0  0  0  0  0  0
   16.3508  -12.8656  -17.1814 C   0  0  0  0  0  0  0  0  0  0  0  0
   17.4883  -12.2315  -16.4990 C   0  0  0  0  0  0  0  0  0  0  0  0
   18.7535  -12.5639  -17.2030 C   0  0  2  0  0  0  0  0  0  0  0  0
   19.1097  -13.9376  -16.9399 N   0  0  0  0  0  0  0  0  0  0  0  0
   19.8744  -11.6748  -16.8987 C   0  0  0  0  0  0  0  0  0  0  0  0
   20.6094  -12.0030  -15.9036 O   0  0  0  0  0  0  0  0  0  0  0  0
   15.7414  -13.9660  -16.5823 C   0  0  0  0  0  0  0  0  0  0  0  0
   14.6629  -14.5940  -17.1891 C   0  0  0  0  0  0  0  0  0  0  0  0
   20.2522  -10.4952  -17.5621 N   0  0  0  0  0  0  0  0  0  0  0  0
   21.3838   -9.6919  -17.2357 C   0  0  1  0  0  0  0  0  0  0  0  0
   22.3914   -9.4548  -18.2786 C   0  0  0  0  0  0  0  0  0  0  0  0
   23.0518  -10.6699  -18.8010 C   0  0  0  0  0  0  0  0  0  0  0  0
   22.8281  -11.9251  -18.2398 C   0  0  0  0  0  0  0  0  0  0  0  0
   23.5532  -12.8185  -18.9084 N   0  0  0  0  0  0  0  0  0  0  0  0
   24.2155  -12.1657  -19.8589 C   0  0  0  0  0  0  0  0  0  0  0  0
   23.9105  -10.8353  -19.7992 N   0  0  0  0  0  0  0  0  0  0  0  0
   20.9142   -8.4364  -16.5873 C   0  0  0  0  0  0  0  0  0  0  0  0
   19.8779   -7.8937  -17.0336 O   0  0  0  0  0  0  0  0  0  0  0  0
   21.1115   -7.5023  -12.6580 O   0  0  0  0  0  0  0  0  0  0  0  0
   21.6121   -6.4961  -13.4433 C   0  0  0  0  0  0  0  0  0  0  0  0
   21.1702   -6.5762  -14.8882 C   0  0  2  0  0  0  0  0  0  0  0  0
   21.5643   -7.8251  -15.5032 N   0  0  0  0  0  0  0  0  0  0  0  0
   21.5908   -5.3949  -15.6652 C   0  0  0  0  0  0  0  0  0  0  0  0
   22.5402   -5.4070  -16.4695 O   0  0  0  0  0  0  0  0  0  0  0  0
   20.8885   -4.1842  -15.4969 O   0  0  0  0  0  0  0  0  0  0  0  0
  2  1  1  0
  3  2  2  0
  4  3  1  0
  5 11  1  0
  5  4  2  0
  6  7  1  0
  6  5  1  0
  7  9  1  0
  7  8  1  1
  9 10  2  0
 11 12  2  0
 12  2  1  0
 13 14  1  0
 13  9  1  0
 14 21  1  0
 15 16  1  0
 14 15  1  6
 16 17  2  0
 17 18  1  0
 19 18  1  0
 20 16  1  0
 20 19  2  0
 21 26  1  0
 22 21  2  0
 24 23  1  0
 25 24  1  1
 26 25  1  0
 27 29  1  0
 27 25  1  0
 28 27  2  0
M  END
$$$$
