YHS.pdb
     RDKit          3D

 29 30  0  0  1  0  0  0  0  0999 V2000
   19.0674  -32.4001   -9.4005 O   0  0  0  0  0  0  0  0  0  0  0  0
   20.2352  -32.9226   -8.8723 C   0  0  0  0  0  0  0  0  0  0  0  0
   21.1106  -33.6057   -9.6976 C   0  0  0  0  0  0  0  0  0  0  0  0
   22.2686  -34.1238   -9.1714 C   0  0  0  0  0  0  0  0  0  0  0  0
   22.6164  -34.0027   -7.8508 C   0  0  0  0  0  0  0  0  0  0  0  0
   23.8469  -34.5407   -7.2524 C   0  0  0  0  0  0  0  0  0  0  0  0
   25.0087  -33.6964   -7.6324 C   0  0  2  0  0  0  0  0  0  0  0  0
   25.3099  -33.8852   -9.0312 N   0  0  0  0  0  0  0  0  0  0  0  0
   26.2056  -33.9005   -6.8167 C   0  0  0  0  0  0  0  0  0  0  0  0
   27.1630  -34.5525   -7.3612 O   0  0  0  0  0  0  0  0  0  0  0  0
   21.7232  -33.3121   -7.0344 C   0  0  0  0  0  0  0  0  0  0  0  0
   20.5508  -32.7847   -7.5570 C   0  0  0  0  0  0  0  0  0  0  0  0
   26.4430  -33.4710   -5.5001 N   0  0  0  0  0  0  0  0  0  0  0  0
   27.6536  -33.6691   -4.7738 C   0  0  1  0  0  0  0  0  0  0  0  0
   27.9643  -32.7433   -3.6758 C   0  0  0  0  0  0  0  0  0  0  0  0
   26.9886  -32.7369   -2.5653 C   0  0  0  0  0  0  0  0  0  0  0  0
   25.7446  -32.1216   -2.6855 C   0  0  0  0  0  0  0  0  0  0  0  0
   25.0898  -32.2720   -1.5366 N   0  0  0  0  0  0  0  0  0  0  0  0
   25.8793  -32.9544   -0.7125 C   0  0  0  0  0  0  0  0  0  0  0  0
   27.0564  -33.2461   -1.3417 N   0  0  0  0  0  0  0  0  0  0  0  0
   27.7462  -35.0993   -4.3699 C   0  0  0  0  0  0  0  0  0  0  0  0
   26.6942  -35.7781   -4.3571 O   0  0  0  0  0  0  0  0  0  0  0  0
   28.9051  -38.2182   -1.4820 O   0  0  0  0  0  0  0  0  0  0  0  0
   28.2411  -37.4594   -2.4109 C   0  0  0  0  0  0  0  0  0  0  0  0
   29.0739  -37.1244   -3.6290 C   0  0  2  0  0  0  0  0  0  0  0  0
   28.9445  -35.7329   -4.0035 N   0  0  0  0  0  0  0  0  0  0  0  0
   28.8166  -38.0479   -4.7503 C   0  0  0  0  0  0  0  0  0  0  0  0
   28.8437  -39.2867   -4.6370 O   0  0  0  0  0  0  0  0  0  0  0  0
   28.5232  -37.5112   -6.0204 O   0  0  0  0  0  0  0  0  0  0  0  0
  2  1  1  0
  3  2  2  0
  4  3  1  0
  5 11  1  0
  5  4  2  0
  6  7  1  0
  6  5  1  0
  7  9  1  0
  7  8  1  6
  9 10  2  0
 11 12  2  0
 12  2  1  0
 13 14  1  0
 13  9  1  0
 14 21  1  0
 15 16  1  0
 14 15  1  1
 16 17  2  0
 17 18  1  0
 19 18  1  0
 20 16  1  0
 20 19  2  0
 21 26  1  0
 22 21  2  0
 24 23  1  0
 25 24  1  1
 26 25  1  0
 27 29  1  0
 27 25  1  0
 28 27  2  0
M  END
$$$$
