KDH.pdb
     RDKit          3D

 28 28  0  0  1  0  0  0  0  0999 V2000
    8.5079  -12.1497   18.0665 N   0  0  0  0  0  0  0  0  0  0  0  0
    7.9564  -13.4548   18.2749 C   0  0  1  0  0  0  0  0  0  0  0  0
    8.1687  -14.4123   17.1740 C   0  0  0  0  0  0  0  0  0  0  0  0
    7.6105  -13.9890   15.8627 C   0  0  0  0  0  0  0  0  0  0  0  0
    7.8801  -14.9205   14.7324 C   0  0  0  0  0  0  0  0  0  0  0  0
    7.4179  -14.3382   13.4205 C   0  0  0  0  0  0  0  0  0  0  0  0
    7.6340  -15.3208   12.3487 N   0  0  0  0  0  0  0  0  0  0  0  0
    8.3829  -13.9534   19.6072 C   0  0  0  0  0  0  0  0  0  0  0  0
    9.4875  -13.5308   20.0463 O   0  0  0  0  0  0  0  0  0  0  0  0
    7.5600  -14.8498   20.3040 N   0  0  0  0  0  0  0  0  0  0  0  0
    8.0103  -15.3593   21.6022 C   0  0  1  0  0  0  0  0  0  0  0  0
    6.8329  -15.9121   22.3323 C   0  0  0  0  0  0  0  0  0  0  0  0
    7.1868  -16.4174   23.6469 C   0  0  0  0  0  0  0  0  0  0  0  0
    7.8382  -17.4402   23.9111 O   0  0  0  0  0  0  0  0  0  0  0  0
    9.0874  -16.3818   21.3540 C   0  0  0  0  0  0  0  0  0  0  0  0
    9.0678  -17.2100   20.4258 O   0  0  0  0  0  0  0  0  0  0  0  0
    6.7324  -15.6481   24.7476 O   0  0  0  0  0  0  0  0  0  0  0  0
   10.2326  -16.4460   22.2169 N   0  0  0  0  0  0  0  0  0  0  0  0
   11.6081  -16.3318   21.7022 C   0  0  1  0  0  0  0  0  0  0  0  0
   11.7306  -15.1721   20.7746 C   0  0  0  0  0  0  0  0  0  0  0  0
   13.0734  -15.1407   20.1651 C   0  0  0  0  0  0  0  0  0  0  0  0
   14.1174  -16.0283   20.4010 C   0  0  0  0  0  0  0  0  0  0  0  0
   15.1925  -15.6739   19.6869 N   0  0  0  0  0  0  0  0  0  0  0  0
   14.8672  -14.5809   18.9974 C   0  0  0  0  0  0  0  0  0  0  0  0
   13.5774  -14.2426   19.2781 N   0  0  0  0  0  0  0  0  0  0  0  0
   12.5879  -16.4071   22.7854 C   0  0  0  0  0  0  0  0  0  0  0  0
   12.4034  -15.8843   24.0597 O   0  0  0  0  0  0  0  0  0  0  0  0
   13.6831  -16.9777   22.5823 O   0  0  0  0  0  0  0  0  0  0  0  0
  2  1  1  6
  3  2  1  0
  3  4  1  0
  4  5  1  0
  5  6  1  0
  7  6  1  0
  8  9  2  0
  8  2  1  0
 10  8  1  0
 11 10  1  0
 11 12  1  6
 12 13  1  0
 13 17  1  0
 14 13  2  0
 15 11  1  0
 16 15  2  0
 18 15  1  0
 19 18  1  0
 19 20  1  1
 20 21  1  0
 21 25  1  0
 21 22  2  0
 22 23  1  0
 24 23  1  0
 25 24  2  0
 26 19  1  0
 27 26  1  0
 28 26  2  0
M  END
$$$$
