KDH.pdb
     RDKit          3D

 28 28  0  0  1  0  0  0  0  0999 V2000
    6.9215  -16.9869   20.1224 N   0  0  0  0  0  0  0  0  0  0  0  0
    8.0728  -16.1692   20.3604 C   0  0  1  0  0  0  0  0  0  0  0  0
    7.8131  -14.7194   20.4300 C   0  0  0  0  0  0  0  0  0  0  0  0
    7.2278  -14.1306   19.1966 C   0  0  0  0  0  0  0  0  0  0  0  0
    8.1960  -13.8950   18.0898 C   0  0  0  0  0  0  0  0  0  0  0  0
    7.5312  -13.2245   16.9141 C   0  0  0  0  0  0  0  0  0  0  0  0
    8.4838  -13.1439   15.7972 N   0  0  0  0  0  0  0  0  0  0  0  0
    8.8194  -16.7112   21.5242 C   0  0  0  0  0  0  0  0  0  0  0  0
    8.1555  -17.3737   22.3679 O   0  0  0  0  0  0  0  0  0  0  0  0
   10.1965  -16.4706   21.6330 N   0  0  0  0  0  0  0  0  0  0  0  0
   10.9083  -16.9618   22.8160 C   0  0  1  0  0  0  0  0  0  0  0  0
   12.3419  -17.1673   22.4592 C   0  0  0  0  0  0  0  0  0  0  0  0
   13.1234  -17.6616   23.5789 C   0  0  0  0  0  0  0  0  0  0  0  0
   13.5200  -17.0188   24.5637 O   0  0  0  0  0  0  0  0  0  0  0  0
   10.7110  -15.9645   23.9268 C   0  0  0  0  0  0  0  0  0  0  0  0
   10.5687  -14.7408   23.7535 O   0  0  0  0  0  0  0  0  0  0  0  0
   13.4675  -19.0362   23.5334 O   0  0  0  0  0  0  0  0  0  0  0  0
   10.6774  -16.4045   25.2926 N   0  0  0  0  0  0  0  0  0  0  0  0
    9.7498  -15.8247   26.2793 C   0  0  1  0  0  0  0  0  0  0  0  0
    8.3685  -15.7494   25.7256 C   0  0  0  0  0  0  0  0  0  0  0  0
    7.6989  -14.5162   26.1799 C   0  0  0  0  0  0  0  0  0  0  0  0
    8.2432  -13.5178   26.9800 C   0  0  0  0  0  0  0  0  0  0  0  0
    7.3339  -12.5616   27.2046 N   0  0  0  0  0  0  0  0  0  0  0  0
    6.2183  -12.9191   26.5694 C   0  0  0  0  0  0  0  0  0  0  0  0
    6.4245  -14.1095   25.9392 N   0  0  0  0  0  0  0  0  0  0  0  0
    9.8950  -16.4669   27.5853 C   0  0  0  0  0  0  0  0  0  0  0  0
   10.8589  -17.4175   27.8990 O   0  0  0  0  0  0  0  0  0  0  0  0
    9.1092  -16.1598   28.5098 O   0  0  0  0  0  0  0  0  0  0  0  0
  2  1  1  1
  3  2  1  0
  3  4  1  0
  4  5  1  0
  5  6  1  0
  7  6  1  0
  8  9  2  0
  8  2  1  0
 10  8  1  0
 11 10  1  0
 11 12  1  6
 12 13  1  0
 13 17  1  0
 14 13  2  0
 15 11  1  0
 16 15  2  0
 18 15  1  0
 19 18  1  0
 19 20  1  6
 20 21  1  0
 21 25  1  0
 21 22  2  0
 22 23  1  0
 24 23  1  0
 25 24  2  0
 26 19  1  0
 27 26  1  0
 28 26  2  0
M  END
$$$$
