KDH.pdb
     RDKit          3D

 28 28  0  0  1  0  0  0  0  0999 V2000
    8.1740  -14.6049   23.5685 N   0  0  0  0  0  0  0  0  0  0  0  0
    7.7421  -15.7895   22.8895 C   0  0  1  0  0  0  0  0  0  0  0  0
    7.1376  -15.5709   21.5625 C   0  0  0  0  0  0  0  0  0  0  0  0
    7.4112  -14.2374   20.9645 C   0  0  0  0  0  0  0  0  0  0  0  0
    8.0860  -14.2682   19.6372 C   0  0  0  0  0  0  0  0  0  0  0  0
    8.3847  -12.8756   19.1422 C   0  0  0  0  0  0  0  0  0  0  0  0
    9.1190  -12.9578   17.8713 N   0  0  0  0  0  0  0  0  0  0  0  0
    8.8456  -16.7834   22.9003 C   0  0  0  0  0  0  0  0  0  0  0  0
    9.0667  -17.4001   21.8222 O   0  0  0  0  0  0  0  0  0  0  0  0
    9.5776  -16.9885   24.0785 N   0  0  0  0  0  0  0  0  0  0  0  0
   11.0278  -17.1774   23.9856 C   0  0  1  0  0  0  0  0  0  0  0  0
   11.5438  -16.3592   22.8501 C   0  0  0  0  0  0  0  0  0  0  0  0
   12.9557  -16.5899   22.6012 C   0  0  0  0  0  0  0  0  0  0  0  0
   13.4714  -17.5635   22.0298 O   0  0  0  0  0  0  0  0  0  0  0  0
   11.6335  -16.7999   25.3114 C   0  0  0  0  0  0  0  0  0  0  0  0
   12.7822  -17.1132   25.6723 O   0  0  0  0  0  0  0  0  0  0  0  0
   13.8380  -15.5829   23.0676 O   0  0  0  0  0  0  0  0  0  0  0  0
   10.8766  -16.0284   26.2559 N   0  0  0  0  0  0  0  0  0  0  0  0
   10.6667  -16.4763   27.6434 C   0  0  1  0  0  0  0  0  0  0  0  0
    9.2922  -16.1350   28.1068 C   0  0  0  0  0  0  0  0  0  0  0  0
    8.9501  -14.7516   27.7265 C   0  0  0  0  0  0  0  0  0  0  0  0
    9.8385  -13.7257   27.4239 C   0  0  0  0  0  0  0  0  0  0  0  0
    9.1662  -12.6024   27.1454 N   0  0  0  0  0  0  0  0  0  0  0  0
    7.8678  -12.8790   27.2610 C   0  0  0  0  0  0  0  0  0  0  0  0
    7.7190  -14.1864   27.6151 N   0  0  0  0  0  0  0  0  0  0  0  0
   11.0894  -17.8650   27.8224 C   0  0  0  0  0  0  0  0  0  0  0  0
   11.8426  -18.3332   28.8923 O   0  0  0  0  0  0  0  0  0  0  0  0
   10.7654  -18.7192   26.9670 O   0  0  0  0  0  0  0  0  0  0  0  0
  2  1  1  6
  3  2  1  0
  3  4  1  0
  4  5  1  0
  5  6  1  0
  7  6  1  0
  8  9  2  0
  8  2  1  0
 10  8  1  0
 11 10  1  0
 11 12  1  6
 12 13  1  0
 13 17  1  0
 14 13  2  0
 15 11  1  0
 16 15  2  0
 18 15  1  0
 19 18  1  0
 19 20  1  6
 20 21  1  0
 21 25  1  0
 21 22  2  0
 22 23  1  0
 24 23  1  0
 25 24  2  0
 26 19  1  0
 27 26  1  0
 28 26  2  0
M  END
$$$$
