KDH.pdb
     RDKit          3D

 28 28  0  0  1  0  0  0  0  0999 V2000
    8.2825  -17.3935   18.9982 N   0  0  0  0  0  0  0  0  0  0  0  0
    9.1170  -16.3273   19.4647 C   0  0  1  0  0  0  0  0  0  0  0  0
    8.4272  -15.0473   19.7088 C   0  0  0  0  0  0  0  0  0  0  0  0
    7.5731  -14.5751   18.5872 C   0  0  0  0  0  0  0  0  0  0  0  0
    8.2737  -13.7474   17.5664 C   0  0  0  0  0  0  0  0  0  0  0  0
    7.3353  -13.3288   16.4628 C   0  0  0  0  0  0  0  0  0  0  0  0
    8.0524  -12.4611   15.5172 N   0  0  0  0  0  0  0  0  0  0  0  0
    9.9261  -16.8122   20.6118 C   0  0  0  0  0  0  0  0  0  0  0  0
    9.4566  -17.7802   21.2707 O   0  0  0  0  0  0  0  0  0  0  0  0
   11.1476  -16.1898   20.9063 N   0  0  0  0  0  0  0  0  0  0  0  0
   11.9582  -16.7113   22.0101 C   0  0  1  0  0  0  0  0  0  0  0  0
   13.3033  -16.0687   21.9594 C   0  0  0  0  0  0  0  0  0  0  0  0
   14.2110  -16.6102   22.9553 C   0  0  0  0  0  0  0  0  0  0  0  0
   14.0524  -17.6299   23.6448 O   0  0  0  0  0  0  0  0  0  0  0  0
   11.2220  -16.4448   23.2963 C   0  0  0  0  0  0  0  0  0  0  0  0
   10.1418  -15.8323   23.3721 O   0  0  0  0  0  0  0  0  0  0  0  0
   15.4124  -15.8848   23.1559 O   0  0  0  0  0  0  0  0  0  0  0  0
   11.7604  -16.9073   24.5439 N   0  0  0  0  0  0  0  0  0  0  0  0
   10.8999  -17.4008   25.6329 C   0  0  1  0  0  0  0  0  0  0  0  0
    9.6700  -18.0403   25.0863 C   0  0  0  0  0  0  0  0  0  0  0  0
    8.8699  -18.6310   26.1756 C   0  0  0  0  0  0  0  0  0  0  0  0
    9.1615  -18.6021   27.5348 C   0  0  0  0  0  0  0  0  0  0  0  0
    8.2197  -19.2603   28.2212 N   0  0  0  0  0  0  0  0  0  0  0  0
    7.3294  -19.7121   27.3386 C   0  0  0  0  0  0  0  0  0  0  0  0
    7.7117  -19.3365   26.0857 N   0  0  0  0  0  0  0  0  0  0  0  0
   11.6666  -18.1835   26.6017 C   0  0  0  0  0  0  0  0  0  0  0  0
   12.4117  -19.3157   26.2948 O   0  0  0  0  0  0  0  0  0  0  0  0
   11.6729  -17.8345   27.8037 O   0  0  0  0  0  0  0  0  0  0  0  0
  2  1  1  1
  3  2  1  0
  3  4  1  0
  4  5  1  0
  5  6  1  0
  7  6  1  0
  8  9  2  0
  8  2  1  0
 10  8  1  0
 11 10  1  0
 11 12  1  1
 12 13  1  0
 13 17  1  0
 14 13  2  0
 15 11  1  0
 16 15  2  0
 18 15  1  0
 19 18  1  0
 19 20  1  6
 20 21  1  0
 21 25  1  0
 21 22  2  0
 22 23  1  0
 24 23  1  0
 25 24  2  0
 26 19  1  0
 27 26  1  0
 28 26  2  0
M  END
$$$$
