KDH.pdb
     RDKit          3D

 28 28  0  0  1  0  0  0  0  0999 V2000
    8.2975  -17.0716   18.8453 N   0  0  0  0  0  0  0  0  0  0  0  0
    9.5950  -16.7090   19.3311 C   0  0  1  0  0  0  0  0  0  0  0  0
    9.9554  -15.2887   19.1673 C   0  0  0  0  0  0  0  0  0  0  0  0
    8.8003  -14.3542   19.1137 C   0  0  0  0  0  0  0  0  0  0  0  0
    9.1462  -12.9421   18.7908 C   0  0  0  0  0  0  0  0  0  0  0  0
    7.9139  -12.0748   18.7377 C   0  0  0  0  0  0  0  0  0  0  0  0
    8.3052  -10.6914   18.4303 N   0  0  0  0  0  0  0  0  0  0  0  0
    9.7547  -17.2227   20.7154 C   0  0  0  0  0  0  0  0  0  0  0  0
    8.7036  -17.5805   21.3145 O   0  0  0  0  0  0  0  0  0  0  0  0
   11.0349  -17.2876   21.2836 N   0  0  0  0  0  0  0  0  0  0  0  0
   11.1750  -17.7856   22.6547 C   0  0  1  0  0  0  0  0  0  0  0  0
   12.5823  -18.2364   22.8572 C   0  0  0  0  0  0  0  0  0  0  0  0
   12.8175  -19.5663   22.3234 C   0  0  0  0  0  0  0  0  0  0  0  0
   12.3728  -20.6415   22.7551 O   0  0  0  0  0  0  0  0  0  0  0  0
   10.7642  -16.6842   23.5955 C   0  0  0  0  0  0  0  0  0  0  0  0
   11.3216  -15.5738   23.6614 O   0  0  0  0  0  0  0  0  0  0  0  0
   13.6510  -19.6341   21.1786 O   0  0  0  0  0  0  0  0  0  0  0  0
    9.6630  -16.8784   24.4955 N   0  0  0  0  0  0  0  0  0  0  0  0
    9.1900  -15.8125   25.3954 C   0  0  1  0  0  0  0  0  0  0  0  0
    7.7580  -15.4954   25.1322 C   0  0  0  0  0  0  0  0  0  0  0  0
    7.2860  -14.4450   26.0539 C   0  0  0  0  0  0  0  0  0  0  0  0
    8.0366  -13.7845   27.0202 C   0  0  0  0  0  0  0  0  0  0  0  0
    7.2680  -12.9107   27.6815 N   0  0  0  0  0  0  0  0  0  0  0  0
    6.0420  -12.9919   27.1656 C   0  0  0  0  0  0  0  0  0  0  0  0
    6.0363  -13.9237   26.1713 N   0  0  0  0  0  0  0  0  0  0  0  0
    9.5516  -16.0917   26.7848 C   0  0  0  0  0  0  0  0  0  0  0  0
    9.8852  -15.1262   27.7270 O   0  0  0  0  0  0  0  0  0  0  0  0
    9.5715  -17.2769   27.1864 O   0  0  0  0  0  0  0  0  0  0  0  0
  2  1  1  1
  3  2  1  0
  3  4  1  0
  4  5  1  0
  5  6  1  0
  7  6  1  0
  8  9  2  0
  8  2  1  0
 10  8  1  0
 11 10  1  0
 11 12  1  1
 12 13  1  0
 13 17  1  0
 14 13  2  0
 15 11  1  0
 16 15  2  0
 18 15  1  0
 19 18  1  0
 19 20  1  1
 20 21  1  0
 21 25  1  0
 21 22  2  0
 22 23  1  0
 24 23  1  0
 25 24  2  0
 26 19  1  0
 27 26  1  0
 28 26  2  0
M  END
$$$$
