KDH.pdb
     RDKit          3D

 28 28  0  0  1  0  0  0  0  0999 V2000
    7.3902  -18.0453   20.2830 N   0  0  0  0  0  0  0  0  0  0  0  0
    8.5716  -17.3316   20.6647 C   0  0  1  0  0  0  0  0  0  0  0  0
    8.3621  -15.9223   21.0440 C   0  0  0  0  0  0  0  0  0  0  0  0
    8.0223  -15.0164   19.9151 C   0  0  0  0  0  0  0  0  0  0  0  0
    7.6988  -13.6161   20.3058 C   0  0  0  0  0  0  0  0  0  0  0  0
    7.2706  -12.7996   19.1126 C   0  0  0  0  0  0  0  0  0  0  0  0
    6.9172  -11.4423   19.5531 N   0  0  0  0  0  0  0  0  0  0  0  0
    9.3151  -18.1299   21.6724 C   0  0  0  0  0  0  0  0  0  0  0  0
    9.2019  -19.3844   21.6010 O   0  0  0  0  0  0  0  0  0  0  0  0
   10.0929  -17.4723   22.6361 N   0  0  0  0  0  0  0  0  0  0  0  0
   11.1937  -18.2006   23.2728 C   0  0  1  0  0  0  0  0  0  0  0  0
   12.1252  -18.6807   22.2113 C   0  0  0  0  0  0  0  0  0  0  0  0
   13.2937  -19.3441   22.7621 C   0  0  0  0  0  0  0  0  0  0  0  0
   13.3473  -20.0591   23.7751 O   0  0  0  0  0  0  0  0  0  0  0  0
   11.8509  -17.2787   24.2654 C   0  0  0  0  0  0  0  0  0  0  0  0
   12.4820  -16.2516   23.9576 O   0  0  0  0  0  0  0  0  0  0  0  0
   14.5068  -19.1470   22.0553 O   0  0  0  0  0  0  0  0  0  0  0  0
   11.7726  -17.5593   25.6709 N   0  0  0  0  0  0  0  0  0  0  0  0
   11.2640  -16.5725   26.6391 C   0  0  1  0  0  0  0  0  0  0  0  0
    9.9817  -15.9795   26.1654 C   0  0  0  0  0  0  0  0  0  0  0  0
    9.5342  -14.9185   27.0871 C   0  0  0  0  0  0  0  0  0  0  0  0
    9.4391  -13.5591   26.8109 C   0  0  0  0  0  0  0  0  0  0  0  0
    9.0167  -12.8980   27.8953 N   0  0  0  0  0  0  0  0  0  0  0  0
    8.8375  -13.7971   28.8624 C   0  0  0  0  0  0  0  0  0  0  0  0
    9.1490  -15.0349   28.3853 N   0  0  0  0  0  0  0  0  0  0  0  0
   11.2706  -17.1111   27.9988 C   0  0  0  0  0  0  0  0  0  0  0  0
   11.1922  -18.4616   28.3174 O   0  0  0  0  0  0  0  0  0  0  0  0
   11.3517  -16.3247   28.9691 O   0  0  0  0  0  0  0  0  0  0  0  0
  2  1  1  1
  3  2  1  0
  3  4  1  0
  4  5  1  0
  5  6  1  0
  7  6  1  0
  8  9  2  0
  8  2  1  0
 10  8  1  0
 11 10  1  0
 11 12  1  6
 12 13  1  0
 13 17  1  0
 14 13  2  0
 15 11  1  0
 16 15  2  0
 18 15  1  0
 19 18  1  0
 19 20  1  6
 20 21  1  0
 21 25  1  0
 21 22  2  0
 22 23  1  0
 24 23  1  0
 25 24  2  0
 26 19  1  0
 27 26  1  0
 28 26  2  0
M  END
$$$$
