KDH.pdb
     RDKit          3D

 28 28  0  0  1  0  0  0  0  0999 V2000
    8.4171  -17.8518   18.1130 N   0  0  0  0  0  0  0  0  0  0  0  0
    9.7494  -17.4046   18.3886 C   0  0  1  0  0  0  0  0  0  0  0  0
   10.0547  -16.0285   17.9559 C   0  0  0  0  0  0  0  0  0  0  0  0
    9.0894  -14.9989   18.4233 C   0  0  0  0  0  0  0  0  0  0  0  0
    9.6446  -13.6222   18.5429 C   0  0  0  0  0  0  0  0  0  0  0  0
    8.5998  -12.6507   19.0310 C   0  0  0  0  0  0  0  0  0  0  0  0
    9.1539  -11.2892   19.0109 N   0  0  0  0  0  0  0  0  0  0  0  0
   10.0678  -17.6806   19.8127 C   0  0  0  0  0  0  0  0  0  0  0  0
    9.2590  -18.4139   20.4450 O   0  0  0  0  0  0  0  0  0  0  0  0
   11.2254  -17.1291   20.3800 N   0  0  0  0  0  0  0  0  0  0  0  0
   11.6575  -17.5974   21.6997 C   0  0  1  0  0  0  0  0  0  0  0  0
   13.1486  -17.6167   21.7345 C   0  0  0  0  0  0  0  0  0  0  0  0
   13.6640  -18.1690   22.9747 C   0  0  0  0  0  0  0  0  0  0  0  0
   13.2219  -19.1399   23.6088 O   0  0  0  0  0  0  0  0  0  0  0  0
   11.0521  -16.6904   22.7380 C   0  0  0  0  0  0  0  0  0  0  0  0
   11.4764  -15.5525   23.0085 O   0  0  0  0  0  0  0  0  0  0  0  0
   14.8021  -17.5187   23.5149 O   0  0  0  0  0  0  0  0  0  0  0  0
    9.9092  -17.1205   23.4923 N   0  0  0  0  0  0  0  0  0  0  0  0
    9.3750  -16.3369   24.6196 C   0  0  1  0  0  0  0  0  0  0  0  0
    7.8888  -16.2556   24.5494 C   0  0  0  0  0  0  0  0  0  0  0  0
    7.4667  -15.6480   23.2734 C   0  0  0  0  0  0  0  0  0  0  0  0
    8.1234  -14.6446   22.5699 C   0  0  0  0  0  0  0  0  0  0  0  0
    7.4343  -14.3302   21.4663 N   0  0  0  0  0  0  0  0  0  0  0  0
    6.3508  -15.1057   21.4416 C   0  0  0  0  0  0  0  0  0  0  0  0
    6.3558  -15.9156   22.5375 N   0  0  0  0  0  0  0  0  0  0  0  0
    9.9448  -16.7806   25.8914 C   0  0  0  0  0  0  0  0  0  0  0  0
    9.6420  -16.2305   27.1311 O   0  0  0  0  0  0  0  0  0  0  0  0
   10.7686  -17.7228   25.8983 O   0  0  0  0  0  0  0  0  0  0  0  0
  2  1  1  1
  3  2  1  0
  3  4  1  0
  4  5  1  0
  5  6  1  0
  7  6  1  0
  8  9  2  0
  8  2  1  0
 10  8  1  0
 11 10  1  0
 11 12  1  6
 12 13  1  0
 13 17  1  0
 14 13  2  0
 15 11  1  0
 16 15  2  0
 18 15  1  0
 19 18  1  0
 19 20  1  1
 20 21  1  0
 21 25  1  0
 21 22  2  0
 22 23  1  0
 24 23  1  0
 25 24  2  0
 26 19  1  0
 27 26  1  0
 28 26  2  0
M  END
$$$$
