KDH.pdb
     RDKit          3D

 28 28  0  0  1  0  0  0  0  0999 V2000
    7.3286  -16.6815   20.3283 N   0  0  0  0  0  0  0  0  0  0  0  0
    8.0876  -15.6793   21.0142 C   0  0  1  0  0  0  0  0  0  0  0  0
    7.3716  -14.4181   21.2802 C   0  0  0  0  0  0  0  0  0  0  0  0
    6.9945  -13.6469   20.0662 C   0  0  0  0  0  0  0  0  0  0  0  0
    8.0124  -13.6451   18.9791 C   0  0  0  0  0  0  0  0  0  0  0  0
    7.5706  -12.7922   17.8167 C   0  0  0  0  0  0  0  0  0  0  0  0
    8.6253  -12.7811   16.7926 N   0  0  0  0  0  0  0  0  0  0  0  0
    8.7188  -16.2865   22.2136 C   0  0  0  0  0  0  0  0  0  0  0  0
    7.9416  -16.7312   23.1023 O   0  0  0  0  0  0  0  0  0  0  0  0
   10.1170  -16.3393   22.3050 N   0  0  0  0  0  0  0  0  0  0  0  0
   10.7262  -16.8138   23.5505 C   0  0  1  0  0  0  0  0  0  0  0  0
   12.2014  -16.9120   23.3530 C   0  0  0  0  0  0  0  0  0  0  0  0
   12.5485  -17.6284   22.1385 C   0  0  0  0  0  0  0  0  0  0  0  0
   12.3504  -18.8277   21.8878 O   0  0  0  0  0  0  0  0  0  0  0  0
   10.3376  -15.8632   24.6517 C   0  0  0  0  0  0  0  0  0  0  0  0
    9.7206  -14.7977   24.4732 O   0  0  0  0  0  0  0  0  0  0  0  0
   13.1858  -16.8625   21.1299 O   0  0  0  0  0  0  0  0  0  0  0  0
   10.6782  -16.1606   26.0140 N   0  0  0  0  0  0  0  0  0  0  0  0
    9.6826  -16.1119   27.0985 C   0  0  1  0  0  0  0  0  0  0  0  0
    8.2989  -16.1705   26.5487 C   0  0  0  0  0  0  0  0  0  0  0  0
    7.7023  -14.8221   26.5125 C   0  0  0  0  0  0  0  0  0  0  0  0
    8.3200  -13.6270   26.8643 C   0  0  0  0  0  0  0  0  0  0  0  0
    7.4633  -12.6082   26.7249 N   0  0  0  0  0  0  0  0  0  0  0  0
    6.3100  -13.1168   26.2923 C   0  0  0  0  0  0  0  0  0  0  0  0
    6.4394  -14.4667   26.1576 N   0  0  0  0  0  0  0  0  0  0  0  0
   10.0046  -17.0675   28.1578 C   0  0  0  0  0  0  0  0  0  0  0  0
   10.3018  -18.4094   27.9521 O   0  0  0  0  0  0  0  0  0  0  0  0
   10.0224  -16.6801   29.3478 O   0  0  0  0  0  0  0  0  0  0  0  0
  2  1  1  1
  3  2  1  0
  3  4  1  0
  4  5  1  0
  5  6  1  0
  7  6  1  0
  8  9  2  0
  8  2  1  0
 10  8  1  0
 11 10  1  0
 11 12  1  6
 12 13  1  0
 13 17  1  0
 14 13  2  0
 15 11  1  0
 16 15  2  0
 18 15  1  0
 19 18  1  0
 19 20  1  6
 20 21  1  0
 21 25  1  0
 21 22  2  0
 22 23  1  0
 24 23  1  0
 25 24  2  0
 26 19  1  0
 27 26  1  0
 28 26  2  0
M  END
$$$$
