KDH.pdb
     RDKit          3D

 28 28  0  0  1  0  0  0  0  0999 V2000
    7.5459  -17.3145   19.8353 N   0  0  0  0  0  0  0  0  0  0  0  0
    8.9401  -16.9880   19.8141 C   0  0  1  0  0  0  0  0  0  0  0  0
    9.2529  -15.5771   19.5220 C   0  0  0  0  0  0  0  0  0  0  0  0
    8.0832  -14.6598   19.5510 C   0  0  0  0  0  0  0  0  0  0  0  0
    8.3896  -13.2371   19.2347 C   0  0  0  0  0  0  0  0  0  0  0  0
    7.1417  -12.3909   19.2529 C   0  0  0  0  0  0  0  0  0  0  0  0
    7.4752  -11.0226   18.8315 N   0  0  0  0  0  0  0  0  0  0  0  0
    9.5786  -17.5109   21.0488 C   0  0  0  0  0  0  0  0  0  0  0  0
    8.8088  -17.8334   21.9949 O   0  0  0  0  0  0  0  0  0  0  0  0
   10.9750  -17.6223   21.1091 N   0  0  0  0  0  0  0  0  0  0  0  0
   11.5861  -18.2071   22.3058 C   0  0  1  0  0  0  0  0  0  0  0  0
   13.0031  -18.5553   21.9964 C   0  0  0  0  0  0  0  0  0  0  0  0
   13.6312  -19.3113   23.0654 C   0  0  0  0  0  0  0  0  0  0  0  0
   13.1334  -19.6297   24.1568 O   0  0  0  0  0  0  0  0  0  0  0  0
   11.4515  -17.2153   23.4307 C   0  0  0  0  0  0  0  0  0  0  0  0
   11.9655  -16.0823   23.4320 O   0  0  0  0  0  0  0  0  0  0  0  0
   14.9646  -19.7291   22.8261 O   0  0  0  0  0  0  0  0  0  0  0  0
   10.6904  -17.5512   24.6004 N   0  0  0  0  0  0  0  0  0  0  0  0
   10.6420  -16.6728   25.7819 C   0  0  1  0  0  0  0  0  0  0  0  0
   10.1118  -15.3282   25.4194 C   0  0  0  0  0  0  0  0  0  0  0  0
    8.6532  -15.3902   25.2092 C   0  0  0  0  0  0  0  0  0  0  0  0
    7.9712  -16.2307   24.3364 C   0  0  0  0  0  0  0  0  0  0  0  0
    6.6562  -15.9896   24.3992 N   0  0  0  0  0  0  0  0  0  0  0  0
    6.4742  -15.0154   25.2901 C   0  0  0  0  0  0  0  0  0  0  0  0
    7.6831  -14.6386   25.7935 N   0  0  0  0  0  0  0  0  0  0  0  0
   10.0036  -17.3420   26.9149 C   0  0  0  0  0  0  0  0  0  0  0  0
    9.9127  -16.8163   28.1981 O   0  0  0  0  0  0  0  0  0  0  0  0
    9.4921  -18.4723   26.7500 O   0  0  0  0  0  0  0  0  0  0  0  0
  2  1  1  1
  3  2  1  0
  3  4  1  0
  4  5  1  0
  5  6  1  0
  7  6  1  0
  8  9  2  0
  8  2  1  0
 10  8  1  0
 11 10  1  0
 11 12  1  6
 12 13  1  0
 13 17  1  0
 14 13  2  0
 15 11  1  0
 16 15  2  0
 18 15  1  0
 19 18  1  0
 19 20  1  6
 20 21  1  0
 21 25  1  0
 21 22  2  0
 22 23  1  0
 24 23  1  0
 25 24  2  0
 26 19  1  0
 27 26  1  0
 28 26  2  0
M  END
$$$$
