KDH.pdb
     RDKit          3D

 28 28  0  0  1  0  0  0  0  0999 V2000
    8.8549  -14.4053   22.1060 N   0  0  0  0  0  0  0  0  0  0  0  0
    8.1820  -15.5717   21.6185 C   0  0  1  0  0  0  0  0  0  0  0  0
    7.5816  -15.4394   20.2784 C   0  0  0  0  0  0  0  0  0  0  0  0
    8.1487  -14.3458   19.4459 C   0  0  0  0  0  0  0  0  0  0  0  0
    7.4701  -14.1328   18.1374 C   0  0  0  0  0  0  0  0  0  0  0  0
    8.1250  -13.0226   17.3551 C   0  0  0  0  0  0  0  0  0  0  0  0
    7.5034  -12.9313   16.0260 N   0  0  0  0  0  0  0  0  0  0  0  0
    9.0772  -16.7467   21.7721 C   0  0  0  0  0  0  0  0  0  0  0  0
    9.5642  -17.2333   20.7149 O   0  0  0  0  0  0  0  0  0  0  0  0
    9.3376  -17.2526   23.0536 N   0  0  0  0  0  0  0  0  0  0  0  0
   10.6721  -17.0656   23.6294 C   0  0  1  0  0  0  0  0  0  0  0  0
   11.3683  -15.9813   22.8781 C   0  0  0  0  0  0  0  0  0  0  0  0
   12.4686  -16.4853   22.0756 C   0  0  0  0  0  0  0  0  0  0  0  0
   12.4433  -17.4280   21.2687 O   0  0  0  0  0  0  0  0  0  0  0  0
   10.5096  -16.7611   25.0950 C   0  0  0  0  0  0  0  0  0  0  0  0
   11.4512  -16.5049   25.8667 O   0  0  0  0  0  0  0  0  0  0  0  0
   13.7089  -15.8183   22.2389 O   0  0  0  0  0  0  0  0  0  0  0  0
    9.2029  -16.7536   25.6889 N   0  0  0  0  0  0  0  0  0  0  0  0
    9.0040  -16.6151   27.1419 C   0  0  1  0  0  0  0  0  0  0  0  0
    7.6415  -16.0915   27.4413 C   0  0  0  0  0  0  0  0  0  0  0  0
    7.4644  -14.7514   26.8510 C   0  0  0  0  0  0  0  0  0  0  0  0
    8.4544  -13.9451   26.3003 C   0  0  0  0  0  0  0  0  0  0  0  0
    7.9259  -12.7885   25.8828 N   0  0  0  0  0  0  0  0  0  0  0  0
    6.6211  -12.8297   26.1507 C   0  0  0  0  0  0  0  0  0  0  0  0
    6.3235  -14.0209   26.7417 N   0  0  0  0  0  0  0  0  0  0  0  0
    9.4065  -17.8295   27.8507 C   0  0  0  0  0  0  0  0  0  0  0  0
    9.8598  -18.9919   27.2385 O   0  0  0  0  0  0  0  0  0  0  0  0
    9.3503  -17.8565   29.1007 O   0  0  0  0  0  0  0  0  0  0  0  0
  2  1  1  6
  3  2  1  0
  3  4  1  0
  4  5  1  0
  5  6  1  0
  7  6  1  0
  8  9  2  0
  8  2  1  0
 10  8  1  0
 11 10  1  0
 11 12  1  6
 12 13  1  0
 13 17  1  0
 14 13  2  0
 15 11  1  0
 16 15  2  0
 18 15  1  0
 19 18  1  0
 19 20  1  6
 20 21  1  0
 21 25  1  0
 21 22  2  0
 22 23  1  0
 24 23  1  0
 25 24  2  0
 26 19  1  0
 27 26  1  0
 28 26  2  0
M  END
$$$$
