KDH.pdb
     RDKit          3D

 28 28  0  0  1  0  0  0  0  0999 V2000
    9.0094  -17.7902   18.2839 N   0  0  0  0  0  0  0  0  0  0  0  0
   10.1549  -17.2587   18.9594 C   0  0  1  0  0  0  0  0  0  0  0  0
   10.2701  -15.7888   18.9442 C   0  0  0  0  0  0  0  0  0  0  0  0
    8.9734  -15.0614   18.9397 C   0  0  0  0  0  0  0  0  0  0  0  0
    9.0761  -13.5912   18.7256 C   0  0  0  0  0  0  0  0  0  0  0  0
    7.7178  -12.9370   18.7568 C   0  0  0  0  0  0  0  0  0  0  0  0
    7.8573  -11.5099   18.4326 N   0  0  0  0  0  0  0  0  0  0  0  0
   10.2422  -17.8630   20.3131 C   0  0  0  0  0  0  0  0  0  0  0  0
    9.1647  -18.2766   20.8225 O   0  0  0  0  0  0  0  0  0  0  0  0
   11.4876  -17.9471   20.9519 N   0  0  0  0  0  0  0  0  0  0  0  0
   11.5636  -18.5797   22.2716 C   0  0  1  0  0  0  0  0  0  0  0  0
   12.9678  -19.0236   22.5079 C   0  0  0  0  0  0  0  0  0  0  0  0
   13.9257  -17.9496   22.3135 C   0  0  0  0  0  0  0  0  0  0  0  0
   14.3887  -17.5377   21.2382 O   0  0  0  0  0  0  0  0  0  0  0  0
   11.0758  -17.5872   23.2935 C   0  0  0  0  0  0  0  0  0  0  0  0
   11.5374  -16.4404   23.4335 O   0  0  0  0  0  0  0  0  0  0  0  0
   14.3776  -17.3038   23.4919 O   0  0  0  0  0  0  0  0  0  0  0  0
   10.0101  -17.9392   24.1884 N   0  0  0  0  0  0  0  0  0  0  0  0
    9.5514  -17.0322   25.2546 C   0  0  1  0  0  0  0  0  0  0  0  0
    8.1043  -16.7156   25.0928 C   0  0  0  0  0  0  0  0  0  0  0  0
    7.8685  -16.0286   23.8091 C   0  0  0  0  0  0  0  0  0  0  0  0
    8.7547  -15.1977   23.1327 C   0  0  0  0  0  0  0  0  0  0  0  0
    8.1879  -14.7367   22.0112 N   0  0  0  0  0  0  0  0  0  0  0  0
    6.9596  -15.2497   21.9485 C   0  0  0  0  0  0  0  0  0  0  0  0
    6.7492  -16.0403   23.0382 N   0  0  0  0  0  0  0  0  0  0  0  0
    9.9719  -17.5068   26.5725 C   0  0  0  0  0  0  0  0  0  0  0  0
    9.6541  -16.8897   27.7764 O   0  0  0  0  0  0  0  0  0  0  0  0
   10.6702  -18.5421   26.6568 O   0  0  0  0  0  0  0  0  0  0  0  0
  2  1  1  1
  3  2  1  0
  3  4  1  0
  4  5  1  0
  5  6  1  0
  7  6  1  0
  8  9  2  0
  8  2  1  0
 10  8  1  0
 11 10  1  0
 11 12  1  1
 12 13  1  0
 13 17  1  0
 14 13  2  0
 15 11  1  0
 16 15  2  0
 18 15  1  0
 19 18  1  0
 19 20  1  1
 20 21  1  0
 21 25  1  0
 21 22  2  0
 22 23  1  0
 24 23  1  0
 25 24  2  0
 26 19  1  0
 27 26  1  0
 28 26  2  0
M  END
$$$$
