KDH.pdb
     RDKit          3D

 28 28  0  0  1  0  0  0  0  0999 V2000
   10.0526  -14.6293   16.2407 N   0  0  0  0  0  0  0  0  0  0  0  0
   10.3277  -13.9150   17.4510 C   0  0  1  0  0  0  0  0  0  0  0  0
    9.1527  -13.6261   18.2936 C   0  0  0  0  0  0  0  0  0  0  0  0
    7.9018  -14.3126   17.8762 C   0  0  0  0  0  0  0  0  0  0  0  0
    7.4203  -13.9694   16.5093 C   0  0  0  0  0  0  0  0  0  0  0  0
    6.0562  -14.5555   16.2459 C   0  0  0  0  0  0  0  0  0  0  0  0
    5.6449  -14.2330   14.8718 N   0  0  0  0  0  0  0  0  0  0  0  0
   11.4412  -14.5874   18.1677 C   0  0  0  0  0  0  0  0  0  0  0  0
   11.1529  -15.6301   18.8168 O   0  0  0  0  0  0  0  0  0  0  0  0
   12.7338  -14.0492   18.0937 N   0  0  0  0  0  0  0  0  0  0  0  0
   13.8471  -14.8018   18.6783 C   0  0  1  0  0  0  0  0  0  0  0  0
   15.1135  -14.3694   18.0194 C   0  0  0  0  0  0  0  0  0  0  0  0
   16.2453  -15.1929   18.4063 C   0  0  0  0  0  0  0  0  0  0  0  0
   16.8461  -15.1865   19.4922 O   0  0  0  0  0  0  0  0  0  0  0  0
   13.8414  -14.5640   20.1651 C   0  0  0  0  0  0  0  0  0  0  0  0
   13.4353  -13.5202   20.7069 O   0  0  0  0  0  0  0  0  0  0  0  0
   16.7098  -16.1051   17.4254 O   0  0  0  0  0  0  0  0  0  0  0  0
   14.3258  -15.5773   21.0588 N   0  0  0  0  0  0  0  0  0  0  0  0
   13.6095  -15.9392   22.2941 C   0  0  1  0  0  0  0  0  0  0  0  0
   12.1629  -16.1675   22.0187 C   0  0  0  0  0  0  0  0  0  0  0  0
   11.4476  -16.4961   23.2660 C   0  0  0  0  0  0  0  0  0  0  0  0
   11.9972  -16.6065   24.5385 C   0  0  0  0  0  0  0  0  0  0  0  0
   11.0485  -16.9400   25.4218 N   0  0  0  0  0  0  0  0  0  0  0  0
    9.9023  -17.0470   24.7504 C   0  0  0  0  0  0  0  0  0  0  0  0
   10.1289  -16.7792   23.4337 N   0  0  0  0  0  0  0  0  0  0  0  0
   14.3095  -16.9964   23.0230 C   0  0  0  0  0  0  0  0  0  0  0  0
   14.4537  -17.0458   24.4044 O   0  0  0  0  0  0  0  0  0  0  0  0
   14.8279  -17.9404   22.3855 O   0  0  0  0  0  0  0  0  0  0  0  0
  2  1  1  6
  3  2  1  0
  3  4  1  0
  4  5  1  0
  5  6  1  0
  7  6  1  0
  8  9  2  0
  8  2  1  0
 10  8  1  0
 11 10  1  0
 11 12  1  6
 12 13  1  0
 13 17  1  0
 14 13  2  0
 15 11  1  0
 16 15  2  0
 18 15  1  0
 19 18  1  0
 19 20  1  6
 20 21  1  0
 21 25  1  0
 21 22  2  0
 22 23  1  0
 24 23  1  0
 25 24  2  0
 26 19  1  0
 27 26  1  0
 28 26  2  0
M  END
$$$$
