KDH.pdb
     RDKit          3D

 28 28  0  0  1  0  0  0  0  0999 V2000
    7.4957  -16.8584   19.5225 N   0  0  0  0  0  0  0  0  0  0  0  0
    8.6786  -16.1587   19.9251 C   0  0  1  0  0  0  0  0  0  0  0  0
    8.4879  -14.7336   20.2515 C   0  0  0  0  0  0  0  0  0  0  0  0
    7.8909  -13.9182   19.1610 C   0  0  0  0  0  0  0  0  0  0  0  0
    8.5708  -14.0360   17.8412 C   0  0  0  0  0  0  0  0  0  0  0  0
    7.8344  -13.2649   16.7750 C   0  0  0  0  0  0  0  0  0  0  0  0
    8.4034  -13.5895   15.4589 N   0  0  0  0  0  0  0  0  0  0  0  0
    9.3664  -16.9399   20.9844 C   0  0  0  0  0  0  0  0  0  0  0  0
    8.6659  -17.7722   21.6233 O   0  0  0  0  0  0  0  0  0  0  0  0
   10.7314  -16.7257   21.2231 N   0  0  0  0  0  0  0  0  0  0  0  0
   11.3886  -17.4809   22.2933 C   0  0  1  0  0  0  0  0  0  0  0  0
   12.8656  -17.3760   22.1137 C   0  0  0  0  0  0  0  0  0  0  0  0
   13.3201  -18.0222   20.8953 C   0  0  0  0  0  0  0  0  0  0  0  0
   13.2063  -19.2197   20.5894 O   0  0  0  0  0  0  0  0  0  0  0  0
   10.9114  -16.9328   23.6121 C   0  0  0  0  0  0  0  0  0  0  0  0
   11.1615  -15.7869   24.0271 O   0  0  0  0  0  0  0  0  0  0  0  0
   13.9660  -17.1817   19.9539 O   0  0  0  0  0  0  0  0  0  0  0  0
   10.1124  -17.7463   24.4838 N   0  0  0  0  0  0  0  0  0  0  0  0
    9.7363  -17.3066   25.8385 C   0  0  1  0  0  0  0  0  0  0  0  0
    8.2671  -17.0759   25.9305 C   0  0  0  0  0  0  0  0  0  0  0  0
    7.8544  -16.0106   24.9975 C   0  0  0  0  0  0  0  0  0  0  0  0
    7.0864  -16.1600   23.8481 C   0  0  0  0  0  0  0  0  0  0  0  0
    6.9320  -14.9770   23.2413 N   0  0  0  0  0  0  0  0  0  0  0  0
    7.5810  -14.0701   23.9708 C   0  0  0  0  0  0  0  0  0  0  0  0
    8.1493  -14.6848   25.0460 N   0  0  0  0  0  0  0  0  0  0  0  0
   10.3260  -18.1715   26.8599 C   0  0  0  0  0  0  0  0  0  0  0  0
   11.1646  -19.2487   26.5995 O   0  0  0  0  0  0  0  0  0  0  0  0
   10.0770  -17.9523   28.0667 O   0  0  0  0  0  0  0  0  0  0  0  0
  2  1  1  1
  3  2  1  0
  3  4  1  0
  4  5  1  0
  5  6  1  0
  7  6  1  0
  8  9  2  0
  8  2  1  0
 10  8  1  0
 11 10  1  0
 11 12  1  1
 12 13  1  0
 13 17  1  0
 14 13  2  0
 15 11  1  0
 16 15  2  0
 18 15  1  0
 19 18  1  0
 19 20  1  6
 20 21  1  0
 21 25  1  0
 21 22  2  0
 22 23  1  0
 24 23  1  0
 25 24  2  0
 26 19  1  0
 27 26  1  0
 28 26  2  0
M  END
$$$$
