KDH.pdb
     RDKit          3D

 28 28  0  0  1  0  0  0  0  0999 V2000
    6.3969  -17.0654   20.5227 N   0  0  0  0  0  0  0  0  0  0  0  0
    7.7869  -16.9764   20.1896 C   0  0  1  0  0  0  0  0  0  0  0  0
    8.1967  -15.7271   19.5225 C   0  0  0  0  0  0  0  0  0  0  0  0
    8.0246  -14.4976   20.3406 C   0  0  0  0  0  0  0  0  0  0  0  0
    8.3456  -13.2236   19.6392 C   0  0  0  0  0  0  0  0  0  0  0  0
    8.0664  -12.0298   20.5170 C   0  0  0  0  0  0  0  0  0  0  0  0
    8.3737  -10.7980   19.7757 N   0  0  0  0  0  0  0  0  0  0  0  0
    8.5947  -17.3214   21.3871 C   0  0  0  0  0  0  0  0  0  0  0  0
    7.9637  -17.7233   22.4029 O   0  0  0  0  0  0  0  0  0  0  0  0
    9.9899  -17.1900   21.3391 N   0  0  0  0  0  0  0  0  0  0  0  0
   10.7927  -17.7823   22.4126 C   0  0  1  0  0  0  0  0  0  0  0  0
   12.2344  -17.6735   22.0459 C   0  0  0  0  0  0  0  0  0  0  0  0
   13.0778  -18.5242   22.8666 C   0  0  0  0  0  0  0  0  0  0  0  0
   12.7255  -19.2519   23.8083 O   0  0  0  0  0  0  0  0  0  0  0  0
   10.4523  -17.0723   23.6960 C   0  0  0  0  0  0  0  0  0  0  0  0
   10.7776  -15.9000   23.9566 O   0  0  0  0  0  0  0  0  0  0  0  0
   14.4593  -18.5164   22.5485 O   0  0  0  0  0  0  0  0  0  0  0  0
    9.7047  -17.7489   24.7175 N   0  0  0  0  0  0  0  0  0  0  0  0
    9.4998  -17.1651   26.0543 C   0  0  1  0  0  0  0  0  0  0  0  0
    8.0544  -16.8964   26.2978 C   0  0  0  0  0  0  0  0  0  0  0  0
    7.6171  -15.7095   25.5393 C   0  0  0  0  0  0  0  0  0  0  0  0
    8.4072  -14.8964   24.7342 C   0  0  0  0  0  0  0  0  0  0  0  0
    7.6719  -13.9014   24.2234 N   0  0  0  0  0  0  0  0  0  0  0  0
    6.4289  -14.0533   24.6790 C   0  0  0  0  0  0  0  0  0  0  0  0
    6.3788  -15.1521   25.4834 N   0  0  0  0  0  0  0  0  0  0  0  0
   10.2028  -17.9325   27.0819 C   0  0  0  0  0  0  0  0  0  0  0  0
   10.9731  -19.0634   26.8393 O   0  0  0  0  0  0  0  0  0  0  0  0
   10.1252  -17.5704   28.2774 O   0  0  0  0  0  0  0  0  0  0  0  0
  2  1  1  1
  3  2  1  0
  3  4  1  0
  4  5  1  0
  5  6  1  0
  7  6  1  0
  8  9  2  0
  8  2  1  0
 10  8  1  0
 11 10  1  0
 11 12  1  6
 12 13  1  0
 13 17  1  0
 14 13  2  0
 15 11  1  0
 16 15  2  0
 18 15  1  0
 19 18  1  0
 19 20  1  1
 20 21  1  0
 21 25  1  0
 21 22  2  0
 22 23  1  0
 24 23  1  0
 25 24  2  0
 26 19  1  0
 27 26  1  0
 28 26  2  0
M  END
$$$$
