GRE.pdb
     RDKit          3D

 25 24  0  0  1  0  0  0  0  0999 V2000
   19.0966  -21.6013  -10.5828 N   0  0  0  0  0  0  0  0  0  0  0  0
   20.2003  -22.1982  -11.3063 C   0  0  0  0  0  0  0  0  0  0  0  0
   21.1585  -21.1267  -11.7126 C   0  0  0  0  0  0  0  0  0  0  0  0
   20.8055  -19.9248  -11.8728 O   0  0  0  0  0  0  0  0  0  0  0  0
   29.3875  -21.3043   -9.9761 N   0  0  0  0  0  0  0  0  0  0  0  0
   28.7796  -21.3844  -11.2659 C   0  0  0  0  0  0  0  0  0  0  0  0
   29.5576  -21.6525  -12.2815 N   0  0  0  0  0  0  0  0  0  0  0  0
   27.3832  -21.1801  -11.4286 N   0  0  0  0  0  0  0  0  0  0  0  0
   26.5689  -20.9165  -10.2764 C   0  0  0  0  0  0  0  0  0  0  0  0
   25.1141  -20.7186  -10.6350 C   0  0  0  0  0  0  0  0  0  0  0  0
   24.8868  -20.8499  -12.1266 C   0  0  0  0  0  0  0  0  0  0  0  0
   23.4642  -20.4858  -12.5008 C   0  0  2  0  0  0  0  0  0  0  0  0
   22.5271  -21.4304  -11.9367 N   0  0  0  0  0  0  0  0  0  0  0  0
   23.4070  -20.4248  -13.9877 C   0  0  0  0  0  0  0  0  0  0  0  0
   23.5255  -21.5055  -14.6118 O   0  0  0  0  0  0  0  0  0  0  0  0
   29.2259  -21.7440  -13.2467 N   0  0  0  0  0  0  0  0  0  0  0  0
   23.2291  -19.2331  -14.7215 C   0  0  1  0  0  0  0  0  0  0  0  0
   23.0740  -19.1327  -16.1513 C   0  0  0  0  0  0  0  0  0  0  0  0
   21.6722  -19.3645  -16.6380 C   0  0  0  0  0  0  0  0  0  0  0  0
   20.6958  -18.3630  -16.1015 C   0  0  0  0  0  0  0  0  0  0  0  0
   19.3031  -18.6432  -16.5068 O   0  0  0  0  0  0  0  0  0  0  0  0
   18.5282  -19.4275  -15.9077 C   0  0  0  0  0  0  0  0  0  0  0  0
   23.6430  -17.8808  -16.7250 O   0  0  0  0  0  0  0  0  0  0  0  0
   23.7191  -17.7010  -18.0964 O   0  0  0  0  0  0  0  0  0  0  0  0
   18.8125  -17.9843  -17.6437 O   0  0  0  0  0  0  0  0  0  0  0  0
  1  2  1  0
  3  2  1  0
  3 13  1  0
  4  3  2  0
  5  6  1  0
  6  7  2  0
  6  8  1  0
  8  9  1  0
  9 10  1  0
 10 11  1  0
 12 11  1  6
 12 13  1  0
 12 14  1  0
 14 15  2  0
 14 16  1  0
 16 17  1  0
 17 22  1  0
 18 19  1  0
 17 18  1  6
 20 19  1  0
 21 20  2  0
 22 25  2  0
 22 23  1  0
 24 20  1  0
M  END
$$$$
