GRE.pdb
     RDKit          3D

 25 24  0  0  1  0  0  0  0  0999 V2000
   27.6715  -12.4369  -16.0770 N   0  0  0  0  0  0  0  0  0  0  0  0
   26.4437  -12.0876  -15.3924 C   0  0  0  0  0  0  0  0  0  0  0  0
   25.6975  -11.0803  -16.2047 C   0  0  0  0  0  0  0  0  0  0  0  0
   25.7086  -11.0831  -17.4675 O   0  0  0  0  0  0  0  0  0  0  0  0
   21.0379  -14.2117  -16.2543 N   0  0  0  0  0  0  0  0  0  0  0  0
   19.9344  -13.3655  -15.9291 C   0  0  0  0  0  0  0  0  0  0  0  0
   18.8048  -13.9444  -15.6165 N   0  0  0  0  0  0  0  0  0  0  0  0
   20.0690  -11.9515  -15.9467 N   0  0  0  0  0  0  0  0  0  0  0  0
   21.0204  -11.3433  -16.8327 C   0  0  0  0  0  0  0  0  0  0  0  0
   22.0733  -10.5537  -16.0899 C   0  0  0  0  0  0  0  0  0  0  0  0
   23.0062   -9.8370  -17.0437 C   0  0  0  0  0  0  0  0  0  0  0  0
   24.1144   -9.1223  -16.2970 C   0  0  2  0  0  0  0  0  0  0  0  0
   24.9347  -10.0648  -15.5705 N   0  0  0  0  0  0  0  0  0  0  0  0
   23.4649   -8.1134  -15.4149 C   0  0  0  0  0  0  0  0  0  0  0  0
   23.2177   -8.4565  -14.2348 O   0  0  0  0  0  0  0  0  0  0  0  0
   17.9638  -13.4362  -15.3258 N   0  0  0  0  0  0  0  0  0  0  0  0
   23.1179   -6.8104  -15.8299 C   0  0  2  0  0  0  0  0  0  0  0  0
   22.5166   -5.7904  -15.0074 C   0  0  0  0  0  0  0  0  0  0  0  0
   22.3843   -4.4538  -15.6795 C   0  0  0  0  0  0  0  0  0  0  0  0
   21.8139   -3.4019  -14.7782 C   0  0  0  0  0  0  0  0  0  0  0  0
   21.6177   -2.1056  -15.4589 O   0  0  0  0  0  0  0  0  0  0  0  0
   20.5193   -1.5061  -15.5522 C   0  0  0  0  0  0  0  0  0  0  0  0
   21.2292   -6.2100  -14.3854 O   0  0  0  0  0  0  0  0  0  0  0  0
   20.9881   -5.9893  -13.0393 O   0  0  0  0  0  0  0  0  0  0  0  0
   22.7412   -1.5021  -16.0428 O   0  0  0  0  0  0  0  0  0  0  0  0
  1  2  1  0
  3  2  1  0
  3 13  1  0
  4  3  2  0
  5  6  1  0
  6  7  2  0
  6  8  1  0
  8  9  1  0
  9 10  1  0
 10 11  1  0
 12 11  1  1
 12 13  1  0
 12 14  1  0
 14 15  2  0
 14 16  1  0
 16 17  1  0
 17 22  1  0
 18 19  1  0
 17 18  1  6
 20 19  1  0
 21 20  2  0
 22 25  2  0
 22 23  1  0
 24 20  1  0
M  END
$$$$
