GRE.pdb
     RDKit          3D

 25 24  0  0  1  0  0  0  0  0999 V2000
   21.7218  -13.9078  -18.2058 N   0  0  0  0  0  0  0  0  0  0  0  0
   22.0878  -14.0834  -16.8154 C   0  0  0  0  0  0  0  0  0  0  0  0
   22.7309  -15.4203  -16.6415 C   0  0  0  0  0  0  0  0  0  0  0  0
   22.2802  -16.4669  -17.1857 O   0  0  0  0  0  0  0  0  0  0  0  0
   28.2177  -21.0801  -15.0821 N   0  0  0  0  0  0  0  0  0  0  0  0
   27.0669  -20.9232  -15.9131 C   0  0  0  0  0  0  0  0  0  0  0  0
   26.4226  -22.0068  -16.2583 N   0  0  0  0  0  0  0  0  0  0  0  0
   26.6463  -19.6358  -16.3417 N   0  0  0  0  0  0  0  0  0  0  0  0
   27.2308  -18.4674  -15.7473 C   0  0  0  0  0  0  0  0  0  0  0  0
   26.4661  -17.9986  -14.5310 C   0  0  0  0  0  0  0  0  0  0  0  0
   25.7907  -16.6659  -14.7789 C   0  0  0  0  0  0  0  0  0  0  0  0
   24.4739  -16.8433  -15.5076 C   0  0  2  0  0  0  0  0  0  0  0  0
   23.8952  -15.5618  -15.8415 N   0  0  0  0  0  0  0  0  0  0  0  0
   23.5979  -17.6677  -14.6296 C   0  0  0  0  0  0  0  0  0  0  0  0
   23.3072  -17.1979  -13.5043 O   0  0  0  0  0  0  0  0  0  0  0  0
   25.5339  -22.0049  -16.7685 N   0  0  0  0  0  0  0  0  0  0  0  0
   23.0846  -18.9312  -14.9909 C   0  0  2  0  0  0  0  0  0  0  0  0
   22.2546  -19.7760  -14.1688 C   0  0  0  0  0  0  0  0  0  0  0  0
   20.9816  -19.1278  -13.7052 C   0  0  0  0  0  0  0  0  0  0  0  0
   19.8843  -19.2047  -14.7222 C   0  0  0  0  0  0  0  0  0  0  0  0
   18.6000  -18.6708  -14.2244 O   0  0  0  0  0  0  0  0  0  0  0  0
   17.5326  -18.6455  -14.8838 C   0  0  0  0  0  0  0  0  0  0  0  0
   21.9900  -21.1144  -14.7680 O   0  0  0  0  0  0  0  0  0  0  0  0
   21.4484  -22.1367  -14.0063 O   0  0  0  0  0  0  0  0  0  0  0  0
   18.5729  -18.1550  -12.9203 O   0  0  0  0  0  0  0  0  0  0  0  0
  1  2  1  0
  3  2  1  0
  3 13  1  0
  4  3  2  0
  5  6  1  0
  6  7  2  0
  6  8  1  0
  8  9  1  0
  9 10  1  0
 10 11  1  0
 12 11  1  1
 12 13  1  0
 12 14  1  0
 14 15  2  0
 14 16  1  0
 16 17  1  0
 17 22  1  0
 18 19  1  0
 17 18  1  6
 20 19  1  0
 21 20  2  0
 22 25  2  0
 22 23  1  0
 24 20  1  0
M  END
$$$$
