GRE.pdb
     RDKit          3D

 25 24  0  0  1  0  0  0  0  0999 V2000
   28.8954  -18.1808  -18.9641 N   0  0  0  0  0  0  0  0  0  0  0  0
   27.9875  -17.4054  -18.1440 C   0  0  0  0  0  0  0  0  0  0  0  0
   27.1676  -18.3323  -17.3074 C   0  0  0  0  0  0  0  0  0  0  0  0
   26.2541  -19.0569  -17.7924 O   0  0  0  0  0  0  0  0  0  0  0  0
   26.2102  -20.3160   -8.7722 N   0  0  0  0  0  0  0  0  0  0  0  0
   25.4888  -20.9323   -9.8395 C   0  0  0  0  0  0  0  0  0  0  0  0
   24.1881  -20.8021   -9.8398 N   0  0  0  0  0  0  0  0  0  0  0  0
   26.1670  -21.6556  -10.8568 N   0  0  0  0  0  0  0  0  0  0  0  0
   27.0202  -20.9540  -11.7734 C   0  0  0  0  0  0  0  0  0  0  0  0
   26.2467  -20.0272  -12.6826 C   0  0  0  0  0  0  0  0  0  0  0  0
   27.1635  -19.2980  -13.6426 C   0  0  0  0  0  0  0  0  0  0  0  0
   26.5522  -19.2076  -15.0263 C   0  0  2  0  0  0  0  0  0  0  0  0
   27.3929  -18.4315  -15.9092 N   0  0  0  0  0  0  0  0  0  0  0  0
   25.1888  -18.6311  -14.8632 C   0  0  0  0  0  0  0  0  0  0  0  0
   25.0991  -17.5239  -14.2823 O   0  0  0  0  0  0  0  0  0  0  0  0
   23.5719  -21.2244  -10.5411 N   0  0  0  0  0  0  0  0  0  0  0  0
   24.0092  -19.2550  -15.3210 C   0  0  2  0  0  0  0  0  0  0  0  0
   22.6647  -18.7715  -15.1289 C   0  0  0  0  0  0  0  0  0  0  0  0
   21.9664  -18.3689  -16.3962 C   0  0  0  0  0  0  0  0  0  0  0  0
   22.7943  -17.4632  -17.2556 C   0  0  0  0  0  0  0  0  0  0  0  0
   22.1156  -17.0829  -18.5114 O   0  0  0  0  0  0  0  0  0  0  0  0
   21.0003  -17.5223  -18.8827 C   0  0  0  0  0  0  0  0  0  0  0  0
   21.8152  -19.6840  -14.3127 O   0  0  0  0  0  0  0  0  0  0  0  0
   20.5933  -19.2596  -13.8173 O   0  0  0  0  0  0  0  0  0  0  0  0
   22.7658  -16.1643  -19.3486 O   0  0  0  0  0  0  0  0  0  0  0  0
  1  2  1  0
  3  2  1  0
  3 13  1  0
  4  3  2  0
  5  6  1  0
  6  7  2  0
  6  8  1  0
  8  9  1  0
  9 10  1  0
 10 11  1  0
 12 11  1  1
 12 13  1  0
 12 14  1  0
 14 15  2  0
 14 16  1  0
 16 17  1  0
 17 22  1  0
 18 19  1  0
 17 18  1  6
 20 19  1  0
 21 20  2  0
 22 25  2  0
 22 23  1  0
 24 20  1  0
M  END
$$$$
