GRE.pdb
     RDKit          3D

 25 24  0  0  1  0  0  0  0  0999 V2000
   14.5246  -11.2710  -10.8514 N   0  0  0  0  0  0  0  0  0  0  0  0
   15.5198  -10.6868   -9.9760 C   0  0  0  0  0  0  0  0  0  0  0  0
   15.9044   -9.3411  -10.4979 C   0  0  0  0  0  0  0  0  0  0  0  0
   15.9905   -9.0906  -11.7326 O   0  0  0  0  0  0  0  0  0  0  0  0
   11.5618   -5.0771   -6.0359 N   0  0  0  0  0  0  0  0  0  0  0  0
   11.8388   -5.6984   -7.2916 C   0  0  0  0  0  0  0  0  0  0  0  0
   11.0854   -6.7074   -7.6422 N   0  0  0  0  0  0  0  0  0  0  0  0
   12.8933   -5.2305   -8.1205 N   0  0  0  0  0  0  0  0  0  0  0  0
   14.1514   -5.9215   -8.1209 C   0  0  0  0  0  0  0  0  0  0  0  0
   15.1680   -5.2623   -9.0242 C   0  0  0  0  0  0  0  0  0  0  0  0
   16.5136   -5.9524   -8.9429 C   0  0  0  0  0  0  0  0  0  0  0  0
   16.6702   -6.9845  -10.0414 C   0  0  2  0  0  0  0  0  0  0  0  0
   16.1921   -8.2763   -9.6041 N   0  0  0  0  0  0  0  0  0  0  0  0
   18.1086   -6.9951  -10.4273 C   0  0  0  0  0  0  0  0  0  0  0  0
   18.9301   -7.3980   -9.5704 O   0  0  0  0  0  0  0  0  0  0  0  0
   11.1850   -7.2144   -8.5271 N   0  0  0  0  0  0  0  0  0  0  0  0
   18.5897   -6.5820  -11.6875 C   0  0  1  0  0  0  0  0  0  0  0  0
   19.9633   -6.6176  -12.1241 C   0  0  0  0  0  0  0  0  0  0  0  0
   20.2535   -7.6609  -13.1648 C   0  0  0  0  0  0  0  0  0  0  0  0
   21.6893   -7.6745  -13.5921 C   0  0  0  0  0  0  0  0  0  0  0  0
   21.9525   -8.6218  -14.6947 O   0  0  0  0  0  0  0  0  0  0  0  0
   21.1118   -9.4293  -15.1594 C   0  0  0  0  0  0  0  0  0  0  0  0
   20.4917   -5.2862  -12.5345 O   0  0  0  0  0  0  0  0  0  0  0  0
   21.8323   -4.9764  -12.3744 O   0  0  0  0  0  0  0  0  0  0  0  0
   23.2351   -8.6175  -15.2624 O   0  0  0  0  0  0  0  0  0  0  0  0
  1  2  1  0
  3  2  1  0
  3 13  1  0
  4  3  2  0
  5  6  1  0
  6  7  2  0
  6  8  1  0
  8  9  1  0
  9 10  1  0
 10 11  1  0
 12 11  1  1
 12 13  1  0
 12 14  1  0
 14 15  2  0
 14 16  1  0
 16 17  1  0
 17 22  1  0
 18 19  1  0
 17 18  1  1
 20 19  1  0
 21 20  2  0
 22 25  2  0
 22 23  1  0
 24 20  1  0
M  END
$$$$
