GRE.pdb
     RDKit          3D

 25 24  0  0  1  0  0  0  0  0999 V2000
   25.1426  -20.5188   -9.3343 N   0  0  0  0  0  0  0  0  0  0  0  0
   25.6956  -21.3676  -10.3696 C   0  0  0  0  0  0  0  0  0  0  0  0
   25.2124  -20.8959  -11.7020 C   0  0  0  0  0  0  0  0  0  0  0  0
   24.4969  -19.8644  -11.8390 O   0  0  0  0  0  0  0  0  0  0  0  0
   27.6935  -24.2296  -16.4922 N   0  0  0  0  0  0  0  0  0  0  0  0
   28.4239  -23.0826  -16.9287 C   0  0  0  0  0  0  0  0  0  0  0  0
   29.7253  -23.1183  -16.8112 N   0  0  0  0  0  0  0  0  0  0  0  0
   27.7537  -21.9525  -17.4688 N   0  0  0  0  0  0  0  0  0  0  0  0
   26.3455  -22.0276  -17.7365 C   0  0  0  0  0  0  0  0  0  0  0  0
   25.5196  -21.3756  -16.6517 C   0  0  0  0  0  0  0  0  0  0  0  0
   25.8962  -21.8939  -15.2794 C   0  0  0  0  0  0  0  0  0  0  0  0
   25.0702  -21.2318  -14.1951 C   0  0  2  0  0  0  0  0  0  0  0  0
   25.5489  -21.6067  -12.8840 N   0  0  0  0  0  0  0  0  0  0  0  0
   23.6516  -21.6189  -14.4306 C   0  0  0  0  0  0  0  0  0  0  0  0
   23.2381  -22.6579  -13.8641 O   0  0  0  0  0  0  0  0  0  0  0  0
   30.3513  -22.3903  -17.1691 N   0  0  0  0  0  0  0  0  0  0  0  0
   22.7603  -20.8895  -15.2456 C   0  0  1  0  0  0  0  0  0  0  0  0
   21.3358  -20.7767  -15.0547 C   0  0  0  0  0  0  0  0  0  0  0  0
   20.8949  -20.8766  -13.6225 C   0  0  0  0  0  0  0  0  0  0  0  0
   19.4076  -20.7940  -13.4632 C   0  0  0  0  0  0  0  0  0  0  0  0
   18.9742  -20.8821  -12.0537 O   0  0  0  0  0  0  0  0  0  0  0  0
   18.2643  -20.0280  -11.4693 C   0  0  0  0  0  0  0  0  0  0  0  0
   20.7391  -19.5842  -15.7198 O   0  0  0  0  0  0  0  0  0  0  0  0
   19.3661  -19.4036  -15.7506 O   0  0  0  0  0  0  0  0  0  0  0  0
   19.3864  -22.0017  -11.3162 O   0  0  0  0  0  0  0  0  0  0  0  0
  1  2  1  0
  3  2  1  0
  3 13  1  0
  4  3  2  0
  5  6  1  0
  6  7  2  0
  6  8  1  0
  8  9  1  0
  9 10  1  0
 10 11  1  0
 12 11  1  6
 12 13  1  0
 12 14  1  0
 14 15  2  0
 14 16  1  0
 16 17  1  0
 17 22  1  0
 18 19  1  0
 17 18  1  6
 20 19  1  0
 21 20  2  0
 22 25  2  0
 22 23  1  0
 24 20  1  0
M  END
$$$$
