GRE.pdb
     RDKit          3D

 25 24  0  0  1  0  0  0  0  0999 V2000
   26.3244  -23.8608  -16.6426 N   0  0  0  0  0  0  0  0  0  0  0  0
   26.6557  -22.5881  -16.0355 C   0  0  0  0  0  0  0  0  0  0  0  0
   25.9288  -22.4589  -14.7370 C   0  0  0  0  0  0  0  0  0  0  0  0
   24.8627  -23.0890  -14.4896 O   0  0  0  0  0  0  0  0  0  0  0  0
   30.8307  -20.5931   -8.2518 N   0  0  0  0  0  0  0  0  0  0  0  0
   31.0608  -21.6052   -9.2328 C   0  0  0  0  0  0  0  0  0  0  0  0
   32.2475  -22.1523   -9.2651 N   0  0  0  0  0  0  0  0  0  0  0  0
   30.0338  -21.9959  -10.1332 N   0  0  0  0  0  0  0  0  0  0  0  0
   28.8472  -21.1955  -10.2416 C   0  0  0  0  0  0  0  0  0  0  0  0
   27.9099  -21.7013  -11.3138 C   0  0  0  0  0  0  0  0  0  0  0  0
   26.6652  -20.8443  -11.4130 C   0  0  0  0  0  0  0  0  0  0  0  0
   25.7200  -21.3671  -12.4758 C   0  0  2  0  0  0  0  0  0  0  0  0
   26.4230  -21.6054  -13.7158 N   0  0  0  0  0  0  0  0  0  0  0  0
   24.6217  -20.3704  -12.6104 C   0  0  0  0  0  0  0  0  0  0  0  0
   24.8244  -19.3908  -13.3660 O   0  0  0  0  0  0  0  0  0  0  0  0
   32.5059  -22.9197   -9.8930 N   0  0  0  0  0  0  0  0  0  0  0  0
   23.3826  -20.4678  -11.9429 C   0  0  1  0  0  0  0  0  0  0  0  0
   22.0841  -20.2456  -12.5284 C   0  0  0  0  0  0  0  0  0  0  0  0
   21.8721  -20.9414  -13.8424 C   0  0  0  0  0  0  0  0  0  0  0  0
   21.8086  -19.9933  -15.0006 C   0  0  0  0  0  0  0  0  0  0  0  0
   21.2116  -20.5995  -16.2082 O   0  0  0  0  0  0  0  0  0  0  0  0
   20.3214  -21.4840  -16.1987 C   0  0  0  0  0  0  0  0  0  0  0  0
   20.9559  -20.5093  -11.5914 O   0  0  0  0  0  0  0  0  0  0  0  0
   19.8471  -19.6794  -11.5669 O   0  0  0  0  0  0  0  0  0  0  0  0
   21.6739  -20.1536  -17.4551 O   0  0  0  0  0  0  0  0  0  0  0  0
  1  2  1  0
  3  2  1  0
  3 13  1  0
  4  3  2  0
  5  6  1  0
  6  7  2  0
  6  8  1  0
  8  9  1  0
  9 10  1  0
 10 11  1  0
 12 11  1  1
 12 13  1  0
 12 14  1  0
 14 15  2  0
 14 16  1  0
 16 17  1  0
 17 22  1  0
 18 19  1  0
 17 18  1  6
 20 19  1  0
 21 20  2  0
 22 25  2  0
 22 23  1  0
 24 20  1  0
M  END
$$$$
