GRE.pdb
     RDKit          3D

 25 24  0  0  1  0  0  0  0  0999 V2000
   28.2733  -21.5302  -16.6206 N   0  0  0  0  0  0  0  0  0  0  0  0
   27.6745  -20.5348  -15.7554 C   0  0  0  0  0  0  0  0  0  0  0  0
   26.3359  -21.0187  -15.3024 C   0  0  0  0  0  0  0  0  0  0  0  0
   25.7459  -21.9934  -15.8469 O   0  0  0  0  0  0  0  0  0  0  0  0
   22.9894  -20.3730   -7.3406 N   0  0  0  0  0  0  0  0  0  0  0  0
   24.0186  -21.1252   -7.9843 C   0  0  0  0  0  0  0  0  0  0  0  0
   24.9512  -21.6390   -7.2262 N   0  0  0  0  0  0  0  0  0  0  0  0
   24.0197  -21.3032   -9.3937 N   0  0  0  0  0  0  0  0  0  0  0  0
   22.8946  -20.8540  -10.1634 C   0  0  0  0  0  0  0  0  0  0  0  0
   23.0378  -21.1789  -11.6324 C   0  0  0  0  0  0  0  0  0  0  0  0
   24.2896  -20.5602  -12.2188 C   0  0  0  0  0  0  0  0  0  0  0  0
   24.3959  -20.8362  -13.7050 C   0  0  2  0  0  0  0  0  0  0  0  0
   25.6683  -20.3855  -14.2213 N   0  0  0  0  0  0  0  0  0  0  0  0
   23.2336  -20.1703  -14.3559 C   0  0  0  0  0  0  0  0  0  0  0  0
   23.2424  -18.9177  -14.4042 O   0  0  0  0  0  0  0  0  0  0  0  0
   25.7393  -22.1883   -7.5829 N   0  0  0  0  0  0  0  0  0  0  0  0
   22.1385  -20.8635  -14.9132 C   0  0  2  0  0  0  0  0  0  0  0  0
   21.0051  -20.2668  -15.5750 C   0  0  0  0  0  0  0  0  0  0  0  0
   20.7445  -20.8003  -16.9545 C   0  0  0  0  0  0  0  0  0  0  0  0
   19.6932  -20.0267  -17.6897 C   0  0  0  0  0  0  0  0  0  0  0  0
   19.4138  -20.5704  -19.0346 O   0  0  0  0  0  0  0  0  0  0  0  0
   18.5954  -20.0783  -19.8488 C   0  0  0  0  0  0  0  0  0  0  0  0
   19.7634  -20.2744  -14.7513 O   0  0  0  0  0  0  0  0  0  0  0  0
   18.8697  -19.2176  -14.8079 O   0  0  0  0  0  0  0  0  0  0  0  0
   20.1143  -21.7197  -19.4289 O   0  0  0  0  0  0  0  0  0  0  0  0
  1  2  1  0
  3  2  1  0
  3 13  1  0
  4  3  2  0
  5  6  1  0
  6  7  2  0
  6  8  1  0
  8  9  1  0
  9 10  1  0
 10 11  1  0
 12 11  1  1
 12 13  1  0
 12 14  1  0
 14 15  2  0
 14 16  1  0
 16 17  1  0
 17 22  1  0
 18 19  1  0
 17 18  1  6
 20 19  1  0
 21 20  2  0
 22 25  2  0
 22 23  1  0
 24 20  1  0
M  END
$$$$
