GRE.pdb
     RDKit          3D

 25 24  0  0  1  0  0  0  0  0999 V2000
   24.5870  -23.4315  -14.8728 N   0  0  0  0  0  0  0  0  0  0  0  0
   23.2233  -23.0118  -15.1221 C   0  0  0  0  0  0  0  0  0  0  0  0
   22.6172  -22.5267  -13.8459 C   0  0  0  0  0  0  0  0  0  0  0  0
   23.1896  -22.6603  -12.7282 O   0  0  0  0  0  0  0  0  0  0  0  0
   21.0925  -16.6879  -15.3308 N   0  0  0  0  0  0  0  0  0  0  0  0
   19.7631  -17.2042  -15.4051 C   0  0  0  0  0  0  0  0  0  0  0  0
   19.2046  -17.2586  -16.5857 N   0  0  0  0  0  0  0  0  0  0  0  0
   19.0829  -17.6398  -14.2365 N   0  0  0  0  0  0  0  0  0  0  0  0
   19.7974  -17.7281  -12.9948 C   0  0  0  0  0  0  0  0  0  0  0  0
   20.6638  -18.9641  -12.9179 C   0  0  0  0  0  0  0  0  0  0  0  0
   19.8293  -20.2279  -12.9097 C   0  0  0  0  0  0  0  0  0  0  0  0
   20.6838  -21.4502  -12.6412 C   0  0  2  0  0  0  0  0  0  0  0  0
   21.3506  -21.8855  -13.8472 N   0  0  0  0  0  0  0  0  0  0  0  0
   19.7877  -22.4895  -12.0626 C   0  0  0  0  0  0  0  0  0  0  0  0
   19.1729  -23.2297  -12.8661 O   0  0  0  0  0  0  0  0  0  0  0  0
   18.2489  -17.5895  -16.7508 N   0  0  0  0  0  0  0  0  0  0  0  0
   19.5962  -22.6833  -10.6783 C   0  0  2  0  0  0  0  0  0  0  0  0
   18.7856  -23.7085  -10.0697 C   0  0  0  0  0  0  0  0  0  0  0  0
   19.0068  -23.8753   -8.5937 C   0  0  0  0  0  0  0  0  0  0  0  0
   18.2602  -25.0407   -8.0203 C   0  0  0  0  0  0  0  0  0  0  0  0
   18.5786  -25.2849   -6.5986 O   0  0  0  0  0  0  0  0  0  0  0  0
   19.3787  -24.5991   -5.9172 C   0  0  0  0  0  0  0  0  0  0  0  0
   17.3347  -23.5857  -10.3862 O   0  0  0  0  0  0  0  0  0  0  0  0
   16.5967  -24.6943  -10.7672 O   0  0  0  0  0  0  0  0  0  0  0  0
   17.9400  -26.3614   -5.9656 O   0  0  0  0  0  0  0  0  0  0  0  0
  1  2  1  0
  3  2  1  0
  3 13  1  0
  4  3  2  0
  5  6  1  0
  6  7  2  0
  6  8  1  0
  8  9  1  0
  9 10  1  0
 10 11  1  0
 12 11  1  6
 12 13  1  0
 12 14  1  0
 14 15  2  0
 14 16  1  0
 16 17  1  0
 17 22  1  0
 18 19  1  0
 17 18  1  1
 20 19  1  0
 21 20  2  0
 22 25  2  0
 22 23  1  0
 24 20  1  0
M  END
$$$$
