GRE.pdb
     RDKit          3D

 25 24  0  0  1  0  0  0  0  0999 V2000
   25.2183  -12.5187  -16.1227 N   0  0  0  0  0  0  0  0  0  0  0  0
   25.4262  -13.5751  -15.1538 C   0  0  0  0  0  0  0  0  0  0  0  0
   24.8315  -14.8429  -15.6738 C   0  0  0  0  0  0  0  0  0  0  0  0
   24.0755  -14.8740  -16.6849 O   0  0  0  0  0  0  0  0  0  0  0  0
   28.4005  -22.6376  -15.8056 N   0  0  0  0  0  0  0  0  0  0  0  0
   28.2874  -21.6123  -16.7933 C   0  0  0  0  0  0  0  0  0  0  0  0
   29.1746  -21.6019  -17.7532 N   0  0  0  0  0  0  0  0  0  0  0  0
   27.2476  -20.6467  -16.7272 N   0  0  0  0  0  0  0  0  0  0  0  0
   26.1619  -20.8394  -15.8084 C   0  0  0  0  0  0  0  0  0  0  0  0
   25.1164  -19.7538  -15.9195 C   0  0  0  0  0  0  0  0  0  0  0  0
   25.6066  -18.4480  -15.3293 C   0  0  0  0  0  0  0  0  0  0  0  0
   24.5831  -17.3447  -15.5075 C   0  0  2  0  0  0  0  0  0  0  0  0
   25.1024  -16.0815  -15.0350 N   0  0  0  0  0  0  0  0  0  0  0  0
   23.3508  -17.7737  -14.7898 C   0  0  0  0  0  0  0  0  0  0  0  0
   23.3962  -17.8027  -13.5374 O   0  0  0  0  0  0  0  0  0  0  0  0
   29.1951  -20.9056  -18.5047 N   0  0  0  0  0  0  0  0  0  0  0  0
   22.1518  -18.1442  -15.4344 C   0  0  2  0  0  0  0  0  0  0  0  0
   20.9136  -18.4961  -14.7851 C   0  0  0  0  0  0  0  0  0  0  0  0
   19.7264  -18.5438  -15.7038 C   0  0  0  0  0  0  0  0  0  0  0  0
   18.4393  -18.7971  -14.9804 C   0  0  0  0  0  0  0  0  0  0  0  0
   17.2715  -18.8454  -15.8839 O   0  0  0  0  0  0  0  0  0  0  0  0
   16.6957  -17.8383  -16.3624 C   0  0  0  0  0  0  0  0  0  0  0  0
   21.0055  -19.7332  -13.9596 O   0  0  0  0  0  0  0  0  0  0  0  0
   20.4121  -19.7960  -12.7095 O   0  0  0  0  0  0  0  0  0  0  0  0
   16.7709  -20.1088  -16.2312 O   0  0  0  0  0  0  0  0  0  0  0  0
  1  2  1  0
  3  2  1  0
  3 13  1  0
  4  3  2  0
  5  6  1  0
  6  7  2  0
  6  8  1  0
  8  9  1  0
  9 10  1  0
 10 11  1  0
 12 11  1  1
 12 13  1  0
 12 14  1  0
 14 15  2  0
 14 16  1  0
 16 17  1  0
 17 22  1  0
 18 19  1  0
 17 18  1  6
 20 19  1  0
 21 20  2  0
 22 25  2  0
 22 23  1  0
 24 20  1  0
M  END
$$$$
