GRE.pdb
     RDKit          3D

 25 24  0  0  1  0  0  0  0  0999 V2000
   27.2309  -23.2034  -15.8874 N   0  0  0  0  0  0  0  0  0  0  0  0
   27.2373  -22.0115  -15.0642 C   0  0  0  0  0  0  0  0  0  0  0  0
   25.9803  -21.9637  -14.2588 C   0  0  0  0  0  0  0  0  0  0  0  0
   24.9975  -22.7230  -14.4876 O   0  0  0  0  0  0  0  0  0  0  0  0
   21.8483  -21.8227   -7.5792 N   0  0  0  0  0  0  0  0  0  0  0  0
   21.8746  -20.6638   -8.4133 C   0  0  0  0  0  0  0  0  0  0  0  0
   20.7896  -19.9367   -8.4664 N   0  0  0  0  0  0  0  0  0  0  0  0
   23.0391  -20.3223   -9.1517 N   0  0  0  0  0  0  0  0  0  0  0  0
   24.0902  -21.2884   -9.3000 C   0  0  0  0  0  0  0  0  0  0  0  0
   25.2665  -20.7422  -10.0758 C   0  0  0  0  0  0  0  0  0  0  0  0
   24.8147  -19.9358  -11.2754 C   0  0  0  0  0  0  0  0  0  0  0  0
   24.6011  -20.8221  -12.4858 C   0  0  2  0  0  0  0  0  0  0  0  0
   25.8458  -21.0434  -13.1862 N   0  0  0  0  0  0  0  0  0  0  0  0
   23.5659  -20.1641  -13.3303 C   0  0  0  0  0  0  0  0  0  0  0  0
   23.9502  -19.6267  -14.3956 O   0  0  0  0  0  0  0  0  0  0  0  0
   20.6769  -19.1226   -9.0784 N   0  0  0  0  0  0  0  0  0  0  0  0
   22.1950  -20.1137  -13.0006 C   0  0  2  0  0  0  0  0  0  0  0  0
   21.0955  -20.2848  -13.9173 C   0  0  0  0  0  0  0  0  0  0  0  0
   21.1943  -21.5117  -14.7778 C   0  0  0  0  0  0  0  0  0  0  0  0
   21.8832  -21.2545  -16.0830 C   0  0  0  0  0  0  0  0  0  0  0  0
   21.5173  -22.2312  -17.1291 O   0  0  0  0  0  0  0  0  0  0  0  0
   20.3952  -22.7840  -17.2300 C   0  0  0  0  0  0  0  0  0  0  0  0
   19.7583  -20.1897  -13.2668 O   0  0  0  0  0  0  0  0  0  0  0  0
   18.7091  -19.5406  -13.8965 O   0  0  0  0  0  0  0  0  0  0  0  0
   22.4955  -22.5642  -18.0775 O   0  0  0  0  0  0  0  0  0  0  0  0
  1  2  1  0
  3  2  1  0
  3 13  1  0
  4  3  2  0
  5  6  1  0
  6  7  2  0
  6  8  1  0
  8  9  1  0
  9 10  1  0
 10 11  1  0
 12 11  1  1
 12 13  1  0
 12 14  1  0
 14 15  2  0
 14 16  1  0
 16 17  1  0
 17 22  1  0
 18 19  1  0
 17 18  1  1
 20 19  1  0
 21 20  2  0
 22 25  2  0
 22 23  1  0
 24 20  1  0
M  END
$$$$
