GRE.pdb
     RDKit          3D

 25 24  0  0  1  0  0  0  0  0999 V2000
   25.1962  -24.0352  -15.3617 N   0  0  0  0  0  0  0  0  0  0  0  0
   24.9774  -22.6094  -15.2297 C   0  0  0  0  0  0  0  0  0  0  0  0
   23.7187  -22.3744  -14.4605 C   0  0  0  0  0  0  0  0  0  0  0  0
   22.6839  -23.0807  -14.6189 O   0  0  0  0  0  0  0  0  0  0  0  0
   26.8692  -22.1923  -10.6179 N   0  0  0  0  0  0  0  0  0  0  0  0
   26.6875  -20.9983  -11.3801 C   0  0  0  0  0  0  0  0  0  0  0  0
   27.4963  -20.7995  -12.3876 N   0  0  0  0  0  0  0  0  0  0  0  0
   25.6647  -20.0697  -11.0491 N   0  0  0  0  0  0  0  0  0  0  0  0
   24.7568  -20.3704   -9.9789 C   0  0  0  0  0  0  0  0  0  0  0  0
   23.4996  -21.0520  -10.4673 C   0  0  0  0  0  0  0  0  0  0  0  0
   22.7853  -20.2186  -11.5108 C   0  0  0  0  0  0  0  0  0  0  0  0
   22.4511  -21.0417  -12.7385 C   0  0  2  0  0  0  0  0  0  0  0  0
   23.6424  -21.3268  -13.5054 N   0  0  0  0  0  0  0  0  0  0  0  0
   21.4300  -20.2793  -13.5092 C   0  0  0  0  0  0  0  0  0  0  0  0
   21.8458  -19.4011  -14.3012 O   0  0  0  0  0  0  0  0  0  0  0  0
   27.4817  -19.9598  -12.9747 N   0  0  0  0  0  0  0  0  0  0  0  0
   20.0393  -20.4893  -13.3978 C   0  0  1  0  0  0  0  0  0  0  0  0
   19.0357  -20.0338  -14.3272 C   0  0  0  0  0  0  0  0  0  0  0  0
   19.3205  -20.3779  -15.7611 C   0  0  0  0  0  0  0  0  0  0  0  0
   18.2754  -19.8628  -16.7029 C   0  0  0  0  0  0  0  0  0  0  0  0
   18.0024  -20.7884  -17.8213 O   0  0  0  0  0  0  0  0  0  0  0  0
   17.0629  -20.6592  -18.6432 C   0  0  0  0  0  0  0  0  0  0  0  0
   17.6496  -20.4246  -13.9448 O   0  0  0  0  0  0  0  0  0  0  0  0
   17.4170  -21.5662  -13.1955 O   0  0  0  0  0  0  0  0  0  0  0  0
   18.8555  -21.8911  -17.9748 O   0  0  0  0  0  0  0  0  0  0  0  0
  1  2  1  0
  3  2  1  0
  3 13  1  0
  4  3  2  0
  5  6  1  0
  6  7  2  0
  6  8  1  0
  8  9  1  0
  9 10  1  0
 10 11  1  0
 12 11  1  1
 12 13  1  0
 12 14  1  0
 14 15  2  0
 14 16  1  0
 16 17  1  0
 17 22  1  0
 18 19  1  0
 17 18  1  1
 20 19  1  0
 21 20  2  0
 22 25  2  0
 22 23  1  0
 24 20  1  0
M  END
$$$$
