GRE.pdb
     RDKit          3D

 25 24  0  0  1  0  0  0  0  0999 V2000
   26.3805  -11.7855  -16.3440 N   0  0  0  0  0  0  0  0  0  0  0  0
   25.3046  -11.7000  -15.3779 C   0  0  0  0  0  0  0  0  0  0  0  0
   24.2790  -10.7313  -15.8689 C   0  0  0  0  0  0  0  0  0  0  0  0
   24.3641  -10.1638  -16.9939 O   0  0  0  0  0  0  0  0  0  0  0  0
   16.4817  -12.8622  -14.5585 N   0  0  0  0  0  0  0  0  0  0  0  0
   17.1203  -13.1924  -15.7925 C   0  0  0  0  0  0  0  0  0  0  0  0
   16.5572  -14.1099  -16.5340 N   0  0  0  0  0  0  0  0  0  0  0  0
   18.3196  -12.5433  -16.1902 N   0  0  0  0  0  0  0  0  0  0  0  0
   18.9040  -11.5516  -15.3327 C   0  0  0  0  0  0  0  0  0  0  0  0
   20.1928  -10.9958  -15.8931 C   0  0  0  0  0  0  0  0  0  0  0  0
   20.7649   -9.9131  -15.0019 C   0  0  0  0  0  0  0  0  0  0  0  0
   22.1323   -9.4703  -15.4822 C   0  0  2  0  0  0  0  0  0  0  0  0
   23.1503  -10.4097  -15.0702 N   0  0  0  0  0  0  0  0  0  0  0  0
   22.3567   -8.0971  -14.9512 C   0  0  0  0  0  0  0  0  0  0  0  0
   22.7025   -7.9950  -13.7506 O   0  0  0  0  0  0  0  0  0  0  0  0
   16.9362  -14.4324  -17.4297 N   0  0  0  0  0  0  0  0  0  0  0  0
   22.2033   -6.9214  -15.7158 C   0  0  2  0  0  0  0  0  0  0  0  0
   22.4378   -5.5749  -15.2572 C   0  0  0  0  0  0  0  0  0  0  0  0
   22.2811   -4.5248  -16.3193 C   0  0  0  0  0  0  0  0  0  0  0  0
   22.6052   -3.1468  -15.8291 C   0  0  0  0  0  0  0  0  0  0  0  0
   22.3548   -2.1018  -16.8428 O   0  0  0  0  0  0  0  0  0  0  0  0
   21.9197   -2.3178  -17.9999 C   0  0  0  0  0  0  0  0  0  0  0  0
   21.6668   -5.2209  -14.0322 O   0  0  0  0  0  0  0  0  0  0  0  0
   22.2680   -4.5326  -12.9913 O   0  0  0  0  0  0  0  0  0  0  0  0
   22.6232   -0.7724  -16.4851 O   0  0  0  0  0  0  0  0  0  0  0  0
  1  2  1  0
  3  2  1  0
  3 13  1  0
  4  3  2  0
  5  6  1  0
  6  7  2  0
  6  8  1  0
  8  9  1  0
  9 10  1  0
 10 11  1  0
 12 11  1  1
 12 13  1  0
 12 14  1  0
 14 15  2  0
 14 16  1  0
 16 17  1  0
 17 22  1  0
 18 19  1  0
 17 18  1  6
 20 19  1  0
 21 20  2  0
 22 25  2  0
 22 23  1  0
 24 20  1  0
M  END
$$$$
