SRD.pdb
     RDKit          3D

 26 25  0  0  1  0  0  0  0  0999 V2000
   15.6093  -13.4909  -18.4442 O   0  0  0  0  0  0  0  0  0  0  0  0
   16.2085  -13.3485  -17.2000 C   0  0  0  0  0  0  0  0  0  0  0  0
   17.5565  -14.0419  -17.1708 C   0  0  2  0  0  0  0  0  0  0  0  0
   17.3283  -15.3707  -16.6199 N   0  0  0  0  0  0  0  0  0  0  0  0
   18.4809  -13.3395  -16.2297 C   0  0  0  0  0  0  0  0  0  0  0  0
   18.2249  -13.2106  -15.0060 O   0  0  0  0  0  0  0  0  0  0  0  0
   25.5375  -14.2646  -17.4099 N   0  0  0  0  0  0  0  0  0  0  0  0
   24.9520  -14.7719  -16.2174 C   0  0  0  0  0  0  0  0  0  0  0  0
   24.9036  -16.0476  -15.9980 N   0  0  0  0  0  0  0  0  0  0  0  0
   24.4039  -13.9186  -15.2292 N   0  0  0  0  0  0  0  0  0  0  0  0
   24.3989  -12.4806  -15.3364 C   0  0  0  0  0  0  0  0  0  0  0  0
   22.9838  -11.9504  -15.0504 C   0  0  0  0  0  0  0  0  0  0  0  0
   21.9855  -12.5647  -15.9670 C   0  0  0  0  0  0  0  0  0  0  0  0
   20.5860  -12.0291  -15.8010 C   0  0  2  0  0  0  0  0  0  0  0  0
   19.7050  -12.7816  -16.6906 N   0  0  0  0  0  0  0  0  0  0  0  0
   20.5523  -10.5915  -16.1046 C   0  0  0  0  0  0  0  0  0  0  0  0
   20.7377  -10.1043  -17.2461 O   0  0  0  0  0  0  0  0  0  0  0  0
   24.4087  -16.4438  -15.1545 N   0  0  0  0  0  0  0  0  0  0  0  0
   20.2971   -9.5922  -15.0940 C   0  0  1  0  0  0  0  0  0  0  0  0
   20.1896   -8.1825  -15.4039 C   0  0  0  0  0  0  0  0  0  0  0  0
   18.7745   -7.6741  -15.2949 C   0  0  0  0  0  0  0  0  0  0  0  0
   18.6406   -6.2354  -15.4812 O   0  0  0  0  0  0  0  0  0  0  0  0
   19.4052   -5.6354  -16.2714 C   0  0  0  0  0  0  0  0  0  0  0  0
   21.0807   -7.4492  -14.4731 O   0  0  0  0  0  0  0  0  0  0  0  0
   21.4069   -6.1147  -14.6604 O   0  0  0  0  0  0  0  0  0  0  0  0
   17.6847   -5.5033  -14.8062 O   0  0  0  0  0  0  0  0  0  0  0  0
  2  1  1  0
  3  5  1  0
  3  2  1  0
  3  4  1  1
  5  6  2  0
  8  7  1  0
  8  9  2  0
 10  8  1  0
 11 10  1  0
 11 12  1  0
 12 13  1  0
 14 13  1  6
 15 14  1  0
 15  5  1  0
 16 17  2  0
 16 14  1  0
 18 16  1  0
 19 23  1  0
 19 18  1  0
 19 20  1  1
 21 20  1  0
 22 21  2  0
 23 24  1  0
 25 21  1  0
 26 23  2  0
M  END
$$$$
