SRD.pdb
     RDKit          3D

 26 25  0  0  1  0  0  0  0  0999 V2000
   26.2902  -22.9263  -15.2391 O   0  0  0  0  0  0  0  0  0  0  0  0
   25.0970  -22.2250  -15.1296 C   0  0  0  0  0  0  0  0  0  0  0  0
   25.2593  -21.0293  -14.2115 C   0  0  2  0  0  0  0  0  0  0  0  0
   25.4986  -21.5602  -12.8765 N   0  0  0  0  0  0  0  0  0  0  0  0
   23.9850  -20.2514  -14.1426 C   0  0  0  0  0  0  0  0  0  0  0  0
   23.1164  -20.4600  -13.2586 O   0  0  0  0  0  0  0  0  0  0  0  0
   26.2613  -13.6474  -15.3280 N   0  0  0  0  0  0  0  0  0  0  0  0
   25.9855  -14.4908  -16.4392 C   0  0  0  0  0  0  0  0  0  0  0  0
   26.9312  -14.8387  -17.2532 N   0  0  0  0  0  0  0  0  0  0  0  0
   24.6841  -14.9825  -16.7026 N   0  0  0  0  0  0  0  0  0  0  0  0
   23.5547  -14.7417  -15.8389 C   0  0  0  0  0  0  0  0  0  0  0  0
   23.3117  -15.9778  -14.9565 C   0  0  0  0  0  0  0  0  0  0  0  0
   22.7818  -17.1136  -15.7585 C   0  0  0  0  0  0  0  0  0  0  0  0
   22.5308  -18.3671  -14.9593 C   0  0  2  0  0  0  0  0  0  0  0  0
   23.7029  -19.2292  -15.0900 N   0  0  0  0  0  0  0  0  0  0  0  0
   21.3151  -19.0403  -15.4376 C   0  0  0  0  0  0  0  0  0  0  0  0
   21.2717  -19.7974  -16.4374 O   0  0  0  0  0  0  0  0  0  0  0  0
   26.7289  -15.3888  -18.1306 N   0  0  0  0  0  0  0  0  0  0  0  0
   20.0365  -18.8861  -14.7846 C   0  0  1  0  0  0  0  0  0  0  0  0
   18.8535  -19.6018  -15.2123 C   0  0  0  0  0  0  0  0  0  0  0  0
   18.1816  -20.3350  -14.0792 C   0  0  0  0  0  0  0  0  0  0  0  0
   18.4479  -21.7672  -14.0532 O   0  0  0  0  0  0  0  0  0  0  0  0
   19.2039  -22.2763  -14.9123 C   0  0  0  0  0  0  0  0  0  0  0  0
   17.9268  -18.6156  -15.8179 O   0  0  0  0  0  0  0  0  0  0  0  0
   17.0106  -18.9677  -16.7973 O   0  0  0  0  0  0  0  0  0  0  0  0
   17.8866  -22.5912  -13.0985 O   0  0  0  0  0  0  0  0  0  0  0  0
  2  1  1  0
  3  5  1  0
  3  2  1  0
  3  4  1  1
  5  6  2  0
  8  7  1  0
  8  9  2  0
 10  8  1  0
 11 10  1  0
 11 12  1  0
 12 13  1  0
 14 13  1  6
 15 14  1  0
 15  5  1  0
 16 17  2  0
 16 14  1  0
 18 16  1  0
 19 23  1  0
 19 18  1  0
 19 20  1  6
 21 20  1  0
 22 21  2  0
 23 24  1  0
 25 21  1  0
 26 23  2  0
M  END
$$$$
