SRD.pdb
     RDKit          3D

 26 25  0  0  1  0  0  0  0  0999 V2000
   17.6623  -13.0239  -14.2412 O   0  0  0  0  0  0  0  0  0  0  0  0
   17.2641  -11.7271  -13.9457 C   0  0  0  0  0  0  0  0  0  0  0  0
   16.1527  -11.7287  -12.9144 C   0  0  2  0  0  0  0  0  0  0  0  0
   14.9548  -12.2004  -13.5955 N   0  0  0  0  0  0  0  0  0  0  0  0
   15.8667  -10.3345  -12.4580 C   0  0  0  0  0  0  0  0  0  0  0  0
   15.2810   -9.4948  -13.1869 O   0  0  0  0  0  0  0  0  0  0  0  0
   12.8846   -4.8957   -9.2049 N   0  0  0  0  0  0  0  0  0  0  0  0
   13.7424   -4.6646   -8.0944 C   0  0  0  0  0  0  0  0  0  0  0  0
   13.9892   -3.4582   -7.6923 N   0  0  0  0  0  0  0  0  0  0  0  0
   14.3564   -5.7266   -7.3873 N   0  0  0  0  0  0  0  0  0  0  0  0
   14.4758   -7.0648   -7.9114 C   0  0  0  0  0  0  0  0  0  0  0  0
   15.8739   -7.2522   -8.5241 C   0  0  0  0  0  0  0  0  0  0  0  0
   16.0056   -8.5906   -9.1608 C   0  0  0  0  0  0  0  0  0  0  0  0
   15.9039   -8.5695  -10.6649 C   0  0  2  0  0  0  0  0  0  0  0  0
   16.2525   -9.8986  -11.1607 N   0  0  0  0  0  0  0  0  0  0  0  0
   16.7942   -7.5404  -11.2203 C   0  0  0  0  0  0  0  0  0  0  0  0
   18.0366   -7.6691  -11.3409 O   0  0  0  0  0  0  0  0  0  0  0  0
   14.5946   -3.2712   -6.8484 N   0  0  0  0  0  0  0  0  0  0  0  0
   16.3064   -6.2637  -11.6862 C   0  0  2  0  0  0  0  0  0  0  0  0
   17.1185   -5.3615  -12.4743 C   0  0  0  0  0  0  0  0  0  0  0  0
   17.6633   -6.0141  -13.7194 C   0  0  0  0  0  0  0  0  0  0  0  0
   18.3739   -5.1046  -14.6085 O   0  0  0  0  0  0  0  0  0  0  0  0
   18.5728   -3.9187  -14.2579 C   0  0  0  0  0  0  0  0  0  0  0  0
   16.2787   -4.1908  -12.8237 O   0  0  0  0  0  0  0  0  0  0  0  0
   16.8196   -2.9334  -13.0448 O   0  0  0  0  0  0  0  0  0  0  0  0
   18.8417   -5.5144  -15.8409 O   0  0  0  0  0  0  0  0  0  0  0  0
  2  1  1  0
  3  5  1  0
  3  2  1  0
  3  4  1  6
  5  6  2  0
  8  7  1  0
  8  9  2  0
 10  8  1  0
 11 10  1  0
 11 12  1  0
 12 13  1  0
 14 13  1  1
 15 14  1  0
 15  5  1  0
 16 17  2  0
 16 14  1  0
 18 16  1  0
 19 23  1  0
 19 18  1  0
 19 20  1  6
 21 20  1  0
 22 21  2  0
 23 24  1  0
 25 21  1  0
 26 23  2  0
M  END
$$$$
