SRD.pdb
     RDKit          3D

 26 25  0  0  1  0  0  0  0  0999 V2000
   14.8719   -2.0157   -8.2770 O   0  0  0  0  0  0  0  0  0  0  0  0
   15.6121   -3.1576   -8.5521 C   0  0  0  0  0  0  0  0  0  0  0  0
   15.0524   -4.3530   -7.8060 C   0  0  2  0  0  0  0  0  0  0  0  0
   15.3760   -4.1537   -6.4000 N   0  0  0  0  0  0  0  0  0  0  0  0
   15.7488   -5.6041   -8.2342 C   0  0  0  0  0  0  0  0  0  0  0  0
   16.8337   -5.9790   -7.7224 O   0  0  0  0  0  0  0  0  0  0  0  0
   12.4527  -13.6814  -10.6241 N   0  0  0  0  0  0  0  0  0  0  0  0
   13.6891  -13.3871  -11.2620 C   0  0  0  0  0  0  0  0  0  0  0  0
   14.0984  -14.0972  -12.2652 N   0  0  0  0  0  0  0  0  0  0  0  0
   14.5169  -12.3199  -10.8370 N   0  0  0  0  0  0  0  0  0  0  0  0
   14.0131  -11.0139  -10.4908 C   0  0  0  0  0  0  0  0  0  0  0  0
   15.1928  -10.0625  -10.2286 C   0  0  0  0  0  0  0  0  0  0  0  0
   14.7141   -8.7140   -9.8208 C   0  0  0  0  0  0  0  0  0  0  0  0
   15.8158   -7.7052   -9.6174 C   0  0  2  0  0  0  0  0  0  0  0  0
   15.2011   -6.4311   -9.2530 N   0  0  0  0  0  0  0  0  0  0  0  0
   16.6229   -7.5802  -10.8393 C   0  0  0  0  0  0  0  0  0  0  0  0
   16.2857   -6.9099  -11.8451 O   0  0  0  0  0  0  0  0  0  0  0  0
   15.0125  -13.8909  -12.7503 N   0  0  0  0  0  0  0  0  0  0  0  0
   17.9023   -8.2319  -10.9925 C   0  0  2  0  0  0  0  0  0  0  0  0
   18.7077   -8.0931  -12.1869 C   0  0  0  0  0  0  0  0  0  0  0  0
   20.1064   -8.6252  -12.0047 C   0  0  0  0  0  0  0  0  0  0  0  0
   20.9203   -8.5919  -13.2126 O   0  0  0  0  0  0  0  0  0  0  0  0
   20.5550   -7.9013  -14.1916 C   0  0  0  0  0  0  0  0  0  0  0  0
   18.0141   -8.8129  -13.2819 O   0  0  0  0  0  0  0  0  0  0  0  0
   17.7124   -8.2045  -14.4908 O   0  0  0  0  0  0  0  0  0  0  0  0
   22.0972   -9.3062  -13.3131 O   0  0  0  0  0  0  0  0  0  0  0  0
  2  1  1  0
  3  5  1  0
  3  2  1  0
  3  4  1  1
  5  6  2  0
  8  7  1  0
  8  9  2  0
 10  8  1  0
 11 10  1  0
 11 12  1  0
 12 13  1  0
 14 13  1  6
 15 14  1  0
 15  5  1  0
 16 17  2  0
 16 14  1  0
 18 16  1  0
 19 23  1  0
 19 18  1  0
 19 20  1  1
 21 20  1  0
 22 21  2  0
 23 24  1  0
 25 21  1  0
 26 23  2  0
M  END
$$$$
