SRD.pdb
     RDKit          3D

 26 25  0  0  1  0  0  0  0  0999 V2000
   21.2942  -33.2746   -5.2700 O   0  0  0  0  0  0  0  0  0  0  0  0
   22.6276  -33.5756   -5.0274 C   0  0  0  0  0  0  0  0  0  0  0  0
   23.2482  -34.2677   -6.2252 C   0  0  2  0  0  0  0  0  0  0  0  0
   24.6450  -34.5067   -5.8892 N   0  0  0  0  0  0  0  0  0  0  0  0
   23.2410  -33.3582   -7.4111 C   0  0  0  0  0  0  0  0  0  0  0  0
   24.0624  -32.4160   -7.5414 O   0  0  0  0  0  0  0  0  0  0  0  0
   25.5770  -32.1044  -14.7090 N   0  0  0  0  0  0  0  0  0  0  0  0
   25.8641  -32.9437  -13.5975 C   0  0  0  0  0  0  0  0  0  0  0  0
   27.0736  -33.0484  -13.1459 N   0  0  0  0  0  0  0  0  0  0  0  0
   24.8560  -33.6917  -12.9424 N   0  0  0  0  0  0  0  0  0  0  0  0
   23.4480  -33.5304  -13.2093 C   0  0  0  0  0  0  0  0  0  0  0  0
   22.8052  -32.7007  -12.0850 C   0  0  0  0  0  0  0  0  0  0  0  0
   22.8221  -33.4417  -10.7947 C   0  0  0  0  0  0  0  0  0  0  0  0
   22.2772  -32.6581   -9.6277 C   0  0  2  0  0  0  0  0  0  0  0  0
   22.2891  -33.5274   -8.4538 N   0  0  0  0  0  0  0  0  0  0  0  0
   20.9200  -32.1795   -9.9258 C   0  0  0  0  0  0  0  0  0  0  0  0
   19.9050  -32.9156   -9.9775 O   0  0  0  0  0  0  0  0  0  0  0  0
   27.2992  -33.6477  -12.3071 N   0  0  0  0  0  0  0  0  0  0  0  0
   20.6294  -30.7901  -10.1908 C   0  0  2  0  0  0  0  0  0  0  0  0
   19.2941  -30.3180  -10.4884 C   0  0  0  0  0  0  0  0  0  0  0  0
   19.1353  -28.8400  -10.2368 C   0  0  0  0  0  0  0  0  0  0  0  0
   17.8004  -28.3267  -10.5145 O   0  0  0  0  0  0  0  0  0  0  0  0
   17.6589  -27.3246  -11.2524 C   0  0  0  0  0  0  0  0  0  0  0  0
   19.0104  -30.6391  -11.9077 O   0  0  0  0  0  0  0  0  0  0  0  0
   20.0060  -31.0317  -12.7893 O   0  0  0  0  0  0  0  0  0  0  0  0
   16.6718  -28.9184   -9.9837 O   0  0  0  0  0  0  0  0  0  0  0  0
  2  1  1  0
  3  5  1  0
  3  2  1  0
  3  4  1  1
  5  6  2  0
  8  7  1  0
  8  9  2  0
 10  8  1  0
 11 10  1  0
 11 12  1  0
 12 13  1  0
 14 13  1  6
 15 14  1  0
 15  5  1  0
 16 17  2  0
 16 14  1  0
 18 16  1  0
 19 23  1  0
 19 18  1  0
 19 20  1  1
 21 20  1  0
 22 21  2  0
 23 24  1  0
 25 21  1  0
 26 23  2  0
M  END
$$$$
