SRD.pdb
     RDKit          3D

 26 25  0  0  1  0  0  0  0  0999 V2000
   16.9564  -10.2656  -16.7018 O   0  0  0  0  0  0  0  0  0  0  0  0
   17.9110   -9.5775  -15.9652 C   0  0  0  0  0  0  0  0  0  0  0  0
   19.1251  -10.4497  -15.7120 C   0  0  2  0  0  0  0  0  0  0  0  0
   18.7284  -11.4346  -14.7151 N   0  0  0  0  0  0  0  0  0  0  0  0
   20.2262   -9.6423  -15.1041 C   0  0  0  0  0  0  0  0  0  0  0  0
   20.1759   -9.2185  -13.9220 O   0  0  0  0  0  0  0  0  0  0  0  0
   28.1810  -12.7352  -15.1448 N   0  0  0  0  0  0  0  0  0  0  0  0
   27.1623  -12.4341  -16.0903 C   0  0  0  0  0  0  0  0  0  0  0  0
   27.3265  -12.7083  -17.3456 N   0  0  0  0  0  0  0  0  0  0  0  0
   25.9397  -11.8304  -15.7088 N   0  0  0  0  0  0  0  0  0  0  0  0
   25.5553  -10.4978  -16.1035 C   0  0  0  0  0  0  0  0  0  0  0  0
   24.1899  -10.1539  -15.4846 C   0  0  0  0  0  0  0  0  0  0  0  0
   23.7364   -8.8003  -15.9042 C   0  0  0  0  0  0  0  0  0  0  0  0
   22.3995   -8.3956  -15.3367 C   0  0  2  0  0  0  0  0  0  0  0  0
   21.3911   -9.3182  -15.8522 N   0  0  0  0  0  0  0  0  0  0  0  0
   22.0911   -7.0061  -15.7030 C   0  0  0  0  0  0  0  0  0  0  0  0
   21.7229   -6.6400  -16.8454 O   0  0  0  0  0  0  0  0  0  0  0  0
   26.5922  -12.4661  -18.0637 N   0  0  0  0  0  0  0  0  0  0  0  0
   22.1868   -5.9170  -14.7597 C   0  0  1  0  0  0  0  0  0  0  0  0
   21.9206   -4.5431  -15.1287 C   0  0  0  0  0  0  0  0  0  0  0  0
   21.1162   -3.8109  -14.0848 C   0  0  0  0  0  0  0  0  0  0  0  0
   20.8091   -2.4287  -14.4281 O   0  0  0  0  0  0  0  0  0  0  0  0
   21.1484   -1.9737  -15.5446 C   0  0  0  0  0  0  0  0  0  0  0  0
   23.2266   -3.8752  -15.3442 O   0  0  0  0  0  0  0  0  0  0  0  0
   23.4040   -2.8935  -16.3072 O   0  0  0  0  0  0  0  0  0  0  0  0
   20.1467   -1.5943  -13.5505 O   0  0  0  0  0  0  0  0  0  0  0  0
  2  1  1  0
  3  5  1  0
  3  2  1  0
  3  4  1  1
  5  6  2  0
  8  7  1  0
  8  9  2  0
 10  8  1  0
 11 10  1  0
 11 12  1  0
 12 13  1  0
 14 13  1  6
 15 14  1  0
 15  5  1  0
 16 17  2  0
 16 14  1  0
 18 16  1  0
 19 23  1  0
 19 18  1  0
 19 20  1  1
 21 20  1  0
 22 21  2  0
 23 24  1  0
 25 21  1  0
 26 23  2  0
M  END
$$$$
