SRD.pdb
     RDKit          3D

 26 25  0  0  1  0  0  0  0  0999 V2000
   19.0929  -11.4334  -15.5712 O   0  0  0  0  0  0  0  0  0  0  0  0
   18.9890  -12.2479  -14.4517 C   0  0  0  0  0  0  0  0  0  0  0  0
   17.5359  -12.5442  -14.1363 C   0  0  2  0  0  0  0  0  0  0  0  0
   16.9695  -13.1604  -15.3283 N   0  0  0  0  0  0  0  0  0  0  0  0
   16.7840  -11.2721  -13.9116 C   0  0  0  0  0  0  0  0  0  0  0  0
   16.2887  -10.6076  -14.8563 O   0  0  0  0  0  0  0  0  0  0  0  0
   13.2082   -8.2138   -6.3170 N   0  0  0  0  0  0  0  0  0  0  0  0
   13.9231   -7.1859   -6.9912 C   0  0  0  0  0  0  0  0  0  0  0  0
   14.1841   -6.0654   -6.3959 N   0  0  0  0  0  0  0  0  0  0  0  0
   14.3766   -7.3378   -8.3239 N   0  0  0  0  0  0  0  0  0  0  0  0
   14.0227   -8.4583   -9.1599 C   0  0  0  0  0  0  0  0  0  0  0  0
   14.6534   -8.2789  -10.5511 C   0  0  0  0  0  0  0  0  0  0  0  0
   15.5025   -9.4470  -10.9098 C   0  0  0  0  0  0  0  0  0  0  0  0
   15.8985   -9.4968  -12.3636 C   0  0  2  0  0  0  0  0  0  0  0  0
   16.5977  -10.7576  -12.5992 N   0  0  0  0  0  0  0  0  0  0  0  0
   16.7458   -8.3439  -12.6998 C   0  0  0  0  0  0  0  0  0  0  0  0
   17.9922   -8.3157  -12.5572 O   0  0  0  0  0  0  0  0  0  0  0  0
   14.6925   -5.2838   -6.8900 N   0  0  0  0  0  0  0  0  0  0  0  0
   16.2063   -7.1162  -13.2353 C   0  0  1  0  0  0  0  0  0  0  0  0
   17.0472   -6.0545  -13.7453 C   0  0  0  0  0  0  0  0  0  0  0  0
   17.9730   -6.5263  -14.8377 C   0  0  0  0  0  0  0  0  0  0  0  0
   18.6676   -5.4532  -15.5368 O   0  0  0  0  0  0  0  0  0  0  0  0
   19.2943   -4.5873  -14.8840 C   0  0  0  0  0  0  0  0  0  0  0  0
   16.1580   -4.9779  -14.2437 O   0  0  0  0  0  0  0  0  0  0  0  0
   16.6098   -3.6834  -14.4503 O   0  0  0  0  0  0  0  0  0  0  0  0
   18.6575   -5.3602  -16.9140 O   0  0  0  0  0  0  0  0  0  0  0  0
  2  1  1  0
  3  5  1  0
  3  2  1  0
  3  4  1  6
  5  6  2  0
  8  7  1  0
  8  9  2  0
 10  8  1  0
 11 10  1  0
 11 12  1  0
 12 13  1  0
 14 13  1  1
 15 14  1  0
 15  5  1  0
 16 17  2  0
 16 14  1  0
 18 16  1  0
 19 23  1  0
 19 18  1  0
 19 20  1  6
 21 20  1  0
 22 21  2  0
 23 24  1  0
 25 21  1  0
 26 23  2  0
M  END
$$$$
