SRD.pdb
     RDKit          3D

 26 25  0  0  1  0  0  0  0  0999 V2000
   15.9520  -12.2344  -10.5082 O   0  0  0  0  0  0  0  0  0  0  0  0
   16.1182  -10.8766  -10.7454 C   0  0  0  0  0  0  0  0  0  0  0  0
   15.0194  -10.0759  -10.0742 C   0  0  2  0  0  0  0  0  0  0  0  0
   13.7695  -10.4746  -10.7064 N   0  0  0  0  0  0  0  0  0  0  0  0
   15.1959   -8.6181  -10.3525 C   0  0  0  0  0  0  0  0  0  0  0  0
   14.9188   -8.1076  -11.4669 O   0  0  0  0  0  0  0  0  0  0  0  0
   13.0677   -2.6545   -4.8864 N   0  0  0  0  0  0  0  0  0  0  0  0
   12.5073   -3.8663   -5.3762 C   0  0  0  0  0  0  0  0  0  0  0  0
   11.4508   -4.3739   -4.8249 N   0  0  0  0  0  0  0  0  0  0  0  0
   13.0696   -4.5629   -6.4733 N   0  0  0  0  0  0  0  0  0  0  0  0
   13.8411   -3.9219   -7.5093 C   0  0  0  0  0  0  0  0  0  0  0  0
   14.1487   -4.9381   -8.6221 C   0  0  0  0  0  0  0  0  0  0  0  0
   15.5102   -5.5159   -8.4595 C   0  0  0  0  0  0  0  0  0  0  0  0
   15.9757   -6.3353   -9.6363 C   0  0  2  0  0  0  0  0  0  0  0  0
   15.6920   -7.7395   -9.3505 N   0  0  0  0  0  0  0  0  0  0  0  0
   17.4096   -6.1163   -9.8731 C   0  0  0  0  0  0  0  0  0  0  0  0
   18.2867   -6.1369   -8.9759 O   0  0  0  0  0  0  0  0  0  0  0  0
   10.9962   -5.2472   -5.2045 N   0  0  0  0  0  0  0  0  0  0  0  0
   17.9462   -5.8527  -11.1875 C   0  0  1  0  0  0  0  0  0  0  0  0
   19.3539   -5.6087  -11.4182 C   0  0  0  0  0  0  0  0  0  0  0  0
   20.1003   -6.8597  -11.8065 C   0  0  0  0  0  0  0  0  0  0  0  0
   21.4940   -6.6362  -12.1671 O   0  0  0  0  0  0  0  0  0  0  0  0
   22.1216   -5.6758  -11.6645 C   0  0  0  0  0  0  0  0  0  0  0  0
   19.4630   -4.5839  -12.4840 O   0  0  0  0  0  0  0  0  0  0  0  0
   20.6326   -3.8740  -12.7091 O   0  0  0  0  0  0  0  0  0  0  0  0
   22.1535   -7.4607  -13.0563 O   0  0  0  0  0  0  0  0  0  0  0  0
  2  1  1  0
  3  5  1  0
  3  2  1  0
  3  4  1  6
  5  6  2  0
  8  7  1  0
  8  9  2  0
 10  8  1  0
 11 10  1  0
 11 12  1  0
 12 13  1  0
 14 13  1  1
 15 14  1  0
 15  5  1  0
 16 17  2  0
 16 14  1  0
 18 16  1  0
 19 23  1  0
 19 18  1  0
 19 20  1  6
 21 20  1  0
 22 21  2  0
 23 24  1  0
 25 21  1  0
 26 23  2  0
M  END
$$$$
