SRD.pdb
     RDKit          3D

 26 25  0  0  1  0  0  0  0  0999 V2000
   25.8234  -12.5716  -19.3920 O   0  0  0  0  0  0  0  0  0  0  0  0
   25.9671  -13.3368  -20.5415 C   0  0  0  0  0  0  0  0  0  0  0  0
   25.5106  -14.7620  -20.2982 C   0  0  2  0  0  0  0  0  0  0  0  0
   25.5983  -15.4506  -21.5786 N   0  0  0  0  0  0  0  0  0  0  0  0
   24.0713  -14.7842  -19.8961 C   0  0  0  0  0  0  0  0  0  0  0  0
   23.1401  -14.5925  -20.7181 O   0  0  0  0  0  0  0  0  0  0  0  0
   19.7463  -18.9371  -13.3279 N   0  0  0  0  0  0  0  0  0  0  0  0
   19.1976  -17.6398  -13.5237 C   0  0  0  0  0  0  0  0  0  0  0  0
   18.2516  -17.2016  -12.7549 N   0  0  0  0  0  0  0  0  0  0  0  0
   19.6537  -16.7799  -14.5520 N   0  0  0  0  0  0  0  0  0  0  0  0
   20.3808  -17.2417  -15.7086 C   0  0  0  0  0  0  0  0  0  0  0  0
   20.6052  -16.0668  -16.6754 C   0  0  0  0  0  0  0  0  0  0  0  0
   22.0183  -16.0156  -17.1385 C   0  0  0  0  0  0  0  0  0  0  0  0
   22.3099  -14.8935  -18.1023 C   0  0  2  0  0  0  0  0  0  0  0  0
   23.6951  -15.0271  -18.5465 N   0  0  0  0  0  0  0  0  0  0  0  0
   22.0780  -13.5943  -17.4555 C   0  0  0  0  0  0  0  0  0  0  0  0
   22.8714  -13.0541  -16.6472 O   0  0  0  0  0  0  0  0  0  0  0  0
   17.8298  -16.2440  -12.8906 N   0  0  0  0  0  0  0  0  0  0  0  0
   20.8911  -12.8088  -17.6990 C   0  0  1  0  0  0  0  0  0  0  0  0
   20.6768  -11.5141  -17.0887 C   0  0  0  0  0  0  0  0  0  0  0  0
   20.3710  -10.4416  -18.1033 C   0  0  0  0  0  0  0  0  0  0  0  0
   20.1019   -9.1317  -17.5251 O   0  0  0  0  0  0  0  0  0  0  0  0
   20.9413   -8.6037  -16.7599 C   0  0  0  0  0  0  0  0  0  0  0  0
   19.5603  -11.6524  -16.1231 O   0  0  0  0  0  0  0  0  0  0  0  0
   18.9353  -12.8672  -15.8857 O   0  0  0  0  0  0  0  0  0  0  0  0
   18.9362   -8.4448  -17.7984 O   0  0  0  0  0  0  0  0  0  0  0  0
  2  1  1  0
  3  5  1  0
  3  2  1  0
  3  4  1  6
  5  6  2  0
  8  7  1  0
  8  9  2  0
 10  8  1  0
 11 10  1  0
 11 12  1  0
 12 13  1  0
 14 13  1  1
 15 14  1  0
 15  5  1  0
 16 17  2  0
 16 14  1  0
 18 16  1  0
 19 23  1  0
 19 18  1  0
 19 20  1  6
 21 20  1  0
 22 21  2  0
 23 24  1  0
 25 21  1  0
 26 23  2  0
M  END
$$$$
