SRD.pdb
     RDKit          3D

 26 25  0  0  1  0  0  0  0  0999 V2000
   26.7852  -18.0684  -17.7926 O   0  0  0  0  0  0  0  0  0  0  0  0
   28.0598  -18.3231  -17.3046 C   0  0  0  0  0  0  0  0  0  0  0  0
   28.2774  -19.8126  -17.1232 C   0  0  2  0  0  0  0  0  0  0  0  0
   28.0548  -20.4264  -18.4251 N   0  0  0  0  0  0  0  0  0  0  0  0
   27.2477  -20.3786  -16.1996 C   0  0  0  0  0  0  0  0  0  0  0  0
   26.2672  -21.0471  -16.6136 O   0  0  0  0  0  0  0  0  0  0  0  0
   23.4838  -20.0786   -9.9285 N   0  0  0  0  0  0  0  0  0  0  0  0
   24.1005  -20.9567   -8.9953 C   0  0  0  0  0  0  0  0  0  0  0  0
   23.4055  -21.5103   -8.0528 N   0  0  0  0  0  0  0  0  0  0  0  0
   25.4819  -21.2624   -9.0529 N   0  0  0  0  0  0  0  0  0  0  0  0
   26.3819  -20.6887  -10.0226 C   0  0  0  0  0  0  0  0  0  0  0  0
   25.8065  -20.8856  -11.4352 C   0  0  0  0  0  0  0  0  0  0  0  0
   26.7698  -20.4325  -12.4749 C   0  0  0  0  0  0  0  0  0  0  0  0
   26.2787  -20.6117  -13.8890 C   0  0  2  0  0  0  0  0  0  0  0  0
   27.3400  -20.1791  -14.7947 N   0  0  0  0  0  0  0  0  0  0  0  0
   25.0462  -19.8397  -14.1010 C   0  0  0  0  0  0  0  0  0  0  0  0
   24.9665  -18.5914  -14.0007 O   0  0  0  0  0  0  0  0  0  0  0  0
   23.8512  -22.1506   -7.3422 N   0  0  0  0  0  0  0  0  0  0  0  0
   23.7920  -20.4637  -14.4511 C   0  0  1  0  0  0  0  0  0  0  0  0
   22.5880  -19.7014  -14.7038 C   0  0  0  0  0  0  0  0  0  0  0  0
   22.2878  -19.5680  -16.1752 C   0  0  0  0  0  0  0  0  0  0  0  0
   21.1011  -18.7772  -16.4735 O   0  0  0  0  0  0  0  0  0  0  0  0
   20.5086  -18.1702  -15.5519 C   0  0  0  0  0  0  0  0  0  0  0  0
   21.4716  -20.3802  -14.0030 O   0  0  0  0  0  0  0  0  0  0  0  0
   20.4479  -19.6753  -13.3885 O   0  0  0  0  0  0  0  0  0  0  0  0
   20.6031  -18.6739  -17.7567 O   0  0  0  0  0  0  0  0  0  0  0  0
  2  1  1  0
  3  5  1  0
  3  2  1  0
  3  4  1  6
  5  6  2  0
  8  7  1  0
  8  9  2  0
 10  8  1  0
 11 10  1  0
 11 12  1  0
 12 13  1  0
 14 13  1  1
 15 14  1  0
 15  5  1  0
 16 17  2  0
 16 14  1  0
 18 16  1  0
 19 23  1  0
 19 18  1  0
 19 20  1  6
 21 20  1  0
 22 21  2  0
 23 24  1  0
 25 21  1  0
 26 23  2  0
M  END
$$$$
