SRD.pdb
     RDKit          3D

 26 25  0  0  1  0  0  0  0  0999 V2000
   25.0484  -10.6439  -15.2014 O   0  0  0  0  0  0  0  0  0  0  0  0
   24.3094  -11.7934  -14.9567 C   0  0  0  0  0  0  0  0  0  0  0  0
   23.4892  -12.1736  -16.1739 C   0  0  2  0  0  0  0  0  0  0  0  0
   24.4302  -12.3414  -17.2729 N   0  0  0  0  0  0  0  0  0  0  0  0
   22.5776  -11.0526  -16.5560 C   0  0  0  0  0  0  0  0  0  0  0  0
   22.8246  -10.2828  -17.5182 O   0  0  0  0  0  0  0  0  0  0  0  0
   14.5157  -12.2295  -16.2301 N   0  0  0  0  0  0  0  0  0  0  0  0
   15.7789  -12.7924  -15.8987 C   0  0  0  0  0  0  0  0  0  0  0  0
   15.8523  -13.9263  -15.2767 N   0  0  0  0  0  0  0  0  0  0  0  0
   16.9964  -12.1494  -16.2291 N   0  0  0  0  0  0  0  0  0  0  0  0
   17.1076  -11.1366  -17.2496 C   0  0  0  0  0  0  0  0  0  0  0  0
   18.5756  -10.6952  -17.3755 C   0  0  0  0  0  0  0  0  0  0  0  0
   19.0827  -10.1457  -16.0891 C   0  0  0  0  0  0  0  0  0  0  0  0
   20.5136   -9.6738  -16.1427 C   0  0  2  0  0  0  0  0  0  0  0  0
   21.3770  -10.8108  -15.8335 N   0  0  0  0  0  0  0  0  0  0  0  0
   20.7211   -8.5705  -15.1942 C   0  0  0  0  0  0  0  0  0  0  0  0
   20.8256   -8.7148  -13.9520 O   0  0  0  0  0  0  0  0  0  0  0  0
   16.7814  -14.3535  -15.0166 N   0  0  0  0  0  0  0  0  0  0  0  0
   20.8254   -7.1940  -15.6179 C   0  0  1  0  0  0  0  0  0  0  0  0
   21.1178   -6.1168  -14.6967 C   0  0  0  0  0  0  0  0  0  0  0  0
   22.1428   -5.1546  -15.2410 C   0  0  0  0  0  0  0  0  0  0  0  0
   22.4524   -4.0443  -14.3499 O   0  0  0  0  0  0  0  0  0  0  0  0
   22.2893   -4.1723  -13.1146 C   0  0  0  0  0  0  0  0  0  0  0  0
   19.8443   -5.4146  -14.4085 O   0  0  0  0  0  0  0  0  0  0  0  0
   18.6523   -5.7641  -15.0246 O   0  0  0  0  0  0  0  0  0  0  0  0
   22.9268   -2.8403  -14.8303 O   0  0  0  0  0  0  0  0  0  0  0  0
  2  1  1  0
  3  5  1  0
  3  2  1  0
  3  4  1  6
  5  6  2  0
  8  7  1  0
  8  9  2  0
 10  8  1  0
 11 10  1  0
 11 12  1  0
 12 13  1  0
 14 13  1  1
 15 14  1  0
 15  5  1  0
 16 17  2  0
 16 14  1  0
 18 16  1  0
 19 23  1  0
 19 18  1  0
 19 20  1  6
 21 20  1  0
 22 21  2  0
 23 24  1  0
 25 21  1  0
 26 23  2  0
M  END
$$$$
