SRD.pdb
     RDKit          3D

 26 25  0  0  1  0  0  0  0  0999 V2000
   13.5121  -11.3767  -15.6633 O   0  0  0  0  0  0  0  0  0  0  0  0
   14.5465  -10.5002  -15.3644 C   0  0  0  0  0  0  0  0  0  0  0  0
   15.8903  -11.1884  -15.5031 C   0  0  2  0  0  0  0  0  0  0  0  0
   15.9471  -12.2029  -14.4596 N   0  0  0  0  0  0  0  0  0  0  0  0
   16.9980  -10.2241  -15.2256 C   0  0  0  0  0  0  0  0  0  0  0  0
   17.1792   -9.7161  -14.0905 O   0  0  0  0  0  0  0  0  0  0  0  0
   24.9444   -9.0553  -16.2642 N   0  0  0  0  0  0  0  0  0  0  0  0
   24.5314  -10.0330  -15.3178 C   0  0  0  0  0  0  0  0  0  0  0  0
   25.3733  -10.9053  -14.8613 N   0  0  0  0  0  0  0  0  0  0  0  0
   23.2010  -10.0968  -14.8374 N   0  0  0  0  0  0  0  0  0  0  0  0
   22.1360   -9.2625  -15.3367 C   0  0  0  0  0  0  0  0  0  0  0  0
   21.1563  -10.1185  -16.1571 C   0  0  0  0  0  0  0  0  0  0  0  0
   20.1569   -9.2672  -16.8575 C   0  0  0  0  0  0  0  0  0  0  0  0
   18.9754   -8.8776  -16.0060 C   0  0  2  0  0  0  0  0  0  0  0  0
   17.9035   -9.8390  -16.2521 N   0  0  0  0  0  0  0  0  0  0  0  0
   18.5491   -7.5075  -16.3240 C   0  0  0  0  0  0  0  0  0  0  0  0
   18.0635   -7.1548  -17.4261 O   0  0  0  0  0  0  0  0  0  0  0  0
   25.0515  -11.7499  -14.3169 N   0  0  0  0  0  0  0  0  0  0  0  0
   18.6538   -6.4239  -15.3754 C   0  0  2  0  0  0  0  0  0  0  0  0
   18.2479   -5.0712  -15.6920 C   0  0  0  0  0  0  0  0  0  0  0  0
   17.3627   -4.4710  -14.6295 C   0  0  0  0  0  0  0  0  0  0  0  0
   16.9918   -3.0835  -14.8748 O   0  0  0  0  0  0  0  0  0  0  0  0
   17.6842   -2.1584  -14.3914 C   0  0  0  0  0  0  0  0  0  0  0  0
   19.4783   -4.2622  -15.8643 O   0  0  0  0  0  0  0  0  0  0  0  0
   19.5605   -3.2302  -16.7867 O   0  0  0  0  0  0  0  0  0  0  0  0
   15.8874   -2.7521  -15.6337 O   0  0  0  0  0  0  0  0  0  0  0  0
  2  1  1  0
  3  5  1  0
  3  2  1  0
  3  4  1  1
  5  6  2  0
  8  7  1  0
  8  9  2  0
 10  8  1  0
 11 10  1  0
 11 12  1  0
 12 13  1  0
 14 13  1  6
 15 14  1  0
 15  5  1  0
 16 17  2  0
 16 14  1  0
 18 16  1  0
 19 23  1  0
 19 18  1  0
 19 20  1  1
 21 20  1  0
 22 21  2  0
 23 24  1  0
 25 21  1  0
 26 23  2  0
M  END
$$$$
