SRD.pdb
     RDKit          3D

 26 25  0  0  1  0  0  0  0  0999 V2000
   27.1866  -11.9022  -15.4417 O   0  0  0  0  0  0  0  0  0  0  0  0
   26.2528  -10.8927  -15.6322 C   0  0  0  0  0  0  0  0  0  0  0  0
   25.1535  -11.3485  -16.5716 C   0  0  2  0  0  0  0  0  0  0  0  0
   25.7510  -11.4404  -17.8966 N   0  0  0  0  0  0  0  0  0  0  0  0
   24.0799  -10.3121  -16.6553 C   0  0  0  0  0  0  0  0  0  0  0  0
   24.1387   -9.3457  -17.4566 O   0  0  0  0  0  0  0  0  0  0  0  0
   17.9673  -14.3622  -14.4275 N   0  0  0  0  0  0  0  0  0  0  0  0
   17.9417  -14.1293  -15.8302 C   0  0  0  0  0  0  0  0  0  0  0  0
   17.5210  -15.0462  -16.6428 N   0  0  0  0  0  0  0  0  0  0  0  0
   18.3677  -12.9026  -16.3946 N   0  0  0  0  0  0  0  0  0  0  0  0
   18.7931  -11.7719  -15.6072 C   0  0  0  0  0  0  0  0  0  0  0  0
   20.0676  -11.1697  -16.2224 C   0  0  0  0  0  0  0  0  0  0  0  0
   20.5919  -10.0556  -15.3868 C   0  0  0  0  0  0  0  0  0  0  0  0
   21.8435   -9.4146  -15.9305 C   0  0  2  0  0  0  0  0  0  0  0  0
   22.9326  -10.3817  -15.8181 N   0  0  0  0  0  0  0  0  0  0  0  0
   22.1450   -8.1805  -15.1916 C   0  0  0  0  0  0  0  0  0  0  0  0
   22.6665   -8.1478  -14.0507 O   0  0  0  0  0  0  0  0  0  0  0  0
   17.4675  -14.8786  -17.6832 N   0  0  0  0  0  0  0  0  0  0  0  0
   21.8615   -6.8692  -15.7256 C   0  0  2  0  0  0  0  0  0  0  0  0
   22.1467   -5.6534  -14.9941 C   0  0  0  0  0  0  0  0  0  0  0  0
   22.2499   -4.4489  -15.8950 C   0  0  0  0  0  0  0  0  0  0  0  0
   22.3562   -3.1803  -15.1864 O   0  0  0  0  0  0  0  0  0  0  0  0
   23.2448   -3.0242  -14.3175 C   0  0  0  0  0  0  0  0  0  0  0  0
   21.0671   -5.4669  -13.9953 O   0  0  0  0  0  0  0  0  0  0  0  0
   21.2794   -4.8119  -12.7917 O   0  0  0  0  0  0  0  0  0  0  0  0
   21.4978   -2.1311  -15.4464 O   0  0  0  0  0  0  0  0  0  0  0  0
  2  1  1  0
  3  5  1  0
  3  2  1  0
  3  4  1  6
  5  6  2  0
  8  7  1  0
  8  9  2  0
 10  8  1  0
 11 10  1  0
 11 12  1  0
 12 13  1  0
 14 13  1  1
 15 14  1  0
 15  5  1  0
 16 17  2  0
 16 14  1  0
 18 16  1  0
 19 23  1  0
 19 18  1  0
 19 20  1  6
 21 20  1  0
 22 21  2  0
 23 24  1  0
 25 21  1  0
 26 23  2  0
M  END
$$$$
