IMR.pdb
     RDKit          3D

 28 27  0  0  1  0  0  0  0  0999 V2000
   18.3923  -21.7916   -7.2259 C   0  0  0  0  0  0  0  0  0  0  0  0
   19.7558  -22.3589   -7.4455 C   0  0  0  0  0  0  0  0  0  0  0  0
   20.7167  -21.3929   -8.1107 C   0  0  2  0  0  0  0  0  0  0  0  0
   20.0836  -20.8292   -9.3338 C   0  0  0  0  0  0  0  0  0  0  0  0
   22.0160  -22.1143   -8.3312 C   0  0  2  0  0  0  0  0  0  0  0  0
   22.4490  -22.5436   -6.9891 N   0  0  0  0  0  0  0  0  0  0  0  0
   23.0825  -21.2117   -8.8399 C   0  0  0  0  0  0  0  0  0  0  0  0
   22.9208  -20.5048   -9.8827 O   0  0  0  0  0  0  0  0  0  0  0  0
   29.2012  -19.2866   -6.4737 C   0  0  0  0  0  0  0  0  0  0  0  0
   27.6953  -19.3012   -5.4867 S   0  0  0  0  0  0  0  0  0  0  0  0
   26.1998  -19.3693   -6.5237 C   0  0  0  0  0  0  0  0  0  0  0  0
   26.5651  -20.0901   -7.7778 C   0  0  0  0  0  0  0  0  0  0  0  0
   25.4063  -20.2376   -8.7514 C   0  0  2  0  0  0  0  0  0  0  0  0
   24.3579  -21.0588   -8.2176 N   0  0  0  0  0  0  0  0  0  0  0  0
   25.8458  -20.6470  -10.0913 C   0  0  0  0  0  0  0  0  0  0  0  0
   26.0507  -21.8876  -10.2741 O   0  0  0  0  0  0  0  0  0  0  0  0
   26.9226  -19.9513  -18.1985 N   0  0  0  0  0  0  0  0  0  0  0  0
   25.5371  -19.6788  -18.0447 C   0  0  0  0  0  0  0  0  0  0  0  0
   24.6571  -20.0716  -18.8912 N   0  0  0  0  0  0  0  0  0  0  0  0
   25.1218  -18.9389  -16.9014 N   0  0  0  0  0  0  0  0  0  0  0  0
   26.0689  -18.4249  -15.9254 C   0  0  0  0  0  0  0  0  0  0  0  0
   26.4590  -19.4705  -14.9285 C   0  0  0  0  0  0  0  0  0  0  0  0
   26.0767  -19.2633  -13.5270 C   0  0  0  0  0  0  0  0  0  0  0  0
   26.4983  -20.2340  -12.5233 C   0  0  2  0  0  0  0  0  0  0  0  0
   26.0545  -19.7815  -11.1755 N   0  0  0  0  0  0  0  0  0  0  0  0
   27.8493  -20.7147  -12.4862 C   0  0  0  0  0  0  0  0  0  0  0  0
   28.7143  -20.3281  -11.6729 O   0  0  0  0  0  0  0  0  0  0  0  0
   28.2762  -21.6866  -13.4066 O   0  0  0  0  0  0  0  0  0  0  0  0
  2  1  1  0
  3  4  1  6
  3  2  1  0
  5  3  1  0
  5  6  1  1
  7  5  1  0
  7  8  2  0
  9 10  1  0
 10 11  1  0
 11 12  1  0
 13 12  1  1
 13 14  1  0
 14  7  1  0
 15 25  1  0
 15 13  1  0
 16 15  2  0
 17 18  1  0
 18 20  1  0
 19 18  2  0
 20 21  1  0
 21 22  1  0
 22 23  1  0
 24 23  1  6
 24 25  1  0
 24 26  1  0
 26 27  2  0
 26 28  1  0
M  END
$$$$
