IMR.pdb
     RDKit          3D

 28 27  0  0  1  0  0  0  0  0999 V2000
   30.9869  -35.4236  -17.6928 C   0  0  0  0  0  0  0  0  0  0  0  0
   30.4306  -34.2066  -17.0304 C   0  0  0  0  0  0  0  0  0  0  0  0
   30.7064  -32.9221  -17.7876 C   0  0  2  0  0  0  0  0  0  0  0  0
   32.1734  -32.6758  -17.8255 C   0  0  0  0  0  0  0  0  0  0  0  0
   29.8853  -31.8319  -17.1594 C   0  0  2  0  0  0  0  0  0  0  0  0
   30.3715  -31.7371  -15.7711 N   0  0  0  0  0  0  0  0  0  0  0  0
   28.4455  -32.1919  -17.0688 C   0  0  0  0  0  0  0  0  0  0  0  0
   27.7257  -32.3406  -18.1046 O   0  0  0  0  0  0  0  0  0  0  0  0
   25.8666  -36.1994  -13.1255 C   0  0  0  0  0  0  0  0  0  0  0  0
   24.3199  -35.3374  -13.4519 S   0  0  0  0  0  0  0  0  0  0  0  0
   24.5309  -33.9887  -14.6573 C   0  0  0  0  0  0  0  0  0  0  0  0
   25.9869  -33.6675  -14.7094 C   0  0  0  0  0  0  0  0  0  0  0  0
   26.3387  -32.6164  -15.7505 C   0  0  2  0  0  0  0  0  0  0  0  0
   27.7542  -32.3995  -15.8374 N   0  0  0  0  0  0  0  0  0  0  0  0
   25.5660  -31.3790  -15.5841 C   0  0  0  0  0  0  0  0  0  0  0  0
   26.0378  -30.5106  -14.7853 O   0  0  0  0  0  0  0  0  0  0  0  0
   25.6647  -23.9204  -15.2702 N   0  0  0  0  0  0  0  0  0  0  0  0
   25.0519  -23.8860  -16.5512 C   0  0  0  0  0  0  0  0  0  0  0  0
   24.7542  -22.7893  -17.1460 N   0  0  0  0  0  0  0  0  0  0  0  0
   24.7614  -25.1252  -17.1893 N   0  0  0  0  0  0  0  0  0  0  0  0
   25.0635  -26.4052  -16.5695 C   0  0  0  0  0  0  0  0  0  0  0  0
   24.8084  -27.5464  -17.5033 C   0  0  0  0  0  0  0  0  0  0  0  0
   25.0396  -28.9079  -17.0071 C   0  0  0  0  0  0  0  0  0  0  0  0
   23.9040  -29.7016  -16.5512 C   0  0  2  0  0  0  0  0  0  0  0  0
   24.3580  -31.0841  -16.2336 N   0  0  0  0  0  0  0  0  0  0  0  0
   22.6749  -29.7203  -17.2906 C   0  0  0  0  0  0  0  0  0  0  0  0
   21.8105  -28.8204  -17.2463 O   0  0  0  0  0  0  0  0  0  0  0  0
   22.3779  -30.8029  -18.1355 O   0  0  0  0  0  0  0  0  0  0  0  0
  2  1  1  0
  3  4  1  1
  3  2  1  0
  5  3  1  0
  5  6  1  1
  7  5  1  0
  7  8  2  0
  9 10  1  0
 10 11  1  0
 11 12  1  0
 13 12  1  1
 13 14  1  0
 14  7  1  0
 15 25  1  0
 15 13  1  0
 16 15  2  0
 17 18  1  0
 18 20  1  0
 19 18  2  0
 20 21  1  0
 21 22  1  0
 22 23  1  0
 24 23  1  6
 24 25  1  0
 24 26  1  0
 26 27  2  0
 26 28  1  0
M  END
$$$$
