IMR.pdb
     RDKit          3D

 28 27  0  0  1  0  0  0  0  0999 V2000
   28.6842  -21.0690  -18.0754 C   0  0  0  0  0  0  0  0  0  0  0  0
   29.2494  -20.8388  -16.7128 C   0  0  0  0  0  0  0  0  0  0  0  0
   28.4595  -21.5088  -15.6054 C   0  0  2  0  0  0  0  0  0  0  0  0
   28.2065  -22.9296  -15.9684 C   0  0  0  0  0  0  0  0  0  0  0  0
   27.2326  -20.6804  -15.3489 C   0  0  2  0  0  0  0  0  0  0  0  0
   27.7366  -19.3218  -15.0786 N   0  0  0  0  0  0  0  0  0  0  0  0
   26.5125  -21.1056  -14.1195 C   0  0  0  0  0  0  0  0  0  0  0  0
   25.6792  -22.0642  -14.1289 O   0  0  0  0  0  0  0  0  0  0  0  0
   28.1582  -20.7499   -7.6219 C   0  0  0  0  0  0  0  0  0  0  0  0
   26.4958  -20.0701   -7.7499 S   0  0  0  0  0  0  0  0  0  0  0  0
   25.6168  -20.6876   -9.2206 C   0  0  0  0  0  0  0  0  0  0  0  0
   26.4738  -20.3884  -10.4046 C   0  0  0  0  0  0  0  0  0  0  0  0
   25.8049  -20.7067  -11.7327 C   0  0  2  0  0  0  0  0  0  0  0  0
   26.6869  -20.4904  -12.8434 N   0  0  0  0  0  0  0  0  0  0  0  0
   24.5036  -20.0429  -11.8806 C   0  0  0  0  0  0  0  0  0  0  0  0
   24.4719  -18.9954  -12.5991 O   0  0  0  0  0  0  0  0  0  0  0  0
   18.6044  -23.0738  -14.8571 N   0  0  0  0  0  0  0  0  0  0  0  0
   18.6129  -22.2070  -15.9823 C   0  0  0  0  0  0  0  0  0  0  0  0
   17.5762  -22.0104  -16.7115 N   0  0  0  0  0  0  0  0  0  0  0  0
   19.8271  -21.5361  -16.3031 N   0  0  0  0  0  0  0  0  0  0  0  0
   21.0342  -21.6972  -15.5089 C   0  0  0  0  0  0  0  0  0  0  0  0
   20.8960  -21.0690  -14.1578 C   0  0  0  0  0  0  0  0  0  0  0  0
   22.0960  -20.9659  -13.3195 C   0  0  0  0  0  0  0  0  0  0  0  0
   21.9802  -20.4096  -11.9762 C   0  0  2  0  0  0  0  0  0  0  0  0
   23.3032  -20.4727  -11.2953 N   0  0  0  0  0  0  0  0  0  0  0  0
   20.9273  -20.8259  -11.0955 C   0  0  0  0  0  0  0  0  0  0  0  0
   21.0392  -21.7257  -10.2369 O   0  0  0  0  0  0  0  0  0  0  0  0
   19.6665  -20.2099  -11.1649 O   0  0  0  0  0  0  0  0  0  0  0  0
  2  1  1  0
  3  4  1  6
  3  2  1  0
  5  3  1  0
  5  6  1  1
  7  5  1  0
  7  8  2  0
  9 10  1  0
 10 11  1  0
 11 12  1  0
 13 12  1  1
 13 14  1  0
 14  7  1  0
 15 25  1  0
 15 13  1  0
 16 15  2  0
 17 18  1  0
 18 20  1  0
 19 18  2  0
 20 21  1  0
 21 22  1  0
 22 23  1  0
 24 23  1  6
 24 25  1  0
 24 26  1  0
 26 27  2  0
 26 28  1  0
M  END
$$$$
