IMR.pdb
     RDKit          3D

 28 27  0  0  1  0  0  0  0  0999 V2000
   23.5965  -20.7136   -8.1167 C   0  0  0  0  0  0  0  0  0  0  0  0
   23.6469  -20.9104   -9.5959 C   0  0  0  0  0  0  0  0  0  0  0  0
   25.0161  -20.6588  -10.1968 C   0  0  2  0  0  0  0  0  0  0  0  0
   25.9716  -20.2959   -9.1152 C   0  0  0  0  0  0  0  0  0  0  0  0
   24.8595  -19.6383  -11.2882 C   0  0  2  0  0  0  0  0  0  0  0  0
   24.0216  -20.2934  -12.3087 N   0  0  0  0  0  0  0  0  0  0  0  0
   26.1509  -19.3233  -11.9546 C   0  0  0  0  0  0  0  0  0  0  0  0
   27.1279  -18.8199  -11.3180 O   0  0  0  0  0  0  0  0  0  0  0  0
   30.3231  -21.8478  -10.7635 C   0  0  0  0  0  0  0  0  0  0  0  0
   30.7637  -22.0865  -12.4929 S   0  0  0  0  0  0  0  0  0  0  0  0
   29.9403  -20.8798  -13.5803 C   0  0  0  0  0  0  0  0  0  0  0  0
   28.5284  -20.7575  -13.1140 C   0  0  0  0  0  0  0  0  0  0  0  0
   27.7233  -19.7227  -13.8845 C   0  0  2  0  0  0  0  0  0  0  0  0
   26.4069  -19.5525  -13.3399 N   0  0  0  0  0  0  0  0  0  0  0  0
   27.7307  -19.9680  -15.3321 C   0  0  0  0  0  0  0  0  0  0  0  0
   28.8020  -20.4368  -15.8295 O   0  0  0  0  0  0  0  0  0  0  0  0
   27.0647  -25.5475  -16.1217 N   0  0  0  0  0  0  0  0  0  0  0  0
   25.7642  -25.6461  -16.6843 C   0  0  0  0  0  0  0  0  0  0  0  0
   25.4967  -26.4129  -17.6771 N   0  0  0  0  0  0  0  0  0  0  0  0
   24.7252  -24.8567  -16.1146 N   0  0  0  0  0  0  0  0  0  0  0  0
   24.9564  -23.9698  -14.9860 C   0  0  0  0  0  0  0  0  0  0  0  0
   24.3980  -22.6034  -15.2322 C   0  0  0  0  0  0  0  0  0  0  0  0
   25.3228  -21.4646  -15.1986 C   0  0  0  0  0  0  0  0  0  0  0  0
   25.5307  -20.6805  -16.4107 C   0  0  2  0  0  0  0  0  0  0  0  0
   26.6556  -19.7273  -16.2006 N   0  0  0  0  0  0  0  0  0  0  0  0
   24.4298  -20.0405  -17.0711 C   0  0  0  0  0  0  0  0  0  0  0  0
   23.8519  -19.0171  -16.6496 O   0  0  0  0  0  0  0  0  0  0  0  0
   23.9321  -20.5626  -18.2768 O   0  0  0  0  0  0  0  0  0  0  0  0
  2  1  1  0
  3  4  1  1
  3  2  1  0
  5  3  1  0
  5  6  1  6
  7  5  1  0
  7  8  2  0
  9 10  1  0
 10 11  1  0
 11 12  1  0
 13 12  1  1
 13 14  1  0
 14  7  1  0
 15 25  1  0
 15 13  1  0
 16 15  2  0
 17 18  1  0
 18 20  1  0
 19 18  2  0
 20 21  1  0
 21 22  1  0
 22 23  1  0
 24 23  1  1
 24 25  1  0
 24 26  1  0
 26 27  2  0
 26 28  1  0
M  END
$$$$
