IMR.pdb
     RDKit          3D

 28 27  0  0  1  0  0  0  0  0999 V2000
   12.6531  -11.8879  -12.7718 C   0  0  0  0  0  0  0  0  0  0  0  0
   12.8114  -11.7220  -11.2964 C   0  0  0  0  0  0  0  0  0  0  0  0
   13.6595  -10.5272  -10.9062 C   0  0  2  0  0  0  0  0  0  0  0  0
   13.1002   -9.2984  -11.5321 C   0  0  0  0  0  0  0  0  0  0  0  0
   15.0858  -10.8395  -11.2605 C   0  0  2  0  0  0  0  0  0  0  0  0
   15.4336  -12.0188  -10.4476 N   0  0  0  0  0  0  0  0  0  0  0  0
   16.0194   -9.7603  -10.8427 C   0  0  0  0  0  0  0  0  0  0  0  0
   16.0610   -9.3366   -9.6460 O   0  0  0  0  0  0  0  0  0  0  0  0
   22.2170   -5.1534  -12.8449 C   0  0  0  0  0  0  0  0  0  0  0  0
   20.9859   -6.3983  -13.2647 S   0  0  0  0  0  0  0  0  0  0  0  0
   19.6948   -6.5397  -11.9881 C   0  0  0  0  0  0  0  0  0  0  0  0
   18.8348   -7.7016  -12.3574 C   0  0  0  0  0  0  0  0  0  0  0  0
   17.7204   -7.9722  -11.3587 C   0  0  2  0  0  0  0  0  0  0  0  0
   16.9352   -9.1151  -11.7272 N   0  0  0  0  0  0  0  0  0  0  0  0
   16.9167   -6.7767  -11.0747 C   0  0  0  0  0  0  0  0  0  0  0  0
   16.0614   -6.4384  -11.9515 O   0  0  0  0  0  0  0  0  0  0  0  0
   11.6449   -4.4234   -4.7161 N   0  0  0  0  0  0  0  0  0  0  0  0
   11.8137   -3.1955   -5.4098 C   0  0  0  0  0  0  0  0  0  0  0  0
   11.1059   -2.1559   -5.1576 N   0  0  0  0  0  0  0  0  0  0  0  0
   12.8114   -3.1293   -6.4234 N   0  0  0  0  0  0  0  0  0  0  0  0
   13.6507   -4.2678   -6.7598 C   0  0  0  0  0  0  0  0  0  0  0  0
   14.6868   -3.9101   -7.7785 C   0  0  0  0  0  0  0  0  0  0  0  0
   15.5224   -4.9881   -8.3197 C   0  0  0  0  0  0  0  0  0  0  0  0
   16.1368   -4.8219   -9.6320 C   0  0  2  0  0  0  0  0  0  0  0  0
   17.0192   -5.9865   -9.9200 N   0  0  0  0  0  0  0  0  0  0  0  0
   16.7753   -3.5897   -9.9950 C   0  0  0  0  0  0  0  0  0  0  0  0
   17.9867   -3.4785  -10.2766 O   0  0  0  0  0  0  0  0  0  0  0  0
   16.0297   -2.4003  -10.0516 O   0  0  0  0  0  0  0  0  0  0  0  0
  2  1  1  0
  3  4  1  6
  3  2  1  0
  5  3  1  0
  5  6  1  1
  7  5  1  0
  7  8  2  0
  9 10  1  0
 10 11  1  0
 11 12  1  0
 13 12  1  6
 13 14  1  0
 14  7  1  0
 15 25  1  0
 15 13  1  0
 16 15  2  0
 17 18  1  0
 18 20  1  0
 19 18  2  0
 20 21  1  0
 21 22  1  0
 22 23  1  0
 24 23  1  1
 24 25  1  0
 24 26  1  0
 26 27  2  0
 26 28  1  0
M  END
$$$$
