IMR.pdb
     RDKit          3D

 28 27  0  0  1  0  0  0  0  0999 V2000
   32.5788  -22.3307   -9.6831 C   0  0  0  0  0  0  0  0  0  0  0  0
   31.5764  -22.3754  -10.7888 C   0  0  0  0  0  0  0  0  0  0  0  0
   30.4528  -21.3694  -10.6323 C   0  0  2  0  0  0  0  0  0  0  0  0
   30.4969  -20.7879   -9.2633 C   0  0  0  0  0  0  0  0  0  0  0  0
   29.1672  -22.0539  -11.0011 C   0  0  2  0  0  0  0  0  0  0  0  0
   29.4262  -22.6762  -12.3120 N   0  0  0  0  0  0  0  0  0  0  0  0
   28.0562  -21.0890  -11.2147 C   0  0  0  0  0  0  0  0  0  0  0  0
   27.5628  -20.4133  -10.2591 O   0  0  0  0  0  0  0  0  0  0  0  0
   26.8309  -17.9020  -16.6164 C   0  0  0  0  0  0  0  0  0  0  0  0
   27.7633  -17.1178  -15.2907 S   0  0  0  0  0  0  0  0  0  0  0  0
   27.6465  -18.0491  -13.7301 C   0  0  0  0  0  0  0  0  0  0  0  0
   26.5511  -19.0487  -13.8939 C   0  0  0  0  0  0  0  0  0  0  0  0
   26.3544  -19.9373  -12.6756 C   0  0  2  0  0  0  0  0  0  0  0  0
   27.4549  -20.8377  -12.4846 N   0  0  0  0  0  0  0  0  0  0  0  0
   25.0457  -20.6029  -12.6701 C   0  0  0  0  0  0  0  0  0  0  0  0
   24.9752  -21.7355  -13.2419 O   0  0  0  0  0  0  0  0  0  0  0  0
   20.1657  -23.2408   -7.6496 N   0  0  0  0  0  0  0  0  0  0  0  0
   18.9344  -22.9437   -8.2923 C   0  0  0  0  0  0  0  0  0  0  0  0
   17.9457  -23.7607   -8.3037 N   0  0  0  0  0  0  0  0  0  0  0  0
   18.8057  -21.6858   -8.9468 N   0  0  0  0  0  0  0  0  0  0  0  0
   19.9496  -20.8263   -9.2050 C   0  0  0  0  0  0  0  0  0  0  0  0
   20.6810  -21.2356  -10.4447 C   0  0  0  0  0  0  0  0  0  0  0  0
   21.8283  -20.4244  -10.8676 C   0  0  0  0  0  0  0  0  0  0  0  0
   22.5785  -20.8171  -12.0552 C   0  0  2  0  0  0  0  0  0  0  0  0
   23.8776  -20.0895  -12.0869 N   0  0  0  0  0  0  0  0  0  0  0  0
   21.9590  -20.8215  -13.3490 C   0  0  0  0  0  0  0  0  0  0  0  0
   22.0107  -19.8734  -14.1599 O   0  0  0  0  0  0  0  0  0  0  0  0
   21.2339  -21.9456  -13.7785 O   0  0  0  0  0  0  0  0  0  0  0  0
  2  1  1  0
  3  4  1  1
  3  2  1  0
  5  3  1  0
  5  6  1  6
  7  5  1  0
  7  8  2  0
  9 10  1  0
 10 11  1  0
 11 12  1  0
 13 12  1  6
 13 14  1  0
 14  7  1  0
 15 25  1  0
 15 13  1  0
 16 15  2  0
 17 18  1  0
 18 20  1  0
 19 18  2  0
 20 21  1  0
 21 22  1  0
 22 23  1  0
 24 23  1  1
 24 25  1  0
 24 26  1  0
 26 27  2  0
 26 28  1  0
M  END
$$$$
