IMR.pdb
     RDKit          3D

 28 27  0  0  1  0  0  0  0  0999 V2000
   18.5448  -15.7088    2.5080 C   0  0  0  0  0  0  0  0  0  0  0  0
   17.3455  -16.3483    3.1260 C   0  0  0  0  0  0  0  0  0  0  0  0
   16.8727  -17.5892    2.3941 C   0  0  2  0  0  0  0  0  0  0  0  0
   16.4748  -17.2239    1.0075 C   0  0  0  0  0  0  0  0  0  0  0  0
   15.7989  -18.2327    3.2248 C   0  0  2  0  0  0  0  0  0  0  0  0
   14.8347  -17.1543    3.5077 N   0  0  0  0  0  0  0  0  0  0  0  0
   16.3062  -18.6898    4.5456 C   0  0  0  0  0  0  0  0  0  0  0  0
   16.0651  -18.0476    5.6146 O   0  0  0  0  0  0  0  0  0  0  0  0
   18.5025  -24.6245    5.9191 C   0  0  0  0  0  0  0  0  0  0  0  0
   19.5676  -23.6989    7.0375 S   0  0  0  0  0  0  0  0  0  0  0  0
   19.0371  -21.9650    7.2072 C   0  0  0  0  0  0  0  0  0  0  0  0
   18.3620  -21.5836    5.9326 C   0  0  0  0  0  0  0  0  0  0  0  0
   17.7601  -20.1873    5.9599 C   0  0  2  0  0  0  0  0  0  0  0  0
   17.0931  -19.8661    4.7310 N   0  0  0  0  0  0  0  0  0  0  0  0
   18.7258  -19.1666    6.3860 C   0  0  0  0  0  0  0  0  0  0  0  0
   19.2899  -18.4917    5.4690 O   0  0  0  0  0  0  0  0  0  0  0  0
   18.9316  -11.6251    6.2435 N   0  0  0  0  0  0  0  0  0  0  0  0
   18.8972  -12.8860    5.5903 C   0  0  0  0  0  0  0  0  0  0  0  0
   18.3260  -13.0613    4.4554 N   0  0  0  0  0  0  0  0  0  0  0  0
   19.5249  -13.9912    6.2319 N   0  0  0  0  0  0  0  0  0  0  0  0
   19.8143  -13.9977    7.6567 C   0  0  0  0  0  0  0  0  0  0  0  0
   20.3195  -15.3303    8.1129 C   0  0  0  0  0  0  0  0  0  0  0  0
   19.5722  -16.5264    7.7076 C   0  0  0  0  0  0  0  0  0  0  0  0
   20.0597  -17.8407    8.1104 C   0  0  2  0  0  0  0  0  0  0  0  0
   19.0701  -18.8814    7.7157 N   0  0  0  0  0  0  0  0  0  0  0  0
   20.5451  -18.0697    9.4407 C   0  0  0  0  0  0  0  0  0  0  0  0
   20.2302  -19.0491   10.1484 O   0  0  0  0  0  0  0  0  0  0  0  0
   21.4372  -17.1590   10.0312 O   0  0  0  0  0  0  0  0  0  0  0  0
  2  1  1  0
  3  4  1  6
  3  2  1  0
  5  3  1  0
  5  6  1  1
  7  5  1  0
  7  8  2  0
  9 10  1  0
 10 11  1  0
 11 12  1  0
 13 12  1  6
 13 14  1  0
 14  7  1  0
 15 25  1  0
 15 13  1  0
 16 15  2  0
 17 18  1  0
 18 20  1  0
 19 18  2  0
 20 21  1  0
 21 22  1  0
 22 23  1  0
 24 23  1  1
 24 25  1  0
 24 26  1  0
 26 27  2  0
 26 28  1  0
M  END
$$$$
