IMR.pdb
     RDKit          3D

 28 27  0  0  1  0  0  0  0  0999 V2000
   21.2501  -16.8696  -17.9978 C   0  0  0  0  0  0  0  0  0  0  0  0
   20.9786  -15.5082  -18.5475 C   0  0  0  0  0  0  0  0  0  0  0  0
   21.1843  -14.3935  -17.5405 C   0  0  2  0  0  0  0  0  0  0  0  0
   20.3900  -14.6810  -16.3154 C   0  0  0  0  0  0  0  0  0  0  0  0
   20.8692  -13.0925  -18.2229 C   0  0  2  0  0  0  0  0  0  0  0  0
   21.6516  -13.1151  -19.4719 N   0  0  0  0  0  0  0  0  0  0  0  0
   21.3572  -11.9189  -17.4514 C   0  0  0  0  0  0  0  0  0  0  0  0
   20.8648  -11.6073  -16.3227 O   0  0  0  0  0  0  0  0  0  0  0  0
   26.1378   -5.6106  -17.2314 C   0  0  0  0  0  0  0  0  0  0  0  0
   25.5533   -7.1006  -18.0559 S   0  0  0  0  0  0  0  0  0  0  0  0
   24.7249   -8.2397  -16.9014 C   0  0  0  0  0  0  0  0  0  0  0  0
   24.1586   -9.3559  -17.7133 C   0  0  0  0  0  0  0  0  0  0  0  0
   22.8653   -9.9214  -17.1473 C   0  0  2  0  0  0  0  0  0  0  0  0
   22.4009  -11.0531  -17.8969 N   0  0  0  0  0  0  0  0  0  0  0  0
   21.8396   -8.8898  -16.9489 C   0  0  0  0  0  0  0  0  0  0  0  0
   21.1392   -8.5743  -17.9611 O   0  0  0  0  0  0  0  0  0  0  0  0
   14.1175   -9.2587  -15.4116 N   0  0  0  0  0  0  0  0  0  0  0  0
   14.2069   -7.8459  -15.5282 C   0  0  0  0  0  0  0  0  0  0  0  0
   13.1776   -7.0819  -15.4820 N   0  0  0  0  0  0  0  0  0  0  0  0
   15.4960   -7.2675  -15.7035 N   0  0  0  0  0  0  0  0  0  0  0  0
   16.7035   -8.0739  -15.7764 C   0  0  0  0  0  0  0  0  0  0  0  0
   17.9295   -7.2250  -15.9018 C   0  0  0  0  0  0  0  0  0  0  0  0
   19.2177   -7.8996  -16.0990 C   0  0  0  0  0  0  0  0  0  0  0  0
   20.4244   -7.3095  -15.5307 C   0  0  2  0  0  0  0  0  0  0  0  0
   21.5752   -8.2318  -15.7383 N   0  0  0  0  0  0  0  0  0  0  0  0
   20.4259   -6.7758  -14.1992 C   0  0  0  0  0  0  0  0  0  0  0  0
   21.2265   -7.1156  -13.3032 O   0  0  0  0  0  0  0  0  0  0  0  0
   19.4824   -5.8025  -13.8297 O   0  0  0  0  0  0  0  0  0  0  0  0
  2  1  1  0
  3  4  1  1
  3  2  1  0
  5  3  1  0
  5  6  1  6
  7  5  1  0
  7  8  2  0
  9 10  1  0
 10 11  1  0
 11 12  1  0
 13 12  1  6
 13 14  1  0
 14  7  1  0
 15 25  1  0
 15 13  1  0
 16 15  2  0
 17 18  1  0
 18 20  1  0
 19 18  2  0
 20 21  1  0
 21 22  1  0
 22 23  1  0
 24 23  1  1
 24 25  1  0
 24 26  1  0
 26 27  2  0
 26 28  1  0
M  END
$$$$
