IMR.pdb
     RDKit          3D

 28 27  0  0  1  0  0  0  0  0999 V2000
   26.6600  -17.4075  -17.9049 C   0  0  0  0  0  0  0  0  0  0  0  0
   27.9500  -16.7683  -17.5091 C   0  0  0  0  0  0  0  0  0  0  0  0
   27.7835  -15.3926  -16.8936 C   0  0  2  0  0  0  0  0  0  0  0  0
   26.7603  -15.4541  -15.8148 C   0  0  0  0  0  0  0  0  0  0  0  0
   27.4924  -14.4234  -18.0041 C   0  0  2  0  0  0  0  0  0  0  0  0
   28.5749  -14.6262  -18.9838 N   0  0  0  0  0  0  0  0  0  0  0  0
   27.5980  -13.0086  -17.5593 C   0  0  0  0  0  0  0  0  0  0  0  0
   26.7912  -12.5098  -16.7146 O   0  0  0  0  0  0  0  0  0  0  0  0
   31.2269   -7.7339  -20.2525 C   0  0  0  0  0  0  0  0  0  0  0  0
   31.5588   -7.9602  -18.4974 S   0  0  0  0  0  0  0  0  0  0  0  0
   30.1295   -8.6671  -17.6176 C   0  0  0  0  0  0  0  0  0  0  0  0
   29.9535  -10.0635  -18.1126 C   0  0  0  0  0  0  0  0  0  0  0  0
   28.6988  -10.7404  -17.5834 C   0  0  2  0  0  0  0  0  0  0  0  0
   28.5936  -12.1000  -18.0292 N   0  0  0  0  0  0  0  0  0  0  0  0
   27.4866   -9.9487  -17.8278 C   0  0  0  0  0  0  0  0  0  0  0  0
   26.9926  -10.0015  -18.9974 O   0  0  0  0  0  0  0  0  0  0  0  0
   19.9863   -8.9060  -13.4837 N   0  0  0  0  0  0  0  0  0  0  0  0
   19.8273   -8.1230  -14.6580 C   0  0  0  0  0  0  0  0  0  0  0  0
   18.6804   -7.7302  -15.0770 N   0  0  0  0  0  0  0  0  0  0  0  0
   20.9953   -7.7672  -15.3903 N   0  0  0  0  0  0  0  0  0  0  0  0
   22.2965   -8.3490  -15.1037 C   0  0  0  0  0  0  0  0  0  0  0  0
   23.3081   -7.9822  -16.1436 C   0  0  0  0  0  0  0  0  0  0  0  0
   24.6251   -8.6266  -16.0815 C   0  0  0  0  0  0  0  0  0  0  0  0
   25.5864   -8.3857  -17.1516 C   0  0  2  0  0  0  0  0  0  0  0  0
   26.8374   -9.1460  -16.8779 N   0  0  0  0  0  0  0  0  0  0  0  0
   25.8800   -7.0520  -17.5908 C   0  0  0  0  0  0  0  0  0  0  0  0
   26.9658   -6.4673  -17.3954 O   0  0  0  0  0  0  0  0  0  0  0  0
   24.9129   -6.3128  -18.2923 O   0  0  0  0  0  0  0  0  0  0  0  0
  2  1  1  0
  3  4  1  1
  3  2  1  0
  5  3  1  0
  5  6  1  6
  7  5  1  0
  7  8  2  0
  9 10  1  0
 10 11  1  0
 11 12  1  0
 13 12  1  6
 13 14  1  0
 14  7  1  0
 15 25  1  0
 15 13  1  0
 16 15  2  0
 17 18  1  0
 18 20  1  0
 19 18  2  0
 20 21  1  0
 21 22  1  0
 22 23  1  0
 24 23  1  1
 24 25  1  0
 24 26  1  0
 26 27  2  0
 26 28  1  0
M  END
$$$$
