IMR.pdb
     RDKit          3D

 28 27  0  0  1  0  0  0  0  0999 V2000
   18.0379  -24.1854   -9.9428 C   0  0  0  0  0  0  0  0  0  0  0  0
   19.1027  -23.9153   -8.9316 C   0  0  0  0  0  0  0  0  0  0  0  0
   20.0228  -22.7704   -9.3081 C   0  0  2  0  0  0  0  0  0  0  0  0
   20.4694  -22.9381  -10.7176 C   0  0  0  0  0  0  0  0  0  0  0  0
   21.1225  -22.7083   -8.2862 C   0  0  2  0  0  0  0  0  0  0  0  0
   20.4415  -22.4470   -7.0053 N   0  0  0  0  0  0  0  0  0  0  0  0
   22.0357  -21.5565   -8.5106 C   0  0  0  0  0  0  0  0  0  0  0  0
   21.6282  -20.3554   -8.4432 O   0  0  0  0  0  0  0  0  0  0  0  0
   27.3413  -20.2328   -5.9487 C   0  0  0  0  0  0  0  0  0  0  0  0
   27.7861  -19.3828   -7.4723 S   0  0  0  0  0  0  0  0  0  0  0  0
   26.4236  -19.3889   -8.6806 C   0  0  0  0  0  0  0  0  0  0  0  0
   25.4988  -20.4950   -8.2970 C   0  0  0  0  0  0  0  0  0  0  0  0
   24.2645  -20.5869   -9.1805 C   0  0  2  0  0  0  0  0  0  0  0  0
   23.4237  -21.6905   -8.8152 N   0  0  0  0  0  0  0  0  0  0  0  0
   24.5927  -20.5495  -10.6112 C   0  0  0  0  0  0  0  0  0  0  0  0
   25.5547  -21.2836  -10.9989 O   0  0  0  0  0  0  0  0  0  0  0  0
   26.0918  -24.7506  -15.6346 N   0  0  0  0  0  0  0  0  0  0  0  0
   26.7184  -23.5940  -16.1706 C   0  0  0  0  0  0  0  0  0  0  0  0
   26.9508  -23.4516  -17.4239 N   0  0  0  0  0  0  0  0  0  0  0  0
   27.0991  -22.5591  -15.2699 N   0  0  0  0  0  0  0  0  0  0  0  0
   26.7743  -22.6065  -13.8535 C   0  0  0  0  0  0  0  0  0  0  0  0
   25.4926  -21.8941  -13.5553 C   0  0  0  0  0  0  0  0  0  0  0  0
   25.5607  -20.4708  -13.2046 C   0  0  0  0  0  0  0  0  0  0  0  0
   24.3220  -19.7255  -13.0110 C   0  0  2  0  0  0  0  0  0  0  0  0
   23.9315  -19.7729  -11.5745 N   0  0  0  0  0  0  0  0  0  0  0  0
   23.1880  -19.9491  -13.8605 C   0  0  0  0  0  0  0  0  0  0  0  0
   22.0879  -20.3909  -13.4681 O   0  0  0  0  0  0  0  0  0  0  0  0
   23.2710  -19.6672  -15.2344 O   0  0  0  0  0  0  0  0  0  0  0  0
  2  1  1  0
  3  4  1  6
  3  2  1  0
  5  3  1  0
  5  6  1  1
  7  5  1  0
  7  8  2  0
  9 10  1  0
 10 11  1  0
 11 12  1  0
 13 12  1  1
 13 14  1  0
 14  7  1  0
 15 25  1  0
 15 13  1  0
 16 15  2  0
 17 18  1  0
 18 20  1  0
 19 18  2  0
 20 21  1  0
 21 22  1  0
 22 23  1  0
 24 23  1  1
 24 25  1  0
 24 26  1  0
 26 27  2  0
 26 28  1  0
M  END
$$$$
