IMR.pdb
     RDKit          3D

 28 27  0  0  1  0  0  0  0  0999 V2000
   28.3687  -18.5056  -15.5619 C   0  0  0  0  0  0  0  0  0  0  0  0
   28.6667  -19.5807  -14.5696 C   0  0  0  0  0  0  0  0  0  0  0  0
   27.6934  -19.6228  -13.4078 C   0  0  2  0  0  0  0  0  0  0  0  0
   27.6171  -18.2769  -12.7776 C   0  0  0  0  0  0  0  0  0  0  0  0
   28.1141  -20.7395  -12.4949 C   0  0  2  0  0  0  0  0  0  0  0  0
   28.0766  -21.9531  -13.3307 N   0  0  0  0  0  0  0  0  0  0  0  0
   27.1395  -20.9657  -11.3950 C   0  0  0  0  0  0  0  0  0  0  0  0
   26.1023  -21.6811  -11.5555 O   0  0  0  0  0  0  0  0  0  0  0  0
   27.4860  -20.4707   -4.3839 C   0  0  0  0  0  0  0  0  0  0  0  0
   28.5734  -19.9530   -5.7224 S   0  0  0  0  0  0  0  0  0  0  0  0
   28.0905  -20.6875   -7.3174 C   0  0  0  0  0  0  0  0  0  0  0  0
   26.7879  -20.0747   -7.7089 C   0  0  0  0  0  0  0  0  0  0  0  0
   26.2793  -20.5454   -9.0625 C   0  0  2  0  0  0  0  0  0  0  0  0
   27.2758  -20.4128  -10.0861 N   0  0  0  0  0  0  0  0  0  0  0  0
   24.9893  -19.9419   -9.4197 C   0  0  0  0  0  0  0  0  0  0  0  0
   25.0188  -18.7648   -9.8976 O   0  0  0  0  0  0  0  0  0  0  0  0
   21.0145  -23.2384  -14.2287 N   0  0  0  0  0  0  0  0  0  0  0  0
   21.1289  -22.2897  -15.2796 C   0  0  0  0  0  0  0  0  0  0  0  0
   21.0130  -22.6103  -16.5161 N   0  0  0  0  0  0  0  0  0  0  0  0
   21.3828  -20.9322  -14.9332 N   0  0  0  0  0  0  0  0  0  0  0  0
   22.4747  -20.5486  -14.0532 C   0  0  0  0  0  0  0  0  0  0  0  0
   22.0111  -20.3686  -12.6418 C   0  0  0  0  0  0  0  0  0  0  0  0
   22.9984  -20.5226  -11.5671 C   0  0  0  0  0  0  0  0  0  0  0  0
   22.5835  -20.3144  -10.1844 C   0  0  2  0  0  0  0  0  0  0  0  0
   23.7379  -20.5595   -9.2758 N   0  0  0  0  0  0  0  0  0  0  0  0
   21.3888  -20.9232   -9.6748 C   0  0  0  0  0  0  0  0  0  0  0  0
   21.3650  -21.7815   -8.7682 O   0  0  0  0  0  0  0  0  0  0  0  0
   20.1361  -20.5624  -10.1989 O   0  0  0  0  0  0  0  0  0  0  0  0
  2  1  1  0
  3  4  1  1
  3  2  1  0
  5  3  1  0
  5  6  1  6
  7  5  1  0
  7  8  2  0
  9 10  1  0
 10 11  1  0
 11 12  1  0
 13 12  1  1
 13 14  1  0
 14  7  1  0
 15 25  1  0
 15 13  1  0
 16 15  2  0
 17 18  1  0
 18 20  1  0
 19 18  2  0
 20 21  1  0
 21 22  1  0
 22 23  1  0
 24 23  1  6
 24 25  1  0
 24 26  1  0
 26 27  2  0
 26 28  1  0
M  END
$$$$
