IMR.pdb
     RDKit          3D

 28 27  0  0  1  0  0  0  0  0999 V2000
   26.6804  -17.8738  -17.2200 C   0  0  0  0  0  0  0  0  0  0  0  0
   27.4389  -18.7076  -16.2409 C   0  0  0  0  0  0  0  0  0  0  0  0
   26.5744  -19.2907  -15.1401 C   0  0  2  0  0  0  0  0  0  0  0  0
   25.7899  -18.2013  -14.4982 C   0  0  0  0  0  0  0  0  0  0  0  0
   27.4674  -20.0718  -14.2183 C   0  0  2  0  0  0  0  0  0  0  0  0
   28.0090  -21.1657  -15.0445 N   0  0  0  0  0  0  0  0  0  0  0  0
   26.7094  -20.7227  -13.1171 C   0  0  0  0  0  0  0  0  0  0  0  0
   26.1454  -21.8508  -13.2677 O   0  0  0  0  0  0  0  0  0  0  0  0
   27.5960  -20.9289   -6.4259 C   0  0  0  0  0  0  0  0  0  0  0  0
   25.9777  -20.2026   -6.7353 S   0  0  0  0  0  0  0  0  0  0  0  0
   25.2664  -20.7668   -8.3140 C   0  0  0  0  0  0  0  0  0  0  0  0
   26.1617  -20.2758   -9.4017 C   0  0  0  0  0  0  0  0  0  0  0  0
   25.7473  -20.7472  -10.7868 C   0  0  2  0  0  0  0  0  0  0  0  0
   26.5489  -20.1536  -11.8180 N   0  0  0  0  0  0  0  0  0  0  0  0
   24.3035  -20.6137  -11.0179 C   0  0  0  0  0  0  0  0  0  0  0  0
   23.8325  -19.4337  -11.0416 O   0  0  0  0  0  0  0  0  0  0  0  0
   18.9928  -24.2359   -7.1795 N   0  0  0  0  0  0  0  0  0  0  0  0
   18.1594  -24.4071   -8.3169 C   0  0  0  0  0  0  0  0  0  0  0  0
   16.8940  -24.5955   -8.2248 N   0  0  0  0  0  0  0  0  0  0  0  0
   18.7653  -24.3662   -9.6047 N   0  0  0  0  0  0  0  0  0  0  0  0
   20.0932  -23.8144   -9.8189 C   0  0  0  0  0  0  0  0  0  0  0  0
   20.0861  -22.3188   -9.7682 C   0  0  0  0  0  0  0  0  0  0  0  0
   21.3615  -21.6168   -9.9522 C   0  0  0  0  0  0  0  0  0  0  0  0
   21.9333  -21.5187  -11.2904 C   0  0  2  0  0  0  0  0  0  0  0  0
   23.4119  -21.6791  -11.2132 N   0  0  0  0  0  0  0  0  0  0  0  0
   21.5774  -20.4392  -12.1655 C   0  0  0  0  0  0  0  0  0  0  0  0
   21.7056  -19.2297  -11.8831 O   0  0  0  0  0  0  0  0  0  0  0  0
   21.0446  -20.7101  -13.4370 O   0  0  0  0  0  0  0  0  0  0  0  0
  2  1  1  0
  3  4  1  1
  3  2  1  0
  5  3  1  0
  5  6  1  6
  7  5  1  0
  7  8  2  0
  9 10  1  0
 10 11  1  0
 11 12  1  0
 13 12  1  1
 13 14  1  0
 14  7  1  0
 15 25  1  0
 15 13  1  0
 16 15  2  0
 17 18  1  0
 18 20  1  0
 19 18  2  0
 20 21  1  0
 21 22  1  0
 22 23  1  0
 24 23  1  1
 24 25  1  0
 24 26  1  0
 26 27  2  0
 26 28  1  0
M  END
$$$$
