IMR.pdb
     RDKit          3D

 28 27  0  0  1  0  0  0  0  0999 V2000
   31.4235  -21.5571  -11.3022 C   0  0  0  0  0  0  0  0  0  0  0  0
   30.1744  -20.8522  -11.7172 C   0  0  0  0  0  0  0  0  0  0  0  0
   29.8323  -21.0332  -13.1833 C   0  0  2  0  0  0  0  0  0  0  0  0
   30.9449  -20.5065  -14.0193 C   0  0  0  0  0  0  0  0  0  0  0  0
   28.4901  -20.4024  -13.4242 C   0  0  2  0  0  0  0  0  0  0  0  0
   28.6653  -18.9817  -13.0728 N   0  0  0  0  0  0  0  0  0  0  0  0
   27.4468  -20.9293  -12.5051 C   0  0  0  0  0  0  0  0  0  0  0  0
   27.0103  -22.1184  -12.5985 O   0  0  0  0  0  0  0  0  0  0  0  0
   27.4812  -18.5199   -6.5582 C   0  0  0  0  0  0  0  0  0  0  0  0
   26.0625  -19.6172   -6.7159 S   0  0  0  0  0  0  0  0  0  0  0  0
   26.1804  -20.6781   -8.1915 C   0  0  0  0  0  0  0  0  0  0  0  0
   25.6437  -19.8945   -9.3420 C   0  0  0  0  0  0  0  0  0  0  0  0
   25.7428  -20.6255  -10.6718 C   0  0  2  0  0  0  0  0  0  0  0  0
   26.8526  -20.1653  -11.4560 N   0  0  0  0  0  0  0  0  0  0  0  0
   24.4710  -20.6337  -11.4055 C   0  0  0  0  0  0  0  0  0  0  0  0
   24.1695  -19.5771  -12.0437 O   0  0  0  0  0  0  0  0  0  0  0  0
   20.5856  -25.1718  -16.6880 N   0  0  0  0  0  0  0  0  0  0  0  0
   21.6419  -25.6994  -15.8984 C   0  0  0  0  0  0  0  0  0  0  0  0
   22.6356  -26.3316  -16.4065 N   0  0  0  0  0  0  0  0  0  0  0  0
   21.5830  -25.5128  -14.4881 N   0  0  0  0  0  0  0  0  0  0  0  0
   20.5123  -24.7646  -13.8498 C   0  0  0  0  0  0  0  0  0  0  0  0
   20.9070  -23.3445  -13.5913 C   0  0  0  0  0  0  0  0  0  0  0  0
   22.0130  -23.0952  -12.6595 C   0  0  0  0  0  0  0  0  0  0  0  0
   22.3414  -21.7215  -12.2961 C   0  0  2  0  0  0  0  0  0  0  0  0
   23.5712  -21.7089  -11.4560 N   0  0  0  0  0  0  0  0  0  0  0  0
   21.3423  -20.8431  -11.7595 C   0  0  0  0  0  0  0  0  0  0  0  0
   21.1479  -20.6557  -10.5404 O   0  0  0  0  0  0  0  0  0  0  0  0
   20.5008  -20.1227  -12.6237 O   0  0  0  0  0  0  0  0  0  0  0  0
  2  1  1  0
  3  4  1  6
  3  2  1  0
  5  3  1  0
  5  6  1  1
  7  5  1  0
  7  8  2  0
  9 10  1  0
 10 11  1  0
 11 12  1  0
 13 12  1  1
 13 14  1  0
 14  7  1  0
 15 25  1  0
 15 13  1  0
 16 15  2  0
 17 18  1  0
 18 20  1  0
 19 18  2  0
 20 21  1  0
 21 22  1  0
 22 23  1  0
 24 23  1  1
 24 25  1  0
 24 26  1  0
 26 27  2  0
 26 28  1  0
M  END
$$$$
