QYL.pdb
     RDKit          3D

 30 30  0  0  1  0  0  0  0  0999 V2000
    8.9092  -17.9872   15.5276 N   0  0  0  0  0  0  0  0  0  0  0  0
    8.2128  -18.3841   16.7012 C   0  0  0  0  0  0  0  0  0  0  0  0
    8.1464  -19.6104   16.9425 O   0  0  0  0  0  0  0  0  0  0  0  0
    7.6102  -17.3835   17.5648 C   0  0  0  0  0  0  0  0  0  0  0  0
    7.7148  -17.5695   19.0238 C   0  0  0  0  0  0  0  0  0  0  0  0
    8.6672  -16.6907   19.7745 C   0  0  2  0  0  0  0  0  0  0  0  0
   10.0459  -17.0121   19.6739 N   0  0  0  0  0  0  0  0  0  0  0  0
    8.2575  -16.6803   21.2040 C   0  0  0  0  0  0  0  0  0  0  0  0
    7.0664  -16.2611   21.4746 O   0  0  0  0  0  0  0  0  0  0  0  0
    5.6432  -22.4463   21.5996 O   0  0  0  0  0  0  0  0  0  0  0  0
    6.4220  -21.4698   22.2364 C   0  0  0  0  0  0  0  0  0  0  0  0
    7.6867  -21.1633   21.7871 C   0  0  0  0  0  0  0  0  0  0  0  0
    8.4569  -20.1995   22.4146 C   0  0  0  0  0  0  0  0  0  0  0  0
    7.9958  -19.5041   23.5147 C   0  0  0  0  0  0  0  0  0  0  0  0
    8.8267  -18.4777   24.1824 C   0  0  0  0  0  0  0  0  0  0  0  0
    8.5869  -17.0870   23.6390 C   0  0  2  0  0  0  0  0  0  0  0  0
    9.0772  -17.0956   22.2635 N   0  0  0  0  0  0  0  0  0  0  0  0
    9.2443  -16.0259   24.4025 C   0  0  0  0  0  0  0  0  0  0  0  0
   10.4384  -15.6647   24.1651 O   0  0  0  0  0  0  0  0  0  0  0  0
    6.7269  -19.8228   23.9524 C   0  0  0  0  0  0  0  0  0  0  0  0
    5.9490  -20.7811   23.3361 C   0  0  0  0  0  0  0  0  0  0  0  0
    6.8790  -11.4833   25.1297 C   0  0  0  0  0  0  0  0  0  0  0  0
    7.2684  -12.8000   25.7758 C   0  0  2  0  0  0  0  0  0  0  0  0
    6.3927  -13.0935   26.9280 C   0  0  0  0  0  0  0  0  0  0  0  0
    8.7226  -13.0024   25.9214 C   0  0  0  0  0  0  0  0  0  0  0  0
    9.2376  -14.3493   26.2598 C   0  0  2  0  0  0  0  0  0  0  0  0
    8.5357  -15.3731   25.4420 N   0  0  0  0  0  0  0  0  0  0  0  0
    9.2203  -14.7483   27.6732 C   0  0  0  0  0  0  0  0  0  0  0  0
    8.4916  -15.7584   27.9938 O   0  0  0  0  0  0  0  0  0  0  0  0
    9.8964  -14.1733   28.7105 O   0  0  0  0  0  0  0  0  0  0  0  0
  1  2  1  0
  2  3  2  0
  2  4  1  0
  4  5  1  0
  6  7  1  1
  6  5  1  0
  8  6  1  0
  9  8  2  0
 10 11  1  0
 11 12  2  0
 11 21  1  0
 12 13  1  0
 13 14  2  0
 14 15  1  0
 16 15  1  1
 16 17  1  0
 17  8  1  0
 18 27  1  0
 18 16  1  0
 19 18  2  0
 20 14  1  0
 21 20  2  0
 23 22  1  1
 23 25  1  0
 24 23  1  0
 26 25  1  1
 26 27  1  0
 28 26  1  0
 28 30  1  0
 29 28  2  0
M  END
$$$$
