QYL.pdb
     RDKit          3D

 30 30  0  0  1  0  0  0  0  0999 V2000
   13.5137  -15.8071   17.2424 N   0  0  0  0  0  0  0  0  0  0  0  0
   13.0206  -17.1221   17.0247 C   0  0  0  0  0  0  0  0  0  0  0  0
   13.4102  -17.7183   15.9955 O   0  0  0  0  0  0  0  0  0  0  0  0
   12.1002  -17.7221   17.9748 C   0  0  0  0  0  0  0  0  0  0  0  0
   11.7986  -16.9820   19.2140 C   0  0  0  0  0  0  0  0  0  0  0  0
   11.4262  -17.7745   20.4290 C   0  0  2  0  0  0  0  0  0  0  0  0
   10.3488  -18.6875   20.2893 N   0  0  0  0  0  0  0  0  0  0  0  0
   11.1354  -16.8202   21.5318 C   0  0  0  0  0  0  0  0  0  0  0  0
   12.0666  -15.9846   21.8517 O   0  0  0  0  0  0  0  0  0  0  0  0
    7.0812  -13.0459   18.0002 O   0  0  0  0  0  0  0  0  0  0  0  0
    7.3672  -13.6059   19.2532 C   0  0  0  0  0  0  0  0  0  0  0  0
    6.9300  -14.8684   19.5853 C   0  0  0  0  0  0  0  0  0  0  0  0
    7.2114  -15.4229   20.8219 C   0  0  0  0  0  0  0  0  0  0  0  0
    7.9397  -14.7397   21.7755 C   0  0  0  0  0  0  0  0  0  0  0  0
    8.2334  -15.3378   23.0968 C   0  0  0  0  0  0  0  0  0  0  0  0
    9.6821  -15.7452   23.2453 C   0  0  2  0  0  0  0  0  0  0  0  0
    9.9233  -16.7726   22.2359 N   0  0  0  0  0  0  0  0  0  0  0  0
   10.0268  -16.2523   24.5739 C   0  0  0  0  0  0  0  0  0  0  0  0
   10.7652  -17.2727   24.7357 O   0  0  0  0  0  0  0  0  0  0  0  0
    8.3706  -13.4762   21.4274 C   0  0  0  0  0  0  0  0  0  0  0  0
    8.0970  -12.9121   20.1985 C   0  0  0  0  0  0  0  0  0  0  0  0
   11.6962  -13.7365   28.1061 C   0  0  0  0  0  0  0  0  0  0  0  0
   10.1864  -13.7692   27.9580 C   0  0  2  0  0  0  0  0  0  0  0  0
    9.5683  -12.6365   28.6761 C   0  0  0  0  0  0  0  0  0  0  0  0
    9.5875  -15.1101   28.1007 C   0  0  0  0  0  0  0  0  0  0  0  0
    9.8536  -16.1373   27.0674 C   0  0  2  0  0  0  0  0  0  0  0  0
    9.5267  -15.5918   25.7238 N   0  0  0  0  0  0  0  0  0  0  0  0
    9.2187  -17.4511   27.2355 C   0  0  0  0  0  0  0  0  0  0  0  0
    8.2043  -17.7175   26.4912 O   0  0  0  0  0  0  0  0  0  0  0  0
    9.5785  -18.4471   28.0970 O   0  0  0  0  0  0  0  0  0  0  0  0
  1  2  1  0
  2  3  2  0
  2  4  1  0
  4  5  1  0
  6  7  1  6
  6  5  1  0
  8  6  1  0
  9  8  2  0
 10 11  1  0
 11 12  2  0
 11 21  1  0
 12 13  1  0
 13 14  2  0
 14 15  1  0
 16 15  1  1
 16 17  1  0
 17  8  1  0
 18 27  1  0
 18 16  1  0
 19 18  2  0
 20 14  1  0
 21 20  2  0
 23 22  1  1
 23 25  1  0
 24 23  1  0
 26 25  1  1
 26 27  1  0
 28 26  1  0
 28 30  1  0
 29 28  2  0
M  END
$$$$
