QYL.pdb
     RDKit          3D

 30 30  0  0  1  0  0  0  0  0999 V2000
    7.9909  -23.7664   21.5011 N   0  0  0  0  0  0  0  0  0  0  0  0
    6.7280  -23.5293   22.1083 C   0  0  0  0  0  0  0  0  0  0  0  0
    5.8234  -24.3685   21.8986 O   0  0  0  0  0  0  0  0  0  0  0  0
    6.5250  -22.3499   22.9315 C   0  0  0  0  0  0  0  0  0  0  0  0
    7.6313  -21.3817   23.0453 C   0  0  0  0  0  0  0  0  0  0  0  0
    7.4300  -20.1904   23.9303 C   0  0  2  0  0  0  0  0  0  0  0  0
    6.1004  -19.9248   24.3495 N   0  0  0  0  0  0  0  0  0  0  0  0
    7.9840  -18.9988   23.2341 C   0  0  0  0  0  0  0  0  0  0  0  0
    9.1505  -19.1191   22.6935 O   0  0  0  0  0  0  0  0  0  0  0  0
    8.5850  -11.7763   18.2567 O   0  0  0  0  0  0  0  0  0  0  0  0
    8.1479  -12.7663   19.1481 C   0  0  0  0  0  0  0  0  0  0  0  0
    8.0334  -14.0800   18.7526 C   0  0  0  0  0  0  0  0  0  0  0  0
    7.6021  -15.0586   19.6312 C   0  0  0  0  0  0  0  0  0  0  0  0
    7.2680  -14.7651   20.9384 C   0  0  0  0  0  0  0  0  0  0  0  0
    6.8042  -15.8163   21.8709 C   0  0  0  0  0  0  0  0  0  0  0  0
    7.9399  -16.6401   22.4353 C   0  0  2  0  0  0  0  0  0  0  0  0
    7.3220  -17.7668   23.1291 N   0  0  0  0  0  0  0  0  0  0  0  0
    8.8154  -15.9042   23.3480 C   0  0  0  0  0  0  0  0  0  0  0  0
    9.6868  -15.0807   22.9295 O   0  0  0  0  0  0  0  0  0  0  0  0
    7.3883  -13.4445   21.3191 C   0  0  0  0  0  0  0  0  0  0  0  0
    7.8170  -12.4596   20.4534 C   0  0  0  0  0  0  0  0  0  0  0  0
    6.5649  -12.7639   25.5861 C   0  0  0  0  0  0  0  0  0  0  0  0
    7.7339  -13.3589   26.3492 C   0  0  2  0  0  0  0  0  0  0  0  0
    8.0344  -12.5548   27.5507 C   0  0  0  0  0  0  0  0  0  0  0  0
    8.8531  -13.8081   25.4991 C   0  0  0  0  0  0  0  0  0  0  0  0
    9.3914  -15.1770   25.6718 C   0  0  2  0  0  0  0  0  0  0  0  0
    8.6960  -16.1086   24.7454 N   0  0  0  0  0  0  0  0  0  0  0  0
    9.3953  -15.7399   27.0284 C   0  0  0  0  0  0  0  0  0  0  0  0
    8.6581  -16.7716   27.2429 O   0  0  0  0  0  0  0  0  0  0  0  0
   10.0995  -15.2997   28.1120 O   0  0  0  0  0  0  0  0  0  0  0  0
  1  2  1  0
  2  3  2  0
  2  4  1  0
  4  5  1  0
  6  7  1  6
  6  5  1  0
  8  6  1  0
  9  8  2  0
 10 11  1  0
 11 12  2  0
 11 21  1  0
 12 13  1  0
 13 14  2  0
 14 15  1  0
 16 15  1  1
 16 17  1  0
 17  8  1  0
 18 27  1  0
 18 16  1  0
 19 18  2  0
 20 14  1  0
 21 20  2  0
 23 22  1  6
 23 25  1  0
 24 23  1  0
 26 25  1  1
 26 27  1  0
 28 26  1  0
 28 30  1  0
 29 28  2  0
M  END
$$$$
