QYL.pdb
     RDKit          3D

 30 30  0  0  1  0  0  0  0  0999 V2000
   10.7631  -23.0682   22.9373 N   0  0  0  0  0  0  0  0  0  0  0  0
   10.3076  -21.7555   23.2356 C   0  0  0  0  0  0  0  0  0  0  0  0
   10.0250  -21.5030   24.4285 O   0  0  0  0  0  0  0  0  0  0  0  0
   10.1827  -20.7690   22.1768 C   0  0  0  0  0  0  0  0  0  0  0  0
    9.6004  -19.4568   22.5134 C   0  0  0  0  0  0  0  0  0  0  0  0
    9.3573  -18.4916   21.3943 C   0  0  2  0  0  0  0  0  0  0  0  0
   10.0575  -18.7300   20.1832 N   0  0  0  0  0  0  0  0  0  0  0  0
    9.6632  -17.1232   21.8896 C   0  0  0  0  0  0  0  0  0  0  0  0
   10.8138  -16.6256   21.5795 O   0  0  0  0  0  0  0  0  0  0  0  0
    7.2438  -13.3153   17.0978 O   0  0  0  0  0  0  0  0  0  0  0  0
    7.4109  -13.5144   18.4754 C   0  0  0  0  0  0  0  0  0  0  0  0
    6.8593  -14.6050   19.1091 C   0  0  0  0  0  0  0  0  0  0  0  0
    7.0231  -14.8031   20.4692 C   0  0  0  0  0  0  0  0  0  0  0  0
    7.7434  -13.9212   21.2501 C   0  0  0  0  0  0  0  0  0  0  0  0
    7.9112  -14.1379   22.7043 C   0  0  0  0  0  0  0  0  0  0  0  0
    9.1247  -14.9777   23.0343 C   0  0  2  0  0  0  0  0  0  0  0  0
    8.7861  -16.3488   22.6630 N   0  0  0  0  0  0  0  0  0  0  0  0
    9.5266  -14.9202   24.4401 C   0  0  0  0  0  0  0  0  0  0  0  0
    9.9051  -13.8398   24.9898 O   0  0  0  0  0  0  0  0  0  0  0  0
    8.2898  -12.8337   20.6002 C   0  0  0  0  0  0  0  0  0  0  0  0
    8.1340  -12.6247   19.2455 C   0  0  0  0  0  0  0  0  0  0  0  0
   10.3072  -13.2753   28.2710 C   0  0  0  0  0  0  0  0  0  0  0  0
    9.1421  -13.6438   27.3714 C   0  0  2  0  0  0  0  0  0  0  0  0
    8.0285  -12.6896   27.5447 C   0  0  0  0  0  0  0  0  0  0  0  0
    8.8380  -15.0869   27.3261 C   0  0  0  0  0  0  0  0  0  0  0  0
    9.7963  -16.0104   26.6760 C   0  0  2  0  0  0  0  0  0  0  0  0
    9.4963  -16.1012   25.2229 N   0  0  0  0  0  0  0  0  0  0  0  0
    9.9279  -17.3605   27.2392 C   0  0  0  0  0  0  0  0  0  0  0  0
   10.2770  -17.4552   28.4734 O   0  0  0  0  0  0  0  0  0  0  0  0
    9.7189  -18.5521   26.6066 O   0  0  0  0  0  0  0  0  0  0  0  0
  1  2  1  0
  2  3  2  0
  2  4  1  0
  4  5  1  0
  6  7  1  6
  6  5  1  0
  8  6  1  0
  9  8  2  0
 10 11  1  0
 11 12  2  0
 11 21  1  0
 12 13  1  0
 13 14  2  0
 14 15  1  0
 16 15  1  1
 16 17  1  0
 17  8  1  0
 18 27  1  0
 18 16  1  0
 19 18  2  0
 20 14  1  0
 21 20  2  0
 23 22  1  1
 23 25  1  0
 24 23  1  0
 26 25  1  1
 26 27  1  0
 28 26  1  0
 28 30  1  0
 29 28  2  0
M  END
$$$$
