QYL.pdb
     RDKit          3D

 30 30  0  0  1  0  0  0  0  0999 V2000
   15.3693  -13.6890   18.4735 N   0  0  0  0  0  0  0  0  0  0  0  0
   14.9854  -14.8613   17.7677 C   0  0  0  0  0  0  0  0  0  0  0  0
   15.7144  -15.2238   16.8170 O   0  0  0  0  0  0  0  0  0  0  0  0
   13.7883  -15.5866   18.1557 C   0  0  0  0  0  0  0  0  0  0  0  0
   13.0902  -15.1700   19.3859 C   0  0  0  0  0  0  0  0  0  0  0  0
   12.7321  -16.2310   20.3804 C   0  0  2  0  0  0  0  0  0  0  0  0
   12.0897  -17.3902   19.8727 N   0  0  0  0  0  0  0  0  0  0  0  0
   11.8867  -15.6099   21.4344 C   0  0  0  0  0  0  0  0  0  0  0  0
   12.3147  -14.5136   21.9659 O   0  0  0  0  0  0  0  0  0  0  0  0
    7.5917  -12.6000   17.6195 O   0  0  0  0  0  0  0  0  0  0  0  0
    7.8042  -13.3075   18.8111 C   0  0  0  0  0  0  0  0  0  0  0  0
    7.7827  -14.6838   18.8353 C   0  0  0  0  0  0  0  0  0  0  0  0
    7.9922  -15.3839   20.0108 C   0  0  0  0  0  0  0  0  0  0  0  0
    8.2312  -14.7386   21.2078 C   0  0  0  0  0  0  0  0  0  0  0  0
    8.4507  -15.4941   22.4612 C   0  0  0  0  0  0  0  0  0  0  0  0
    9.8918  -15.4624   22.9184 C   0  0  2  0  0  0  0  0  0  0  0  0
   10.6652  -16.1365   21.8791 N   0  0  0  0  0  0  0  0  0  0  0  0
   10.1216  -16.1026   24.2139 C   0  0  0  0  0  0  0  0  0  0  0  0
   10.8710  -17.1201   24.3400 O   0  0  0  0  0  0  0  0  0  0  0  0
    8.2497  -13.3597   21.1668 C   0  0  0  0  0  0  0  0  0  0  0  0
    8.0425  -12.6500   20.0020 C   0  0  0  0  0  0  0  0  0  0  0  0
   10.9145  -13.7192   28.5371 C   0  0  0  0  0  0  0  0  0  0  0  0
    9.5882  -13.9708   27.8443 C   0  0  2  0  0  0  0  0  0  0  0  0
    8.5814  -12.9786   28.2715 C   0  0  0  0  0  0  0  0  0  0  0  0
    9.1966  -15.3915   27.7720 C   0  0  0  0  0  0  0  0  0  0  0  0
    9.7347  -16.2380   26.6822 C   0  0  2  0  0  0  0  0  0  0  0  0
    9.4936  -15.5792   25.3716 N   0  0  0  0  0  0  0  0  0  0  0  0
    9.2872  -17.6356   26.6230 C   0  0  0  0  0  0  0  0  0  0  0  0
    9.5877  -18.3956   27.6160 O   0  0  0  0  0  0  0  0  0  0  0  0
    8.5748  -18.2419   25.6286 O   0  0  0  0  0  0  0  0  0  0  0  0
  1  2  1  0
  2  3  2  0
  2  4  1  0
  4  5  1  0
  6  7  1  6
  6  5  1  0
  8  6  1  0
  9  8  2  0
 10 11  1  0
 11 12  2  0
 11 21  1  0
 12 13  1  0
 13 14  2  0
 14 15  1  0
 16 15  1  6
 16 17  1  0
 17  8  1  0
 18 27  1  0
 18 16  1  0
 19 18  2  0
 20 14  1  0
 21 20  2  0
 23 22  1  1
 23 25  1  0
 24 23  1  0
 26 25  1  1
 26 27  1  0
 28 26  1  0
 28 30  1  0
 29 28  2  0
M  END
$$$$
