QYL.pdb
     RDKit          3D

 30 30  0  0  1  0  0  0  0  0999 V2000
    7.2073  -15.5751   16.2507 N   0  0  0  0  0  0  0  0  0  0  0  0
    6.9447  -16.7903   15.5621 C   0  0  0  0  0  0  0  0  0  0  0  0
    5.9124  -16.8387   14.8560 O   0  0  0  0  0  0  0  0  0  0  0  0
    7.8549  -17.9145   15.6945 C   0  0  0  0  0  0  0  0  0  0  0  0
    8.9884  -17.7859   16.6288 C   0  0  0  0  0  0  0  0  0  0  0  0
   10.3637  -18.0572   16.1016 C   0  0  2  0  0  0  0  0  0  0  0  0
   10.6648  -19.4035   15.7684 N   0  0  0  0  0  0  0  0  0  0  0  0
   11.3476  -17.5546   17.0970 C   0  0  0  0  0  0  0  0  0  0  0  0
   11.9256  -18.4295   17.8507 O   0  0  0  0  0  0  0  0  0  0  0  0
   18.3966  -13.6219   20.2992 O   0  0  0  0  0  0  0  0  0  0  0  0
   17.1967  -13.8861   19.6241 C   0  0  0  0  0  0  0  0  0  0  0  0
   16.5400  -15.0857   19.7825 C   0  0  0  0  0  0  0  0  0  0  0  0
   15.3552  -15.3484   19.1168 C   0  0  0  0  0  0  0  0  0  0  0  0
   14.7794  -14.4249   18.2670 C   0  0  0  0  0  0  0  0  0  0  0  0
   13.5144  -14.7144   17.5559 C   0  0  0  0  0  0  0  0  0  0  0  0
   12.6991  -15.7954   18.2293 C   0  0  2  0  0  0  0  0  0  0  0  0
   11.6831  -16.2029   17.2627 N   0  0  0  0  0  0  0  0  0  0  0  0
   12.0661  -15.3746   19.4797 C   0  0  0  0  0  0  0  0  0  0  0  0
   12.7398  -14.9342   20.4619 O   0  0  0  0  0  0  0  0  0  0  0  0
   15.4496  -13.2280   18.1191 C   0  0  0  0  0  0  0  0  0  0  0  0
   16.6309  -12.9537   18.7768 C   0  0  0  0  0  0  0  0  0  0  0  0
    9.0030  -12.6568   19.0643 C   0  0  0  0  0  0  0  0  0  0  0  0
    8.2229  -13.9317   19.3264 C   0  0  2  0  0  0  0  0  0  0  0  0
    6.7917  -13.7389   19.0178 C   0  0  0  0  0  0  0  0  0  0  0  0
    8.5912  -14.6276   20.5742 C   0  0  0  0  0  0  0  0  0  0  0  0
   10.0160  -14.9295   20.8433 C   0  0  2  0  0  0  0  0  0  0  0  0
   10.6572  -15.4566   19.6101 N   0  0  0  0  0  0  0  0  0  0  0  0
   10.3214  -15.8133   21.9760 C   0  0  0  0  0  0  0  0  0  0  0  0
    9.8468  -15.4868   23.1258 O   0  0  0  0  0  0  0  0  0  0  0  0
   11.0574  -16.9631   21.9619 O   0  0  0  0  0  0  0  0  0  0  0  0
  1  2  1  0
  2  3  2  0
  2  4  1  0
  4  5  1  0
  6  7  1  1
  6  5  1  0
  8  6  1  0
  9  8  2  0
 10 11  1  0
 11 12  2  0
 11 21  1  0
 12 13  1  0
 13 14  2  0
 14 15  1  0
 16 15  1  6
 16 17  1  0
 17  8  1  0
 18 27  1  0
 18 16  1  0
 19 18  2  0
 20 14  1  0
 21 20  2  0
 23 22  1  1
 23 25  1  0
 24 23  1  0
 26 25  1  6
 26 27  1  0
 28 26  1  0
 28 30  1  0
 29 28  2  0
M  END
$$$$
