QYL.pdb
     RDKit          3D

 30 30  0  0  1  0  0  0  0  0999 V2000
    9.9971  -17.6379   16.1007 N   0  0  0  0  0  0  0  0  0  0  0  0
    9.0354  -18.5690   16.5782 C   0  0  0  0  0  0  0  0  0  0  0  0
    8.2957  -19.1166   15.7299 O   0  0  0  0  0  0  0  0  0  0  0  0
    8.9369  -18.8508   17.9998 C   0  0  0  0  0  0  0  0  0  0  0  0
    9.8183  -18.1079   18.9192 C   0  0  0  0  0  0  0  0  0  0  0  0
    9.7430  -18.4363   20.3785 C   0  0  2  0  0  0  0  0  0  0  0  0
    8.4678  -18.7975   20.8859 N   0  0  0  0  0  0  0  0  0  0  0  0
   10.2762  -17.2764   21.1412 C   0  0  0  0  0  0  0  0  0  0  0  0
   11.4624  -16.8650   20.8390 O   0  0  0  0  0  0  0  0  0  0  0  0
    6.6922  -12.8815   17.8305 O   0  0  0  0  0  0  0  0  0  0  0  0
    7.2260  -13.2685   19.0678 C   0  0  0  0  0  0  0  0  0  0  0  0
    8.3559  -12.6674   19.5749 C   0  0  0  0  0  0  0  0  0  0  0  0
    8.8843  -13.0482   20.7963 C   0  0  0  0  0  0  0  0  0  0  0  0
    8.3064  -14.0434   21.5592 C   0  0  0  0  0  0  0  0  0  0  0  0
    8.8793  -14.4475   22.8624 C   0  0  0  0  0  0  0  0  0  0  0  0
   10.0779  -15.3580   22.7173 C   0  0  2  0  0  0  0  0  0  0  0  0
    9.5752  -16.6091   22.1562 N   0  0  0  0  0  0  0  0  0  0  0  0
   10.7872  -15.6161   23.9708 C   0  0  0  0  0  0  0  0  0  0  0  0
   11.9170  -15.0956   24.2261 O   0  0  0  0  0  0  0  0  0  0  0  0
    7.1749  -14.6356   21.0372 C   0  0  0  0  0  0  0  0  0  0  0  0
    6.6382  -14.2654   19.8215 C   0  0  0  0  0  0  0  0  0  0  0  0
    9.5742  -15.1098   29.1173 C   0  0  0  0  0  0  0  0  0  0  0  0
    9.8806  -14.1770   27.9603 C   0  0  2  0  0  0  0  0  0  0  0  0
    9.2840  -12.8463   28.1925 C   0  0  0  0  0  0  0  0  0  0  0  0
    9.7425  -14.7925   26.6264 C   0  0  0  0  0  0  0  0  0  0  0  0
   10.3352  -16.1270   26.3782 C   0  0  2  0  0  0  0  0  0  0  0  0
   10.2044  -16.4723   24.9382 N   0  0  0  0  0  0  0  0  0  0  0  0
    9.8580  -17.2464   27.2006 C   0  0  0  0  0  0  0  0  0  0  0  0
   10.6081  -17.6279   28.1731 O   0  0  0  0  0  0  0  0  0  0  0  0
    8.6933  -17.9453   27.0629 O   0  0  0  0  0  0  0  0  0  0  0  0
  1  2  1  0
  2  3  2  0
  2  4  1  0
  4  5  1  0
  6  7  1  1
  6  5  1  0
  8  6  1  0
  9  8  2  0
 10 11  1  0
 11 12  2  0
 11 21  1  0
 12 13  1  0
 13 14  2  0
 14 15  1  0
 16 15  1  1
 16 17  1  0
 17  8  1  0
 18 27  1  0
 18 16  1  0
 19 18  2  0
 20 14  1  0
 21 20  2  0
 23 22  1  1
 23 25  1  0
 24 23  1  0
 26 25  1  6
 26 27  1  0
 28 26  1  0
 28 30  1  0
 29 28  2  0
M  END
$$$$
