QYL.pdb
     RDKit          3D

 30 30  0  0  1  0  0  0  0  0999 V2000
    9.8139  -14.9850   18.0726 N   0  0  0  0  0  0  0  0  0  0  0  0
    9.3746  -16.2893   18.4269 C   0  0  0  0  0  0  0  0  0  0  0  0
    8.2978  -16.6877   17.9287 O   0  0  0  0  0  0  0  0  0  0  0  0
   10.1639  -17.1026   19.3355 C   0  0  0  0  0  0  0  0  0  0  0  0
   11.4151  -16.5342   19.8700 C   0  0  0  0  0  0  0  0  0  0  0  0
   12.2013  -17.3619   20.8395 C   0  0  2  0  0  0  0  0  0  0  0  0
   12.4598  -18.7066   20.4668 N   0  0  0  0  0  0  0  0  0  0  0  0
   11.4989  -17.3305   22.1498 C   0  0  0  0  0  0  0  0  0  0  0  0
   10.8746  -18.4015   22.5118 O   0  0  0  0  0  0  0  0  0  0  0  0
    9.6307  -15.1456   30.5192 O   0  0  0  0  0  0  0  0  0  0  0  0
    9.9944  -15.1108   29.1657 C   0  0  0  0  0  0  0  0  0  0  0  0
    9.5534  -14.1048   28.3357 C   0  0  0  0  0  0  0  0  0  0  0  0
    9.9114  -14.0688   26.9991 C   0  0  0  0  0  0  0  0  0  0  0  0
   10.7231  -15.0349   26.4384 C   0  0  0  0  0  0  0  0  0  0  0  0
   11.0986  -14.9916   25.0077 C   0  0  0  0  0  0  0  0  0  0  0  0
   10.7472  -16.2651   24.2719 C   0  0  2  0  0  0  0  0  0  0  0  0
   11.4759  -16.2208   23.0072 N   0  0  0  0  0  0  0  0  0  0  0  0
    9.3153  -16.4357   24.0236 C   0  0  0  0  0  0  0  0  0  0  0  0
    8.5203  -16.8547   24.9209 O   0  0  0  0  0  0  0  0  0  0  0  0
   11.1566  -16.0358   27.2832 C   0  0  0  0  0  0  0  0  0  0  0  0
   10.8072  -16.0832   28.6169 C   0  0  0  0  0  0  0  0  0  0  0  0
    8.9856  -13.5255   21.3705 C   0  0  0  0  0  0  0  0  0  0  0  0
    7.8923  -14.3861   20.7648 C   0  0  2  0  0  0  0  0  0  0  0  0
    7.3735  -13.7728   19.5258 C   0  0  0  0  0  0  0  0  0  0  0  0
    6.9306  -14.9297   21.7429 C   0  0  0  0  0  0  0  0  0  0  0  0
    7.3127  -16.1040   22.5607 C   0  0  2  0  0  0  0  0  0  0  0  0
    8.7876  -16.1266   22.7451 N   0  0  0  0  0  0  0  0  0  0  0  0
    6.8500  -17.4240   22.1126 C   0  0  0  0  0  0  0  0  0  0  0  0
    5.5891  -17.5703   21.9063 O   0  0  0  0  0  0  0  0  0  0  0  0
    7.6049  -18.5373   21.8789 O   0  0  0  0  0  0  0  0  0  0  0  0
  1  2  1  0
  2  3  2  0
  2  4  1  0
  4  5  1  0
  6  7  1  6
  6  5  1  0
  8  6  1  0
  9  8  2  0
 10 11  1  0
 11 12  2  0
 11 21  1  0
 12 13  1  0
 13 14  2  0
 14 15  1  0
 16 15  1  6
 16 17  1  0
 17  8  1  0
 18 27  1  0
 18 16  1  0
 19 18  2  0
 20 14  1  0
 21 20  2  0
 23 22  1  1
 23 25  1  0
 24 23  1  0
 26 25  1  6
 26 27  1  0
 28 26  1  0
 28 30  1  0
 29 28  2  0
M  END
$$$$
