QYL.pdb
     RDKit          3D

 30 30  0  0  1  0  0  0  0  0999 V2000
    9.1182  -20.6100   17.6554 N   0  0  0  0  0  0  0  0  0  0  0  0
    7.7658  -20.1735   17.6671 C   0  0  0  0  0  0  0  0  0  0  0  0
    6.9541  -20.7998   16.9490 O   0  0  0  0  0  0  0  0  0  0  0  0
    7.3722  -19.0413   18.4875 C   0  0  0  0  0  0  0  0  0  0  0  0
    8.4165  -18.3484   19.2644 C   0  0  0  0  0  0  0  0  0  0  0  0
    8.2208  -18.2239   20.7440 C   0  0  2  0  0  0  0  0  0  0  0  0
    6.8813  -18.1394   21.2051 N   0  0  0  0  0  0  0  0  0  0  0  0
    8.9886  -17.0401   21.2136 C   0  0  0  0  0  0  0  0  0  0  0  0
   10.2426  -16.9901   20.9094 O   0  0  0  0  0  0  0  0  0  0  0  0
    8.0035  -13.3419   16.3204 O   0  0  0  0  0  0  0  0  0  0  0  0
    8.1583  -13.4088   17.7122 C   0  0  0  0  0  0  0  0  0  0  0  0
    7.1029  -13.7427   18.5306 C   0  0  0  0  0  0  0  0  0  0  0  0
    7.2539  -13.8091   19.9049 C   0  0  0  0  0  0  0  0  0  0  0  0
    8.4634  -13.5450   20.5163 C   0  0  0  0  0  0  0  0  0  0  0  0
    8.6162  -13.6146   21.9866 C   0  0  0  0  0  0  0  0  0  0  0  0
    9.2768  -14.8949   22.4460 C   0  0  2  0  0  0  0  0  0  0  0  0
    8.4381  -15.9858   21.9569 N   0  0  0  0  0  0  0  0  0  0  0  0
    9.4403  -14.9955   23.8966 C   0  0  0  0  0  0  0  0  0  0  0  0
   10.4915  -14.5956   24.4862 O   0  0  0  0  0  0  0  0  0  0  0  0
    9.5110  -13.2121   19.6825 C   0  0  0  0  0  0  0  0  0  0  0  0
    9.3738  -13.1424   18.3115 C   0  0  0  0  0  0  0  0  0  0  0  0
    8.4265  -12.4339   26.9385 C   0  0  0  0  0  0  0  0  0  0  0  0
    7.2947  -13.2855   26.3941 C   0  0  2  0  0  0  0  0  0  0  0  0
    5.9967  -12.6059   26.5788 C   0  0  0  0  0  0  0  0  0  0  0  0
    7.3965  -14.7200   26.7238 C   0  0  0  0  0  0  0  0  0  0  0  0
    8.5108  -15.5167   26.1604 C   0  0  2  0  0  0  0  0  0  0  0  0
    8.3992  -15.5550   24.6786 N   0  0  0  0  0  0  0  0  0  0  0  0
    8.7024  -16.8781   26.6773 C   0  0  0  0  0  0  0  0  0  0  0  0
    8.8094  -17.0175   27.9513 O   0  0  0  0  0  0  0  0  0  0  0  0
    8.7791  -18.0386   25.9623 O   0  0  0  0  0  0  0  0  0  0  0  0
  1  2  1  0
  2  3  2  0
  2  4  1  0
  4  5  1  0
  6  7  1  6
  6  5  1  0
  8  6  1  0
  9  8  2  0
 10 11  1  0
 11 12  2  0
 11 21  1  0
 12 13  1  0
 13 14  2  0
 14 15  1  0
 16 15  1  1
 16 17  1  0
 17  8  1  0
 18 27  1  0
 18 16  1  0
 19 18  2  0
 20 14  1  0
 21 20  2  0
 23 22  1  1
 23 25  1  0
 24 23  1  0
 26 25  1  1
 26 27  1  0
 28 26  1  0
 28 30  1  0
 29 28  2  0
M  END
$$$$
