QYL.pdb
     RDKit          3D

 30 30  0  0  1  0  0  0  0  0999 V2000
    5.2909  -21.1724   24.1311 N   0  0  0  0  0  0  0  0  0  0  0  0
    6.4638  -20.6018   24.6956 C   0  0  0  0  0  0  0  0  0  0  0  0
    6.8953  -21.1077   25.7560 O   0  0  0  0  0  0  0  0  0  0  0  0
    7.1115  -19.4754   24.0463 C   0  0  0  0  0  0  0  0  0  0  0  0
    6.4503  -18.8735   22.8739 C   0  0  0  0  0  0  0  0  0  0  0  0
    7.2976  -18.5511   21.6818 C   0  0  2  0  0  0  0  0  0  0  0  0
    8.0651  -19.6141   21.1387 N   0  0  0  0  0  0  0  0  0  0  0  0
    8.1926  -17.4199   22.0434 C   0  0  0  0  0  0  0  0  0  0  0  0
    9.4553  -17.6726   22.1402 O   0  0  0  0  0  0  0  0  0  0  0  0
    7.6698  -13.7500   16.2301 O   0  0  0  0  0  0  0  0  0  0  0  0
    7.7555  -13.7582   17.6294 C   0  0  0  0  0  0  0  0  0  0  0  0
    8.6932  -12.9965   18.2897 C   0  0  0  0  0  0  0  0  0  0  0  0
    8.7793  -13.0034   19.6711 C   0  0  0  0  0  0  0  0  0  0  0  0
    7.9337  -13.7704   20.4478 C   0  0  0  0  0  0  0  0  0  0  0  0
    8.0343  -13.7753   21.9241 C   0  0  0  0  0  0  0  0  0  0  0  0
    8.7070  -15.0188   22.4604 C   0  0  2  0  0  0  0  0  0  0  0  0
    7.7526  -16.1095   22.2808 N   0  0  0  0  0  0  0  0  0  0  0  0
    9.1060  -14.9236   23.8650 C   0  0  0  0  0  0  0  0  0  0  0  0
   10.1856  -14.3586   24.2227 O   0  0  0  0  0  0  0  0  0  0  0  0
    6.9998  -14.5278   19.7712 C   0  0  0  0  0  0  0  0  0  0  0  0
    6.9035  -14.5298   18.3950 C   0  0  0  0  0  0  0  0  0  0  0  0
    8.5708  -12.1462   26.9585 C   0  0  0  0  0  0  0  0  0  0  0  0
    7.3814  -13.0078   26.5770 C   0  0  2  0  0  0  0  0  0  0  0  0
    6.1154  -12.3204   26.9017 C   0  0  0  0  0  0  0  0  0  0  0  0
    7.5231  -14.4341   26.9269 C   0  0  0  0  0  0  0  0  0  0  0  0
    8.5990  -15.2327   26.2956 C   0  0  2  0  0  0  0  0  0  0  0  0
    8.2690  -15.4756   24.8667 N   0  0  0  0  0  0  0  0  0  0  0  0
    8.9724  -16.4991   26.9391 C   0  0  0  0  0  0  0  0  0  0  0  0
    8.7228  -17.5851   26.2970 O   0  0  0  0  0  0  0  0  0  0  0  0
    9.5665  -16.6729   28.1559 O   0  0  0  0  0  0  0  0  0  0  0  0
  1  2  1  0
  2  3  2  0
  2  4  1  0
  4  5  1  0
  6  7  1  1
  6  5  1  0
  8  6  1  0
  9  8  2  0
 10 11  1  0
 11 12  2  0
 11 21  1  0
 12 13  1  0
 13 14  2  0
 14 15  1  0
 16 15  1  1
 16 17  1  0
 17  8  1  0
 18 27  1  0
 18 16  1  0
 19 18  2  0
 20 14  1  0
 21 20  2  0
 23 22  1  1
 23 25  1  0
 24 23  1  0
 26 25  1  1
 26 27  1  0
 28 26  1  0
 28 30  1  0
 29 28  2  0
M  END
$$$$
