QYL.pdb
     RDKit          3D

 30 30  0  0  1  0  0  0  0  0999 V2000
    8.6154  -17.3644   19.6156 N   0  0  0  0  0  0  0  0  0  0  0  0
    7.4201  -17.7422   18.9460 C   0  0  0  0  0  0  0  0  0  0  0  0
    7.5203  -18.5783   18.0201 O   0  0  0  0  0  0  0  0  0  0  0  0
    6.1486  -17.1617   19.3411 C   0  0  0  0  0  0  0  0  0  0  0  0
    5.7500  -17.2575   20.7575 C   0  0  0  0  0  0  0  0  0  0  0  0
    5.6101  -18.6241   21.3539 C   0  0  2  0  0  0  0  0  0  0  0  0
    4.3947  -19.3104   21.0976 N   0  0  0  0  0  0  0  0  0  0  0  0
    5.8230  -18.5118   22.8214 C   0  0  0  0  0  0  0  0  0  0  0  0
    4.7721  -18.4168   23.5657 O   0  0  0  0  0  0  0  0  0  0  0  0
    6.7078  -22.9883   29.4567 O   0  0  0  0  0  0  0  0  0  0  0  0
    7.0938  -22.1182   28.4274 C   0  0  0  0  0  0  0  0  0  0  0  0
    7.1655  -22.5479   27.1214 C   0  0  0  0  0  0  0  0  0  0  0  0
    7.5464  -21.6903   26.1039 C   0  0  0  0  0  0  0  0  0  0  0  0
    7.8707  -20.3708   26.3494 C   0  0  0  0  0  0  0  0  0  0  0  0
    8.2805  -19.4609   25.2568 C   0  0  0  0  0  0  0  0  0  0  0  0
    7.2049  -18.4622   24.8930 C   0  0  2  0  0  0  0  0  0  0  0  0
    7.0825  -18.5051   23.4384 N   0  0  0  0  0  0  0  0  0  0  0  0
    7.4840  -17.0958   25.3358 C   0  0  0  0  0  0  0  0  0  0  0  0
    7.5759  -16.7906   26.5651 O   0  0  0  0  0  0  0  0  0  0  0  0
    7.7938  -19.9558   27.6630 C   0  0  0  0  0  0  0  0  0  0  0  0
    7.4156  -20.8003   28.6862 C   0  0  0  0  0  0  0  0  0  0  0  0
    6.0115  -12.3547   27.1417 C   0  0  0  0  0  0  0  0  0  0  0  0
    7.1828  -12.8256   26.2997 C   0  0  2  0  0  0  0  0  0  0  0  0
    7.7803  -11.6953   25.5608 C   0  0  0  0  0  0  0  0  0  0  0  0
    6.9499  -14.0953   25.5851 C   0  0  0  0  0  0  0  0  0  0  0  0
    8.0605  -14.7149   24.8259 C   0  0  2  0  0  0  0  0  0  0  0  0
    7.6596  -16.0723   24.3713 N   0  0  0  0  0  0  0  0  0  0  0  0
    9.3757  -14.7797   25.4765 C   0  0  0  0  0  0  0  0  0  0  0  0
   10.3729  -14.2661   24.8474 O   0  0  0  0  0  0  0  0  0  0  0  0
    9.6795  -15.3241   26.6911 O   0  0  0  0  0  0  0  0  0  0  0  0
  1  2  1  0
  2  3  2  0
  2  4  1  0
  4  5  1  0
  6  7  1  1
  6  5  1  0
  8  6  1  0
  9  8  2  0
 10 11  1  0
 11 12  2  0
 11 21  1  0
 12 13  1  0
 13 14  2  0
 14 15  1  0
 16 15  1  6
 16 17  1  0
 17  8  1  0
 18 27  1  0
 18 16  1  0
 19 18  2  0
 20 14  1  0
 21 20  2  0
 23 22  1  6
 23 25  1  0
 24 23  1  0
 26 25  1  1
 26 27  1  0
 28 26  1  0
 28 30  1  0
 29 28  2  0
M  END
$$$$
