QYL.pdb
     RDKit          3D

 30 30  0  0  1  0  0  0  0  0999 V2000
    8.9704  -12.0000   19.2387 N   0  0  0  0  0  0  0  0  0  0  0  0
    9.5515  -13.1010   18.5532 C   0  0  0  0  0  0  0  0  0  0  0  0
   10.8011  -13.1698   18.5325 O   0  0  0  0  0  0  0  0  0  0  0  0
    8.7032  -14.0891   17.9097 C   0  0  0  0  0  0  0  0  0  0  0  0
    7.6882  -14.7751   18.7302 C   0  0  0  0  0  0  0  0  0  0  0  0
    7.9368  -16.2051   19.0992 C   0  0  2  0  0  0  0  0  0  0  0  0
    7.2701  -17.1890   18.3236 N   0  0  0  0  0  0  0  0  0  0  0  0
    7.5905  -16.3788   20.5350 C   0  0  0  0  0  0  0  0  0  0  0  0
    6.5083  -15.8129   20.9548 O   0  0  0  0  0  0  0  0  0  0  0  0
    7.4125  -19.3523   28.9023 O   0  0  0  0  0  0  0  0  0  0  0  0
    7.6978  -19.1360   27.5468 C   0  0  0  0  0  0  0  0  0  0  0  0
    8.9959  -19.0958   27.0901 C   0  0  0  0  0  0  0  0  0  0  0  0
    9.2794  -18.8823   25.7522 C   0  0  0  0  0  0  0  0  0  0  0  0
    8.2792  -18.7004   24.8178 C   0  0  0  0  0  0  0  0  0  0  0  0
    8.5904  -18.4691   23.3897 C   0  0  0  0  0  0  0  0  0  0  0  0
    7.9769  -17.1938   22.8566 C   0  0  2  0  0  0  0  0  0  0  0  0
    8.3591  -17.1137   21.4494 N   0  0  0  0  0  0  0  0  0  0  0  0
    8.4012  -15.9855   23.5644 C   0  0  0  0  0  0  0  0  0  0  0  0
    8.3997  -14.8432   23.0097 O   0  0  0  0  0  0  0  0  0  0  0  0
    6.9841  -18.7436   25.2913 C   0  0  0  0  0  0  0  0  0  0  0  0
    6.6880  -18.9557   26.6220 C   0  0  0  0  0  0  0  0  0  0  0  0
    5.7296  -13.2042   26.3022 C   0  0  0  0  0  0  0  0  0  0  0  0
    7.1556  -13.5767   26.6632 C   0  0  2  0  0  0  0  0  0  0  0  0
    7.6711  -12.6921   27.7274 C   0  0  0  0  0  0  0  0  0  0  0  0
    8.0217  -13.8715   25.5057 C   0  0  0  0  0  0  0  0  0  0  0  0
    9.1370  -14.8337   25.6603 C   0  0  2  0  0  0  0  0  0  0  0  0
    8.8292  -16.0809   24.9122 N   0  0  0  0  0  0  0  0  0  0  0  0
    9.5618  -15.1683   27.0259 C   0  0  0  0  0  0  0  0  0  0  0  0
    8.9210  -16.1040   27.6323 O   0  0  0  0  0  0  0  0  0  0  0  0
   10.5740  -14.6026   27.7466 O   0  0  0  0  0  0  0  0  0  0  0  0
  1  2  1  0
  2  3  2  0
  2  4  1  0
  4  5  1  0
  6  7  1  6
  6  5  1  0
  8  6  1  0
  9  8  2  0
 10 11  1  0
 11 12  2  0
 11 21  1  0
 12 13  1  0
 13 14  2  0
 14 15  1  0
 16 15  1  1
 16 17  1  0
 17  8  1  0
 18 27  1  0
 18 16  1  0
 19 18  2  0
 20 14  1  0
 21 20  2  0
 23 22  1  6
 23 25  1  0
 24 23  1  0
 26 25  1  1
 26 27  1  0
 28 26  1  0
 28 30  1  0
 29 28  2  0
M  END
$$$$
