QYL.pdb
     RDKit          3D

 30 30  0  0  1  0  0  0  0  0999 V2000
    7.2777  -13.7289   17.4478 N   0  0  0  0  0  0  0  0  0  0  0  0
    8.0194  -12.9664   18.3903 C   0  0  0  0  0  0  0  0  0  0  0  0
    8.5851  -11.9307   17.9731 O   0  0  0  0  0  0  0  0  0  0  0  0
    8.1017  -13.3987   19.7746 C   0  0  0  0  0  0  0  0  0  0  0  0
    7.4263  -14.6537   20.1530 C   0  0  0  0  0  0  0  0  0  0  0  0
    8.2589  -15.8950   20.2479 C   0  0  2  0  0  0  0  0  0  0  0  0
    7.8654  -16.9904   19.4360 N   0  0  0  0  0  0  0  0  0  0  0  0
    8.2994  -16.3163   21.6735 C   0  0  0  0  0  0  0  0  0  0  0  0
    7.1680  -16.5108   22.2649 O   0  0  0  0  0  0  0  0  0  0  0  0
   10.9788  -19.7957   29.3627 O   0  0  0  0  0  0  0  0  0  0  0  0
   10.8572  -19.3540   28.0377 C   0  0  0  0  0  0  0  0  0  0  0  0
    9.7293  -19.6269   27.2970 C   0  0  0  0  0  0  0  0  0  0  0  0
    9.6076  -19.1916   25.9887 C   0  0  0  0  0  0  0  0  0  0  0  0
   10.6061  -18.4673   25.3683 C   0  0  0  0  0  0  0  0  0  0  0  0
   10.4701  -18.0084   23.9681 C   0  0  0  0  0  0  0  0  0  0  0  0
    9.4332  -16.9194   23.8076 C   0  0  2  0  0  0  0  0  0  0  0  0
    9.4794  -16.5148   22.4051 N   0  0  0  0  0  0  0  0  0  0  0  0
    9.6456  -15.7600   24.6746 C   0  0  0  0  0  0  0  0  0  0  0  0
   10.6167  -14.9596   24.5047 O   0  0  0  0  0  0  0  0  0  0  0  0
   11.7295  -18.2020   26.1240 C   0  0  0  0  0  0  0  0  0  0  0  0
   11.8633  -18.6300   27.4286 C   0  0  0  0  0  0  0  0  0  0  0  0
    7.9879  -11.9190   25.2510 C   0  0  0  0  0  0  0  0  0  0  0  0
    7.1190  -12.9305   25.9753 C   0  0  2  0  0  0  0  0  0  0  0  0
    5.7886  -12.3597   26.2666 C   0  0  0  0  0  0  0  0  0  0  0  0
    7.8142  -13.6845   27.0360 C   0  0  0  0  0  0  0  0  0  0  0  0
    9.0538  -14.4251   26.7064 C   0  0  2  0  0  0  0  0  0  0  0  0
    8.7453  -15.5123   25.7407 N   0  0  0  0  0  0  0  0  0  0  0  0
    9.8408  -14.9643   27.8232 C   0  0  0  0  0  0  0  0  0  0  0  0
   10.3752  -14.1195   28.6325 O   0  0  0  0  0  0  0  0  0  0  0  0
   10.0788  -16.2755   28.1194 O   0  0  0  0  0  0  0  0  0  0  0  0
  1  2  1  0
  2  3  2  0
  2  4  1  0
  4  5  1  0
  6  7  1  6
  6  5  1  0
  8  6  1  0
  9  8  2  0
 10 11  1  0
 11 12  2  0
 11 21  1  0
 12 13  1  0
 13 14  2  0
 14 15  1  0
 16 15  1  6
 16 17  1  0
 17  8  1  0
 18 27  1  0
 18 16  1  0
 19 18  2  0
 20 14  1  0
 21 20  2  0
 23 22  1  1
 23 25  1  0
 24 23  1  0
 26 25  1  1
 26 27  1  0
 28 26  1  0
 28 30  1  0
 29 28  2  0
M  END
$$$$
