PSC.pdb
     RDKit          3D

 20 20  0  0  1  0  0  0  0  0999 V2000
    8.5942  -15.2616   19.8446 N   0  0  0  0  0  0  0  0  0  0  0  0
    7.4717  -15.0942   18.9494 C   0  0  0  0  0  0  0  0  0  0  0  0
    7.4605  -13.6003   18.6665 C   0  0  0  0  0  0  0  0  0  0  0  0
    7.9495  -12.9853   19.9375 C   0  0  0  0  0  0  0  0  0  0  0  0
    8.7028  -14.0869   20.6334 C   0  0  1  0  0  0  0  0  0  0  0  0
    8.2930  -14.2045   22.0369 C   0  0  0  0  0  0  0  0  0  0  0  0
    8.3065  -13.1560   22.7330 O   0  0  0  0  0  0  0  0  0  0  0  0
    7.4202  -17.7304   24.0983 O   0  0  0  0  0  0  0  0  0  0  0  0
    6.6680  -16.5912   24.4460 C   0  0  0  0  0  0  0  0  0  0  0  0
    7.5070  -15.3961   24.0517 C   0  0  2  0  0  0  0  0  0  0  0  0
    7.8825  -15.3992   22.6766 N   0  0  0  0  0  0  0  0  0  0  0  0
    8.7005  -15.4069   24.9451 C   0  0  0  0  0  0  0  0  0  0  0  0
    9.8008  -15.8275   24.5025 O   0  0  0  0  0  0  0  0  0  0  0  0
    8.6660  -14.9616   26.2916 N   0  0  0  0  0  0  0  0  0  0  0  0
    9.8241  -14.9775   27.1569 C   0  0  1  0  0  0  0  0  0  0  0  0
    9.5572  -13.9928   28.2747 C   0  0  0  0  0  0  0  0  0  0  0  0
   10.9318  -13.8665   29.4218 S   0  0  0  0  0  0  0  0  0  0  0  0
   10.0089  -16.3510   27.6645 C   0  0  0  0  0  0  0  0  0  0  0  0
   11.1587  -16.8265   27.8171 O   0  0  0  0  0  0  0  0  0  0  0  0
    8.9323  -17.1770   27.9951 O   0  0  0  0  0  0  0  0  0  0  0  0
  2  1  1  0
  3  2  1  0
  4  3  1  0
  4  5  1  0
  5  6  1  1
  5  1  1  0
  6 11  1  0
  7  6  2  0
  9  8  1  0
 10  9  1  6
 10 12  1  0
 11 10  1  0
 12 14  1  0
 12 13  2  0
 14 15  1  0
 15 18  1  0
 15 16  1  1
 17 16  1  0
 18 20  1  0
 19 18  2  0
M  END
$$$$
