PSC.pdb
     RDKit          3D

 20 20  0  0  1  0  0  0  0  0999 V2000
    8.3020  -15.0455   18.2366 N   0  0  0  0  0  0  0  0  0  0  0  0
    7.2967  -14.4747   17.3690 C   0  0  0  0  0  0  0  0  0  0  0  0
    7.4209  -12.9792   17.6144 C   0  0  0  0  0  0  0  0  0  0  0  0
    7.8126  -12.8776   19.0529 C   0  0  0  0  0  0  0  0  0  0  0  0
    8.4076  -14.2194   19.3857 C   0  0  1  0  0  0  0  0  0  0  0  0
    7.8422  -14.7563   20.6281 C   0  0  0  0  0  0  0  0  0  0  0  0
    7.9237  -14.0378   21.6582 O   0  0  0  0  0  0  0  0  0  0  0  0
    6.3551  -18.6010   21.2825 O   0  0  0  0  0  0  0  0  0  0  0  0
    5.6273  -17.5415   21.8588 C   0  0  0  0  0  0  0  0  0  0  0  0
    6.5983  -16.3906   21.9989 C   0  0  2  0  0  0  0  0  0  0  0  0
    7.2113  -16.0163   20.7676 N   0  0  0  0  0  0  0  0  0  0  0  0
    7.6108  -16.8149   23.0077 C   0  0  0  0  0  0  0  0  0  0  0  0
    8.7452  -17.1995   22.6217 O   0  0  0  0  0  0  0  0  0  0  0  0
    7.3639  -16.8098   24.4046 N   0  0  0  0  0  0  0  0  0  0  0  0
    8.3473  -17.2237   25.3803 C   0  0  1  0  0  0  0  0  0  0  0  0
    8.4690  -16.1039   26.3911 C   0  0  0  0  0  0  0  0  0  0  0  0
    8.6586  -14.4963   25.6159 S   0  0  0  0  0  0  0  0  0  0  0  0
    7.8876  -18.4806   26.0026 C   0  0  0  0  0  0  0  0  0  0  0  0
    6.7548  -18.9475   25.7380 O   0  0  0  0  0  0  0  0  0  0  0  0
    8.6763  -19.2017   26.9018 O   0  0  0  0  0  0  0  0  0  0  0  0
  2  1  1  0
  3  2  1  0
  4  3  1  0
  4  5  1  0
  5  6  1  1
  5  1  1  0
  6 11  1  0
  7  6  2  0
  9  8  1  0
 10  9  1  6
 10 12  1  0
 11 10  1  0
 12 14  1  0
 12 13  2  0
 14 15  1  0
 15 18  1  0
 15 16  1  1
 17 16  1  0
 18 20  1  0
 19 18  2  0
M  END
$$$$
