PSC.pdb
     RDKit          3D

 20 20  0  0  1  0  0  0  0  0999 V2000
   -2.5133  -26.6280   26.0335 N   0  0  0  0  0  0  0  0  0  0  0  0
   -2.4379  -27.4146   24.8232 C   0  0  0  0  0  0  0  0  0  0  0  0
   -2.3068  -26.3700   23.7261 C   0  0  0  0  0  0  0  0  0  0  0  0
   -3.1018  -25.2099   24.2311 C   0  0  0  0  0  0  0  0  0  0  0  0
   -3.1682  -25.4082   25.7216 C   0  0  1  0  0  0  0  0  0  0  0  0
   -4.5417  -25.2616   26.2150 C   0  0  0  0  0  0  0  0  0  0  0  0
   -5.1471  -24.1951   25.9320 O   0  0  0  0  0  0  0  0  0  0  0  0
   -6.4550  -27.7939   28.8436 O   0  0  0  0  0  0  0  0  0  0  0  0
   -7.2989  -27.2420   27.8599 C   0  0  0  0  0  0  0  0  0  0  0  0
   -6.6032  -25.9961   27.3589 C   0  0  2  0  0  0  0  0  0  0  0  0
   -5.2461  -26.2196   26.9839 N   0  0  0  0  0  0  0  0  0  0  0  0
   -6.7102  -24.9867   28.4508 C   0  0  0  0  0  0  0  0  0  0  0  0
   -5.7597  -24.8524   29.2645 O   0  0  0  0  0  0  0  0  0  0  0  0
   -7.8441  -24.1529   28.6284 N   0  0  0  0  0  0  0  0  0  0  0  0
   -7.9920  -23.2519   29.7494 C   0  0  1  0  0  0  0  0  0  0  0  0
   -7.3863  -21.9274   29.3379 C   0  0  0  0  0  0  0  0  0  0  0  0
   -7.7758  -20.6066   30.4890 S   0  0  0  0  0  0  0  0  0  0  0  0
   -9.4291  -23.1275   30.0621 C   0  0  0  0  0  0  0  0  0  0  0  0
  -10.2970  -23.4848   29.2313 O   0  0  0  0  0  0  0  0  0  0  0  0
   -9.8879  -22.6147   31.2775 O   0  0  0  0  0  0  0  0  0  0  0  0
  2  1  1  0
  3  2  1  0
  4  3  1  0
  4  5  1  0
  5  6  1  6
  5  1  1  0
  6 11  1  0
  7  6  2  0
  9  8  1  0
 10  9  1  1
 10 12  1  0
 11 10  1  0
 12 14  1  0
 12 13  2  0
 14 15  1  0
 15 18  1  0
 15 16  1  6
 17 16  1  0
 18 20  1  0
 19 18  2  0
M  END
$$$$
