PSC.pdb
     RDKit          3D

 20 20  0  0  1  0  0  0  0  0999 V2000
    8.4569  -15.5322   19.0866 N   0  0  0  0  0  0  0  0  0  0  0  0
    9.1086  -16.6200   18.3929 C   0  0  0  0  0  0  0  0  0  0  0  0
    8.2314  -17.8212   18.7087 C   0  0  0  0  0  0  0  0  0  0  0  0
    7.7236  -17.5488   20.0874 C   0  0  0  0  0  0  0  0  0  0  0  0
    7.8563  -16.0594   20.2593 C   0  0  1  0  0  0  0  0  0  0  0  0
    8.5090  -15.7289   21.5306 C   0  0  0  0  0  0  0  0  0  0  0  0
    9.7674  -15.7367   21.5537 O   0  0  0  0  0  0  0  0  0  0  0  0
    6.5545  -15.1200   25.0869 O   0  0  0  0  0  0  0  0  0  0  0  0
    7.7714  -14.4178   24.9846 C   0  0  0  0  0  0  0  0  0  0  0  0
    8.5816  -15.1312   23.9254 C   0  0  2  0  0  0  0  0  0  0  0  0
    7.8430  -15.4012   22.7364 N   0  0  0  0  0  0  0  0  0  0  0  0
    9.0842  -16.3860   24.5543 C   0  0  0  0  0  0  0  0  0  0  0  0
    8.5910  -17.4913   24.2098 O   0  0  0  0  0  0  0  0  0  0  0  0
   10.1063  -16.4056   25.5379 N   0  0  0  0  0  0  0  0  0  0  0  0
   10.6716  -17.6284   26.0629 C   0  0  1  0  0  0  0  0  0  0  0  0
   12.0540  -17.7718   25.4639 C   0  0  0  0  0  0  0  0  0  0  0  0
   12.9697  -19.1444   26.1700 S   0  0  0  0  0  0  0  0  0  0  0  0
   10.7161  -17.5282   27.5347 C   0  0  0  0  0  0  0  0  0  0  0  0
   10.5639  -16.4223   28.1047 O   0  0  0  0  0  0  0  0  0  0  0  0
   10.9263  -18.6399   28.3536 O   0  0  0  0  0  0  0  0  0  0  0  0
  2  1  1  0
  3  2  1  0
  4  3  1  0
  4  5  1  0
  5  6  1  1
  5  1  1  0
  6 11  1  0
  7  6  2  0
  9  8  1  0
 10  9  1  1
 10 12  1  0
 11 10  1  0
 12 14  1  0
 12 13  2  0
 14 15  1  0
 15 18  1  0
 15 16  1  6
 17 16  1  0
 18 20  1  0
 19 18  2  0
M  END
$$$$
