PSC.pdb
     RDKit          3D

 20 20  0  0  1  0  0  0  0  0999 V2000
    9.0631  -14.5814   19.1342 N   0  0  0  0  0  0  0  0  0  0  0  0
    7.8817  -14.5257   18.3034 C   0  0  0  0  0  0  0  0  0  0  0  0
    7.4190  -13.0835   18.4371 C   0  0  0  0  0  0  0  0  0  0  0  0
    7.7949  -12.7085   19.8339 C   0  0  0  0  0  0  0  0  0  0  0  0
    8.8808  -13.6789   20.2141 C   0  0  1  0  0  0  0  0  0  0  0  0
    8.6198  -14.2783   21.5272 C   0  0  0  0  0  0  0  0  0  0  0  0
    8.4982  -13.4963   22.5058 O   0  0  0  0  0  0  0  0  0  0  0  0
    7.7085  -17.9703   24.4278 O   0  0  0  0  0  0  0  0  0  0  0  0
    8.3630  -17.6529   23.2214 C   0  0  0  0  0  0  0  0  0  0  0  0
    8.3574  -16.1437   23.1236 C   0  0  2  0  0  0  0  0  0  0  0  0
    8.4926  -15.6642   21.7880 N   0  0  0  0  0  0  0  0  0  0  0  0
    9.4684  -15.6617   23.9932 C   0  0  0  0  0  0  0  0  0  0  0  0
   10.2410  -14.7635   23.5690 O   0  0  0  0  0  0  0  0  0  0  0  0
    9.7090  -16.1675   25.2966 N   0  0  0  0  0  0  0  0  0  0  0  0
   10.0883  -15.3273   26.4105 C   0  0  1  0  0  0  0  0  0  0  0  0
    8.9460  -14.3638   26.6495 C   0  0  0  0  0  0  0  0  0  0  0  0
    9.2517  -13.2663   28.0364 S   0  0  0  0  0  0  0  0  0  0  0  0
   10.3368  -16.1895   27.5823 C   0  0  0  0  0  0  0  0  0  0  0  0
   11.2442  -15.9095   28.4006 O   0  0  0  0  0  0  0  0  0  0  0  0
    9.5877  -17.3407   27.8357 O   0  0  0  0  0  0  0  0  0  0  0  0
  2  1  1  0
  3  2  1  0
  4  3  1  0
  4  5  1  0
  5  6  1  1
  5  1  1  0
  6 11  1  0
  7  6  2  0
  9  8  1  0
 10  9  1  6
 10 12  1  0
 11 10  1  0
 12 14  1  0
 12 13  2  0
 14 15  1  0
 15 18  1  0
 15 16  1  1
 17 16  1  0
 18 20  1  0
 19 18  2  0
M  END
$$$$
