PSC.pdb
     RDKit          3D

 20 20  0  0  1  0  0  0  0  0999 V2000
   -1.7700  -26.6673   26.2797 N   0  0  0  0  0  0  0  0  0  0  0  0
   -1.9036  -27.2933   24.9837 C   0  0  0  0  0  0  0  0  0  0  0  0
   -1.8672  -26.1213   24.0157 C   0  0  0  0  0  0  0  0  0  0  0  0
   -2.5215  -25.0078   24.7672 C   0  0  0  0  0  0  0  0  0  0  0  0
   -2.3942  -25.3943   26.2163 C   0  0  1  0  0  0  0  0  0  0  0  0
   -3.6774  -25.2625   26.9145 C   0  0  0  0  0  0  0  0  0  0  0  0
   -4.6787  -24.9329   26.2269 O   0  0  0  0  0  0  0  0  0  0  0  0
   -4.2478  -25.5652   30.9794 O   0  0  0  0  0  0  0  0  0  0  0  0
   -5.2970  -26.1018   30.2076 C   0  0  0  0  0  0  0  0  0  0  0  0
   -5.2006  -25.4429   28.8497 C   0  0  2  0  0  0  0  0  0  0  0  0
   -3.8862  -25.4750   28.2988 N   0  0  0  0  0  0  0  0  0  0  0  0
   -5.6864  -24.0444   29.0253 C   0  0  0  0  0  0  0  0  0  0  0  0
   -4.8831  -23.1536   29.4058 O   0  0  0  0  0  0  0  0  0  0  0  0
   -7.0283  -23.6529   28.7835 N   0  0  0  0  0  0  0  0  0  0  0  0
   -7.4723  -22.2785   28.8487 C   0  0  1  0  0  0  0  0  0  0  0  0
   -8.5621  -22.1139   27.8115 C   0  0  0  0  0  0  0  0  0  0  0  0
   -7.9264  -22.1612   26.1337 S   0  0  0  0  0  0  0  0  0  0  0  0
   -7.9655  -22.0114   30.2139 C   0  0  0  0  0  0  0  0  0  0  0  0
   -8.2882  -22.9554   30.9728 O   0  0  0  0  0  0  0  0  0  0  0  0
   -8.0960  -20.7168   30.7216 O   0  0  0  0  0  0  0  0  0  0  0  0
  2  1  1  0
  3  2  1  0
  4  3  1  0
  4  5  1  0
  5  6  1  6
  5  1  1  0
  6 11  1  0
  7  6  2  0
  9  8  1  0
 10  9  1  1
 10 12  1  0
 11 10  1  0
 12 14  1  0
 12 13  2  0
 14 15  1  0
 15 18  1  0
 15 16  1  6
 17 16  1  0
 18 20  1  0
 19 18  2  0
M  END
$$$$
