PSC.pdb
     RDKit          3D

 20 20  0  0  1  0  0  0  0  0999 V2000
    7.9273  -15.1053   18.3657 N   0  0  0  0  0  0  0  0  0  0  0  0
    6.8288  -14.2183   18.0566 C   0  0  0  0  0  0  0  0  0  0  0  0
    7.5176  -12.9536   17.5687 C   0  0  0  0  0  0  0  0  0  0  0  0
    8.7811  -12.8970   18.3645 C   0  0  0  0  0  0  0  0  0  0  0  0
    9.0147  -14.3132   18.8174 C   0  0  1  0  0  0  0  0  0  0  0  0
    9.3087  -14.3685   20.2534 C   0  0  0  0  0  0  0  0  0  0  0  0
   10.3283  -13.7522   20.6590 O   0  0  0  0  0  0  0  0  0  0  0  0
    7.3143  -16.7305   22.9523 O   0  0  0  0  0  0  0  0  0  0  0  0
    7.9047  -15.5914   23.5339 C   0  0  0  0  0  0  0  0  0  0  0  0
    8.9853  -15.1416   22.5762 C   0  0  2  0  0  0  0  0  0  0  0  0
    8.5417  -15.0575   21.2240 N   0  0  0  0  0  0  0  0  0  0  0  0
   10.1087  -16.1104   22.7244 C   0  0  0  0  0  0  0  0  0  0  0  0
   10.1953  -17.0835   21.9312 O   0  0  0  0  0  0  0  0  0  0  0  0
   11.1049  -15.9959   23.7279 N   0  0  0  0  0  0  0  0  0  0  0  0
   12.1507  -16.9764   23.9160 C   0  0  1  0  0  0  0  0  0  0  0  0
   13.3685  -16.2353   24.4241 C   0  0  0  0  0  0  0  0  0  0  0  0
   14.7684  -17.3235   24.7024 S   0  0  0  0  0  0  0  0  0  0  0  0
   11.6762  -17.9856   24.8827 C   0  0  0  0  0  0  0  0  0  0  0  0
   12.0910  -19.1672   24.8282 O   0  0  0  0  0  0  0  0  0  0  0  0
   10.7575  -17.6821   25.8899 O   0  0  0  0  0  0  0  0  0  0  0  0
  2  1  1  0
  3  2  1  0
  4  3  1  0
  4  5  1  0
  5  6  1  1
  5  1  1  0
  6 11  1  0
  7  6  2  0
  9  8  1  0
 10  9  1  1
 10 12  1  0
 11 10  1  0
 12 14  1  0
 12 13  2  0
 14 15  1  0
 15 18  1  0
 15 16  1  1
 17 16  1  0
 18 20  1  0
 19 18  2  0
M  END
$$$$
