PSC.pdb
     RDKit          3D

 20 20  0  0  1  0  0  0  0  0999 V2000
    9.2174  -14.6587   19.4704 N   0  0  0  0  0  0  0  0  0  0  0  0
    8.0948  -14.7266   18.5624 C   0  0  0  0  0  0  0  0  0  0  0  0
    7.4998  -13.3287   18.6253 C   0  0  0  0  0  0  0  0  0  0  0  0
    7.7457  -12.8912   20.0328 C   0  0  0  0  0  0  0  0  0  0  0  0
    8.8839  -13.7526   20.5105 C   0  0  1  0  0  0  0  0  0  0  0  0
    8.5875  -14.3440   21.8197 C   0  0  0  0  0  0  0  0  0  0  0  0
    8.1595  -13.5739   22.7184 O   0  0  0  0  0  0  0  0  0  0  0  0
    9.5913  -18.1550   23.1062 O   0  0  0  0  0  0  0  0  0  0  0  0
    8.3398  -17.6891   23.5546 C   0  0  0  0  0  0  0  0  0  0  0  0
    8.3929  -16.1807   23.4585 C   0  0  2  0  0  0  0  0  0  0  0  0
    8.7422  -15.7099   22.1591 N   0  0  0  0  0  0  0  0  0  0  0  0
    9.3731  -15.7279   24.4865 C   0  0  0  0  0  0  0  0  0  0  0  0
   10.5239  -15.3666   24.1274 O   0  0  0  0  0  0  0  0  0  0  0  0
    9.0772  -15.6802   25.8731 N   0  0  0  0  0  0  0  0  0  0  0  0
   10.0426  -15.2786   26.8717 C   0  0  1  0  0  0  0  0  0  0  0  0
    9.4263  -14.1375   27.6519 C   0  0  0  0  0  0  0  0  0  0  0  0
   10.5566  -13.4424   28.8605 S   0  0  0  0  0  0  0  0  0  0  0  0
   10.3346  -16.4410   27.7330 C   0  0  0  0  0  0  0  0  0  0  0  0
    9.5021  -17.3700   27.8564 O   0  0  0  0  0  0  0  0  0  0  0  0
   11.5315  -16.5640   28.4422 O   0  0  0  0  0  0  0  0  0  0  0  0
  2  1  1  0
  3  2  1  0
  4  3  1  0
  4  5  1  0
  5  6  1  1
  5  1  1  0
  6 11  1  0
  7  6  2  0
  9  8  1  0
 10  9  1  6
 10 12  1  0
 11 10  1  0
 12 14  1  0
 12 13  2  0
 14 15  1  0
 15 18  1  0
 15 16  1  1
 17 16  1  0
 18 20  1  0
 19 18  2  0
M  END
$$$$
