PSC.pdb
     RDKit          3D

 20 20  0  0  1  0  0  0  0  0999 V2000
    9.0523  -14.7194   19.0964 N   0  0  0  0  0  0  0  0  0  0  0  0
    8.0584  -14.8695   18.0578 C   0  0  0  0  0  0  0  0  0  0  0  0
    7.5479  -13.4531   17.8449 C   0  0  0  0  0  0  0  0  0  0  0  0
    7.6311  -12.8285   19.1998 C   0  0  0  0  0  0  0  0  0  0  0  0
    8.6403  -13.6597   19.9456 C   0  0  1  0  0  0  0  0  0  0  0  0
    8.1366  -14.0434   21.2687 C   0  0  0  0  0  0  0  0  0  0  0  0
    7.6772  -13.1281   22.0003 O   0  0  0  0  0  0  0  0  0  0  0  0
    8.8769  -17.5565   23.3678 O   0  0  0  0  0  0  0  0  0  0  0  0
    7.5503  -17.0880   23.4392 C   0  0  0  0  0  0  0  0  0  0  0  0
    7.6045  -15.6159   23.0967 C   0  0  2  0  0  0  0  0  0  0  0  0
    8.1231  -15.3582   21.7941 N   0  0  0  0  0  0  0  0  0  0  0  0
    8.4329  -14.9683   24.1536 C   0  0  0  0  0  0  0  0  0  0  0  0
    9.6335  -14.6808   23.9091 O   0  0  0  0  0  0  0  0  0  0  0  0
    7.9358  -14.6517   25.4440 N   0  0  0  0  0  0  0  0  0  0  0  0
    8.7298  -13.9876   26.4534 C   0  0  1  0  0  0  0  0  0  0  0  0
    8.0229  -12.6937   26.7946 C   0  0  0  0  0  0  0  0  0  0  0  0
    6.2359  -12.8559   26.7548 S   0  0  0  0  0  0  0  0  0  0  0  0
    8.8399  -14.8808   27.6232 C   0  0  0  0  0  0  0  0  0  0  0  0
    9.5164  -14.5436   28.6232 O   0  0  0  0  0  0  0  0  0  0  0  0
    8.2077  -16.1251   27.6758 O   0  0  0  0  0  0  0  0  0  0  0  0
  2  1  1  0
  3  2  1  0
  4  3  1  0
  4  5  1  0
  5  6  1  1
  5  1  1  0
  6 11  1  0
  7  6  2  0
  9  8  1  0
 10  9  1  1
 10 12  1  0
 11 10  1  0
 12 14  1  0
 12 13  2  0
 14 15  1  0
 15 18  1  0
 15 16  1  1
 17 16  1  0
 18 20  1  0
 19 18  2  0
M  END
$$$$
