PSC.pdb
     RDKit          3D

 20 20  0  0  1  0  0  0  0  0999 V2000
    8.7330  -15.0310   19.5017 N   0  0  0  0  0  0  0  0  0  0  0  0
    7.5442  -14.8295   18.7046 C   0  0  0  0  0  0  0  0  0  0  0  0
    7.4667  -13.3184   18.5548 C   0  0  0  0  0  0  0  0  0  0  0  0
    8.0271  -12.7962   19.8379 C   0  0  0  0  0  0  0  0  0  0  0  0
    8.8621  -13.9245   20.3809 C   0  0  1  0  0  0  0  0  0  0  0  0
    8.5585  -14.1761   21.7937 C   0  0  0  0  0  0  0  0  0  0  0  0
    8.7561  -13.2338   22.6042 O   0  0  0  0  0  0  0  0  0  0  0  0
    7.7798  -17.8753   23.5000 O   0  0  0  0  0  0  0  0  0  0  0  0
    7.1016  -16.7939   24.0957 C   0  0  0  0  0  0  0  0  0  0  0  0
    7.8842  -15.5526   23.7296 C   0  0  2  0  0  0  0  0  0  0  0  0
    8.0610  -15.3910   22.3244 N   0  0  0  0  0  0  0  0  0  0  0  0
    9.1922  -15.6561   24.4375 C   0  0  0  0  0  0  0  0  0  0  0  0
   10.2126  -15.1189   23.9336 O   0  0  0  0  0  0  0  0  0  0  0  0
    9.3555  -16.3385   25.6705 N   0  0  0  0  0  0  0  0  0  0  0  0
   10.0931  -15.7869   26.7850 C   0  0  1  0  0  0  0  0  0  0  0  0
    9.4247  -14.4811   27.1574 C   0  0  0  0  0  0  0  0  0  0  0  0
   10.2846  -13.6212   28.4775 S   0  0  0  0  0  0  0  0  0  0  0  0
   10.0594  -16.7596   27.8945 C   0  0  0  0  0  0  0  0  0  0  0  0
    9.0077  -17.3865   28.1628 O   0  0  0  0  0  0  0  0  0  0  0  0
   11.1770  -17.0270   28.6884 O   0  0  0  0  0  0  0  0  0  0  0  0
  2  1  1  0
  3  2  1  0
  4  3  1  0
  4  5  1  0
  5  6  1  1
  5  1  1  0
  6 11  1  0
  7  6  2  0
  9  8  1  0
 10  9  1  6
 10 12  1  0
 11 10  1  0
 12 14  1  0
 12 13  2  0
 14 15  1  0
 15 18  1  0
 15 16  1  1
 17 16  1  0
 18 20  1  0
 19 18  2  0
M  END
$$$$
