PSC.pdb
     RDKit          3D

 20 20  0  0  1  0  0  0  0  0999 V2000
    9.1614  -14.9408   19.2341 N   0  0  0  0  0  0  0  0  0  0  0  0
    8.2913  -15.1240   18.0945 C   0  0  0  0  0  0  0  0  0  0  0  0
    7.8744  -13.7073   17.7323 C   0  0  0  0  0  0  0  0  0  0  0  0
    7.8253  -12.9953   19.0451 C   0  0  0  0  0  0  0  0  0  0  0  0
    8.7004  -13.8109   19.9585 C   0  0  1  0  0  0  0  0  0  0  0  0
    8.0271  -14.0842   21.2326 C   0  0  0  0  0  0  0  0  0  0  0  0
    7.5583  -13.1001   21.8617 O   0  0  0  0  0  0  0  0  0  0  0  0
    8.4173  -17.4318   23.7492 O   0  0  0  0  0  0  0  0  0  0  0  0
    7.1128  -16.9427   23.5411 C   0  0  0  0  0  0  0  0  0  0  0  0
    7.2673  -15.5027   23.1056 C   0  0  2  0  0  0  0  0  0  0  0  0
    7.8590  -15.3634   21.8162 N   0  0  0  0  0  0  0  0  0  0  0  0
    8.0824  -14.8303   24.1574 C   0  0  0  0  0  0  0  0  0  0  0  0
    9.3227  -14.6992   23.9894 O   0  0  0  0  0  0  0  0  0  0  0  0
    7.5292  -14.3202   25.3600 N   0  0  0  0  0  0  0  0  0  0  0  0
    8.3167  -13.6388   26.3630 C   0  0  1  0  0  0  0  0  0  0  0  0
    7.5188  -12.4334   26.8110 C   0  0  0  0  0  0  0  0  0  0  0  0
    5.7820  -12.8124   27.0584 S   0  0  0  0  0  0  0  0  0  0  0  0
    8.5700  -14.5764   27.4743 C   0  0  0  0  0  0  0  0  0  0  0  0
    8.0118  -15.6983   27.5035 O   0  0  0  0  0  0  0  0  0  0  0  0
    9.4290  -14.2680   28.5315 O   0  0  0  0  0  0  0  0  0  0  0  0
  2  1  1  0
  3  2  1  0
  4  3  1  0
  4  5  1  0
  5  6  1  1
  5  1  1  0
  6 11  1  0
  7  6  2  0
  9  8  1  0
 10  9  1  1
 10 12  1  0
 11 10  1  0
 12 14  1  0
 12 13  2  0
 14 15  1  0
 15 18  1  0
 15 16  1  1
 17 16  1  0
 18 20  1  0
 19 18  2  0
M  END
$$$$
