PSC.pdb
     RDKit          3D

 20 20  0  0  1  0  0  0  0  0999 V2000
   -3.3037  -24.9746   24.6778 N   0  0  0  0  0  0  0  0  0  0  0  0
   -1.8727  -25.0989   24.5165 C   0  0  0  0  0  0  0  0  0  0  0  0
   -1.6061  -26.5661   24.8135 C   0  0  0  0  0  0  0  0  0  0  0  0
   -2.6273  -26.9201   25.8454 C   0  0  0  0  0  0  0  0  0  0  0  0
   -3.7108  -25.8878   25.6849 C   0  0  1  0  0  0  0  0  0  0  0  0
   -4.0847  -25.3066   26.9787 C   0  0  0  0  0  0  0  0  0  0  0  0
   -4.3023  -26.1027   27.9289 O   0  0  0  0  0  0  0  0  0  0  0  0
   -4.1755  -21.2985   27.8114 O   0  0  0  0  0  0  0  0  0  0  0  0
   -4.0133  -22.1430   28.9272 C   0  0  0  0  0  0  0  0  0  0  0  0
   -4.6230  -23.4722   28.5416 C   0  0  2  0  0  0  0  0  0  0  0  0
   -4.2220  -23.9237   27.2503 N   0  0  0  0  0  0  0  0  0  0  0  0
   -6.1012  -23.2971   28.6255 C   0  0  0  0  0  0  0  0  0  0  0  0
   -6.7456  -22.9752   27.5935 O   0  0  0  0  0  0  0  0  0  0  0  0
   -6.8371  -23.4760   29.8250 N   0  0  0  0  0  0  0  0  0  0  0  0
   -8.2703  -23.3030   29.9038 C   0  0  1  0  0  0  0  0  0  0  0  0
   -8.7757  -24.2585   30.9630 C   0  0  0  0  0  0  0  0  0  0  0  0
   -8.8863  -25.9481   30.3678 S   0  0  0  0  0  0  0  0  0  0  0  0
   -8.5526  -21.8963   30.2501 C   0  0  0  0  0  0  0  0  0  0  0  0
   -9.7008  -21.4181   30.0946 O   0  0  0  0  0  0  0  0  0  0  0  0
   -7.5731  -21.0410   30.7598 O   0  0  0  0  0  0  0  0  0  0  0  0
  2  1  1  0
  3  2  1  0
  4  3  1  0
  4  5  1  0
  5  6  1  1
  5  1  1  0
  6 11  1  0
  7  6  2  0
  9  8  1  0
 10  9  1  6
 10 12  1  0
 11 10  1  0
 12 14  1  0
 12 13  2  0
 14 15  1  0
 15 18  1  0
 15 16  1  1
 17 16  1  0
 18 20  1  0
 19 18  2  0
M  END
$$$$
