PSC.pdb
     RDKit          3D

 20 20  0  0  1  0  0  0  0  0999 V2000
    8.7169  -14.8075   19.3101 N   0  0  0  0  0  0  0  0  0  0  0  0
    7.5043  -14.3933   18.6413 C   0  0  0  0  0  0  0  0  0  0  0  0
    7.4293  -12.9022   18.9291 C   0  0  0  0  0  0  0  0  0  0  0  0
    8.0329  -12.7630   20.2890 C   0  0  0  0  0  0  0  0  0  0  0  0
    8.8794  -13.9954   20.4625 C   0  0  1  0  0  0  0  0  0  0  0  0
    8.6198  -14.6389   21.7548 C   0  0  0  0  0  0  0  0  0  0  0  0
    7.5293  -14.3732   22.3244 O   0  0  0  0  0  0  0  0  0  0  0  0
   10.9541  -17.5544   23.5005 O   0  0  0  0  0  0  0  0  0  0  0  0
    9.5904  -17.5247   23.8523 C   0  0  0  0  0  0  0  0  0  0  0  0
    9.1428  -16.0901   23.6830 C   0  0  2  0  0  0  0  0  0  0  0  0
    9.4930  -15.5352   22.4175 N   0  0  0  0  0  0  0  0  0  0  0  0
    9.7552  -15.3231   24.8053 C   0  0  0  0  0  0  0  0  0  0  0  0
   10.8463  -14.7235   24.6219 O   0  0  0  0  0  0  0  0  0  0  0  0
    9.1670  -15.2289   26.0928 N   0  0  0  0  0  0  0  0  0  0  0  0
    9.7791  -14.5108   27.1882 C   0  0  1  0  0  0  0  0  0  0  0  0
    8.7219  -13.5936   27.7640 C   0  0  0  0  0  0  0  0  0  0  0  0
    8.0933  -12.4255   26.5549 S   0  0  0  0  0  0  0  0  0  0  0  0
   10.2573  -15.4926   28.1810 C   0  0  0  0  0  0  0  0  0  0  0  0
   10.0181  -16.7146   28.0376 O   0  0  0  0  0  0  0  0  0  0  0  0
   10.9877  -15.1179   29.3110 O   0  0  0  0  0  0  0  0  0  0  0  0
  2  1  1  0
  3  2  1  0
  4  3  1  0
  4  5  1  0
  5  6  1  1
  5  1  1  0
  6 11  1  0
  7  6  2  0
  9  8  1  0
 10  9  1  6
 10 12  1  0
 11 10  1  0
 12 14  1  0
 12 13  2  0
 14 15  1  0
 15 18  1  0
 15 16  1  1
 17 16  1  0
 18 20  1  0
 19 18  2  0
M  END
$$$$
