SVG.pdb
     RDKit          3D

 18 17  0  0  1  0  0  0  0  0999 V2000
   25.1432   -7.0412  -20.1238 O   0  0  0  0  0  0  0  0  0  0  0  0
   24.0624   -7.1404  -19.2785 C   0  0  0  0  0  0  0  0  0  0  0  0
   23.8093   -8.6161  -18.9726 C   0  0  2  0  0  0  0  0  0  0  0  0
   23.3178   -9.2137  -20.2131 N   0  0  0  0  0  0  0  0  0  0  0  0
   22.7881   -8.7833  -17.9317 C   0  0  0  0  0  0  0  0  0  0  0  0
   21.5623   -8.8672  -18.2260 O   0  0  0  0  0  0  0  0  0  0  0  0
   21.2386  -10.4063  -13.6856 C   0  0  0  0  0  0  0  0  0  0  0  0
   22.3424  -10.1794  -14.6805 C   0  0  2  0  0  0  0  0  0  0  0  0
   23.6910  -10.0955  -14.0075 C   0  0  0  0  0  0  0  0  0  0  0  0
   22.0586   -8.9806  -15.5530 C   0  0  2  0  0  0  0  0  0  0  0  0
   23.1044   -8.8608  -16.5478 N   0  0  0  0  0  0  0  0  0  0  0  0
   21.8849   -7.7402  -14.7732 C   0  0  0  0  0  0  0  0  0  0  0  0
   20.9384   -7.6641  -13.9660 O   0  0  0  0  0  0  0  0  0  0  0  0
   22.7414   -6.6117  -14.8870 N   0  0  0  0  0  0  0  0  0  0  0  0
   22.6136   -5.4160  -14.1208 C   0  0  0  0  0  0  0  0  0  0  0  0
   21.6342   -4.4638  -14.6544 C   0  0  0  0  0  0  0  0  0  0  0  0
   21.9630   -3.1918  -15.0893 O   0  0  0  0  0  0  0  0  0  0  0  0
   20.4288   -4.8112  -14.7250 O   0  0  0  0  0  0  0  0  0  0  0  0
  1  2  1  0
  3  2  1  0
  3  4  1  6
  5 11  1  0
  5  3  1  0
  6  5  2  0
  8  7  1  1
  9  8  1  0
 10 11  1  6
 10  8  1  0
 12 13  2  0
 12 10  1  0
 14 12  1  0
 15 14  1  0
 15 16  1  0
 16 17  1  0
 18 16  2  0
M  END
$$$$
