SVG.pdb
     RDKit          3D

 18 17  0  0  1  0  0  0  0  0999 V2000
   24.1636   -9.5510  -20.4689 O   0  0  0  0  0  0  0  0  0  0  0  0
   23.2339   -9.0509  -19.5868 C   0  0  0  0  0  0  0  0  0  0  0  0
   22.9789  -10.0911  -18.4967 C   0  0  2  0  0  0  0  0  0  0  0  0
   22.2426  -11.1814  -19.1343 N   0  0  0  0  0  0  0  0  0  0  0  0
   22.1604   -9.5423  -17.4089 C   0  0  0  0  0  0  0  0  0  0  0  0
   20.9265   -9.3211  -17.5669 O   0  0  0  0  0  0  0  0  0  0  0  0
   21.0694   -8.9919  -12.7550 C   0  0  0  0  0  0  0  0  0  0  0  0
   21.8768   -9.5656  -13.8856 C   0  0  2  0  0  0  0  0  0  0  0  0
   23.2819   -9.9056  -13.4510 C   0  0  0  0  0  0  0  0  0  0  0  0
   21.8507   -8.6616  -15.0943 C   0  0  2  0  0  0  0  0  0  0  0  0
   22.6917   -9.2287  -16.1281 N   0  0  0  0  0  0  0  0  0  0  0  0
   22.2245   -7.2715  -14.7706 C   0  0  0  0  0  0  0  0  0  0  0  0
   23.4131   -7.0157  -14.4969 O   0  0  0  0  0  0  0  0  0  0  0  0
   21.3007   -6.1915  -14.7514 N   0  0  0  0  0  0  0  0  0  0  0  0
   21.6275   -4.8509  -14.3917 C   0  0  0  0  0  0  0  0  0  0  0  0
   20.5045   -3.9131  -14.4899 C   0  0  0  0  0  0  0  0  0  0  0  0
   19.2599   -4.2599  -14.9859 O   0  0  0  0  0  0  0  0  0  0  0  0
   20.6700   -2.7283  -14.1058 O   0  0  0  0  0  0  0  0  0  0  0  0
  1  2  1  0
  3  2  1  0
  3  4  1  6
  5 11  1  0
  5  3  1  0
  6  5  2  0
  8  7  1  1
  9  8  1  0
 10 11  1  6
 10  8  1  0
 12 13  2  0
 12 10  1  0
 14 12  1  0
 15 14  1  0
 15 16  1  0
 16 17  1  0
 18 16  2  0
M  END
$$$$
