SVG.pdb
     RDKit          3D

 18 17  0  0  1  0  0  0  0  0999 V2000
   24.4959  -10.9608  -18.6755 O   0  0  0  0  0  0  0  0  0  0  0  0
   23.5552   -9.9927  -18.4099 C   0  0  0  0  0  0  0  0  0  0  0  0
   22.1795  -10.6525  -18.3231 C   0  0  2  0  0  0  0  0  0  0  0  0
   21.8215  -11.0356  -19.6878 N   0  0  0  0  0  0  0  0  0  0  0  0
   21.1661   -9.7208  -17.8137 C   0  0  0  0  0  0  0  0  0  0  0  0
   20.7023   -8.7978  -18.5411 O   0  0  0  0  0  0  0  0  0  0  0  0
   18.8537  -10.5439  -14.3887 C   0  0  0  0  0  0  0  0  0  0  0  0
   18.4566   -9.6193  -15.5053 C   0  0  2  0  0  0  0  0  0  0  0  0
   17.7101  -10.3498  -16.5952 C   0  0  0  0  0  0  0  0  0  0  0  0
   19.6452   -8.8540  -16.0347 C   0  0  2  0  0  0  0  0  0  0  0  0
   20.6481   -9.7937  -16.4917 N   0  0  0  0  0  0  0  0  0  0  0  0
   20.1852   -7.8948  -15.0523 C   0  0  0  0  0  0  0  0  0  0  0  0
   19.4098   -7.0768  -14.5204 O   0  0  0  0  0  0  0  0  0  0  0  0
   21.5532   -7.8451  -14.6696 N   0  0  0  0  0  0  0  0  0  0  0  0
   22.0862   -6.9727  -13.6756 C   0  0  0  0  0  0  0  0  0  0  0  0
   22.1568   -5.5670  -14.0871 C   0  0  0  0  0  0  0  0  0  0  0  0
   22.7000   -4.5664  -13.3003 O   0  0  0  0  0  0  0  0  0  0  0  0
   21.7026   -5.2424  -15.2127 O   0  0  0  0  0  0  0  0  0  0  0  0
  1  2  1  0
  3  2  1  0
  3  4  1  6
  5 11  1  0
  5  3  1  0
  6  5  2  0
  8  7  1  1
  9  8  1  0
 10 11  1  1
 10  8  1  0
 12 13  2  0
 12 10  1  0
 14 12  1  0
 15 14  1  0
 15 16  1  0
 16 17  1  0
 18 16  2  0
M  END
$$$$
