SVG.pdb
     RDKit          3D

 18 17  0  0  1  0  0  0  0  0999 V2000
   24.4719  -13.5154  -14.9706 O   0  0  0  0  0  0  0  0  0  0  0  0
   24.2797  -12.2632  -15.5071 C   0  0  0  0  0  0  0  0  0  0  0  0
   22.9129  -12.2236  -16.1894 C   0  0  2  0  0  0  0  0  0  0  0  0
   23.0329  -13.0404  -17.3960 N   0  0  0  0  0  0  0  0  0  0  0  0
   22.5448  -10.8573  -16.5797 C   0  0  0  0  0  0  0  0  0  0  0  0
   22.9665  -10.3491  -17.6568 O   0  0  0  0  0  0  0  0  0  0  0  0
   19.0000   -9.0368  -15.3485 C   0  0  0  0  0  0  0  0  0  0  0  0
   19.8214   -8.7489  -16.5740 C   0  0  2  0  0  0  0  0  0  0  0  0
   19.4948   -9.6996  -17.7001 C   0  0  0  0  0  0  0  0  0  0  0  0
   21.2964   -8.7209  -16.2535 C   0  0  2  0  0  0  0  0  0  0  0  0
   21.7043  -10.0297  -15.7861 N   0  0  0  0  0  0  0  0  0  0  0  0
   21.6490   -7.6523  -15.2993 C   0  0  0  0  0  0  0  0  0  0  0  0
   21.5533   -7.8802  -14.0777 O   0  0  0  0  0  0  0  0  0  0  0  0
   22.0970   -6.3618  -15.6919 N   0  0  0  0  0  0  0  0  0  0  0  0
   22.4855   -5.3287  -14.7891 C   0  0  0  0  0  0  0  0  0  0  0  0
   21.3620   -4.5879  -14.2066 C   0  0  0  0  0  0  0  0  0  0  0  0
   21.5113   -3.6051  -13.2437 O   0  0  0  0  0  0  0  0  0  0  0  0
   20.1967   -4.8515  -14.5954 O   0  0  0  0  0  0  0  0  0  0  0  0
  1  2  1  0
  3  2  1  0
  3  4  1  6
  5 11  1  0
  5  3  1  0
  6  5  2  0
  8  7  1  1
  9  8  1  0
 10 11  1  1
 10  8  1  0
 12 13  2  0
 12 10  1  0
 14 12  1  0
 15 14  1  0
 15 16  1  0
 16 17  1  0
 18 16  2  0
M  END
$$$$
