SVG.pdb
     RDKit          3D

 18 17  0  0  1  0  0  0  0  0999 V2000
   17.1952   -9.5544  -18.4189 O   0  0  0  0  0  0  0  0  0  0  0  0
   17.9131   -9.2185  -17.2945 C   0  0  0  0  0  0  0  0  0  0  0  0
   18.8133  -10.3936  -16.9149 C   0  0  2  0  0  0  0  0  0  0  0  0
   17.9215  -11.4820  -16.5179 N   0  0  0  0  0  0  0  0  0  0  0  0
   19.6848  -10.0609  -15.7816 C   0  0  0  0  0  0  0  0  0  0  0  0
   19.2770  -10.1668  -14.5904 O   0  0  0  0  0  0  0  0  0  0  0  0
   23.9177   -9.8942  -16.0057 C   0  0  0  0  0  0  0  0  0  0  0  0
   23.0681  -10.1362  -14.7895 C   0  0  2  0  0  0  0  0  0  0  0  0
   22.7374  -11.5996  -14.6226 C   0  0  0  0  0  0  0  0  0  0  0  0
   21.8356   -9.2645  -14.7973 C   0  0  2  0  0  0  0  0  0  0  0  0
   21.0215   -9.6057  -15.9456 N   0  0  0  0  0  0  0  0  0  0  0  0
   22.1585   -7.8257  -14.7494 C   0  0  0  0  0  0  0  0  0  0  0  0
   22.5725   -7.2668  -15.7836 O   0  0  0  0  0  0  0  0  0  0  0  0
   22.0250   -7.0268  -13.5815 N   0  0  0  0  0  0  0  0  0  0  0  0
   22.3945   -5.6524  -13.4923 C   0  0  0  0  0  0  0  0  0  0  0  0
   21.3204   -4.7188  -13.8455 C   0  0  0  0  0  0  0  0  0  0  0  0
   21.4481   -3.3427  -13.7708 O   0  0  0  0  0  0  0  0  0  0  0  0
   20.2206   -5.1821  -14.2384 O   0  0  0  0  0  0  0  0  0  0  0  0
  1  2  1  0
  3  2  1  0
  3  4  1  1
  5 11  1  0
  5  3  1  0
  6  5  2  0
  8  7  1  6
  9  8  1  0
 10 11  1  6
 10  8  1  0
 12 13  2  0
 12 10  1  0
 14 12  1  0
 15 14  1  0
 15 16  1  0
 16 17  1  0
 18 16  2  0
M  END
$$$$
