SVG.pdb
     RDKit          3D

 18 17  0  0  1  0  0  0  0  0999 V2000
   16.7459   -9.8214  -17.6061 O   0  0  0  0  0  0  0  0  0  0  0  0
   17.4804   -9.2726  -16.5805 C   0  0  0  0  0  0  0  0  0  0  0  0
   18.4875  -10.3100  -16.0854 C   0  0  2  0  0  0  0  0  0  0  0  0
   17.7141  -11.3234  -15.3696 N   0  0  0  0  0  0  0  0  0  0  0  0
   19.4600   -9.7177  -15.1590 C   0  0  0  0  0  0  0  0  0  0  0  0
   19.1501   -9.4625  -13.9610 O   0  0  0  0  0  0  0  0  0  0  0  0
   23.5552   -9.6614  -16.0146 C   0  0  0  0  0  0  0  0  0  0  0  0
   23.0129   -9.5368  -14.6183 C   0  0  2  0  0  0  0  0  0  0  0  0
   22.9111  -10.8804  -13.9378 C   0  0  0  0  0  0  0  0  0  0  0  0
   21.7056   -8.7821  -14.6013 C   0  0  2  0  0  0  0  0  0  0  0  0
   20.7913   -9.3975  -15.5411 N   0  0  0  0  0  0  0  0  0  0  0  0
   21.8805   -7.3394  -14.8555 C   0  0  0  0  0  0  0  0  0  0  0  0
   21.9016   -6.9338  -16.0338 O   0  0  0  0  0  0  0  0  0  0  0  0
   22.0283   -6.3703  -13.8264 N   0  0  0  0  0  0  0  0  0  0  0  0
   22.2767   -4.9837  -14.0475 C   0  0  0  0  0  0  0  0  0  0  0  0
   21.0635   -4.1675  -14.1581 C   0  0  0  0  0  0  0  0  0  0  0  0
   21.0783   -2.7903  -14.2936 O   0  0  0  0  0  0  0  0  0  0  0  0
   19.9449   -4.7390  -14.1296 O   0  0  0  0  0  0  0  0  0  0  0  0
  1  2  1  0
  3  2  1  0
  3  4  1  1
  5 11  1  0
  5  3  1  0
  6  5  2  0
  8  7  1  6
  9  8  1  0
 10 11  1  6
 10  8  1  0
 12 13  2  0
 12 10  1  0
 14 12  1  0
 15 14  1  0
 15 16  1  0
 16 17  1  0
 18 16  2  0
M  END
$$$$
