SVG.pdb
     RDKit          3D

 18 17  0  0  1  0  0  0  0  0999 V2000
   19.7486  -12.9668  -20.6458 O   0  0  0  0  0  0  0  0  0  0  0  0
   19.4867  -12.1754  -19.5515 C   0  0  0  0  0  0  0  0  0  0  0  0
   20.3388  -12.6584  -18.3783 C   0  0  2  0  0  0  0  0  0  0  0  0
   19.7774  -13.9436  -17.9655 N   0  0  0  0  0  0  0  0  0  0  0  0
   20.2716  -11.7285  -17.2446 C   0  0  0  0  0  0  0  0  0  0  0  0
   19.2067  -11.5836  -16.5803 O   0  0  0  0  0  0  0  0  0  0  0  0
   22.4053   -9.3829  -13.5725 C   0  0  0  0  0  0  0  0  0  0  0  0
   22.4587  -10.2841  -14.7744 C   0  0  2  0  0  0  0  0  0  0  0  0
   23.7751  -10.1639  -15.5033 C   0  0  0  0  0  0  0  0  0  0  0  0
   21.2745  -10.0595  -15.6833 C   0  0  2  0  0  0  0  0  0  0  0  0
   21.3802  -10.9431  -16.8260 N   0  0  0  0  0  0  0  0  0  0  0  0
   21.1256   -8.6467  -16.0819 C   0  0  0  0  0  0  0  0  0  0  0  0
   22.0245   -8.1151  -16.7621 O   0  0  0  0  0  0  0  0  0  0  0  0
   20.0058   -7.8437  -15.7336 N   0  0  0  0  0  0  0  0  0  0  0  0
   19.8393   -6.4779  -16.1079 C   0  0  0  0  0  0  0  0  0  0  0  0
   19.8907   -5.5377  -14.9838 C   0  0  0  0  0  0  0  0  0  0  0  0
   19.8264   -4.1633  -15.1330 O   0  0  0  0  0  0  0  0  0  0  0  0
   19.9990   -5.9935  -13.8180 O   0  0  0  0  0  0  0  0  0  0  0  0
  1  2  1  0
  3  2  1  0
  3  4  1  1
  5 11  1  0
  5  3  1  0
  6  5  2  0
  8  7  1  1
  9  8  1  0
 10 11  1  6
 10  8  1  0
 12 13  2  0
 12 10  1  0
 14 12  1  0
 15 14  1  0
 15 16  1  0
 16 17  1  0
 18 16  2  0
M  END
$$$$
