SVG.pdb
     RDKit          3D

 18 17  0  0  1  0  0  0  0  0999 V2000
   22.2754   -9.9208  -21.5026 O   0  0  0  0  0  0  0  0  0  0  0  0
   21.6418   -9.4406  -20.3799 C   0  0  0  0  0  0  0  0  0  0  0  0
   21.8241  -10.4454  -19.2430 C   0  0  2  0  0  0  0  0  0  0  0  0
   20.9783  -11.5923  -19.5697 N   0  0  0  0  0  0  0  0  0  0  0  0
   21.3878   -9.8889  -17.9568 C   0  0  0  0  0  0  0  0  0  0  0  0
   20.1702   -9.6365  -17.7331 O   0  0  0  0  0  0  0  0  0  0  0  0
   23.7188  -10.2665  -14.4675 C   0  0  0  0  0  0  0  0  0  0  0  0
   22.2220  -10.1576  -14.5523 C   0  0  2  0  0  0  0  0  0  0  0  0
   21.5749  -11.5076  -14.7460 C   0  0  0  0  0  0  0  0  0  0  0  0
   21.8018   -9.1611  -15.6056 C   0  0  2  0  0  0  0  0  0  0  0  0
   22.2898   -9.6020  -16.8960 N   0  0  0  0  0  0  0  0  0  0  0  0
   22.2294   -7.7854  -15.2872 C   0  0  0  0  0  0  0  0  0  0  0  0
   23.4455   -7.5136  -15.3049 O   0  0  0  0  0  0  0  0  0  0  0  0
   21.3284   -6.7369  -14.9570 N   0  0  0  0  0  0  0  0  0  0  0  0
   21.7164   -5.3971  -14.6614 C   0  0  0  0  0  0  0  0  0  0  0  0
   21.9395   -5.1384  -13.2353 C   0  0  0  0  0  0  0  0  0  0  0  0
   22.3346   -3.9105  -12.7336 O   0  0  0  0  0  0  0  0  0  0  0  0
   21.7655   -6.0748  -12.4159 O   0  0  0  0  0  0  0  0  0  0  0  0
  1  2  1  0
  3  2  1  0
  3  4  1  6
  5 11  1  0
  5  3  1  0
  6  5  2  0
  8  7  1  6
  9  8  1  0
 10 11  1  6
 10  8  1  0
 12 13  2  0
 12 10  1  0
 14 12  1  0
 15 14  1  0
 15 16  1  0
 16 17  1  0
 18 16  2  0
M  END
$$$$
