SVG.pdb
     RDKit          3D

 18 17  0  0  1  0  0  0  0  0999 V2000
   21.7828  -22.8150  -14.7757 O   0  0  0  0  0  0  0  0  0  0  0  0
   21.1296  -22.8203  -13.5650 C   0  0  0  0  0  0  0  0  0  0  0  0
   21.2230  -21.4252  -12.9482 C   0  0  2  0  0  0  0  0  0  0  0  0
   20.3525  -20.5643  -13.7473 N   0  0  0  0  0  0  0  0  0  0  0  0
   22.5919  -20.8992  -13.0098 C   0  0  0  0  0  0  0  0  0  0  0  0
   22.8954  -19.9573  -13.7953 O   0  0  0  0  0  0  0  0  0  0  0  0
   25.9754  -22.0391  -10.3219 C   0  0  0  0  0  0  0  0  0  0  0  0
   25.4572  -20.7030  -10.7755 C   0  0  2  0  0  0  0  0  0  0  0  0
   24.4303  -20.1489   -9.8178 C   0  0  0  0  0  0  0  0  0  0  0  0
   24.9471  -20.7640  -12.1950 C   0  0  2  0  0  0  0  0  0  0  0  0
   23.6484  -21.4052  -12.2044 N   0  0  0  0  0  0  0  0  0  0  0  0
   25.8996  -21.4186  -13.1121 C   0  0  0  0  0  0  0  0  0  0  0  0
   26.1782  -22.6202  -12.9338 O   0  0  0  0  0  0  0  0  0  0  0  0
   26.5276  -20.7550  -14.2009 N   0  0  0  0  0  0  0  0  0  0  0  0
   27.4887  -21.3516  -15.0689 C   0  0  0  0  0  0  0  0  0  0  0  0
   27.9453  -20.4739  -16.1513 C   0  0  0  0  0  0  0  0  0  0  0  0
   28.9808  -20.7958  -17.0113 O   0  0  0  0  0  0  0  0  0  0  0  0
   27.3727  -19.3678  -16.3159 O   0  0  0  0  0  0  0  0  0  0  0  0
  1  2  1  0
  3  2  1  0
  3  4  1  6
  5 11  1  0
  5  3  1  0
  6  5  2  0
  8  7  1  1
  9  8  1  0
 10 11  1  1
 10  8  1  0
 12 13  2  0
 12 10  1  0
 14 12  1  0
 15 14  1  0
 15 16  1  0
 16 17  1  0
 18 16  2  0
M  END
$$$$
