SVG.pdb
     RDKit          3D

 18 17  0  0  1  0  0  0  0  0999 V2000
   23.3813  -10.6196  -13.0811 O   0  0  0  0  0  0  0  0  0  0  0  0
   22.1770  -11.0290  -13.6050 C   0  0  0  0  0  0  0  0  0  0  0  0
   22.2677  -11.0011  -15.1302 C   0  0  2  0  0  0  0  0  0  0  0  0
   23.4593  -11.7706  -15.4844 N   0  0  0  0  0  0  0  0  0  0  0  0
   22.4231   -9.6319  -15.6359 C   0  0  0  0  0  0  0  0  0  0  0  0
   23.5307   -9.2230  -16.0859 O   0  0  0  0  0  0  0  0  0  0  0  0
   20.6249   -5.6849  -17.7707 C   0  0  0  0  0  0  0  0  0  0  0  0
   20.5309   -7.0945  -17.2571 C   0  0  2  0  0  0  0  0  0  0  0  0
   19.1279   -7.4346  -16.8156 C   0  0  0  0  0  0  0  0  0  0  0  0
   21.5536   -7.3561  -16.1779 C   0  0  2  0  0  0  0  0  0  0  0  0
   21.3570   -8.6916  -15.6529 N   0  0  0  0  0  0  0  0  0  0  0  0
   21.5336   -6.3306  -15.1174 C   0  0  0  0  0  0  0  0  0  0  0  0
   20.6081   -6.3454  -14.2829 O   0  0  0  0  0  0  0  0  0  0  0  0
   22.5175   -5.3133  -14.9865 N   0  0  0  0  0  0  0  0  0  0  0  0
   22.5526   -4.3490  -13.9367 C   0  0  0  0  0  0  0  0  0  0  0  0
   21.5834   -3.2594  -14.0909 C   0  0  0  0  0  0  0  0  0  0  0  0
   20.6692   -3.1903  -15.1276 O   0  0  0  0  0  0  0  0  0  0  0  0
   21.5737   -2.3334  -13.2418 O   0  0  0  0  0  0  0  0  0  0  0  0
  1  2  1  0
  3  2  1  0
  3  4  1  1
  5 11  1  0
  5  3  1  0
  6  5  2  0
  8  7  1  1
  9  8  1  0
 10 11  1  1
 10  8  1  0
 12 13  2  0
 12 10  1  0
 14 12  1  0
 15 14  1  0
 15 16  1  0
 16 17  1  0
 18 16  2  0
M  END
$$$$
