SVG.pdb
     RDKit          3D

 18 17  0  0  1  0  0  0  0  0999 V2000
   17.1418  -11.5738  -18.5432 O   0  0  0  0  0  0  0  0  0  0  0  0
   17.4896  -10.8766  -17.4094 C   0  0  0  0  0  0  0  0  0  0  0  0
   18.7573  -11.4940  -16.8203 C   0  0  2  0  0  0  0  0  0  0  0  0
   18.3577  -12.7740  -16.2378 N   0  0  0  0  0  0  0  0  0  0  0  0
   19.3255  -10.6510  -15.7614 C   0  0  0  0  0  0  0  0  0  0  0  0
   18.7506  -10.5305  -14.6428 O   0  0  0  0  0  0  0  0  0  0  0  0
   23.4304   -9.4339  -15.6016 C   0  0  0  0  0  0  0  0  0  0  0  0
   22.4536   -9.6640  -14.4824 C   0  0  2  0  0  0  0  0  0  0  0  0
   22.4256  -11.1117  -14.0558 C   0  0  0  0  0  0  0  0  0  0  0  0
   21.0819   -9.1403  -14.8331 C   0  0  2  0  0  0  0  0  0  0  0  0
   20.5385   -9.9270  -15.9210 N   0  0  0  0  0  0  0  0  0  0  0  0
   21.0868   -7.6964  -15.1364 C   0  0  0  0  0  0  0  0  0  0  0  0
   21.6004   -7.3069  -16.2031 O   0  0  0  0  0  0  0  0  0  0  0  0
   20.5348   -6.7088  -14.2761 N   0  0  0  0  0  0  0  0  0  0  0  0
   20.5711   -5.3051  -14.5242 C   0  0  0  0  0  0  0  0  0  0  0  0
   21.8269   -4.6589  -14.1294 C   0  0  0  0  0  0  0  0  0  0  0  0
   22.0902   -3.3147  -14.3274 O   0  0  0  0  0  0  0  0  0  0  0  0
   22.7187   -5.3535  -13.5811 O   0  0  0  0  0  0  0  0  0  0  0  0
  1  2  1  0
  3  2  1  0
  3  4  1  1
  5 11  1  0
  5  3  1  0
  6  5  2  0
  8  7  1  6
  9  8  1  0
 10 11  1  6
 10  8  1  0
 12 13  2  0
 12 10  1  0
 14 12  1  0
 15 14  1  0
 15 16  1  0
 16 17  1  0
 18 16  2  0
M  END
$$$$
