SVG.pdb
     RDKit          3D

 18 17  0  0  1  0  0  0  0  0999 V2000
   27.6986  -12.1211  -15.6236 O   0  0  0  0  0  0  0  0  0  0  0  0
   26.9387  -11.0558  -16.0481 C   0  0  0  0  0  0  0  0  0  0  0  0
   25.5668  -11.5707  -16.4822 C   0  0  2  0  0  0  0  0  0  0  0  0
   25.7786  -12.2986  -17.7323 N   0  0  0  0  0  0  0  0  0  0  0  0
   24.6313  -10.4674  -16.7317 C   0  0  0  0  0  0  0  0  0  0  0  0
   24.5862   -9.8900  -17.8546 O   0  0  0  0  0  0  0  0  0  0  0  0
   21.0005  -10.0120  -14.6598 C   0  0  0  0  0  0  0  0  0  0  0  0
   21.3774   -9.5552  -16.0414 C   0  0  2  0  0  0  0  0  0  0  0  0
   21.2122  -10.6589  -17.0580 C   0  0  0  0  0  0  0  0  0  0  0  0
   22.7622   -8.9545  -16.0634 C   0  0  2  0  0  0  0  0  0  0  0  0
   23.7300   -9.9838  -15.7444 N   0  0  0  0  0  0  0  0  0  0  0  0
   22.8846   -7.7796  -15.1794 C   0  0  0  0  0  0  0  0  0  0  0  0
   23.0805   -7.9600  -13.9619 O   0  0  0  0  0  0  0  0  0  0  0  0
   22.7919   -6.4369  -15.6363 N   0  0  0  0  0  0  0  0  0  0  0  0
   22.8662   -5.2873  -14.7960 C   0  0  0  0  0  0  0  0  0  0  0  0
   21.6087   -4.9589  -14.1169 C   0  0  0  0  0  0  0  0  0  0  0  0
   21.4816   -3.9318  -13.1980 O   0  0  0  0  0  0  0  0  0  0  0  0
   20.5852   -5.6401  -14.3756 O   0  0  0  0  0  0  0  0  0  0  0  0
  1  2  1  0
  3  2  1  0
  3  4  1  6
  5 11  1  0
  5  3  1  0
  6  5  2  0
  8  7  1  1
  9  8  1  0
 10 11  1  1
 10  8  1  0
 12 13  2  0
 12 10  1  0
 14 12  1  0
 15 14  1  0
 15 16  1  0
 16 17  1  0
 18 16  2  0
M  END
$$$$
