SVG.pdb
     RDKit          3D

 18 17  0  0  1  0  0  0  0  0999 V2000
   16.6488   -7.7621  -17.1292 O   0  0  0  0  0  0  0  0  0  0  0  0
   17.4134   -7.8585  -15.9896 C   0  0  0  0  0  0  0  0  0  0  0  0
   18.3249   -9.0793  -16.1092 C   0  0  2  0  0  0  0  0  0  0  0  0
   17.4529  -10.2507  -16.0385 N   0  0  0  0  0  0  0  0  0  0  0  0
   19.2893   -9.1421  -15.0044 C   0  0  0  0  0  0  0  0  0  0  0  0
   18.9467   -9.5543  -13.8603 O   0  0  0  0  0  0  0  0  0  0  0  0
   23.5231   -8.9151  -15.5552 C   0  0  0  0  0  0  0  0  0  0  0  0
   22.7885   -9.6041  -14.4394 C   0  0  2  0  0  0  0  0  0  0  0  0
   22.4704  -11.0390  -14.7839 C   0  0  0  0  0  0  0  0  0  0  0  0
   21.5630   -8.8261  -14.0249 C   0  0  2  0  0  0  0  0  0  0  0  0
   20.6486   -8.7505  -15.1456 N   0  0  0  0  0  0  0  0  0  0  0  0
   21.8935   -7.4943  -13.4830 C   0  0  0  0  0  0  0  0  0  0  0  0
   22.6894   -7.4136  -12.5273 O   0  0  0  0  0  0  0  0  0  0  0  0
   21.3533   -6.2813  -13.9899 N   0  0  0  0  0  0  0  0  0  0  0  0
   21.7328   -4.9786  -13.5513 C   0  0  0  0  0  0  0  0  0  0  0  0
   21.0112   -3.8885  -14.2157 C   0  0  0  0  0  0  0  0  0  0  0  0
   21.2587   -2.5486  -13.9735 O   0  0  0  0  0  0  0  0  0  0  0  0
   20.1181   -4.1750  -15.0517 O   0  0  0  0  0  0  0  0  0  0  0  0
  1  2  1  0
  3  2  1  0
  3  4  1  1
  5 11  1  0
  5  3  1  0
  6  5  2  0
  8  7  1  6
  9  8  1  0
 10 11  1  6
 10  8  1  0
 12 13  2  0
 12 10  1  0
 14 12  1  0
 15 14  1  0
 15 16  1  0
 16 17  1  0
 18 16  2  0
M  END
$$$$
