PRA.pdb
     RDKit          3D

 24 24  0  0  1  0  0  0  0  0999 V2000
   27.6755  -20.1971  -16.2210 N   0  0  0  0  0  0  0  0  0  0  0  0
   29.0374  -20.6641  -16.0123 C   0  0  0  0  0  0  0  0  0  0  0  0
   29.0606  -22.1202  -16.3906 C   0  0  0  0  0  0  0  0  0  0  0  0
   27.6155  -22.5405  -16.0769 C   0  0  0  0  0  0  0  0  0  0  0  0
   26.9188  -21.3120  -16.6860 C   0  0  1  0  0  0  0  0  0  0  0  0
   25.4930  -21.3214  -16.4061 C   0  0  0  0  0  0  0  0  0  0  0  0
   24.7668  -22.2284  -16.9101 O   0  0  0  0  0  0  0  0  0  0  0  0
   18.2779  -20.8842  -12.6984 N   0  0  0  0  0  0  0  0  0  0  0  0
   18.7547  -22.2166  -12.5631 C   0  0  0  0  0  0  0  0  0  0  0  0
   17.9261  -23.2152  -12.5284 N   0  0  0  0  0  0  0  0  0  0  0  0
   20.1314  -22.5350  -12.4612 N   0  0  0  0  0  0  0  0  0  0  0  0
   21.1549  -21.5556  -12.5099 C   0  0  0  0  0  0  0  0  0  0  0  0
   21.4978  -21.0389  -13.8803 C   0  0  0  0  0  0  0  0  0  0  0  0
   23.0226  -20.9336  -13.9782 C   0  0  0  0  0  0  0  0  0  0  0  0
   23.3847  -20.4323  -15.3499 C   0  0  2  0  0  0  0  0  0  0  0  0
   24.7957  -20.3879  -15.5979 N   0  0  0  0  0  0  0  0  0  0  0  0
   22.8042  -19.1030  -15.6123 C   0  0  0  0  0  0  0  0  0  0  0  0
   23.0145  -18.1648  -14.8166 O   0  0  0  0  0  0  0  0  0  0  0  0
   18.3219  -24.1700  -12.4258 C   0  0  0  0  0  0  0  0  0  0  0  0
   21.5634  -17.3881  -18.5816 C   0  0  1  0  0  0  0  0  0  0  0  0
   21.5269  -17.5501  -17.0677 N   0  0  0  0  0  0  0  0  0  0  0  0
   22.0079  -18.8693  -16.7572 C   0  0  0  0  0  0  0  0  0  0  0  0
   20.1414  -17.4119  -16.5770 O   0  0  0  0  0  0  0  0  0  0  0  0
   19.4415  -18.4413  -16.3041 O   0  0  0  0  0  0  0  0  0  0  0  0
  1  2  1  0
  3  2  1  0
  4  3  1  0
  4  5  1  0
  5  1  1  0
  5  6  1  1
  6  7  2  0
  8  9  1  0
  9 11  1  0
  9 10  2  0
 11 12  1  0
 12 13  1  0
 14 13  1  0
 15 14  1  1
 16  6  1  0
 16 15  1  0
 17 18  2  0
 17 15  1  0
 20 19  1  1
 20 21  1  0
 21 17  1  0
 22 20  1  0
 22 24  1  0
 23 22  2  0
M  END
$$$$
