PRA.pdb
     RDKit          3D

 24 24  0  0  1  0  0  0  0  0999 V2000
   30.1249  -20.6291  -10.3328 N   0  0  0  0  0  0  0  0  0  0  0  0
   31.3074  -21.2228   -9.7283 C   0  0  0  0  0  0  0  0  0  0  0  0
   31.9140  -22.1325  -10.7619 C   0  0  0  0  0  0  0  0  0  0  0  0
   30.6730  -22.5503  -11.5673 C   0  0  0  0  0  0  0  0  0  0  0  0
   30.0182  -21.1611  -11.6508 C   0  0  1  0  0  0  0  0  0  0  0  0
   28.6924  -21.2374  -12.2405 C   0  0  0  0  0  0  0  0  0  0  0  0
   28.5673  -21.6230  -13.4404 O   0  0  0  0  0  0  0  0  0  0  0  0
   21.7161  -21.5602   -7.3301 N   0  0  0  0  0  0  0  0  0  0  0  0
   21.5822  -21.3090   -8.7230 C   0  0  0  0  0  0  0  0  0  0  0  0
   20.4194  -21.3685   -9.2969 N   0  0  0  0  0  0  0  0  0  0  0  0
   22.6812  -20.9839   -9.5558 N   0  0  0  0  0  0  0  0  0  0  0  0
   24.0131  -20.9022   -9.0778 C   0  0  0  0  0  0  0  0  0  0  0  0
   25.0400  -20.4570  -10.0828 C   0  0  0  0  0  0  0  0  0  0  0  0
   25.1230  -21.5239  -11.1784 C   0  0  0  0  0  0  0  0  0  0  0  0
   26.1763  -21.1145  -12.1720 C   0  0  2  0  0  0  0  0  0  0  0  0
   27.4724  -20.9136  -11.5943 N   0  0  0  0  0  0  0  0  0  0  0  0
   25.7818  -19.9020  -12.9118 C   0  0  0  0  0  0  0  0  0  0  0  0
   26.3032  -18.8041  -12.6288 O   0  0  0  0  0  0  0  0  0  0  0  0
   20.3769  -21.2129  -10.3230 C   0  0  0  0  0  0  0  0  0  0  0  0
   25.6893  -18.5304  -15.6508 C   0  0  1  0  0  0  0  0  0  0  0  0
   24.5048  -18.7988  -14.7319 N   0  0  0  0  0  0  0  0  0  0  0  0
   24.8170  -19.9605  -13.9438 C   0  0  0  0  0  0  0  0  0  0  0  0
   23.2939  -19.0678  -15.5325 O   0  0  0  0  0  0  0  0  0  0  0  0
   22.7509  -20.2206  -15.5247 O   0  0  0  0  0  0  0  0  0  0  0  0
  1  2  1  0
  3  2  1  0
  4  3  1  0
  4  5  1  0
  5  1  1  0
  5  6  1  1
  6  7  2  0
  8  9  1  0
  9 11  1  0
  9 10  2  0
 11 12  1  0
 12 13  1  0
 14 13  1  0
 15 14  1  1
 16  6  1  0
 16 15  1  0
 17 18  2  0
 17 15  1  0
 20 19  1  1
 20 21  1  0
 21 17  1  0
 22 20  1  0
 22 24  1  0
 23 22  2  0
M  END
$$$$
