PRA.pdb
     RDKit          3D

 24 24  0  0  1  0  0  0  0  0999 V2000
   27.4989  -19.7475  -16.8357 N   0  0  0  0  0  0  0  0  0  0  0  0
   28.7896  -19.5855  -17.4871 C   0  0  0  0  0  0  0  0  0  0  0  0
   29.4227  -20.9493  -17.5430 C   0  0  0  0  0  0  0  0  0  0  0  0
   28.8107  -21.6213  -16.3031 C   0  0  0  0  0  0  0  0  0  0  0  0
   27.3681  -21.1281  -16.5063 C   0  0  1  0  0  0  0  0  0  0  0  0
   26.5281  -21.4727  -15.3719 C   0  0  0  0  0  0  0  0  0  0  0  0
   26.2089  -22.6832  -15.1801 O   0  0  0  0  0  0  0  0  0  0  0  0
   22.4236  -19.8319   -9.2101 N   0  0  0  0  0  0  0  0  0  0  0  0
   23.1048  -20.6410   -8.2601 C   0  0  0  0  0  0  0  0  0  0  0  0
   22.5297  -20.9800   -7.1469 N   0  0  0  0  0  0  0  0  0  0  0  0
   24.4229  -21.1199   -8.4610 N   0  0  0  0  0  0  0  0  0  0  0  0
   25.2224  -20.7364   -9.5668 C   0  0  0  0  0  0  0  0  0  0  0  0
   24.7041  -21.1447  -10.9186 C   0  0  0  0  0  0  0  0  0  0  0  0
   25.7024  -20.6599  -11.9741 C   0  0  0  0  0  0  0  0  0  0  0  0
   25.1362  -20.9414  -13.3394 C   0  0  2  0  0  0  0  0  0  0  0  0
   26.0039  -20.5654  -14.4164 N   0  0  0  0  0  0  0  0  0  0  0  0
   23.8240  -20.2960  -13.5259 C   0  0  0  0  0  0  0  0  0  0  0  0
   23.7596  -19.0673  -13.7345 O   0  0  0  0  0  0  0  0  0  0  0  0
   23.0677  -21.5716   -6.4841 C   0  0  0  0  0  0  0  0  0  0  0  0
   21.4397  -20.2011  -15.3672 C   0  0  2  0  0  0  0  0  0  0  0  0
   21.3722  -20.4722  -13.8700 N   0  0  0  0  0  0  0  0  0  0  0  0
   22.6283  -21.0489  -13.4728 C   0  0  0  0  0  0  0  0  0  0  0  0
   20.2861  -21.4284  -13.5773 O   0  0  0  0  0  0  0  0  0  0  0  0
   19.0664  -21.0618  -13.6209 O   0  0  0  0  0  0  0  0  0  0  0  0
  1  2  1  0
  3  2  1  0
  4  3  1  0
  4  5  1  0
  5  1  1  0
  5  6  1  1
  6  7  2  0
  8  9  1  0
  9 11  1  0
  9 10  2  0
 11 12  1  0
 12 13  1  0
 14 13  1  0
 15 14  1  1
 16  6  1  0
 16 15  1  0
 17 18  2  0
 17 15  1  0
 20 19  1  1
 20 21  1  0
 21 17  1  0
 22 20  1  0
 22 24  1  0
 23 22  2  0
M  END
$$$$
