PRA.pdb
     RDKit          3D

 24 24  0  0  1  0  0  0  0  0999 V2000
   26.2961  -17.2609  -16.5097 N   0  0  0  0  0  0  0  0  0  0  0  0
   27.2101  -16.1301  -16.4641 C   0  0  0  0  0  0  0  0  0  0  0  0
   28.6003  -16.6979  -16.3707 C   0  0  0  0  0  0  0  0  0  0  0  0
   28.3397  -18.0255  -15.6406 C   0  0  0  0  0  0  0  0  0  0  0  0
   27.0901  -18.4423  -16.4346 C   0  0  1  0  0  0  0  0  0  0  0  0
   26.4764  -19.6307  -15.8667 C   0  0  0  0  0  0  0  0  0  0  0  0
   27.1076  -20.7284  -15.8918 O   0  0  0  0  0  0  0  0  0  0  0  0
   23.3897  -20.3533   -9.7327 N   0  0  0  0  0  0  0  0  0  0  0  0
   24.6570  -20.7961   -9.2648 C   0  0  0  0  0  0  0  0  0  0  0  0
   24.9724  -20.6905   -8.0100 N   0  0  0  0  0  0  0  0  0  0  0  0
   25.6347  -21.3686  -10.1153 N   0  0  0  0  0  0  0  0  0  0  0  0
   26.2524  -20.6528  -11.1713 C   0  0  0  0  0  0  0  0  0  0  0  0
   25.3480  -20.2548  -12.3054 C   0  0  0  0  0  0  0  0  0  0  0  0
   25.4927  -21.3005  -13.4151 C   0  0  0  0  0  0  0  0  0  0  0  0
   24.6778  -20.8615  -14.6013 C   0  0  2  0  0  0  0  0  0  0  0  0
   25.1951  -19.7001  -15.2631 N   0  0  0  0  0  0  0  0  0  0  0  0
   23.2701  -20.6238  -14.2342 C   0  0  0  0  0  0  0  0  0  0  0  0
   22.9362  -19.5352  -13.7234 O   0  0  0  0  0  0  0  0  0  0  0  0
   25.9436  -20.9326   -7.7325 C   0  0  0  0  0  0  0  0  0  0  0  0
   20.9039  -20.9028  -12.6324 C   0  0  2  0  0  0  0  0  0  0  0  0
   20.9141  -21.3888  -14.0758 N   0  0  0  0  0  0  0  0  0  0  0  0
   22.2839  -21.6134  -14.4520 C   0  0  0  0  0  0  0  0  0  0  0  0
   20.3314  -20.3603  -14.9603 O   0  0  0  0  0  0  0  0  0  0  0  0
   21.0579  -19.7381  -15.8023 O   0  0  0  0  0  0  0  0  0  0  0  0
  1  2  1  0
  3  2  1  0
  4  3  1  0
  4  5  1  0
  5  1  1  0
  5  6  1  1
  6  7  2  0
  8  9  1  0
  9 11  1  0
  9 10  2  0
 11 12  1  0
 12 13  1  0
 14 13  1  0
 15 14  1  1
 16  6  1  0
 16 15  1  0
 17 18  2  0
 17 15  1  0
 20 19  1  1
 20 21  1  0
 21 17  1  0
 22 20  1  0
 22 24  1  0
 23 22  2  0
M  END
$$$$
