PRA.pdb
     RDKit          3D

 24 24  0  0  1  0  0  0  0  0999 V2000
   28.3514  -14.9067  -20.6276 N   0  0  0  0  0  0  0  0  0  0  0  0
   29.4048  -15.8469  -20.9780 C   0  0  0  0  0  0  0  0  0  0  0  0
   29.3903  -15.9774  -22.4769 C   0  0  0  0  0  0  0  0  0  0  0  0
   27.9114  -15.7015  -22.7933 C   0  0  0  0  0  0  0  0  0  0  0  0
   27.7295  -14.5041  -21.8453 C   0  0  1  0  0  0  0  0  0  0  0  0
   26.3393  -14.0857  -21.7847 C   0  0  0  0  0  0  0  0  0  0  0  0
   25.7611  -13.6959  -22.8419 O   0  0  0  0  0  0  0  0  0  0  0  0
   18.8883  -17.2709  -18.5448 N   0  0  0  0  0  0  0  0  0  0  0  0
   18.5462  -16.0890  -19.2571 C   0  0  0  0  0  0  0  0  0  0  0  0
   17.3076  -15.8223  -19.5393 N   0  0  0  0  0  0  0  0  0  0  0  0
   19.5100  -15.1471  -19.6938 N   0  0  0  0  0  0  0  0  0  0  0  0
   20.9054  -15.3462  -19.5445 C   0  0  0  0  0  0  0  0  0  0  0  0
   21.7845  -14.3160  -20.1991 C   0  0  0  0  0  0  0  0  0  0  0  0
   23.2424  -14.7348  -19.9872 C   0  0  0  0  0  0  0  0  0  0  0  0
   24.1376  -13.7039  -20.6196 C   0  0  2  0  0  0  0  0  0  0  0  0
   25.5248  -14.0640  -20.6241 N   0  0  0  0  0  0  0  0  0  0  0  0
   23.9811  -12.3846  -19.9808 C   0  0  0  0  0  0  0  0  0  0  0  0
   24.4306  -12.1928  -18.8325 O   0  0  0  0  0  0  0  0  0  0  0  0
   17.1020  -14.9223  -20.0153 C   0  0  0  0  0  0  0  0  0  0  0  0
   23.0179   -9.0120  -21.1756 C   0  0  1  0  0  0  0  0  0  0  0  0
   23.2313  -10.0196  -20.0536 N   0  0  0  0  0  0  0  0  0  0  0  0
   23.3267  -11.3247  -20.6500 C   0  0  0  0  0  0  0  0  0  0  0  0
   22.0838   -9.9940  -19.1252 O   0  0  0  0  0  0  0  0  0  0  0  0
   21.8003   -8.9389  -18.4692 O   0  0  0  0  0  0  0  0  0  0  0  0
  1  2  1  0
  3  2  1  0
  4  3  1  0
  4  5  1  0
  5  1  1  0
  5  6  1  1
  6  7  2  0
  8  9  1  0
  9 11  1  0
  9 10  2  0
 11 12  1  0
 12 13  1  0
 14 13  1  0
 15 14  1  1
 16  6  1  0
 16 15  1  0
 17 18  2  0
 17 15  1  0
 20 19  1  6
 20 21  1  0
 21 17  1  0
 22 20  1  0
 22 24  1  0
 23 22  2  0
M  END
$$$$
