PRA.pdb
     RDKit          3D

 24 24  0  0  1  0  0  0  0  0999 V2000
   27.8460  -20.7820  -16.0010 N   0  0  0  0  0  0  0  0  0  0  0  0
   28.6900  -19.9322  -16.8266 C   0  0  0  0  0  0  0  0  0  0  0  0
   28.4358  -18.5140  -16.3930 C   0  0  0  0  0  0  0  0  0  0  0  0
   26.9815  -18.6006  -15.9022 C   0  0  0  0  0  0  0  0  0  0  0  0
   27.1153  -19.9234  -15.1289 C   0  0  1  0  0  0  0  0  0  0  0  0
   25.8239  -20.3888  -14.6526 C   0  0  0  0  0  0  0  0  0  0  0  0
   25.1969  -21.2673  -15.3153 O   0  0  0  0  0  0  0  0  0  0  0  0
   21.4181  -21.5546   -7.0499 N   0  0  0  0  0  0  0  0  0  0  0  0
   20.8661  -22.3061   -8.1231 C   0  0  0  0  0  0  0  0  0  0  0  0
   20.0323  -23.2738   -7.8924 N   0  0  0  0  0  0  0  0  0  0  0  0
   21.1806  -22.0540   -9.4812 N   0  0  0  0  0  0  0  0  0  0  0  0
   21.9355  -20.9307   -9.9021 C   0  0  0  0  0  0  0  0  0  0  0  0
   22.1323  -20.7971  -11.3874 C   0  0  0  0  0  0  0  0  0  0  0  0
   23.5820  -20.3700  -11.6359 C   0  0  0  0  0  0  0  0  0  0  0  0
   23.8243  -20.3246  -13.1202 C   0  0  2  0  0  0  0  0  0  0  0  0
   25.1601  -19.9492  -13.4791 N   0  0  0  0  0  0  0  0  0  0  0  0
   22.8700  -19.4288  -13.7983 C   0  0  0  0  0  0  0  0  0  0  0  0
   22.8759  -18.2071  -13.5439 O   0  0  0  0  0  0  0  0  0  0  0  0
   19.6435  -23.7835   -8.7097 C   0  0  0  0  0  0  0  0  0  0  0  0
   20.8262  -19.6296  -16.8329 C   0  0  1  0  0  0  0  0  0  0  0  0
   21.0491  -19.0502  -15.4421 N   0  0  0  0  0  0  0  0  0  0  0  0
   21.9415  -19.9317  -14.7389 C   0  0  0  0  0  0  0  0  0  0  0  0
   19.7674  -18.9762  -14.7132 O   0  0  0  0  0  0  0  0  0  0  0  0
   19.4317  -19.8908  -13.8917 O   0  0  0  0  0  0  0  0  0  0  0  0
  1  2  1  0
  3  2  1  0
  4  3  1  0
  4  5  1  0
  5  1  1  0
  5  6  1  6
  6  7  2  0
  8  9  1  0
  9 11  1  0
  9 10  2  0
 11 12  1  0
 12 13  1  0
 14 13  1  0
 15 14  1  1
 16  6  1  0
 16 15  1  0
 17 18  2  0
 17 15  1  0
 20 19  1  6
 20 21  1  0
 21 17  1  0
 22 20  1  0
 22 24  1  0
 23 22  2  0
M  END
$$$$
