PRA.pdb
     RDKit          3D

 24 24  0  0  1  0  0  0  0  0999 V2000
   35.6688  -10.6921  -13.6439 N   0  0  0  0  0  0  0  0  0  0  0  0
   36.6884  -11.3585  -12.8486 C   0  0  0  0  0  0  0  0  0  0  0  0
   37.9822  -10.6343  -13.1047 C   0  0  0  0  0  0  0  0  0  0  0  0
   37.7637  -10.1153  -14.5352 C   0  0  0  0  0  0  0  0  0  0  0  0
   36.3145   -9.6349  -14.3490 C   0  0  1  0  0  0  0  0  0  0  0  0
   35.7320   -9.2139  -15.6118 C   0  0  0  0  0  0  0  0  0  0  0  0
   36.2011   -8.1976  -16.2044 O   0  0  0  0  0  0  0  0  0  0  0  0
   30.7193  -13.8221  -20.5439 N   0  0  0  0  0  0  0  0  0  0  0  0
   30.9184  -14.2313  -19.1970 C   0  0  0  0  0  0  0  0  0  0  0  0
   30.0813  -15.0387  -18.6207 N   0  0  0  0  0  0  0  0  0  0  0  0
   32.0167  -13.7969  -18.4148 N   0  0  0  0  0  0  0  0  0  0  0  0
   32.8941  -12.7619  -18.8251 C   0  0  0  0  0  0  0  0  0  0  0  0
   33.0025  -11.5899  -17.8885 C   0  0  0  0  0  0  0  0  0  0  0  0
   33.9386  -10.5594  -18.5269 C   0  0  0  0  0  0  0  0  0  0  0  0
   34.1439   -9.4275  -17.5569 C   0  0  2  0  0  0  0  0  0  0  0  0
   34.6507   -9.8409  -16.2815 N   0  0  0  0  0  0  0  0  0  0  0  0
   32.9061   -8.6519  -17.3587 C   0  0  0  0  0  0  0  0  0  0  0  0
   32.1884   -8.8706  -16.3615 O   0  0  0  0  0  0  0  0  0  0  0  0
   30.2969  -15.3511  -17.6538 C   0  0  0  0  0  0  0  0  0  0  0  0
   31.1834   -5.9148  -19.2396 C   0  0  1  0  0  0  0  0  0  0  0  0
   31.2542   -6.9771  -18.1506 N   0  0  0  0  0  0  0  0  0  0  0  0
   32.5143   -7.6571  -18.2841 C   0  0  0  0  0  0  0  0  0  0  0  0
   30.1578   -7.9509  -18.3213 O   0  0  0  0  0  0  0  0  0  0  0  0
   30.3082   -8.9778  -19.0607 O   0  0  0  0  0  0  0  0  0  0  0  0
  1  2  1  0
  3  2  1  0
  4  3  1  0
  4  5  1  0
  5  1  1  0
  5  6  1  6
  6  7  2  0
  8  9  1  0
  9 11  1  0
  9 10  2  0
 11 12  1  0
 12 13  1  0
 14 13  1  0
 15 14  1  6
 16  6  1  0
 16 15  1  0
 17 18  2  0
 17 15  1  0
 20 19  1  1
 20 21  1  0
 21 17  1  0
 22 20  1  0
 22 24  1  0
 23 22  2  0
M  END
$$$$
