PRA.pdb
     RDKit          3D

 24 24  0  0  1  0  0  0  0  0999 V2000
   26.3652  -16.6768  -16.2901 N   0  0  0  0  0  0  0  0  0  0  0  0
   27.6352  -15.9771  -16.4077 C   0  0  0  0  0  0  0  0  0  0  0  0
   28.4656  -16.7467  -17.3986 C   0  0  0  0  0  0  0  0  0  0  0  0
   27.9258  -18.1734  -17.2070 C   0  0  0  0  0  0  0  0  0  0  0  0
   26.4321  -17.8106  -17.1514 C   0  0  1  0  0  0  0  0  0  0  0  0
   25.6211  -18.9660  -16.8073 C   0  0  0  0  0  0  0  0  0  0  0  0
   25.5570  -19.9421  -17.6119 O   0  0  0  0  0  0  0  0  0  0  0  0
   26.8592  -20.1543   -9.9673 N   0  0  0  0  0  0  0  0  0  0  0  0
   25.5911  -20.7128  -10.2857 C   0  0  0  0  0  0  0  0  0  0  0  0
   24.6013  -20.6246   -9.4507 N   0  0  0  0  0  0  0  0  0  0  0  0
   25.3301  -21.3845  -11.5054 N   0  0  0  0  0  0  0  0  0  0  0  0
   26.2882  -21.4971  -12.5439 C   0  0  0  0  0  0  0  0  0  0  0  0
   25.9332  -20.8122  -13.8352 C   0  0  0  0  0  0  0  0  0  0  0  0
   24.4295  -20.9885  -14.0663 C   0  0  0  0  0  0  0  0  0  0  0  0
   24.0489  -20.2735  -15.3344 C   0  0  2  0  0  0  0  0  0  0  0  0
   24.8612  -19.1280  -15.6211 N   0  0  0  0  0  0  0  0  0  0  0  0
   22.6305  -19.8722  -15.3259 C   0  0  0  0  0  0  0  0  0  0  0  0
   22.2881  -18.8108  -14.7658 O   0  0  0  0  0  0  0  0  0  0  0  0
   23.7023  -21.0723   -9.7159 C   0  0  0  0  0  0  0  0  0  0  0  0
   19.5584  -21.1265  -17.0255 C   0  0  1  0  0  0  0  0  0  0  0  0
   20.2747  -20.2381  -16.0170 N   0  0  0  0  0  0  0  0  0  0  0  0
   21.6435  -20.6733  -15.9453 C   0  0  0  0  0  0  0  0  0  0  0  0
   19.6515  -20.3785  -14.6861 O   0  0  0  0  0  0  0  0  0  0  0  0
   20.1266  -21.1909  -13.8270 O   0  0  0  0  0  0  0  0  0  0  0  0
  1  2  1  0
  3  2  1  0
  4  3  1  0
  4  5  1  0
  5  1  1  0
  5  6  1  1
  6  7  2  0
  8  9  1  0
  9 11  1  0
  9 10  2  0
 11 12  1  0
 12 13  1  0
 14 13  1  0
 15 14  1  1
 16  6  1  0
 16 15  1  0
 17 18  2  0
 17 15  1  0
 20 19  1  6
 20 21  1  0
 21 17  1  0
 22 20  1  0
 22 24  1  0
 23 22  2  0
M  END
$$$$
