PRA.pdb
     RDKit          3D

 24 24  0  0  1  0  0  0  0  0999 V2000
   26.9815  -20.3560  -15.6144 N   0  0  0  0  0  0  0  0  0  0  0  0
   28.2350  -20.8618  -15.0767 C   0  0  0  0  0  0  0  0  0  0  0  0
   28.5345  -22.1442  -15.8044 C   0  0  0  0  0  0  0  0  0  0  0  0
   27.1197  -22.6396  -16.1454 C   0  0  0  0  0  0  0  0  0  0  0  0
   26.5444  -21.2878  -16.6006 C   0  0  1  0  0  0  0  0  0  0  0  0
   25.1165  -21.3804  -16.8530 C   0  0  0  0  0  0  0  0  0  0  0  0
   24.7021  -22.0661  -17.8339 O   0  0  0  0  0  0  0  0  0  0  0  0
   19.7265  -25.3358  -13.3558 N   0  0  0  0  0  0  0  0  0  0  0  0
   19.8260  -24.0540  -12.7491 C   0  0  0  0  0  0  0  0  0  0  0  0
   19.3561  -23.8486  -11.5566 N   0  0  0  0  0  0  0  0  0  0  0  0
   20.4305  -22.9441  -13.3891 N   0  0  0  0  0  0  0  0  0  0  0  0
   19.7245  -22.0786  -14.2618 C   0  0  0  0  0  0  0  0  0  0  0  0
   20.4705  -21.6450  -15.4939 C   0  0  0  0  0  0  0  0  0  0  0  0
   21.9424  -21.4574  -15.1142 C   0  0  0  0  0  0  0  0  0  0  0  0
   22.6911  -20.9536  -16.3182 C   0  0  2  0  0  0  0  0  0  0  0  0
   24.0931  -20.7613  -16.0912 N   0  0  0  0  0  0  0  0  0  0  0  0
   22.1075  -19.7026  -16.8353 C   0  0  0  0  0  0  0  0  0  0  0  0
   22.3093  -18.6276  -16.2345 O   0  0  0  0  0  0  0  0  0  0  0  0
   19.7819  -23.0875  -10.9925 C   0  0  0  0  0  0  0  0  0  0  0  0
   20.3549  -18.7667  -19.9896 C   0  0  1  0  0  0  0  0  0  0  0  0
   20.8517  -18.4644  -18.5819 N   0  0  0  0  0  0  0  0  0  0  0  0
   21.3177  -19.6980  -18.0082 C   0  0  0  0  0  0  0  0  0  0  0  0
   19.7471  -17.9341  -17.7584 O   0  0  0  0  0  0  0  0  0  0  0  0
   19.0429  -18.7117  -17.0348 O   0  0  0  0  0  0  0  0  0  0  0  0
  1  2  1  0
  3  2  1  0
  4  3  1  0
  4  5  1  0
  5  1  1  0
  5  6  1  1
  6  7  2  0
  8  9  1  0
  9 11  1  0
  9 10  2  0
 11 12  1  0
 12 13  1  0
 14 13  1  0
 15 14  1  1
 16  6  1  0
 16 15  1  0
 17 18  2  0
 17 15  1  0
 20 19  1  6
 20 21  1  0
 21 17  1  0
 22 20  1  0
 22 24  1  0
 23 22  2  0
M  END
$$$$
