PRA.pdb
     RDKit          3D

 24 24  0  0  1  0  0  0  0  0999 V2000
   17.0304  -10.1062  -14.5909 N   0  0  0  0  0  0  0  0  0  0  0  0
   17.8714  -10.9480  -15.4277 C   0  0  0  0  0  0  0  0  0  0  0  0
   19.2651  -10.8649  -14.8667 C   0  0  0  0  0  0  0  0  0  0  0  0
   19.2614   -9.4582  -14.2466 C   0  0  0  0  0  0  0  0  0  0  0  0
   17.8724   -9.5380  -13.5909 C   0  0  1  0  0  0  0  0  0  0  0  0
   17.4799   -8.2568  -13.0291 C   0  0  0  0  0  0  0  0  0  0  0  0
   16.7646   -7.4697  -13.7167 O   0  0  0  0  0  0  0  0  0  0  0  0
   12.8727   -7.3378  -10.0000 N   0  0  0  0  0  0  0  0  0  0  0  0
   13.0518   -8.1526   -8.8489 C   0  0  0  0  0  0  0  0  0  0  0  0
   12.2165   -9.1089   -8.5792 N   0  0  0  0  0  0  0  0  0  0  0  0
   14.1275   -7.9800   -7.9433 N   0  0  0  0  0  0  0  0  0  0  0  0
   15.2837   -7.2217   -8.2552 C   0  0  0  0  0  0  0  0  0  0  0  0
   15.7643   -7.3211   -9.6771 C   0  0  0  0  0  0  0  0  0  0  0  0
   17.0290   -6.4674   -9.8097 C   0  0  0  0  0  0  0  0  0  0  0  0
   17.4662   -6.4726  -11.2494 C   0  0  2  0  0  0  0  0  0  0  0  0
   17.8243   -7.7698  -11.7426 N   0  0  0  0  0  0  0  0  0  0  0  0
   18.5846   -5.5403  -11.4799 C   0  0  0  0  0  0  0  0  0  0  0  0
   18.4774   -4.3446  -11.1392 O   0  0  0  0  0  0  0  0  0  0  0  0
   12.4242   -9.7181   -7.7639 C   0  0  0  0  0  0  0  0  0  0  0  0
   22.1664   -5.8470  -12.2672 C   0  0  2  0  0  0  0  0  0  0  0  0
   20.8633   -5.0622  -12.3401 N   0  0  0  0  0  0  0  0  0  0  0  0
   19.7854   -5.9791  -12.0840 C   0  0  0  0  0  0  0  0  0  0  0  0
   20.6962   -4.4826  -13.6876 O   0  0  0  0  0  0  0  0  0  0  0  0
   19.8301   -4.9524  -14.4958 O   0  0  0  0  0  0  0  0  0  0  0  0
  1  2  1  0
  3  2  1  0
  4  3  1  0
  4  5  1  0
  5  1  1  0
  5  6  1  6
  6  7  2  0
  8  9  1  0
  9 11  1  0
  9 10  2  0
 11 12  1  0
 12 13  1  0
 14 13  1  0
 15 14  1  1
 16  6  1  0
 16 15  1  0
 17 18  2  0
 17 15  1  0
 20 19  1  1
 20 21  1  0
 21 17  1  0
 22 20  1  0
 22 24  1  0
 23 22  2  0
M  END
$$$$
