PRA.pdb
     RDKit          3D

 24 24  0  0  1  0  0  0  0  0999 V2000
   26.6852  -16.6327  -16.2535 N   0  0  0  0  0  0  0  0  0  0  0  0
   27.9958  -16.0218  -16.4124 C   0  0  0  0  0  0  0  0  0  0  0  0
   28.7612  -16.8804  -17.3823 C   0  0  0  0  0  0  0  0  0  0  0  0
   28.1335  -18.2608  -17.1296 C   0  0  0  0  0  0  0  0  0  0  0  0
   26.6671  -17.8002  -17.0711 C   0  0  1  0  0  0  0  0  0  0  0  0
   25.7883  -18.8868  -16.6735 C   0  0  0  0  0  0  0  0  0  0  0  0
   25.6181  -19.8669  -17.4574 O   0  0  0  0  0  0  0  0  0  0  0  0
   26.4826  -20.1981   -9.1268 N   0  0  0  0  0  0  0  0  0  0  0  0
   25.2968  -20.8654   -9.5390 C   0  0  0  0  0  0  0  0  0  0  0  0
   24.3195  -21.0524   -8.7054 N   0  0  0  0  0  0  0  0  0  0  0  0
   25.1076  -21.3569  -10.8541 N   0  0  0  0  0  0  0  0  0  0  0  0
   25.9887  -21.0576  -11.9233 C   0  0  0  0  0  0  0  0  0  0  0  0
   25.4462  -20.1281  -12.9742 C   0  0  0  0  0  0  0  0  0  0  0  0
   24.7701  -20.9781  -14.0540 C   0  0  0  0  0  0  0  0  0  0  0  0
   24.2042  -20.0623  -15.1052 C   0  0  2  0  0  0  0  0  0  0  0  0
   25.0696  -18.9745  -15.4542 N   0  0  0  0  0  0  0  0  0  0  0  0
   22.8892  -19.5275  -14.7077 C   0  0  0  0  0  0  0  0  0  0  0  0
   22.8145  -18.6683  -13.8057 O   0  0  0  0  0  0  0  0  0  0  0  0
   23.4634  -21.5217   -9.0599 C   0  0  0  0  0  0  0  0  0  0  0  0
   19.5061  -19.5155  -16.1630 C   0  0  1  0  0  0  0  0  0  0  0  0
   20.4198  -19.4514  -14.9462 N   0  0  0  0  0  0  0  0  0  0  0  0
   21.7025  -19.9731  -15.3343 C   0  0  0  0  0  0  0  0  0  0  0  0
   19.8695  -20.2806  -13.8557 O   0  0  0  0  0  0  0  0  0  0  0  0
   20.3115  -21.4572  -13.6458 O   0  0  0  0  0  0  0  0  0  0  0  0
  1  2  1  0
  3  2  1  0
  4  3  1  0
  4  5  1  0
  5  1  1  0
  5  6  1  1
  6  7  2  0
  8  9  1  0
  9 11  1  0
  9 10  2  0
 11 12  1  0
 12 13  1  0
 14 13  1  0
 15 14  1  1
 16  6  1  0
 16 15  1  0
 17 18  2  0
 17 15  1  0
 20 19  1  6
 20 21  1  0
 21 17  1  0
 22 20  1  0
 22 24  1  0
 23 22  2  0
M  END
$$$$
