PRA.pdb
     RDKit          3D

 24 24  0  0  1  0  0  0  0  0999 V2000
   27.7966  -19.9287  -17.9252 N   0  0  0  0  0  0  0  0  0  0  0  0
   29.1133  -19.8023  -18.5306 C   0  0  0  0  0  0  0  0  0  0  0  0
   29.7666  -21.1545  -18.4371 C   0  0  0  0  0  0  0  0  0  0  0  0
   29.1078  -21.7252  -17.1707 C   0  0  0  0  0  0  0  0  0  0  0  0
   27.6695  -21.2770  -17.4805 C   0  0  1  0  0  0  0  0  0  0  0  0
   26.7833  -21.5349  -16.3583 C   0  0  0  0  0  0  0  0  0  0  0  0
   26.0074  -22.5352  -16.3963 O   0  0  0  0  0  0  0  0  0  0  0  0
   23.0780  -20.0191   -9.9537 N   0  0  0  0  0  0  0  0  0  0  0  0
   23.8090  -20.7898   -9.0089 C   0  0  0  0  0  0  0  0  0  0  0  0
   23.2456  -21.2026   -7.9148 N   0  0  0  0  0  0  0  0  0  0  0  0
   25.1664  -21.1504   -9.1949 N   0  0  0  0  0  0  0  0  0  0  0  0
   25.9258  -20.7408  -10.3194 C   0  0  0  0  0  0  0  0  0  0  0  0
   25.3502  -21.1022  -11.6613 C   0  0  0  0  0  0  0  0  0  0  0  0
   26.3680  -20.7056  -12.7349 C   0  0  0  0  0  0  0  0  0  0  0  0
   25.8052  -21.0546  -14.0860 C   0  0  2  0  0  0  0  0  0  0  0  0
   26.6867  -20.7574  -15.1763 N   0  0  0  0  0  0  0  0  0  0  0  0
   24.5067  -20.3967  -14.3190 C   0  0  0  0  0  0  0  0  0  0  0  0
   24.4281  -19.1514  -14.2974 O   0  0  0  0  0  0  0  0  0  0  0  0
   23.8228  -21.7552   -7.2512 C   0  0  0  0  0  0  0  0  0  0  0  0
   21.4922  -21.0619  -16.0837 C   0  0  1  0  0  0  0  0  0  0  0  0
   22.0718  -20.5143  -14.7861 N   0  0  0  0  0  0  0  0  0  0  0  0
   23.3402  -21.1560  -14.5685 C   0  0  0  0  0  0  0  0  0  0  0  0
   21.1715  -20.8260  -13.6584 O   0  0  0  0  0  0  0  0  0  0  0  0
   21.4216  -21.8000  -12.8755 O   0  0  0  0  0  0  0  0  0  0  0  0
  1  2  1  0
  3  2  1  0
  4  3  1  0
  4  5  1  0
  5  1  1  0
  5  6  1  1
  6  7  2  0
  8  9  1  0
  9 11  1  0
  9 10  2  0
 11 12  1  0
 12 13  1  0
 14 13  1  0
 15 14  1  1
 16  6  1  0
 16 15  1  0
 17 18  2  0
 17 15  1  0
 20 19  1  6
 20 21  1  0
 21 17  1  0
 22 20  1  0
 22 24  1  0
 23 22  2  0
M  END
$$$$
