GFW.pdb
     RDKit          3D

 30 32  0  0  1  0  0  0  0  0999 V2000
    8.6016  -16.7343   17.4137 N   0  0  0  0  0  0  0  0  0  0  0  0
    8.7539  -17.5634   18.5697 C   0  0  0  0  0  0  0  0  0  0  0  0
    8.9172  -16.7040   19.7665 C   0  0  0  0  0  0  0  0  0  0  0  0
    9.8222  -15.8577   19.7830 O   0  0  0  0  0  0  0  0  0  0  0  0
    8.0449  -16.8453   20.8923 N   0  0  0  0  0  0  0  0  0  0  0  0
    8.2080  -16.0313   22.0694 C   0  0  1  0  0  0  0  0  0  0  0  0
    6.9318  -15.9156   22.8580 C   0  0  0  0  0  0  0  0  0  0  0  0
    7.1577  -15.0644   24.0518 C   0  0  0  0  0  0  0  0  0  0  0  0
    6.9781  -15.5469   25.3214 C   0  0  0  0  0  0  0  0  0  0  0  0
    7.1902  -14.7543   26.4152 C   0  0  0  0  0  0  0  0  0  0  0  0
    7.5960  -13.4342   26.2146 C   0  0  0  0  0  0  0  0  0  0  0  0
    7.7732  -12.9604   24.9343 C   0  0  0  0  0  0  0  0  0  0  0  0
    7.5571  -13.7660   23.8447 C   0  0  0  0  0  0  0  0  0  0  0  0
    9.2851  -16.6060   22.9355 C   0  0  0  0  0  0  0  0  0  0  0  0
    9.2575  -17.8273   23.1754 O   0  0  0  0  0  0  0  0  0  0  0  0
   10.3202  -15.8187   23.4834 N   0  0  0  0  0  0  0  0  0  0  0  0
   11.4320  -16.4705   24.1334 C   0  0  1  0  0  0  0  0  0  0  0  0
   11.9174  -15.7408   25.3212 C   0  0  0  0  0  0  0  0  0  0  0  0
   11.2023  -15.9741   26.5926 C   0  0  0  0  0  0  0  0  0  0  0  0
   10.9690  -17.2369   27.1606 C   0  0  0  0  0  0  0  0  0  0  0  0
   10.2667  -17.0865   28.2863 N   0  0  0  0  0  0  0  0  0  0  0  0
   10.0312  -15.7800   28.4798 C   0  0  0  0  0  0  0  0  0  0  0  0
    9.3716  -15.0656   29.4819 C   0  0  0  0  0  0  0  0  0  0  0  0
    9.3067  -13.6927   29.4169 C   0  0  0  0  0  0  0  0  0  0  0  0
    9.8814  -12.9992   28.3785 C   0  0  0  0  0  0  0  0  0  0  0  0
   10.5340  -13.7017   27.3852 C   0  0  0  0  0  0  0  0  0  0  0  0
   10.6004  -15.0852   27.4474 C   0  0  0  0  0  0  0  0  0  0  0  0
   11.2585  -17.9254   24.2324 C   0  0  0  0  0  0  0  0  0  0  0  0
   12.2762  -18.6588   24.1868 O   0  0  0  0  0  0  0  0  0  0  0  0
   10.0465  -18.5905   24.3739 O   0  0  0  0  0  0  0  0  0  0  0  0
  2  1  1  0
  3  2  1  0
  4  3  2  0
  5  3  1  0
  6  7  1  1
  6  5  1  0
  8  7  1  0
  9  8  2  0
 10  9  1  0
 11 12  1  0
 11 10  2  0
 12 13  2  0
 13  8  1  0
 14 15  2  0
 14  6  1  0
 16 14  1  0
 17 16  1  0
 17 18  1  1
 19 18  1  0
 20 19  2  0
 21 20  1  0
 22 21  1  0
 22 27  2  0
 23 22  1  0
 24 23  2  0
 24 25  1  0
 25 26  2  0
 26 27  1  0
 27 19  1  0
 28 30  1  0
 28 17  1  0
 29 28  2  0
M  END
$$$$
