GFW.pdb
     RDKit          3D

 30 32  0  0  1  0  0  0  0  0999 V2000
    7.8851  -14.6869   18.2854 N   0  0  0  0  0  0  0  0  0  0  0  0
    8.4459  -14.3030   19.5443 C   0  0  0  0  0  0  0  0  0  0  0  0
    8.1485  -15.3516   20.5492 C   0  0  0  0  0  0  0  0  0  0  0  0
    6.9677  -15.6427   20.7866 O   0  0  0  0  0  0  0  0  0  0  0  0
    9.2069  -16.0227   21.2404 N   0  0  0  0  0  0  0  0  0  0  0  0
    8.9302  -17.0478   22.2138 C   0  0  1  0  0  0  0  0  0  0  0  0
    9.4403  -18.3943   21.7771 C   0  0  0  0  0  0  0  0  0  0  0  0
   10.8122  -18.2554   21.2300 C   0  0  0  0  0  0  0  0  0  0  0  0
   11.0351  -17.7833   19.9634 C   0  0  0  0  0  0  0  0  0  0  0  0
   12.3037  -17.6579   19.4689 C   0  0  0  0  0  0  0  0  0  0  0  0
   13.3767  -18.0223   20.2834 C   0  0  0  0  0  0  0  0  0  0  0  0
   13.1406  -18.4955   21.5544 C   0  0  0  0  0  0  0  0  0  0  0  0
   11.8625  -18.6166   22.0390 C   0  0  0  0  0  0  0  0  0  0  0  0
    9.5464  -16.6771   23.5265 C   0  0  0  0  0  0  0  0  0  0  0  0
   10.4499  -15.8206   23.5310 O   0  0  0  0  0  0  0  0  0  0  0  0
    9.1422  -17.2595   24.7468 N   0  0  0  0  0  0  0  0  0  0  0  0
    9.8104  -16.8737   25.9667 C   0  0  1  0  0  0  0  0  0  0  0  0
    8.9025  -16.2584   26.9547 C   0  0  0  0  0  0  0  0  0  0  0  0
    7.8228  -15.3969   26.4309 C   0  0  0  0  0  0  0  0  0  0  0  0
    6.6502  -15.8658   25.8170 C   0  0  0  0  0  0  0  0  0  0  0  0
    5.9116  -14.8223   25.4319 N   0  0  0  0  0  0  0  0  0  0  0  0
    6.5497  -13.6911   25.7677 C   0  0  0  0  0  0  0  0  0  0  0  0
    6.2371  -12.3379   25.6230 C   0  0  0  0  0  0  0  0  0  0  0  0
    7.1032  -11.3789   26.0957 C   0  0  0  0  0  0  0  0  0  0  0  0
    8.2817  -11.7235   26.7138 C   0  0  0  0  0  0  0  0  0  0  0  0
    8.5950  -13.0603   26.8583 C   0  0  0  0  0  0  0  0  0  0  0  0
    7.7247  -14.0290   26.3823 C   0  0  0  0  0  0  0  0  0  0  0  0
   10.7669  -17.8850   26.4346 C   0  0  0  0  0  0  0  0  0  0  0  0
   10.7976  -18.9992   25.8572 O   0  0  0  0  0  0  0  0  0  0  0  0
   11.6658  -17.7283   27.4828 O   0  0  0  0  0  0  0  0  0  0  0  0
  2  1  1  0
  3  2  1  0
  4  3  2  0
  5  3  1  0
  6  7  1  6
  6  5  1  0
  8  7  1  0
  9  8  2  0
 10  9  1  0
 11 12  1  0
 11 10  2  0
 12 13  2  0
 13  8  1  0
 14 15  2  0
 14  6  1  0
 16 14  1  0
 17 16  1  0
 17 18  1  1
 19 18  1  0
 20 19  2  0
 21 20  1  0
 22 21  1  0
 22 27  2  0
 23 22  1  0
 24 23  2  0
 24 25  1  0
 25 26  2  0
 26 27  1  0
 27 19  1  0
 28 30  1  0
 28 17  1  0
 29 28  2  0
M  END
$$$$
