GFW.pdb
     RDKit          3D

 30 32  0  0  1  0  0  0  0  0999 V2000
   10.0852  -16.6253   17.5143 N   0  0  0  0  0  0  0  0  0  0  0  0
    9.3150  -17.2987   18.5145 C   0  0  0  0  0  0  0  0  0  0  0  0
    9.3686  -16.5206   19.7752 C   0  0  0  0  0  0  0  0  0  0  0  0
   10.4684  -16.1510   20.2102 O   0  0  0  0  0  0  0  0  0  0  0  0
    8.1693  -16.1977   20.4863 N   0  0  0  0  0  0  0  0  0  0  0  0
    8.2163  -15.5966   21.7945 C   0  0  1  0  0  0  0  0  0  0  0  0
    6.8896  -15.0110   22.1955 C   0  0  0  0  0  0  0  0  0  0  0  0
    6.9635  -14.5164   23.5922 C   0  0  0  0  0  0  0  0  0  0  0  0
    6.6380  -15.3172   24.6550 C   0  0  0  0  0  0  0  0  0  0  0  0
    6.7107  -14.8520   25.9387 C   0  0  0  0  0  0  0  0  0  0  0  0
    7.1257  -13.5363   26.1496 C   0  0  0  0  0  0  0  0  0  0  0  0
    7.4502  -12.7410   25.0739 C   0  0  0  0  0  0  0  0  0  0  0  0
    7.3730  -13.2198   23.7902 C   0  0  0  0  0  0  0  0  0  0  0  0
    8.6426  -16.6165   22.8037 C   0  0  0  0  0  0  0  0  0  0  0  0
    8.3545  -17.8090   22.5923 O   0  0  0  0  0  0  0  0  0  0  0  0
    9.3528  -16.2757   23.9746 N   0  0  0  0  0  0  0  0  0  0  0  0
   10.3728  -17.1714   24.4653 C   0  0  1  0  0  0  0  0  0  0  0  0
   11.3888  -16.4936   25.2945 C   0  0  0  0  0  0  0  0  0  0  0  0
   11.0759  -16.3124   26.7269 C   0  0  0  0  0  0  0  0  0  0  0  0
   11.0521  -17.3446   27.6786 C   0  0  0  0  0  0  0  0  0  0  0  0
   10.6986  -16.8387   28.8627 N   0  0  0  0  0  0  0  0  0  0  0  0
   10.4910  -15.5203   28.7271 C   0  0  0  0  0  0  0  0  0  0  0  0
   10.1266  -14.5127   29.6225 C   0  0  0  0  0  0  0  0  0  0  0  0
   10.0062  -13.2144   29.1831 C   0  0  0  0  0  0  0  0  0  0  0  0
   10.2383  -12.8808   27.8699 C   0  0  0  0  0  0  0  0  0  0  0  0
   10.5981  -13.8740   26.9811 C   0  0  0  0  0  0  0  0  0  0  0  0
   10.7194  -15.1834   27.4207 C   0  0  0  0  0  0  0  0  0  0  0  0
    9.8264  -18.4493   24.9392 C   0  0  0  0  0  0  0  0  0  0  0  0
   10.5540  -19.4711   24.8923 O   0  0  0  0  0  0  0  0  0  0  0  0
    8.5480  -18.6469   25.4474 O   0  0  0  0  0  0  0  0  0  0  0  0
  2  1  1  0
  3  2  1  0
  4  3  2  0
  5  3  1  0
  6  7  1  1
  6  5  1  0
  8  7  1  0
  9  8  2  0
 10  9  1  0
 11 12  1  0
 11 10  2  0
 12 13  2  0
 13  8  1  0
 14 15  2  0
 14  6  1  0
 16 14  1  0
 17 16  1  0
 17 18  1  1
 19 18  1  0
 20 19  2  0
 21 20  1  0
 22 21  1  0
 22 27  2  0
 23 22  1  0
 24 23  2  0
 24 25  1  0
 25 26  2  0
 26 27  1  0
 27 19  1  0
 28 30  1  0
 28 17  1  0
 29 28  2  0
M  END
$$$$
