GFW.pdb
     RDKit          3D

 30 32  0  0  1  0  0  0  0  0999 V2000
    9.7200  -20.4737   18.5371 N   0  0  0  0  0  0  0  0  0  0  0  0
    8.9607  -20.1304   19.7000 C   0  0  0  0  0  0  0  0  0  0  0  0
    9.1242  -18.6834   19.9779 C   0  0  0  0  0  0  0  0  0  0  0  0
   10.1255  -18.0951   19.5459 O   0  0  0  0  0  0  0  0  0  0  0  0
    8.1422  -17.9692   20.7355 N   0  0  0  0  0  0  0  0  0  0  0  0
    8.3338  -16.5862   21.0896 C   0  0  1  0  0  0  0  0  0  0  0  0
    7.0938  -15.7662   20.8574 C   0  0  0  0  0  0  0  0  0  0  0  0
    7.4397  -14.3236   20.8674 C   0  0  0  0  0  0  0  0  0  0  0  0
    7.1771  -13.5304   21.9530 C   0  0  0  0  0  0  0  0  0  0  0  0
    7.5011  -12.2020   21.9526 C   0  0  0  0  0  0  0  0  0  0  0  0
    8.1089  -11.6633   20.8177 C   0  0  0  0  0  0  0  0  0  0  0  0
    8.3679  -12.4701   19.7328 C   0  0  0  0  0  0  0  0  0  0  0  0
    8.0378  -13.8020   19.7457 C   0  0  0  0  0  0  0  0  0  0  0  0
    8.7432  -16.4848   22.5258 C   0  0  0  0  0  0  0  0  0  0  0  0
    8.0867  -17.1212   23.3707 O   0  0  0  0  0  0  0  0  0  0  0  0
    9.8370  -15.7005   22.9502 N   0  0  0  0  0  0  0  0  0  0  0  0
   10.2747  -15.7866   24.3229 C   0  0  1  0  0  0  0  0  0  0  0  0
    9.7649  -14.6855   25.1636 C   0  0  0  0  0  0  0  0  0  0  0  0
    8.4186  -14.8533   25.7481 C   0  0  0  0  0  0  0  0  0  0  0  0
    7.6618  -16.0347   25.6906 C   0  0  0  0  0  0  0  0  0  0  0  0
    6.4839  -15.8281   26.2847 N   0  0  0  0  0  0  0  0  0  0  0  0
    6.4377  -14.5631   26.7290 C   0  0  0  0  0  0  0  0  0  0  0  0
    5.4739  -13.8277   27.4218 C   0  0  0  0  0  0  0  0  0  0  0  0
    5.7251  -12.5194   27.7661 C   0  0  0  0  0  0  0  0  0  0  0  0
    6.9144  -11.9114   27.4413 C   0  0  0  0  0  0  0  0  0  0  0  0
    7.8697  -12.6347   26.7556 C   0  0  0  0  0  0  0  0  0  0  0  0
    7.6193  -13.9530   26.4066 C   0  0  0  0  0  0  0  0  0  0  0  0
   10.2131  -17.1544   24.8539 C   0  0  0  0  0  0  0  0  0  0  0  0
   11.0441  -17.4999   25.7290 O   0  0  0  0  0  0  0  0  0  0  0  0
    9.3023  -18.1327   24.4731 O   0  0  0  0  0  0  0  0  0  0  0  0
  2  1  1  0
  3  2  1  0
  4  3  2  0
  5  3  1  0
  6  7  1  1
  6  5  1  0
  8  7  1  0
  9  8  2  0
 10  9  1  0
 11 12  1  0
 11 10  2  0
 12 13  2  0
 13  8  1  0
 14 15  2  0
 14  6  1  0
 16 14  1  0
 17 16  1  0
 17 18  1  1
 19 18  1  0
 20 19  2  0
 21 20  1  0
 22 21  1  0
 22 27  2  0
 23 22  1  0
 24 23  2  0
 24 25  1  0
 25 26  2  0
 26 27  1  0
 27 19  1  0
 28 30  1  0
 28 17  1  0
 29 28  2  0
M  END
$$$$
