GFW.pdb
     RDKit          3D

 30 32  0  0  1  0  0  0  0  0999 V2000
    9.5997  -19.7466   17.9338 N   0  0  0  0  0  0  0  0  0  0  0  0
    8.7147  -19.5721   19.0443 C   0  0  0  0  0  0  0  0  0  0  0  0
    8.9839  -18.2598   19.6792 C   0  0  0  0  0  0  0  0  0  0  0  0
   10.1105  -17.7556   19.5690 O   0  0  0  0  0  0  0  0  0  0  0  0
    7.9605  -17.5788   20.4121 N   0  0  0  0  0  0  0  0  0  0  0  0
    8.1950  -16.2805   20.9902 C   0  0  1  0  0  0  0  0  0  0  0  0
    6.9314  -15.4697   21.0902 C   0  0  0  0  0  0  0  0  0  0  0  0
    7.2324  -14.1480   21.6931 C   0  0  0  0  0  0  0  0  0  0  0  0
    7.0198  -13.9013   23.0238 C   0  0  0  0  0  0  0  0  0  0  0  0
    7.3016  -12.6799   23.5700 C   0  0  0  0  0  0  0  0  0  0  0  0
    7.8138  -11.6803   22.7417 C   0  0  0  0  0  0  0  0  0  0  0  0
    8.0233  -11.9398   21.4061 C   0  0  0  0  0  0  0  0  0  0  0  0
    7.7363  -13.1699   20.8701 C   0  0  0  0  0  0  0  0  0  0  0  0
    8.8032  -16.4352   22.3490 C   0  0  0  0  0  0  0  0  0  0  0  0
    8.3131  -17.2813   23.1197 O   0  0  0  0  0  0  0  0  0  0  0  0
    9.9021  -15.6627   22.7818 N   0  0  0  0  0  0  0  0  0  0  0  0
   10.5690  -16.0144   24.0127 C   0  0  1  0  0  0  0  0  0  0  0  0
    9.6822  -16.6927   24.9785 C   0  0  0  0  0  0  0  0  0  0  0  0
    8.6769  -15.8591   25.6689 C   0  0  0  0  0  0  0  0  0  0  0  0
    7.2913  -16.0843   25.6376 C   0  0  0  0  0  0  0  0  0  0  0  0
    6.6771  -15.1257   26.3353 N   0  0  0  0  0  0  0  0  0  0  0  0
    7.6009  -14.2836   26.8224 C   0  0  0  0  0  0  0  0  0  0  0  0
    7.5261  -13.1382   27.6175 C   0  0  0  0  0  0  0  0  0  0  0  0
    8.6775  -12.4786   27.9812 C   0  0  0  0  0  0  0  0  0  0  0  0
    9.9135  -12.9240   27.5768 C   0  0  0  0  0  0  0  0  0  0  0  0
    9.9920  -14.0556   26.7900 C   0  0  0  0  0  0  0  0  0  0  0  0
    8.8335  -14.7221   26.4212 C   0  0  0  0  0  0  0  0  0  0  0  0
   11.9120  -16.5663   23.7934 C   0  0  0  0  0  0  0  0  0  0  0  0
   12.0258  -17.6416   23.1558 O   0  0  0  0  0  0  0  0  0  0  0  0
   13.1032  -16.0025   24.2347 O   0  0  0  0  0  0  0  0  0  0  0  0
  2  1  1  0
  3  2  1  0
  4  3  2  0
  5  3  1  0
  6  7  1  1
  6  5  1  0
  8  7  1  0
  9  8  2  0
 10  9  1  0
 11 12  1  0
 11 10  2  0
 12 13  2  0
 13  8  1  0
 14 15  2  0
 14  6  1  0
 16 14  1  0
 17 16  1  0
 17 18  1  6
 19 18  1  0
 20 19  2  0
 21 20  1  0
 22 21  1  0
 22 27  2  0
 23 22  1  0
 24 23  2  0
 24 25  1  0
 25 26  2  0
 26 27  1  0
 27 19  1  0
 28 30  1  0
 28 17  1  0
 29 28  2  0
M  END
$$$$
