GFW.pdb
     RDKit          3D

 30 32  0  0  1  0  0  0  0  0999 V2000
    4.5183  -18.8566   21.8787 N   0  0  0  0  0  0  0  0  0  0  0  0
    4.6554  -18.6898   23.2930 C   0  0  0  0  0  0  0  0  0  0  0  0
    5.7052  -17.6787   23.5639 C   0  0  0  0  0  0  0  0  0  0  0  0
    6.4202  -17.2860   22.6312 O   0  0  0  0  0  0  0  0  0  0  0  0
    5.8964  -17.1592   24.8838 N   0  0  0  0  0  0  0  0  0  0  0  0
    6.9319  -16.1981   25.1646 C   0  0  1  0  0  0  0  0  0  0  0  0
    6.7063  -15.4902   26.4730 C   0  0  0  0  0  0  0  0  0  0  0  0
    7.8878  -14.6545   26.7990 C   0  0  0  0  0  0  0  0  0  0  0  0
    9.0104  -15.1915   27.3718 C   0  0  0  0  0  0  0  0  0  0  0  0
   10.0947  -14.4127   27.6672 C   0  0  0  0  0  0  0  0  0  0  0  0
   10.0378  -13.0497   27.3729 C   0  0  0  0  0  0  0  0  0  0  0  0
    8.9045  -12.5212   26.7974 C   0  0  0  0  0  0  0  0  0  0  0  0
    7.8228  -13.3136   26.5057 C   0  0  0  0  0  0  0  0  0  0  0  0
    8.2633  -16.8818   25.1848 C   0  0  0  0  0  0  0  0  0  0  0  0
    8.2953  -18.0991   25.4439 O   0  0  0  0  0  0  0  0  0  0  0  0
    9.4710  -16.2005   24.9225 N   0  0  0  0  0  0  0  0  0  0  0  0
   10.4080  -16.7652   23.9809 C   0  0  1  0  0  0  0  0  0  0  0  0
    9.8663  -16.8602   22.6110 C   0  0  0  0  0  0  0  0  0  0  0  0
    9.9144  -15.6381   21.7825 C   0  0  0  0  0  0  0  0  0  0  0  0
   11.0486  -15.1831   21.0909 C   0  0  0  0  0  0  0  0  0  0  0  0
   10.7537  -14.0354   20.4756 N   0  0  0  0  0  0  0  0  0  0  0  0
    9.4755  -13.7202   20.7340 C   0  0  0  0  0  0  0  0  0  0  0  0
    8.6544  -12.6605   20.3435 C   0  0  0  0  0  0  0  0  0  0  0  0
    7.3449  -12.6159   20.7636 C   0  0  0  0  0  0  0  0  0  0  0  0
    6.8190  -13.5994   21.5672 C   0  0  0  0  0  0  0  0  0  0  0  0
    7.6277  -14.6485   21.9563 C   0  0  0  0  0  0  0  0  0  0  0  0
    8.9479  -14.6959   21.5352 C   0  0  0  0  0  0  0  0  0  0  0  0
   11.7712  -16.2483   24.1567 C   0  0  0  0  0  0  0  0  0  0  0  0
   12.6752  -17.0410   24.5175 O   0  0  0  0  0  0  0  0  0  0  0  0
   12.1719  -14.9322   23.9596 O   0  0  0  0  0  0  0  0  0  0  0  0
  2  1  1  0
  3  2  1  0
  4  3  2  0
  5  3  1  0
  6  7  1  1
  6  5  1  0
  8  7  1  0
  9  8  2  0
 10  9  1  0
 11 12  1  0
 11 10  2  0
 12 13  2  0
 13  8  1  0
 14 15  2  0
 14  6  1  0
 16 14  1  0
 17 16  1  0
 17 18  1  6
 19 18  1  0
 20 19  2  0
 21 20  1  0
 22 21  1  0
 22 27  2  0
 23 22  1  0
 24 23  2  0
 24 25  1  0
 25 26  2  0
 26 27  1  0
 27 19  1  0
 28 30  1  0
 28 17  1  0
 29 28  2  0
M  END
$$$$
