GFW.pdb
     RDKit          3D

 30 32  0  0  1  0  0  0  0  0999 V2000
    8.9964  -18.9997   19.3886 N   0  0  0  0  0  0  0  0  0  0  0  0
    8.4207  -18.3418   20.5211 C   0  0  0  0  0  0  0  0  0  0  0  0
    9.3672  -17.3160   21.0206 C   0  0  0  0  0  0  0  0  0  0  0  0
   10.5205  -17.2873   20.5682 O   0  0  0  0  0  0  0  0  0  0  0  0
    8.9610  -16.3683   22.0133 N   0  0  0  0  0  0  0  0  0  0  0  0
    9.8957  -15.4246   22.5706 C   0  0  1  0  0  0  0  0  0  0  0  0
    9.3858  -14.0111   22.4929 C   0  0  0  0  0  0  0  0  0  0  0  0
    8.4233  -13.8882   21.3707 C   0  0  0  0  0  0  0  0  0  0  0  0
    8.8258  -13.5021   20.1194 C   0  0  0  0  0  0  0  0  0  0  0  0
    7.9308  -13.3931   19.0914 C   0  0  0  0  0  0  0  0  0  0  0  0
    6.5889  -13.6843   19.3407 C   0  0  0  0  0  0  0  0  0  0  0  0
    6.1962  -14.0713   20.6021 C   0  0  0  0  0  0  0  0  0  0  0  0
    7.1043  -14.1769   21.6254 C   0  0  0  0  0  0  0  0  0  0  0  0
   10.1819  -15.7793   23.9963 C   0  0  0  0  0  0  0  0  0  0  0  0
   11.0916  -15.1651   24.5837 O   0  0  0  0  0  0  0  0  0  0  0  0
    9.4628  -16.7758   24.6901 N   0  0  0  0  0  0  0  0  0  0  0  0
    9.8337  -17.0952   26.0480 C   0  0  1  0  0  0  0  0  0  0  0  0
    8.7510  -16.8417   27.0190 C   0  0  0  0  0  0  0  0  0  0  0  0
    7.7646  -15.7991   26.6695 C   0  0  0  0  0  0  0  0  0  0  0  0
    6.5738  -16.0279   25.9614 C   0  0  0  0  0  0  0  0  0  0  0  0
    5.9388  -14.8661   25.7879 N   0  0  0  0  0  0  0  0  0  0  0  0
    6.6622  -13.8874   26.3524 C   0  0  0  0  0  0  0  0  0  0  0  0
    6.4713  -12.5102   26.4814 C   0  0  0  0  0  0  0  0  0  0  0  0
    7.4029  -11.7475   27.1474 C   0  0  0  0  0  0  0  0  0  0  0  0
    8.5296  -12.3138   27.6949 C   0  0  0  0  0  0  0  0  0  0  0  0
    8.7225  -13.6749   27.5690 C   0  0  0  0  0  0  0  0  0  0  0  0
    7.7859  -14.4461   26.8979 C   0  0  0  0  0  0  0  0  0  0  0  0
   10.5812  -18.3550   26.1513 C   0  0  0  0  0  0  0  0  0  0  0  0
   10.5556  -19.1529   25.1826 O   0  0  0  0  0  0  0  0  0  0  0  0
   11.3342  -18.7645   27.2453 O   0  0  0  0  0  0  0  0  0  0  0  0
  2  1  1  0
  3  2  1  0
  4  3  2  0
  5  3  1  0
  6  7  1  1
  6  5  1  0
  8  7  1  0
  9  8  2  0
 10  9  1  0
 11 12  1  0
 11 10  2  0
 12 13  2  0
 13  8  1  0
 14 15  2  0
 14  6  1  0
 16 14  1  0
 17 16  1  0
 17 18  1  1
 19 18  1  0
 20 19  2  0
 21 20  1  0
 22 21  1  0
 22 27  2  0
 23 22  1  0
 24 23  2  0
 24 25  1  0
 25 26  2  0
 26 27  1  0
 27 19  1  0
 28 30  1  0
 28 17  1  0
 29 28  2  0
M  END
$$$$
