GFW.pdb
     RDKit          3D

 30 32  0  0  1  0  0  0  0  0999 V2000
    7.0550  -21.0579   21.1516 N   0  0  0  0  0  0  0  0  0  0  0  0
    6.8825  -19.6848   21.5148 C   0  0  0  0  0  0  0  0  0  0  0  0
    8.0837  -18.9188   21.1048 C   0  0  0  0  0  0  0  0  0  0  0  0
    9.0673  -19.5293   20.6629 O   0  0  0  0  0  0  0  0  0  0  0  0
    8.1140  -17.4922   21.2162 N   0  0  0  0  0  0  0  0  0  0  0  0
    9.3119  -16.7465   20.9271 C   0  0  1  0  0  0  0  0  0  0  0  0
    9.0274  -15.5131   20.1136 C   0  0  0  0  0  0  0  0  0  0  0  0
    8.0764  -14.6406   20.8452 C   0  0  0  0  0  0  0  0  0  0  0  0
    8.4450  -13.4036   21.3042 C   0  0  0  0  0  0  0  0  0  0  0  0
    7.5603  -12.6067   21.9763 C   0  0  0  0  0  0  0  0  0  0  0  0
    6.2644  -13.0789   22.1887 C   0  0  0  0  0  0  0  0  0  0  0  0
    5.9053  -14.3235   21.7229 C   0  0  0  0  0  0  0  0  0  0  0  0
    6.8026  -15.1138   21.0497 C   0  0  0  0  0  0  0  0  0  0  0  0
    9.9881  -16.3618   22.2058 C   0  0  0  0  0  0  0  0  0  0  0  0
   11.0994  -15.8047   22.1388 O   0  0  0  0  0  0  0  0  0  0  0  0
    9.4145  -16.6065   23.4718 N   0  0  0  0  0  0  0  0  0  0  0  0
   10.2489  -16.5395   24.6477 C   0  0  1  0  0  0  0  0  0  0  0  0
   10.0473  -15.3050   25.4315 C   0  0  0  0  0  0  0  0  0  0  0  0
    8.6535  -14.8656   25.6475 C   0  0  0  0  0  0  0  0  0  0  0  0
    7.5243  -15.6902   25.5182 C   0  0  0  0  0  0  0  0  0  0  0  0
    6.4262  -14.9660   25.7476 N   0  0  0  0  0  0  0  0  0  0  0  0
    6.7880  -13.7036   26.0220 C   0  0  0  0  0  0  0  0  0  0  0  0
    6.0684  -12.5516   26.3456 C   0  0  0  0  0  0  0  0  0  0  0  0
    6.7346  -11.3747   26.5995 C   0  0  0  0  0  0  0  0  0  0  0  0
    8.1062  -11.3040   26.5417 C   0  0  0  0  0  0  0  0  0  0  0  0
    8.8215  -12.4405   26.2214 C   0  0  0  0  0  0  0  0  0  0  0  0
    8.1531  -13.6277   25.9643 C   0  0  0  0  0  0  0  0  0  0  0  0
   10.3200  -17.8177   25.3672 C   0  0  0  0  0  0  0  0  0  0  0  0
   11.1714  -17.9497   26.2802 O   0  0  0  0  0  0  0  0  0  0  0  0
    9.5176  -18.9276   25.1313 O   0  0  0  0  0  0  0  0  0  0  0  0
  2  1  1  0
  3  2  1  0
  4  3  2  0
  5  3  1  0
  6  7  1  1
  6  5  1  0
  8  7  1  0
  9  8  2  0
 10  9  1  0
 11 12  1  0
 11 10  2  0
 12 13  2  0
 13  8  1  0
 14 15  2  0
 14  6  1  0
 16 14  1  0
 17 16  1  0
 17 18  1  1
 19 18  1  0
 20 19  2  0
 21 20  1  0
 22 21  1  0
 22 27  2  0
 23 22  1  0
 24 23  2  0
 24 25  1  0
 25 26  2  0
 26 27  1  0
 27 19  1  0
 28 30  1  0
 28 17  1  0
 29 28  2  0
M  END
$$$$
