GFW.pdb
     RDKit          3D

 30 32  0  0  1  0  0  0  0  0999 V2000
    9.5793  -18.9429   19.2568 N   0  0  0  0  0  0  0  0  0  0  0  0
    8.8357  -18.2794   20.2833 C   0  0  0  0  0  0  0  0  0  0  0  0
    9.7018  -17.2676   20.9344 C   0  0  0  0  0  0  0  0  0  0  0  0
   10.9134  -17.2532   20.6749 O   0  0  0  0  0  0  0  0  0  0  0  0
    9.1522  -16.3172   21.8526 N   0  0  0  0  0  0  0  0  0  0  0  0
    9.9872  -15.3424   22.5064 C   0  0  1  0  0  0  0  0  0  0  0  0
    9.3005  -14.0106   22.6429 C   0  0  0  0  0  0  0  0  0  0  0  0
    8.5586  -13.7009   21.3961 C   0  0  0  0  0  0  0  0  0  0  0  0
    7.2412  -13.3259   21.4195 C   0  0  0  0  0  0  0  0  0  0  0  0
    6.5668  -13.0414   20.2646 C   0  0  0  0  0  0  0  0  0  0  0  0
    7.2490  -13.1406   19.0513 C   0  0  0  0  0  0  0  0  0  0  0  0
    8.5727  -13.5184   19.0401 C   0  0  0  0  0  0  0  0  0  0  0  0
    9.2385  -13.8013   20.2062 C   0  0  0  0  0  0  0  0  0  0  0  0
   10.3856  -15.8448   23.8589 C   0  0  0  0  0  0  0  0  0  0  0  0
   11.4458  -15.4206   24.3549 O   0  0  0  0  0  0  0  0  0  0  0  0
    9.6083  -16.7734   24.5836 N   0  0  0  0  0  0  0  0  0  0  0  0
    9.9612  -17.0719   25.9510 C   0  0  1  0  0  0  0  0  0  0  0  0
    8.8288  -16.9255   26.8866 C   0  0  0  0  0  0  0  0  0  0  0  0
    7.7648  -15.9721   26.5108 C   0  0  0  0  0  0  0  0  0  0  0  0
    6.5320  -16.3307   25.9421 C   0  0  0  0  0  0  0  0  0  0  0  0
    5.8264  -15.2242   25.6957 N   0  0  0  0  0  0  0  0  0  0  0  0
    6.5438  -14.1573   26.0792 C   0  0  0  0  0  0  0  0  0  0  0  0
    6.2946  -12.7835   26.0682 C   0  0  0  0  0  0  0  0  0  0  0  0
    7.2387  -11.9106   26.5579 C   0  0  0  0  0  0  0  0  0  0  0  0
    8.4346  -12.3624   27.0633 C   0  0  0  0  0  0  0  0  0  0  0  0
    8.6854  -13.7199   27.0754 C   0  0  0  0  0  0  0  0  0  0  0  0
    7.7362  -14.6020   26.5819 C   0  0  0  0  0  0  0  0  0  0  0  0
   10.8145  -18.2610   26.0707 C   0  0  0  0  0  0  0  0  0  0  0  0
   11.2573  -18.5743   27.2028 O   0  0  0  0  0  0  0  0  0  0  0  0
   11.1928  -19.0970   25.0269 O   0  0  0  0  0  0  0  0  0  0  0  0
  2  1  1  0
  3  2  1  0
  4  3  2  0
  5  3  1  0
  6  7  1  1
  6  5  1  0
  8  7  1  0
  9  8  2  0
 10  9  1  0
 11 12  1  0
 11 10  2  0
 12 13  2  0
 13  8  1  0
 14 15  2  0
 14  6  1  0
 16 14  1  0
 17 16  1  0
 17 18  1  1
 19 18  1  0
 20 19  2  0
 21 20  1  0
 22 21  1  0
 22 27  2  0
 23 22  1  0
 24 23  2  0
 24 25  1  0
 25 26  2  0
 26 27  1  0
 27 19  1  0
 28 30  1  0
 28 17  1  0
 29 28  2  0
M  END
$$$$
