GFW.pdb
     RDKit          3D

 30 32  0  0  1  0  0  0  0  0999 V2000
   12.0573  -17.1797   18.0652 N   0  0  0  0  0  0  0  0  0  0  0  0
   11.2618  -17.7637   19.1011 C   0  0  0  0  0  0  0  0  0  0  0  0
   11.0106  -16.7487   20.1520 C   0  0  0  0  0  0  0  0  0  0  0  0
   11.7962  -15.7981   20.2734 O   0  0  0  0  0  0  0  0  0  0  0  0
    9.8775  -16.8597   21.0193 N   0  0  0  0  0  0  0  0  0  0  0  0
    9.5873  -15.8465   22.0011 C   0  0  1  0  0  0  0  0  0  0  0  0
    8.1206  -15.5151   22.0547 C   0  0  0  0  0  0  0  0  0  0  0  0
    7.7775  -14.5868   20.9495 C   0  0  0  0  0  0  0  0  0  0  0  0
    8.1840  -13.2786   20.9591 C   0  0  0  0  0  0  0  0  0  0  0  0
    7.8635  -12.4314   19.9348 C   0  0  0  0  0  0  0  0  0  0  0  0
    7.1087  -12.9262   18.8704 C   0  0  0  0  0  0  0  0  0  0  0  0
    6.7058  -14.2426   18.8717 C   0  0  0  0  0  0  0  0  0  0  0  0
    7.0340  -15.0828   19.9058 C   0  0  0  0  0  0  0  0  0  0  0  0
   10.0504  -16.3025   23.3494 C   0  0  0  0  0  0  0  0  0  0  0  0
   11.0246  -17.0755   23.4061 O   0  0  0  0  0  0  0  0  0  0  0  0
    9.4267  -15.8901   24.5463 N   0  0  0  0  0  0  0  0  0  0  0  0
    9.9510  -16.3525   25.8092 C   0  0  1  0  0  0  0  0  0  0  0  0
    9.4976  -15.5417   26.9564 C   0  0  0  0  0  0  0  0  0  0  0  0
    8.1714  -14.9006   26.8445 C   0  0  0  0  0  0  0  0  0  0  0  0
    6.9739  -15.5798   26.5681 C   0  0  0  0  0  0  0  0  0  0  0  0
    5.9755  -14.6955   26.5023 N   0  0  0  0  0  0  0  0  0  0  0  0
    6.4678  -13.4675   26.7243 C   0  0  0  0  0  0  0  0  0  0  0  0
    5.8844  -12.2004   26.7866 C   0  0  0  0  0  0  0  0  0  0  0  0
    6.6629  -11.0988   27.0580 C   0  0  0  0  0  0  0  0  0  0  0  0
    8.0158  -11.2158   27.2717 C   0  0  0  0  0  0  0  0  0  0  0  0
    8.5967  -12.4666   27.2104 C   0  0  0  0  0  0  0  0  0  0  0  0
    7.8151  -13.5785   26.9363 C   0  0  0  0  0  0  0  0  0  0  0  0
    9.9213  -17.8153   25.9350 C   0  0  0  0  0  0  0  0  0  0  0  0
    9.1711  -18.4715   25.1719 O   0  0  0  0  0  0  0  0  0  0  0  0
   10.6602  -18.5672   26.8406 O   0  0  0  0  0  0  0  0  0  0  0  0
  2  1  1  0
  3  2  1  0
  4  3  2  0
  5  3  1  0
  6  7  1  1
  6  5  1  0
  8  7  1  0
  9  8  2  0
 10  9  1  0
 11 12  1  0
 11 10  2  0
 12 13  2  0
 13  8  1  0
 14 15  2  0
 14  6  1  0
 16 14  1  0
 17 16  1  0
 17 18  1  1
 19 18  1  0
 20 19  2  0
 21 20  1  0
 22 21  1  0
 22 27  2  0
 23 22  1  0
 24 23  2  0
 24 25  1  0
 25 26  2  0
 26 27  1  0
 27 19  1  0
 28 30  1  0
 28 17  1  0
 29 28  2  0
M  END
$$$$
