GFW.pdb
     RDKit          3D

 30 32  0  0  1  0  0  0  0  0999 V2000
    9.3282  -19.2648   19.3038 N   0  0  0  0  0  0  0  0  0  0  0  0
    8.6530  -18.6697   20.4159 C   0  0  0  0  0  0  0  0  0  0  0  0
    9.4532  -17.5262   20.9155 C   0  0  0  0  0  0  0  0  0  0  0  0
   10.6357  -17.4164   20.5616 O   0  0  0  0  0  0  0  0  0  0  0  0
    8.8740  -16.5582   21.7963 N   0  0  0  0  0  0  0  0  0  0  0  0
    9.6635  -15.4906   22.3546 C   0  0  1  0  0  0  0  0  0  0  0  0
    8.8778  -14.2138   22.4824 C   0  0  0  0  0  0  0  0  0  0  0  0
    8.2738  -13.8657   21.1728 C   0  0  0  0  0  0  0  0  0  0  0  0
    8.9094  -13.0355   20.2876 C   0  0  0  0  0  0  0  0  0  0  0  0
    8.3446  -12.7219   19.0825 C   0  0  0  0  0  0  0  0  0  0  0  0
    7.0990  -13.2665   18.7670 C   0  0  0  0  0  0  0  0  0  0  0  0
    6.4698  -14.0995   19.6644 C   0  0  0  0  0  0  0  0  0  0  0  0
    7.0473  -14.4065   20.8707 C   0  0  0  0  0  0  0  0  0  0  0  0
   10.1856  -15.8974   23.6971 C   0  0  0  0  0  0  0  0  0  0  0  0
   11.1761  -15.2945   24.1502 O   0  0  0  0  0  0  0  0  0  0  0  0
    9.5990  -16.9304   24.4590 N   0  0  0  0  0  0  0  0  0  0  0  0
    9.9285  -17.0466   25.8595 C   0  0  1  0  0  0  0  0  0  0  0  0
    9.6126  -15.8289   26.6318 C   0  0  0  0  0  0  0  0  0  0  0  0
    8.1966  -15.4105   26.6783 C   0  0  0  0  0  0  0  0  0  0  0  0
    7.1004  -16.2734   26.5182 C   0  0  0  0  0  0  0  0  0  0  0  0
    5.9720  -15.5622   26.5803 N   0  0  0  0  0  0  0  0  0  0  0  0
    6.2824  -14.2716   26.7748 C   0  0  0  0  0  0  0  0  0  0  0  0
    5.5137  -13.1160   26.9278 C   0  0  0  0  0  0  0  0  0  0  0  0
    6.1305  -11.9041   27.1377 C   0  0  0  0  0  0  0  0  0  0  0  0
    7.4998  -11.8014   27.2011 C   0  0  0  0  0  0  0  0  0  0  0  0
    8.2636  -12.9414   27.0497 C   0  0  0  0  0  0  0  0  0  0  0  0
    7.6451  -14.1640   26.8373 C   0  0  0  0  0  0  0  0  0  0  0  0
    9.5514  -18.3480   26.4256 C   0  0  0  0  0  0  0  0  0  0  0  0
    8.7279  -19.0613   25.8022 O   0  0  0  0  0  0  0  0  0  0  0  0
   10.0270  -18.8835   27.6166 O   0  0  0  0  0  0  0  0  0  0  0  0
  2  1  1  0
  3  2  1  0
  4  3  2  0
  5  3  1  0
  6  7  1  1
  6  5  1  0
  8  7  1  0
  9  8  2  0
 10  9  1  0
 11 12  1  0
 11 10  2  0
 12 13  2  0
 13  8  1  0
 14 15  2  0
 14  6  1  0
 16 14  1  0
 17 16  1  0
 17 18  1  1
 19 18  1  0
 20 19  2  0
 21 20  1  0
 22 21  1  0
 22 27  2  0
 23 22  1  0
 24 23  2  0
 24 25  1  0
 25 26  2  0
 26 27  1  0
 27 19  1  0
 28 30  1  0
 28 17  1  0
 29 28  2  0
M  END
$$$$
