AQS.pdb
     RDKit          3D

 21 20  0  0  1  0  0  0  0  0999 V2000
    7.9047  -12.4446   19.5649 C   0  0  0  0  0  0  0  0  0  0  0  0
    8.2887  -13.6929   18.7951 C   0  0  2  0  0  0  0  0  0  0  0  0
    7.2938  -13.9221   17.7859 N   0  0  0  0  0  0  0  0  0  0  0  0
    8.4545  -14.8615   19.7093 C   0  0  0  0  0  0  0  0  0  0  0  0
    7.4654  -15.5665   19.9769 O   0  0  0  0  0  0  0  0  0  0  0  0
   12.6114  -19.3472   19.3627 N   0  0  0  0  0  0  0  0  0  0  0  0
   11.3197  -19.1143   18.8163 C   0  0  0  0  0  0  0  0  0  0  0  0
   10.9865  -19.8138   17.8435 O   0  0  0  0  0  0  0  0  0  0  0  0
   10.4361  -18.1004   19.3716 C   0  0  0  0  0  0  0  0  0  0  0  0
   10.9119  -17.2767   20.5104 C   0  0  0  0  0  0  0  0  0  0  0  0
   10.0189  -16.2943   21.1098 C   0  0  2  0  0  0  0  0  0  0  0  0
    9.7275  -15.1739   20.2739 N   0  0  0  0  0  0  0  0  0  0  0  0
   10.3085  -15.8823   22.5044 C   0  0  0  0  0  0  0  0  0  0  0  0
   11.1843  -15.0088   22.6948 O   0  0  0  0  0  0  0  0  0  0  0  0
    8.0085  -14.6881   24.8924 O   0  0  0  0  0  0  0  0  0  0  0  0
    8.5735  -15.7366   25.6127 C   0  0  0  0  0  0  0  0  0  0  0  0
    9.8939  -16.0767   24.9140 C   0  0  2  0  0  0  0  0  0  0  0  0
    9.5888  -16.4855   23.5766 N   0  0  0  0  0  0  0  0  0  0  0  0
   10.4902  -17.1958   25.6807 C   0  0  0  0  0  0  0  0  0  0  0  0
   10.8550  -17.0350   27.0078 O   0  0  0  0  0  0  0  0  0  0  0  0
   10.6799  -18.3158   25.1496 O   0  0  0  0  0  0  0  0  0  0  0  0
  2  1  1  1
  3  2  1  0
  4  2  1  0
  4 12  1  0
  5  4  2  0
  6  7  1  0
  7  8  2  0
  9 10  1  0
  9  7  1  0
 11 10  1  6
 11 12  1  0
 11 13  1  0
 13 14  2  0
 13 18  1  0
 15 16  1  0
 17 16  1  1
 17 19  1  0
 18 17  1  0
 19 21  2  0
 19 20  1  0
M  END
$$$$
