AQS.pdb
     RDKit          3D

 21 20  0  0  1  0  0  0  0  0999 V2000
    9.5079  -14.7579   14.7506 C   0  0  0  0  0  0  0  0  0  0  0  0
    8.6234  -14.6054   15.9723 C   0  0  2  0  0  0  0  0  0  0  0  0
    8.1042  -13.2671   15.9868 N   0  0  0  0  0  0  0  0  0  0  0  0
    9.3662  -14.9432   17.2224 C   0  0  0  0  0  0  0  0  0  0  0  0
    9.9718  -14.0424   17.8297 O   0  0  0  0  0  0  0  0  0  0  0  0
    9.8939  -18.6439   22.2352 N   0  0  0  0  0  0  0  0  0  0  0  0
    8.6082  -18.3898   21.6839 C   0  0  0  0  0  0  0  0  0  0  0  0
    7.6394  -18.4624   22.4602 O   0  0  0  0  0  0  0  0  0  0  0  0
    8.4410  -18.0650   20.2755 C   0  0  0  0  0  0  0  0  0  0  0  0
    9.6394  -18.0107   19.4022 C   0  0  0  0  0  0  0  0  0  0  0  0
   10.0917  -16.7279   18.8810 C   0  0  2  0  0  0  0  0  0  0  0  0
    9.3872  -16.2798   17.7226 N   0  0  0  0  0  0  0  0  0  0  0  0
   11.5554  -16.5328   18.7468 C   0  0  0  0  0  0  0  0  0  0  0  0
   12.1496  -17.1238   17.8173 O   0  0  0  0  0  0  0  0  0  0  0  0
   13.8691  -13.8667   18.0160 O   0  0  0  0  0  0  0  0  0  0  0  0
   14.0253  -14.1212   19.3755 C   0  0  0  0  0  0  0  0  0  0  0  0
   13.6624  -15.5953   19.5820 C   0  0  2  0  0  0  0  0  0  0  0  0
   12.2366  -15.6869   19.6698 N   0  0  0  0  0  0  0  0  0  0  0  0
   14.2931  -16.0003   20.8603 C   0  0  0  0  0  0  0  0  0  0  0  0
   15.6716  -16.0166   21.0004 O   0  0  0  0  0  0  0  0  0  0  0  0
   13.5970  -16.3382   21.8471 O   0  0  0  0  0  0  0  0  0  0  0  0
  2  1  1  6
  3  2  1  0
  4  2  1  0
  4 12  1  0
  5  4  2  0
  6  7  1  0
  7  8  2  0
  9 10  1  0
  9  7  1  0
 11 10  1  6
 11 12  1  0
 11 13  1  0
 13 14  2  0
 13 18  1  0
 15 16  1  0
 17 16  1  1
 17 19  1  0
 18 17  1  0
 19 21  2  0
 19 20  1  0
M  END
$$$$
