AQS.pdb
     RDKit          3D

 21 20  0  0  1  0  0  0  0  0999 V2000
    3.1724  -19.7662   18.4128 C   0  0  0  0  0  0  0  0  0  0  0  0
    3.6407  -19.6185   19.8471 C   0  0  2  0  0  0  0  0  0  0  0  0
    2.6803  -18.8185   20.5531 N   0  0  0  0  0  0  0  0  0  0  0  0
    5.0176  -19.0449   19.9092 C   0  0  0  0  0  0  0  0  0  0  0  0
    5.9622  -19.6811   19.4092 O   0  0  0  0  0  0  0  0  0  0  0  0
    6.6023  -13.0286   19.1093 N   0  0  0  0  0  0  0  0  0  0  0  0
    7.7719  -13.5971   19.6841 C   0  0  0  0  0  0  0  0  0  0  0  0
    8.7912  -12.8849   19.7045 O   0  0  0  0  0  0  0  0  0  0  0  0
    7.7701  -14.9508   20.2174 C   0  0  0  0  0  0  0  0  0  0  0  0
    6.5219  -15.7501   20.1478 C   0  0  0  0  0  0  0  0  0  0  0  0
    6.5209  -17.1252   20.6283 C   0  0  2  0  0  0  0  0  0  0  0  0
    5.2574  -17.7833   20.5321 N   0  0  0  0  0  0  0  0  0  0  0  0
    7.1810  -17.3849   21.9303 C   0  0  0  0  0  0  0  0  0  0  0  0
    6.5181  -17.2078   22.9770 O   0  0  0  0  0  0  0  0  0  0  0  0
   10.1881  -19.8745   24.3859 O   0  0  0  0  0  0  0  0  0  0  0  0
    9.5455  -19.6186   23.1781 C   0  0  0  0  0  0  0  0  0  0  0  0
    9.1254  -18.1457   23.2174 C   0  0  2  0  0  0  0  0  0  0  0  0
    8.5366  -17.8246   21.9528 N   0  0  0  0  0  0  0  0  0  0  0  0
   10.3686  -17.3676   23.4292 C   0  0  0  0  0  0  0  0  0  0  0  0
   11.0591  -17.4413   24.6283 O   0  0  0  0  0  0  0  0  0  0  0  0
   10.8275  -16.6233   22.5303 O   0  0  0  0  0  0  0  0  0  0  0  0
  2  1  1  6
  3  2  1  0
  4  2  1  0
  4 12  1  0
  5  4  2  0
  6  7  1  0
  7  8  2  0
  9 10  1  0
  9  7  1  0
 11 10  1  1
 11 12  1  0
 11 13  1  0
 13 14  2  0
 13 18  1  0
 15 16  1  0
 17 16  1  6
 17 19  1  0
 18 17  1  0
 19 21  2  0
 19 20  1  0
M  END
$$$$
