AQS.pdb
     RDKit          3D

 21 20  0  0  1  0  0  0  0  0999 V2000
    6.3399  -15.5288   19.6022 C   0  0  0  0  0  0  0  0  0  0  0  0
    7.6105  -15.5452   20.4290 C   0  0  2  0  0  0  0  0  0  0  0  0
    8.3076  -16.7703   20.1571 N   0  0  0  0  0  0  0  0  0  0  0  0
    7.3122  -15.3680   21.8810 C   0  0  0  0  0  0  0  0  0  0  0  0
    6.7011  -14.3511   22.2545 O   0  0  0  0  0  0  0  0  0  0  0  0
    8.0802  -20.1262   26.2983 N   0  0  0  0  0  0  0  0  0  0  0  0
    7.5666  -19.0091   27.0122 C   0  0  0  0  0  0  0  0  0  0  0  0
    7.3441  -19.1711   28.2249 O   0  0  0  0  0  0  0  0  0  0  0  0
    7.3115  -17.7401   26.3475 C   0  0  0  0  0  0  0  0  0  0  0  0
    7.5595  -17.6292   24.8887 C   0  0  0  0  0  0  0  0  0  0  0  0
    7.3985  -16.3412   24.2278 C   0  0  2  0  0  0  0  0  0  0  0  0
    7.7188  -16.3474   22.8363 N   0  0  0  0  0  0  0  0  0  0  0  0
    7.9588  -15.1545   24.9181 C   0  0  0  0  0  0  0  0  0  0  0  0
    9.1701  -14.8882   24.7506 O   0  0  0  0  0  0  0  0  0  0  0  0
    5.8521  -11.9517   25.7010 O   0  0  0  0  0  0  0  0  0  0  0  0
    6.5312  -12.3205   26.8587 C   0  0  0  0  0  0  0  0  0  0  0  0
    7.6810  -13.2294   26.4124 C   0  0  2  0  0  0  0  0  0  0  0  0
    7.1112  -14.3593   25.7432 N   0  0  0  0  0  0  0  0  0  0  0  0
    8.3784  -13.6504   27.6501 C   0  0  0  0  0  0  0  0  0  0  0  0
    9.0023  -12.7211   28.4670 O   0  0  0  0  0  0  0  0  0  0  0  0
    8.4223  -14.8567   27.9901 O   0  0  0  0  0  0  0  0  0  0  0  0
  2  1  1  6
  3  2  1  0
  4  2  1  0
  4 12  1  0
  5  4  2  0
  6  7  1  0
  7  8  2  0
  9 10  1  0
  9  7  1  0
 11 10  1  1
 11 12  1  0
 11 13  1  0
 13 14  2  0
 13 18  1  0
 15 16  1  0
 17 16  1  1
 17 19  1  0
 18 17  1  0
 19 21  2  0
 19 20  1  0
M  END
$$$$
