AQS.pdb
     RDKit          3D

 21 20  0  0  1  0  0  0  0  0999 V2000
    8.1436  -12.1120   19.7412 C   0  0  0  0  0  0  0  0  0  0  0  0
    8.5196  -13.1212   18.6742 C   0  0  2  0  0  0  0  0  0  0  0  0
    7.3222  -13.5175   17.9887 N   0  0  0  0  0  0  0  0  0  0  0  0
    9.2515  -14.2818   19.2626 C   0  0  0  0  0  0  0  0  0  0  0  0
    8.6029  -15.2503   19.6964 O   0  0  0  0  0  0  0  0  0  0  0  0
   15.7948  -15.7501   18.6369 N   0  0  0  0  0  0  0  0  0  0  0  0
   14.9599  -14.6426   18.3241 C   0  0  0  0  0  0  0  0  0  0  0  0
   15.3585  -13.8723   17.4328 O   0  0  0  0  0  0  0  0  0  0  0  0
   13.7016  -14.4245   19.0213 C   0  0  0  0  0  0  0  0  0  0  0  0
   12.7406  -15.5488   19.1405 C   0  0  0  0  0  0  0  0  0  0  0  0
   11.4835  -15.3482   19.8483 C   0  0  2  0  0  0  0  0  0  0  0  0
   10.6771  -14.2894   19.3310 N   0  0  0  0  0  0  0  0  0  0  0  0
   11.5400  -15.3258   21.3298 C   0  0  0  0  0  0  0  0  0  0  0  0
   11.9843  -14.2991   21.8908 O   0  0  0  0  0  0  0  0  0  0  0  0
    9.8184  -16.7937   25.3976 O   0  0  0  0  0  0  0  0  0  0  0  0
    9.8130  -16.9922   24.0199 C   0  0  0  0  0  0  0  0  0  0  0  0
   11.1256  -16.4018   23.4947 C   0  0  2  0  0  0  0  0  0  0  0  0
   11.0912  -16.4615   22.0649 N   0  0  0  0  0  0  0  0  0  0  0  0
   12.2077  -17.2615   24.0291 C   0  0  0  0  0  0  0  0  0  0  0  0
   12.9654  -18.0589   23.1863 O   0  0  0  0  0  0  0  0  0  0  0  0
   12.4657  -17.2900   25.2560 O   0  0  0  0  0  0  0  0  0  0  0  0
  2  1  1  1
  3  2  1  0
  4  2  1  0
  4 12  1  0
  5  4  2  0
  6  7  1  0
  7  8  2  0
  9 10  1  0
  9  7  1  0
 11 10  1  6
 11 12  1  0
 11 13  1  0
 13 14  2  0
 13 18  1  0
 15 16  1  0
 17 16  1  1
 17 19  1  0
 18 17  1  0
 19 21  2  0
 19 20  1  0
M  END
$$$$
