AQS.pdb
     RDKit          3D

 21 20  0  0  1  0  0  0  0  0999 V2000
    7.4840  -18.1364   19.4891 C   0  0  0  0  0  0  0  0  0  0  0  0
    8.6033  -18.0616   20.5088 C   0  0  2  0  0  0  0  0  0  0  0  0
    9.1869  -19.3673   20.6319 N   0  0  0  0  0  0  0  0  0  0  0  0
    8.1100  -17.5312   21.8142 C   0  0  0  0  0  0  0  0  0  0  0  0
    7.6197  -16.3889   21.8578 O   0  0  0  0  0  0  0  0  0  0  0  0
    7.7150  -20.6343   28.1271 N   0  0  0  0  0  0  0  0  0  0  0  0
    6.6580  -20.0448   27.3811 C   0  0  0  0  0  0  0  0  0  0  0  0
    5.5325  -20.5608   27.4970 O   0  0  0  0  0  0  0  0  0  0  0  0
    6.8906  -18.8946   26.5208 C   0  0  0  0  0  0  0  0  0  0  0  0
    7.3353  -19.1195   25.1231 C   0  0  0  0  0  0  0  0  0  0  0  0
    7.6364  -17.9767   24.2717 C   0  0  2  0  0  0  0  0  0  0  0  0
    8.1954  -18.3170   23.0026 N   0  0  0  0  0  0  0  0  0  0  0  0
    8.3462  -16.8364   24.8997 C   0  0  0  0  0  0  0  0  0  0  0  0
    9.5976  -16.8357   24.8840 O   0  0  0  0  0  0  0  0  0  0  0  0
    7.9868  -12.5850   27.0575 O   0  0  0  0  0  0  0  0  0  0  0  0
    7.2672  -13.6899   26.6118 C   0  0  0  0  0  0  0  0  0  0  0  0
    8.3010  -14.7022   26.1078 C   0  0  2  0  0  0  0  0  0  0  0  0
    7.5915  -15.7848   25.4966 N   0  0  0  0  0  0  0  0  0  0  0  0
    9.0390  -15.1690   27.3049 C   0  0  0  0  0  0  0  0  0  0  0  0
    8.6745  -16.3370   27.9555 O   0  0  0  0  0  0  0  0  0  0  0  0
   10.0110  -14.5205   27.7600 O   0  0  0  0  0  0  0  0  0  0  0  0
  2  1  1  6
  3  2  1  0
  4  2  1  0
  4 12  1  0
  5  4  2  0
  6  7  1  0
  7  8  2  0
  9 10  1  0
  9  7  1  0
 11 10  1  1
 11 12  1  0
 11 13  1  0
 13 14  2  0
 13 18  1  0
 15 16  1  0
 17 16  1  1
 17 19  1  0
 18 17  1  0
 19 21  2  0
 19 20  1  0
M  END
$$$$
