AQS.pdb
     RDKit          3D

 21 20  0  0  1  0  0  0  0  0999 V2000
    7.9644  -12.4084   19.6774 C   0  0  0  0  0  0  0  0  0  0  0  0
    8.0691  -13.8925   19.3858 C   0  0  2  0  0  0  0  0  0  0  0  0
    6.9652  -14.2643   18.5468 N   0  0  0  0  0  0  0  0  0  0  0  0
    8.1207  -14.6885   20.6478 C   0  0  0  0  0  0  0  0  0  0  0  0
    7.0570  -14.9950   21.2148 O   0  0  0  0  0  0  0  0  0  0  0  0
   10.5820  -18.3819   18.7999 N   0  0  0  0  0  0  0  0  0  0  0  0
   10.9460  -18.6306   20.1516 C   0  0  0  0  0  0  0  0  0  0  0  0
   12.0264  -19.2156   20.3441 O   0  0  0  0  0  0  0  0  0  0  0  0
   10.0877  -18.2210   21.2527 C   0  0  0  0  0  0  0  0  0  0  0  0
   10.4894  -17.0599   22.0848 C   0  0  0  0  0  0  0  0  0  0  0  0
    9.5415  -15.9781   22.3151 C   0  0  2  0  0  0  0  0  0  0  0  0
    9.3697  -15.0973   21.2044 N   0  0  0  0  0  0  0  0  0  0  0  0
    9.6616  -15.2373   23.5939 C   0  0  0  0  0  0  0  0  0  0  0  0
   10.5560  -14.3675   23.6935 O   0  0  0  0  0  0  0  0  0  0  0  0
    7.1748  -13.4703   25.4726 O   0  0  0  0  0  0  0  0  0  0  0  0
    7.6240  -14.3809   26.4246 C   0  0  0  0  0  0  0  0  0  0  0  0
    8.9782  -14.8941   25.9244 C   0  0  2  0  0  0  0  0  0  0  0  0
    8.7646  -15.5330   24.6614 N   0  0  0  0  0  0  0  0  0  0  0  0
    9.4471  -15.8723   26.9337 C   0  0  0  0  0  0  0  0  0  0  0  0
    9.6920  -15.4844   28.2413 O   0  0  0  0  0  0  0  0  0  0  0  0
    9.6343  -17.0749   26.6316 O   0  0  0  0  0  0  0  0  0  0  0  0
  2  1  1  1
  3  2  1  0
  4  2  1  0
  4 12  1  0
  5  4  2  0
  6  7  1  0
  7  8  2  0
  9 10  1  0
  9  7  1  0
 11 10  1  6
 11 12  1  0
 11 13  1  0
 13 14  2  0
 13 18  1  0
 15 16  1  0
 17 16  1  1
 17 19  1  0
 18 17  1  0
 19 21  2  0
 19 20  1  0
M  END
$$$$
