AQS.pdb
     RDKit          3D

 21 20  0  0  1  0  0  0  0  0999 V2000
    8.5011  -12.6479   20.0821 C   0  0  0  0  0  0  0  0  0  0  0  0
    7.9828  -14.0711   20.1468 C   0  0  2  0  0  0  0  0  0  0  0  0
    6.9381  -14.2133   19.1726 N   0  0  0  0  0  0  0  0  0  0  0  0
    7.5286  -14.4182   21.5260 C   0  0  0  0  0  0  0  0  0  0  0  0
    6.5078  -13.8739   21.9828 O   0  0  0  0  0  0  0  0  0  0  0  0
    6.6366  -20.0619   23.6863 N   0  0  0  0  0  0  0  0  0  0  0  0
    5.8070  -19.0966   23.0527 C   0  0  0  0  0  0  0  0  0  0  0  0
    4.7363  -19.5057   22.5703 O   0  0  0  0  0  0  0  0  0  0  0  0
    6.2008  -17.6982   22.9723 C   0  0  0  0  0  0  0  0  0  0  0  0
    7.4791  -17.2736   23.5949 C   0  0  0  0  0  0  0  0  0  0  0  0
    7.8468  -15.8642   23.5924 C   0  0  2  0  0  0  0  0  0  0  0  0
    8.2497  -15.3614   22.3181 N   0  0  0  0  0  0  0  0  0  0  0  0
    8.7434  -15.3994   24.6779 C   0  0  0  0  0  0  0  0  0  0  0  0
    9.9762  -15.3836   24.4628 O   0  0  0  0  0  0  0  0  0  0  0  0
    9.2083  -13.2316   28.8740 O   0  0  0  0  0  0  0  0  0  0  0  0
    8.3006  -13.6508   27.9057 C   0  0  0  0  0  0  0  0  0  0  0  0
    9.0721  -14.5853   26.9682 C   0  0  2  0  0  0  0  0  0  0  0  0
    8.1821  -14.9877   25.9217 N   0  0  0  0  0  0  0  0  0  0  0  0
    9.4768  -15.7509   27.7888 C   0  0  0  0  0  0  0  0  0  0  0  0
   10.5595  -15.6737   28.6502 O   0  0  0  0  0  0  0  0  0  0  0  0
    8.8511  -16.8358   27.7254 O   0  0  0  0  0  0  0  0  0  0  0  0
  2  1  1  1
  3  2  1  0
  4  2  1  0
  4 12  1  0
  5  4  2  0
  6  7  1  0
  7  8  2  0
  9 10  1  0
  9  7  1  0
 11 10  1  6
 11 12  1  0
 11 13  1  0
 13 14  2  0
 13 18  1  0
 15 16  1  0
 17 16  1  1
 17 19  1  0
 18 17  1  0
 19 21  2  0
 19 20  1  0
M  END
$$$$
