AQS.pdb
     RDKit          3D

 21 20  0  0  1  0  0  0  0  0999 V2000
    7.5891  -12.9989   19.0621 C   0  0  0  0  0  0  0  0  0  0  0  0
    8.5301  -13.6410   20.0623 C   0  0  2  0  0  0  0  0  0  0  0  0
    8.9707  -14.8963   19.5229 N   0  0  0  0  0  0  0  0  0  0  0  0
    7.8789  -13.7903   21.3975 C   0  0  0  0  0  0  0  0  0  0  0  0
    7.4773  -12.7748   21.9927 O   0  0  0  0  0  0  0  0  0  0  0  0
    6.2969  -18.7230   25.5322 N   0  0  0  0  0  0  0  0  0  0  0  0
    7.4854  -18.7335   24.7521 C   0  0  0  0  0  0  0  0  0  0  0  0
    8.3447  -19.5822   25.0483 O   0  0  0  0  0  0  0  0  0  0  0  0
    7.6822  -17.7895   23.6625 C   0  0  0  0  0  0  0  0  0  0  0  0
    6.6812  -16.7145   23.4521 C   0  0  0  0  0  0  0  0  0  0  0  0
    7.1293  -15.3410   23.2671 C   0  0  2  0  0  0  0  0  0  0  0  0
    7.7148  -15.0776   21.9917 N   0  0  0  0  0  0  0  0  0  0  0  0
    7.9117  -14.7327   24.3700 C   0  0  0  0  0  0  0  0  0  0  0  0
    9.1606  -14.7488   24.2900 O   0  0  0  0  0  0  0  0  0  0  0  0
    6.5056  -11.6879   26.2976 O   0  0  0  0  0  0  0  0  0  0  0  0
    7.0616  -12.5437   27.2440 C   0  0  0  0  0  0  0  0  0  0  0  0
    8.0000  -13.4817   26.4779 C   0  0  2  0  0  0  0  0  0  0  0  0
    7.2270  -14.1529   25.4774 N   0  0  0  0  0  0  0  0  0  0  0  0
    8.5207  -14.4479   27.4734 C   0  0  0  0  0  0  0  0  0  0  0  0
    9.3277  -14.0280   28.5187 O   0  0  0  0  0  0  0  0  0  0  0  0
    8.2452  -15.6688   27.3961 O   0  0  0  0  0  0  0  0  0  0  0  0
  2  1  1  6
  3  2  1  0
  4  2  1  0
  4 12  1  0
  5  4  2  0
  6  7  1  0
  7  8  2  0
  9 10  1  0
  9  7  1  0
 11 10  1  1
 11 12  1  0
 11 13  1  0
 13 14  2  0
 13 18  1  0
 15 16  1  0
 17 16  1  1
 17 19  1  0
 18 17  1  0
 19 21  2  0
 19 20  1  0
M  END
$$$$
