AQS.pdb
     RDKit          3D

 21 20  0  0  1  0  0  0  0  0999 V2000
    7.1648  -12.7992   18.6537 C   0  0  0  0  0  0  0  0  0  0  0  0
    8.5701  -13.2179   19.0388 C   0  0  2  0  0  0  0  0  0  0  0  0
    9.2438  -13.6717   17.8552 N   0  0  0  0  0  0  0  0  0  0  0  0
    8.5495  -14.2513   20.1160 C   0  0  0  0  0  0  0  0  0  0  0  0
    7.9932  -13.9889   21.1970 O   0  0  0  0  0  0  0  0  0  0  0  0
    7.7013  -19.3173   16.9399 N   0  0  0  0  0  0  0  0  0  0  0  0
    8.5734  -18.9994   18.0169 C   0  0  0  0  0  0  0  0  0  0  0  0
    9.7106  -19.5019   17.9864 O   0  0  0  0  0  0  0  0  0  0  0  0
    8.1471  -18.1297   19.1027 C   0  0  0  0  0  0  0  0  0  0  0  0
    9.0537  -17.9257   20.2596 C   0  0  0  0  0  0  0  0  0  0  0  0
    9.1701  -16.6024   20.8571 C   0  0  2  0  0  0  0  0  0  0  0  0
    9.1578  -15.5272   19.9177 N   0  0  0  0  0  0  0  0  0  0  0  0
   10.2163  -16.4195   21.8918 C   0  0  0  0  0  0  0  0  0  0  0  0
   11.3367  -15.9923   21.5332 O   0  0  0  0  0  0  0  0  0  0  0  0
   11.3337  -16.2646   26.5117 O   0  0  0  0  0  0  0  0  0  0  0  0
   10.3007  -16.4619   25.5999 C   0  0  0  0  0  0  0  0  0  0  0  0
   10.9603  -16.5889   24.2229 C   0  0  2  0  0  0  0  0  0  0  0  0
    9.9196  -16.7315   23.2505 N   0  0  0  0  0  0  0  0  0  0  0  0
   11.7974  -17.8103   24.2774 C   0  0  0  0  0  0  0  0  0  0  0  0
   13.0426  -17.7936   24.8851 O   0  0  0  0  0  0  0  0  0  0  0  0
   11.4016  -18.8894   23.7759 O   0  0  0  0  0  0  0  0  0  0  0  0
  2  1  1  6
  3  2  1  0
  4  2  1  0
  4 12  1  0
  5  4  2  0
  6  7  1  0
  7  8  2  0
  9 10  1  0
  9  7  1  0
 11 10  1  6
 11 12  1  0
 11 13  1  0
 13 14  2  0
 13 18  1  0
 15 16  1  0
 17 16  1  1
 17 19  1  0
 18 17  1  0
 19 21  2  0
 19 20  1  0
M  END
$$$$
