KMK.pdb
     RDKit          3D

 27 26  0  0  1  0  0  0  0  0999 V2000
    7.8026  -17.1778   21.0748 N   0  0  0  0  0  0  0  0  0  0  0  0
    9.2248  -17.2104   21.3670 C   0  0  1  0  0  0  0  0  0  0  0  0
    9.9494  -16.4671   20.2062 C   0  0  0  0  0  0  0  0  0  0  0  0
   10.4612  -17.4956   19.2399 C   0  0  0  0  0  0  0  0  0  0  0  0
   11.4344  -17.0007   18.2237 C   0  0  0  0  0  0  0  0  0  0  0  0
   11.8480  -17.9422   17.1637 C   0  0  0  0  0  0  0  0  0  0  0  0
   12.7668  -17.3845   16.2090 N   0  0  0  0  0  0  0  0  0  0  0  0
    9.5266  -16.4524   22.6170 C   0  0  0  0  0  0  0  0  0  0  0  0
   10.7299  -16.3662   23.0537 O   0  0  0  0  0  0  0  0  0  0  0  0
    7.2543  -10.6596   25.2110 C   0  0  0  0  0  0  0  0  0  0  0  0
    6.4441  -12.0015   26.1545 S   0  0  0  0  0  0  0  0  0  0  0  0
    7.5554  -13.4694   26.1510 C   0  0  0  0  0  0  0  0  0  0  0  0
    7.4173  -14.1561   24.7943 C   0  0  0  0  0  0  0  0  0  0  0  0
    8.5220  -15.1911   24.5999 C   0  0  2  0  0  0  0  0  0  0  0  0
    8.4803  -15.8257   23.3112 N   0  0  0  0  0  0  0  0  0  0  0  0
    8.6426  -16.1644   25.6615 C   0  0  0  0  0  0  0  0  0  0  0  0
    7.8140  -17.0607   25.9562 O   0  0  0  0  0  0  0  0  0  0  0  0
    9.8085  -16.1317   26.4688 N   0  0  0  0  0  0  0  0  0  0  0  0
   10.0419  -17.2839   27.4305 C   0  0  1  0  0  0  0  0  0  0  0  0
   11.3008  -17.8964   26.9054 C   0  0  0  0  0  0  0  0  0  0  0  0
   11.6095  -19.3006   26.9324 C   0  0  0  0  0  0  0  0  0  0  0  0
   12.8561  -19.8028   26.3034 C   0  0  0  0  0  0  0  0  0  0  0  0
   12.8724  -21.3324   26.5594 C   0  0  0  0  0  0  0  0  0  0  0  0
   14.0877  -21.8381   25.9623 N   0  0  0  0  0  0  0  0  0  0  0  0
   10.2323  -16.5834   28.7081 C   0  0  0  0  0  0  0  0  0  0  0  0
   10.1555  -17.3230   29.9245 O   0  0  0  0  0  0  0  0  0  0  0  0
   10.4597  -15.3397   28.8289 O   0  0  0  0  0  0  0  0  0  0  0  0
  2  1  1  6
  2  8  1  0
  2  3  1  0
  3  4  1  0
  4  5  1  0
  5  6  1  0
  6  7  1  0
  8 15  1  0
  9  8  2  0
 10 11  1  0
 11 12  1  0
 14 13  1  1
 13 12  1  0
 15 14  1  0
 16 14  1  0
 16 17  2  0
 18 16  1  0
 19 18  1  0
 19 25  1  0
 19 20  1  6
 21 20  1  0
 21 22  1  0
 23 24  1  0
 23 22  1  0
 25 26  1  0
 27 25  2  0
M  END
$$$$
