KMK.pdb
     RDKit          3D

 27 26  0  0  1  0  0  0  0  0999 V2000
    7.9327  -18.7675   19.1598 N   0  0  0  0  0  0  0  0  0  0  0  0
    9.3766  -18.7315   19.0071 C   0  0  1  0  0  0  0  0  0  0  0  0
    9.6729  -18.4952   17.4966 C   0  0  0  0  0  0  0  0  0  0  0  0
    8.4010  -18.7163   16.7305 C   0  0  0  0  0  0  0  0  0  0  0  0
    8.5188  -18.6400   15.2456 C   0  0  0  0  0  0  0  0  0  0  0  0
    7.2996  -18.8975   14.4530 C   0  0  0  0  0  0  0  0  0  0  0  0
    7.5159  -18.9139   13.0319 N   0  0  0  0  0  0  0  0  0  0  0  0
    9.9589  -17.5724   19.7456 C   0  0  0  0  0  0  0  0  0  0  0  0
   11.2271  -17.3787   19.7608 O   0  0  0  0  0  0  0  0  0  0  0  0
    7.4902  -11.3574   21.0591 C   0  0  0  0  0  0  0  0  0  0  0  0
    6.8373  -12.7099   20.0142 S   0  0  0  0  0  0  0  0  0  0  0  0
    8.1137  -14.0326   19.9085 C   0  0  0  0  0  0  0  0  0  0  0  0
    8.4333  -14.4876   21.3304 C   0  0  0  0  0  0  0  0  0  0  0  0
    9.4567  -15.6197   21.3162 C   0  0  2  0  0  0  0  0  0  0  0  0
    9.1046  -16.6876   20.4213 N   0  0  0  0  0  0  0  0  0  0  0  0
    9.8279  -16.1257   22.6182 C   0  0  0  0  0  0  0  0  0  0  0  0
    9.0585  -16.6182   23.4797 O   0  0  0  0  0  0  0  0  0  0  0  0
   11.1965  -16.0784   22.9883 N   0  0  0  0  0  0  0  0  0  0  0  0
   11.5911  -16.6601   24.3346 C   0  0  1  0  0  0  0  0  0  0  0  0
   11.4373  -18.1306   24.1116 C   0  0  0  0  0  0  0  0  0  0  0  0
   11.7067  -19.1470   25.0926 C   0  0  0  0  0  0  0  0  0  0  0  0
   11.4745  -20.5764   24.7690 C   0  0  0  0  0  0  0  0  0  0  0  0
   11.8159  -21.3633   26.0612 C   0  0  0  0  0  0  0  0  0  0  0  0
   11.6081  -22.7617   25.7602 N   0  0  0  0  0  0  0  0  0  0  0  0
   12.9942  -16.2395   24.4512 C   0  0  0  0  0  0  0  0  0  0  0  0
   13.6550  -15.6992   23.3093 O   0  0  0  0  0  0  0  0  0  0  0  0
   13.6932  -16.3228   25.5084 O   0  0  0  0  0  0  0  0  0  0  0  0
  2  1  1  6
  2  8  1  0
  2  3  1  0
  3  4  1  0
  4  5  1  0
  5  6  1  0
  6  7  1  0
  8 15  1  0
  9  8  2  0
 10 11  1  0
 11 12  1  0
 14 13  1  1
 13 12  1  0
 15 14  1  0
 16 14  1  0
 16 17  2  0
 18 16  1  0
 19 18  1  0
 19 25  1  0
 19 20  1  6
 21 20  1  0
 21 22  1  0
 23 24  1  0
 23 22  1  0
 25 26  1  0
 27 25  2  0
M  END
$$$$
