KMK.pdb
     RDKit          3D

 27 26  0  0  1  0  0  0  0  0999 V2000
    8.7685  -15.3893   19.7113 N   0  0  0  0  0  0  0  0  0  0  0  0
    7.8861  -15.7117   20.8189 C   0  0  1  0  0  0  0  0  0  0  0  0
    7.5636  -17.2321   20.7217 C   0  0  0  0  0  0  0  0  0  0  0  0
    6.8167  -17.4707   19.4415 C   0  0  0  0  0  0  0  0  0  0  0  0
    6.2980  -18.8550   19.2437 C   0  0  0  0  0  0  0  0  0  0  0  0
    5.6114  -19.1479   17.9693 C   0  0  0  0  0  0  0  0  0  0  0  0
    5.1059  -20.4900   17.8699 N   0  0  0  0  0  0  0  0  0  0  0  0
    8.5768  -15.5017   22.1253 C   0  0  0  0  0  0  0  0  0  0  0  0
    9.8216  -15.7825   22.2581 O   0  0  0  0  0  0  0  0  0  0  0  0
    5.7864  -11.5294   27.1322 C   0  0  0  0  0  0  0  0  0  0  0  0
    7.4562  -11.4063   26.3948 S   0  0  0  0  0  0  0  0  0  0  0  0
    7.5246  -12.5063   24.9201 C   0  0  0  0  0  0  0  0  0  0  0  0
    7.3787  -13.9467   25.4050 C   0  0  0  0  0  0  0  0  0  0  0  0
    8.2622  -14.8829   24.5850 C   0  0  2  0  0  0  0  0  0  0  0  0
    7.8529  -14.9861   23.2113 N   0  0  0  0  0  0  0  0  0  0  0  0
    8.4787  -16.1874   25.1684 C   0  0  0  0  0  0  0  0  0  0  0  0
    7.6152  -17.0802   25.3529 O   0  0  0  0  0  0  0  0  0  0  0  0
    9.7931  -16.5249   25.5816 N   0  0  0  0  0  0  0  0  0  0  0  0
   10.0432  -17.9384   26.0777 C   0  0  1  0  0  0  0  0  0  0  0  0
   11.2929  -18.3219   25.3518 C   0  0  0  0  0  0  0  0  0  0  0  0
   11.3591  -18.7036   23.9669 C   0  0  0  0  0  0  0  0  0  0  0  0
   12.6682  -19.0105   23.3393 C   0  0  0  0  0  0  0  0  0  0  0  0
   12.3488  -19.4404   21.8837 C   0  0  0  0  0  0  0  0  0  0  0  0
   13.6193  -19.6293   21.2208 N   0  0  0  0  0  0  0  0  0  0  0  0
   10.2557  -17.7256   27.5161 C   0  0  0  0  0  0  0  0  0  0  0  0
   10.4409  -16.3983   28.0024 O   0  0  0  0  0  0  0  0  0  0  0  0
   10.2964  -18.6467   28.3895 O   0  0  0  0  0  0  0  0  0  0  0  0
  2  1  1  6
  2  8  1  0
  2  3  1  0
  3  4  1  0
  4  5  1  0
  5  6  1  0
  6  7  1  0
  8 15  1  0
  9  8  2  0
 10 11  1  0
 11 12  1  0
 14 13  1  1
 13 12  1  0
 15 14  1  0
 16 14  1  0
 16 17  2  0
 18 16  1  0
 19 18  1  0
 19 25  1  0
 19 20  1  6
 21 20  1  0
 21 22  1  0
 23 24  1  0
 23 22  1  0
 25 26  1  0
 27 25  2  0
M  END
$$$$
