KMK.pdb
     RDKit          3D

 27 26  0  0  1  0  0  0  0  0999 V2000
    8.7117  -15.1890   19.8218 N   0  0  0  0  0  0  0  0  0  0  0  0
    8.0040  -15.8911   20.8779 C   0  0  1  0  0  0  0  0  0  0  0  0
    8.1525  -17.4154   20.5958 C   0  0  0  0  0  0  0  0  0  0  0  0
    7.4251  -17.7278   19.3203 C   0  0  0  0  0  0  0  0  0  0  0  0
    7.3164  -19.1749   18.9756 C   0  0  0  0  0  0  0  0  0  0  0  0
    6.6425  -19.5228   17.7083 C   0  0  0  0  0  0  0  0  0  0  0  0
    6.6268  -20.9310   17.4192 N   0  0  0  0  0  0  0  0  0  0  0  0
    8.6409  -15.6355   22.2035 C   0  0  0  0  0  0  0  0  0  0  0  0
    9.9178  -15.6456   22.3269 O   0  0  0  0  0  0  0  0  0  0  0  0
    5.9341  -10.4137   26.0273 C   0  0  0  0  0  0  0  0  0  0  0  0
    5.8941  -12.2210   26.3091 S   0  0  0  0  0  0  0  0  0  0  0  0
    7.1482  -13.0092   25.2155 C   0  0  0  0  0  0  0  0  0  0  0  0
    7.1768  -14.5013   25.5379 C   0  0  0  0  0  0  0  0  0  0  0  0
    8.2260  -15.2152   24.6901 C   0  0  2  0  0  0  0  0  0  0  0  0
    7.8290  -15.3762   23.3184 N   0  0  0  0  0  0  0  0  0  0  0  0
    8.7194  -16.4559   25.2435 C   0  0  0  0  0  0  0  0  0  0  0  0
    8.1485  -17.5737   25.2078 O   0  0  0  0  0  0  0  0  0  0  0  0
    9.9781  -16.4420   25.8976 N   0  0  0  0  0  0  0  0  0  0  0  0
   10.4741  -17.7376   26.5159 C   0  0  1  0  0  0  0  0  0  0  0  0
   11.8759  -17.8272   26.0034 C   0  0  0  0  0  0  0  0  0  0  0  0
   12.8444  -18.8073   26.4150 C   0  0  0  0  0  0  0  0  0  0  0  0
   14.0691  -19.0310   25.6076 C   0  0  0  0  0  0  0  0  0  0  0  0
   14.8005  -20.2269   26.2713 C   0  0  0  0  0  0  0  0  0  0  0  0
   15.9724  -20.4917   25.4676 N   0  0  0  0  0  0  0  0  0  0  0  0
   10.4050  -17.4378   27.9528 C   0  0  0  0  0  0  0  0  0  0  0  0
   10.6460  -18.4820   28.8931 O   0  0  0  0  0  0  0  0  0  0  0  0
   10.1357  -16.2989   28.4461 O   0  0  0  0  0  0  0  0  0  0  0  0
  2  1  1  6
  2  8  1  0
  2  3  1  0
  3  4  1  0
  4  5  1  0
  5  6  1  0
  6  7  1  0
  8 15  1  0
  9  8  2  0
 10 11  1  0
 11 12  1  0
 14 13  1  1
 13 12  1  0
 15 14  1  0
 16 14  1  0
 16 17  2  0
 18 16  1  0
 19 18  1  0
 19 25  1  0
 19 20  1  6
 21 20  1  0
 21 22  1  0
 23 24  1  0
 23 22  1  0
 25 26  1  0
 27 25  2  0
M  END
$$$$
