KMK.pdb
     RDKit          3D

 27 26  0  0  1  0  0  0  0  0999 V2000
    6.9605  -15.5508   20.2104 N   0  0  0  0  0  0  0  0  0  0  0  0
    8.3663  -15.1868   20.2304 C   0  0  1  0  0  0  0  0  0  0  0  0
    8.5195  -13.8985   19.3689 C   0  0  0  0  0  0  0  0  0  0  0  0
    7.8314  -14.1303   18.0549 C   0  0  0  0  0  0  0  0  0  0  0  0
    8.5554  -13.6334   16.8493 C   0  0  0  0  0  0  0  0  0  0  0  0
    7.8774  -13.7715   15.5445 C   0  0  0  0  0  0  0  0  0  0  0  0
    8.6680  -13.3409   14.4237 N   0  0  0  0  0  0  0  0  0  0  0  0
    8.8026  -14.8331   21.6133 C   0  0  0  0  0  0  0  0  0  0  0  0
   10.0215  -14.5106   21.8509 O   0  0  0  0  0  0  0  0  0  0  0  0
    6.7694  -10.5923   26.6401 C   0  0  0  0  0  0  0  0  0  0  0  0
    6.1435  -12.2995   26.8431 S   0  0  0  0  0  0  0  0  0  0  0  0
    7.3989  -13.4646   26.1678 C   0  0  0  0  0  0  0  0  0  0  0  0
    7.0424  -13.7409   24.7091 C   0  0  0  0  0  0  0  0  0  0  0  0
    8.0898  -14.6416   24.0603 C   0  0  2  0  0  0  0  0  0  0  0  0
    7.8638  -14.8493   22.6563 N   0  0  0  0  0  0  0  0  0  0  0  0
    8.3305  -15.8918   24.7444 C   0  0  0  0  0  0  0  0  0  0  0  0
    7.5393  -16.8625   24.8354 O   0  0  0  0  0  0  0  0  0  0  0  0
    9.5828  -16.0721   25.3860 N   0  0  0  0  0  0  0  0  0  0  0  0
    9.8812  -17.4300   25.9974 C   0  0  1  0  0  0  0  0  0  0  0  0
   10.9488  -17.9647   25.0974 C   0  0  0  0  0  0  0  0  0  0  0  0
   11.4648  -19.3065   25.1349 C   0  0  0  0  0  0  0  0  0  0  0  0
   12.4692  -19.7479   24.1359 C   0  0  0  0  0  0  0  0  0  0  0  0
   12.7941  -21.2234   24.4865 C   0  0  0  0  0  0  0  0  0  0  0  0
   13.6306  -21.7266   23.4204 N   0  0  0  0  0  0  0  0  0  0  0  0
   10.3819  -17.0634   27.3294 C   0  0  0  0  0  0  0  0  0  0  0  0
   10.4261  -18.0552   28.3525 O   0  0  0  0  0  0  0  0  0  0  0  0
   10.7847  -15.9057   27.6617 O   0  0  0  0  0  0  0  0  0  0  0  0
  2  1  1  1
  2  8  1  0
  2  3  1  0
  3  4  1  0
  4  5  1  0
  5  6  1  0
  6  7  1  0
  8 15  1  0
  9  8  2  0
 10 11  1  0
 11 12  1  0
 14 13  1  1
 13 12  1  0
 15 14  1  0
 16 14  1  0
 16 17  2  0
 18 16  1  0
 19 18  1  0
 19 25  1  0
 19 20  1  6
 21 20  1  0
 21 22  1  0
 23 24  1  0
 23 22  1  0
 25 26  1  0
 27 25  2  0
M  END
$$$$
