KMK.pdb
     RDKit          3D

 27 26  0  0  1  0  0  0  0  0999 V2000
    9.3306  -15.9892   19.8895 N   0  0  0  0  0  0  0  0  0  0  0  0
    8.2458  -15.8730   20.8482 C   0  0  1  0  0  0  0  0  0  0  0  0
    7.5590  -17.2679   20.9360 C   0  0  0  0  0  0  0  0  0  0  0  0
    8.6098  -18.3201   20.7300 C   0  0  0  0  0  0  0  0  0  0  0  0
    8.1437  -19.7318   20.8499 C   0  0  0  0  0  0  0  0  0  0  0  0
    9.1285  -20.7981   20.5777 C   0  0  0  0  0  0  0  0  0  0  0  0
    8.6019  -22.1298   20.7043 N   0  0  0  0  0  0  0  0  0  0  0  0
    8.7730  -15.5672   22.2107 C   0  0  0  0  0  0  0  0  0  0  0  0
    9.9944  -15.8214   22.5102 O   0  0  0  0  0  0  0  0  0  0  0  0
    6.1255  -10.7490   25.8565 C   0  0  0  0  0  0  0  0  0  0  0  0
    6.3809  -12.0229   27.1446 S   0  0  0  0  0  0  0  0  0  0  0  0
    7.6207  -13.2358   26.5269 C   0  0  0  0  0  0  0  0  0  0  0  0
    7.2086  -13.6468   25.1153 C   0  0  0  0  0  0  0  0  0  0  0  0
    8.2239  -14.6178   24.5193 C   0  0  2  0  0  0  0  0  0  0  0  0
    7.9207  -14.9906   23.1649 N   0  0  0  0  0  0  0  0  0  0  0  0
    8.5116  -15.7779   25.3319 C   0  0  0  0  0  0  0  0  0  0  0  0
    7.8079  -16.8122   25.4400 O   0  0  0  0  0  0  0  0  0  0  0  0
    9.7075  -15.7796   26.0948 N   0  0  0  0  0  0  0  0  0  0  0  0
   10.0458  -17.0306   26.8868 C   0  0  1  0  0  0  0  0  0  0  0  0
   11.2724  -17.5325   26.1945 C   0  0  0  0  0  0  0  0  0  0  0  0
   11.8737  -18.8208   26.4107 C   0  0  0  0  0  0  0  0  0  0  0  0
   13.0904  -19.2122   25.6569 C   0  0  0  0  0  0  0  0  0  0  0  0
   13.5525  -20.5598   26.2702 C   0  0  0  0  0  0  0  0  0  0  0  0
   14.7639  -20.9352   25.5768 N   0  0  0  0  0  0  0  0  0  0  0  0
   10.3221  -16.4830   28.2221 C   0  0  0  0  0  0  0  0  0  0  0  0
   10.5300  -17.3789   29.3114 O   0  0  0  0  0  0  0  0  0  0  0  0
   10.3881  -15.2458   28.5015 O   0  0  0  0  0  0  0  0  0  0  0  0
  2  1  1  6
  2  8  1  0
  2  3  1  0
  3  4  1  0
  4  5  1  0
  5  6  1  0
  6  7  1  0
  8 15  1  0
  9  8  2  0
 10 11  1  0
 11 12  1  0
 14 13  1  1
 13 12  1  0
 15 14  1  0
 16 14  1  0
 16 17  2  0
 18 16  1  0
 19 18  1  0
 19 25  1  0
 19 20  1  6
 21 20  1  0
 21 22  1  0
 23 24  1  0
 23 22  1  0
 25 26  1  0
 27 25  2  0
M  END
$$$$
