KMK.pdb
     RDKit          3D

 27 26  0  0  1  0  0  0  0  0999 V2000
    7.2018  -15.9382   20.8573 N   0  0  0  0  0  0  0  0  0  0  0  0
    8.4971  -15.2912   20.9716 C   0  0  1  0  0  0  0  0  0  0  0  0
    8.3584  -13.8719   20.3458 C   0  0  0  0  0  0  0  0  0  0  0  0
    8.2162  -14.0281   18.8596 C   0  0  0  0  0  0  0  0  0  0  0  0
    8.3456  -12.7744   18.0621 C   0  0  0  0  0  0  0  0  0  0  0  0
    8.1422  -12.8731   16.6027 C   0  0  0  0  0  0  0  0  0  0  0  0
    8.7883  -14.0046   15.9953 N   0  0  0  0  0  0  0  0  0  0  0  0
    8.8669  -15.0947   22.4043 C   0  0  0  0  0  0  0  0  0  0  0  0
   10.0645  -14.7705   22.7308 O   0  0  0  0  0  0  0  0  0  0  0  0
    6.0207  -11.8778   27.6202 C   0  0  0  0  0  0  0  0  0  0  0  0
    7.2618  -11.9053   26.2762 S   0  0  0  0  0  0  0  0  0  0  0  0
    6.6925  -13.0840   24.9814 C   0  0  0  0  0  0  0  0  0  0  0  0
    6.8813  -14.4990   25.5228 C   0  0  0  0  0  0  0  0  0  0  0  0
    8.0472  -15.1921   24.8231 C   0  0  2  0  0  0  0  0  0  0  0  0
    7.8886  -15.2615   23.3965 N   0  0  0  0  0  0  0  0  0  0  0  0
    8.4157  -16.4764   25.3741 C   0  0  0  0  0  0  0  0  0  0  0  0
    7.7231  -17.5238   25.3657 O   0  0  0  0  0  0  0  0  0  0  0  0
    9.6870  -16.5988   25.9915 N   0  0  0  0  0  0  0  0  0  0  0  0
   10.1046  -17.9688   26.4971 C   0  0  1  0  0  0  0  0  0  0  0  0
   11.2783  -18.2922   25.6290 C   0  0  0  0  0  0  0  0  0  0  0  0
   12.0399  -19.5105   25.6906 C   0  0  0  0  0  0  0  0  0  0  0  0
   13.2229  -19.6960   24.8143 C   0  0  0  0  0  0  0  0  0  0  0  0
   13.6891  -21.1584   25.0373 C   0  0  0  0  0  0  0  0  0  0  0  0
   14.6909  -21.4303   24.0315 N   0  0  0  0  0  0  0  0  0  0  0  0
   10.4800  -17.6810   27.8884 C   0  0  0  0  0  0  0  0  0  0  0  0
   10.6123  -18.7605   28.8101 O   0  0  0  0  0  0  0  0  0  0  0  0
   10.6974  -16.5212   28.3581 O   0  0  0  0  0  0  0  0  0  0  0  0
  2  1  1  1
  2  8  1  0
  2  3  1  0
  3  4  1  0
  4  5  1  0
  5  6  1  0
  6  7  1  0
  8 15  1  0
  9  8  2  0
 10 11  1  0
 11 12  1  0
 14 13  1  1
 13 12  1  0
 15 14  1  0
 16 14  1  0
 16 17  2  0
 18 16  1  0
 19 18  1  0
 19 25  1  0
 19 20  1  6
 21 20  1  0
 21 22  1  0
 23 24  1  0
 23 22  1  0
 25 26  1  0
 27 25  2  0
M  END
$$$$
