KMK.pdb
     RDKit          3D

 27 26  0  0  1  0  0  0  0  0999 V2000
    7.1665  -15.8946   21.3968 N   0  0  0  0  0  0  0  0  0  0  0  0
    8.4542  -15.2238   21.3622 C   0  0  1  0  0  0  0  0  0  0  0  0
    8.2608  -13.8990   20.5668 C   0  0  0  0  0  0  0  0  0  0  0  0
    7.7642  -14.2466   19.1934 C   0  0  0  0  0  0  0  0  0  0  0  0
    8.4396  -13.5440   18.0644 C   0  0  0  0  0  0  0  0  0  0  0  0
    7.9674  -13.8437   16.6975 C   0  0  0  0  0  0  0  0  0  0  0  0
    8.6586  -13.1195   15.6657 N   0  0  0  0  0  0  0  0  0  0  0  0
    8.8888  -14.8396   22.7375 C   0  0  0  0  0  0  0  0  0  0  0  0
   10.0398  -14.3078   22.9336 O   0  0  0  0  0  0  0  0  0  0  0  0
    7.9305  -11.3236   27.5525 C   0  0  0  0  0  0  0  0  0  0  0  0
    6.4247  -11.4998   26.5283 S   0  0  0  0  0  0  0  0  0  0  0  0
    6.7645  -12.7278   25.1992 C   0  0  0  0  0  0  0  0  0  0  0  0
    7.0467  -14.0718   25.8665 C   0  0  0  0  0  0  0  0  0  0  0  0
    8.2394  -14.7597   25.2082 C   0  0  2  0  0  0  0  0  0  0  0  0
    8.0224  -15.0591   23.8194 N   0  0  0  0  0  0  0  0  0  0  0  0
    8.7527  -15.9084   25.9195 C   0  0  0  0  0  0  0  0  0  0  0  0
    9.0937  -15.9530   27.1271 O   0  0  0  0  0  0  0  0  0  0  0  0
    8.8935  -17.1272   25.2075 N   0  0  0  0  0  0  0  0  0  0  0  0
    9.5566  -18.2947   25.9175 C   0  0  1  0  0  0  0  0  0  0  0  0
    9.9194  -19.2010   24.7849 C   0  0  0  0  0  0  0  0  0  0  0  0
   10.6301  -20.4441   24.9173 C   0  0  0  0  0  0  0  0  0  0  0  0
   11.0454  -21.1985   23.7089 C   0  0  0  0  0  0  0  0  0  0  0  0
   11.9314  -22.3636   24.2216 C   0  0  0  0  0  0  0  0  0  0  0  0
   12.4386  -23.0429   23.0508 N   0  0  0  0  0  0  0  0  0  0  0  0
   10.7242  -17.6534   26.5378 C   0  0  0  0  0  0  0  0  0  0  0  0
   11.0088  -17.9075   27.9115 O   0  0  0  0  0  0  0  0  0  0  0  0
   11.5224  -16.8646   25.9430 O   0  0  0  0  0  0  0  0  0  0  0  0
  2  1  1  1
  2  8  1  0
  2  3  1  0
  3  4  1  0
  4  5  1  0
  5  6  1  0
  6  7  1  0
  8 15  1  0
  9  8  2  0
 10 11  1  0
 11 12  1  0
 14 13  1  1
 13 12  1  0
 15 14  1  0
 16 14  1  0
 16 17  2  0
 18 16  1  0
 19 18  1  0
 19 25  1  0
 19 20  1  6
 21 20  1  0
 21 22  1  0
 23 24  1  0
 23 22  1  0
 25 26  1  0
 27 25  2  0
M  END
$$$$
