KMK.pdb
     RDKit          3D

 27 26  0  0  1  0  0  0  0  0999 V2000
    7.4348  -15.8927   21.0080 N   0  0  0  0  0  0  0  0  0  0  0  0
    8.7819  -15.3517   20.9617 C   0  0  1  0  0  0  0  0  0  0  0  0
    8.7446  -14.1058   20.0282 C   0  0  0  0  0  0  0  0  0  0  0  0
    7.9801  -14.4725   18.7894 C   0  0  0  0  0  0  0  0  0  0  0  0
    8.5971  -14.0485   17.4994 C   0  0  0  0  0  0  0  0  0  0  0  0
    7.8611  -14.3629   16.2582 C   0  0  0  0  0  0  0  0  0  0  0  0
    8.5188  -13.9226   15.0582 N   0  0  0  0  0  0  0  0  0  0  0  0
    9.2050  -14.8669   22.3085 C   0  0  0  0  0  0  0  0  0  0  0  0
   10.3881  -14.4070   22.4947 O   0  0  0  0  0  0  0  0  0  0  0  0
    5.1392  -11.4343   26.2692 C   0  0  0  0  0  0  0  0  0  0  0  0
    6.8990  -11.4066   26.7690 S   0  0  0  0  0  0  0  0  0  0  0  0
    7.5656  -13.1187   26.6496 C   0  0  0  0  0  0  0  0  0  0  0  0
    7.2923  -13.6285   25.2366 C   0  0  0  0  0  0  0  0  0  0  0  0
    8.4739  -14.4452   24.7210 C   0  0  2  0  0  0  0  0  0  0  0  0
    8.2926  -14.9117   23.3738 N   0  0  0  0  0  0  0  0  0  0  0  0
    8.9070  -15.5132   25.5932 C   0  0  0  0  0  0  0  0  0  0  0  0
    9.0550  -15.4522   26.8386 O   0  0  0  0  0  0  0  0  0  0  0  0
    9.1988  -16.7739   25.0121 N   0  0  0  0  0  0  0  0  0  0  0  0
    9.6767  -17.8873   25.9280 C   0  0  1  0  0  0  0  0  0  0  0  0
    9.7042  -19.0708   25.0147 C   0  0  0  0  0  0  0  0  0  0  0  0
   10.1574  -20.3857   25.3805 C   0  0  0  0  0  0  0  0  0  0  0  0
   10.1387  -21.4854   24.3844 C   0  0  0  0  0  0  0  0  0  0  0  0
   10.5603  -22.7626   25.1568 C   0  0  0  0  0  0  0  0  0  0  0  0
   10.5203  -23.8515   24.2071 N   0  0  0  0  0  0  0  0  0  0  0  0
   11.0180  -17.4201   26.3048 C   0  0  0  0  0  0  0  0  0  0  0  0
   11.4516  -17.5678   27.6548 O   0  0  0  0  0  0  0  0  0  0  0  0
   11.8474  -16.8746   25.5126 O   0  0  0  0  0  0  0  0  0  0  0  0
  2  1  1  1
  2  8  1  0
  2  3  1  0
  3  4  1  0
  4  5  1  0
  5  6  1  0
  6  7  1  0
  8 15  1  0
  9  8  2  0
 10 11  1  0
 11 12  1  0
 14 13  1  1
 13 12  1  0
 15 14  1  0
 16 14  1  0
 16 17  2  0
 18 16  1  0
 19 18  1  0
 19 25  1  0
 19 20  1  6
 21 20  1  0
 21 22  1  0
 23 24  1  0
 23 22  1  0
 25 26  1  0
 27 25  2  0
M  END
$$$$
