KMK.pdb
     RDKit          3D

 27 26  0  0  1  0  0  0  0  0999 V2000
    6.9928  -16.3746   21.4287 N   0  0  0  0  0  0  0  0  0  0  0  0
    8.3361  -15.8625   21.2221 C   0  0  1  0  0  0  0  0  0  0  0  0
    8.1983  -14.4906   20.4981 C   0  0  0  0  0  0  0  0  0  0  0  0
    8.3912  -14.7171   19.0267 C   0  0  0  0  0  0  0  0  0  0  0  0
    7.7236  -13.7318   18.1277 C   0  0  0  0  0  0  0  0  0  0  0  0
    8.5910  -12.8855   17.2836 C   0  0  0  0  0  0  0  0  0  0  0  0
    7.9319  -12.3361   16.1301 N   0  0  0  0  0  0  0  0  0  0  0  0
    9.0076  -15.5937   22.5278 C   0  0  0  0  0  0  0  0  0  0  0  0
   10.2310  -15.2095   22.5656 O   0  0  0  0  0  0  0  0  0  0  0  0
    5.4438  -11.4766   25.7192 C   0  0  0  0  0  0  0  0  0  0  0  0
    6.9387  -12.1806   26.5047 S   0  0  0  0  0  0  0  0  0  0  0  0
    7.7699  -13.2859   25.2892 C   0  0  0  0  0  0  0  0  0  0  0  0
    7.8434  -14.6823   25.9022 C   0  0  0  0  0  0  0  0  0  0  0  0
    8.7464  -15.5887   25.0702 C   0  0  2  0  0  0  0  0  0  0  0  0
    8.2854  -15.7586   23.7197 N   0  0  0  0  0  0  0  0  0  0  0  0
    9.0673  -16.8593   25.6798 C   0  0  0  0  0  0  0  0  0  0  0  0
    8.2727  -17.8041   25.9093 O   0  0  0  0  0  0  0  0  0  0  0  0
   10.4119  -17.0945   26.0661 N   0  0  0  0  0  0  0  0  0  0  0  0
   10.7324  -18.4008   26.7716 C   0  0  1  0  0  0  0  0  0  0  0  0
   12.2028  -18.5432   26.5407 C   0  0  0  0  0  0  0  0  0  0  0  0
   13.0362  -19.5579   27.1271 C   0  0  0  0  0  0  0  0  0  0  0  0
   14.4804  -19.6226   26.7926 C   0  0  0  0  0  0  0  0  0  0  0  0
   15.0685  -20.7544   27.6750 C   0  0  0  0  0  0  0  0  0  0  0  0
   16.4510  -20.9083   27.2821 N   0  0  0  0  0  0  0  0  0  0  0  0
   10.3970  -18.0860   28.1672 C   0  0  0  0  0  0  0  0  0  0  0  0
   10.0680  -19.1480   29.0596 O   0  0  0  0  0  0  0  0  0  0  0  0
   10.3672  -16.9167   28.6622 O   0  0  0  0  0  0  0  0  0  0  0  0
  2  1  1  1
  2  8  1  0
  2  3  1  0
  3  4  1  0
  4  5  1  0
  5  6  1  0
  6  7  1  0
  8 15  1  0
  9  8  2  0
 10 11  1  0
 11 12  1  0
 14 13  1  1
 13 12  1  0
 15 14  1  0
 16 14  1  0
 16 17  2  0
 18 16  1  0
 19 18  1  0
 19 25  1  0
 19 20  1  1
 21 20  1  0
 21 22  1  0
 23 24  1  0
 23 22  1  0
 25 26  1  0
 27 25  2  0
M  END
$$$$
