KMK.pdb
     RDKit          3D

 27 26  0  0  1  0  0  0  0  0999 V2000
    9.2040  -15.9088   19.2156 N   0  0  0  0  0  0  0  0  0  0  0  0
    8.0753  -15.5908   20.0725 C   0  0  1  0  0  0  0  0  0  0  0  0
    7.0922  -16.7966   20.0037 C   0  0  0  0  0  0  0  0  0  0  0  0
    7.9032  -18.0593   19.9646 C   0  0  0  0  0  0  0  0  0  0  0  0
    7.2399  -19.2345   19.3293 C   0  0  0  0  0  0  0  0  0  0  0  0
    8.0228  -20.4823   19.2246 C   0  0  0  0  0  0  0  0  0  0  0  0
    7.3356  -21.5519   18.5535 N   0  0  0  0  0  0  0  0  0  0  0  0
    8.5080  -15.4700   21.4960 C   0  0  0  0  0  0  0  0  0  0  0  0
    9.5870  -16.0342   21.9003 O   0  0  0  0  0  0  0  0  0  0  0  0
    6.7943  -11.2873   28.1052 C   0  0  0  0  0  0  0  0  0  0  0  0
    6.2793  -11.7701   26.4173 S   0  0  0  0  0  0  0  0  0  0  0  0
    7.4427  -13.0559   25.7984 C   0  0  0  0  0  0  0  0  0  0  0  0
    7.0689  -13.3657   24.3509 C   0  0  0  0  0  0  0  0  0  0  0  0
    7.9847  -14.4435   23.7773 C   0  0  2  0  0  0  0  0  0  0  0  0
    7.7257  -14.7256   22.3922 N   0  0  0  0  0  0  0  0  0  0  0  0
    8.0620  -15.6588   24.5557 C   0  0  0  0  0  0  0  0  0  0  0  0
    7.1637  -16.5269   24.6839 O   0  0  0  0  0  0  0  0  0  0  0  0
    9.2660  -15.9288   25.2554 N   0  0  0  0  0  0  0  0  0  0  0  0
    9.4029  -17.2752   25.9449 C   0  0  1  0  0  0  0  0  0  0  0  0
   10.2966  -18.0289   25.0127 C   0  0  0  0  0  0  0  0  0  0  0  0
   10.8917  -19.3077   25.2929 C   0  0  0  0  0  0  0  0  0  0  0  0
   11.8051  -19.9376   24.3075 C   0  0  0  0  0  0  0  0  0  0  0  0
   12.1238  -21.3482   24.8680 C   0  0  0  0  0  0  0  0  0  0  0  0
   12.6668  -22.1158   23.7702 N   0  0  0  0  0  0  0  0  0  0  0  0
   10.0639  -16.9087   27.2051 C   0  0  0  0  0  0  0  0  0  0  0  0
   10.7742  -15.6752   27.2843 O   0  0  0  0  0  0  0  0  0  0  0  0
   10.0638  -17.6171   28.2593 O   0  0  0  0  0  0  0  0  0  0  0  0
  2  1  1  6
  2  8  1  0
  2  3  1  0
  3  4  1  0
  4  5  1  0
  5  6  1  0
  6  7  1  0
  8 15  1  0
  9  8  2  0
 10 11  1  0
 11 12  1  0
 14 13  1  1
 13 12  1  0
 15 14  1  0
 16 14  1  0
 16 17  2  0
 18 16  1  0
 19 18  1  0
 19 25  1  0
 19 20  1  6
 21 20  1  0
 21 22  1  0
 23 24  1  0
 23 22  1  0
 25 26  1  0
 27 25  2  0
M  END
$$$$
