KMK.pdb
     RDKit          3D

 27 26  0  0  1  0  0  0  0  0999 V2000
    8.4423  -14.3200   19.8646 N   0  0  0  0  0  0  0  0  0  0  0  0
    7.8034  -15.2452   20.7839 C   0  0  1  0  0  0  0  0  0  0  0  0
    8.1732  -16.6844   20.3181 C   0  0  0  0  0  0  0  0  0  0  0  0
    7.4223  -16.9730   19.0506 C   0  0  0  0  0  0  0  0  0  0  0  0
    7.5481  -18.3638   18.5267 C   0  0  0  0  0  0  0  0  0  0  0  0
    6.9186  -18.6587   17.2237 C   0  0  0  0  0  0  0  0  0  0  0  0
    6.9943  -20.0406   16.8346 N   0  0  0  0  0  0  0  0  0  0  0  0
    8.3519  -15.0858   22.1629 C   0  0  0  0  0  0  0  0  0  0  0  0
    9.6013  -15.2642   22.3931 O   0  0  0  0  0  0  0  0  0  0  0  0
    6.7443  -11.7166   27.9850 C   0  0  0  0  0  0  0  0  0  0  0  0
    7.5627  -11.8168   26.3518 S   0  0  0  0  0  0  0  0  0  0  0  0
    6.4433  -12.7074   25.1927 C   0  0  0  0  0  0  0  0  0  0  0  0
    6.5941  -14.2039   25.4554 C   0  0  0  0  0  0  0  0  0  0  0  0
    7.7356  -14.7839   24.6249 C   0  0  2  0  0  0  0  0  0  0  0  0
    7.4879  -14.7309   23.2103 N   0  0  0  0  0  0  0  0  0  0  0  0
    8.1826  -16.0969   25.0314 C   0  0  0  0  0  0  0  0  0  0  0  0
    7.5076  -17.1556   25.0241 O   0  0  0  0  0  0  0  0  0  0  0  0
    9.5188  -16.2365   25.4870 N   0  0  0  0  0  0  0  0  0  0  0  0
    9.9726  -17.6086   25.9541 C   0  0  1  0  0  0  0  0  0  0  0  0
   11.1745  -17.8617   25.1014 C   0  0  0  0  0  0  0  0  0  0  0  0
   11.6418  -19.1605   24.6978 C   0  0  0  0  0  0  0  0  0  0  0  0
   12.8153  -19.2849   23.7982 C   0  0  0  0  0  0  0  0  0  0  0  0
   13.0338  -20.8071   23.5964 C   0  0  0  0  0  0  0  0  0  0  0  0
   14.0445  -20.9470   22.5726 N   0  0  0  0  0  0  0  0  0  0  0  0
   10.3088  -17.3576   27.3623 C   0  0  0  0  0  0  0  0  0  0  0  0
   10.1598  -16.0410   27.8885 O   0  0  0  0  0  0  0  0  0  0  0  0
   10.7389  -18.2339   28.1749 O   0  0  0  0  0  0  0  0  0  0  0  0
  2  1  1  6
  2  8  1  0
  2  3  1  0
  3  4  1  0
  4  5  1  0
  5  6  1  0
  6  7  1  0
  8 15  1  0
  9  8  2  0
 10 11  1  0
 11 12  1  0
 14 13  1  1
 13 12  1  0
 15 14  1  0
 16 14  1  0
 16 17  2  0
 18 16  1  0
 19 18  1  0
 19 25  1  0
 19 20  1  6
 21 20  1  0
 21 22  1  0
 23 24  1  0
 23 22  1  0
 25 26  1  0
 27 25  2  0
M  END
$$$$
