KMK.pdb
     RDKit          3D

 27 26  0  0  1  0  0  0  0  0999 V2000
    7.2667  -16.1384   20.8837 N   0  0  0  0  0  0  0  0  0  0  0  0
    8.5327  -15.4347   20.7770 C   0  0  1  0  0  0  0  0  0  0  0  0
    8.2994  -14.2083   19.8459 C   0  0  0  0  0  0  0  0  0  0  0  0
    8.1144  -14.7138   18.4445 C   0  0  0  0  0  0  0  0  0  0  0  0
    8.2209  -13.6875   17.3675 C   0  0  0  0  0  0  0  0  0  0  0  0
    8.0119  -14.1378   15.9766 C   0  0  0  0  0  0  0  0  0  0  0  0
    8.1043  -13.0875   14.9994 N   0  0  0  0  0  0  0  0  0  0  0  0
    8.9517  -14.8934   22.1034 C   0  0  0  0  0  0  0  0  0  0  0  0
   10.0705  -14.2791   22.2338 O   0  0  0  0  0  0  0  0  0  0  0  0
    6.4031  -10.5517   26.8620 C   0  0  0  0  0  0  0  0  0  0  0  0
    5.8528  -12.2939   26.9588 S   0  0  0  0  0  0  0  0  0  0  0  0
    7.2748  -13.3792   26.5229 C   0  0  0  0  0  0  0  0  0  0  0  0
    7.0045  -13.9703   25.1414 C   0  0  0  0  0  0  0  0  0  0  0  0
    8.2825  -14.5555   24.5468 C   0  0  2  0  0  0  0  0  0  0  0  0
    8.1059  -15.0561   23.2113 N   0  0  0  0  0  0  0  0  0  0  0  0
    8.9619  -15.5184   25.3835 C   0  0  0  0  0  0  0  0  0  0  0  0
    9.1466  -15.4382   26.6229 O   0  0  0  0  0  0  0  0  0  0  0  0
    9.4813  -16.6876   24.7706 N   0  0  0  0  0  0  0  0  0  0  0  0
   10.2114  -17.6884   25.6493 C   0  0  1  0  0  0  0  0  0  0  0  0
    9.9498  -18.9851   24.9524 C   0  0  0  0  0  0  0  0  0  0  0  0
   10.2080  -20.2869   25.5063 C   0  0  0  0  0  0  0  0  0  0  0  0
   10.0075  -21.5027   24.6795 C   0  0  0  0  0  0  0  0  0  0  0  0
   10.4880  -22.6914   25.5523 C   0  0  0  0  0  0  0  0  0  0  0  0
    9.5375  -23.7618   25.3516 N   0  0  0  0  0  0  0  0  0  0  0  0
   11.6062  -17.2418   25.5293 C   0  0  0  0  0  0  0  0  0  0  0  0
   11.9881  -16.4489   24.4077 O   0  0  0  0  0  0  0  0  0  0  0  0
   12.5305  -17.5127   26.3571 O   0  0  0  0  0  0  0  0  0  0  0  0
  2  1  1  1
  2  8  1  0
  2  3  1  0
  3  4  1  0
  4  5  1  0
  5  6  1  0
  6  7  1  0
  8 15  1  0
  9  8  2  0
 10 11  1  0
 11 12  1  0
 14 13  1  1
 13 12  1  0
 15 14  1  0
 16 14  1  0
 16 17  2  0
 18 16  1  0
 19 18  1  0
 19 25  1  0
 19 20  1  6
 21 20  1  0
 21 22  1  0
 23 24  1  0
 23 22  1  0
 25 26  1  0
 27 25  2  0
M  END
$$$$
