KMK.pdb
     RDKit          3D

 27 26  0  0  1  0  0  0  0  0999 V2000
    7.1225  -15.3260   20.1450 N   0  0  0  0  0  0  0  0  0  0  0  0
    8.4648  -14.7774   20.2262 C   0  0  1  0  0  0  0  0  0  0  0  0
    8.4212  -13.3597   19.5832 C   0  0  0  0  0  0  0  0  0  0  0  0
    7.6946  -13.4624   18.2736 C   0  0  0  0  0  0  0  0  0  0  0  0
    8.5397  -13.3233   17.0525 C   0  0  0  0  0  0  0  0  0  0  0  0
    8.2418  -14.2161   15.9145 C   0  0  0  0  0  0  0  0  0  0  0  0
    9.1562  -14.0877   14.8126 N   0  0  0  0  0  0  0  0  0  0  0  0
    8.8763  -14.5914   21.6489 C   0  0  0  0  0  0  0  0  0  0  0  0
   10.1130  -14.4444   21.9568 O   0  0  0  0  0  0  0  0  0  0  0  0
    6.6205  -10.8900   27.0940 C   0  0  0  0  0  0  0  0  0  0  0  0
    5.9726  -12.6006   27.0585 S   0  0  0  0  0  0  0  0  0  0  0  0
    7.2457  -13.6902   26.2957 C   0  0  0  0  0  0  0  0  0  0  0  0
    6.9799  -13.7376   24.7930 C   0  0  0  0  0  0  0  0  0  0  0  0
    8.0794  -14.5163   24.0761 C   0  0  2  0  0  0  0  0  0  0  0  0
    7.8950  -14.5716   22.6520 N   0  0  0  0  0  0  0  0  0  0  0  0
    8.3572  -15.8257   24.6214 C   0  0  0  0  0  0  0  0  0  0  0  0
    7.6372  -16.8494   24.5203 O   0  0  0  0  0  0  0  0  0  0  0  0
    9.5624  -16.0052   25.3478 N   0  0  0  0  0  0  0  0  0  0  0  0
    9.8426  -17.3774   25.9354 C   0  0  1  0  0  0  0  0  0  0  0  0
   10.9372  -17.8909   25.0557 C   0  0  0  0  0  0  0  0  0  0  0  0
   11.4769  -19.2231   25.1015 C   0  0  0  0  0  0  0  0  0  0  0  0
   12.5572  -19.6231   24.1662 C   0  0  0  0  0  0  0  0  0  0  0  0
   12.8168  -21.1277   24.4388 C   0  0  0  0  0  0  0  0  0  0  0  0
   13.8219  -21.5517   23.4905 N   0  0  0  0  0  0  0  0  0  0  0  0
   10.3027  -17.0428   27.2903 C   0  0  0  0  0  0  0  0  0  0  0  0
   10.3826  -18.0738   28.2716 O   0  0  0  0  0  0  0  0  0  0  0  0
   10.6394  -15.8811   27.6779 O   0  0  0  0  0  0  0  0  0  0  0  0
  2  1  1  1
  2  8  1  0
  2  3  1  0
  3  4  1  0
  4  5  1  0
  5  6  1  0
  6  7  1  0
  8 15  1  0
  9  8  2  0
 10 11  1  0
 11 12  1  0
 14 13  1  1
 13 12  1  0
 15 14  1  0
 16 14  1  0
 16 17  2  0
 18 16  1  0
 19 18  1  0
 19 25  1  0
 19 20  1  6
 21 20  1  0
 21 22  1  0
 23 24  1  0
 23 22  1  0
 25 26  1  0
 27 25  2  0
M  END
$$$$
