YMQ.pdb
     RDKit          3D

 30 30  0  0  1  0  0  0  0  0999 V2000
    6.9300  -12.6663   16.8142 O   0  0  0  0  0  0  0  0  0  0  0  0
    7.6353  -13.4698   17.6957 C   0  0  0  0  0  0  0  0  0  0  0  0
    8.0688  -13.0031   18.9175 C   0  0  0  0  0  0  0  0  0  0  0  0
    8.7713  -13.7938   19.8021 C   0  0  0  0  0  0  0  0  0  0  0  0
    9.0719  -15.1071   19.4906 C   0  0  0  0  0  0  0  0  0  0  0  0
    9.8190  -15.9823   20.4051 C   0  0  0  0  0  0  0  0  0  0  0  0
    8.8883  -16.6265   21.4090 C   0  0  2  0  0  0  0  0  0  0  0  0
    7.5519  -16.5818   20.8431 N   0  0  0  0  0  0  0  0  0  0  0  0
    8.9363  -15.9258   22.7215 C   0  0  0  0  0  0  0  0  0  0  0  0
    9.7303  -14.9446   22.8895 O   0  0  0  0  0  0  0  0  0  0  0  0
    8.6347  -15.5709   18.2636 C   0  0  0  0  0  0  0  0  0  0  0  0
    7.9339  -14.7923   17.3738 C   0  0  0  0  0  0  0  0  0  0  0  0
    6.7081  -11.0212   26.2771 C   0  0  0  0  0  0  0  0  0  0  0  0
    7.0029  -12.7105   26.8634 S   0  0  0  0  0  0  0  0  0  0  0  0
    7.0236  -13.7855   25.3566 C   0  0  0  0  0  0  0  0  0  0  0  0
    7.2372  -15.1976   25.7797 C   0  0  0  0  0  0  0  0  0  0  0  0
    8.4451  -15.8616   25.2098 C   0  0  2  0  0  0  0  0  0  0  0  0
    8.1366  -16.2879   23.8242 N   0  0  0  0  0  0  0  0  0  0  0  0
    8.9866  -17.0082   25.9607 C   0  0  0  0  0  0  0  0  0  0  0  0
    8.2932  -18.0700   26.1108 O   0  0  0  0  0  0  0  0  0  0  0  0
   14.2513  -18.6837   25.0079 N   0  0  0  0  0  0  0  0  0  0  0  0
   13.2076  -19.5980   24.7471 C   0  0  0  0  0  0  0  0  0  0  0  0
   13.2825  -20.3513   23.7579 O   0  0  0  0  0  0  0  0  0  0  0  0
   12.0291  -19.6422   25.6698 C   0  0  0  0  0  0  0  0  0  0  0  0
   12.1297  -18.5927   26.7349 C   0  0  0  0  0  0  0  0  0  0  0  0
   10.7976  -18.1972   27.2393 C   0  0  2  0  0  0  0  0  0  0  0  0
   10.2537  -17.0388   26.5419 N   0  0  0  0  0  0  0  0  0  0  0  0
   10.8107  -17.9472   28.6740 C   0  0  0  0  0  0  0  0  0  0  0  0
   11.0078  -18.7788   29.5911 O   0  0  0  0  0  0  0  0  0  0  0  0
   10.5821  -16.6357   29.1453 O   0  0  0  0  0  0  0  0  0  0  0  0
  2  1  1  0
  3  2  2  0
  4  3  1  0
  5  4  2  0
  5 11  1  0
  6  5  1  0
  7  6  1  0
  7  8  1  6
  9  7  1  0
  9 10  2  0
 11 12  2  0
 12  2  1  0
 14 13  1  0
 14 15  1  0
 15 16  1  0
 17 16  1  1
 17 19  1  0
 17 18  1  0
 18  9  1  0
 19 20  2  0
 22 24  1  0
 22 21  1  0
 23 22  2  0
 24 25  1  0
 26 25  1  6
 26 28  1  0
 27 26  1  0
 27 19  1  0
 28 29  2  0
 28 30  1  0
M  END
$$$$
