YMQ.pdb
     RDKit          3D

 30 30  0  0  1  0  0  0  0  0999 V2000
    6.0535  -23.6967   29.4346 O   0  0  0  0  0  0  0  0  0  0  0  0
    6.3441  -22.8112   28.4090 C   0  0  0  0  0  0  0  0  0  0  0  0
    6.5870  -21.4761   28.6479 C   0  0  0  0  0  0  0  0  0  0  0  0
    6.8770  -20.5864   27.6351 C   0  0  0  0  0  0  0  0  0  0  0  0
    6.9357  -21.0084   26.3195 C   0  0  0  0  0  0  0  0  0  0  0  0
    7.2405  -20.0920   25.2114 C   0  0  0  0  0  0  0  0  0  0  0  0
    6.0129  -19.2991   24.8197 C   0  0  2  0  0  0  0  0  0  0  0  0
    5.3020  -20.0773   23.8211 N   0  0  0  0  0  0  0  0  0  0  0  0
    6.3795  -17.9573   24.2896 C   0  0  0  0  0  0  0  0  0  0  0  0
    6.8316  -17.8437   23.1047 O   0  0  0  0  0  0  0  0  0  0  0  0
    6.6912  -22.3489   26.0849 C   0  0  0  0  0  0  0  0  0  0  0  0
    6.4013  -23.2449   27.0860 C   0  0  0  0  0  0  0  0  0  0  0  0
    5.9147  -10.6893   25.6092 C   0  0  0  0  0  0  0  0  0  0  0  0
    6.6228  -11.9492   26.7026 S   0  0  0  0  0  0  0  0  0  0  0  0
    7.4097  -13.2098   25.5989 C   0  0  0  0  0  0  0  0  0  0  0  0
    6.6024  -14.4605   25.6501 C   0  0  0  0  0  0  0  0  0  0  0  0
    7.0646  -15.5588   24.7529 C   0  0  2  0  0  0  0  0  0  0  0  0
    6.2554  -16.7678   25.0356 N   0  0  0  0  0  0  0  0  0  0  0  0
    8.4952  -15.9070   24.8156 C   0  0  0  0  0  0  0  0  0  0  0  0
    8.9301  -16.6992   25.7179 O   0  0  0  0  0  0  0  0  0  0  0  0
   14.4869  -15.9714   20.4646 N   0  0  0  0  0  0  0  0  0  0  0  0
   13.0945  -16.0677   20.6773 C   0  0  0  0  0  0  0  0  0  0  0  0
   12.3129  -15.8933   19.7232 O   0  0  0  0  0  0  0  0  0  0  0  0
   12.5864  -16.3790   22.0509 C   0  0  0  0  0  0  0  0  0  0  0  0
   11.2584  -15.7316   22.3019 C   0  0  0  0  0  0  0  0  0  0  0  0
   10.6827  -16.1504   23.5975 C   0  0  2  0  0  0  0  0  0  0  0  0
    9.4594  -15.4306   23.9280 N   0  0  0  0  0  0  0  0  0  0  0  0
   11.6407  -16.0200   24.6866 C   0  0  0  0  0  0  0  0  0  0  0  0
   12.6971  -16.6735   24.8553 O   0  0  0  0  0  0  0  0  0  0  0  0
   11.4053  -15.0630   25.6981 O   0  0  0  0  0  0  0  0  0  0  0  0
  2  1  1  0
  3  2  2  0
  4  3  1  0
  5  4  2  0
  5 11  1  0
  6  5  1  0
  7  6  1  0
  7  8  1  6
  9  7  1  0
  9 10  2  0
 11 12  2  0
 12  2  1  0
 14 13  1  0
 14 15  1  0
 15 16  1  0
 17 16  1  1
 17 19  1  0
 17 18  1  0
 18  9  1  0
 19 20  2  0
 22 24  1  0
 22 21  1  0
 23 22  2  0
 24 25  1  0
 26 25  1  6
 26 28  1  0
 27 26  1  0
 27 19  1  0
 28 29  2  0
 28 30  1  0
M  END
$$$$
