YMQ.pdb
     RDKit          3D

 30 30  0  0  1  0  0  0  0  0999 V2000
    7.2814  -14.2237   14.4495 O   0  0  0  0  0  0  0  0  0  0  0  0
    7.2060  -14.1491   15.8312 C   0  0  0  0  0  0  0  0  0  0  0  0
    6.5955  -15.1312   16.5802 C   0  0  0  0  0  0  0  0  0  0  0  0
    6.5147  -15.0671   17.9553 C   0  0  0  0  0  0  0  0  0  0  0  0
    7.0527  -13.9962   18.6453 C   0  0  0  0  0  0  0  0  0  0  0  0
    6.9868  -13.8898   20.1098 C   0  0  0  0  0  0  0  0  0  0  0  0
    8.3042  -14.2926   20.7353 C   0  0  2  0  0  0  0  0  0  0  0  0
    8.5344  -15.6837   20.3888 N   0  0  0  0  0  0  0  0  0  0  0  0
    8.2835  -14.1064   22.2121 C   0  0  0  0  0  0  0  0  0  0  0  0
    7.9390  -12.9848   22.7066 O   0  0  0  0  0  0  0  0  0  0  0  0
    7.6644  -13.0133   17.8892 C   0  0  0  0  0  0  0  0  0  0  0  0
    7.7509  -13.0664   16.5185 C   0  0  0  0  0  0  0  0  0  0  0  0
    6.2300  -11.5969   26.5590 C   0  0  0  0  0  0  0  0  0  0  0  0
    7.4991  -12.8300   26.9505 S   0  0  0  0  0  0  0  0  0  0  0  0
    6.8273  -14.4609   26.3891 C   0  0  0  0  0  0  0  0  0  0  0  0
    7.1146  -14.6218   24.9365 C   0  0  0  0  0  0  0  0  0  0  0  0
    8.5309  -14.9418   24.5950 C   0  0  2  0  0  0  0  0  0  0  0  0
    8.6309  -15.1207   23.1271 N   0  0  0  0  0  0  0  0  0  0  0  0
    9.1263  -16.1101   25.2676 C   0  0  0  0  0  0  0  0  0  0  0  0
    8.5188  -17.2333   25.2739 O   0  0  0  0  0  0  0  0  0  0  0  0
   14.5443  -15.8935   25.0837 N   0  0  0  0  0  0  0  0  0  0  0  0
   13.8393  -16.6817   24.1484 C   0  0  0  0  0  0  0  0  0  0  0  0
   14.2064  -16.6996   22.9582 O   0  0  0  0  0  0  0  0  0  0  0  0
   12.6611  -17.4821   24.6102 C   0  0  0  0  0  0  0  0  0  0  0  0
   12.4524  -17.3444   26.0878 C   0  0  0  0  0  0  0  0  0  0  0  0
   11.0162  -17.2918   26.4339 C   0  0  2  0  0  0  0  0  0  0  0  0
   10.3578  -16.0968   25.9215 N   0  0  0  0  0  0  0  0  0  0  0  0
   10.7978  -17.3972   27.8699 C   0  0  0  0  0  0  0  0  0  0  0  0
   11.2410  -18.2763   28.6460 O   0  0  0  0  0  0  0  0  0  0  0  0
   10.0045  -16.4251   28.5178 O   0  0  0  0  0  0  0  0  0  0  0  0
  2  1  1  0
  3  2  2  0
  4  3  1  0
  5  4  2  0
  5 11  1  0
  6  5  1  0
  7  6  1  0
  7  8  1  1
  9  7  1  0
  9 10  2  0
 11 12  2  0
 12  2  1  0
 14 13  1  0
 14 15  1  0
 15 16  1  0
 17 16  1  6
 17 19  1  0
 17 18  1  0
 18  9  1  0
 19 20  2  0
 22 24  1  0
 22 21  1  0
 23 22  2  0
 24 25  1  0
 26 25  1  1
 26 28  1  0
 27 26  1  0
 27 19  1  0
 28 29  2  0
 28 30  1  0
M  END
$$$$
