YMQ.pdb
     RDKit          3D

 30 30  0  0  1  0  0  0  0  0999 V2000
    7.6482  -14.0149   15.2461 O   0  0  0  0  0  0  0  0  0  0  0  0
    7.9623  -13.9555   16.5945 C   0  0  0  0  0  0  0  0  0  0  0  0
    7.3089  -13.1022   17.4566 C   0  0  0  0  0  0  0  0  0  0  0  0
    7.6134  -13.0349   18.7998 C   0  0  0  0  0  0  0  0  0  0  0  0
    8.6029  -13.8353   19.3406 C   0  0  0  0  0  0  0  0  0  0  0  0
    8.9582  -13.7933   20.7663 C   0  0  0  0  0  0  0  0  0  0  0  0
    8.8003  -15.1591   21.3976 C   0  0  2  0  0  0  0  0  0  0  0  0
    7.4795  -15.6451   21.0403 N   0  0  0  0  0  0  0  0  0  0  0  0
    8.9646  -15.0965   22.8757 C   0  0  0  0  0  0  0  0  0  0  0  0
   10.0929  -14.7858   23.3772 O   0  0  0  0  0  0  0  0  0  0  0  0
    9.2557  -14.6900   18.4716 C   0  0  0  0  0  0  0  0  0  0  0  0
    8.9609  -14.7657   17.1313 C   0  0  0  0  0  0  0  0  0  0  0  0
    6.3700  -11.7502   27.9832 C   0  0  0  0  0  0  0  0  0  0  0  0
    7.4974  -12.2455   26.6535 S   0  0  0  0  0  0  0  0  0  0  0  0
    6.5227  -13.3502   25.5327 C   0  0  0  0  0  0  0  0  0  0  0  0
    6.8454  -14.7672   25.8592 C   0  0  0  0  0  0  0  0  0  0  0  0
    8.1027  -15.2940   25.2538 C   0  0  2  0  0  0  0  0  0  0  0  0
    7.9217  -15.3667   23.7846 N   0  0  0  0  0  0  0  0  0  0  0  0
    8.5804  -16.5973   25.7487 C   0  0  0  0  0  0  0  0  0  0  0  0
    7.7493  -17.5090   26.0787 O   0  0  0  0  0  0  0  0  0  0  0  0
   14.2539  -19.2828   25.0264 N   0  0  0  0  0  0  0  0  0  0  0  0
   13.6866  -20.0883   26.0376 C   0  0  0  0  0  0  0  0  0  0  0  0
   14.3409  -21.0388   26.5065 O   0  0  0  0  0  0  0  0  0  0  0  0
   12.3050  -19.7803   26.5260 C   0  0  0  0  0  0  0  0  0  0  0  0
   11.7339  -18.5823   25.8299 C   0  0  0  0  0  0  0  0  0  0  0  0
   10.3854  -18.2484   26.3352 C   0  0  2  0  0  0  0  0  0  0  0  0
    9.9249  -16.9406   25.8863 N   0  0  0  0  0  0  0  0  0  0  0  0
   10.3140  -18.3240   27.7878 C   0  0  0  0  0  0  0  0  0  0  0  0
    9.9554  -19.3031   28.4837 O   0  0  0  0  0  0  0  0  0  0  0  0
   10.6795  -17.1952   28.5537 O   0  0  0  0  0  0  0  0  0  0  0  0
  2  1  1  0
  3  2  2  0
  4  3  1  0
  5  4  2  0
  5 11  1  0
  6  5  1  0
  7  6  1  0
  7  8  1  1
  9  7  1  0
  9 10  2  0
 11 12  2  0
 12  2  1  0
 14 13  1  0
 14 15  1  0
 15 16  1  0
 17 16  1  1
 17 19  1  0
 17 18  1  0
 18  9  1  0
 19 20  2  0
 22 24  1  0
 22 21  1  0
 23 22  2  0
 24 25  1  0
 26 25  1  1
 26 28  1  0
 27 26  1  0
 27 19  1  0
 28 29  2  0
 28 30  1  0
M  END
$$$$
