YMQ.pdb
     RDKit          3D

 30 30  0  0  1  0  0  0  0  0999 V2000
    6.8658  -24.2216   29.4888 O   0  0  0  0  0  0  0  0  0  0  0  0
    7.0993  -23.2676   28.5112 C   0  0  0  0  0  0  0  0  0  0  0  0
    7.5908  -23.6045   27.2689 C   0  0  0  0  0  0  0  0  0  0  0  0
    7.8269  -22.6636   26.2890 C   0  0  0  0  0  0  0  0  0  0  0  0
    7.5748  -21.3238   26.5208 C   0  0  0  0  0  0  0  0  0  0  0  0
    7.8136  -20.2900   25.5036 C   0  0  0  0  0  0  0  0  0  0  0  0
    6.5269  -19.5743   25.1556 C   0  0  2  0  0  0  0  0  0  0  0  0
    5.8199  -20.4067   24.1988 N   0  0  0  0  0  0  0  0  0  0  0  0
    6.7927  -18.2219   24.5933 C   0  0  0  0  0  0  0  0  0  0  0  0
    7.0904  -18.0927   23.3621 O   0  0  0  0  0  0  0  0  0  0  0  0
    7.0816  -20.9907   27.7688 C   0  0  0  0  0  0  0  0  0  0  0  0
    6.8424  -21.9196   28.7532 C   0  0  0  0  0  0  0  0  0  0  0  0
    5.1969  -12.3412   27.2171 C   0  0  0  0  0  0  0  0  0  0  0  0
    6.9789  -12.1813   26.9284 S   0  0  0  0  0  0  0  0  0  0  0  0
    7.3791  -13.3139   25.5200 C   0  0  0  0  0  0  0  0  0  0  0  0
    6.9999  -14.7030   25.9010 C   0  0  0  0  0  0  0  0  0  0  0  0
    7.2825  -15.7486   24.8755 C   0  0  2  0  0  0  0  0  0  0  0  0
    6.7348  -17.0387   25.3572 N   0  0  0  0  0  0  0  0  0  0  0  0
    8.6929  -15.9340   24.4903 C   0  0  0  0  0  0  0  0  0  0  0  0
    9.4713  -16.6493   25.2065 O   0  0  0  0  0  0  0  0  0  0  0  0
   11.6499  -14.0159   19.1790 N   0  0  0  0  0  0  0  0  0  0  0  0
   12.6555  -14.7530   19.8413 C   0  0  0  0  0  0  0  0  0  0  0  0
   13.7728  -14.8869   19.3073 O   0  0  0  0  0  0  0  0  0  0  0  0
   12.3550  -15.3600   21.1767 C   0  0  0  0  0  0  0  0  0  0  0  0
   10.9893  -14.9734   21.6576 C   0  0  0  0  0  0  0  0  0  0  0  0
   10.6317  -15.6756   22.9083 C   0  0  2  0  0  0  0  0  0  0  0  0
    9.2765  -15.3764   23.3532 N   0  0  0  0  0  0  0  0  0  0  0  0
   11.5758  -15.3931   23.9806 C   0  0  0  0  0  0  0  0  0  0  0  0
   11.5286  -14.4548   24.8106 O   0  0  0  0  0  0  0  0  0  0  0  0
   12.6923  -16.2402   24.1542 O   0  0  0  0  0  0  0  0  0  0  0  0
  2  1  1  0
  3  2  2  0
  4  3  1  0
  5  4  2  0
  5 11  1  0
  6  5  1  0
  7  6  1  0
  7  8  1  6
  9  7  1  0
  9 10  2  0
 11 12  2  0
 12  2  1  0
 14 13  1  0
 14 15  1  0
 15 16  1  0
 17 16  1  1
 17 19  1  0
 17 18  1  0
 18  9  1  0
 19 20  2  0
 22 24  1  0
 22 21  1  0
 23 22  2  0
 24 25  1  0
 26 25  1  6
 26 28  1  0
 27 26  1  0
 27 19  1  0
 28 29  2  0
 28 30  1  0
M  END
$$$$
