YMQ.pdb
     RDKit          3D

 30 30  0  0  1  0  0  0  0  0999 V2000
    7.6444  -14.3213   14.7041 O   0  0  0  0  0  0  0  0  0  0  0  0
    7.9892  -14.1766   16.0384 C   0  0  0  0  0  0  0  0  0  0  0  0
    7.4412  -13.1894   16.8282 C   0  0  0  0  0  0  0  0  0  0  0  0
    7.7771  -13.0364   18.1568 C   0  0  0  0  0  0  0  0  0  0  0  0
    8.6921  -13.8825   18.7561 C   0  0  0  0  0  0  0  0  0  0  0  0
    9.0776  -13.7523   20.1685 C   0  0  0  0  0  0  0  0  0  0  0  0
    9.0085  -15.0923   20.8676 C   0  0  2  0  0  0  0  0  0  0  0  0
    7.7229  -15.6809   20.5377 N   0  0  0  0  0  0  0  0  0  0  0  0
    9.1663  -14.9450   22.3405 C   0  0  0  0  0  0  0  0  0  0  0  0
   10.3192  -14.7354   22.8385 O   0  0  0  0  0  0  0  0  0  0  0  0
    9.2391  -14.8715   17.9595 C   0  0  0  0  0  0  0  0  0  0  0  0
    8.9121  -15.0337   16.6344 C   0  0  0  0  0  0  0  0  0  0  0  0
    8.3041  -11.5794   27.6097 C   0  0  0  0  0  0  0  0  0  0  0  0
    6.7014  -12.2861   27.1444 S   0  0  0  0  0  0  0  0  0  0  0  0
    7.0158  -14.0667   26.7484 C   0  0  0  0  0  0  0  0  0  0  0  0
    7.0369  -14.2307   25.2680 C   0  0  0  0  0  0  0  0  0  0  0  0
    8.2659  -14.8666   24.7112 C   0  0  2  0  0  0  0  0  0  0  0  0
    8.0907  -15.0248   23.2480 N   0  0  0  0  0  0  0  0  0  0  0  0
    8.6645  -16.1599   25.2946 C   0  0  0  0  0  0  0  0  0  0  0  0
    7.8903  -17.1724   25.2153 O   0  0  0  0  0  0  0  0  0  0  0  0
   11.6702  -21.4040   25.2916 N   0  0  0  0  0  0  0  0  0  0  0  0
   12.4729  -20.2623   25.5046 C   0  0  0  0  0  0  0  0  0  0  0  0
   13.4479  -20.0480   24.7597 O   0  0  0  0  0  0  0  0  0  0  0  0
   12.1324  -19.3304   26.6262 C   0  0  0  0  0  0  0  0  0  0  0  0
   11.7148  -17.9862   26.1119 C   0  0  0  0  0  0  0  0  0  0  0  0
   10.3017  -17.6936   26.4327 C   0  0  2  0  0  0  0  0  0  0  0  0
    9.8745  -16.3868   25.9493 N   0  0  0  0  0  0  0  0  0  0  0  0
   10.0335  -17.8028   27.8599 C   0  0  0  0  0  0  0  0  0  0  0  0
    9.9552  -16.8707   28.6946 O   0  0  0  0  0  0  0  0  0  0  0  0
    9.8288  -19.0807   28.4251 O   0  0  0  0  0  0  0  0  0  0  0  0
  2  1  1  0
  3  2  2  0
  4  3  1  0
  5  4  2  0
  5 11  1  0
  6  5  1  0
  7  6  1  0
  7  8  1  1
  9  7  1  0
  9 10  2  0
 11 12  2  0
 12  2  1  0
 14 13  1  0
 14 15  1  0
 15 16  1  0
 17 16  1  1
 17 19  1  0
 17 18  1  0
 18  9  1  0
 19 20  2  0
 22 24  1  0
 22 21  1  0
 23 22  2  0
 24 25  1  0
 26 25  1  1
 26 28  1  0
 27 26  1  0
 27 19  1  0
 28 29  2  0
 28 30  1  0
M  END
$$$$
