YMQ.pdb
     RDKit          3D

 30 30  0  0  1  0  0  0  0  0999 V2000
    7.6540  -20.3125   15.7306 O   0  0  0  0  0  0  0  0  0  0  0  0
    8.0640  -19.6836   16.8953 C   0  0  0  0  0  0  0  0  0  0  0  0
    7.2689  -19.6455   18.0199 C   0  0  0  0  0  0  0  0  0  0  0  0
    7.6668  -19.0225   19.1839 C   0  0  0  0  0  0  0  0  0  0  0  0
    8.9000  -18.4022   19.2671 C   0  0  0  0  0  0  0  0  0  0  0  0
    9.3610  -17.7267   20.4884 C   0  0  0  0  0  0  0  0  0  0  0  0
    8.6856  -16.3818   20.6435 C   0  0  2  0  0  0  0  0  0  0  0  0
    9.1004  -15.5628   19.5186 N   0  0  0  0  0  0  0  0  0  0  0  0
    9.0482  -15.7378   21.9356 C   0  0  0  0  0  0  0  0  0  0  0  0
   10.1708  -15.1499   22.0598 O   0  0  0  0  0  0  0  0  0  0  0  0
    9.6943  -18.4432   18.1361 C   0  0  0  0  0  0  0  0  0  0  0  0
    9.3084  -19.0610   16.9705 C   0  0  0  0  0  0  0  0  0  0  0  0
    5.7168  -11.6062   27.0118 C   0  0  0  0  0  0  0  0  0  0  0  0
    7.2769  -12.4340   26.6057 S   0  0  0  0  0  0  0  0  0  0  0  0
    7.0299  -13.2205   24.9484 C   0  0  0  0  0  0  0  0  0  0  0  0
    7.3512  -14.6711   25.0549 C   0  0  0  0  0  0  0  0  0  0  0  0
    8.5917  -15.1061   24.3501 C   0  0  2  0  0  0  0  0  0  0  0  0
    8.2052  -15.7358   23.0653 N   0  0  0  0  0  0  0  0  0  0  0  0
    9.4868  -16.0163   25.0863 C   0  0  0  0  0  0  0  0  0  0  0  0
    9.1681  -17.2412   25.2563 O   0  0  0  0  0  0  0  0  0  0  0  0
   16.2973  -18.1002   25.3506 N   0  0  0  0  0  0  0  0  0  0  0  0
   15.2590  -17.1560   25.1968 C   0  0  0  0  0  0  0  0  0  0  0  0
   15.3047  -16.3389   24.2578 O   0  0  0  0  0  0  0  0  0  0  0  0
   14.1211  -17.1584   26.1700 C   0  0  0  0  0  0  0  0  0  0  0  0
   13.1031  -16.1148   25.8227 C   0  0  0  0  0  0  0  0  0  0  0  0
   11.7264  -16.5881   26.0791 C   0  0  2  0  0  0  0  0  0  0  0  0
   10.7137  -15.6402   25.6321 N   0  0  0  0  0  0  0  0  0  0  0  0
   11.5139  -16.9103   27.4834 C   0  0  0  0  0  0  0  0  0  0  0  0
   10.7095  -16.3675   28.2770 O   0  0  0  0  0  0  0  0  0  0  0  0
   12.2724  -17.9450   28.0736 O   0  0  0  0  0  0  0  0  0  0  0  0
  2  1  1  0
  3  2  2  0
  4  3  1  0
  5  4  2  0
  5 11  1  0
  6  5  1  0
  7  6  1  0
  7  8  1  6
  9  7  1  0
  9 10  2  0
 11 12  2  0
 12  2  1  0
 14 13  1  0
 14 15  1  0
 15 16  1  0
 17 16  1  1
 17 19  1  0
 17 18  1  0
 18  9  1  0
 19 20  2  0
 22 24  1  0
 22 21  1  0
 23 22  2  0
 24 25  1  0
 26 25  1  1
 26 28  1  0
 27 26  1  0
 27 19  1  0
 28 29  2  0
 28 30  1  0
M  END
$$$$
