YMQ.pdb
     RDKit          3D

 30 30  0  0  1  0  0  0  0  0999 V2000
    9.2958  -21.8773   17.1338 O   0  0  0  0  0  0  0  0  0  0  0  0
    9.5252  -21.0782   18.2424 C   0  0  0  0  0  0  0  0  0  0  0  0
   10.7386  -20.4613   18.4557 C   0  0  0  0  0  0  0  0  0  0  0  0
   10.9778  -19.6642   19.5552 C   0  0  0  0  0  0  0  0  0  0  0  0
    9.9916  -19.4508   20.5008 C   0  0  0  0  0  0  0  0  0  0  0  0
   10.2065  -18.6093   21.6866 C   0  0  0  0  0  0  0  0  0  0  0  0
    9.6942  -17.2060   21.4469 C   0  0  2  0  0  0  0  0  0  0  0  0
   10.5244  -16.6190   20.4104 N   0  0  0  0  0  0  0  0  0  0  0  0
    9.7387  -16.3916   22.6921 C   0  0  0  0  0  0  0  0  0  0  0  0
   10.8480  -16.2006   23.2874 O   0  0  0  0  0  0  0  0  0  0  0  0
    8.7757  -20.0718   20.2824 C   0  0  0  0  0  0  0  0  0  0  0  0
    8.5258  -20.8683   19.1905 C   0  0  0  0  0  0  0  0  0  0  0  0
    6.7896  -11.1708   27.5116 C   0  0  0  0  0  0  0  0  0  0  0  0
    7.0253  -11.8742   25.8580 S   0  0  0  0  0  0  0  0  0  0  0  0
    7.1942  -13.7026   26.0921 C   0  0  0  0  0  0  0  0  0  0  0  0
    7.3808  -14.3400   24.7589 C   0  0  0  0  0  0  0  0  0  0  0  0
    8.6301  -15.1392   24.5999 C   0  0  2  0  0  0  0  0  0  0  0  0
    8.5992  -15.7998   23.2735 N   0  0  0  0  0  0  0  0  0  0  0  0
    8.9073  -16.1480   25.6378 C   0  0  0  0  0  0  0  0  0  0  0  0
    8.1527  -17.1703   25.7654 O   0  0  0  0  0  0  0  0  0  0  0  0
   14.3232  -17.8702   26.8330 N   0  0  0  0  0  0  0  0  0  0  0  0
   13.4234  -18.3264   25.8454 C   0  0  0  0  0  0  0  0  0  0  0  0
   13.8656  -18.7938   24.7789 O   0  0  0  0  0  0  0  0  0  0  0  0
   11.9510  -18.2379   26.1035 C   0  0  0  0  0  0  0  0  0  0  0  0
   11.6662  -17.6032   27.4308 C   0  0  0  0  0  0  0  0  0  0  0  0
   10.2732  -17.1158   27.5155 C   0  0  2  0  0  0  0  0  0  0  0  0
    9.9776  -16.0844   26.5293 N   0  0  0  0  0  0  0  0  0  0  0  0
    9.9461  -16.6306   28.8491 C   0  0  0  0  0  0  0  0  0  0  0  0
    9.5034  -15.5003   29.1619 O   0  0  0  0  0  0  0  0  0  0  0  0
   10.1274  -17.4883   29.9563 O   0  0  0  0  0  0  0  0  0  0  0  0
  2  1  1  0
  3  2  2  0
  4  3  1  0
  5  4  2  0
  5 11  1  0
  6  5  1  0
  7  6  1  0
  7  8  1  6
  9  7  1  0
  9 10  2  0
 11 12  2  0
 12  2  1  0
 14 13  1  0
 14 15  1  0
 15 16  1  0
 17 16  1  1
 17 19  1  0
 17 18  1  0
 18  9  1  0
 19 20  2  0
 22 24  1  0
 22 21  1  0
 23 22  2  0
 24 25  1  0
 26 25  1  1
 26 28  1  0
 27 26  1  0
 27 19  1  0
 28 29  2  0
 28 30  1  0
M  END
$$$$
