YMQ.pdb
     RDKit          3D

 30 30  0  0  1  0  0  0  0  0999 V2000
    7.3415  -13.9489   14.9201 O   0  0  0  0  0  0  0  0  0  0  0  0
    7.4682  -14.2444   16.2680 C   0  0  0  0  0  0  0  0  0  0  0  0
    7.6233  -13.2580   17.2174 C   0  0  0  0  0  0  0  0  0  0  0  0
    7.7503  -13.5408   18.5610 C   0  0  0  0  0  0  0  0  0  0  0  0
    7.7262  -14.8474   19.0132 C   0  0  0  0  0  0  0  0  0  0  0  0
    7.8592  -15.1909   20.4361 C   0  0  0  0  0  0  0  0  0  0  0  0
    8.8711  -14.2914   21.1115 C   0  0  2  0  0  0  0  0  0  0  0  0
   10.1557  -14.5469   20.4849 N   0  0  0  0  0  0  0  0  0  0  0  0
    8.9314  -14.5461   22.5768 C   0  0  0  0  0  0  0  0  0  0  0  0
    9.9596  -15.1002   23.0839 O   0  0  0  0  0  0  0  0  0  0  0  0
    7.5703  -15.8337   18.0568 C   0  0  0  0  0  0  0  0  0  0  0  0
    7.4428  -15.5639   16.7151 C   0  0  0  0  0  0  0  0  0  0  0  0
    6.1431  -12.2852   28.1511 C   0  0  0  0  0  0  0  0  0  0  0  0
    6.9241  -11.2788   26.8621 S   0  0  0  0  0  0  0  0  0  0  0  0
    6.7462  -12.2296   25.2838 C   0  0  0  0  0  0  0  0  0  0  0  0
    6.8629  -13.6835   25.5859 C   0  0  0  0  0  0  0  0  0  0  0  0
    8.0075  -14.3835   24.9342 C   0  0  2  0  0  0  0  0  0  0  0  0
    7.8938  -14.2041   23.4674 N   0  0  0  0  0  0  0  0  0  0  0  0
    8.1655  -15.8172   25.2365 C   0  0  0  0  0  0  0  0  0  0  0  0
    7.1578  -16.6009   25.2048 O   0  0  0  0  0  0  0  0  0  0  0  0
   13.3614  -17.2007   23.4427 N   0  0  0  0  0  0  0  0  0  0  0  0
   12.7062  -18.3188   24.0028 C   0  0  0  0  0  0  0  0  0  0  0  0
   12.8324  -19.4370   23.4689 O   0  0  0  0  0  0  0  0  0  0  0  0
   11.8706  -18.1344   25.2316 C   0  0  0  0  0  0  0  0  0  0  0  0
   10.4491  -18.5442   24.9922 C   0  0  0  0  0  0  0  0  0  0  0  0
    9.5169  -17.8347   25.8938 C   0  0  2  0  0  0  0  0  0  0  0  0
    9.3791  -16.4224   25.5615 N   0  0  0  0  0  0  0  0  0  0  0  0
    9.8976  -17.9769   27.2922 C   0  0  0  0  0  0  0  0  0  0  0  0
   10.1760  -17.0626   28.1035 O   0  0  0  0  0  0  0  0  0  0  0  0
    9.9784  -19.2698   27.8546 O   0  0  0  0  0  0  0  0  0  0  0  0
  2  1  1  0
  3  2  2  0
  4  3  1  0
  5  4  2  0
  5 11  1  0
  6  5  1  0
  7  6  1  0
  7  8  1  6
  9  7  1  0
  9 10  2  0
 11 12  2  0
 12  2  1  0
 14 13  1  0
 14 15  1  0
 15 16  1  0
 17 16  1  1
 17 19  1  0
 17 18  1  0
 18  9  1  0
 19 20  2  0
 22 24  1  0
 22 21  1  0
 23 22  2  0
 24 25  1  0
 26 25  1  6
 26 28  1  0
 27 26  1  0
 27 19  1  0
 28 29  2  0
 28 30  1  0
M  END
$$$$
