YMQ.pdb
     RDKit          3D

 30 30  0  0  1  0  0  0  0  0999 V2000
   10.6215  -14.5220   31.5919 O   0  0  0  0  0  0  0  0  0  0  0  0
   10.4614  -14.9515   30.2842 C   0  0  0  0  0  0  0  0  0  0  0  0
    9.9079  -14.1427   29.3157 C   0  0  0  0  0  0  0  0  0  0  0  0
    9.7438  -14.5599   28.0117 C   0  0  0  0  0  0  0  0  0  0  0  0
   10.1353  -15.8273   27.6210 C   0  0  0  0  0  0  0  0  0  0  0  0
    9.9769  -16.3103   26.2418 C   0  0  0  0  0  0  0  0  0  0  0  0
    8.5123  -16.4311   25.8821 C   0  0  2  0  0  0  0  0  0  0  0  0
    7.9947  -17.5935   26.5816 N   0  0  0  0  0  0  0  0  0  0  0  0
    8.3236  -16.5648   24.4116 C   0  0  0  0  0  0  0  0  0  0  0  0
    8.4048  -17.7104   23.8618 O   0  0  0  0  0  0  0  0  0  0  0  0
   10.6902  -16.6351   28.5963 C   0  0  0  0  0  0  0  0  0  0  0  0
   10.8587  -16.2303   29.8990 C   0  0  0  0  0  0  0  0  0  0  0  0
    7.2664  -12.5252   17.6600 C   0  0  0  0  0  0  0  0  0  0  0  0
    7.0327  -12.6084   19.4552 S   0  0  0  0  0  0  0  0  0  0  0  0
    7.8597  -14.1674   20.0135 C   0  0  0  0  0  0  0  0  0  0  0  0
    7.7369  -14.2698   21.4944 C   0  0  0  0  0  0  0  0  0  0  0  0
    8.2545  -15.5335   22.0945 C   0  0  2  0  0  0  0  0  0  0  0  0
    8.0527  -15.4735   23.5616 N   0  0  0  0  0  0  0  0  0  0  0  0
    9.6603  -15.8734   21.8119 C   0  0  0  0  0  0  0  0  0  0  0  0
   10.6074  -15.2716   22.4215 O   0  0  0  0  0  0  0  0  0  0  0  0
   10.3949  -20.8957   21.6553 N   0  0  0  0  0  0  0  0  0  0  0  0
   11.2421  -20.2871   22.6066 C   0  0  0  0  0  0  0  0  0  0  0  0
   11.3897  -20.8143   23.7254 O   0  0  0  0  0  0  0  0  0  0  0  0
   11.9475  -19.0160   22.2477 C   0  0  0  0  0  0  0  0  0  0  0  0
   11.7143  -18.6480   20.8137 C   0  0  0  0  0  0  0  0  0  0  0  0
   11.4577  -17.2008   20.6561 C   0  0  2  0  0  0  0  0  0  0  0  0
   10.0649  -16.8470   20.8994 N   0  0  0  0  0  0  0  0  0  0  0  0
   11.8679  -16.7145   19.3461 C   0  0  0  0  0  0  0  0  0  0  0  0
   13.0218  -16.7243   18.8562 O   0  0  0  0  0  0  0  0  0  0  0  0
   10.8972  -16.1580   18.4845 O   0  0  0  0  0  0  0  0  0  0  0  0
  2  1  1  0
  3  2  2  0
  4  3  1  0
  5  4  2  0
  5 11  1  0
  6  5  1  0
  7  6  1  0
  7  8  1  1
  9  7  1  0
  9 10  2  0
 11 12  2  0
 12  2  1  0
 14 13  1  0
 14 15  1  0
 15 16  1  0
 17 16  1  6
 17 19  1  0
 17 18  1  0
 18  9  1  0
 19 20  2  0
 22 24  1  0
 22 21  1  0
 23 22  2  0
 24 25  1  0
 26 25  1  6
 26 28  1  0
 27 26  1  0
 27 19  1  0
 28 29  2  0
 28 30  1  0
M  END
$$$$
