YMQ.pdb
     RDKit          3D

 30 30  0  0  1  0  0  0  0  0999 V2000
    8.8901  -11.9069   18.1048 O   0  0  0  0  0  0  0  0  0  0  0  0
    8.5102  -13.0940   18.7104 C   0  0  0  0  0  0  0  0  0  0  0  0
    9.4084  -14.1134   18.9396 C   0  0  0  0  0  0  0  0  0  0  0  0
    9.0412  -15.2986   19.5413 C   0  0  0  0  0  0  0  0  0  0  0  0
    7.7355  -15.5116   19.9438 C   0  0  0  0  0  0  0  0  0  0  0  0
    7.3036  -16.7604   20.5875 C   0  0  0  0  0  0  0  0  0  0  0  0
    6.3741  -16.4717   21.7458 C   0  0  2  0  0  0  0  0  0  0  0  0
    5.2044  -15.8070   21.1999 N   0  0  0  0  0  0  0  0  0  0  0  0
    7.0368  -15.6261   22.7761 C   0  0  0  0  0  0  0  0  0  0  0  0
    7.6890  -14.5904   22.4250 O   0  0  0  0  0  0  0  0  0  0  0  0
    6.8380  -14.4857   19.7118 C   0  0  0  0  0  0  0  0  0  0  0  0
    7.1923  -13.3003   19.1130 C   0  0  0  0  0  0  0  0  0  0  0  0
    6.1919  -11.4874   26.7722 C   0  0  0  0  0  0  0  0  0  0  0  0
    7.0473  -12.5225   27.9892 S   0  0  0  0  0  0  0  0  0  0  0  0
    8.1036  -13.6945   27.0212 C   0  0  0  0  0  0  0  0  0  0  0  0
    7.2583  -14.3613   25.9919 C   0  0  0  0  0  0  0  0  0  0  0  0
    7.9653  -15.3438   25.1203 C   0  0  2  0  0  0  0  0  0  0  0  0
    6.9886  -15.9047   24.1570 N   0  0  0  0  0  0  0  0  0  0  0  0
    8.6651  -16.4483   25.8001 C   0  0  0  0  0  0  0  0  0  0  0  0
    8.0081  -17.4289   26.2876 O   0  0  0  0  0  0  0  0  0  0  0  0
   11.5843  -21.1389   24.6754 N   0  0  0  0  0  0  0  0  0  0  0  0
   12.1973  -19.8689   24.7420 C   0  0  0  0  0  0  0  0  0  0  0  0
   12.4842  -19.2683   23.6891 O   0  0  0  0  0  0  0  0  0  0  0  0
   12.4899  -19.2697   26.0827 C   0  0  0  0  0  0  0  0  0  0  0  0
   12.1127  -17.8200   26.1272 C   0  0  0  0  0  0  0  0  0  0  0  0
   10.7306  -17.6301   26.6159 C   0  0  2  0  0  0  0  0  0  0  0  0
   10.0486  -16.5232   25.9573 N   0  0  0  0  0  0  0  0  0  0  0  0
   10.6838  -17.4483   28.0601 C   0  0  0  0  0  0  0  0  0  0  0  0
   10.5451  -18.3344   28.9360 O   0  0  0  0  0  0  0  0  0  0  0  0
   10.8041  -16.1462   28.5933 O   0  0  0  0  0  0  0  0  0  0  0  0
  2  1  1  0
  3  2  2  0
  4  3  1  0
  5  4  2  0
  5 11  1  0
  6  5  1  0
  7  6  1  0
  7  8  1  6
  9  7  1  0
  9 10  2  0
 11 12  2  0
 12  2  1  0
 14 13  1  0
 14 15  1  0
 15 16  1  0
 17 16  1  1
 17 19  1  0
 17 18  1  0
 18  9  1  0
 19 20  2  0
 22 24  1  0
 22 21  1  0
 23 22  2  0
 24 25  1  0
 26 25  1  6
 26 28  1  0
 27 26  1  0
 27 19  1  0
 28 29  2  0
 28 30  1  0
M  END
$$$$
