YMQ.pdb
     RDKit          3D

 30 30  0  0  1  0  0  0  0  0999 V2000
    9.4853  -20.1463   15.0861 O   0  0  0  0  0  0  0  0  0  0  0  0
    9.6264  -19.5849   16.3451 C   0  0  0  0  0  0  0  0  0  0  0  0
    8.5573  -19.4448   17.2029 C   0  0  0  0  0  0  0  0  0  0  0  0
    8.6864  -18.8877   18.4576 C   0  0  0  0  0  0  0  0  0  0  0  0
    9.9148  -18.4412   18.9093 C   0  0  0  0  0  0  0  0  0  0  0  0
   10.0943  -17.8410   20.2389 C   0  0  0  0  0  0  0  0  0  0  0  0
    9.5888  -16.4151   20.2550 C   0  0  2  0  0  0  0  0  0  0  0  0
   10.3579  -15.6777   19.2686 N   0  0  0  0  0  0  0  0  0  0  0  0
    9.7276  -15.8049   21.6056 C   0  0  0  0  0  0  0  0  0  0  0  0
   10.8852  -15.5705   22.0813 O   0  0  0  0  0  0  0  0  0  0  0  0
   10.9846  -18.5841   18.0450 C   0  0  0  0  0  0  0  0  0  0  0  0
   10.8681  -19.1377   16.7924 C   0  0  0  0  0  0  0  0  0  0  0  0
    6.1234  -11.1975   25.8437 C   0  0  0  0  0  0  0  0  0  0  0  0
    7.7317  -11.9765   25.5419 S   0  0  0  0  0  0  0  0  0  0  0  0
    7.4428  -13.8036   25.6084 C   0  0  0  0  0  0  0  0  0  0  0  0
    7.4766  -14.3438   24.2206 C   0  0  0  0  0  0  0  0  0  0  0  0
    8.7864  -14.9087   23.7847 C   0  0  2  0  0  0  0  0  0  0  0  0
    8.6286  -15.4589   22.4175 N   0  0  0  0  0  0  0  0  0  0  0  0
    9.3869  -15.9358   24.6544 C   0  0  0  0  0  0  0  0  0  0  0  0
    8.6779  -16.8967   25.1068 O   0  0  0  0  0  0  0  0  0  0  0  0
   10.1883  -15.7288   31.0854 N   0  0  0  0  0  0  0  0  0  0  0  0
   10.3771  -15.0959   29.8377 C   0  0  0  0  0  0  0  0  0  0  0  0
    9.8824  -13.9704   29.6376 O   0  0  0  0  0  0  0  0  0  0  0  0
   11.1716  -15.7948   28.7782 C   0  0  0  0  0  0  0  0  0  0  0  0
   10.7583  -15.3555   27.4064 C   0  0  0  0  0  0  0  0  0  0  0  0
   11.1837  -16.3222   26.3720 C   0  0  2  0  0  0  0  0  0  0  0  0
   10.7275  -15.9547   25.0376 N   0  0  0  0  0  0  0  0  0  0  0  0
   10.7534  -17.6780   26.6839 C   0  0  0  0  0  0  0  0  0  0  0  0
    9.6177  -18.1777   26.5049 O   0  0  0  0  0  0  0  0  0  0  0  0
   11.6792  -18.5789   27.2545 O   0  0  0  0  0  0  0  0  0  0  0  0
  2  1  1  0
  3  2  2  0
  4  3  1  0
  5  4  2  0
  5 11  1  0
  6  5  1  0
  7  6  1  0
  7  8  1  6
  9  7  1  0
  9 10  2  0
 11 12  2  0
 12  2  1  0
 14 13  1  0
 14 15  1  0
 15 16  1  0
 17 16  1  1
 17 19  1  0
 17 18  1  0
 18  9  1  0
 19 20  2  0
 22 24  1  0
 22 21  1  0
 23 22  2  0
 24 25  1  0
 26 25  1  1
 26 28  1  0
 27 26  1  0
 27 19  1  0
 28 29  2  0
 28 30  1  0
M  END
$$$$
