IFI.pdb
     RDKit          3D

 28 28  0  0  1  0  0  0  0  0999 V2000
   12.2937  -20.6572   19.9023 C   0  0  0  0  0  0  0  0  0  0  0  0
   11.4408  -19.4671   19.6164 C   0  0  0  0  0  0  0  0  0  0  0  0
   11.2892  -18.5079   20.7704 C   0  0  2  0  0  0  0  0  0  0  0  0
   10.8752  -19.2977   21.9812 C   0  0  0  0  0  0  0  0  0  0  0  0
   10.3328  -17.4301   20.3948 C   0  0  2  0  0  0  0  0  0  0  0  0
   10.7672  -16.8129   19.1644 N   0  0  0  0  0  0  0  0  0  0  0  0
   10.1349  -16.4275   21.4774 C   0  0  0  0  0  0  0  0  0  0  0  0
   11.0041  -15.5493   21.6176 O   0  0  0  0  0  0  0  0  0  0  0  0
    9.0265  -16.4321   22.3324 N   0  0  0  0  0  0  0  0  0  0  0  0
    8.7807  -15.4891   23.3914 C   0  0  1  0  0  0  0  0  0  0  0  0
    7.3475  -15.1209   23.5662 C   0  0  0  0  0  0  0  0  0  0  0  0
    7.0470  -14.1837   24.6281 C   0  0  0  0  0  0  0  0  0  0  0  0
    7.4825  -12.8814   24.5797 C   0  0  0  0  0  0  0  0  0  0  0  0
    7.1770  -12.0181   25.6072 C   0  0  0  0  0  0  0  0  0  0  0  0
    6.4353  -12.4157   26.7072 C   0  0  0  0  0  0  0  0  0  0  0  0
    6.0033  -13.7205   26.7479 C   0  0  0  0  0  0  0  0  0  0  0  0
    6.3062  -14.6033   25.7144 C   0  0  0  0  0  0  0  0  0  0  0  0
    9.2119  -16.1681   24.6660 C   0  0  0  0  0  0  0  0  0  0  0  0
    9.0149  -17.4054   24.7927 O   0  0  0  0  0  0  0  0  0  0  0  0
   10.5623  -12.9693   29.0485 C   0  0  0  0  0  0  0  0  0  0  0  0
   10.7289  -13.8504   27.8201 C   0  0  0  0  0  0  0  0  0  0  0  0
   10.3372  -15.2776   28.1097 C   0  0  2  0  0  0  0  0  0  0  0  0
   11.1574  -15.7944   29.2609 C   0  0  0  0  0  0  0  0  0  0  0  0
   10.3847  -16.1519   26.9058 C   0  0  2  0  0  0  0  0  0  0  0  0
    9.8267  -15.4769   25.7226 N   0  0  0  0  0  0  0  0  0  0  0  0
    9.7059  -17.4482   27.0635 C   0  0  0  0  0  0  0  0  0  0  0  0
   10.3014  -18.5244   27.2985 O   0  0  0  0  0  0  0  0  0  0  0  0
    8.3279  -17.5141   26.9510 O   0  0  0  0  0  0  0  0  0  0  0  0
  1  2  1  0
  3  5  1  0
  3  4  1  1
  3  2  1  0
  5  6  1  6
  7  8  2  0
  7  5  1  0
  9  7  1  0
 10  9  1  0
 11 12  1  0
 10 11  1  1
 12 13  2  0
 12 17  1  0
 13 14  1  0
 14 15  2  0
 16 15  1  0
 17 16  2  0
 18 19  2  0
 18 10  1  0
 20 21  1  0
 21 22  1  0
 22 24  1  0
 22 23  1  1
 24 26  1  0
 24 25  1  6
 25 18  1  0
 26 28  1  0
 27 26  2  0
M  END
$$$$
