IFI.pdb
     RDKit          3D

 28 28  0  0  1  0  0  0  0  0999 V2000
   10.9743  -20.2463   21.7866 C   0  0  0  0  0  0  0  0  0  0  0  0
   10.8714  -18.8220   21.3548 C   0  0  0  0  0  0  0  0  0  0  0  0
    9.5149  -18.4172   20.8344 C   0  0  2  0  0  0  0  0  0  0  0  0
    9.1843  -19.2976   19.6611 C   0  0  0  0  0  0  0  0  0  0  0  0
    9.5214  -16.9624   20.5167 C   0  0  2  0  0  0  0  0  0  0  0  0
   10.5920  -16.6801   19.5906 N   0  0  0  0  0  0  0  0  0  0  0  0
    9.5988  -16.1042   21.7307 C   0  0  0  0  0  0  0  0  0  0  0  0
   10.7262  -15.7469   22.1149 O   0  0  0  0  0  0  0  0  0  0  0  0
    8.4708  -15.6883   22.4480 N   0  0  0  0  0  0  0  0  0  0  0  0
    8.4832  -14.8497   23.6175 C   0  0  1  0  0  0  0  0  0  0  0  0
    7.1455  -14.3258   24.0124 C   0  0  0  0  0  0  0  0  0  0  0  0
    7.1107  -13.4458   25.1615 C   0  0  0  0  0  0  0  0  0  0  0  0
    7.7540  -12.2318   25.1549 C   0  0  0  0  0  0  0  0  0  0  0  0
    7.6984  -11.4208   26.2655 C   0  0  0  0  0  0  0  0  0  0  0  0
    7.0082  -11.7851   27.4097 C   0  0  0  0  0  0  0  0  0  0  0  0
    6.3672  -13.0016   27.4082 C   0  0  0  0  0  0  0  0  0  0  0  0
    6.4163  -13.8308   26.2906 C   0  0  0  0  0  0  0  0  0  0  0  0
    8.9599  -15.7196   24.7523 C   0  0  0  0  0  0  0  0  0  0  0  0
    8.3867  -16.8222   24.9555 O   0  0  0  0  0  0  0  0  0  0  0  0
   14.0342  -16.6564   24.7208 C   0  0  0  0  0  0  0  0  0  0  0  0
   12.5239  -16.6604   24.9001 C   0  0  0  0  0  0  0  0  0  0  0  0
   12.1381  -16.3435   26.3232 C   0  0  2  0  0  0  0  0  0  0  0  0
   12.8408  -17.2961   27.2525 C   0  0  0  0  0  0  0  0  0  0  0  0
   10.6649  -16.2885   26.5302 C   0  0  2  0  0  0  0  0  0  0  0  0
   10.0202  -15.3512   25.5960 N   0  0  0  0  0  0  0  0  0  0  0  0
   10.2518  -15.9375   27.8985 C   0  0  0  0  0  0  0  0  0  0  0  0
   10.0353  -14.7659   28.2838 O   0  0  0  0  0  0  0  0  0  0  0  0
   10.0844  -16.9400   28.8381 O   0  0  0  0  0  0  0  0  0  0  0  0
  1  2  1  0
  3  5  1  0
  3  4  1  6
  3  2  1  0
  5  6  1  6
  7  8  2  0
  7  5  1  0
  9  7  1  0
 10  9  1  0
 11 12  1  0
 10 11  1  1
 12 13  2  0
 12 17  1  0
 13 14  1  0
 14 15  2  0
 16 15  1  0
 17 16  2  0
 18 19  2  0
 18 10  1  0
 20 21  1  0
 21 22  1  0
 22 24  1  0
 22 23  1  1
 24 26  1  0
 24 25  1  6
 25 18  1  0
 26 28  1  0
 27 26  2  0
M  END
$$$$
