IFI.pdb
     RDKit          3D

 28 28  0  0  1  0  0  0  0  0999 V2000
   13.0519  -20.6246   20.2411 C   0  0  0  0  0  0  0  0  0  0  0  0
   12.2111  -19.4557   19.8510 C   0  0  0  0  0  0  0  0  0  0  0  0
   11.8474  -18.5331   20.9874 C   0  0  2  0  0  0  0  0  0  0  0  0
   11.2555  -19.3649   22.0914 C   0  0  0  0  0  0  0  0  0  0  0  0
   10.9427  -17.4625   20.4847 C   0  0  2  0  0  0  0  0  0  0  0  0
   11.5475  -16.8239   19.3401 N   0  0  0  0  0  0  0  0  0  0  0  0
   10.5706  -16.4767   21.5364 C   0  0  0  0  0  0  0  0  0  0  0  0
   11.4028  -15.5991   21.8262 O   0  0  0  0  0  0  0  0  0  0  0  0
    9.3402  -16.4961   22.2037 N   0  0  0  0  0  0  0  0  0  0  0  0
    8.9308  -15.5788   23.2342 C   0  0  1  0  0  0  0  0  0  0  0  0
    7.4750  -15.2617   23.2321 C   0  0  0  0  0  0  0  0  0  0  0  0
    7.0328  -14.2535   24.1724 C   0  0  0  0  0  0  0  0  0  0  0  0
    7.3562  -12.9283   24.0078 C   0  0  0  0  0  0  0  0  0  0  0  0
    6.9175  -11.9973   24.9216 C   0  0  0  0  0  0  0  0  0  0  0  0
    6.1496  -12.3481   26.0196 C   0  0  0  0  0  0  0  0  0  0  0  0
    5.8304  -13.6763   26.1770 C   0  0  0  0  0  0  0  0  0  0  0  0
    6.2685  -14.6275   25.2592 C   0  0  0  0  0  0  0  0  0  0  0  0
    9.2230  -16.2631   24.5449 C   0  0  0  0  0  0  0  0  0  0  0  0
    9.2029  -17.5213   24.5918 O   0  0  0  0  0  0  0  0  0  0  0  0
   10.1576  -12.9276   28.9366 C   0  0  0  0  0  0  0  0  0  0  0  0
   10.4137  -13.8643   27.7661 C   0  0  0  0  0  0  0  0  0  0  0  0
   10.0254  -15.2825   28.1015 C   0  0  2  0  0  0  0  0  0  0  0  0
   10.8494  -15.7612   29.2663 C   0  0  0  0  0  0  0  0  0  0  0  0
   10.0717  -16.1941   26.9255 C   0  0  2  0  0  0  0  0  0  0  0  0
    9.5178  -15.5545   25.7209 N   0  0  0  0  0  0  0  0  0  0  0  0
    9.3882  -17.4825   27.1226 C   0  0  0  0  0  0  0  0  0  0  0  0
    8.1626  -17.6587   26.9359 O   0  0  0  0  0  0  0  0  0  0  0  0
   10.1164  -18.5837   27.5387 O   0  0  0  0  0  0  0  0  0  0  0  0
  1  2  1  0
  3  5  1  0
  3  4  1  1
  3  2  1  0
  5  6  1  6
  7  8  2  0
  7  5  1  0
  9  7  1  0
 10  9  1  0
 11 12  1  0
 10 11  1  6
 12 13  2  0
 12 17  1  0
 13 14  1  0
 14 15  2  0
 16 15  1  0
 17 16  2  0
 18 19  2  0
 18 10  1  0
 20 21  1  0
 21 22  1  0
 22 24  1  0
 22 23  1  1
 24 26  1  0
 24 25  1  6
 25 18  1  0
 26 28  1  0
 27 26  2  0
M  END
$$$$
