IFI.pdb
     RDKit          3D

 28 28  0  0  1  0  0  0  0  0999 V2000
   13.0302  -20.6582   20.2798 C   0  0  0  0  0  0  0  0  0  0  0  0
   12.0945  -19.5638   19.8893 C   0  0  0  0  0  0  0  0  0  0  0  0
   11.8119  -18.5576   20.9767 C   0  0  2  0  0  0  0  0  0  0  0  0
   11.4009  -19.3100   22.2121 C   0  0  0  0  0  0  0  0  0  0  0  0
   10.7947  -17.5824   20.4955 C   0  0  2  0  0  0  0  0  0  0  0  0
   11.2369  -17.0067   19.2479 N   0  0  0  0  0  0  0  0  0  0  0  0
   10.4717  -16.5362   21.5043 C   0  0  0  0  0  0  0  0  0  0  0  0
   11.3122  -15.6401   21.6968 O   0  0  0  0  0  0  0  0  0  0  0  0
    9.2780  -16.5194   22.2352 N   0  0  0  0  0  0  0  0  0  0  0  0
    8.9447  -15.5819   23.2750 C   0  0  1  0  0  0  0  0  0  0  0  0
    7.4878  -15.2968   23.4018 C   0  0  0  0  0  0  0  0  0  0  0  0
    7.1067  -14.3135   24.3938 C   0  0  0  0  0  0  0  0  0  0  0  0
    7.4840  -12.9971   24.2807 C   0  0  0  0  0  0  0  0  0  0  0  0
    7.1025  -12.0898   25.2427 C   0  0  0  0  0  0  0  0  0  0  0  0
    6.3402  -12.4561   26.3394 C   0  0  0  0  0  0  0  0  0  0  0  0
    5.9667  -13.7753   26.4452 C   0  0  0  0  0  0  0  0  0  0  0  0
    6.3467  -14.7025   25.4783 C   0  0  0  0  0  0  0  0  0  0  0  0
    9.3751  -16.2216   24.5701 C   0  0  0  0  0  0  0  0  0  0  0  0
    9.3301  -17.4758   24.6733 O   0  0  0  0  0  0  0  0  0  0  0  0
   10.2452  -12.8430   28.9364 C   0  0  0  0  0  0  0  0  0  0  0  0
   10.4924  -13.7437   27.7360 C   0  0  0  0  0  0  0  0  0  0  0  0
   10.2278  -15.1903   28.0701 C   0  0  2  0  0  0  0  0  0  0  0  0
   11.0840  -15.5949   29.2399 C   0  0  0  0  0  0  0  0  0  0  0  0
   10.3602  -16.0946   26.8950 C   0  0  2  0  0  0  0  0  0  0  0  0
    9.8260  -15.4756   25.6710 N   0  0  0  0  0  0  0  0  0  0  0  0
    9.7273  -17.4127   27.0626 C   0  0  0  0  0  0  0  0  0  0  0  0
   10.3509  -18.4521   27.3768 O   0  0  0  0  0  0  0  0  0  0  0  0
    8.3631  -17.5433   26.8682 O   0  0  0  0  0  0  0  0  0  0  0  0
  1  2  1  0
  3  5  1  0
  3  4  1  1
  3  2  1  0
  5  6  1  6
  7  8  2  0
  7  5  1  0
  9  7  1  0
 10  9  1  0
 11 12  1  0
 10 11  1  1
 12 13  2  0
 12 17  1  0
 13 14  1  0
 14 15  2  0
 16 15  1  0
 17 16  2  0
 18 19  2  0
 18 10  1  0
 20 21  1  0
 21 22  1  0
 22 24  1  0
 22 23  1  1
 24 26  1  0
 24 25  1  6
 25 18  1  0
 26 28  1  0
 27 26  2  0
M  END
$$$$
