IFI.pdb
     RDKit          3D

 28 28  0  0  1  0  0  0  0  0999 V2000
    9.5283  -20.6342   21.2289 C   0  0  0  0  0  0  0  0  0  0  0  0
    9.0938  -19.2434   20.9088 C   0  0  0  0  0  0  0  0  0  0  0  0
    7.6037  -19.0181   20.9711 C   0  0  2  0  0  0  0  0  0  0  0  0
    6.9429  -20.0200   20.0652 C   0  0  0  0  0  0  0  0  0  0  0  0
    7.3034  -17.6007   20.6272 C   0  0  2  0  0  0  0  0  0  0  0  0
    7.8040  -17.3134   19.3041 N   0  0  0  0  0  0  0  0  0  0  0  0
    7.8216  -16.6369   21.6366 C   0  0  0  0  0  0  0  0  0  0  0  0
    8.9262  -16.1093   21.4181 O   0  0  0  0  0  0  0  0  0  0  0  0
    7.1268  -16.3045   22.8056 N   0  0  0  0  0  0  0  0  0  0  0  0
    7.5916  -15.4078   23.8308 C   0  0  1  0  0  0  0  0  0  0  0  0
    6.5122  -14.8410   24.6873 C   0  0  0  0  0  0  0  0  0  0  0  0
    6.9213  -13.8781   25.6881 C   0  0  0  0  0  0  0  0  0  0  0  0
    7.3274  -14.2732   26.9398 C   0  0  0  0  0  0  0  0  0  0  0  0
    7.7103  -13.3296   27.8657 C   0  0  0  0  0  0  0  0  0  0  0  0
    7.7027  -11.9740   27.5819 C   0  0  0  0  0  0  0  0  0  0  0  0
    7.2948  -11.5869   26.3271 C   0  0  0  0  0  0  0  0  0  0  0  0
    6.9051  -12.5323   25.3819 C   0  0  0  0  0  0  0  0  0  0  0  0
    8.4766  -16.2270   24.7348 C   0  0  0  0  0  0  0  0  0  0  0  0
    8.0433  -17.3222   25.1804 O   0  0  0  0  0  0  0  0  0  0  0  0
   13.5150  -16.2541   23.0527 C   0  0  0  0  0  0  0  0  0  0  0  0
   12.1299  -16.5558   23.6034 C   0  0  0  0  0  0  0  0  0  0  0  0
   12.1168  -16.5166   25.1110 C   0  0  2  0  0  0  0  0  0  0  0  0
   13.1567  -17.4663   25.6419 C   0  0  0  0  0  0  0  0  0  0  0  0
   10.7623  -16.7341   25.6890 C   0  0  2  0  0  0  0  0  0  0  0  0
    9.7690  -15.8194   25.1029 N   0  0  0  0  0  0  0  0  0  0  0  0
   10.6956  -16.6142   27.1543 C   0  0  0  0  0  0  0  0  0  0  0  0
   10.9327  -17.5568   27.9437 O   0  0  0  0  0  0  0  0  0  0  0  0
   10.3532  -15.3999   27.7239 O   0  0  0  0  0  0  0  0  0  0  0  0
  1  2  1  0
  3  5  1  0
  3  4  1  6
  3  2  1  0
  5  6  1  6
  7  8  2  0
  7  5  1  0
  9  7  1  0
 10  9  1  0
 11 12  1  0
 10 11  1  1
 12 13  2  0
 12 17  1  0
 13 14  1  0
 14 15  2  0
 16 15  1  0
 17 16  2  0
 18 19  2  0
 18 10  1  0
 20 21  1  0
 21 22  1  0
 22 24  1  0
 22 23  1  1
 24 26  1  0
 24 25  1  6
 25 18  1  0
 26 28  1  0
 27 26  2  0
M  END
$$$$
