IFI.pdb
     RDKit          3D

 28 28  0  0  1  0  0  0  0  0999 V2000
   13.7608  -19.5055   19.4164 C   0  0  0  0  0  0  0  0  0  0  0  0
   12.4718  -18.7659   19.2853 C   0  0  0  0  0  0  0  0  0  0  0  0
   12.1421  -17.8625   20.4472 C   0  0  2  0  0  0  0  0  0  0  0  0
   12.2524  -18.6698   21.7110 C   0  0  0  0  0  0  0  0  0  0  0  0
   10.8004  -17.2526   20.2338 C   0  0  2  0  0  0  0  0  0  0  0  0
   10.7459  -16.6663   18.9159 N   0  0  0  0  0  0  0  0  0  0  0  0
   10.4348  -16.2712   21.2919 C   0  0  0  0  0  0  0  0  0  0  0  0
   11.0851  -15.2128   21.3481 O   0  0  0  0  0  0  0  0  0  0  0  0
    9.4036  -16.4873   22.2138 N   0  0  0  0  0  0  0  0  0  0  0  0
    8.9879  -15.5656   23.2379 C   0  0  1  0  0  0  0  0  0  0  0  0
    7.5281  -15.2678   23.2411 C   0  0  0  0  0  0  0  0  0  0  0  0
    7.0647  -14.3216   24.2342 C   0  0  0  0  0  0  0  0  0  0  0  0
    6.3452  -14.7284   25.3317 C   0  0  0  0  0  0  0  0  0  0  0  0
    5.9217  -13.8006   26.2559 C   0  0  0  0  0  0  0  0  0  0  0  0
    6.1963  -12.4497   26.1222 C   0  0  0  0  0  0  0  0  0  0  0  0
    6.9169  -12.0508   25.0210 C   0  0  0  0  0  0  0  0  0  0  0  0
    7.3507  -12.9802   24.0792 C   0  0  0  0  0  0  0  0  0  0  0  0
    9.2965  -16.2334   24.5534 C   0  0  0  0  0  0  0  0  0  0  0  0
    9.3299  -17.4912   24.6039 O   0  0  0  0  0  0  0  0  0  0  0  0
   10.4796  -12.7926   28.8280 C   0  0  0  0  0  0  0  0  0  0  0  0
   10.6785  -13.7825   27.6906 C   0  0  0  0  0  0  0  0  0  0  0  0
   10.1904  -15.1588   28.0676 C   0  0  2  0  0  0  0  0  0  0  0  0
   10.9755  -15.6578   29.2507 C   0  0  0  0  0  0  0  0  0  0  0  0
   10.1756  -16.1075   26.9205 C   0  0  2  0  0  0  0  0  0  0  0  0
    9.5495  -15.5097   25.7299 N   0  0  0  0  0  0  0  0  0  0  0  0
    9.5132  -17.3923   27.1974 C   0  0  0  0  0  0  0  0  0  0  0  0
   10.1107  -18.4106   27.6146 O   0  0  0  0  0  0  0  0  0  0  0  0
    8.1493  -17.5136   26.9943 O   0  0  0  0  0  0  0  0  0  0  0  0
  1  2  1  0
  3  5  1  0
  3  4  1  1
  3  2  1  0
  5  6  1  6
  7  8  2  0
  7  5  1  0
  9  7  1  0
 10  9  1  0
 11 12  1  0
 10 11  1  1
 12 13  2  0
 12 17  1  0
 13 14  1  0
 14 15  2  0
 16 15  1  0
 17 16  2  0
 18 19  2  0
 18 10  1  0
 20 21  1  0
 21 22  1  0
 22 24  1  0
 22 23  1  1
 24 26  1  0
 24 25  1  6
 25 18  1  0
 26 28  1  0
 27 26  2  0
M  END
$$$$
