IFI.pdb
     RDKit          3D

 28 28  0  0  1  0  0  0  0  0999 V2000
    7.7899  -13.6869   17.8062 C   0  0  0  0  0  0  0  0  0  0  0  0
    9.1633  -13.6593   18.3882 C   0  0  0  0  0  0  0  0  0  0  0  0
    9.8550  -14.9988   18.4360 C   0  0  2  0  0  0  0  0  0  0  0  0
    9.7053  -15.6487   17.0883 C   0  0  0  0  0  0  0  0  0  0  0  0
    9.2998  -15.8019   19.5603 C   0  0  2  0  0  0  0  0  0  0  0  0
    8.0645  -16.4203   19.1417 N   0  0  0  0  0  0  0  0  0  0  0  0
    9.1271  -15.0097   20.8088 C   0  0  0  0  0  0  0  0  0  0  0  0
    9.1712  -13.7702   20.7175 O   0  0  0  0  0  0  0  0  0  0  0  0
    8.9203  -15.5936   22.0642 N   0  0  0  0  0  0  0  0  0  0  0  0
    8.6183  -14.8842   23.2794 C   0  0  1  0  0  0  0  0  0  0  0  0
    7.1650  -14.7990   23.5964 C   0  0  0  0  0  0  0  0  0  0  0  0
    6.7917  -13.9142   24.6799 C   0  0  0  0  0  0  0  0  0  0  0  0
    6.2075  -14.3927   25.8278 C   0  0  0  0  0  0  0  0  0  0  0  0
    5.8667  -13.5218   26.8376 C   0  0  0  0  0  0  0  0  0  0  0  0
    6.0928  -12.1588   26.7422 C   0  0  0  0  0  0  0  0  0  0  0  0
    6.6778  -11.6880   25.5902 C   0  0  0  0  0  0  0  0  0  0  0  0
    7.0270  -12.5592   24.5616 C   0  0  0  0  0  0  0  0  0  0  0  0
    9.2594  -15.6701   24.3942 C   0  0  0  0  0  0  0  0  0  0  0  0
    9.5432  -16.8814   24.1992 O   0  0  0  0  0  0  0  0  0  0  0  0
   11.7722  -14.6201   30.0283 C   0  0  0  0  0  0  0  0  0  0  0  0
   11.7155  -15.4545   28.7580 C   0  0  0  0  0  0  0  0  0  0  0  0
   10.8224  -14.8191   27.7220 C   0  0  2  0  0  0  0  0  0  0  0  0
    9.6435  -14.1810   28.4061 C   0  0  0  0  0  0  0  0  0  0  0  0
   10.4410  -15.7535   26.6277 C   0  0  2  0  0  0  0  0  0  0  0  0
    9.5549  -15.1069   25.6461 N   0  0  0  0  0  0  0  0  0  0  0  0
    9.8007  -16.9985   27.0814 C   0  0  0  0  0  0  0  0  0  0  0  0
   10.4246  -17.9647   27.5766 O   0  0  0  0  0  0  0  0  0  0  0  0
    8.4285  -17.1401   26.9671 O   0  0  0  0  0  0  0  0  0  0  0  0
  1  2  1  0
  3  5  1  0
  3  4  1  6
  3  2  1  0
  5  6  1  6
  7  8  2  0
  7  5  1  0
  9  7  1  0
 10  9  1  0
 11 12  1  0
 10 11  1  1
 12 13  2  0
 12 17  1  0
 13 14  1  0
 14 15  2  0
 16 15  1  0
 17 16  2  0
 18 19  2  0
 18 10  1  0
 20 21  1  0
 21 22  1  0
 22 24  1  0
 22 23  1  1
 24 26  1  0
 24 25  1  6
 25 18  1  0
 26 28  1  0
 27 26  2  0
M  END
$$$$
