IFI.pdb
     RDKit          3D

 28 28  0  0  1  0  0  0  0  0999 V2000
   12.9996  -19.8072   21.0188 C   0  0  0  0  0  0  0  0  0  0  0  0
   11.9340  -18.9636   21.6341 C   0  0  0  0  0  0  0  0  0  0  0  0
   10.6535  -18.8872   20.8409 C   0  0  2  0  0  0  0  0  0  0  0  0
   10.7460  -19.8746   19.7107 C   0  0  0  0  0  0  0  0  0  0  0  0
   10.4280  -17.4827   20.4006 C   0  0  2  0  0  0  0  0  0  0  0  0
   11.5128  -17.0707   19.5421 N   0  0  0  0  0  0  0  0  0  0  0  0
   10.2346  -16.5423   21.5384 C   0  0  0  0  0  0  0  0  0  0  0  0
   11.2089  -15.8554   21.8924 O   0  0  0  0  0  0  0  0  0  0  0  0
    9.0185  -16.4011   22.2173 N   0  0  0  0  0  0  0  0  0  0  0  0
    8.7458  -15.4463   23.2590 C   0  0  1  0  0  0  0  0  0  0  0  0
    7.3085  -15.0780   23.3943 C   0  0  0  0  0  0  0  0  0  0  0  0
    6.9880  -14.0884   24.4015 C   0  0  0  0  0  0  0  0  0  0  0  0
    7.4672  -12.8031   24.3222 C   0  0  0  0  0  0  0  0  0  0  0  0
    7.1410  -11.8887   25.2977 C   0  0  0  0  0  0  0  0  0  0  0  0
    6.3351  -12.2173   26.3752 C   0  0  0  0  0  0  0  0  0  0  0  0
    5.8597  -13.5056   26.4471 C   0  0  0  0  0  0  0  0  0  0  0  0
    6.1829  -14.4396   25.4662 C   0  0  0  0  0  0  0  0  0  0  0  0
    9.1463  -16.1100   24.5515 C   0  0  0  0  0  0  0  0  0  0  0  0
    9.1004  -17.3660   24.6300 O   0  0  0  0  0  0  0  0  0  0  0  0
   10.4361  -12.6969   28.7764 C   0  0  0  0  0  0  0  0  0  0  0  0
   10.5487  -13.6769   27.6188 C   0  0  0  0  0  0  0  0  0  0  0  0
   10.1473  -15.0695   28.0360 C   0  0  2  0  0  0  0  0  0  0  0  0
   11.0376  -15.5278   29.1595 C   0  0  0  0  0  0  0  0  0  0  0  0
   10.0871  -16.0258   26.8967 C   0  0  2  0  0  0  0  0  0  0  0  0
    9.5702  -15.3845   25.6767 N   0  0  0  0  0  0  0  0  0  0  0  0
    9.2931  -17.2375   27.1560 C   0  0  0  0  0  0  0  0  0  0  0  0
    8.0487  -17.2973   27.0302 O   0  0  0  0  0  0  0  0  0  0  0  0
    9.9312  -18.3960   27.5646 O   0  0  0  0  0  0  0  0  0  0  0  0
  1  2  1  0
  3  5  1  0
  3  4  1  6
  3  2  1  0
  5  6  1  1
  7  8  2  0
  7  5  1  0
  9  7  1  0
 10  9  1  0
 11 12  1  0
 10 11  1  1
 12 13  2  0
 12 17  1  0
 13 14  1  0
 14 15  2  0
 16 15  1  0
 17 16  2  0
 18 19  2  0
 18 10  1  0
 20 21  1  0
 21 22  1  0
 22 24  1  0
 22 23  1  1
 24 26  1  0
 24 25  1  6
 25 18  1  0
 26 28  1  0
 27 26  2  0
M  END
$$$$
