IFI.pdb
     RDKit          3D

 28 28  0  0  1  0  0  0  0  0999 V2000
   13.0921  -20.0333   22.1777 C   0  0  0  0  0  0  0  0  0  0  0  0
   12.5542  -18.7678   21.5991 C   0  0  0  0  0  0  0  0  0  0  0  0
   11.1737  -18.8836   21.0028 C   0  0  2  0  0  0  0  0  0  0  0  0
   11.2200  -19.9260   19.9201 C   0  0  0  0  0  0  0  0  0  0  0  0
   10.7238  -17.5437   20.5341 C   0  0  2  0  0  0  0  0  0  0  0  0
   11.7022  -17.0033   19.6208 N   0  0  0  0  0  0  0  0  0  0  0  0
   10.4331  -16.6056   21.6529 C   0  0  0  0  0  0  0  0  0  0  0  0
   11.3242  -15.8021   21.9797 O   0  0  0  0  0  0  0  0  0  0  0  0
    9.2153  -16.5905   22.3432 N   0  0  0  0  0  0  0  0  0  0  0  0
    8.8403  -15.6449   23.3612 C   0  0  1  0  0  0  0  0  0  0  0  0
    7.3749  -15.3930   23.4563 C   0  0  0  0  0  0  0  0  0  0  0  0
    6.9497  -14.4231   24.4436 C   0  0  0  0  0  0  0  0  0  0  0  0
    6.2217  -14.7955   25.5477 C   0  0  0  0  0  0  0  0  0  0  0  0
    5.8354  -13.8460   26.4661 C   0  0  0  0  0  0  0  0  0  0  0  0
    6.1563  -12.5066   26.3199 C   0  0  0  0  0  0  0  0  0  0  0  0
    6.8850  -12.1422   25.2122 C   0  0  0  0  0  0  0  0  0  0  0  0
    7.2815  -13.0938   24.2761 C   0  0  0  0  0  0  0  0  0  0  0  0
    9.2613  -16.2533   24.6742 C   0  0  0  0  0  0  0  0  0  0  0  0
    9.3333  -17.5069   24.7683 O   0  0  0  0  0  0  0  0  0  0  0  0
   10.3187  -12.6839   28.8669 C   0  0  0  0  0  0  0  0  0  0  0  0
   10.5713  -13.6826   27.7480 C   0  0  0  0  0  0  0  0  0  0  0  0
   10.1519  -15.0748   28.1484 C   0  0  2  0  0  0  0  0  0  0  0  0
   10.9592  -15.5136   29.3403 C   0  0  0  0  0  0  0  0  0  0  0  0
   10.1861  -16.0427   27.0178 C   0  0  2  0  0  0  0  0  0  0  0  0
    9.5780  -15.4785   25.8018 N   0  0  0  0  0  0  0  0  0  0  0  0
    9.5442  -17.3366   27.3002 C   0  0  0  0  0  0  0  0  0  0  0  0
   10.1362  -18.3122   27.8156 O   0  0  0  0  0  0  0  0  0  0  0  0
    8.2076  -17.5166   26.9887 O   0  0  0  0  0  0  0  0  0  0  0  0
  1  2  1  0
  3  5  1  0
  3  4  1  6
  3  2  1  0
  5  6  1  6
  7  8  2  0
  7  5  1  0
  9  7  1  0
 10  9  1  0
 11 12  1  0
 10 11  1  1
 12 13  2  0
 12 17  1  0
 13 14  1  0
 14 15  2  0
 16 15  1  0
 17 16  2  0
 18 19  2  0
 18 10  1  0
 20 21  1  0
 21 22  1  0
 22 24  1  0
 22 23  1  1
 24 26  1  0
 24 25  1  6
 25 18  1  0
 26 28  1  0
 27 26  2  0
M  END
$$$$
