IFI.pdb
     RDKit          3D

 28 28  0  0  1  0  0  0  0  0999 V2000
   13.4697  -19.9896   19.7728 C   0  0  0  0  0  0  0  0  0  0  0  0
   12.3740  -19.0115   19.5115 C   0  0  0  0  0  0  0  0  0  0  0  0
   11.9510  -18.2027   20.7122 C   0  0  2  0  0  0  0  0  0  0  0  0
   11.6608  -19.1568   21.8377 C   0  0  0  0  0  0  0  0  0  0  0  0
   10.7989  -17.3347   20.3424 C   0  0  2  0  0  0  0  0  0  0  0  0
   11.0717  -16.6904   19.0799 N   0  0  0  0  0  0  0  0  0  0  0  0
   10.4514  -16.3495   21.4031 C   0  0  0  0  0  0  0  0  0  0  0  0
   11.2319  -15.3990   21.5871 O   0  0  0  0  0  0  0  0  0  0  0  0
    9.2985  -16.4470   22.1912 N   0  0  0  0  0  0  0  0  0  0  0  0
    8.9073  -15.5227   23.2225 C   0  0  1  0  0  0  0  0  0  0  0  0
    7.4478  -15.2254   23.2602 C   0  0  0  0  0  0  0  0  0  0  0  0
    6.9931  -14.3595   24.3278 C   0  0  0  0  0  0  0  0  0  0  0  0
    6.2610  -14.8464   25.3836 C   0  0  0  0  0  0  0  0  0  0  0  0
    5.8463  -13.9937   26.3811 C   0  0  0  0  0  0  0  0  0  0  0  0
    6.1421  -12.6407   26.3636 C   0  0  0  0  0  0  0  0  0  0  0  0
    6.8751  -12.1614   25.3034 C   0  0  0  0  0  0  0  0  0  0  0  0
    7.3003  -13.0144   24.2882 C   0  0  0  0  0  0  0  0  0  0  0  0
    9.2479  -16.1868   24.5320 C   0  0  0  0  0  0  0  0  0  0  0  0
    9.2859  -17.4444   24.5844 O   0  0  0  0  0  0  0  0  0  0  0  0
   10.6037  -12.7322   28.7436 C   0  0  0  0  0  0  0  0  0  0  0  0
   10.6795  -13.7278   27.5964 C   0  0  0  0  0  0  0  0  0  0  0  0
   10.2112  -15.0962   28.0240 C   0  0  2  0  0  0  0  0  0  0  0  0
   11.0582  -15.5751   29.1721 C   0  0  0  0  0  0  0  0  0  0  0  0
   10.1341  -16.0655   26.8967 C   0  0  2  0  0  0  0  0  0  0  0  0
    9.5259  -15.4598   25.7008 N   0  0  0  0  0  0  0  0  0  0  0  0
    9.4096  -17.3084   27.2068 C   0  0  0  0  0  0  0  0  0  0  0  0
    8.1611  -17.4033   27.2246 O   0  0  0  0  0  0  0  0  0  0  0  0
   10.1228  -18.4579   27.5003 O   0  0  0  0  0  0  0  0  0  0  0  0
  1  2  1  0
  3  5  1  0
  3  4  1  1
  3  2  1  0
  5  6  1  6
  7  8  2  0
  7  5  1  0
  9  7  1  0
 10  9  1  0
 11 12  1  0
 10 11  1  1
 12 13  2  0
 12 17  1  0
 13 14  1  0
 14 15  2  0
 16 15  1  0
 17 16  2  0
 18 19  2  0
 18 10  1  0
 20 21  1  0
 21 22  1  0
 22 24  1  0
 22 23  1  1
 24 26  1  0
 24 25  1  6
 25 18  1  0
 26 28  1  0
 27 26  2  0
M  END
$$$$
