IFI.pdb
     RDKit          3D

 28 28  0  0  1  0  0  0  0  0999 V2000
   11.4349  -20.8337   19.8245 C   0  0  0  0  0  0  0  0  0  0  0  0
   12.1665  -19.5437   19.6624 C   0  0  0  0  0  0  0  0  0  0  0  0
   11.8704  -18.5130   20.7229 C   0  0  2  0  0  0  0  0  0  0  0  0
   11.7621  -19.2223   22.0444 C   0  0  0  0  0  0  0  0  0  0  0  0
   10.6489  -17.7504   20.3435 C   0  0  2  0  0  0  0  0  0  0  0  0
   10.7875  -17.2683   18.9900 N   0  0  0  0  0  0  0  0  0  0  0  0
   10.3347  -16.6487   21.2942 C   0  0  0  0  0  0  0  0  0  0  0  0
   11.1342  -15.6987   21.3625 O   0  0  0  0  0  0  0  0  0  0  0  0
    9.1925  -16.6377   22.1035 N   0  0  0  0  0  0  0  0  0  0  0  0
    8.8644  -15.6299   23.0770 C   0  0  1  0  0  0  0  0  0  0  0  0
    7.4029  -15.4333   23.2896 C   0  0  0  0  0  0  0  0  0  0  0  0
    7.0206  -14.3961   24.2247 C   0  0  0  0  0  0  0  0  0  0  0  0
    6.3398  -14.6888   25.3816 C   0  0  0  0  0  0  0  0  0  0  0  0
    5.9935  -13.6768   26.2477 C   0  0  0  0  0  0  0  0  0  0  0  0
    6.3090  -12.3519   25.9961 C   0  0  0  0  0  0  0  0  0  0  0  0
    6.9905  -12.0674   24.8361 C   0  0  0  0  0  0  0  0  0  0  0  0
    7.3462  -13.0828   23.9520 C   0  0  0  0  0  0  0  0  0  0  0  0
    9.4316  -16.1123   24.3874 C   0  0  0  0  0  0  0  0  0  0  0  0
    9.4571  -17.3495   24.6205 O   0  0  0  0  0  0  0  0  0  0  0  0
   10.8609  -14.0148   30.0641 C   0  0  0  0  0  0  0  0  0  0  0  0
   11.1340  -15.0329   28.9678 C   0  0  0  0  0  0  0  0  0  0  0  0
   10.5186  -14.6091   27.6578 C   0  0  2  0  0  0  0  0  0  0  0  0
    9.1684  -13.9972   27.9179 C   0  0  0  0  0  0  0  0  0  0  0  0
   10.4922  -15.6999   26.6451 C   0  0  2  0  0  0  0  0  0  0  0  0
    9.9350  -15.2372   25.3635 N   0  0  0  0  0  0  0  0  0  0  0  0
    9.7575  -16.9048   27.0624 C   0  0  0  0  0  0  0  0  0  0  0  0
    8.5209  -17.0501   26.9292 O   0  0  0  0  0  0  0  0  0  0  0  0
   10.4465  -17.9574   27.6398 O   0  0  0  0  0  0  0  0  0  0  0  0
  1  2  1  0
  3  5  1  0
  3  4  1  1
  3  2  1  0
  5  6  1  6
  7  8  2  0
  7  5  1  0
  9  7  1  0
 10  9  1  0
 11 12  1  0
 10 11  1  1
 12 13  2  0
 12 17  1  0
 13 14  1  0
 14 15  2  0
 16 15  1  0
 17 16  2  0
 18 19  2  0
 18 10  1  0
 20 21  1  0
 21 22  1  0
 22 24  1  0
 22 23  1  1
 24 26  1  0
 24 25  1  6
 25 18  1  0
 26 28  1  0
 27 26  2  0
M  END
$$$$
