IFI.pdb
     RDKit          3D

 28 28  0  0  1  0  0  0  0  0999 V2000
   12.9815  -20.4768   20.0053 C   0  0  0  0  0  0  0  0  0  0  0  0
   11.9115  -19.4898   19.6786 C   0  0  0  0  0  0  0  0  0  0  0  0
   11.6797  -18.4382   20.7346 C   0  0  2  0  0  0  0  0  0  0  0  0
   11.4648  -19.1369   22.0486 C   0  0  0  0  0  0  0  0  0  0  0  0
   10.5471  -17.5642   20.3215 C   0  0  2  0  0  0  0  0  0  0  0  0
   10.8008  -17.0463   18.9983 N   0  0  0  0  0  0  0  0  0  0  0  0
   10.2686  -16.4756   21.2982 C   0  0  0  0  0  0  0  0  0  0  0  0
   11.1001  -15.5555   21.3905 O   0  0  0  0  0  0  0  0  0  0  0  0
    9.1257  -16.4450   22.1059 N   0  0  0  0  0  0  0  0  0  0  0  0
    8.8121  -15.4300   23.0767 C   0  0  1  0  0  0  0  0  0  0  0  0
    7.3540  -15.1844   23.2602 C   0  0  0  0  0  0  0  0  0  0  0  0
    6.9875  -14.1550   24.2100 C   0  0  0  0  0  0  0  0  0  0  0  0
    6.3328  -14.4583   25.3793 C   0  0  0  0  0  0  0  0  0  0  0  0
    6.0009  -13.4535   26.2594 C   0  0  0  0  0  0  0  0  0  0  0  0
    6.3053  -12.1256   26.0098 C   0  0  0  0  0  0  0  0  0  0  0  0
    6.9605  -11.8305   24.8374 C   0  0  0  0  0  0  0  0  0  0  0  0
    7.3015  -12.8385   23.9392 C   0  0  0  0  0  0  0  0  0  0  0  0
    9.3354  -15.9359   24.3964 C   0  0  0  0  0  0  0  0  0  0  0  0
    9.2375  -17.1635   24.6592 O   0  0  0  0  0  0  0  0  0  0  0  0
   11.0076  -13.9634   30.0474 C   0  0  0  0  0  0  0  0  0  0  0  0
   11.1800  -14.9914   28.9399 C   0  0  0  0  0  0  0  0  0  0  0  0
   10.5032  -14.5476   27.6673 C   0  0  2  0  0  0  0  0  0  0  0  0
    9.1250  -14.0361   27.9896 C   0  0  0  0  0  0  0  0  0  0  0  0
   10.5174  -15.5899   26.6044 C   0  0  2  0  0  0  0  0  0  0  0  0
    9.9301  -15.0931   25.3494 N   0  0  0  0  0  0  0  0  0  0  0  0
    9.8403  -16.8448   26.9687 C   0  0  0  0  0  0  0  0  0  0  0  0
   10.3634  -17.7437   27.6660 O   0  0  0  0  0  0  0  0  0  0  0  0
    8.5479  -17.0742   26.5294 O   0  0  0  0  0  0  0  0  0  0  0  0
  1  2  1  0
  3  5  1  0
  3  4  1  1
  3  2  1  0
  5  6  1  6
  7  8  2  0
  7  5  1  0
  9  7  1  0
 10  9  1  0
 11 12  1  0
 10 11  1  1
 12 13  2  0
 12 17  1  0
 13 14  1  0
 14 15  2  0
 16 15  1  0
 17 16  2  0
 18 19  2  0
 18 10  1  0
 20 21  1  0
 21 22  1  0
 22 24  1  0
 22 23  1  1
 24 26  1  0
 24 25  1  6
 25 18  1  0
 26 28  1  0
 27 26  2  0
M  END
$$$$
