IFI.pdb
     RDKit          3D

 28 28  0  0  1  0  0  0  0  0999 V2000
   13.0924  -19.8815   21.8739 C   0  0  0  0  0  0  0  0  0  0  0  0
   12.4545  -18.6880   21.2460 C   0  0  0  0  0  0  0  0  0  0  0  0
   11.0087  -18.8756   20.8595 C   0  0  2  0  0  0  0  0  0  0  0  0
   10.9291  -20.0311   19.9006 C   0  0  0  0  0  0  0  0  0  0  0  0
   10.4733  -17.5979   20.3135 C   0  0  2  0  0  0  0  0  0  0  0  0
   11.3475  -17.1210   19.2685 N   0  0  0  0  0  0  0  0  0  0  0  0
   10.2517  -16.5663   21.3637 C   0  0  0  0  0  0  0  0  0  0  0  0
   11.1167  -15.6830   21.4978 O   0  0  0  0  0  0  0  0  0  0  0  0
    9.1257  -16.5493   22.1953 N   0  0  0  0  0  0  0  0  0  0  0  0
    8.8663  -15.5896   23.2358 C   0  0  1  0  0  0  0  0  0  0  0  0
    7.4227  -15.2882   23.4481 C   0  0  0  0  0  0  0  0  0  0  0  0
    7.1131  -14.2794   24.4395 C   0  0  0  0  0  0  0  0  0  0  0  0
    7.6034  -12.9999   24.3381 C   0  0  0  0  0  0  0  0  0  0  0  0
    7.2874  -12.0668   25.2991 C   0  0  0  0  0  0  0  0  0  0  0  0
    6.4809  -12.3704   26.3834 C   0  0  0  0  0  0  0  0  0  0  0  0
    5.9943  -13.6530   26.4775 C   0  0  0  0  0  0  0  0  0  0  0  0
    6.3072  -14.6059   25.5114 C   0  0  0  0  0  0  0  0  0  0  0  0
    9.3717  -16.2094   24.5134 C   0  0  0  0  0  0  0  0  0  0  0  0
    9.2885  -17.4574   24.6583 O   0  0  0  0  0  0  0  0  0  0  0  0
   10.7402  -12.7971   28.7784 C   0  0  0  0  0  0  0  0  0  0  0  0
   10.9293  -13.7353   27.5964 C   0  0  0  0  0  0  0  0  0  0  0  0
   10.4638  -15.1321   27.9229 C   0  0  2  0  0  0  0  0  0  0  0  0
   11.2094  -15.6352   29.1296 C   0  0  0  0  0  0  0  0  0  0  0  0
   10.5265  -16.0559   26.7572 C   0  0  2  0  0  0  0  0  0  0  0  0
    9.9338  -15.4511   25.5531 N   0  0  0  0  0  0  0  0  0  0  0  0
    9.8922  -17.3652   26.9790 C   0  0  0  0  0  0  0  0  0  0  0  0
   10.5288  -18.4260   27.1724 O   0  0  0  0  0  0  0  0  0  0  0  0
    8.5114  -17.4622   26.9795 O   0  0  0  0  0  0  0  0  0  0  0  0
  1  2  1  0
  3  5  1  0
  3  4  1  6
  3  2  1  0
  5  6  1  6
  7  8  2  0
  7  5  1  0
  9  7  1  0
 10  9  1  0
 11 12  1  0
 10 11  1  1
 12 13  2  0
 12 17  1  0
 13 14  1  0
 14 15  2  0
 16 15  1  0
 17 16  2  0
 18 19  2  0
 18 10  1  0
 20 21  1  0
 21 22  1  0
 22 24  1  0
 22 23  1  1
 24 26  1  0
 24 25  1  6
 25 18  1  0
 26 28  1  0
 27 26  2  0
M  END
$$$$
