IFI.pdb
     RDKit          3D

 28 28  0  0  1  0  0  0  0  0999 V2000
   10.4056  -21.4401   20.3629 C   0  0  0  0  0  0  0  0  0  0  0  0
    9.6333  -20.1851   20.1301 C   0  0  0  0  0  0  0  0  0  0  0  0
    9.8267  -19.1214   21.1818 C   0  0  2  0  0  0  0  0  0  0  0  0
    9.5441  -19.7368   22.5243 C   0  0  0  0  0  0  0  0  0  0  0  0
    8.9681  -17.9477   20.8612 C   0  0  2  0  0  0  0  0  0  0  0  0
    9.2218  -17.5261   19.5042 N   0  0  0  0  0  0  0  0  0  0  0  0
    9.1320  -16.8280   21.8286 C   0  0  0  0  0  0  0  0  0  0  0  0
   10.2214  -16.2283   21.8392 O   0  0  0  0  0  0  0  0  0  0  0  0
    8.1250  -16.4277   22.7148 N   0  0  0  0  0  0  0  0  0  0  0  0
    8.2528  -15.4109   23.7252 C   0  0  1  0  0  0  0  0  0  0  0  0
    6.9897  -14.6796   24.0245 C   0  0  0  0  0  0  0  0  0  0  0  0
    7.0356  -13.7341   25.1200 C   0  0  0  0  0  0  0  0  0  0  0  0
    7.7260  -12.5506   25.0175 C   0  0  0  0  0  0  0  0  0  0  0  0
    7.7470  -11.6753   26.0794 C   0  0  0  0  0  0  0  0  0  0  0  0
    7.0888  -11.9436   27.2681 C   0  0  0  0  0  0  0  0  0  0  0  0
    6.4002  -13.1301   27.3626 C   0  0  0  0  0  0  0  0  0  0  0  0
    6.3718  -14.0237   26.2950 C   0  0  0  0  0  0  0  0  0  0  0  0
    8.6501  -16.1254   24.9914 C   0  0  0  0  0  0  0  0  0  0  0  0
    7.9722  -17.1174   25.3682 O   0  0  0  0  0  0  0  0  0  0  0  0
   13.9902  -18.1251   26.6564 C   0  0  0  0  0  0  0  0  0  0  0  0
   12.6001  -17.8122   27.1883 C   0  0  0  0  0  0  0  0  0  0  0  0
   11.8435  -16.9055   26.2502 C   0  0  2  0  0  0  0  0  0  0  0  0
   12.6459  -15.6546   26.0129 C   0  0  0  0  0  0  0  0  0  0  0  0
   10.4470  -16.6414   26.6933 C   0  0  2  0  0  0  0  0  0  0  0  0
    9.7485  -15.7303   25.7720 N   0  0  0  0  0  0  0  0  0  0  0  0
   10.3295  -16.1016   28.0574 C   0  0  0  0  0  0  0  0  0  0  0  0
   10.6362  -16.7400   29.0901 O   0  0  0  0  0  0  0  0  0  0  0  0
    9.8548  -14.8145   28.2425 O   0  0  0  0  0  0  0  0  0  0  0  0
  1  2  1  0
  3  5  1  0
  3  4  1  1
  3  2  1  0
  5  6  1  6
  7  8  2  0
  7  5  1  0
  9  7  1  0
 10  9  1  0
 11 12  1  0
 10 11  1  1
 12 13  2  0
 12 17  1  0
 13 14  1  0
 14 15  2  0
 16 15  1  0
 17 16  2  0
 18 19  2  0
 18 10  1  0
 20 21  1  0
 21 22  1  0
 22 24  1  0
 22 23  1  1
 24 26  1  0
 24 25  1  6
 25 18  1  0
 26 28  1  0
 27 26  2  0
M  END
$$$$
