IFI.pdb
     RDKit          3D

 28 28  0  0  1  0  0  0  0  0999 V2000
    8.1191  -13.0328   17.4012 C   0  0  0  0  0  0  0  0  0  0  0  0
    8.0423  -14.1553   18.3809 C   0  0  0  0  0  0  0  0  0  0  0  0
    9.3475  -14.8711   18.6234 C   0  0  2  0  0  0  0  0  0  0  0  0
    9.7756  -15.5098   17.3311 C   0  0  0  0  0  0  0  0  0  0  0  0
    9.1821  -15.8329   19.7481 C   0  0  2  0  0  0  0  0  0  0  0  0
    8.2659  -16.8764   19.3541 N   0  0  0  0  0  0  0  0  0  0  0  0
    8.7608  -15.1757   21.0158 C   0  0  0  0  0  0  0  0  0  0  0  0
    7.9642  -14.2241   20.9362 O   0  0  0  0  0  0  0  0  0  0  0  0
    9.2177  -15.5785   22.2762 N   0  0  0  0  0  0  0  0  0  0  0  0
    8.8651  -14.9673   23.5305 C   0  0  1  0  0  0  0  0  0  0  0  0
    7.4022  -14.9418   23.8120 C   0  0  0  0  0  0  0  0  0  0  0  0
    6.9721  -14.1105   24.9166 C   0  0  0  0  0  0  0  0  0  0  0  0
    7.2121  -12.7577   24.9320 C   0  0  0  0  0  0  0  0  0  0  0  0
    6.7878  -11.9986   25.9987 C   0  0  0  0  0  0  0  0  0  0  0  0
    6.1168  -12.5525   27.0762 C   0  0  0  0  0  0  0  0  0  0  0  0
    5.8806  -13.9070   27.0531 C   0  0  0  0  0  0  0  0  0  0  0  0
    6.3051  -14.6855   25.9794 C   0  0  0  0  0  0  0  0  0  0  0  0
    9.4977  -15.8163   24.6031 C   0  0  0  0  0  0  0  0  0  0  0  0
    9.6410  -17.0502   24.3966 O   0  0  0  0  0  0  0  0  0  0  0  0
   11.1607  -13.0986   29.1828 C   0  0  0  0  0  0  0  0  0  0  0  0
   11.1358  -13.8986   27.8896 C   0  0  0  0  0  0  0  0  0  0  0  0
   10.7475  -15.3344   28.1385 C   0  0  2  0  0  0  0  0  0  0  0  0
   11.7386  -15.9609   29.0820 C   0  0  0  0  0  0  0  0  0  0  0  0
   10.5473  -16.1109   26.8843 C   0  0  2  0  0  0  0  0  0  0  0  0
    9.9360  -15.2877   25.8281 N   0  0  0  0  0  0  0  0  0  0  0  0
    9.7436  -17.3336   27.0431 C   0  0  0  0  0  0  0  0  0  0  0  0
    8.4919  -17.3473   27.0762 O   0  0  0  0  0  0  0  0  0  0  0  0
   10.3803  -18.5565   27.1656 O   0  0  0  0  0  0  0  0  0  0  0  0
  1  2  1  0
  3  5  1  0
  3  4  1  6
  3  2  1  0
  5  6  1  6
  7  8  2  0
  7  5  1  0
  9  7  1  0
 10  9  1  0
 11 12  1  0
 10 11  1  1
 12 13  2  0
 12 17  1  0
 13 14  1  0
 14 15  2  0
 16 15  1  0
 17 16  2  0
 18 19  2  0
 18 10  1  0
 20 21  1  0
 21 22  1  0
 22 24  1  0
 22 23  1  1
 24 26  1  0
 24 25  1  6
 25 18  1  0
 26 28  1  0
 27 26  2  0
M  END
$$$$
