FHN.pdb
     RDKit          3D

 30 31  0  0  1  0  0  0  0  0999 V2000
    8.3192  -15.8822   26.4946 N   0  0  0  0  0  0  0  0  0  0  0  0
    7.1643  -16.3584   25.7982 C   0  0  1  0  0  0  0  0  0  0  0  0
    5.9428  -15.5479   26.2549 C   0  0  0  0  0  0  0  0  0  0  0  0
    6.3680  -14.1593   26.4836 C   0  0  0  0  0  0  0  0  0  0  0  0
    5.8740  -13.1346   25.7125 C   0  0  0  0  0  0  0  0  0  0  0  0
    6.2721  -11.8174   25.9226 C   0  0  0  0  0  0  0  0  0  0  0  0
    7.1755  -11.5292   26.9174 C   0  0  0  0  0  0  0  0  0  0  0  0
    7.6780  -12.5241   27.6923 C   0  0  0  0  0  0  0  0  0  0  0  0
    7.2814  -13.8252   27.4809 C   0  0  0  0  0  0  0  0  0  0  0  0
    7.3058  -16.1057   24.3479 C   0  0  0  0  0  0  0  0  0  0  0  0
    6.4075  -16.5151   23.5830 O   0  0  0  0  0  0  0  0  0  0  0  0
    8.4469  -15.4154   23.8910 N   0  0  0  0  0  0  0  0  0  0  0  0
    8.7486  -15.3739   22.4387 C   0  0  1  0  0  0  0  0  0  0  0  0
    8.6077  -13.9868   21.9497 C   0  0  0  0  0  0  0  0  0  0  0  0
    8.3001  -13.8818   20.5156 C   0  0  0  0  0  0  0  0  0  0  0  0
    7.9927  -14.9453   19.6511 C   0  0  0  0  0  0  0  0  0  0  0  0
    7.7674  -14.4941   18.4130 N   0  0  0  0  0  0  0  0  0  0  0  0
    7.9235  -13.1614   18.4616 C   0  0  0  0  0  0  0  0  0  0  0  0
    8.2404  -12.8015   19.7146 N   0  0  0  0  0  0  0  0  0  0  0  0
   10.0083  -16.0609   22.2220 C   0  0  0  0  0  0  0  0  0  0  0  0
   10.9347  -15.8576   23.1032 O   0  0  0  0  0  0  0  0  0  0  0  0
   11.6705  -18.5936   23.7171 N   0  0  0  0  0  0  0  0  0  0  0  0
   11.5547  -19.4871   22.6220 C   0  0  0  0  0  0  0  0  0  0  0  0
   11.4126  -20.7009   22.8563 O   0  0  0  0  0  0  0  0  0  0  0  0
   11.6031  -18.9781   21.2494 C   0  0  0  0  0  0  0  0  0  0  0  0
   11.7347  -17.4977   21.0952 C   0  0  2  0  0  0  0  0  0  0  0  0
   10.3877  -16.9335   21.1942 N   0  0  0  0  0  0  0  0  0  0  0  0
   12.3533  -17.0395   19.8457 C   0  0  0  0  0  0  0  0  0  0  0  0
   11.6673  -16.5648   18.7386 O   0  0  0  0  0  0  0  0  0  0  0  0
   13.6027  -17.0655   19.7337 O   0  0  0  0  0  0  0  0  0  0  0  0
  2  1  1  1
  2 10  1  0
  3  2  1  0
  3  4  1  0
  4  5  2  0
  4  9  1  0
  5  6  1  0
  6  7  2  0
  8  7  1  0
  9  8  2  0
 10 11  2  0
 12 10  1  0
 12 13  1  0
 13 20  1  0
 13 14  1  1
 14 15  1  0
 15 16  2  0
 15 19  1  0
 16 17  1  0
 17 18  1  0
 19 18  2  0
 20 21  2  0
 22 23  1  0
 23 24  2  0
 25 23  1  0
 26 25  1  6
 26 28  1  0
 27 26  1  0
 27 20  1  0
 28 29  1  0
 30 28  2  0
M  END
$$$$
