FHN.pdb
     RDKit          3D

 30 31  0  0  1  0  0  0  0  0999 V2000
    7.6989  -16.3391   26.1594 N   0  0  0  0  0  0  0  0  0  0  0  0
    6.5549  -16.4630   25.3100 C   0  0  1  0  0  0  0  0  0  0  0  0
    5.6755  -15.2159   25.4806 C   0  0  0  0  0  0  0  0  0  0  0  0
    6.5016  -14.1416   26.0505 C   0  0  0  0  0  0  0  0  0  0  0  0
    6.5189  -13.9086   27.4048 C   0  0  0  0  0  0  0  0  0  0  0  0
    7.2981  -12.8931   27.9519 C   0  0  0  0  0  0  0  0  0  0  0  0
    8.0664  -12.1052   27.1285 C   0  0  0  0  0  0  0  0  0  0  0  0
    8.0660  -12.3156   25.7874 C   0  0  0  0  0  0  0  0  0  0  0  0
    7.2939  -13.3210   25.2509 C   0  0  0  0  0  0  0  0  0  0  0  0
    6.9746  -16.4786   23.8919 C   0  0  0  0  0  0  0  0  0  0  0  0
    6.1056  -16.6767   23.0172 O   0  0  0  0  0  0  0  0  0  0  0  0
    8.3354  -16.2702   23.5883 N   0  0  0  0  0  0  0  0  0  0  0  0
    8.7288  -15.8650   22.2161 C   0  0  1  0  0  0  0  0  0  0  0  0
    7.7300  -14.9167   21.6812 C   0  0  0  0  0  0  0  0  0  0  0  0
    8.0110  -14.4530   20.3143 C   0  0  0  0  0  0  0  0  0  0  0  0
    9.1339  -14.7842   19.5382 C   0  0  0  0  0  0  0  0  0  0  0  0
    9.0718  -14.1874   18.3435 N   0  0  0  0  0  0  0  0  0  0  0  0
    7.9319  -13.4781   18.3336 C   0  0  0  0  0  0  0  0  0  0  0  0
    7.3039  -13.6390   19.5083 N   0  0  0  0  0  0  0  0  0  0  0  0
   10.1217  -15.4593   22.2497 C   0  0  0  0  0  0  0  0  0  0  0  0
   10.5989  -14.9455   21.1615 O   0  0  0  0  0  0  0  0  0  0  0  0
   11.7020  -17.0126   26.1155 N   0  0  0  0  0  0  0  0  0  0  0  0
   11.3456  -18.0390   25.2041 C   0  0  0  0  0  0  0  0  0  0  0  0
   10.9186  -19.1162   25.6577 O   0  0  0  0  0  0  0  0  0  0  0  0
   11.4823  -17.8219   23.7620 C   0  0  0  0  0  0  0  0  0  0  0  0
   12.1133  -16.5341   23.3420 C   0  0  2  0  0  0  0  0  0  0  0  0
   11.0502  -15.5291   23.2961 N   0  0  0  0  0  0  0  0  0  0  0  0
   12.8056  -16.5558   22.0481 C   0  0  0  0  0  0  0  0  0  0  0  0
   12.3281  -17.1560   20.8934 O   0  0  0  0  0  0  0  0  0  0  0  0
   13.9234  -15.9960   21.9405 O   0  0  0  0  0  0  0  0  0  0  0  0
  2  1  1  1
  2 10  1  0
  3  2  1  0
  3  4  1  0
  4  5  2  0
  4  9  1  0
  5  6  1  0
  6  7  2  0
  8  7  1  0
  9  8  2  0
 10 11  2  0
 12 10  1  0
 12 13  1  0
 13 20  1  0
 13 14  1  1
 14 15  1  0
 15 16  2  0
 15 19  1  0
 16 17  1  0
 17 18  1  0
 19 18  2  0
 20 21  2  0
 22 23  1  0
 23 24  2  0
 25 23  1  0
 26 25  1  6
 26 28  1  0
 27 26  1  0
 27 20  1  0
 28 29  1  0
 30 28  2  0
M  END
$$$$
