FHN.pdb
     RDKit          3D

 30 31  0  0  1  0  0  0  0  0999 V2000
    6.0970  -16.9125   25.5906 N   0  0  0  0  0  0  0  0  0  0  0  0
    6.5000  -15.7056   24.9374 C   0  0  1  0  0  0  0  0  0  0  0  0
    7.6888  -15.1040   25.7008 C   0  0  0  0  0  0  0  0  0  0  0  0
    7.2632  -13.8239   26.2853 C   0  0  0  0  0  0  0  0  0  0  0  0
    5.9780  -13.3661   26.1205 C   0  0  0  0  0  0  0  0  0  0  0  0
    5.5678  -12.1550   26.6704 C   0  0  0  0  0  0  0  0  0  0  0  0
    6.4591  -11.3980   27.3925 C   0  0  0  0  0  0  0  0  0  0  0  0
    7.7343  -11.8287   27.5691 C   0  0  0  0  0  0  0  0  0  0  0  0
    8.1355  -13.0271   27.0234 C   0  0  0  0  0  0  0  0  0  0  0  0
    6.9955  -16.0058   23.5766 C   0  0  0  0  0  0  0  0  0  0  0  0
    7.1742  -17.2005   23.2595 O   0  0  0  0  0  0  0  0  0  0  0  0
    7.2454  -14.9328   22.6971 N   0  0  0  0  0  0  0  0  0  0  0  0
    7.7539  -15.2058   21.3301 C   0  0  1  0  0  0  0  0  0  0  0  0
    7.3883  -14.0848   20.4397 C   0  0  0  0  0  0  0  0  0  0  0  0
    7.9103  -14.2079   19.0705 C   0  0  0  0  0  0  0  0  0  0  0  0
    8.6895  -15.2637   18.5695 C   0  0  0  0  0  0  0  0  0  0  0  0
    8.9923  -15.0551   17.2842 N   0  0  0  0  0  0  0  0  0  0  0  0
    8.4244  -13.8863   16.9464 C   0  0  0  0  0  0  0  0  0  0  0  0
    7.7817  -13.3857   18.0124 N   0  0  0  0  0  0  0  0  0  0  0  0
    9.1522  -15.5785   21.4373 C   0  0  0  0  0  0  0  0  0  0  0  0
    9.8124  -15.0621   22.4239 O   0  0  0  0  0  0  0  0  0  0  0  0
   11.5731  -20.1937   22.2614 N   0  0  0  0  0  0  0  0  0  0  0  0
   10.7972  -19.0829   21.8428 C   0  0  0  0  0  0  0  0  0  0  0  0
    9.7272  -19.2957   21.2443 O   0  0  0  0  0  0  0  0  0  0  0  0
   11.2578  -17.7196   22.1158 C   0  0  0  0  0  0  0  0  0  0  0  0
   11.3003  -16.7875   20.9486 C   0  0  2  0  0  0  0  0  0  0  0  0
    9.9163  -16.4321   20.6313 N   0  0  0  0  0  0  0  0  0  0  0  0
   11.9481  -17.3094   19.7395 C   0  0  0  0  0  0  0  0  0  0  0  0
   11.3106  -17.5651   18.5353 O   0  0  0  0  0  0  0  0  0  0  0  0
   13.1780  -17.5566   19.7600 O   0  0  0  0  0  0  0  0  0  0  0  0
  2  1  1  1
  2 10  1  0
  3  2  1  0
  3  4  1  0
  4  5  2  0
  4  9  1  0
  5  6  1  0
  6  7  2  0
  8  7  1  0
  9  8  2  0
 10 11  2  0
 12 10  1  0
 12 13  1  0
 13 20  1  0
 13 14  1  6
 14 15  1  0
 15 16  2  0
 15 19  1  0
 16 17  1  0
 17 18  1  0
 19 18  2  0
 20 21  2  0
 22 23  1  0
 23 24  2  0
 25 23  1  0
 26 25  1  1
 26 28  1  0
 27 26  1  0
 27 20  1  0
 28 29  1  0
 30 28  2  0
M  END
$$$$
