FHN.pdb
     RDKit          3D

 30 31  0  0  1  0  0  0  0  0999 V2000
    5.8496  -18.1097   25.5829 N   0  0  0  0  0  0  0  0  0  0  0  0
    6.1245  -16.7125   25.4498 C   0  0  1  0  0  0  0  0  0  0  0  0
    6.8782  -16.2360   26.6998 C   0  0  0  0  0  0  0  0  0  0  0  0
    6.8289  -14.7672   26.7381 C   0  0  0  0  0  0  0  0  0  0  0  0
    7.9705  -14.0283   26.9364 C   0  0  0  0  0  0  0  0  0  0  0  0
    7.9318  -12.6374   26.9743 C   0  0  0  0  0  0  0  0  0  0  0  0
    6.7334  -11.9845   26.8114 C   0  0  0  0  0  0  0  0  0  0  0  0
    5.5919  -12.6923   26.6144 C   0  0  0  0  0  0  0  0  0  0  0  0
    5.6350  -14.0676   26.5776 C   0  0  0  0  0  0  0  0  0  0  0  0
    7.0353  -16.4807   24.3079 C   0  0  0  0  0  0  0  0  0  0  0  0
    7.9486  -17.3066   24.0991 O   0  0  0  0  0  0  0  0  0  0  0  0
    6.8350  -15.3391   23.5054 N   0  0  0  0  0  0  0  0  0  0  0  0
    7.6063  -15.1799   22.2477 C   0  0  1  0  0  0  0  0  0  0  0  0
    7.1091  -13.9966   21.5159 C   0  0  0  0  0  0  0  0  0  0  0  0
    7.6855  -13.8325   20.1731 C   0  0  0  0  0  0  0  0  0  0  0  0
    8.6566  -14.6552   19.5788 C   0  0  0  0  0  0  0  0  0  0  0  0
    8.9554  -14.2178   18.3514 N   0  0  0  0  0  0  0  0  0  0  0  0
    8.1970  -13.1298   18.1423 C   0  0  0  0  0  0  0  0  0  0  0  0
    7.4430  -12.9041   19.2289 N   0  0  0  0  0  0  0  0  0  0  0  0
    9.0183  -15.2500   22.5750 C   0  0  0  0  0  0  0  0  0  0  0  0
    9.3841  -14.6745   23.6754 O   0  0  0  0  0  0  0  0  0  0  0  0
   13.1560  -16.7989   25.2870 N   0  0  0  0  0  0  0  0  0  0  0  0
   12.6741  -17.3739   24.0836 C   0  0  0  0  0  0  0  0  0  0  0  0
   13.3707  -18.2332   23.5136 O   0  0  0  0  0  0  0  0  0  0  0  0
   11.3821  -16.9559   23.5348 C   0  0  0  0  0  0  0  0  0  0  0  0
   11.4251  -15.9566   22.4245 C   0  0  2  0  0  0  0  0  0  0  0  0
   10.0699  -15.8603   21.8798 N   0  0  0  0  0  0  0  0  0  0  0  0
   12.3582  -16.2571   21.3324 C   0  0  0  0  0  0  0  0  0  0  0  0
   13.7146  -15.9712   21.3355 O   0  0  0  0  0  0  0  0  0  0  0  0
   11.9291  -16.8178   20.2951 O   0  0  0  0  0  0  0  0  0  0  0  0
  2  1  1  1
  2 10  1  0
  3  2  1  0
  3  4  1  0
  4  5  2  0
  4  9  1  0
  5  6  1  0
  6  7  2  0
  8  7  1  0
  9  8  2  0
 10 11  2  0
 12 10  1  0
 12 13  1  0
 13 20  1  0
 13 14  1  1
 14 15  1  0
 15 16  2  0
 15 19  1  0
 16 17  1  0
 17 18  1  0
 19 18  2  0
 20 21  2  0
 22 23  1  0
 23 24  2  0
 25 23  1  0
 26 25  1  1
 26 28  1  0
 27 26  1  0
 27 20  1  0
 28 29  1  0
 30 28  2  0
M  END
$$$$
