FHN.pdb
     RDKit          3D

 30 31  0  0  1  0  0  0  0  0999 V2000
    5.3702  -17.5588   24.1710 N   0  0  0  0  0  0  0  0  0  0  0  0
    6.1250  -16.3633   24.3868 C   0  0  1  0  0  0  0  0  0  0  0  0
    6.2314  -16.1121   25.8978 C   0  0  0  0  0  0  0  0  0  0  0  0
    6.5215  -14.6866   26.1107 C   0  0  0  0  0  0  0  0  0  0  0  0
    5.5455  -13.7350   25.9369 C   0  0  0  0  0  0  0  0  0  0  0  0
    5.8125  -12.3834   26.1360 C   0  0  0  0  0  0  0  0  0  0  0  0
    7.0731  -11.9864   26.5133 C   0  0  0  0  0  0  0  0  0  0  0  0
    8.0541  -12.9077   26.6911 C   0  0  0  0  0  0  0  0  0  0  0  0
    7.7854  -14.2431   26.4930 C   0  0  0  0  0  0  0  0  0  0  0  0
    7.5107  -16.5433   23.9020 C   0  0  0  0  0  0  0  0  0  0  0  0
    7.9913  -17.6959   23.8910 O   0  0  0  0  0  0  0  0  0  0  0  0
    8.2291  -15.4083   23.4743 N   0  0  0  0  0  0  0  0  0  0  0  0
    9.5580  -15.5768   22.8358 C   0  0  1  0  0  0  0  0  0  0  0  0
    9.8641  -14.3823   22.0218 C   0  0  0  0  0  0  0  0  0  0  0  0
    9.0599  -14.2661   20.7962 C   0  0  0  0  0  0  0  0  0  0  0  0
    7.7817  -14.8090   20.5857 C   0  0  0  0  0  0  0  0  0  0  0  0
    7.3421  -14.5134   19.3583 N   0  0  0  0  0  0  0  0  0  0  0  0
    8.3110  -13.7913   18.7730 C   0  0  0  0  0  0  0  0  0  0  0  0
    9.3312  -13.6466   19.6322 N   0  0  0  0  0  0  0  0  0  0  0  0
   10.5021  -15.9767   23.8627 C   0  0  0  0  0  0  0  0  0  0  0  0
   11.7358  -16.1062   23.4925 O   0  0  0  0  0  0  0  0  0  0  0  0
   12.2204  -14.2020   27.1427 N   0  0  0  0  0  0  0  0  0  0  0  0
   11.3732  -14.9990   27.9540 C   0  0  0  0  0  0  0  0  0  0  0  0
   10.9942  -14.5422   29.0477 O   0  0  0  0  0  0  0  0  0  0  0  0
   10.9612  -16.3298   27.5017 C   0  0  0  0  0  0  0  0  0  0  0  0
   11.3538  -16.7087   26.1106 C   0  0  2  0  0  0  0  0  0  0  0  0
   10.2887  -16.2431   25.2211 N   0  0  0  0  0  0  0  0  0  0  0  0
   11.5771  -18.1406   25.8790 C   0  0  0  0  0  0  0  0  0  0  0  0
   12.7005  -18.8507   26.2731 O   0  0  0  0  0  0  0  0  0  0  0  0
   10.7017  -18.8091   25.2780 O   0  0  0  0  0  0  0  0  0  0  0  0
  2  1  1  1
  2 10  1  0
  3  2  1  0
  3  4  1  0
  4  5  2  0
  4  9  1  0
  5  6  1  0
  6  7  2  0
  8  7  1  0
  9  8  2  0
 10 11  2  0
 12 10  1  0
 12 13  1  0
 13 20  1  0
 13 14  1  1
 14 15  1  0
 15 16  2  0
 15 19  1  0
 16 17  1  0
 17 18  1  0
 19 18  2  0
 20 21  2  0
 22 23  1  0
 23 24  2  0
 25 23  1  0
 26 25  1  1
 26 28  1  0
 27 26  1  0
 27 20  1  0
 28 29  1  0
 30 28  2  0
M  END
$$$$
