FHN.pdb
     RDKit          3D

 30 31  0  0  1  0  0  0  0  0999 V2000
    6.1675  -17.1772   25.7299 N   0  0  0  0  0  0  0  0  0  0  0  0
    7.0549  -16.2470   25.1032 C   0  0  1  0  0  0  0  0  0  0  0  0
    7.8226  -15.4853   26.1932 C   0  0  0  0  0  0  0  0  0  0  0  0
    7.3535  -14.0921   26.2020 C   0  0  0  0  0  0  0  0  0  0  0  0
    7.4773  -13.3135   27.3276 C   0  0  0  0  0  0  0  0  0  0  0  0
    7.0351  -11.9937   27.3438 C   0  0  0  0  0  0  0  0  0  0  0  0
    6.4631  -11.4530   26.2171 C   0  0  0  0  0  0  0  0  0  0  0  0
    6.3295  -12.2021   25.0929 C   0  0  0  0  0  0  0  0  0  0  0  0
    6.7682  -13.5067   25.0815 C   0  0  0  0  0  0  0  0  0  0  0  0
    8.0741  -16.9710   24.3129 C   0  0  0  0  0  0  0  0  0  0  0  0
    8.3391  -18.1511   24.6240 O   0  0  0  0  0  0  0  0  0  0  0  0
    8.7025  -16.2995   23.2446 N   0  0  0  0  0  0  0  0  0  0  0  0
    9.7706  -16.9824   22.4733 C   0  0  1  0  0  0  0  0  0  0  0  0
    9.6838  -16.5783   21.0548 C   0  0  0  0  0  0  0  0  0  0  0  0
   10.6480  -17.2556   20.1752 C   0  0  0  0  0  0  0  0  0  0  0  0
   11.4623  -18.3474   20.5185 C   0  0  0  0  0  0  0  0  0  0  0  0
   12.2208  -18.7125   19.4800 N   0  0  0  0  0  0  0  0  0  0  0  0
   11.9124  -17.8783   18.4743 C   0  0  0  0  0  0  0  0  0  0  0  0
   10.9761  -17.0130   18.8924 N   0  0  0  0  0  0  0  0  0  0  0  0
   11.0259  -16.7867   23.1745 C   0  0  0  0  0  0  0  0  0  0  0  0
   11.9995  -16.2852   22.4843 O   0  0  0  0  0  0  0  0  0  0  0  0
   11.2776  -17.5205   27.4317 N   0  0  0  0  0  0  0  0  0  0  0  0
   11.2940  -18.8340   26.8974 C   0  0  0  0  0  0  0  0  0  0  0  0
   10.7688  -19.7508   27.5546 O   0  0  0  0  0  0  0  0  0  0  0  0
   11.9196  -19.0915   25.5983 C   0  0  0  0  0  0  0  0  0  0  0  0
   12.4852  -17.9049   24.8875 C   0  0  2  0  0  0  0  0  0  0  0  0
   11.3574  -17.0521   24.5092 N   0  0  0  0  0  0  0  0  0  0  0  0
   13.2833  -18.1991   23.6915 C   0  0  0  0  0  0  0  0  0  0  0  0
   14.4997  -17.6141   23.3756 O   0  0  0  0  0  0  0  0  0  0  0  0
   12.8616  -19.0433   22.8645 O   0  0  0  0  0  0  0  0  0  0  0  0
  2  1  1  1
  2 10  1  0
  3  2  1  0
  3  4  1  0
  4  5  2  0
  4  9  1  0
  5  6  1  0
  6  7  2  0
  8  7  1  0
  9  8  2  0
 10 11  2  0
 12 10  1  0
 12 13  1  0
 13 20  1  0
 13 14  1  6
 14 15  1  0
 15 16  2  0
 15 19  1  0
 16 17  1  0
 17 18  1  0
 19 18  2  0
 20 21  2  0
 22 23  1  0
 23 24  2  0
 25 23  1  0
 26 25  1  6
 26 28  1  0
 27 26  1  0
 27 20  1  0
 28 29  1  0
 30 28  2  0
M  END
$$$$
