FHN.pdb
     RDKit          3D

 30 31  0  0  1  0  0  0  0  0999 V2000
    7.8530  -15.3526   22.2245 N   0  0  0  0  0  0  0  0  0  0  0  0
    8.2956  -15.4401   23.5817 C   0  0  1  0  0  0  0  0  0  0  0  0
    7.0736  -15.3474   24.5068 C   0  0  0  0  0  0  0  0  0  0  0  0
    7.1384  -14.0704   25.2325 C   0  0  0  0  0  0  0  0  0  0  0  0
    6.9497  -12.8770   24.5776 C   0  0  0  0  0  0  0  0  0  0  0  0
    7.0100  -11.6640   25.2576 C   0  0  0  0  0  0  0  0  0  0  0  0
    7.2626  -11.6520   26.6086 C   0  0  0  0  0  0  0  0  0  0  0  0
    7.4527  -12.8178   27.2777 C   0  0  0  0  0  0  0  0  0  0  0  0
    7.3921  -14.0150   26.6011 C   0  0  0  0  0  0  0  0  0  0  0  0
    8.9017  -16.7655   23.8337 C   0  0  0  0  0  0  0  0  0  0  0  0
    8.1432  -17.7390   24.0248 O   0  0  0  0  0  0  0  0  0  0  0  0
   10.3072  -16.8734   23.8483 N   0  0  0  0  0  0  0  0  0  0  0  0
   10.9415  -18.1724   24.1833 C   0  0  1  0  0  0  0  0  0  0  0  0
   11.8158  -18.5914   23.0683 C   0  0  0  0  0  0  0  0  0  0  0  0
   11.6333  -17.8129   21.8342 C   0  0  0  0  0  0  0  0  0  0  0  0
   11.0816  -16.5249   21.7375 C   0  0  0  0  0  0  0  0  0  0  0  0
   11.0645  -16.1156   20.4649 N   0  0  0  0  0  0  0  0  0  0  0  0
   11.5936  -17.1136   19.7392 C   0  0  0  0  0  0  0  0  0  0  0  0
   11.9307  -18.1215   20.5581 N   0  0  0  0  0  0  0  0  0  0  0  0
   11.5160  -18.0622   25.5113 C   0  0  0  0  0  0  0  0  0  0  0  0
   12.1435  -16.9619   25.7784 O   0  0  0  0  0  0  0  0  0  0  0  0
    9.9195  -16.9785   28.4328 N   0  0  0  0  0  0  0  0  0  0  0  0
   10.0621  -18.3402   28.8023 C   0  0  0  0  0  0  0  0  0  0  0  0
    9.0349  -19.0161   28.9932 O   0  0  0  0  0  0  0  0  0  0  0  0
   11.3963  -18.9255   28.9525 C   0  0  0  0  0  0  0  0  0  0  0  0
   12.3111  -18.8019   27.7774 C   0  0  2  0  0  0  0  0  0  0  0  0
   11.4930  -18.9724   26.5757 N   0  0  0  0  0  0  0  0  0  0  0  0
   13.4262  -19.7551   27.7347 C   0  0  0  0  0  0  0  0  0  0  0  0
   13.6686  -20.6600   26.7129 O   0  0  0  0  0  0  0  0  0  0  0  0
   14.2471  -19.7823   28.6832 O   0  0  0  0  0  0  0  0  0  0  0  0
  2  1  1  6
  2 10  1  0
  3  2  1  0
  3  4  1  0
  4  5  2  0
  4  9  1  0
  5  6  1  0
  6  7  2  0
  8  7  1  0
  9  8  2  0
 10 11  2  0
 12 10  1  0
 12 13  1  0
 13 20  1  0
 13 14  1  6
 14 15  1  0
 15 16  2  0
 15 19  1  0
 16 17  1  0
 17 18  1  0
 19 18  2  0
 20 21  2  0
 22 23  1  0
 23 24  2  0
 25 23  1  0
 26 25  1  1
 26 28  1  0
 27 26  1  0
 27 20  1  0
 28 29  1  0
 30 28  2  0
M  END
$$$$
