FHN.pdb
     RDKit          3D

 30 31  0  0  1  0  0  0  0  0999 V2000
    5.7668  -17.1729   25.9852 N   0  0  0  0  0  0  0  0  0  0  0  0
    6.3409  -16.0609   25.2929 C   0  0  1  0  0  0  0  0  0  0  0  0
    7.3153  -15.3411   26.2364 C   0  0  0  0  0  0  0  0  0  0  0  0
    6.9309  -13.9237   26.3052 C   0  0  0  0  0  0  0  0  0  0  0  0
    6.1590  -13.4520   27.3397 C   0  0  0  0  0  0  0  0  0  0  0  0
    5.7906  -12.1116   27.4115 C   0  0  0  0  0  0  0  0  0  0  0  0
    6.2027  -11.2384   26.4334 C   0  0  0  0  0  0  0  0  0  0  0  0
    6.9657  -11.6804   25.4012 C   0  0  0  0  0  0  0  0  0  0  0  0
    7.3276  -13.0068   25.3343 C   0  0  0  0  0  0  0  0  0  0  0  0
    7.1513  -16.5371   24.1510 C   0  0  0  0  0  0  0  0  0  0  0  0
    7.4272  -17.7533   24.0845 O   0  0  0  0  0  0  0  0  0  0  0  0
    7.5779  -15.5998   23.1884 N   0  0  0  0  0  0  0  0  0  0  0  0
    8.2905  -16.0663   21.9732 C   0  0  1  0  0  0  0  0  0  0  0  0
    7.8635  -15.2550   20.8145 C   0  0  0  0  0  0  0  0  0  0  0  0
    8.4844  -15.6494   19.5413 C   0  0  0  0  0  0  0  0  0  0  0  0
    9.4857  -16.6195   19.3697 C   0  0  0  0  0  0  0  0  0  0  0  0
    9.8217  -16.7246   18.0800 N   0  0  0  0  0  0  0  0  0  0  0  0
    9.0577  -15.8421   17.4167 C   0  0  0  0  0  0  0  0  0  0  0  0
    8.2635  -15.2045   18.2901 N   0  0  0  0  0  0  0  0  0  0  0  0
    9.7061  -16.1407   22.2837 C   0  0  0  0  0  0  0  0  0  0  0  0
   10.2460  -15.0706   22.7728 O   0  0  0  0  0  0  0  0  0  0  0  0
   10.5846  -19.7790   24.6937 N   0  0  0  0  0  0  0  0  0  0  0  0
   11.5431  -18.7392   24.5878 C   0  0  0  0  0  0  0  0  0  0  0  0
   11.7866  -18.0491   25.5942 O   0  0  0  0  0  0  0  0  0  0  0  0
   12.2242  -18.4940   23.3145 C   0  0  0  0  0  0  0  0  0  0  0  0
   11.9651  -17.1723   22.6674 C   0  0  2  0  0  0  0  0  0  0  0  0
   10.5991  -17.2105   22.1430 N   0  0  0  0  0  0  0  0  0  0  0  0
   12.8824  -16.8028   21.5829 C   0  0  0  0  0  0  0  0  0  0  0  0
   14.1145  -16.1897   21.7492 O   0  0  0  0  0  0  0  0  0  0  0  0
   12.5584  -17.0458   20.3953 O   0  0  0  0  0  0  0  0  0  0  0  0
  2  1  1  1
  2 10  1  0
  3  2  1  0
  3  4  1  0
  4  5  2  0
  4  9  1  0
  5  6  1  0
  6  7  2  0
  8  7  1  0
  9  8  2  0
 10 11  2  0
 12 10  1  0
 12 13  1  0
 13 20  1  0
 13 14  1  6
 14 15  1  0
 15 16  2  0
 15 19  1  0
 16 17  1  0
 17 18  1  0
 19 18  2  0
 20 21  2  0
 22 23  1  0
 23 24  2  0
 25 23  1  0
 26 25  1  6
 26 28  1  0
 27 26  1  0
 27 20  1  0
 28 29  1  0
 30 28  2  0
M  END
$$$$
