FHN.pdb
     RDKit          3D

 30 31  0  0  1  0  0  0  0  0999 V2000
    9.2064  -16.0627   18.0423 N   0  0  0  0  0  0  0  0  0  0  0  0
   10.2399  -16.2904   19.0043 C   0  0  1  0  0  0  0  0  0  0  0  0
   10.6761  -14.9396   19.5900 C   0  0  0  0  0  0  0  0  0  0  0  0
    9.4829  -14.2506   20.1029 C   0  0  0  0  0  0  0  0  0  0  0  0
    8.6316  -13.5872   19.2522 C   0  0  0  0  0  0  0  0  0  0  0  0
    7.5003  -12.9322   19.7303 C   0  0  0  0  0  0  0  0  0  0  0  0
    7.2235  -12.9450   21.0765 C   0  0  0  0  0  0  0  0  0  0  0  0
    8.0494  -13.5933   21.9369 C   0  0  0  0  0  0  0  0  0  0  0  0
    9.1671  -14.2397   21.4596 C   0  0  0  0  0  0  0  0  0  0  0  0
    9.7126  -17.0788   20.1392 C   0  0  0  0  0  0  0  0  0  0  0  0
    8.7156  -17.8055   19.9454 O   0  0  0  0  0  0  0  0  0  0  0  0
   10.3561  -16.9763   21.3893 N   0  0  0  0  0  0  0  0  0  0  0  0
   10.7348  -18.2083   22.1244 C   0  0  1  0  0  0  0  0  0  0  0  0
   11.4889  -19.1034   21.2226 C   0  0  0  0  0  0  0  0  0  0  0  0
   10.6688  -20.1404   20.5789 C   0  0  0  0  0  0  0  0  0  0  0  0
    9.2905  -20.0679   20.3185 C   0  0  0  0  0  0  0  0  0  0  0  0
    8.8655  -21.1868   19.7231 N   0  0  0  0  0  0  0  0  0  0  0  0
    9.9415  -21.9793   19.5945 C   0  0  0  0  0  0  0  0  0  0  0  0
   11.0124  -21.3527   20.1051 N   0  0  0  0  0  0  0  0  0  0  0  0
   11.3469  -17.8122   23.3791 C   0  0  0  0  0  0  0  0  0  0  0  0
   12.3666  -17.0188   23.2979 O   0  0  0  0  0  0  0  0  0  0  0  0
   10.3487  -15.2932   25.5142 N   0  0  0  0  0  0  0  0  0  0  0  0
   10.0808  -16.0653   26.6731 C   0  0  0  0  0  0  0  0  0  0  0  0
    9.2185  -15.6591   27.4731 O   0  0  0  0  0  0  0  0  0  0  0  0
   10.8112  -17.3125   26.9108 C   0  0  0  0  0  0  0  0  0  0  0  0
   11.7823  -17.7244   25.8524 C   0  0  2  0  0  0  0  0  0  0  0  0
   10.9987  -18.1522   24.6925 N   0  0  0  0  0  0  0  0  0  0  0  0
   12.7113  -18.7985   26.2231 C   0  0  0  0  0  0  0  0  0  0  0  0
   13.8169  -18.6533   27.0466 O   0  0  0  0  0  0  0  0  0  0  0  0
   12.5213  -19.9556   25.7768 O   0  0  0  0  0  0  0  0  0  0  0  0
  2  1  1  6
  2 10  1  0
  3  2  1  0
  3  4  1  0
  4  5  2  0
  4  9  1  0
  5  6  1  0
  6  7  2  0
  8  7  1  0
  9  8  2  0
 10 11  2  0
 12 10  1  0
 12 13  1  0
 13 20  1  0
 13 14  1  6
 14 15  1  0
 15 16  2  0
 15 19  1  0
 16 17  1  0
 17 18  1  0
 19 18  2  0
 20 21  2  0
 22 23  1  0
 23 24  2  0
 25 23  1  0
 26 25  1  1
 26 28  1  0
 27 26  1  0
 27 20  1  0
 28 29  1  0
 30 28  2  0
M  END
$$$$
