RCY.pdb
     RDKit          3D

 30 30  0  0  1  0  0  0  0  0999 V2000
   21.9079  -26.8581  -14.1313 N   0  0  0  0  0  0  0  0  0  0  0  0
   21.7031  -27.6974  -15.2459 C   0  0  0  0  0  0  0  0  0  0  0  0
   20.4926  -28.0051  -15.6008 N   0  0  0  0  0  0  0  0  0  0  0  0
   22.7917  -28.2179  -15.9946 N   0  0  0  0  0  0  0  0  0  0  0  0
   24.1365  -27.8917  -15.5475 C   0  0  0  0  0  0  0  0  0  0  0  0
   24.9124  -27.1995  -16.6548 C   0  0  0  0  0  0  0  0  0  0  0  0
   26.2022  -26.6848  -16.0812 C   0  0  0  0  0  0  0  0  0  0  0  0
   26.9594  -25.9010  -17.1018 C   0  0  2  0  0  0  0  0  0  0  0  0
   28.2702  -26.4701  -17.2701 N   0  0  0  0  0  0  0  0  0  0  0  0
   27.0784  -24.4881  -16.6656 C   0  0  0  0  0  0  0  0  0  0  0  0
   27.9473  -24.1435  -15.7937 O   0  0  0  0  0  0  0  0  0  0  0  0
   20.2977  -28.6276  -16.4063 N   0  0  0  0  0  0  0  0  0  0  0  0
   26.2523  -23.4539  -17.1783 C   0  0  2  0  0  0  0  0  0  0  0  0
   26.3263  -22.0817  -16.7672 C   0  0  0  0  0  0  0  0  0  0  0  0
   27.4460  -21.3281  -17.4460 S   0  0  0  0  0  0  0  0  0  0  0  0
   27.5416  -21.6263  -19.2079 C   0  0  0  0  0  0  0  0  0  0  0  0
   25.0169  -21.3767  -16.9307 O   0  0  0  0  0  0  0  0  0  0  0  0
   24.2358  -21.6402  -17.8908 O   0  0  0  0  0  0  0  0  0  0  0  0
   18.2625  -16.0081  -15.2887 C   0  0  0  0  0  0  0  0  0  0  0  0
   19.4546  -16.6973  -15.2061 C   0  0  0  0  0  0  0  0  0  0  0  0
   19.4544  -18.0258  -14.8550 C   0  0  0  0  0  0  0  0  0  0  0  0
   20.6159  -18.7388  -14.7637 C   0  0  0  0  0  0  0  0  0  0  0  0
   21.8138  -18.0912  -15.0351 C   0  0  0  0  0  0  0  0  0  0  0  0
   23.0723  -18.8553  -14.9135 C   0  0  2  0  0  0  0  0  0  0  0  0
   23.3663  -19.6334  -16.1537 N   0  0  0  0  0  0  0  0  0  0  0  0
   24.6228  -20.3929  -16.0067 C   0  0  0  0  0  0  0  0  0  0  0  0
   23.5527  -18.7115  -17.2843 O   0  0  0  0  0  0  0  0  0  0  0  0
   24.7016  -18.2550  -17.5098 C   0  0  0  0  0  0  0  0  0  0  0  0
   21.8270  -16.7626  -15.3871 C   0  0  0  0  0  0  0  0  0  0  0  0
   20.6472  -16.0664  -15.4725 O   0  0  0  0  0  0  0  0  0  0  0  0
  2  1  1  0
  3  2  2  0
  4  2  1  0
  5  6  1  0
  5  4  1  0
  7  6  1  0
  7  8  1  0
  8 10  1  0
  8  9  1  1
 10 11  2  0
 12 10  1  0
 12 13  1  0
 13 14  1  6
 14 15  1  0
 16 17  2  0
 16 13  1  0
 18 19  1  0
 19 29  2  0
 20 19  1  0
 20 21  2  0
 21 22  1  0
 22 28  2  0
 22 23  1  0
 24 23  1  1
 24 26  1  0
 24 25  1  0
 25 16  1  0
 26 30  1  0
 27 26  2  0
 29 28  1  0
M  END
$$$$
