RCY.pdb
     RDKit          3D

 30 30  0  0  1  0  0  0  0  0999 V2000
   11.7170  -13.5040  -14.9720 N   0  0  0  0  0  0  0  0  0  0  0  0
   13.0856  -13.8135  -15.1121 C   0  0  0  0  0  0  0  0  0  0  0  0
   13.4688  -15.0533  -15.0668 N   0  0  0  0  0  0  0  0  0  0  0  0
   14.0615  -12.7996  -15.3027 N   0  0  0  0  0  0  0  0  0  0  0  0
   13.9302  -11.9471  -16.4735 C   0  0  0  0  0  0  0  0  0  0  0  0
   14.9931  -12.2894  -17.5032 C   0  0  0  0  0  0  0  0  0  0  0  0
   16.3063  -11.7294  -17.0348 C   0  0  0  0  0  0  0  0  0  0  0  0
   17.3592  -11.9062  -18.0787 C   0  0  2  0  0  0  0  0  0  0  0  0
   17.7314  -13.2939  -18.1563 N   0  0  0  0  0  0  0  0  0  0  0  0
   18.5480  -11.0863  -17.7393 C   0  0  0  0  0  0  0  0  0  0  0  0
   19.4635  -11.5464  -16.9750 O   0  0  0  0  0  0  0  0  0  0  0  0
   14.4563  -15.3291  -15.2186 N   0  0  0  0  0  0  0  0  0  0  0  0
   18.7381   -9.7686  -18.2315 C   0  0  1  0  0  0  0  0  0  0  0  0
   19.9139   -8.9806  -17.9988 C   0  0  0  0  0  0  0  0  0  0  0  0
   20.3605   -8.2213  -19.2262 S   0  0  0  0  0  0  0  0  0  0  0  0
   21.8137   -7.2136  -18.9525 C   0  0  0  0  0  0  0  0  0  0  0  0
   19.7544   -8.0703  -16.8224 O   0  0  0  0  0  0  0  0  0  0  0  0
   18.6277   -7.5929  -16.4997 O   0  0  0  0  0  0  0  0  0  0  0  0
   26.7006   -6.5854  -16.9793 C   0  0  0  0  0  0  0  0  0  0  0  0
   25.5353   -6.6988  -16.2498 C   0  0  0  0  0  0  0  0  0  0  0  0
   24.8742   -5.5677  -15.8356 C   0  0  0  0  0  0  0  0  0  0  0  0
   23.7181   -5.6429  -15.1120 C   0  0  0  0  0  0  0  0  0  0  0  0
   23.2141   -6.8979  -14.7971 C   0  0  0  0  0  0  0  0  0  0  0  0
   21.9767   -6.9802  -13.9943 C   0  0  1  0  0  0  0  0  0  0  0  0
   20.7573   -6.8609  -14.8479 N   0  0  0  0  0  0  0  0  0  0  0  0
   20.8700   -7.7223  -16.0406 C   0  0  0  0  0  0  0  0  0  0  0  0
   20.6231   -5.4777  -15.3294 O   0  0  0  0  0  0  0  0  0  0  0  0
   20.7625   -5.2483  -16.5571 C   0  0  0  0  0  0  0  0  0  0  0  0
   23.8664   -8.0366  -15.2055 C   0  0  0  0  0  0  0  0  0  0  0  0
   25.0267   -7.9364  -15.9319 O   0  0  0  0  0  0  0  0  0  0  0  0
  2  1  1  0
  3  2  2  0
  4  2  1  0
  5  6  1  0
  5  4  1  0
  7  6  1  0
  7  8  1  0
  8 10  1  0
  8  9  1  1
 10 11  2  0
 12 10  1  0
 12 13  1  0
 13 14  1  1
 14 15  1  0
 16 17  2  0
 16 13  1  0
 18 19  1  0
 19 29  2  0
 20 19  1  0
 20 21  2  0
 21 22  1  0
 22 28  2  0
 22 23  1  0
 24 23  1  1
 24 26  1  0
 24 25  1  0
 25 16  1  0
 26 30  1  0
 27 26  2  0
 29 28  1  0
M  END
$$$$
