RCY.pdb
     RDKit          3D

 30 30  0  0  1  0  0  0  0  0999 V2000
   30.7578  -18.7516  -18.6249 N   0  0  0  0  0  0  0  0  0  0  0  0
   29.7864  -19.3698  -19.4391 C   0  0  0  0  0  0  0  0  0  0  0  0
   29.8172  -19.1847  -20.7239 N   0  0  0  0  0  0  0  0  0  0  0  0
   28.7698  -20.1941  -18.8881 N   0  0  0  0  0  0  0  0  0  0  0  0
   28.6295  -20.2175  -17.4408 C   0  0  0  0  0  0  0  0  0  0  0  0
   27.6540  -19.1469  -16.9831 C   0  0  0  0  0  0  0  0  0  0  0  0
   26.6485  -19.7816  -16.0647 C   0  0  0  0  0  0  0  0  0  0  0  0
   27.2943  -20.8242  -15.2129 C   0  0  2  0  0  0  0  0  0  0  0  0
   27.9299  -21.8051  -16.0521 N   0  0  0  0  0  0  0  0  0  0  0  0
   26.2740  -21.4802  -14.3589 C   0  0  0  0  0  0  0  0  0  0  0  0
   25.5316  -22.4109  -14.8244 O   0  0  0  0  0  0  0  0  0  0  0  0
   29.0827  -19.5609  -21.3510 N   0  0  0  0  0  0  0  0  0  0  0  0
   26.0635  -21.1226  -13.0015 C   0  0  2  0  0  0  0  0  0  0  0  0
   25.0702  -21.7162  -12.1540 C   0  0  0  0  0  0  0  0  0  0  0  0
   25.3767  -21.5430  -10.6848 S   0  0  0  0  0  0  0  0  0  0  0  0
   25.3034  -19.8413  -10.1362 C   0  0  0  0  0  0  0  0  0  0  0  0
   23.6924  -21.2355  -12.4840 O   0  0  0  0  0  0  0  0  0  0  0  0
   23.4668  -20.0306  -12.7984 O   0  0  0  0  0  0  0  0  0  0  0  0
   15.2130  -21.3404  -14.6077 C   0  0  0  0  0  0  0  0  0  0  0  0
   16.5038  -21.7169  -14.2998 C   0  0  0  0  0  0  0  0  0  0  0  0
   16.7638  -22.3671  -13.1175 C   0  0  0  0  0  0  0  0  0  0  0  0
   18.0296  -22.7543  -12.7806 C   0  0  0  0  0  0  0  0  0  0  0  0
   19.0644  -22.4768  -13.6640 C   0  0  0  0  0  0  0  0  0  0  0  0
   20.4372  -22.8741  -13.2897 C   0  0  2  0  0  0  0  0  0  0  0  0
   21.2346  -21.7089  -12.8035 N   0  0  0  0  0  0  0  0  0  0  0  0
   22.6052  -22.1264  -12.4508 C   0  0  0  0  0  0  0  0  0  0  0  0
   20.6239  -21.1664  -11.5805 O   0  0  0  0  0  0  0  0  0  0  0  0
   20.8435  -21.7448  -10.4867 C   0  0  0  0  0  0  0  0  0  0  0  0
   18.8172  -21.8268  -14.8495 C   0  0  0  0  0  0  0  0  0  0  0  0
   17.5368  -21.4473  -15.1668 O   0  0  0  0  0  0  0  0  0  0  0  0
  2  1  1  0
  3  2  2  0
  4  2  1  0
  5  6  1  0
  5  4  1  0
  7  6  1  0
  7  8  1  0
  8 10  1  0
  8  9  1  6
 10 11  2  0
 12 10  1  0
 12 13  1  0
 13 14  1  1
 14 15  1  0
 16 17  2  0
 16 13  1  0
 18 19  1  0
 19 29  2  0
 20 19  1  0
 20 21  2  0
 21 22  1  0
 22 28  2  0
 22 23  1  0
 24 23  1  6
 24 26  1  0
 24 25  1  0
 25 16  1  0
 26 30  1  0
 27 26  2  0
 29 28  1  0
M  END
$$$$
