RCY.pdb
     RDKit          3D

 30 30  0  0  1  0  0  0  0  0999 V2000
   20.8984  -12.8837  -17.6336 N   0  0  0  0  0  0  0  0  0  0  0  0
   20.4455  -13.5069  -18.8147 C   0  0  0  0  0  0  0  0  0  0  0  0
   21.2013  -14.3810  -19.4069 N   0  0  0  0  0  0  0  0  0  0  0  0
   19.1775  -13.2023  -19.3769 N   0  0  0  0  0  0  0  0  0  0  0  0
   18.1370  -12.7266  -18.4790 C   0  0  0  0  0  0  0  0  0  0  0  0
   18.1446  -11.2092  -18.4118 C   0  0  0  0  0  0  0  0  0  0  0  0
   17.0525  -10.7694  -17.4784 C   0  0  0  0  0  0  0  0  0  0  0  0
   17.4228  -11.0534  -16.0601 C   0  0  2  0  0  0  0  0  0  0  0  0
   17.0689  -12.4090  -15.7326 N   0  0  0  0  0  0  0  0  0  0  0  0
   16.7109  -10.1169  -15.1562 C   0  0  0  0  0  0  0  0  0  0  0  0
   15.5573   -9.6603  -15.4641 O   0  0  0  0  0  0  0  0  0  0  0  0
   20.8954  -14.8837  -20.2601 N   0  0  0  0  0  0  0  0  0  0  0  0
   17.2550   -9.6793  -13.9204 C   0  0  1  0  0  0  0  0  0  0  0  0
   16.5619   -8.8443  -12.9825 C   0  0  0  0  0  0  0  0  0  0  0  0
   15.3526   -9.5209  -12.3806 S   0  0  0  0  0  0  0  0  0  0  0  0
   15.7376  -11.0501  -11.5346 C   0  0  0  0  0  0  0  0  0  0  0  0
   17.4750   -8.3152  -11.9221 O   0  0  0  0  0  0  0  0  0  0  0  0
   18.4383   -9.0014  -11.4719 O   0  0  0  0  0  0  0  0  0  0  0  0
   21.8749   -6.3767  -15.5362 C   0  0  0  0  0  0  0  0  0  0  0  0
   21.1448   -6.1027  -14.3983 C   0  0  0  0  0  0  0  0  0  0  0  0
   19.8470   -5.6643  -14.5066 C   0  0  0  0  0  0  0  0  0  0  0  0
   19.0952   -5.3837  -13.4013 C   0  0  0  0  0  0  0  0  0  0  0  0
   19.6707   -5.5508  -12.1488 C   0  0  0  0  0  0  0  0  0  0  0  0
   18.8660   -5.2250  -10.9534 C   0  0  2  0  0  0  0  0  0  0  0  0
   18.1889   -6.4348  -10.3985 N   0  0  0  0  0  0  0  0  0  0  0  0
   17.2776   -7.0259  -11.3972 C   0  0  0  0  0  0  0  0  0  0  0  0
   17.3666   -6.0546   -9.2400 O   0  0  0  0  0  0  0  0  0  0  0  0
   16.1156   -6.0561   -9.3595 C   0  0  0  0  0  0  0  0  0  0  0  0
   20.9679   -5.9885  -12.0273 C   0  0  0  0  0  0  0  0  0  0  0  0
   21.7042   -6.2644  -13.1524 O   0  0  0  0  0  0  0  0  0  0  0  0
  2  1  1  0
  3  2  2  0
  4  2  1  0
  5  6  1  0
  5  4  1  0
  7  6  1  0
  7  8  1  0
  8 10  1  0
  8  9  1  1
 10 11  2  0
 12 10  1  0
 12 13  1  0
 13 14  1  6
 14 15  1  0
 16 17  2  0
 16 13  1  0
 18 19  1  0
 19 29  2  0
 20 19  1  0
 20 21  2  0
 21 22  1  0
 22 28  2  0
 22 23  1  0
 24 23  1  6
 24 26  1  0
 24 25  1  0
 25 16  1  0
 26 30  1  0
 27 26  2  0
 29 28  1  0
M  END
$$$$
