RCY.pdb
     RDKit          3D

 30 30  0  0  1  0  0  0  0  0999 V2000
   17.0314  -21.6437  -15.1069 N   0  0  0  0  0  0  0  0  0  0  0  0
   17.6658  -21.3071  -16.3205 C   0  0  0  0  0  0  0  0  0  0  0  0
   16.9502  -21.1377  -17.3907 N   0  0  0  0  0  0  0  0  0  0  0  0
   19.0744  -21.1476  -16.4039 N   0  0  0  0  0  0  0  0  0  0  0  0
   19.8662  -21.5177  -15.2415 C   0  0  0  0  0  0  0  0  0  0  0  0
   20.4455  -22.9112  -15.4138 C   0  0  0  0  0  0  0  0  0  0  0  0
   21.9443  -22.8096  -15.3860 C   0  0  0  0  0  0  0  0  0  0  0  0
   22.3800  -21.6421  -14.5635 C   0  0  2  0  0  0  0  0  0  0  0  0
   22.5953  -20.5049  -15.4183 N   0  0  0  0  0  0  0  0  0  0  0  0
   23.6343  -21.9729  -13.8437 C   0  0  0  0  0  0  0  0  0  0  0  0
   23.9958  -23.1886  -13.6840 O   0  0  0  0  0  0  0  0  0  0  0  0
   17.3750  -20.8821  -18.3009 N   0  0  0  0  0  0  0  0  0  0  0  0
   24.4917  -20.9814  -13.2993 C   0  0  1  0  0  0  0  0  0  0  0  0
   25.7122  -21.2635  -12.6005 C   0  0  0  0  0  0  0  0  0  0  0  0
   26.9250  -20.6740  -13.2817 S   0  0  0  0  0  0  0  0  0  0  0  0
   26.8089  -18.9075  -13.5427 C   0  0  0  0  0  0  0  0  0  0  0  0
   25.6419  -20.8551  -11.1630 O   0  0  0  0  0  0  0  0  0  0  0  0
   24.8184  -19.9830  -10.7596 O   0  0  0  0  0  0  0  0  0  0  0  0
   28.8073  -19.0398   -3.2338 C   0  0  0  0  0  0  0  0  0  0  0  0
   28.5874  -19.6338   -4.4592 C   0  0  0  0  0  0  0  0  0  0  0  0
   29.2046  -19.1365   -5.5817 C   0  0  0  0  0  0  0  0  0  0  0  0
   29.0097  -19.6998   -6.8107 C   0  0  0  0  0  0  0  0  0  0  0  0
   28.1664  -20.7984   -6.9096 C   0  0  0  0  0  0  0  0  0  0  0  0
   27.9364  -21.3936   -8.2421 C   0  0  1  0  0  0  0  0  0  0  0  0
   26.6752  -20.8876   -8.8612 N   0  0  0  0  0  0  0  0  0  0  0  0
   26.5023  -21.4413  -10.2179 C   0  0  0  0  0  0  0  0  0  0  0  0
   26.7439  -19.4252   -9.0007 O   0  0  0  0  0  0  0  0  0  0  0  0
   27.4421  -18.9377   -9.9249 C   0  0  0  0  0  0  0  0  0  0  0  0
   27.5431  -21.3049   -5.7943 C   0  0  0  0  0  0  0  0  0  0  0  0
   27.7541  -20.7223   -4.5695 O   0  0  0  0  0  0  0  0  0  0  0  0
  2  1  1  0
  3  2  2  0
  4  2  1  0
  5  6  1  0
  5  4  1  0
  7  6  1  0
  7  8  1  0
  8 10  1  0
  8  9  1  6
 10 11  2  0
 12 10  1  0
 12 13  1  0
 13 14  1  6
 14 15  1  0
 16 17  2  0
 16 13  1  0
 18 19  1  0
 19 29  2  0
 20 19  1  0
 20 21  2  0
 21 22  1  0
 22 28  2  0
 22 23  1  0
 24 23  1  1
 24 26  1  0
 24 25  1  0
 25 16  1  0
 26 30  1  0
 27 26  2  0
 29 28  1  0
M  END
$$$$
