RCY.pdb
     RDKit          3D

 30 30  0  0  1  0  0  0  0  0999 V2000
   29.2903  -26.8449  -15.7559 N   0  0  0  0  0  0  0  0  0  0  0  0
   28.5266  -27.0230  -16.9279 C   0  0  0  0  0  0  0  0  0  0  0  0
   27.8388  -28.1132  -17.0835 N   0  0  0  0  0  0  0  0  0  0  0  0
   28.4897  -26.0361  -17.9484 N   0  0  0  0  0  0  0  0  0  0  0  0
   28.7951  -24.6646  -17.5732 C   0  0  0  0  0  0  0  0  0  0  0  0
   27.7190  -24.1117  -16.6548 C   0  0  0  0  0  0  0  0  0  0  0  0
   27.9705  -22.6435  -16.4582 C   0  0  0  0  0  0  0  0  0  0  0  0
   26.9966  -21.8301  -17.2453 C   0  0  2  0  0  0  0  0  0  0  0  0
   27.7105  -20.9085  -18.0887 N   0  0  0  0  0  0  0  0  0  0  0  0
   26.1059  -21.0812  -16.3252 C   0  0  0  0  0  0  0  0  0  0  0  0
   26.1721  -19.8072  -16.2432 O   0  0  0  0  0  0  0  0  0  0  0  0
   27.2556  -28.2797  -17.9240 N   0  0  0  0  0  0  0  0  0  0  0  0
   25.1461  -21.7192  -15.4968 C   0  0  2  0  0  0  0  0  0  0  0  0
   24.2886  -21.0311  -14.5756 C   0  0  0  0  0  0  0  0  0  0  0  0
   22.8309  -21.1085  -14.9651 S   0  0  0  0  0  0  0  0  0  0  0  0
   21.7313  -20.3626  -13.7665 C   0  0  0  0  0  0  0  0  0  0  0  0
   24.5014  -21.4854  -13.1661 O   0  0  0  0  0  0  0  0  0  0  0  0
   24.4210  -22.7061  -12.8422 O   0  0  0  0  0  0  0  0  0  0  0  0
   30.9766  -21.6396  -12.7114 C   0  0  0  0  0  0  0  0  0  0  0  0
   29.7986  -21.2700  -12.0963 C   0  0  0  0  0  0  0  0  0  0  0  0
   29.3710  -21.9415  -10.9763 C   0  0  0  0  0  0  0  0  0  0  0  0
   28.2099  -21.6022  -10.3419 C   0  0  0  0  0  0  0  0  0  0  0  0
   27.4576  -20.5533  -10.8536 C   0  0  0  0  0  0  0  0  0  0  0  0
   26.1897  -20.2011  -10.1821 C   0  0  2  0  0  0  0  0  0  0  0  0
   25.0342  -20.9513  -10.7583 N   0  0  0  0  0  0  0  0  0  0  0  0
   24.7993  -20.5508  -12.1588 C   0  0  0  0  0  0  0  0  0  0  0  0
   23.8106  -20.6281  -10.0091 O   0  0  0  0  0  0  0  0  0  0  0  0
   22.9598  -19.8696  -10.5383 C   0  0  0  0  0  0  0  0  0  0  0  0
   27.8745  -19.8741  -11.9734 C   0  0  0  0  0  0  0  0  0  0  0  0
   29.0450  -20.2328  -12.5941 O   0  0  0  0  0  0  0  0  0  0  0  0
  2  1  1  0
  3  2  2  0
  4  2  1  0
  5  6  1  0
  5  4  1  0
  7  6  1  0
  7  8  1  0
  8 10  1  0
  8  9  1  6
 10 11  2  0
 12 10  1  0
 12 13  1  0
 13 14  1  6
 14 15  1  0
 16 17  2  0
 16 13  1  0
 18 19  1  0
 19 29  2  0
 20 19  1  0
 20 21  2  0
 21 22  1  0
 22 28  2  0
 22 23  1  0
 24 23  1  6
 24 26  1  0
 24 25  1  0
 25 16  1  0
 26 30  1  0
 27 26  2  0
 29 28  1  0
M  END
$$$$
