RCY.pdb
     RDKit          3D

 30 30  0  0  1  0  0  0  0  0999 V2000
   30.4618  -21.5928  -18.5658 N   0  0  0  0  0  0  0  0  0  0  0  0
   30.3745  -20.2904  -19.0994 C   0  0  0  0  0  0  0  0  0  0  0  0
   30.8941  -20.0398  -20.2626 N   0  0  0  0  0  0  0  0  0  0  0  0
   29.7297  -19.2397  -18.3945 N   0  0  0  0  0  0  0  0  0  0  0  0
   28.9972  -19.5864  -17.1869 C   0  0  0  0  0  0  0  0  0  0  0  0
   27.5302  -19.8216  -17.5032 C   0  0  0  0  0  0  0  0  0  0  0  0
   26.8103  -20.1258  -16.2199 C   0  0  0  0  0  0  0  0  0  0  0  0
   27.4916  -21.2293  -15.4800 C   0  0  2  0  0  0  0  0  0  0  0  0
   27.7598  -22.3187  -16.3810 N   0  0  0  0  0  0  0  0  0  0  0  0
   26.6285  -21.6988  -14.3685 C   0  0  0  0  0  0  0  0  0  0  0  0
   25.6659  -22.5113  -14.5860 O   0  0  0  0  0  0  0  0  0  0  0  0
   30.8195  -19.1070  -20.7083 N   0  0  0  0  0  0  0  0  0  0  0  0
   26.8140  -21.2834  -13.0240 C   0  0  2  0  0  0  0  0  0  0  0  0
   25.7918  -21.3200  -12.0184 C   0  0  0  0  0  0  0  0  0  0  0  0
   26.3064  -20.9443  -10.6485 S   0  0  0  0  0  0  0  0  0  0  0  0
   27.9391  -21.5877  -10.2983 C   0  0  0  0  0  0  0  0  0  0  0  0
   24.6022  -20.4964  -12.3988 O   0  0  0  0  0  0  0  0  0  0  0  0
   24.7131  -19.4621  -13.1195 O   0  0  0  0  0  0  0  0  0  0  0  0
   17.4096  -18.5821  -16.4403 C   0  0  0  0  0  0  0  0  0  0  0  0
   18.5254  -19.1154  -15.8292 C   0  0  0  0  0  0  0  0  0  0  0  0
   19.6919  -18.3907  -15.7811 C   0  0  0  0  0  0  0  0  0  0  0  0
   20.8154  -18.8878  -15.1840 C   0  0  0  0  0  0  0  0  0  0  0  0
   20.7597  -20.1546  -14.6184 C   0  0  0  0  0  0  0  0  0  0  0  0
   21.9811  -20.7025  -13.9934 C   0  0  2  0  0  0  0  0  0  0  0  0
   22.0912  -20.3053  -12.5581 N   0  0  0  0  0  0  0  0  0  0  0  0
   23.3184  -20.8611  -11.9563 C   0  0  0  0  0  0  0  0  0  0  0  0
   20.9559  -20.8567  -11.8030 O   0  0  0  0  0  0  0  0  0  0  0  0
   20.0305  -20.0830  -11.4509 C   0  0  0  0  0  0  0  0  0  0  0  0
   19.5990  -20.8894  -14.6603 C   0  0  0  0  0  0  0  0  0  0  0  0
   18.4823  -20.3692  -15.2656 O   0  0  0  0  0  0  0  0  0  0  0  0
  2  1  1  0
  3  2  2  0
  4  2  1  0
  5  6  1  0
  5  4  1  0
  7  6  1  0
  7  8  1  0
  8 10  1  0
  8  9  1  6
 10 11  2  0
 12 10  1  0
 12 13  1  0
 13 14  1  6
 14 15  1  0
 16 17  2  0
 16 13  1  0
 18 19  1  0
 19 29  2  0
 20 19  1  0
 20 21  2  0
 21 22  1  0
 22 28  2  0
 22 23  1  0
 24 23  1  6
 24 26  1  0
 24 25  1  0
 25 16  1  0
 26 30  1  0
 27 26  2  0
 29 28  1  0
M  END
$$$$
