RCY.pdb
     RDKit          3D

 30 30  0  0  1  0  0  0  0  0999 V2000
   28.7341  -20.5297  -20.2735 N   0  0  0  0  0  0  0  0  0  0  0  0
   27.6926  -21.4249  -19.9534 C   0  0  0  0  0  0  0  0  0  0  0  0
   27.6321  -22.5758  -20.5514 N   0  0  0  0  0  0  0  0  0  0  0  0
   26.7025  -21.0993  -18.9888 N   0  0  0  0  0  0  0  0  0  0  0  0
   26.7649  -19.7825  -18.3746 C   0  0  0  0  0  0  0  0  0  0  0  0
   27.7766  -19.7709  -17.2417 C   0  0  0  0  0  0  0  0  0  0  0  0
   27.0362  -19.9125  -15.9420 C   0  0  0  0  0  0  0  0  0  0  0  0
   27.6371  -20.9940  -15.1061 C   0  0  2  0  0  0  0  0  0  0  0  0
   28.1168  -22.0499  -15.9577 N   0  0  0  0  0  0  0  0  0  0  0  0
   26.6204  -21.5294  -14.1677 C   0  0  0  0  0  0  0  0  0  0  0  0
   25.7269  -22.3503  -14.5699 O   0  0  0  0  0  0  0  0  0  0  0  0
   26.8646  -23.2487  -20.3718 N   0  0  0  0  0  0  0  0  0  0  0  0
   26.5778  -21.1706  -12.7951 C   0  0  2  0  0  0  0  0  0  0  0  0
   25.4108  -21.2762  -11.9679 C   0  0  0  0  0  0  0  0  0  0  0  0
   25.6740  -20.8826  -10.5333 S   0  0  0  0  0  0  0  0  0  0  0  0
   24.1953  -20.8203   -9.5274 C   0  0  0  0  0  0  0  0  0  0  0  0
   24.2510  -20.5213  -12.5366 O   0  0  0  0  0  0  0  0  0  0  0  0
   24.3101  -19.2755  -12.7511 O   0  0  0  0  0  0  0  0  0  0  0  0
   16.9894  -18.3667  -16.7780 C   0  0  0  0  0  0  0  0  0  0  0  0
   18.0978  -19.0087  -16.2658 C   0  0  0  0  0  0  0  0  0  0  0  0
   19.3390  -18.4312  -16.3843 C   0  0  0  0  0  0  0  0  0  0  0  0
   20.4577  -19.0386  -15.8889 C   0  0  0  0  0  0  0  0  0  0  0  0
   20.3192  -20.2661  -15.2547 C   0  0  0  0  0  0  0  0  0  0  0  0
   21.5317  -20.9349  -14.7397 C   0  0  1  0  0  0  0  0  0  0  0  0
   21.8649  -20.4821  -13.3562 N   0  0  0  0  0  0  0  0  0  0  0  0
   23.0550  -21.1914  -12.8484 C   0  0  0  0  0  0  0  0  0  0  0  0
   20.7538  -20.8049  -12.4483 O   0  0  0  0  0  0  0  0  0  0  0  0
   19.9232  -19.9054  -12.1650 C   0  0  0  0  0  0  0  0  0  0  0  0
   19.0831  -20.8540  -15.1302 C   0  0  0  0  0  0  0  0  0  0  0  0
   17.9730  -20.2248  -15.6358 O   0  0  0  0  0  0  0  0  0  0  0  0
  2  1  1  0
  3  2  2  0
  4  2  1  0
  5  6  1  0
  5  4  1  0
  7  6  1  0
  7  8  1  0
  8 10  1  0
  8  9  1  6
 10 11  2  0
 12 10  1  0
 12 13  1  0
 13 14  1  6
 14 15  1  0
 16 17  2  0
 16 13  1  0
 18 19  1  0
 19 29  2  0
 20 19  1  0
 20 21  2  0
 21 22  1  0
 22 28  2  0
 22 23  1  0
 24 23  1  6
 24 26  1  0
 24 25  1  0
 25 16  1  0
 26 30  1  0
 27 26  2  0
 29 28  1  0
M  END
$$$$
