RCY.pdb
     RDKit          3D

 30 30  0  0  1  0  0  0  0  0999 V2000
   28.8965  -31.9522  -15.7908 N   0  0  0  0  0  0  0  0  0  0  0  0
   28.9885  -31.9280  -17.1978 C   0  0  0  0  0  0  0  0  0  0  0  0
   28.6087  -32.9645  -17.8814 N   0  0  0  0  0  0  0  0  0  0  0  0
   29.4882  -30.7937  -17.8908 N   0  0  0  0  0  0  0  0  0  0  0  0
   29.8451  -29.6242  -17.1035 C   0  0  0  0  0  0  0  0  0  0  0  0
   28.7218  -28.6020  -17.1294 C   0  0  0  0  0  0  0  0  0  0  0  0
   29.1522  -27.4027  -16.3333 C   0  0  0  0  0  0  0  0  0  0  0  0
   29.8376  -26.4055  -17.2081 C   0  0  2  0  0  0  0  0  0  0  0  0
   31.2628  -26.5761  -17.1071 N   0  0  0  0  0  0  0  0  0  0  0  0
   29.4665  -25.0308  -16.7918 C   0  0  0  0  0  0  0  0  0  0  0  0
   30.3629  -24.1380  -16.6094 O   0  0  0  0  0  0  0  0  0  0  0  0
   28.7130  -33.0117  -18.9116 N   0  0  0  0  0  0  0  0  0  0  0  0
   28.1220  -24.6307  -16.5749 C   0  0  2  0  0  0  0  0  0  0  0  0
   27.6327  -23.2976  -16.7772 C   0  0  0  0  0  0  0  0  0  0  0  0
   27.9699  -22.7530  -18.1455 S   0  0  0  0  0  0  0  0  0  0  0  0
   27.2013  -21.1753  -18.4950 C   0  0  0  0  0  0  0  0  0  0  0  0
   26.1679  -23.1894  -16.4930 O   0  0  0  0  0  0  0  0  0  0  0  0
   25.3062  -23.7691  -17.2162 O   0  0  0  0  0  0  0  0  0  0  0  0
   18.6528  -20.8031  -12.6704 C   0  0  0  0  0  0  0  0  0  0  0  0
   19.9912  -20.9874  -12.9491 C   0  0  0  0  0  0  0  0  0  0  0  0
   20.7650  -19.9174  -13.3292 C   0  0  0  0  0  0  0  0  0  0  0  0
   22.0932  -20.0636  -13.6124 C   0  0  0  0  0  0  0  0  0  0  0  0
   22.6574  -21.3281  -13.5089 C   0  0  0  0  0  0  0  0  0  0  0  0
   24.0883  -21.4914  -13.8380 C   0  0  2  0  0  0  0  0  0  0  0  0
   24.2779  -22.2495  -15.1105 N   0  0  0  0  0  0  0  0  0  0  0  0
   25.7134  -22.4302  -15.4004 C   0  0  0  0  0  0  0  0  0  0  0  0
   23.7071  -21.4869  -16.2311 O   0  0  0  0  0  0  0  0  0  0  0  0
   22.5296  -21.7342  -16.5937 C   0  0  0  0  0  0  0  0  0  0  0  0
   21.8938  -22.4062  -13.1300 C   0  0  0  0  0  0  0  0  0  0  0  0
   20.5610  -22.2352  -12.8501 O   0  0  0  0  0  0  0  0  0  0  0  0
  2  1  1  0
  3  2  2  0
  4  2  1  0
  5  6  1  0
  5  4  1  0
  7  6  1  0
  7  8  1  0
  8 10  1  0
  8  9  1  1
 10 11  2  0
 12 10  1  0
 12 13  1  0
 13 14  1  6
 14 15  1  0
 16 17  2  0
 16 13  1  0
 18 19  1  0
 19 29  2  0
 20 19  1  0
 20 21  2  0
 21 22  1  0
 22 28  2  0
 22 23  1  0
 24 23  1  1
 24 26  1  0
 24 25  1  0
 25 16  1  0
 26 30  1  0
 27 26  2  0
 29 28  1  0
M  END
$$$$
