RCY.pdb
     RDKit          3D

 30 30  0  0  1  0  0  0  0  0999 V2000
   21.2828  -26.6074  -21.3056 N   0  0  0  0  0  0  0  0  0  0  0  0
   19.9067  -26.9151  -21.3266 C   0  0  0  0  0  0  0  0  0  0  0  0
   19.2896  -27.0080  -22.4652 N   0  0  0  0  0  0  0  0  0  0  0  0
   19.1740  -27.1274  -20.1289 N   0  0  0  0  0  0  0  0  0  0  0  0
   19.8683  -26.9250  -18.8672 C   0  0  0  0  0  0  0  0  0  0  0  0
   20.2781  -28.2581  -18.2653 C   0  0  0  0  0  0  0  0  0  0  0  0
   20.8979  -28.0019  -16.9208 C   0  0  0  0  0  0  0  0  0  0  0  0
   21.8939  -26.8924  -17.0003 C   0  0  2  0  0  0  0  0  0  0  0  0
   23.1828  -27.4272  -17.3510 N   0  0  0  0  0  0  0  0  0  0  0  0
   21.9786  -26.1965  -15.6928 C   0  0  0  0  0  0  0  0  0  0  0  0
   22.7049  -26.6623  -14.7497 O   0  0  0  0  0  0  0  0  0  0  0  0
   18.2885  -27.2693  -22.5279 N   0  0  0  0  0  0  0  0  0  0  0  0
   21.2733  -24.9967  -15.4143 C   0  0  2  0  0  0  0  0  0  0  0  0
   21.3439  -24.2880  -14.1693 C   0  0  0  0  0  0  0  0  0  0  0  0
   21.6067  -22.8115  -14.3517 S   0  0  0  0  0  0  0  0  0  0  0  0
   21.4325  -21.8639  -12.8437 C   0  0  0  0  0  0  0  0  0  0  0  0
   20.1356  -24.5260  -13.3199 O   0  0  0  0  0  0  0  0  0  0  0  0
   18.9888  -24.1187  -13.6670 O   0  0  0  0  0  0  0  0  0  0  0  0
   15.5046  -26.0793   -6.0330 C   0  0  0  0  0  0  0  0  0  0  0  0
   16.5199  -26.0167   -6.9648 C   0  0  0  0  0  0  0  0  0  0  0  0
   16.4478  -26.7759   -8.1078 C   0  0  0  0  0  0  0  0  0  0  0  0
   17.4347  -26.7386   -9.0514 C   0  0  0  0  0  0  0  0  0  0  0  0
   18.5275  -25.9098   -8.8346 C   0  0  0  0  0  0  0  0  0  0  0  0
   19.6066  -25.8867   -9.8433 C   0  0  1  0  0  0  0  0  0  0  0  0
   19.1386  -25.3072  -11.1375 N   0  0  0  0  0  0  0  0  0  0  0  0
   20.2524  -25.2174  -12.1012 C   0  0  0  0  0  0  0  0  0  0  0  0
   18.6497  -23.9374  -10.9189 O   0  0  0  0  0  0  0  0  0  0  0  0
   17.4147  -23.7507  -10.7805 C   0  0  0  0  0  0  0  0  0  0  0  0
   18.6112  -25.1457   -7.6952 C   0  0  0  0  0  0  0  0  0  0  0  0
   17.6071  -25.1996   -6.7608 O   0  0  0  0  0  0  0  0  0  0  0  0
  2  1  1  0
  3  2  2  0
  4  2  1  0
  5  6  1  0
  5  4  1  0
  7  6  1  0
  7  8  1  0
  8 10  1  0
  8  9  1  1
 10 11  2  0
 12 10  1  0
 12 13  1  0
 13 14  1  6
 14 15  1  0
 16 17  2  0
 16 13  1  0
 18 19  1  0
 19 29  2  0
 20 19  1  0
 20 21  2  0
 21 22  1  0
 22 28  2  0
 22 23  1  0
 24 23  1  6
 24 26  1  0
 24 25  1  0
 25 16  1  0
 26 30  1  0
 27 26  2  0
 29 28  1  0
M  END
$$$$
