RCY.pdb
     RDKit          3D

 30 30  0  0  1  0  0  0  0  0999 V2000
   25.0236  -20.5260   -8.8179 N   0  0  0  0  0  0  0  0  0  0  0  0
   25.0022  -21.2234  -10.0434 C   0  0  0  0  0  0  0  0  0  0  0  0
   23.8842  -21.3404  -10.6932 N   0  0  0  0  0  0  0  0  0  0  0  0
   26.1776  -21.8045  -10.5888 N   0  0  0  0  0  0  0  0  0  0  0  0
   26.2342  -21.9879  -12.0304 C   0  0  0  0  0  0  0  0  0  0  0  0
   27.0339  -20.8708  -12.6782 C   0  0  0  0  0  0  0  0  0  0  0  0
   26.1701  -20.2057  -13.7121 C   0  0  0  0  0  0  0  0  0  0  0  0
   26.0719  -21.0485  -14.9407 C   0  0  2  0  0  0  0  0  0  0  0  0
   27.3717  -21.1701  -15.5458 N   0  0  0  0  0  0  0  0  0  0  0  0
   25.1270  -20.4294  -15.9023 C   0  0  0  0  0  0  0  0  0  0  0  0
   25.5443  -19.6249  -16.8037 O   0  0  0  0  0  0  0  0  0  0  0  0
   23.8290  -21.8214  -11.6096 N   0  0  0  0  0  0  0  0  0  0  0  0
   23.7312  -20.6864  -15.8810 C   0  0  2  0  0  0  0  0  0  0  0  0
   22.7958  -20.1481  -16.8258 C   0  0  0  0  0  0  0  0  0  0  0  0
   21.8983  -21.2048  -17.4261 S   0  0  0  0  0  0  0  0  0  0  0  0
   20.7018  -20.5507  -18.5849 C   0  0  0  0  0  0  0  0  0  0  0  0
   21.9999  -19.0216  -16.2463 O   0  0  0  0  0  0  0  0  0  0  0  0
   21.5439  -19.0682  -15.0668 O   0  0  0  0  0  0  0  0  0  0  0  0
   18.0149  -11.2411  -15.4894 C   0  0  0  0  0  0  0  0  0  0  0  0
   18.7625  -12.3038  -15.9526 C   0  0  0  0  0  0  0  0  0  0  0  0
   19.8714  -12.7169  -15.2539 C   0  0  0  0  0  0  0  0  0  0  0  0
   20.6343  -13.7653  -15.6834 C   0  0  0  0  0  0  0  0  0  0  0  0
   20.2669  -14.4165  -16.8534 C   0  0  0  0  0  0  0  0  0  0  0  0
   21.1051  -15.5353  -17.3312 C   0  0  1  0  0  0  0  0  0  0  0  0
   20.8981  -16.7672  -16.5130 N   0  0  0  0  0  0  0  0  0  0  0  0
   21.7392  -17.8719  -17.0126 C   0  0  0  0  0  0  0  0  0  0  0  0
   19.4997  -17.2082  -16.6268 O   0  0  0  0  0  0  0  0  0  0  0  0
   19.1415  -17.8230  -17.6626 C   0  0  0  0  0  0  0  0  0  0  0  0
   19.1602  -14.0126  -17.5612 C   0  0  0  0  0  0  0  0  0  0  0  0
   18.4084  -12.9564  -17.1102 O   0  0  0  0  0  0  0  0  0  0  0  0
  2  1  1  0
  3  2  2  0
  4  2  1  0
  5  6  1  0
  5  4  1  0
  7  6  1  0
  7  8  1  0
  8 10  1  0
  8  9  1  6
 10 11  2  0
 12 10  1  0
 12 13  1  0
 13 14  1  6
 14 15  1  0
 16 17  2  0
 16 13  1  0
 18 19  1  0
 19 29  2  0
 20 19  1  0
 20 21  2  0
 21 22  1  0
 22 28  2  0
 22 23  1  0
 24 23  1  1
 24 26  1  0
 24 25  1  0
 25 16  1  0
 26 30  1  0
 27 26  2  0
 29 28  1  0
M  END
$$$$
