RID.pdb
     RDKit          3D

 28 27  0  0  1  0  0  0  0  0999 V2000
   22.0638   -8.5813  -23.1487 N   0  0  0  0  0  0  0  0  0  0  0  0
   22.7687   -7.3506  -22.9738 C   0  0  0  0  0  0  0  0  0  0  0  0
   22.1727   -6.3179  -22.4754 N   0  0  0  0  0  0  0  0  0  0  0  0
   24.1337   -7.1825  -23.3244 N   0  0  0  0  0  0  0  0  0  0  0  0
   24.9213   -8.2929  -23.8203 C   0  0  0  0  0  0  0  0  0  0  0  0
   25.4546   -9.1776  -22.7341 C   0  0  0  0  0  0  0  0  0  0  0  0
   26.4734   -8.5005  -21.8556 C   0  0  0  0  0  0  0  0  0  0  0  0
   27.0903   -9.4531  -20.8592 C   0  0  2  0  0  0  0  0  0  0  0  0
   27.8669  -10.4998  -21.4244 N   0  0  0  0  0  0  0  0  0  0  0  0
   26.1743   -9.8330  -19.7677 C   0  0  0  0  0  0  0  0  0  0  0  0
   25.4173  -10.8008  -19.9479 O   0  0  0  0  0  0  0  0  0  0  0  0
   22.7377   -5.4860  -22.2386 C   0  0  0  0  0  0  0  0  0  0  0  0
   28.0522  -11.5171  -15.5725 C   0  0  0  0  0  0  0  0  0  0  0  0
   27.1295  -11.2485  -16.7652 C   0  0  2  0  0  0  0  0  0  0  0  0
   26.1599  -10.1897  -16.3832 C   0  0  0  0  0  0  0  0  0  0  0  0
   25.4865  -10.4565  -15.0448 C   0  0  2  0  0  0  0  0  0  0  0  0
   25.2551   -9.6681  -17.4106 N   0  0  0  0  0  0  0  0  0  0  0  0
   26.1047   -9.1403  -18.5027 C   0  0  0  0  0  0  0  0  0  0  0  0
   24.1505   -8.7887  -17.1231 O   0  0  0  0  0  0  0  0  0  0  0  0
   24.4198   -7.6830  -16.5212 N   0  0  0  0  0  0  0  0  0  0  0  0
   22.7844   -8.9610  -17.4174 C   0  0  2  0  0  0  0  0  0  0  0  0
   21.7189   -8.4699  -16.5662 C   0  0  0  0  0  0  0  0  0  0  0  0
   21.3023   -9.5286  -15.5604 C   0  0  0  0  0  0  0  0  0  0  0  0
   20.1421   -9.0043  -14.8086 O   0  0  0  0  0  0  0  0  0  0  0  0
   19.5872   -7.9097  -15.0837 C   0  0  0  0  0  0  0  0  0  0  0  0
   22.0443   -7.2035  -15.8950 O   0  0  0  0  0  0  0  0  0  0  0  0
   21.6521   -6.0815  -16.3372 O   0  0  0  0  0  0  0  0  0  0  0  0
   19.6513   -9.7595  -13.7573 O   0  0  0  0  0  0  0  0  0  0  0  0
  2  1  1  0
  3  2  2  0
  4  2  1  0
  5  4  1  0
  6  5  1  0
  7  6  1  0
  8 10  1  0
  8  7  1  0
  8  9  1  6
 10 11  2  0
 13 14  1  0
 13 12  1  0
 14 16  1  0
 14 15  1  6
 16 17  1  6
 17 10  1  0
 18 16  1  0
 19 18  2  0
 20 18  1  0
 21 22  1  1
 21 20  1  0
 23 24  2  0
 23 22  1  0
 25 28  1  0
 25 21  1  0
 26 25  2  0
 27 23  1  0
M  END
$$$$
