RID.pdb
     RDKit          3D

 28 27  0  0  1  0  0  0  0  0999 V2000
   19.9640  -14.1387  -21.6673 N   0  0  0  0  0  0  0  0  0  0  0  0
   19.2031  -12.9338  -21.7740 C   0  0  0  0  0  0  0  0  0  0  0  0
   17.9732  -12.9670  -22.1693 N   0  0  0  0  0  0  0  0  0  0  0  0
   19.7302  -11.6538  -21.4611 N   0  0  0  0  0  0  0  0  0  0  0  0
   21.0604  -11.5076  -20.9054 C   0  0  0  0  0  0  0  0  0  0  0  0
   21.2085  -12.1190  -19.5448 C   0  0  0  0  0  0  0  0  0  0  0  0
   20.7590  -11.2136  -18.4285 C   0  0  0  0  0  0  0  0  0  0  0  0
   20.9934  -11.8260  -17.0681 C   0  0  2  0  0  0  0  0  0  0  0  0
   20.4913  -13.1447  -16.9040 N   0  0  0  0  0  0  0  0  0  0  0  0
   20.7511  -10.8896  -15.9548 C   0  0  0  0  0  0  0  0  0  0  0  0
   19.6036  -10.8217  -15.4852 O   0  0  0  0  0  0  0  0  0  0  0  0
   17.4420  -12.0820  -22.2111 C   0  0  0  0  0  0  0  0  0  0  0  0
   22.3909   -9.6923  -10.6446 C   0  0  0  0  0  0  0  0  0  0  0  0
   21.8779   -8.8478  -11.8151 C   0  0  2  0  0  0  0  0  0  0  0  0
   21.9676   -9.6581  -13.0570 C   0  0  0  0  0  0  0  0  0  0  0  0
   23.3159  -10.3443  -13.2220 C   0  0  2  0  0  0  0  0  0  0  0  0
   21.4313   -9.0946  -14.2985 N   0  0  0  0  0  0  0  0  0  0  0  0
   21.7721  -10.0437  -15.3829 C   0  0  0  0  0  0  0  0  0  0  0  0
   21.6374   -7.7272  -14.7035 O   0  0  0  0  0  0  0  0  0  0  0  0
   22.6391   -7.4868  -15.4756 N   0  0  0  0  0  0  0  0  0  0  0  0
   20.8807   -6.5856  -14.3771 C   0  0  1  0  0  0  0  0  0  0  0  0
   21.0069   -5.3212  -15.0744 C   0  0  0  0  0  0  0  0  0  0  0  0
   20.9487   -5.5275  -16.5778 C   0  0  0  0  0  0  0  0  0  0  0  0
   21.0602   -4.2002  -17.2195 O   0  0  0  0  0  0  0  0  0  0  0  0
   21.4791   -3.1808  -16.6136 C   0  0  0  0  0  0  0  0  0  0  0  0
   20.0268   -4.3151  -14.6416 O   0  0  0  0  0  0  0  0  0  0  0  0
   18.8464   -4.6236  -14.2954 O   0  0  0  0  0  0  0  0  0  0  0  0
   20.6854   -4.0843  -18.5471 O   0  0  0  0  0  0  0  0  0  0  0  0
  2  1  1  0
  3  2  2  0
  4  2  1  0
  5  4  1  0
  6  5  1  0
  7  6  1  0
  8 10  1  0
  8  7  1  0
  8  9  1  1
 10 11  2  0
 13 14  1  0
 13 12  1  0
 14 16  1  0
 14 15  1  6
 16 17  1  6
 17 10  1  0
 18 16  1  0
 19 18  2  0
 20 18  1  0
 21 22  1  1
 21 20  1  0
 23 24  2  0
 23 22  1  0
 25 28  1  0
 25 21  1  0
 26 25  2  0
 27 23  1  0
M  END
$$$$
