RID.pdb
     RDKit          3D

 28 27  0  0  1  0  0  0  0  0999 V2000
   29.0970  -26.1630  -16.7862 N   0  0  0  0  0  0  0  0  0  0  0  0
   29.6691  -24.9816  -17.3510 C   0  0  0  0  0  0  0  0  0  0  0  0
   30.7705  -25.0428  -18.0241 N   0  0  0  0  0  0  0  0  0  0  0  0
   29.0832  -23.6959  -17.2165 N   0  0  0  0  0  0  0  0  0  0  0  0
   27.7565  -23.4206  -17.7297 C   0  0  0  0  0  0  0  0  0  0  0  0
   27.2808  -22.0296  -17.4369 C   0  0  0  0  0  0  0  0  0  0  0  0
   26.1843  -21.9754  -16.4061 C   0  0  0  0  0  0  0  0  0  0  0  0
   26.6419  -22.4836  -15.0595 C   0  0  2  0  0  0  0  0  0  0  0  0
   27.3156  -23.7341  -15.0824 N   0  0  0  0  0  0  0  0  0  0  0  0
   25.6408  -22.2983  -13.9927 C   0  0  0  0  0  0  0  0  0  0  0  0
   24.6864  -23.0910  -13.9402 O   0  0  0  0  0  0  0  0  0  0  0  0
   31.1514  -24.1731  -18.4314 C   0  0  0  0  0  0  0  0  0  0  0  0
   24.4758  -21.2282   -8.5914 C   0  0  0  0  0  0  0  0  0  0  0  0
   24.1480  -20.2532   -9.7264 C   0  0  2  0  0  0  0  0  0  0  0  0
   25.0900  -20.5003  -10.8482 C   0  0  0  0  0  0  0  0  0  0  0  0
   26.1366  -19.4055  -10.9965 C   0  0  2  0  0  0  0  0  0  0  0  0
   24.5484  -20.9816  -12.1215 N   0  0  0  0  0  0  0  0  0  0  0  0
   25.7052  -21.2441  -13.0081 C   0  0  0  0  0  0  0  0  0  0  0  0
   23.4756  -20.3267  -12.8260 O   0  0  0  0  0  0  0  0  0  0  0  0
   23.6602  -20.0724  -14.0744 N   0  0  0  0  0  0  0  0  0  0  0  0
   22.2186  -19.9192  -12.3397 C   0  0  2  0  0  0  0  0  0  0  0  0
   20.9737  -20.1807  -13.0346 C   0  0  0  0  0  0  0  0  0  0  0  0
   21.2220  -20.9812  -14.3009 C   0  0  0  0  0  0  0  0  0  0  0  0
   19.9433  -21.0665  -15.0382 O   0  0  0  0  0  0  0  0  0  0  0  0
   19.0619  -20.1709  -14.9843 C   0  0  0  0  0  0  0  0  0  0  0  0
   19.9590  -20.8284  -12.1914 O   0  0  0  0  0  0  0  0  0  0  0  0
   20.1514  -21.9563  -11.6445 O   0  0  0  0  0  0  0  0  0  0  0  0
   19.7155  -22.1853  -15.8211 O   0  0  0  0  0  0  0  0  0  0  0  0
  2  1  1  0
  3  2  2  0
  4  2  1  0
  5  4  1  0
  6  5  1  0
  7  6  1  0
  8 10  1  0
  8  7  1  0
  8  9  1  6
 10 11  2  0
 13 14  1  0
 13 12  1  0
 14 16  1  0
 14 15  1  6
 16 17  1  6
 17 10  1  0
 18 16  1  0
 19 18  2  0
 20 18  1  0
 21 22  1  6
 21 20  1  0
 23 24  2  0
 23 22  1  0
 25 28  1  0
 25 21  1  0
 26 25  2  0
 27 23  1  0
M  END
$$$$
