RID.pdb
     RDKit          3D

 28 27  0  0  1  0  0  0  0  0999 V2000
   17.1559  -27.0303   -7.8546 N   0  0  0  0  0  0  0  0  0  0  0  0
   17.5819  -26.0360   -6.9208 C   0  0  0  0  0  0  0  0  0  0  0  0
   17.0322  -25.9525   -5.7543 N   0  0  0  0  0  0  0  0  0  0  0  0
   18.6099  -25.0986   -7.2017 N   0  0  0  0  0  0  0  0  0  0  0  0
   19.2920  -25.0965   -8.4800 C   0  0  0  0  0  0  0  0  0  0  0  0
   18.4184  -24.6706   -9.6212 C   0  0  0  0  0  0  0  0  0  0  0  0
   19.0315  -23.5927  -10.4757 C   0  0  0  0  0  0  0  0  0  0  0  0
   19.0738  -22.2591   -9.7682 C   0  0  2  0  0  0  0  0  0  0  0  0
   17.8057  -21.6960   -9.4633 N   0  0  0  0  0  0  0  0  0  0  0  0
   20.0851  -21.3368  -10.3172 C   0  0  0  0  0  0  0  0  0  0  0  0
   19.7376  -20.1733  -10.5772 O   0  0  0  0  0  0  0  0  0  0  0  0
   17.3763  -25.2361   -5.0943 C   0  0  0  0  0  0  0  0  0  0  0  0
   23.7236  -19.6868   -8.5233 C   0  0  0  0  0  0  0  0  0  0  0  0
   23.8420  -21.0998   -9.1027 C   0  0  1  0  0  0  0  0  0  0  0  0
   23.7170  -21.0162  -10.5806 C   0  0  0  0  0  0  0  0  0  0  0  0
   24.8553  -20.2425  -11.2299 C   0  0  2  0  0  0  0  0  0  0  0  0
   22.3998  -20.7295  -11.1547 N   0  0  0  0  0  0  0  0  0  0  0  0
   21.4557  -21.7116  -10.5739 C   0  0  0  0  0  0  0  0  0  0  0  0
   22.1725  -20.5423  -12.5651 O   0  0  0  0  0  0  0  0  0  0  0  0
   22.1065  -21.6000  -13.2961 N   0  0  0  0  0  0  0  0  0  0  0  0
   21.9997  -19.3418  -13.2804 C   0  0  2  0  0  0  0  0  0  0  0  0
   21.7627  -19.2942  -14.7095 C   0  0  0  0  0  0  0  0  0  0  0  0
   22.9431  -19.8721  -15.4704 C   0  0  0  0  0  0  0  0  0  0  0  0
   22.6831  -19.6865  -16.9140 O   0  0  0  0  0  0  0  0  0  0  0  0
   21.6848  -19.0609  -17.3541 C   0  0  0  0  0  0  0  0  0  0  0  0
   20.5063  -19.9399  -15.1150 O   0  0  0  0  0  0  0  0  0  0  0  0
   20.4265  -21.1849  -15.3427 O   0  0  0  0  0  0  0  0  0  0  0  0
   23.5851  -20.2282  -17.8138 O   0  0  0  0  0  0  0  0  0  0  0  0
  2  1  1  0
  3  2  2  0
  4  2  1  0
  5  4  1  0
  6  5  1  0
  7  6  1  0
  8 10  1  0
  8  7  1  0
  8  9  1  6
 10 11  2  0
 13 14  1  0
 13 12  1  0
 14 16  1  0
 14 15  1  1
 16 17  1  1
 17 10  1  0
 18 16  1  0
 19 18  2  0
 20 18  1  0
 21 22  1  6
 21 20  1  0
 23 24  2  0
 23 22  1  0
 25 28  1  0
 25 21  1  0
 26 25  2  0
 27 23  1  0
M  END
$$$$
