RID.pdb
     RDKit          3D

 28 27  0  0  1  0  0  0  0  0999 V2000
   19.2791  -22.5372   -9.6680 N   0  0  0  0  0  0  0  0  0  0  0  0
   20.0432  -22.8338   -8.4974 C   0  0  0  0  0  0  0  0  0  0  0  0
   19.6284  -23.7157   -7.6487 N   0  0  0  0  0  0  0  0  0  0  0  0
   21.2762  -22.1992   -8.1951 N   0  0  0  0  0  0  0  0  0  0  0  0
   21.9726  -21.4056   -9.1873 C   0  0  0  0  0  0  0  0  0  0  0  0
   23.2252  -20.7669   -8.6678 C   0  0  0  0  0  0  0  0  0  0  0  0
   23.9130  -19.8872   -9.6782 C   0  0  0  0  0  0  0  0  0  0  0  0
   24.8585  -20.6654  -10.5622 C   0  0  2  0  0  0  0  0  0  0  0  0
   26.1074  -20.9937   -9.9703 N   0  0  0  0  0  0  0  0  0  0  0  0
   24.9015  -20.1718  -11.9512 C   0  0  0  0  0  0  0  0  0  0  0  0
   25.2806  -19.0057  -12.1474 O   0  0  0  0  0  0  0  0  0  0  0  0
   20.2215  -23.9348   -6.8318 C   0  0  0  0  0  0  0  0  0  0  0  0
   27.2175  -21.2708  -17.0411 C   0  0  0  0  0  0  0  0  0  0  0  0
   25.9686  -20.5350  -16.5460 C   0  0  2  0  0  0  0  0  0  0  0  0
   25.7400  -20.8972  -15.1235 C   0  0  0  0  0  0  0  0  0  0  0  0
   26.0201  -22.3643  -14.8321 C   0  0  2  0  0  0  0  0  0  0  0  0
   24.5463  -20.3752  -14.4533 N   0  0  0  0  0  0  0  0  0  0  0  0
   24.5232  -20.9666  -13.0958 C   0  0  0  0  0  0  0  0  0  0  0  0
   23.2368  -20.3705  -15.0544 O   0  0  0  0  0  0  0  0  0  0  0  0
   22.5276  -21.4375  -14.9283 N   0  0  0  0  0  0  0  0  0  0  0  0
   22.5979  -19.3413  -15.7721 C   0  0  1  0  0  0  0  0  0  0  0  0
   21.2726  -19.4742  -16.3440 C   0  0  0  0  0  0  0  0  0  0  0  0
   20.4593  -18.2121  -16.1166 C   0  0  0  0  0  0  0  0  0  0  0  0
   19.9432  -18.2520  -14.7317 O   0  0  0  0  0  0  0  0  0  0  0  0
   20.0757  -19.2524  -13.9811 C   0  0  0  0  0  0  0  0  0  0  0  0
   21.2847  -19.8451  -17.7661 O   0  0  0  0  0  0  0  0  0  0  0  0
   22.3511  -19.8669  -18.4521 O   0  0  0  0  0  0  0  0  0  0  0  0
   19.2870  -17.1330  -14.2480 O   0  0  0  0  0  0  0  0  0  0  0  0
  2  1  1  0
  3  2  2  0
  4  2  1  0
  5  4  1  0
  6  5  1  0
  7  6  1  0
  8 10  1  0
  8  7  1  0
  8  9  1  1
 10 11  2  0
 13 14  1  0
 13 12  1  0
 14 16  1  0
 14 15  1  1
 16 17  1  6
 17 10  1  0
 18 16  1  0
 19 18  2  0
 20 18  1  0
 21 22  1  6
 21 20  1  0
 23 24  2  0
 23 22  1  0
 25 28  1  0
 25 21  1  0
 26 25  2  0
 27 23  1  0
M  END
$$$$
