RID.pdb
     RDKit          3D

 28 27  0  0  1  0  0  0  0  0999 V2000
   18.9847  -29.2836  -10.4943 N   0  0  0  0  0  0  0  0  0  0  0  0
   18.3830  -29.7773  -11.6928 C   0  0  0  0  0  0  0  0  0  0  0  0
   17.6286  -30.8262  -11.6648 N   0  0  0  0  0  0  0  0  0  0  0  0
   18.5662  -29.1664  -12.9607 N   0  0  0  0  0  0  0  0  0  0  0  0
   19.4399  -28.0217  -13.1207 C   0  0  0  0  0  0  0  0  0  0  0  0
   18.7524  -26.7100  -12.8890 C   0  0  0  0  0  0  0  0  0  0  0  0
   19.6759  -25.5242  -12.9831 C   0  0  0  0  0  0  0  0  0  0  0  0
   19.7764  -24.9899  -14.3921 C   0  0  2  0  0  0  0  0  0  0  0  0
   19.6384  -25.9622  -15.4186 N   0  0  0  0  0  0  0  0  0  0  0  0
   20.8559  -24.0007  -14.5676 C   0  0  0  0  0  0  0  0  0  0  0  0
   21.8516  -24.3313  -15.2319 O   0  0  0  0  0  0  0  0  0  0  0  0
   17.2160  -31.1637  -12.5496 C   0  0  0  0  0  0  0  0  0  0  0  0
   20.1841  -19.2998  -16.5227 C   0  0  0  0  0  0  0  0  0  0  0  0
   20.7920  -20.6572  -16.1563 C   0  0  2  0  0  0  0  0  0  0  0  0
   21.4428  -20.5396  -14.8261 C   0  0  0  0  0  0  0  0  0  0  0  0
   22.3709  -19.3380  -14.7234 C   0  0  2  0  0  0  0  0  0  0  0  0
   21.9696  -21.7533  -14.1969 N   0  0  0  0  0  0  0  0  0  0  0  0
   20.8226  -22.6705  -14.0067 C   0  0  0  0  0  0  0  0  0  0  0  0
   22.8360  -21.7385  -13.0457 O   0  0  0  0  0  0  0  0  0  0  0  0
   22.2986  -21.4652  -11.9082 N   0  0  0  0  0  0  0  0  0  0  0  0
   24.2192  -21.9929  -12.9778 C   0  0  1  0  0  0  0  0  0  0  0  0
   25.0266  -21.6955  -11.8113 C   0  0  0  0  0  0  0  0  0  0  0  0
   26.4754  -22.0855  -12.0459 C   0  0  0  0  0  0  0  0  0  0  0  0
   27.2253  -21.8016  -10.8038 O   0  0  0  0  0  0  0  0  0  0  0  0
   26.6650  -21.4745   -9.7264 C   0  0  0  0  0  0  0  0  0  0  0  0
   24.9214  -20.2978  -11.3691 O   0  0  0  0  0  0  0  0  0  0  0  0
   24.6560  -19.9846  -10.1692 O   0  0  0  0  0  0  0  0  0  0  0  0
   28.6055  -21.9042  -10.8376 O   0  0  0  0  0  0  0  0  0  0  0  0
  2  1  1  0
  3  2  2  0
  4  2  1  0
  5  4  1  0
  6  5  1  0
  7  6  1  0
  8 10  1  0
  8  7  1  0
  8  9  1  6
 10 11  2  0
 13 14  1  0
 13 12  1  0
 14 16  1  0
 14 15  1  1
 16 17  1  6
 17 10  1  0
 18 16  1  0
 19 18  2  0
 20 18  1  0
 21 22  1  6
 21 20  1  0
 23 24  2  0
 23 22  1  0
 25 28  1  0
 25 21  1  0
 26 25  2  0
 27 23  1  0
M  END
$$$$
