RID.pdb
     RDKit          3D

 28 27  0  0  1  0  0  0  0  0999 V2000
   24.2032  -18.7268  -17.7045 N   0  0  0  0  0  0  0  0  0  0  0  0
   25.1733  -17.7210  -18.0030 C   0  0  0  0  0  0  0  0  0  0  0  0
   24.9107  -16.7890  -18.8589 N   0  0  0  0  0  0  0  0  0  0  0  0
   26.4557  -17.6766  -17.3965 N   0  0  0  0  0  0  0  0  0  0  0  0
   27.1910  -18.8919  -17.1108 C   0  0  0  0  0  0  0  0  0  0  0  0
   26.9269  -19.9933  -18.0928 C   0  0  0  0  0  0  0  0  0  0  0  0
   26.6476  -21.3223  -17.4421 C   0  0  0  0  0  0  0  0  0  0  0  0
   27.2159  -21.4041  -16.0452 C   0  0  2  0  0  0  0  0  0  0  0  0
   28.4666  -22.0694  -15.9394 N   0  0  0  0  0  0  0  0  0  0  0  0
   26.2081  -21.7373  -15.0215 C   0  0  0  0  0  0  0  0  0  0  0  0
   25.8567  -22.9230  -14.9089 O   0  0  0  0  0  0  0  0  0  0  0  0
   25.6064  -16.0393  -19.0044 C   0  0  0  0  0  0  0  0  0  0  0  0
   26.9943  -20.8693  -10.1755 C   0  0  0  0  0  0  0  0  0  0  0  0
   26.5254  -21.4572  -11.5100 C   0  0  2  0  0  0  0  0  0  0  0  0
   25.1814  -20.9068  -11.8223 C   0  0  0  0  0  0  0  0  0  0  0  0
   24.1971  -21.0549  -10.6711 C   0  0  2  0  0  0  0  0  0  0  0  0
   24.6022  -21.1840  -13.1392 N   0  0  0  0  0  0  0  0  0  0  0  0
   25.6031  -20.7617  -14.1456 C   0  0  0  0  0  0  0  0  0  0  0  0
   23.2684  -20.7922  -13.5180 O   0  0  0  0  0  0  0  0  0  0  0  0
   23.0595  -19.5388  -13.7248 N   0  0  0  0  0  0  0  0  0  0  0  0
   22.1308  -21.5999  -13.7078 C   0  0  1  0  0  0  0  0  0  0  0  0
   20.8225  -21.0679  -14.0337 C   0  0  0  0  0  0  0  0  0  0  0  0
   20.5683  -21.1427  -15.5290 C   0  0  0  0  0  0  0  0  0  0  0  0
   20.6876  -22.5591  -15.9361 O   0  0  0  0  0  0  0  0  0  0  0  0
   21.0285  -23.4725  -15.1415 C   0  0  0  0  0  0  0  0  0  0  0  0
   19.7305  -21.7006  -13.2805 O   0  0  0  0  0  0  0  0  0  0  0  0
   19.9174  -22.7074  -12.5324 O   0  0  0  0  0  0  0  0  0  0  0  0
   20.4087  -22.8848  -17.2524 O   0  0  0  0  0  0  0  0  0  0  0  0
  2  1  1  0
  3  2  2  0
  4  2  1  0
  5  4  1  0
  6  5  1  0
  7  6  1  0
  8 10  1  0
  8  7  1  0
  8  9  1  6
 10 11  2  0
 13 14  1  0
 13 12  1  0
 14 16  1  0
 14 15  1  6
 16 17  1  6
 17 10  1  0
 18 16  1  0
 19 18  2  0
 20 18  1  0
 21 22  1  1
 21 20  1  0
 23 24  2  0
 23 22  1  0
 25 28  1  0
 25 21  1  0
 26 25  2  0
 27 23  1  0
M  END
$$$$
