RID.pdb
     RDKit          3D

 28 27  0  0  1  0  0  0  0  0999 V2000
   17.9839  -26.2905   -9.6249 N   0  0  0  0  0  0  0  0  0  0  0  0
   17.8146  -25.5108   -8.4394 C   0  0  0  0  0  0  0  0  0  0  0  0
   17.0621  -25.9335   -7.4775 N   0  0  0  0  0  0  0  0  0  0  0  0
   18.4442  -24.2543   -8.2413 N   0  0  0  0  0  0  0  0  0  0  0  0
   17.8889  -23.0415   -8.8069 C   0  0  0  0  0  0  0  0  0  0  0  0
   18.1688  -22.8839  -10.2710 C   0  0  0  0  0  0  0  0  0  0  0  0
   19.2105  -21.8391  -10.5731 C   0  0  0  0  0  0  0  0  0  0  0  0
   20.1615  -22.2797  -11.6605 C   0  0  2  0  0  0  0  0  0  0  0  0
   20.6116  -23.6235  -11.5620 N   0  0  0  0  0  0  0  0  0  0  0  0
   21.1838  -21.2689  -11.9892 C   0  0  0  0  0  0  0  0  0  0  0  0
   21.7775  -20.7095  -11.0530 O   0  0  0  0  0  0  0  0  0  0  0  0
   16.9297  -25.3298   -6.6498 C   0  0  0  0  0  0  0  0  0  0  0  0
   25.1674  -22.1883  -11.2044 C   0  0  0  0  0  0  0  0  0  0  0  0
   23.9845  -21.2845  -11.5651 C   0  0  2  0  0  0  0  0  0  0  0  0
   23.8496  -21.2509  -13.0441 C   0  0  0  0  0  0  0  0  0  0  0  0
   25.1907  -21.2699  -13.7631 C   0  0  2  0  0  0  0  0  0  0  0  0
   22.8709  -20.3348  -13.6352 N   0  0  0  0  0  0  0  0  0  0  0  0
   21.5302  -20.8895  -13.3387 C   0  0  0  0  0  0  0  0  0  0  0  0
   22.9575  -19.8458  -14.9879 O   0  0  0  0  0  0  0  0  0  0  0  0
   23.0837  -20.7214  -15.9232 N   0  0  0  0  0  0  0  0  0  0  0  0
   22.9159  -18.5169  -15.4512 C   0  0  1  0  0  0  0  0  0  0  0  0
   23.1185  -18.1513  -16.8391 C   0  0  0  0  0  0  0  0  0  0  0  0
   23.4639  -16.6777  -16.9626 C   0  0  0  0  0  0  0  0  0  0  0  0
   22.2361  -15.9593  -17.3653 O   0  0  0  0  0  0  0  0  0  0  0  0
   21.1477  -16.5440  -17.6004 C   0  0  0  0  0  0  0  0  0  0  0  0
   24.1158  -18.9863  -17.5234 O   0  0  0  0  0  0  0  0  0  0  0  0
   25.2550  -19.2296  -17.0222 O   0  0  0  0  0  0  0  0  0  0  0  0
   22.2967  -14.5814  -17.4853 O   0  0  0  0  0  0  0  0  0  0  0  0
  2  1  1  0
  3  2  2  0
  4  2  1  0
  5  4  1  0
  6  5  1  0
  7  6  1  0
  8 10  1  0
  8  7  1  0
  8  9  1  1
 10 11  2  0
 13 14  1  0
 13 12  1  0
 14 16  1  0
 14 15  1  6
 16 17  1  1
 17 10  1  0
 18 16  1  0
 19 18  2  0
 20 18  1  0
 21 22  1  6
 21 20  1  0
 23 24  2  0
 23 22  1  0
 25 28  1  0
 25 21  1  0
 26 25  2  0
 27 23  1  0
M  END
$$$$
