RID.pdb
     RDKit          3D

 28 27  0  0  1  0  0  0  0  0999 V2000
   21.2161  -18.3156  -15.7582 N   0  0  0  0  0  0  0  0  0  0  0  0
   22.4036  -18.3715  -16.5512 C   0  0  0  0  0  0  0  0  0  0  0  0
   22.3374  -18.2888  -17.8391 N   0  0  0  0  0  0  0  0  0  0  0  0
   23.7012  -18.5163  -15.9947 N   0  0  0  0  0  0  0  0  0  0  0  0
   23.8840  -18.7978  -14.5852 C   0  0  0  0  0  0  0  0  0  0  0  0
   23.4597  -20.1812  -14.1937 C   0  0  0  0  0  0  0  0  0  0  0  0
   23.5414  -20.4364  -12.7118 C   0  0  0  0  0  0  0  0  0  0  0  0
   24.9686  -20.5043  -12.2226 C   0  0  2  0  0  0  0  0  0  0  0  0
   25.9095  -20.9912  -13.1690 N   0  0  0  0  0  0  0  0  0  0  0  0
   25.0924  -21.0249  -10.8484 C   0  0  0  0  0  0  0  0  0  0  0  0
   25.1997  -22.2523  -10.6940 O   0  0  0  0  0  0  0  0  0  0  0  0
   23.2103  -18.3661  -18.3862 C   0  0  0  0  0  0  0  0  0  0  0  0
   27.9745  -19.0118   -6.9071 C   0  0  0  0  0  0  0  0  0  0  0  0
   27.2601  -19.9523   -7.8825 C   0  0  2  0  0  0  0  0  0  0  0  0
   25.8541  -20.1194   -7.4333 C   0  0  0  0  0  0  0  0  0  0  0  0
   25.7433  -20.5586   -5.9804 C   0  0  2  0  0  0  0  0  0  0  0  0
   24.9094  -20.7894   -8.3306 N   0  0  0  0  0  0  0  0  0  0  0  0
   25.0913  -20.1881   -9.6716 C   0  0  0  0  0  0  0  0  0  0  0  0
   23.5160  -20.9801   -8.0172 O   0  0  0  0  0  0  0  0  0  0  0  0
   22.7226  -19.9904   -8.2373 N   0  0  0  0  0  0  0  0  0  0  0  0
   22.8753  -22.1218   -7.4991 C   0  0  1  0  0  0  0  0  0  0  0  0
   21.4610  -22.1667   -7.1847 C   0  0  0  0  0  0  0  0  0  0  0  0
   20.7783  -23.2962   -7.9359 C   0  0  0  0  0  0  0  0  0  0  0  0
   19.8562  -22.6902   -8.9200 O   0  0  0  0  0  0  0  0  0  0  0  0
   19.6887  -21.4482   -9.0256 C   0  0  0  0  0  0  0  0  0  0  0  0
   21.1855  -22.2493   -5.7434 O   0  0  0  0  0  0  0  0  0  0  0  0
   20.0260  -22.0663   -5.2632 O   0  0  0  0  0  0  0  0  0  0  0  0
   19.1509  -23.5357   -9.7592 O   0  0  0  0  0  0  0  0  0  0  0  0
  2  1  1  0
  3  2  2  0
  4  2  1  0
  5  4  1  0
  6  5  1  0
  7  6  1  0
  8 10  1  0
  8  7  1  0
  8  9  1  6
 10 11  2  0
 13 14  1  0
 13 12  1  0
 14 16  1  0
 14 15  1  6
 16 17  1  6
 17 10  1  0
 18 16  1  0
 19 18  2  0
 20 18  1  0
 21 22  1  1
 21 20  1  0
 23 24  2  0
 23 22  1  0
 25 28  1  0
 25 21  1  0
 26 25  2  0
 27 23  1  0
M  END
$$$$
