RID.pdb
     RDKit          3D

 28 27  0  0  1  0  0  0  0  0999 V2000
   30.8438  -25.5389  -15.4824 N   0  0  0  0  0  0  0  0  0  0  0  0
   30.1272  -26.2330  -16.5055 C   0  0  0  0  0  0  0  0  0  0  0  0
   30.5929  -27.3306  -17.0039 N   0  0  0  0  0  0  0  0  0  0  0  0
   28.8889  -25.7784  -17.0293 N   0  0  0  0  0  0  0  0  0  0  0  0
   28.1475  -24.7152  -16.3818 C   0  0  0  0  0  0  0  0  0  0  0  0
   28.3485  -23.3739  -17.0201 C   0  0  0  0  0  0  0  0  0  0  0  0
   28.7920  -22.3094  -16.0515 C   0  0  0  0  0  0  0  0  0  0  0  0
   27.7243  -21.2661  -15.8225 C   0  0  2  0  0  0  0  0  0  0  0  0
   28.0377  -19.9655  -16.3002 N   0  0  0  0  0  0  0  0  0  0  0  0
   27.1089  -21.3419  -14.4845 C   0  0  0  0  0  0  0  0  0  0  0  0
   27.6590  -22.0502  -13.6256 O   0  0  0  0  0  0  0  0  0  0  0  0
   30.0666  -27.7925  -17.7635 C   0  0  0  0  0  0  0  0  0  0  0  0
   25.7307  -20.6663   -9.3373 C   0  0  0  0  0  0  0  0  0  0  0  0
   25.0143  -21.3238  -10.5209 C   0  0  2  0  0  0  0  0  0  0  0  0
   25.6841  -20.8951  -11.7757 C   0  0  0  0  0  0  0  0  0  0  0  0
   26.2759  -19.4960  -11.6846 C   0  0  2  0  0  0  0  0  0  0  0  0
   25.0233  -21.1793  -13.0520 N   0  0  0  0  0  0  0  0  0  0  0  0
   25.9000  -20.6425  -14.1180 C   0  0  0  0  0  0  0  0  0  0  0  0
   23.6352  -20.8906  -13.3087 O   0  0  0  0  0  0  0  0  0  0  0  0
   23.3666  -19.7915  -13.9230 N   0  0  0  0  0  0  0  0  0  0  0  0
   22.4990  -21.6566  -12.9850 C   0  0  2  0  0  0  0  0  0  0  0  0
   21.1657  -21.3417  -13.4584 C   0  0  0  0  0  0  0  0  0  0  0  0
   21.1303  -19.9600  -14.0874 C   0  0  0  0  0  0  0  0  0  0  0  0
   20.3669  -19.0730  -13.1838 O   0  0  0  0  0  0  0  0  0  0  0  0
   20.1070  -19.3726  -11.9903 C   0  0  0  0  0  0  0  0  0  0  0  0
   20.6171  -22.3524  -14.3737 O   0  0  0  0  0  0  0  0  0  0  0  0
   21.2561  -22.7667  -15.3878 O   0  0  0  0  0  0  0  0  0  0  0  0
   19.9233  -17.8600  -13.6825 O   0  0  0  0  0  0  0  0  0  0  0  0
  2  1  1  0
  3  2  2  0
  4  2  1  0
  5  4  1  0
  6  5  1  0
  7  6  1  0
  8 10  1  0
  8  7  1  0
  8  9  1  1
 10 11  2  0
 13 14  1  0
 13 12  1  0
 14 16  1  0
 14 15  1  6
 16 17  1  6
 17 10  1  0
 18 16  1  0
 19 18  2  0
 20 18  1  0
 21 22  1  1
 21 20  1  0
 23 24  2  0
 23 22  1  0
 25 28  1  0
 25 21  1  0
 26 25  2  0
 27 23  1  0
M  END
$$$$
