RID.pdb
     RDKit          3D

 28 27  0  0  1  0  0  0  0  0999 V2000
   25.5489  -25.4247  -14.7763 N   0  0  0  0  0  0  0  0  0  0  0  0
   24.2073  -25.1100  -14.3976 C   0  0  0  0  0  0  0  0  0  0  0  0
   23.2751  -26.0010  -14.4825 N   0  0  0  0  0  0  0  0  0  0  0  0
   23.8173  -23.8337  -13.9147 N   0  0  0  0  0  0  0  0  0  0  0  0
   24.7810  -22.7614  -13.7707 C   0  0  0  0  0  0  0  0  0  0  0  0
   25.5136  -22.7899  -12.4632 C   0  0  0  0  0  0  0  0  0  0  0  0
   25.6088  -21.4413  -11.7999 C   0  0  0  0  0  0  0  0  0  0  0  0
   26.7783  -20.6348  -12.3127 C   0  0  2  0  0  0  0  0  0  0  0  0
   27.8944  -20.5641  -11.4367 N   0  0  0  0  0  0  0  0  0  0  0  0
   26.3788  -19.3754  -12.9676 C   0  0  0  0  0  0  0  0  0  0  0  0
   26.1877  -18.3780  -12.2530 O   0  0  0  0  0  0  0  0  0  0  0  0
   22.3321  -25.7665  -14.1319 C   0  0  0  0  0  0  0  0  0  0  0  0
   26.6276  -15.0005  -15.8694 C   0  0  0  0  0  0  0  0  0  0  0  0
   26.5135  -16.2849  -16.6961 C   0  0  2  0  0  0  0  0  0  0  0  0
   26.7983  -17.4433  -15.8107 C   0  0  0  0  0  0  0  0  0  0  0  0
   27.6109  -18.5306  -16.4988 C   0  0  2  0  0  0  0  0  0  0  0  0
   25.7196  -17.9546  -14.9614 N   0  0  0  0  0  0  0  0  0  0  0  0
   26.1927  -19.2376  -14.3929 C   0  0  0  0  0  0  0  0  0  0  0  0
   24.3452  -18.0353  -15.3864 O   0  0  0  0  0  0  0  0  0  0  0  0
   24.0328  -18.9915  -16.1898 N   0  0  0  0  0  0  0  0  0  0  0  0
   23.2626  -17.2051  -15.0380 C   0  0  1  0  0  0  0  0  0  0  0  0
   21.9430  -17.3303  -15.6244 C   0  0  0  0  0  0  0  0  0  0  0  0
   20.8678  -17.2275  -14.5570 C   0  0  0  0  0  0  0  0  0  0  0  0
   20.5228  -18.6006  -14.1311 O   0  0  0  0  0  0  0  0  0  0  0  0
   21.0018  -19.6268  -14.6781 C   0  0  0  0  0  0  0  0  0  0  0  0
   21.6960  -16.3772  -16.7157 O   0  0  0  0  0  0  0  0  0  0  0  0
   22.1999  -15.2135  -16.7264 O   0  0  0  0  0  0  0  0  0  0  0  0
   19.6329  -18.7535  -13.0817 O   0  0  0  0  0  0  0  0  0  0  0  0
  2  1  1  0
  3  2  2  0
  4  2  1  0
  5  4  1  0
  6  5  1  0
  7  6  1  0
  8 10  1  0
  8  7  1  0
  8  9  1  1
 10 11  2  0
 13 14  1  0
 13 12  1  0
 14 16  1  0
 14 15  1  1
 16 17  1  6
 17 10  1  0
 18 16  1  0
 19 18  2  0
 20 18  1  0
 21 22  1  6
 21 20  1  0
 23 24  2  0
 23 22  1  0
 25 28  1  0
 25 21  1  0
 26 25  2  0
 27 23  1  0
M  END
$$$$
