RID.pdb
     RDKit          3D

 28 27  0  0  1  0  0  0  0  0999 V2000
   26.2959  -26.6004  -16.6510 N   0  0  0  0  0  0  0  0  0  0  0  0
   26.2029  -26.5913  -18.0769 C   0  0  0  0  0  0  0  0  0  0  0  0
   25.3249  -27.3212  -18.6822 N   0  0  0  0  0  0  0  0  0  0  0  0
   27.0439  -25.8015  -18.9036 N   0  0  0  0  0  0  0  0  0  0  0  0
   27.7588  -24.6596  -18.3703 C   0  0  0  0  0  0  0  0  0  0  0  0
   26.8902  -23.4552  -18.1651 C   0  0  0  0  0  0  0  0  0  0  0  0
   26.0991  -23.4979  -16.8843 C   0  0  0  0  0  0  0  0  0  0  0  0
   26.7078  -22.6296  -15.8089 C   0  0  2  0  0  0  0  0  0  0  0  0
   28.1020  -22.8090  -15.6042 N   0  0  0  0  0  0  0  0  0  0  0  0
   25.8751  -22.5297  -14.5959 C   0  0  0  0  0  0  0  0  0  0  0  0
   25.4642  -23.5812  -14.0788 O   0  0  0  0  0  0  0  0  0  0  0  0
   25.3102  -27.3244  -19.7152 C   0  0  0  0  0  0  0  0  0  0  0  0
   25.9196  -20.8398   -9.2268 C   0  0  0  0  0  0  0  0  0  0  0  0
   24.8271  -21.0427  -10.2810 C   0  0  2  0  0  0  0  0  0  0  0  0
   25.4703  -21.1284  -11.6173 C   0  0  0  0  0  0  0  0  0  0  0  0
   26.6092  -20.1344  -11.7928 C   0  0  2  0  0  0  0  0  0  0  0  0
   24.6128  -21.2647  -12.7974 N   0  0  0  0  0  0  0  0  0  0  0  0
   25.5066  -21.2777  -13.9781 C   0  0  0  0  0  0  0  0  0  0  0  0
   23.4418  -20.4567  -13.0251 O   0  0  0  0  0  0  0  0  0  0  0  0
   23.5741  -19.4319  -13.7931 N   0  0  0  0  0  0  0  0  0  0  0  0
   22.1373  -20.6308  -12.5245 C   0  0  1  0  0  0  0  0  0  0  0  0
   20.9498  -20.1843  -13.2254 C   0  0  0  0  0  0  0  0  0  0  0  0
   20.9603  -20.6685  -14.6647 C   0  0  0  0  0  0  0  0  0  0  0  0
   19.7630  -20.1172  -15.3344 O   0  0  0  0  0  0  0  0  0  0  0  0
   19.1001  -19.1558  -14.8674 C   0  0  0  0  0  0  0  0  0  0  0  0
   19.6984  -20.5591  -12.5518 O   0  0  0  0  0  0  0  0  0  0  0  0
   19.6625  -21.4118  -11.6138 O   0  0  0  0  0  0  0  0  0  0  0  0
   19.3621  -20.6907  -16.5289 O   0  0  0  0  0  0  0  0  0  0  0  0
  2  1  1  0
  3  2  2  0
  4  2  1  0
  5  4  1  0
  6  5  1  0
  7  6  1  0
  8 10  1  0
  8  7  1  0
  8  9  1  1
 10 11  2  0
 13 14  1  0
 13 12  1  0
 14 16  1  0
 14 15  1  6
 16 17  1  6
 17 10  1  0
 18 16  1  0
 19 18  2  0
 20 18  1  0
 21 22  1  1
 21 20  1  0
 23 24  2  0
 23 22  1  0
 25 28  1  0
 25 21  1  0
 26 25  2  0
 27 23  1  0
M  END
$$$$
