RID.pdb
     RDKit          3D

 28 27  0  0  1  0  0  0  0  0999 V2000
   17.1179  -16.5861  -16.1019 N   0  0  0  0  0  0  0  0  0  0  0  0
   16.1739  -15.9266  -16.9481 C   0  0  0  0  0  0  0  0  0  0  0  0
   15.3630  -16.6111  -17.6856 N   0  0  0  0  0  0  0  0  0  0  0  0
   16.0640  -14.5142  -17.0338 N   0  0  0  0  0  0  0  0  0  0  0  0
   16.9214  -13.6479  -16.2504 C   0  0  0  0  0  0  0  0  0  0  0  0
   16.6230  -12.1903  -16.4331 C   0  0  0  0  0  0  0  0  0  0  0  0
   17.5600  -11.2870  -15.6755 C   0  0  0  0  0  0  0  0  0  0  0  0
   18.8577  -11.0624  -16.4147 C   0  0  2  0  0  0  0  0  0  0  0  0
   19.3584  -12.1928  -17.1144 N   0  0  0  0  0  0  0  0  0  0  0  0
   19.8423  -10.2796  -15.6449 C   0  0  0  0  0  0  0  0  0  0  0  0
   19.5895  -10.0269  -14.4557 O   0  0  0  0  0  0  0  0  0  0  0  0
   14.6936  -16.1048  -18.2880 C   0  0  0  0  0  0  0  0  0  0  0  0
   24.6858  -11.8631  -15.2518 C   0  0  0  0  0  0  0  0  0  0  0  0
   23.2733  -11.2948  -15.0834 C   0  0  2  0  0  0  0  0  0  0  0  0
   23.3077   -9.8433  -15.3978 C   0  0  0  0  0  0  0  0  0  0  0  0
   24.4975   -9.1288  -14.7736 C   0  0  2  0  0  0  0  0  0  0  0  0
   22.0562   -9.0846  -15.3304 N   0  0  0  0  0  0  0  0  0  0  0  0
   21.0818   -9.7862  -16.1973 C   0  0  0  0  0  0  0  0  0  0  0  0
   21.9846   -7.6552  -15.4975 O   0  0  0  0  0  0  0  0  0  0  0  0
   22.5578   -7.1547  -16.5359 N   0  0  0  0  0  0  0  0  0  0  0  0
   21.3574   -6.7000  -14.6749 C   0  0  1  0  0  0  0  0  0  0  0  0
   21.4616   -5.2708  -14.8931 C   0  0  0  0  0  0  0  0  0  0  0  0
   20.1242   -4.5914  -14.6567 C   0  0  0  0  0  0  0  0  0  0  0  0
   19.1749   -5.1003  -15.6695 O   0  0  0  0  0  0  0  0  0  0  0  0
   19.5120   -5.3603  -16.8530 C   0  0  0  0  0  0  0  0  0  0  0  0
   22.5238   -4.6350  -14.1009 O   0  0  0  0  0  0  0  0  0  0  0  0
   23.1433   -5.2495  -13.1807 O   0  0  0  0  0  0  0  0  0  0  0  0
   17.8586   -5.2973  -15.2885 O   0  0  0  0  0  0  0  0  0  0  0  0
  2  1  1  0
  3  2  2  0
  4  2  1  0
  5  4  1  0
  6  5  1  0
  7  6  1  0
  8 10  1  0
  8  7  1  0
  8  9  1  1
 10 11  2  0
 13 14  1  0
 13 12  1  0
 14 16  1  0
 14 15  1  6
 16 17  1  1
 17 10  1  0
 18 16  1  0
 19 18  2  0
 20 18  1  0
 21 22  1  1
 21 20  1  0
 23 24  2  0
 23 22  1  0
 25 28  1  0
 25 21  1  0
 26 25  2  0
 27 23  1  0
M  END
$$$$
