SYF.pdb
     RDKit          3D

 30 31  0  0  1  0  0  0  0  0999 V2000
   28.2804  -20.2503  -16.6678 O   0  0  0  0  0  0  0  0  0  0  0  0
   27.4819  -19.4398  -17.4578 C   0  0  0  0  0  0  0  0  0  0  0  0
   26.0114  -19.7719  -17.3453 C   0  0  2  0  0  0  0  0  0  0  0  0
   25.2938  -18.9175  -18.2698 N   0  0  0  0  0  0  0  0  0  0  0  0
   25.4820  -19.5700  -15.9946 C   0  0  0  0  0  0  0  0  0  0  0  0
   25.4143  -18.4149  -15.5028 O   0  0  0  0  0  0  0  0  0  0  0  0
   19.7591  -17.3382  -16.6146 O   0  0  0  0  0  0  0  0  0  0  0  0
   20.6015  -18.1858  -15.8718 C   0  0  0  0  0  0  0  0  0  0  0  0
   21.0759  -19.3394  -16.4585 C   0  0  0  0  0  0  0  0  0  0  0  0
   21.9036  -20.1909  -15.7565 C   0  0  0  0  0  0  0  0  0  0  0  0
   22.2831  -19.9282  -14.4636 C   0  0  0  0  0  0  0  0  0  0  0  0
   23.1570  -20.8253  -13.7074 C   0  0  0  0  0  0  0  0  0  0  0  0
   24.5870  -20.4150  -13.7799 C   0  0  2  0  0  0  0  0  0  0  0  0
   25.0179  -20.6280  -15.1595 N   0  0  0  0  0  0  0  0  0  0  0  0
   25.4316  -21.1339  -12.8256 C   0  0  0  0  0  0  0  0  0  0  0  0
   26.0207  -22.2047  -13.0438 O   0  0  0  0  0  0  0  0  0  0  0  0
   21.7926  -18.7554  -13.8868 C   0  0  0  0  0  0  0  0  0  0  0  0
   20.9670  -17.9005  -14.5791 C   0  0  0  0  0  0  0  0  0  0  0  0
   25.6012  -20.5643  -11.5260 N   0  0  0  0  0  0  0  0  0  0  0  0
   26.1427  -21.3606  -10.4282 C   0  0  1  0  0  0  0  0  0  0  0  0
   27.5020  -20.9275  -10.0328 C   0  0  0  0  0  0  0  0  0  0  0  0
   27.4722  -20.1595   -8.7766 C   0  0  0  0  0  0  0  0  0  0  0  0
   26.9362  -18.9100   -8.6601 C   0  0  0  0  0  0  0  0  0  0  0  0
   26.9403  -18.2648   -7.4490 C   0  0  0  0  0  0  0  0  0  0  0  0
   27.4725  -18.8290   -6.3146 C   0  0  0  0  0  0  0  0  0  0  0  0
   28.0169  -20.0837   -6.4079 C   0  0  0  0  0  0  0  0  0  0  0  0
   28.0129  -20.7276   -7.6150 C   0  0  0  0  0  0  0  0  0  0  0  0
   25.2196  -21.2238   -9.3033 C   0  0  0  0  0  0  0  0  0  0  0  0
   24.2926  -20.3968   -9.3397 O   0  0  0  0  0  0  0  0  0  0  0  0
   25.3664  -22.0135   -8.1839 O   0  0  0  0  0  0  0  0  0  0  0  0
  1  2  1  0
  2  3  1  0
  3  5  1  0
  3  4  1  6
  5 14  1  0
  6  5  2  0
  8  7  1  0
  9  8  2  0
 10  9  1  0
 11 10  2  0
 11 17  1  0
 12 11  1  0
 13 12  1  6
 14 13  1  0
 15 13  1  0
 16 15  2  0
 17 18  2  0
 18  8  1  0
 19 15  1  0
 20 19  1  0
 21 22  1  0
 20 21  1  1
 22 23  2  0
 23 24  1  0
 25 24  2  0
 26 25  1  0
 27 26  2  0
 27 22  1  0
 28 20  1  0
 28 30  1  0
 29 28  2  0
M  END
$$$$
