SYF.pdb
     RDKit          3D

 30 31  0  0  1  0  0  0  0  0999 V2000
   27.3002  -10.1825  -21.7318 O   0  0  0  0  0  0  0  0  0  0  0  0
   26.7760   -9.4081  -20.7101 C   0  0  0  0  0  0  0  0  0  0  0  0
   26.7926   -7.9294  -21.0235 C   0  0  2  0  0  0  0  0  0  0  0  0
   28.1701   -7.5417  -21.2516 N   0  0  0  0  0  0  0  0  0  0  0  0
   26.2353   -7.1105  -19.9445 C   0  0  0  0  0  0  0  0  0  0  0  0
   26.7210   -5.9798  -19.6868 O   0  0  0  0  0  0  0  0  0  0  0  0
   20.9790   -1.9432  -15.6224 O   0  0  0  0  0  0  0  0  0  0  0  0
   21.7006   -2.8265  -16.4463 C   0  0  0  0  0  0  0  0  0  0  0  0
   23.0782   -2.8065  -16.4042 C   0  0  0  0  0  0  0  0  0  0  0  0
   23.8141   -3.6601  -17.1996 C   0  0  0  0  0  0  0  0  0  0  0  0
   23.2133   -4.5515  -18.0535 C   0  0  0  0  0  0  0  0  0  0  0  0
   23.9826   -5.4589  -18.9049 C   0  0  0  0  0  0  0  0  0  0  0  0
   24.5121   -6.6290  -18.1505 C   0  0  2  0  0  0  0  0  0  0  0  0
   25.1377   -7.5146  -19.1296 N   0  0  0  0  0  0  0  0  0  0  0  0
   23.4803   -7.3153  -17.3725 C   0  0  0  0  0  0  0  0  0  0  0  0
   22.5472   -7.9868  -17.8410 O   0  0  0  0  0  0  0  0  0  0  0  0
   21.8176   -4.5569  -18.0820 C   0  0  0  0  0  0  0  0  0  0  0  0
   21.0758   -3.7095  -17.2924 C   0  0  0  0  0  0  0  0  0  0  0  0
   23.5408   -7.2113  -15.9485 N   0  0  0  0  0  0  0  0  0  0  0  0
   22.6230   -7.9729  -15.1060 C   0  0  1  0  0  0  0  0  0  0  0  0
   23.3303   -8.8997  -14.1937 C   0  0  0  0  0  0  0  0  0  0  0  0
   24.0780   -9.9211  -14.9463 C   0  0  0  0  0  0  0  0  0  0  0  0
   23.5185  -10.7355  -15.8875 C   0  0  0  0  0  0  0  0  0  0  0  0
   24.2882  -11.6574  -16.5515 C   0  0  0  0  0  0  0  0  0  0  0  0
   25.6327  -11.8067  -16.3098 C   0  0  0  0  0  0  0  0  0  0  0  0
   26.2164  -10.9994  -15.3680 C   0  0  0  0  0  0  0  0  0  0  0  0
   25.4496  -10.0800  -14.7058 C   0  0  0  0  0  0  0  0  0  0  0  0
   21.8413   -7.0048  -14.3392 C   0  0  0  0  0  0  0  0  0  0  0  0
   20.8178   -7.3565  -13.7285 O   0  0  0  0  0  0  0  0  0  0  0  0
   22.2314   -5.6845  -14.2839 O   0  0  0  0  0  0  0  0  0  0  0  0
  1  2  1  0
  2  3  1  0
  3  5  1  0
  3  4  1  1
  5 14  1  0
  6  5  2  0
  8  7  1  0
  9  8  2  0
 10  9  1  0
 11 10  2  0
 11 17  1  0
 12 11  1  0
 13 12  1  6
 14 13  1  0
 15 13  1  0
 16 15  2  0
 17 18  2  0
 18  8  1  0
 19 15  1  0
 20 19  1  0
 21 22  1  0
 20 21  1  1
 22 23  2  0
 23 24  1  0
 25 24  2  0
 26 25  1  0
 27 26  2  0
 27 22  1  0
 28 20  1  0
 28 30  1  0
 29 28  2  0
M  END
$$$$
