SYF.pdb
     RDKit          3D

 30 31  0  0  1  0  0  0  0  0999 V2000
   28.0849  -26.4816  -19.1324 O   0  0  0  0  0  0  0  0  0  0  0  0
   27.0880  -26.2125  -18.2093 C   0  0  0  0  0  0  0  0  0  0  0  0
   27.5672  -25.3606  -17.0560 C   0  0  2  0  0  0  0  0  0  0  0  0
   28.4262  -26.1822  -16.2272 N   0  0  0  0  0  0  0  0  0  0  0  0
   26.4704  -24.8357  -16.2393 C   0  0  0  0  0  0  0  0  0  0  0  0
   26.2094  -25.3450  -15.1198 O   0  0  0  0  0  0  0  0  0  0  0  0
   20.1920  -19.2686  -13.3396 O   0  0  0  0  0  0  0  0  0  0  0  0
   21.2754  -19.8829  -13.9943 C   0  0  0  0  0  0  0  0  0  0  0  0
   22.3759  -20.2621  -13.2558 C   0  0  0  0  0  0  0  0  0  0  0  0
   23.4539  -20.8666  -13.8685 C   0  0  0  0  0  0  0  0  0  0  0  0
   23.4747  -21.1116  -15.2190 C   0  0  0  0  0  0  0  0  0  0  0  0
   24.6135  -21.7483  -15.8809 C   0  0  0  0  0  0  0  0  0  0  0  0
   24.5573  -23.2343  -15.7974 C   0  0  2  0  0  0  0  0  0  0  0  0
   25.6410  -23.7454  -16.6333 N   0  0  0  0  0  0  0  0  0  0  0  0
   23.2574  -23.7752  -16.1956 C   0  0  0  0  0  0  0  0  0  0  0  0
   22.8389  -23.8702  -17.3605 O   0  0  0  0  0  0  0  0  0  0  0  0
   22.3513  -20.7207  -15.9497 C   0  0  0  0  0  0  0  0  0  0  0  0
   21.2719  -20.1174  -15.3474 C   0  0  0  0  0  0  0  0  0  0  0  0
   22.3843  -24.2377  -15.1630 N   0  0  0  0  0  0  0  0  0  0  0  0
   21.0502  -24.7374  -15.4835 C   0  0  1  0  0  0  0  0  0  0  0  0
   20.8653  -26.1510  -15.0846 C   0  0  0  0  0  0  0  0  0  0  0  0
   20.5842  -26.2656  -13.6436 C   0  0  0  0  0  0  0  0  0  0  0  0
   19.6468  -25.5209  -12.9886 C   0  0  0  0  0  0  0  0  0  0  0  0
   19.4398  -25.6954  -11.6433 C   0  0  0  0  0  0  0  0  0  0  0  0
   20.1492  -26.6082  -10.9004 C   0  0  0  0  0  0  0  0  0  0  0  0
   21.0965  -27.3674  -11.5372 C   0  0  0  0  0  0  0  0  0  0  0  0
   21.3033  -27.1940  -12.8784 C   0  0  0  0  0  0  0  0  0  0  0  0
   20.0928  -23.8835  -14.7831 C   0  0  0  0  0  0  0  0  0  0  0  0
   20.4727  -23.0933  -13.9024 O   0  0  0  0  0  0  0  0  0  0  0  0
   18.7515  -23.9444  -15.0923 O   0  0  0  0  0  0  0  0  0  0  0  0
  1  2  1  0
  2  3  1  0
  3  5  1  0
  3  4  1  1
  5 14  1  0
  6  5  2  0
  8  7  1  0
  9  8  2  0
 10  9  1  0
 11 10  2  0
 11 17  1  0
 12 11  1  0
 13 12  1  6
 14 13  1  0
 15 13  1  0
 16 15  2  0
 17 18  2  0
 18  8  1  0
 19 15  1  0
 20 19  1  0
 21 22  1  0
 20 21  1  1
 22 23  2  0
 23 24  1  0
 25 24  2  0
 26 25  1  0
 27 26  2  0
 27 22  1  0
 28 20  1  0
 28 30  1  0
 29 28  2  0
M  END
$$$$
