SYF.pdb
     RDKit          3D

 30 31  0  0  1  0  0  0  0  0999 V2000
   26.9264  -19.3332  -18.6838 O   0  0  0  0  0  0  0  0  0  0  0  0
   26.4286  -20.2801  -17.8041 C   0  0  0  0  0  0  0  0  0  0  0  0
   27.5152  -21.0800  -17.1225 C   0  0  2  0  0  0  0  0  0  0  0  0
   27.6558  -22.3326  -17.8372 N   0  0  0  0  0  0  0  0  0  0  0  0
   27.2208  -21.3601  -15.7152 C   0  0  0  0  0  0  0  0  0  0  0  0
   26.4887  -22.3320  -15.3986 O   0  0  0  0  0  0  0  0  0  0  0  0
   26.9065  -20.3959   -6.8860 O   0  0  0  0  0  0  0  0  0  0  0  0
   27.2220  -20.2911   -8.2532 C   0  0  0  0  0  0  0  0  0  0  0  0
   28.1569  -21.1488   -8.7920 C   0  0  0  0  0  0  0  0  0  0  0  0
   28.4879  -21.0712  -10.1289 C   0  0  0  0  0  0  0  0  0  0  0  0
   27.9082  -20.1499  -10.9653 C   0  0  0  0  0  0  0  0  0  0  0  0
   28.2536  -20.0551  -12.3838 C   0  0  0  0  0  0  0  0  0  0  0  0
   27.2752  -20.7668  -13.2525 C   0  0  2  0  0  0  0  0  0  0  0  0
   27.7222  -20.5821  -14.6311 N   0  0  0  0  0  0  0  0  0  0  0  0
   25.9013  -20.3034  -13.0560 C   0  0  0  0  0  0  0  0  0  0  0  0
   25.4378  -19.2229  -13.4544 O   0  0  0  0  0  0  0  0  0  0  0  0
   26.9639  -19.2903  -10.4014 C   0  0  0  0  0  0  0  0  0  0  0  0
   26.6277  -19.3604   -9.0696 C   0  0  0  0  0  0  0  0  0  0  0  0
   25.0053  -21.1601  -12.3450 N   0  0  0  0  0  0  0  0  0  0  0  0
   23.6258  -20.7521  -12.0941 C   0  0  1  0  0  0  0  0  0  0  0  0
   22.6480  -21.5779  -12.8381 C   0  0  0  0  0  0  0  0  0  0  0  0
   21.2668  -21.1534  -12.5543 C   0  0  0  0  0  0  0  0  0  0  0  0
   20.4525  -21.7666  -11.6469 C   0  0  0  0  0  0  0  0  0  0  0  0
   19.1787  -21.3025  -11.4347 C   0  0  0  0  0  0  0  0  0  0  0  0
   18.6661  -20.2205  -12.1092 C   0  0  0  0  0  0  0  0  0  0  0  0
   19.4660  -19.5887  -13.0259 C   0  0  0  0  0  0  0  0  0  0  0  0
   20.7362  -20.0508  -13.2378 C   0  0  0  0  0  0  0  0  0  0  0  0
   23.3985  -20.8704  -10.6552 C   0  0  0  0  0  0  0  0  0  0  0  0
   23.9831  -21.7420   -9.9897 O   0  0  0  0  0  0  0  0  0  0  0  0
   22.5297  -20.0130  -10.0161 O   0  0  0  0  0  0  0  0  0  0  0  0
  1  2  1  0
  2  3  1  0
  3  5  1  0
  3  4  1  6
  5 14  1  0
  6  5  2  0
  8  7  1  0
  9  8  2  0
 10  9  1  0
 11 10  2  0
 11 17  1  0
 12 11  1  0
 13 12  1  1
 14 13  1  0
 15 13  1  0
 16 15  2  0
 17 18  2  0
 18  8  1  0
 19 15  1  0
 20 19  1  0
 21 22  1  0
 20 21  1  6
 22 23  2  0
 23 24  1  0
 25 24  2  0
 26 25  1  0
 27 26  2  0
 27 22  1  0
 28 20  1  0
 28 30  1  0
 29 28  2  0
M  END
$$$$
