SYF.pdb
     RDKit          3D

 30 31  0  0  1  0  0  0  0  0999 V2000
   21.1369   -7.1582  -19.6752 O   0  0  0  0  0  0  0  0  0  0  0  0
   22.3651   -6.5950  -19.3707 C   0  0  0  0  0  0  0  0  0  0  0  0
   22.2460   -5.2211  -18.7515 C   0  0  2  0  0  0  0  0  0  0  0  0
   23.5851   -4.6902  -18.5939 N   0  0  0  0  0  0  0  0  0  0  0  0
   21.5793   -5.2381  -17.4474 C   0  0  0  0  0  0  0  0  0  0  0  0
   20.4026   -5.6677  -17.3389 O   0  0  0  0  0  0  0  0  0  0  0  0
   23.8465  -10.7573  -14.5872 O   0  0  0  0  0  0  0  0  0  0  0  0
   23.5378   -9.3921  -14.4438 C   0  0  0  0  0  0  0  0  0  0  0  0
   22.4547   -9.0282  -13.6728 C   0  0  0  0  0  0  0  0  0  0  0  0
   22.1263   -7.6979  -13.5128 C   0  0  0  0  0  0  0  0  0  0  0  0
   22.8540   -6.6967  -14.1064 C   0  0  0  0  0  0  0  0  0  0  0  0
   22.5134   -5.2827  -13.9476 C   0  0  0  0  0  0  0  0  0  0  0  0
   21.5083   -4.8278  -14.9481 C   0  0  2  0  0  0  0  0  0  0  0  0
   22.1882   -4.7857  -16.2405 N   0  0  0  0  0  0  0  0  0  0  0  0
   20.9090   -3.5383  -14.6029 C   0  0  0  0  0  0  0  0  0  0  0  0
   21.4302   -2.6653  -13.8907 O   0  0  0  0  0  0  0  0  0  0  0  0
   23.9470   -7.0849  -14.8831 C   0  0  0  0  0  0  0  0  0  0  0  0
   24.2819   -8.4087  -15.0482 C   0  0  0  0  0  0  0  0  0  0  0  0
   19.6109   -3.2466  -15.1248 N   0  0  0  0  0  0  0  0  0  0  0  0
   18.9448   -1.9872  -14.8045 C   0  0  1  0  0  0  0  0  0  0  0  0
   18.8106   -1.1028  -15.9841 C   0  0  0  0  0  0  0  0  0  0  0  0
   20.0478   -0.3403  -16.2218 C   0  0  0  0  0  0  0  0  0  0  0  0
   20.9905   -0.6865  -17.1458 C   0  0  0  0  0  0  0  0  0  0  0  0
   22.1136    0.0843  -17.3118 C   0  0  0  0  0  0  0  0  0  0  0  0
   22.3443    1.2199  -16.5732 C   0  0  0  0  0  0  0  0  0  0  0  0
   21.4110    1.5871  -15.6386 C   0  0  0  0  0  0  0  0  0  0  0  0
   20.2910    0.8191  -15.4728 C   0  0  0  0  0  0  0  0  0  0  0  0
   17.6265   -2.3232  -14.2700 C   0  0  0  0  0  0  0  0  0  0  0  0
   16.9234   -1.4566  -13.7234 O   0  0  0  0  0  0  0  0  0  0  0  0
   17.1452   -3.6106  -14.3664 O   0  0  0  0  0  0  0  0  0  0  0  0
  1  2  1  0
  2  3  1  0
  3  5  1  0
  3  4  1  1
  5 14  1  0
  6  5  2  0
  8  7  1  0
  9  8  2  0
 10  9  1  0
 11 10  2  0
 11 17  1  0
 12 11  1  0
 13 12  1  1
 14 13  1  0
 15 13  1  0
 16 15  2  0
 17 18  2  0
 18  8  1  0
 19 15  1  0
 20 19  1  0
 21 22  1  0
 20 21  1  6
 22 23  2  0
 23 24  1  0
 25 24  2  0
 26 25  1  0
 27 26  2  0
 27 22  1  0
 28 20  1  0
 28 30  1  0
 29 28  2  0
M  END
$$$$
