SYF.pdb
     RDKit          3D

 30 31  0  0  1  0  0  0  0  0999 V2000
   21.7922  -14.8637  -18.2716 O   0  0  0  0  0  0  0  0  0  0  0  0
   20.5403  -14.6103  -18.8072 C   0  0  0  0  0  0  0  0  0  0  0  0
   20.5491  -13.4892  -19.8212 C   0  0  2  0  0  0  0  0  0  0  0  0
   21.3896  -13.9009  -20.9275 N   0  0  0  0  0  0  0  0  0  0  0  0
   21.0573  -12.2288  -19.2747 C   0  0  0  0  0  0  0  0  0  0  0  0
   22.2202  -11.8380  -19.5497 O   0  0  0  0  0  0  0  0  0  0  0  0
   14.5363   -8.9292  -18.5197 O   0  0  0  0  0  0  0  0  0  0  0  0
   15.9387   -8.9792  -18.6215 C   0  0  0  0  0  0  0  0  0  0  0  0
   16.6979   -8.1569  -17.8169 C   0  0  0  0  0  0  0  0  0  0  0  0
   18.0751   -8.1825  -17.8930 C   0  0  0  0  0  0  0  0  0  0  0  0
   18.7362   -9.0157  -18.7608 C   0  0  0  0  0  0  0  0  0  0  0  0
   20.1959   -9.0491  -18.8538 C   0  0  0  0  0  0  0  0  0  0  0  0
   20.7956  -10.0787  -17.9600 C   0  0  2  0  0  0  0  0  0  0  0  0
   20.3021  -11.3750  -18.4187 N   0  0  0  0  0  0  0  0  0  0  0  0
   20.4941   -9.8472  -16.5470 C   0  0  0  0  0  0  0  0  0  0  0  0
   19.7067  -10.5135  -15.8563 O   0  0  0  0  0  0  0  0  0  0  0  0
   17.9503   -9.8408  -19.5673 C   0  0  0  0  0  0  0  0  0  0  0  0
   16.5768   -9.8221  -19.4981 C   0  0  0  0  0  0  0  0  0  0  0  0
   21.1572   -8.7627  -15.8940 N   0  0  0  0  0  0  0  0  0  0  0  0
   20.9943   -8.5451  -14.4592 C   0  0  1  0  0  0  0  0  0  0  0  0
   22.2854   -8.3155  -13.7722 C   0  0  0  0  0  0  0  0  0  0  0  0
   23.1145   -7.3449  -14.5066 C   0  0  0  0  0  0  0  0  0  0  0  0
   24.0152   -7.6889  -15.4723 C   0  0  0  0  0  0  0  0  0  0  0  0
   24.7436   -6.7207  -16.1165 C   0  0  0  0  0  0  0  0  0  0  0  0
   24.6085   -5.3835  -15.8303 C   0  0  0  0  0  0  0  0  0  0  0  0
   23.7097   -5.0142  -14.8633 C   0  0  0  0  0  0  0  0  0  0  0  0
   22.9830   -5.9790  -14.2207 C   0  0  0  0  0  0  0  0  0  0  0  0
   20.1207   -7.3845  -14.2981 C   0  0  0  0  0  0  0  0  0  0  0  0
   19.6794   -7.0726  -13.1789 O   0  0  0  0  0  0  0  0  0  0  0  0
   19.7743   -6.6185  -15.3897 O   0  0  0  0  0  0  0  0  0  0  0  0
  1  2  1  0
  2  3  1  0
  3  5  1  0
  3  4  1  6
  5 14  1  0
  6  5  2  0
  8  7  1  0
  9  8  2  0
 10  9  1  0
 11 10  2  0
 11 17  1  0
 12 11  1  0
 13 12  1  6
 14 13  1  0
 15 13  1  0
 16 15  2  0
 17 18  2  0
 18  8  1  0
 19 15  1  0
 20 19  1  0
 21 22  1  0
 20 21  1  6
 22 23  2  0
 23 24  1  0
 25 24  2  0
 26 25  1  0
 27 26  2  0
 27 22  1  0
 28 20  1  0
 28 30  1  0
 29 28  2  0
M  END
$$$$
