SYF.pdb
     RDKit          3D

 30 31  0  0  1  0  0  0  0  0999 V2000
   34.4377  -32.6336  -15.0729 O   0  0  0  0  0  0  0  0  0  0  0  0
   35.1247  -32.8160  -16.2616 C   0  0  0  0  0  0  0  0  0  0  0  0
   34.7383  -31.8137  -17.3253 C   0  0  2  0  0  0  0  0  0  0  0  0
   34.9943  -30.4887  -16.7974 N   0  0  0  0  0  0  0  0  0  0  0  0
   33.3304  -31.9111  -17.7174 C   0  0  0  0  0  0  0  0  0  0  0  0
   32.5611  -30.9261  -17.5799 O   0  0  0  0  0  0  0  0  0  0  0  0
   26.1131  -34.5742  -22.0800 O   0  0  0  0  0  0  0  0  0  0  0  0
   27.4012  -34.4479  -21.5281 C   0  0  0  0  0  0  0  0  0  0  0  0
   28.3130  -33.6151  -22.1405 C   0  0  0  0  0  0  0  0  0  0  0  0
   29.5838  -33.4699  -21.6238 C   0  0  0  0  0  0  0  0  0  0  0  0
   29.9865  -34.1393  -20.4949 C   0  0  0  0  0  0  0  0  0  0  0  0
   31.3324  -33.9968  -19.9395 C   0  0  0  0  0  0  0  0  0  0  0  0
   31.3541  -33.1359  -18.7242 C   0  0  2  0  0  0  0  0  0  0  0  0
   32.7405  -33.0870  -18.2661 N   0  0  0  0  0  0  0  0  0  0  0  0
   30.4484  -33.6107  -17.6776 C   0  0  0  0  0  0  0  0  0  0  0  0
   30.6204  -34.6189  -16.9741 O   0  0  0  0  0  0  0  0  0  0  0  0
   29.0492  -34.9777  -19.8890 C   0  0  0  0  0  0  0  0  0  0  0  0
   27.7800  -35.1286  -20.3971 C   0  0  0  0  0  0  0  0  0  0  0  0
   29.2589  -32.8569  -17.4344 N   0  0  0  0  0  0  0  0  0  0  0  0
   28.3665  -33.2077  -16.3331 C   0  0  1  0  0  0  0  0  0  0  0  0
   28.3584  -32.1836  -15.2641 C   0  0  0  0  0  0  0  0  0  0  0  0
   27.9082  -30.8794  -15.7790 C   0  0  0  0  0  0  0  0  0  0  0  0
   28.7295  -29.9766  -16.3893 C   0  0  0  0  0  0  0  0  0  0  0  0
   28.2283  -28.7850  -16.8497 C   0  0  0  0  0  0  0  0  0  0  0  0
   26.9029  -28.4445  -16.7236 C   0  0  0  0  0  0  0  0  0  0  0  0
   26.0590  -29.3361  -16.1135 C   0  0  0  0  0  0  0  0  0  0  0  0
   26.5581  -30.5243  -15.6544 C   0  0  0  0  0  0  0  0  0  0  0  0
   27.0274  -33.3611  -16.8985 C   0  0  0  0  0  0  0  0  0  0  0  0
   26.7400  -32.8544  -17.9963 O   0  0  0  0  0  0  0  0  0  0  0  0
   26.0633  -34.0725  -16.2184 O   0  0  0  0  0  0  0  0  0  0  0  0
  1  2  1  0
  2  3  1  0
  3  5  1  0
  3  4  1  1
  5 14  1  0
  6  5  2  0
  8  7  1  0
  9  8  2  0
 10  9  1  0
 11 10  2  0
 11 17  1  0
 12 11  1  0
 13 12  1  6
 14 13  1  0
 15 13  1  0
 16 15  2  0
 17 18  2  0
 18  8  1  0
 19 15  1  0
 20 19  1  0
 21 22  1  0
 20 21  1  1
 22 23  2  0
 23 24  1  0
 25 24  2  0
 26 25  1  0
 27 26  2  0
 27 22  1  0
 28 20  1  0
 28 30  1  0
 29 28  2  0
M  END
$$$$
