SYF.pdb
     RDKit          3D

 30 31  0  0  1  0  0  0  0  0999 V2000
   36.3643  -26.7718  -15.7874 O   0  0  0  0  0  0  0  0  0  0  0  0
   35.3659  -25.8797  -16.1421 C   0  0  0  0  0  0  0  0  0  0  0  0
   34.7453  -26.1931  -17.4844 C   0  0  2  0  0  0  0  0  0  0  0  0
   35.5458  -25.5443  -18.5033 N   0  0  0  0  0  0  0  0  0  0  0  0
   33.3599  -25.7308  -17.5951 C   0  0  0  0  0  0  0  0  0  0  0  0
   33.1009  -24.6087  -18.0996 O   0  0  0  0  0  0  0  0  0  0  0  0
   24.5019  -25.7731  -17.7117 O   0  0  0  0  0  0  0  0  0  0  0  0
   25.8621  -26.1196  -17.6137 C   0  0  0  0  0  0  0  0  0  0  0  0
   26.3736  -26.4825  -16.3863 C   0  0  0  0  0  0  0  0  0  0  0  0
   27.7030  -26.8276  -16.2576 C   0  0  0  0  0  0  0  0  0  0  0  0
   28.5586  -26.8235  -17.3311 C   0  0  0  0  0  0  0  0  0  0  0  0
   29.9712  -27.1835  -17.2067 C   0  0  0  0  0  0  0  0  0  0  0  0
   30.8637  -25.9918  -17.2472 C   0  0  2  0  0  0  0  0  0  0  0  0
   32.2348  -26.4879  -17.1558 N   0  0  0  0  0  0  0  0  0  0  0  0
   30.5615  -25.0217  -16.1944 C   0  0  0  0  0  0  0  0  0  0  0  0
   30.7248  -25.2003  -14.9768 O   0  0  0  0  0  0  0  0  0  0  0  0
   28.0222  -26.4533  -18.5655 C   0  0  0  0  0  0  0  0  0  0  0  0
   26.6980  -26.1078  -18.7033 C   0  0  0  0  0  0  0  0  0  0  0  0
   30.0317  -23.7544  -16.5891 N   0  0  0  0  0  0  0  0  0  0  0  0
   29.6581  -22.7586  -15.5886 C   0  0  1  0  0  0  0  0  0  0  0  0
   30.7330  -21.7700  -15.3463 C   0  0  0  0  0  0  0  0  0  0  0  0
   31.5907  -22.1802  -14.2217 C   0  0  0  0  0  0  0  0  0  0  0  0
   31.4275  -21.7417  -12.9398 C   0  0  0  0  0  0  0  0  0  0  0  0
   32.2661  -22.1800  -11.9459 C   0  0  0  0  0  0  0  0  0  0  0  0
   33.2918  -23.0633  -12.1826 C   0  0  0  0  0  0  0  0  0  0  0  0
   33.4749  -23.5172  -13.4631 C   0  0  0  0  0  0  0  0  0  0  0  0
   32.6392  -23.0807  -14.4545 C   0  0  0  0  0  0  0  0  0  0  0  0
   28.4545  -22.0893  -16.0783 C   0  0  0  0  0  0  0  0  0  0  0  0
   28.0156  -22.3253  -17.2167 O   0  0  0  0  0  0  0  0  0  0  0  0
   27.7890  -21.1847  -15.2802 O   0  0  0  0  0  0  0  0  0  0  0  0
  1  2  1  0
  2  3  1  0
  3  5  1  0
  3  4  1  6
  5 14  1  0
  6  5  2  0
  8  7  1  0
  9  8  2  0
 10  9  1  0
 11 10  2  0
 11 17  1  0
 12 11  1  0
 13 12  1  1
 14 13  1  0
 15 13  1  0
 16 15  2  0
 17 18  2  0
 18  8  1  0
 19 15  1  0
 20 19  1  0
 21 22  1  0
 20 21  1  6
 22 23  2  0
 23 24  1  0
 25 24  2  0
 26 25  1  0
 27 26  2  0
 27 22  1  0
 28 20  1  0
 28 30  1  0
 29 28  2  0
M  END
$$$$
