SYF.pdb
     RDKit          3D

 30 31  0  0  1  0  0  0  0  0999 V2000
   16.8077  -12.1921  -14.0134 O   0  0  0  0  0  0  0  0  0  0  0  0
   16.1308  -11.8826  -15.1815 C   0  0  0  0  0  0  0  0  0  0  0  0
   17.0571  -11.5432  -16.3270 C   0  0  2  0  0  0  0  0  0  0  0  0
   18.0036  -12.6314  -16.4669 N   0  0  0  0  0  0  0  0  0  0  0  0
   17.7902  -10.2926  -16.1174 C   0  0  0  0  0  0  0  0  0  0  0  0
   19.0021  -10.2027  -16.4397 O   0  0  0  0  0  0  0  0  0  0  0  0
   19.5905   -1.7006  -15.5331 O   0  0  0  0  0  0  0  0  0  0  0  0
   18.9644   -2.9576  -15.6200 C   0  0  0  0  0  0  0  0  0  0  0  0
   19.3610   -3.8362  -16.6053 C   0  0  0  0  0  0  0  0  0  0  0  0
   18.7665   -5.0761  -16.7165 C   0  0  0  0  0  0  0  0  0  0  0  0
   17.7700   -5.4797  -15.8630 C   0  0  0  0  0  0  0  0  0  0  0  0
   17.1290   -6.7902  -15.9733 C   0  0  0  0  0  0  0  0  0  0  0  0
   17.9554   -7.8756  -15.3752 C   0  0  2  0  0  0  0  0  0  0  0  0
   17.2102   -9.1196  -15.5518 N   0  0  0  0  0  0  0  0  0  0  0  0
   18.2838   -7.6290  -13.9709 C   0  0  0  0  0  0  0  0  0  0  0  0
   17.5461   -7.8697  -13.0019 O   0  0  0  0  0  0  0  0  0  0  0  0
   17.3821   -4.5764  -14.8719 C   0  0  0  0  0  0  0  0  0  0  0  0
   17.9693   -3.3382  -14.7534 C   0  0  0  0  0  0  0  0  0  0  0  0
   19.5621   -7.0621  -13.6758 N   0  0  0  0  0  0  0  0  0  0  0  0
   20.0140   -6.9214  -12.2944 C   0  0  1  0  0  0  0  0  0  0  0  0
   21.3275   -7.5632  -12.0614 C   0  0  0  0  0  0  0  0  0  0  0  0
   21.7105   -7.4927  -10.6412 C   0  0  0  0  0  0  0  0  0  0  0  0
   21.3184   -8.4001   -9.7004 C   0  0  0  0  0  0  0  0  0  0  0  0
   21.7272   -8.2672   -8.3972 C   0  0  0  0  0  0  0  0  0  0  0  0
   22.5345   -7.2368   -7.9790 C   0  0  0  0  0  0  0  0  0  0  0  0
   22.9406   -6.3128   -8.9068 C   0  0  0  0  0  0  0  0  0  0  0  0
   22.5336   -6.4449  -10.2062 C   0  0  0  0  0  0  0  0  0  0  0  0
   20.0922   -5.4894  -12.0125 C   0  0  0  0  0  0  0  0  0  0  0  0
   20.6852   -4.7211  -12.7886 O   0  0  0  0  0  0  0  0  0  0  0  0
   19.5067   -4.9715  -10.8779 O   0  0  0  0  0  0  0  0  0  0  0  0
  1  2  1  0
  2  3  1  0
  3  5  1  0
  3  4  1  1
  5 14  1  0
  6  5  2  0
  8  7  1  0
  9  8  2  0
 10  9  1  0
 11 10  2  0
 11 17  1  0
 12 11  1  0
 13 12  1  1
 14 13  1  0
 15 13  1  0
 16 15  2  0
 17 18  2  0
 18  8  1  0
 19 15  1  0
 20 19  1  0
 21 22  1  0
 20 21  1  6
 22 23  2  0
 23 24  1  0
 25 24  2  0
 26 25  1  0
 27 26  2  0
 27 22  1  0
 28 20  1  0
 28 30  1  0
 29 28  2  0
M  END
$$$$
