SYF.pdb
     RDKit          3D

 30 31  0  0  1  0  0  0  0  0999 V2000
   21.1282  -11.1015  -18.5908 O   0  0  0  0  0  0  0  0  0  0  0  0
   20.3095  -10.3666  -19.4322 C   0  0  0  0  0  0  0  0  0  0  0  0
   20.6899   -8.9049  -19.4956 C   0  0  2  0  0  0  0  0  0  0  0  0
   21.8343   -8.7841  -20.3762 N   0  0  0  0  0  0  0  0  0  0  0  0
   21.0307   -8.3461  -18.1852 C   0  0  0  0  0  0  0  0  0  0  0  0
   20.1830   -8.3358  -17.2568 O   0  0  0  0  0  0  0  0  0  0  0  0
   24.7322  -13.1937  -15.9320 O   0  0  0  0  0  0  0  0  0  0  0  0
   24.5643  -11.8006  -16.0358 C   0  0  0  0  0  0  0  0  0  0  0  0
   24.1019  -11.0990  -14.9431 C   0  0  0  0  0  0  0  0  0  0  0  0
   23.9268   -9.7324  -15.0132 C   0  0  0  0  0  0  0  0  0  0  0  0
   24.2017   -9.0256  -16.1575 C   0  0  0  0  0  0  0  0  0  0  0  0
   24.0163   -7.5771  -16.2455 C   0  0  0  0  0  0  0  0  0  0  0  0
   22.6096   -7.2058  -16.5645 C   0  0  2  0  0  0  0  0  0  0  0  0
   22.3042   -7.7894  -17.8685 N   0  0  0  0  0  0  0  0  0  0  0  0
   22.3876   -5.7596  -16.5466 C   0  0  0  0  0  0  0  0  0  0  0  0
   22.9583   -4.9306  -17.2733 O   0  0  0  0  0  0  0  0  0  0  0  0
   24.6690   -9.7536  -17.2532 C   0  0  0  0  0  0  0  0  0  0  0  0
   24.8467  -11.1161  -17.1924 C   0  0  0  0  0  0  0  0  0  0  0  0
   21.4331   -5.2442  -15.6161 N   0  0  0  0  0  0  0  0  0  0  0  0
   21.1614   -3.8113  -15.5441 C   0  0  1  0  0  0  0  0  0  0  0  0
   19.8027   -3.5186  -15.0345 C   0  0  0  0  0  0  0  0  0  0  0  0
   19.5621   -2.0676  -14.9613 C   0  0  0  0  0  0  0  0  0  0  0  0
   19.7746   -1.3156  -13.8426 C   0  0  0  0  0  0  0  0  0  0  0  0
   19.5336    0.0352  -13.8600 C   0  0  0  0  0  0  0  0  0  0  0  0
   19.0756    0.6882  -14.9790 C   0  0  0  0  0  0  0  0  0  0  0  0
   18.8546   -0.0471  -16.1147 C   0  0  0  0  0  0  0  0  0  0  0  0
   19.0948   -1.3938  -16.0980 C   0  0  0  0  0  0  0  0  0  0  0  0
   22.1703   -3.2274  -14.6623 C   0  0  0  0  0  0  0  0  0  0  0  0
   22.4640   -3.7727  -13.5849 O   0  0  0  0  0  0  0  0  0  0  0  0
   22.8110   -2.0602  -15.0164 O   0  0  0  0  0  0  0  0  0  0  0  0
  1  2  1  0
  2  3  1  0
  3  5  1  0
  3  4  1  6
  5 14  1  0
  6  5  2  0
  8  7  1  0
  9  8  2  0
 10  9  1  0
 11 10  2  0
 11 17  1  0
 12 11  1  0
 13 12  1  6
 14 13  1  0
 15 13  1  0
 16 15  2  0
 17 18  2  0
 18  8  1  0
 19 15  1  0
 20 19  1  0
 21 22  1  0
 20 21  1  1
 22 23  2  0
 23 24  1  0
 25 24  2  0
 26 25  1  0
 27 26  2  0
 27 22  1  0
 28 20  1  0
 28 30  1  0
 29 28  2  0
M  END
$$$$
