ENM.pdb
     RDKit          3D

 26 25  0  0  1  0  0  0  0  0999 V2000
   10.1601  -18.1584   19.0639 N   0  0  0  0  0  0  0  0  0  0  0  0
    9.5212  -16.8885   18.9215 C   0  0  1  0  0  0  0  0  0  0  0  0
    8.7699  -16.8530   17.6109 C   0  0  0  0  0  0  0  0  0  0  0  0
    8.7362  -18.2469   17.0476 C   0  0  0  0  0  0  0  0  0  0  0  0
    8.0545  -18.3781   15.7617 C   0  0  0  0  0  0  0  0  0  0  0  0
    7.5584  -17.3890   15.1671 O   0  0  0  0  0  0  0  0  0  0  0  0
    8.6376  -16.6464   20.0776 C   0  0  0  0  0  0  0  0  0  0  0  0
    7.9270  -15.6190   20.1017 O   0  0  0  0  0  0  0  0  0  0  0  0
    7.9366  -19.6216   15.1558 O   0  0  0  0  0  0  0  0  0  0  0  0
    8.3433  -20.1808   24.6534 N   0  0  0  0  0  0  0  0  0  0  0  0
    8.4671  -19.5333   23.3732 C   0  0  0  0  0  0  0  0  0  0  0  0
    9.5394  -19.6420   22.7321 O   0  0  0  0  0  0  0  0  0  0  0  0
    7.3029  -18.7542   22.8617 C   0  0  0  0  0  0  0  0  0  0  0  0
    7.7533  -17.4500   22.2919 C   0  0  2  0  0  0  0  0  0  0  0  0
    8.6195  -17.5916   21.1362 N   0  0  0  0  0  0  0  0  0  0  0  0
    8.3841  -16.6194   23.3471 C   0  0  0  0  0  0  0  0  0  0  0  0
    9.6263  -16.4893   23.5056 O   0  0  0  0  0  0  0  0  0  0  0  0
    6.5965  -10.1653   26.1208 C   0  0  0  0  0  0  0  0  0  0  0  0
    6.1614  -11.7587   26.8678 S   0  0  0  0  0  0  0  0  0  0  0  0
    7.5226  -12.9704   26.6497 C   0  0  0  0  0  0  0  0  0  0  0  0
    7.0697  -13.9386   25.6067 C   0  0  0  0  0  0  0  0  0  0  0  0
    8.1257  -14.9387   25.1883 C   0  0  2  0  0  0  0  0  0  0  0  0
    7.5403  -15.9166   24.2486 N   0  0  0  0  0  0  0  0  0  0  0  0
    8.6786  -15.7037   26.3172 C   0  0  0  0  0  0  0  0  0  0  0  0
    8.2093  -16.9669   26.5895 O   0  0  0  0  0  0  0  0  0  0  0  0
    9.5714  -15.2176   27.0346 O   0  0  0  0  0  0  0  0  0  0  0  0
  2  1  1  1
  2  7  1  0
  3  2  1  0
  4  3  1  0
  4  5  1  0
  5  9  1  0
  5  6  2  0
  7  8  2  0
 10 11  1  0
 11 12  2  0
 14 13  1  1
 13 11  1  0
 15 14  1  0
 15  7  1  0
 16 17  2  0
 16 14  1  0
 19 20  1  0
 19 18  1  0
 20 21  1  0
 22 21  1  1
 22 23  1  0
 22 24  1  0
 23 16  1  0
 24 25  1  0
 26 24  2  0
M  END
$$$$
