ENM.pdb
     RDKit          3D

 26 25  0  0  1  0  0  0  0  0999 V2000
   10.2836  -18.4907   20.2799 N   0  0  0  0  0  0  0  0  0  0  0  0
   10.9928  -17.3204   19.8690 C   0  0  1  0  0  0  0  0  0  0  0  0
   11.0343  -17.2676   18.3594 C   0  0  0  0  0  0  0  0  0  0  0  0
   11.9710  -18.3394   17.8746 C   0  0  0  0  0  0  0  0  0  0  0  0
   12.1238  -18.4174   16.4234 C   0  0  0  0  0  0  0  0  0  0  0  0
   12.6003  -17.4686   15.7520 O   0  0  0  0  0  0  0  0  0  0  0  0
   10.3547  -16.1248   20.4515 C   0  0  0  0  0  0  0  0  0  0  0  0
   10.0233  -15.1806   19.7032 O   0  0  0  0  0  0  0  0  0  0  0  0
   11.7385  -19.5627   15.7397 O   0  0  0  0  0  0  0  0  0  0  0  0
    7.4339  -14.1161   20.4853 N   0  0  0  0  0  0  0  0  0  0  0  0
    7.2860  -15.5447   20.5886 C   0  0  0  0  0  0  0  0  0  0  0  0
    6.8383  -16.1874   19.6093 O   0  0  0  0  0  0  0  0  0  0  0  0
    7.6755  -16.2030   21.8689 C   0  0  0  0  0  0  0  0  0  0  0  0
    8.9050  -15.5706   22.4319 C   0  0  2  0  0  0  0  0  0  0  0  0
   10.1345  -16.0793   21.8528 N   0  0  0  0  0  0  0  0  0  0  0  0
    8.9105  -15.6865   23.9110 C   0  0  0  0  0  0  0  0  0  0  0  0
    7.9045  -15.5020   24.6452 O   0  0  0  0  0  0  0  0  0  0  0  0
   11.0094  -13.1830   29.2647 C   0  0  0  0  0  0  0  0  0  0  0  0
    9.3123  -13.4320   28.6781 S   0  0  0  0  0  0  0  0  0  0  0  0
    9.0714  -15.1587   28.1041 C   0  0  0  0  0  0  0  0  0  0  0  0
    9.1576  -15.1293   26.6134 C   0  0  0  0  0  0  0  0  0  0  0  0
   10.1867  -16.0750   26.0328 C   0  0  2  0  0  0  0  0  0  0  0  0
   10.1285  -16.0287   24.5575 N   0  0  0  0  0  0  0  0  0  0  0  0
    9.9742  -17.4762   26.4287 C   0  0  0  0  0  0  0  0  0  0  0  0
   10.5914  -17.9766   27.5506 O   0  0  0  0  0  0  0  0  0  0  0  0
    9.2384  -18.2198   25.7551 O   0  0  0  0  0  0  0  0  0  0  0  0
  2  1  1  6
  2  7  1  0
  3  2  1  0
  4  3  1  0
  4  5  1  0
  5  9  1  0
  5  6  2  0
  7  8  2  0
 10 11  1  0
 11 12  2  0
 14 13  1  6
 13 11  1  0
 15 14  1  0
 15  7  1  0
 16 17  2  0
 16 14  1  0
 19 20  1  0
 19 18  1  0
 20 21  1  0
 22 21  1  1
 22 23  1  0
 22 24  1  0
 23 16  1  0
 24 25  1  0
 26 24  2  0
M  END
$$$$
