ENM.pdb
     RDKit          3D

 26 25  0  0  1  0  0  0  0  0999 V2000
   11.3943  -17.6028   19.3173 N   0  0  0  0  0  0  0  0  0  0  0  0
   10.2309  -16.7929   19.1389 C   0  0  1  0  0  0  0  0  0  0  0  0
    9.4785  -17.2644   17.9162 C   0  0  0  0  0  0  0  0  0  0  0  0
   10.4612  -17.4253   16.7894 C   0  0  0  0  0  0  0  0  0  0  0  0
    9.8885  -17.9020   15.5324 C   0  0  0  0  0  0  0  0  0  0  0  0
   10.5944  -18.1038   14.5131 O   0  0  0  0  0  0  0  0  0  0  0  0
    9.4014  -16.8426   20.3577 C   0  0  0  0  0  0  0  0  0  0  0  0
    8.3141  -16.2277   20.3849 O   0  0  0  0  0  0  0  0  0  0  0  0
    8.5256  -18.1474   15.4329 O   0  0  0  0  0  0  0  0  0  0  0  0
    8.8566  -21.1959   22.0354 N   0  0  0  0  0  0  0  0  0  0  0  0
    8.2698  -19.9556   22.4722 C   0  0  0  0  0  0  0  0  0  0  0  0
    7.0916  -19.6840   22.1399 O   0  0  0  0  0  0  0  0  0  0  0  0
    9.0980  -19.0399   23.3088 C   0  0  0  0  0  0  0  0  0  0  0  0
    9.1249  -17.6692   22.7180 C   0  0  2  0  0  0  0  0  0  0  0  0
    9.8640  -17.5906   21.4716 N   0  0  0  0  0  0  0  0  0  0  0  0
    9.6293  -16.6912   23.7132 C   0  0  0  0  0  0  0  0  0  0  0  0
   10.8462  -16.5031   23.9756 O   0  0  0  0  0  0  0  0  0  0  0  0
    5.5761  -12.3999   26.0407 C   0  0  0  0  0  0  0  0  0  0  0  0
    7.0287  -11.7782   26.9294 S   0  0  0  0  0  0  0  0  0  0  0  0
    8.4064  -12.9882   26.8467 C   0  0  0  0  0  0  0  0  0  0  0  0
    8.0935  -13.9156   25.7188 C   0  0  0  0  0  0  0  0  0  0  0  0
    9.1512  -14.9690   25.4701 C   0  0  2  0  0  0  0  0  0  0  0  0
    8.6851  -15.9058   24.4274 N   0  0  0  0  0  0  0  0  0  0  0  0
    9.4606  -15.7722   26.6637 C   0  0  0  0  0  0  0  0  0  0  0  0
   10.3382  -15.2939   27.6077 O   0  0  0  0  0  0  0  0  0  0  0  0
    8.9350  -16.8876   26.8300 O   0  0  0  0  0  0  0  0  0  0  0  0
  2  1  1  1
  2  7  1  0
  3  2  1  0
  4  3  1  0
  4  5  1  0
  5  9  1  0
  5  6  2  0
  7  8  2  0
 10 11  1  0
 11 12  2  0
 14 13  1  1
 13 11  1  0
 15 14  1  0
 15  7  1  0
 16 17  2  0
 16 14  1  0
 19 20  1  0
 19 18  1  0
 20 21  1  0
 22 21  1  1
 22 23  1  0
 22 24  1  0
 23 16  1  0
 24 25  1  0
 26 24  2  0
M  END
$$$$
