ENM.pdb
     RDKit          3D

 26 25  0  0  1  0  0  0  0  0999 V2000
    7.8626  -19.3611   21.1171 N   0  0  0  0  0  0  0  0  0  0  0  0
    9.2873  -19.4544   21.0622 C   0  0  1  0  0  0  0  0  0  0  0  0
    9.6978  -20.0270   19.7255 C   0  0  0  0  0  0  0  0  0  0  0  0
    8.5765  -19.8001   18.7496 C   0  0  0  0  0  0  0  0  0  0  0  0
    8.8363  -20.2666   17.3893 C   0  0  0  0  0  0  0  0  0  0  0  0
    7.9772  -20.1726   16.4776 O   0  0  0  0  0  0  0  0  0  0  0  0
    9.8802  -18.1258   21.3056 C   0  0  0  0  0  0  0  0  0  0  0  0
   11.1226  -17.9952   21.2820 O   0  0  0  0  0  0  0  0  0  0  0  0
   10.0609  -20.8355   17.0666 O   0  0  0  0  0  0  0  0  0  0  0  0
    6.5515  -13.7159   21.7861 N   0  0  0  0  0  0  0  0  0  0  0  0
    7.2629  -14.8247   21.2048 C   0  0  0  0  0  0  0  0  0  0  0  0
    6.6420  -15.8824   20.9434 O   0  0  0  0  0  0  0  0  0  0  0  0
    8.7212  -14.6644   20.9371 C   0  0  0  0  0  0  0  0  0  0  0  0
    9.5104  -15.6698   21.7083 C   0  0  2  0  0  0  0  0  0  0  0  0
    9.0188  -17.0273   21.5618 N   0  0  0  0  0  0  0  0  0  0  0  0
    9.5943  -15.2716   23.1351 C   0  0  0  0  0  0  0  0  0  0  0  0
   10.1496  -14.2212   23.5515 O   0  0  0  0  0  0  0  0  0  0  0  0
    6.3005  -11.1377   26.7402 C   0  0  0  0  0  0  0  0  0  0  0  0
    6.2749  -12.9433   26.5819 S   0  0  0  0  0  0  0  0  0  0  0  0
    7.9363  -13.5782   26.1285 C   0  0  0  0  0  0  0  0  0  0  0  0
    7.7929  -15.0525   25.9382 C   0  0  0  0  0  0  0  0  0  0  0  0
    9.0731  -15.7539   25.5386 C   0  0  2  0  0  0  0  0  0  0  0  0
    9.0121  -16.1253   24.1103 N   0  0  0  0  0  0  0  0  0  0  0  0
    9.3158  -16.9921   26.2958 C   0  0  0  0  0  0  0  0  0  0  0  0
    9.6065  -16.9333   27.6382 O   0  0  0  0  0  0  0  0  0  0  0  0
    9.2620  -18.0999   25.7319 O   0  0  0  0  0  0  0  0  0  0  0  0
  2  1  1  6
  2  7  1  0
  3  2  1  0
  4  3  1  0
  4  5  1  0
  5  9  1  0
  5  6  2  0
  7  8  2  0
 10 11  1  0
 11 12  2  0
 14 13  1  6
 13 11  1  0
 15 14  1  0
 15  7  1  0
 16 17  2  0
 16 14  1  0
 19 20  1  0
 19 18  1  0
 20 21  1  0
 22 21  1  1
 22 23  1  0
 22 24  1  0
 23 16  1  0
 24 25  1  0
 26 24  2  0
M  END
$$$$
