ENM.pdb
     RDKit          3D

 26 25  0  0  1  0  0  0  0  0999 V2000
    8.9384  -19.0504   19.5722 N   0  0  0  0  0  0  0  0  0  0  0  0
    9.6826  -18.6622   20.7284 C   0  0  1  0  0  0  0  0  0  0  0  0
   10.6807  -17.5951   20.3433 C   0  0  0  0  0  0  0  0  0  0  0  0
   12.0365  -18.2355   20.2286 C   0  0  0  0  0  0  0  0  0  0  0  0
   13.1056  -17.3448   19.7823 C   0  0  0  0  0  0  0  0  0  0  0  0
   12.8992  -16.1320   19.5280 O   0  0  0  0  0  0  0  0  0  0  0  0
    8.7572  -18.2058   21.7826 C   0  0  0  0  0  0  0  0  0  0  0  0
    7.8472  -17.4000   21.4929 O   0  0  0  0  0  0  0  0  0  0  0  0
   14.3981  -17.8265   19.6257 O   0  0  0  0  0  0  0  0  0  0  0  0
    6.0117  -19.8360   23.4345 N   0  0  0  0  0  0  0  0  0  0  0  0
    6.6526  -20.2195   24.6656 C   0  0  0  0  0  0  0  0  0  0  0  0
    6.2538  -21.2421   25.2721 O   0  0  0  0  0  0  0  0  0  0  0  0
    7.7734  -19.3746   25.1700 C   0  0  0  0  0  0  0  0  0  0  0  0
    8.0799  -18.2779   24.2047 C   0  0  2  0  0  0  0  0  0  0  0  0
    8.9273  -18.6962   23.1035 N   0  0  0  0  0  0  0  0  0  0  0  0
    8.6519  -17.1102   24.9193 C   0  0  0  0  0  0  0  0  0  0  0  0
    9.8723  -16.9700   25.1953 O   0  0  0  0  0  0  0  0  0  0  0  0
    6.0960  -10.9841   25.2919 C   0  0  0  0  0  0  0  0  0  0  0  0
    6.2741  -11.4966   27.0216 S   0  0  0  0  0  0  0  0  0  0  0  0
    7.5913  -12.7637   27.1901 C   0  0  0  0  0  0  0  0  0  0  0  0
    7.2095  -13.8983   26.2971 C   0  0  0  0  0  0  0  0  0  0  0  0
    8.2992  -14.9308   26.1055 C   0  0  2  0  0  0  0  0  0  0  0  0
    7.7734  -16.0706   25.3268 N   0  0  0  0  0  0  0  0  0  0  0  0
    8.8112  -15.4747   27.3733 C   0  0  0  0  0  0  0  0  0  0  0  0
    8.2513  -16.6085   27.9129 O   0  0  0  0  0  0  0  0  0  0  0  0
    9.7506  -14.9165   27.9683 O   0  0  0  0  0  0  0  0  0  0  0  0
  2  1  1  6
  2  7  1  0
  3  2  1  0
  4  3  1  0
  4  5  1  0
  5  9  1  0
  5  6  2  0
  7  8  2  0
 10 11  1  0
 11 12  2  0
 14 13  1  1
 13 11  1  0
 15 14  1  0
 15  7  1  0
 16 17  2  0
 16 14  1  0
 19 20  1  0
 19 18  1  0
 20 21  1  0
 22 21  1  1
 22 23  1  0
 22 24  1  0
 23 16  1  0
 24 25  1  0
 26 24  2  0
M  END
$$$$
