ENM.pdb
     RDKit          3D

 26 25  0  0  1  0  0  0  0  0999 V2000
    7.8966  -19.3070   20.9378 N   0  0  0  0  0  0  0  0  0  0  0  0
    9.2808  -19.0948   20.6545 C   0  0  1  0  0  0  0  0  0  0  0  0
    9.6479  -19.8287   19.3857 C   0  0  0  0  0  0  0  0  0  0  0  0
    8.9329  -19.1729   18.2367 C   0  0  0  0  0  0  0  0  0  0  0  0
    9.2571  -19.7120   16.9177 C   0  0  0  0  0  0  0  0  0  0  0  0
   10.0641  -20.6629   16.7669 O   0  0  0  0  0  0  0  0  0  0  0  0
    9.5505  -17.6477   20.5595 C   0  0  0  0  0  0  0  0  0  0  0  0
   10.6966  -17.2564   20.2522 O   0  0  0  0  0  0  0  0  0  0  0  0
    8.6706  -19.1761   15.7792 O   0  0  0  0  0  0  0  0  0  0  0  0
    6.9909  -12.1904   20.5580 N   0  0  0  0  0  0  0  0  0  0  0  0
    7.8169  -13.1561   19.8807 C   0  0  0  0  0  0  0  0  0  0  0  0
    8.7565  -12.7564   19.1528 O   0  0  0  0  0  0  0  0  0  0  0  0
    7.5147  -14.6033   20.0767 C   0  0  0  0  0  0  0  0  0  0  0  0
    8.6670  -15.2975   20.7238 C   0  0  2  0  0  0  0  0  0  0  0  0
    8.4956  -16.7352   20.8219 N   0  0  0  0  0  0  0  0  0  0  0  0
    8.9538  -14.6913   22.0474 C   0  0  0  0  0  0  0  0  0  0  0  0
    9.1352  -13.4612   22.2448 O   0  0  0  0  0  0  0  0  0  0  0  0
    6.5945  -11.1204   27.4164 C   0  0  0  0  0  0  0  0  0  0  0  0
    6.7726  -11.9557   25.8174 S   0  0  0  0  0  0  0  0  0  0  0  0
    7.3835  -13.6713   26.0465 C   0  0  0  0  0  0  0  0  0  0  0  0
    7.6257  -14.2245   24.6806 C   0  0  0  0  0  0  0  0  0  0  0  0
    8.9328  -14.9738   24.5375 C   0  0  2  0  0  0  0  0  0  0  0  0
    9.0322  -15.5462   23.1795 N   0  0  0  0  0  0  0  0  0  0  0  0
    9.0671  -16.0904   25.4866 C   0  0  0  0  0  0  0  0  0  0  0  0
    9.2432  -17.3723   25.0221 O   0  0  0  0  0  0  0  0  0  0  0  0
    9.0218  -15.8875   26.7133 O   0  0  0  0  0  0  0  0  0  0  0  0
  2  1  1  6
  2  7  1  0
  3  2  1  0
  4  3  1  0
  4  5  1  0
  5  9  1  0
  5  6  2  0
  7  8  2  0
 10 11  1  0
 11 12  2  0
 14 13  1  1
 13 11  1  0
 15 14  1  0
 15  7  1  0
 16 17  2  0
 16 14  1  0
 19 20  1  0
 19 18  1  0
 20 21  1  0
 22 21  1  6
 22 23  1  0
 22 24  1  0
 23 16  1  0
 24 25  1  0
 26 24  2  0
M  END
$$$$
