ENM.pdb
     RDKit          3D

 26 25  0  0  1  0  0  0  0  0999 V2000
   13.2811  -15.5158   20.3506 N   0  0  0  0  0  0  0  0  0  0  0  0
   12.1838  -14.7379   19.8690 C   0  0  1  0  0  0  0  0  0  0  0  0
   12.1149  -14.8520   18.3638 C   0  0  0  0  0  0  0  0  0  0  0  0
   13.3111  -14.1510   17.7815 C   0  0  0  0  0  0  0  0  0  0  0  0
   14.5304  -14.9542   17.7219 C   0  0  0  0  0  0  0  0  0  0  0  0
   14.5315  -16.1316   17.2839 O   0  0  0  0  0  0  0  0  0  0  0  0
   10.9374  -15.1841   20.5197 C   0  0  0  0  0  0  0  0  0  0  0  0
    9.8776  -15.2153   19.8584 O   0  0  0  0  0  0  0  0  0  0  0  0
   15.7385  -14.4256   18.1560 O   0  0  0  0  0  0  0  0  0  0  0  0
    7.4359  -18.8923   21.6597 N   0  0  0  0  0  0  0  0  0  0  0  0
    8.5957  -18.4397   22.3832 C   0  0  0  0  0  0  0  0  0  0  0  0
    8.7377  -18.7720   23.5841 O   0  0  0  0  0  0  0  0  0  0  0  0
    9.5862  -17.5869   21.6651 C   0  0  0  0  0  0  0  0  0  0  0  0
    9.9528  -16.3987   22.4910 C   0  0  2  0  0  0  0  0  0  0  0  0
   10.9762  -15.5667   21.8858 N   0  0  0  0  0  0  0  0  0  0  0  0
   10.3352  -16.8236   23.8602 C   0  0  0  0  0  0  0  0  0  0  0  0
   11.4579  -17.3006   24.1720 O   0  0  0  0  0  0  0  0  0  0  0  0
    5.7572  -12.1250   27.3242 C   0  0  0  0  0  0  0  0  0  0  0  0
    7.2614  -12.4964   26.3831 S   0  0  0  0  0  0  0  0  0  0  0  0
    7.7230  -14.2632   26.5691 C   0  0  0  0  0  0  0  0  0  0  0  0
    8.9983  -14.4531   25.8155 C   0  0  0  0  0  0  0  0  0  0  0  0
    9.6596  -15.7952   26.0435 C   0  0  2  0  0  0  0  0  0  0  0  0
    9.3782  -16.6889   24.9016 N   0  0  0  0  0  0  0  0  0  0  0  0
    9.1792  -16.4793   27.2546 C   0  0  0  0  0  0  0  0  0  0  0  0
    9.5046  -15.9899   28.4975 O   0  0  0  0  0  0  0  0  0  0  0  0
    8.4781  -17.5034   27.1673 O   0  0  0  0  0  0  0  0  0  0  0  0
  2  1  1  1
  2  7  1  0
  3  2  1  0
  4  3  1  0
  4  5  1  0
  5  9  1  0
  5  6  2  0
  7  8  2  0
 10 11  1  0
 11 12  2  0
 14 13  1  6
 13 11  1  0
 15 14  1  0
 15  7  1  0
 16 17  2  0
 16 14  1  0
 19 20  1  0
 19 18  1  0
 20 21  1  0
 22 21  1  6
 22 23  1  0
 22 24  1  0
 23 16  1  0
 24 25  1  0
 26 24  2  0
M  END
$$$$
