ENM.pdb
     RDKit          3D

 26 25  0  0  1  0  0  0  0  0999 V2000
    9.0413  -13.3943   19.1981 N   0  0  0  0  0  0  0  0  0  0  0  0
    9.2564  -14.7696   19.5199 C   0  0  1  0  0  0  0  0  0  0  0  0
   10.7078  -15.1159   19.2812 C   0  0  0  0  0  0  0  0  0  0  0  0
   11.5572  -14.0225   19.8677 C   0  0  0  0  0  0  0  0  0  0  0  0
   12.9945  -14.2865   19.8644 C   0  0  0  0  0  0  0  0  0  0  0  0
   13.6130  -14.5920   18.8146 O   0  0  0  0  0  0  0  0  0  0  0  0
    8.8448  -15.0222   20.9137 C   0  0  0  0  0  0  0  0  0  0  0  0
    8.6599  -14.0553   21.6832 O   0  0  0  0  0  0  0  0  0  0  0  0
   13.7237  -14.2048   21.0430 O   0  0  0  0  0  0  0  0  0  0  0  0
    6.3188  -16.6092   24.5686 N   0  0  0  0  0  0  0  0  0  0  0  0
    6.3657  -17.8095   23.7746 C   0  0  0  0  0  0  0  0  0  0  0  0
    5.4825  -18.6853   23.9343 O   0  0  0  0  0  0  0  0  0  0  0  0
    7.4740  -17.9593   22.7880 C   0  0  0  0  0  0  0  0  0  0  0  0
    8.2712  -16.7004   22.6984 C   0  0  2  0  0  0  0  0  0  0  0  0
    8.6703  -16.3631   21.3446 N   0  0  0  0  0  0  0  0  0  0  0  0
    9.4397  -16.7668   23.6104 C   0  0  0  0  0  0  0  0  0  0  0  0
   10.0198  -17.8312   23.9507 O   0  0  0  0  0  0  0  0  0  0  0  0
    7.9945  -12.0484   27.2928 C   0  0  0  0  0  0  0  0  0  0  0  0
    9.1670  -13.0374   28.2588 S   0  0  0  0  0  0  0  0  0  0  0  0
    9.0843  -14.8040   27.7675 C   0  0  0  0  0  0  0  0  0  0  0  0
    8.9975  -14.8292   26.2768 C   0  0  0  0  0  0  0  0  0  0  0  0
   10.2026  -15.4407   25.5955 C   0  0  2  0  0  0  0  0  0  0  0  0
    9.9500  -15.5532   24.1444 N   0  0  0  0  0  0  0  0  0  0  0  0
   10.5202  -16.7921   26.0836 C   0  0  0  0  0  0  0  0  0  0  0  0
   10.1715  -17.8936   25.3385 O   0  0  0  0  0  0  0  0  0  0  0  0
   11.1036  -16.9517   27.1709 O   0  0  0  0  0  0  0  0  0  0  0  0
  2  1  1  1
  2  7  1  0
  3  2  1  0
  4  3  1  0
  4  5  1  0
  5  9  1  0
  5  6  2  0
  7  8  2  0
 10 11  1  0
 11 12  2  0
 14 13  1  6
 13 11  1  0
 15 14  1  0
 15  7  1  0
 16 17  2  0
 16 14  1  0
 19 20  1  0
 19 18  1  0
 20 21  1  0
 22 21  1  1
 22 23  1  0
 22 24  1  0
 23 16  1  0
 24 25  1  0
 26 24  2  0
M  END
$$$$
