ENM.pdb
     RDKit          3D

 26 25  0  0  1  0  0  0  0  0999 V2000
   10.6892  -17.3786   18.8298 N   0  0  0  0  0  0  0  0  0  0  0  0
    9.5840  -16.4859   18.6789 C   0  0  1  0  0  0  0  0  0  0  0  0
    8.9168  -16.7399   17.3471 C   0  0  0  0  0  0  0  0  0  0  0  0
    8.6682  -18.2173   17.2172 C   0  0  0  0  0  0  0  0  0  0  0  0
    8.0140  -18.6278   15.9765 C   0  0  0  0  0  0  0  0  0  0  0  0
    7.1515  -17.9114   15.4100 O   0  0  0  0  0  0  0  0  0  0  0  0
    8.6528  -16.6552   19.8103 C   0  0  0  0  0  0  0  0  0  0  0  0
    7.4232  -16.6953   19.5918 O   0  0  0  0  0  0  0  0  0  0  0  0
    8.3358  -19.8414   15.3841 O   0  0  0  0  0  0  0  0  0  0  0  0
    5.6574  -17.2315   22.3467 N   0  0  0  0  0  0  0  0  0  0  0  0
    6.4379  -18.4090   22.6255 C   0  0  0  0  0  0  0  0  0  0  0  0
    5.8513  -19.4856   22.8884 O   0  0  0  0  0  0  0  0  0  0  0  0
    7.9245  -18.2943   22.5891 C   0  0  0  0  0  0  0  0  0  0  0  0
    8.3358  -16.8897   22.2953 C   0  0  2  0  0  0  0  0  0  0  0  0
    9.1817  -16.7676   21.1225 N   0  0  0  0  0  0  0  0  0  0  0  0
    8.9699  -16.2801   23.4903 C   0  0  0  0  0  0  0  0  0  0  0  0
    9.8856  -15.4169   23.4503 O   0  0  0  0  0  0  0  0  0  0  0  0
    7.7264  -11.3811   26.0273 C   0  0  0  0  0  0  0  0  0  0  0  0
    6.9419  -12.7190   26.9657 S   0  0  0  0  0  0  0  0  0  0  0  0
    7.1447  -14.3244   26.0992 C   0  0  0  0  0  0  0  0  0  0  0  0
    8.6139  -14.5455   25.9477 C   0  0  0  0  0  0  0  0  0  0  0  0
    9.0288  -16.0005   25.9801 C   0  0  2  0  0  0  0  0  0  0  0  0
    8.5229  -16.6892   24.7753 N   0  0  0  0  0  0  0  0  0  0  0  0
    8.5009  -16.7275   27.1456 C   0  0  0  0  0  0  0  0  0  0  0  0
    9.0852  -16.5682   28.3798 O   0  0  0  0  0  0  0  0  0  0  0  0
    7.5259  -17.4913   27.0270 O   0  0  0  0  0  0  0  0  0  0  0  0
  2  1  1  1
  2  7  1  0
  3  2  1  0
  4  3  1  0
  4  5  1  0
  5  9  1  0
  5  6  2  0
  7  8  2  0
 10 11  1  0
 11 12  2  0
 14 13  1  1
 13 11  1  0
 15 14  1  0
 15  7  1  0
 16 17  2  0
 16 14  1  0
 19 20  1  0
 19 18  1  0
 20 21  1  0
 22 21  1  1
 22 23  1  0
 22 24  1  0
 23 16  1  0
 24 25  1  0
 26 24  2  0
M  END
$$$$
