ENM.pdb
     RDKit          3D

 26 25  0  0  1  0  0  0  0  0999 V2000
    8.0312  -19.1337   18.5293 N   0  0  0  0  0  0  0  0  0  0  0  0
    9.0113  -19.0718   19.5670 C   0  0  1  0  0  0  0  0  0  0  0  0
   10.1048  -18.1105   19.1627 C   0  0  0  0  0  0  0  0  0  0  0  0
   11.3902  -18.8813   19.0401 C   0  0  0  0  0  0  0  0  0  0  0  0
   12.5694  -18.0734   18.7360 C   0  0  0  0  0  0  0  0  0  0  0  0
   13.7196  -18.4042   19.1175 O   0  0  0  0  0  0  0  0  0  0  0  0
    8.3662  -18.6812   20.8347 C   0  0  0  0  0  0  0  0  0  0  0  0
    7.5911  -17.7013   20.8519 O   0  0  0  0  0  0  0  0  0  0  0  0
   12.4440  -16.8997   18.0053 O   0  0  0  0  0  0  0  0  0  0  0  0
    5.9566  -21.7269   24.7351 N   0  0  0  0  0  0  0  0  0  0  0  0
    6.6301  -20.4576   24.8288 C   0  0  0  0  0  0  0  0  0  0  0  0
    6.0709  -19.5095   25.4295 O   0  0  0  0  0  0  0  0  0  0  0  0
    7.9762  -20.3257   24.2006 C   0  0  0  0  0  0  0  0  0  0  0  0
    8.0140  -19.1499   23.2816 C   0  0  2  0  0  0  0  0  0  0  0  0
    8.6456  -19.4324   22.0060 N   0  0  0  0  0  0  0  0  0  0  0  0
    8.6461  -17.9902   23.9576 C   0  0  0  0  0  0  0  0  0  0  0  0
    9.8780  -17.7320   23.9294 O   0  0  0  0  0  0  0  0  0  0  0  0
    6.3220  -11.2267   25.5334 C   0  0  0  0  0  0  0  0  0  0  0  0
    6.3054  -12.6440   26.6635 S   0  0  0  0  0  0  0  0  0  0  0  0
    7.7798  -13.7040   26.3961 C   0  0  0  0  0  0  0  0  0  0  0  0
    7.3103  -14.9079   25.6473 C   0  0  0  0  0  0  0  0  0  0  0  0
    8.4044  -15.9016   25.3216 C   0  0  2  0  0  0  0  0  0  0  0  0
    7.8159  -17.1010   24.6916 N   0  0  0  0  0  0  0  0  0  0  0  0
    9.1447  -16.3577   26.5087 C   0  0  0  0  0  0  0  0  0  0  0  0
    8.6827  -17.4258   27.2407 O   0  0  0  0  0  0  0  0  0  0  0  0
   10.1907  -15.7839   26.8618 O   0  0  0  0  0  0  0  0  0  0  0  0
  2  1  1  6
  2  7  1  0
  3  2  1  0
  4  3  1  0
  4  5  1  0
  5  9  1  0
  5  6  2  0
  7  8  2  0
 10 11  1  0
 11 12  2  0
 14 13  1  1
 13 11  1  0
 15 14  1  0
 15  7  1  0
 16 17  2  0
 16 14  1  0
 19 20  1  0
 19 18  1  0
 20 21  1  0
 22 21  1  1
 22 23  1  0
 22 24  1  0
 23 16  1  0
 24 25  1  0
 26 24  2  0
M  END
$$$$
