ENM.pdb
     RDKit          3D

 26 25  0  0  1  0  0  0  0  0999 V2000
   10.3039  -16.9667   18.3021 N   0  0  0  0  0  0  0  0  0  0  0  0
    9.0767  -16.2979   18.5984 C   0  0  1  0  0  0  0  0  0  0  0  0
    8.0134  -16.7546   17.6267 C   0  0  0  0  0  0  0  0  0  0  0  0
    8.4712  -16.4205   16.2338 C   0  0  0  0  0  0  0  0  0  0  0  0
    7.5021  -16.7081   15.1785 C   0  0  0  0  0  0  0  0  0  0  0  0
    6.3927  -17.2449   15.4215 O   0  0  0  0  0  0  0  0  0  0  0  0
    8.6984  -16.5558   20.0007 C   0  0  0  0  0  0  0  0  0  0  0  0
    7.6685  -16.0228   20.4659 O   0  0  0  0  0  0  0  0  0  0  0  0
    7.7900  -16.3894   13.8583 O   0  0  0  0  0  0  0  0  0  0  0  0
   10.0474  -21.0470   21.1485 N   0  0  0  0  0  0  0  0  0  0  0  0
    9.1991  -20.1864   21.9317 C   0  0  0  0  0  0  0  0  0  0  0  0
    7.9735  -20.4397   22.0102 O   0  0  0  0  0  0  0  0  0  0  0  0
    9.8224  -19.0200   22.6212 C   0  0  0  0  0  0  0  0  0  0  0  0
    9.1993  -17.7437   22.1614 C   0  0  2  0  0  0  0  0  0  0  0  0
    9.5192  -17.4059   20.7869 N   0  0  0  0  0  0  0  0  0  0  0  0
    9.5473  -16.6393   23.0891 C   0  0  0  0  0  0  0  0  0  0  0  0
   10.6394  -16.0130   23.0753 O   0  0  0  0  0  0  0  0  0  0  0  0
    6.3730  -11.0304   27.6314 C   0  0  0  0  0  0  0  0  0  0  0  0
    6.2672  -12.3739   26.4190 S   0  0  0  0  0  0  0  0  0  0  0  0
    7.8597  -13.2806   26.3150 C   0  0  0  0  0  0  0  0  0  0  0  0
    7.7101  -14.2826   25.2178 C   0  0  0  0  0  0  0  0  0  0  0  0
    8.9181  -15.1728   25.0216 C   0  0  2  0  0  0  0  0  0  0  0  0
    8.5918  -16.2511   24.0662 N   0  0  0  0  0  0  0  0  0  0  0  0
    9.3685  -15.8199   26.2641 C   0  0  0  0  0  0  0  0  0  0  0  0
   10.0586  -15.0958   27.2073 O   0  0  0  0  0  0  0  0  0  0  0  0
    9.1321  -17.0235   26.4729 O   0  0  0  0  0  0  0  0  0  0  0  0
  2  1  1  6
  2  7  1  0
  3  2  1  0
  4  3  1  0
  4  5  1  0
  5  9  1  0
  5  6  2  0
  7  8  2  0
 10 11  1  0
 11 12  2  0
 14 13  1  1
 13 11  1  0
 15 14  1  0
 15  7  1  0
 16 17  2  0
 16 14  1  0
 19 20  1  0
 19 18  1  0
 20 21  1  0
 22 21  1  1
 22 23  1  0
 22 24  1  0
 23 16  1  0
 24 25  1  0
 26 24  2  0
M  END
$$$$
