ENM.pdb
     RDKit          3D

 26 25  0  0  1  0  0  0  0  0999 V2000
    9.9174  -17.0804   19.2911 N   0  0  0  0  0  0  0  0  0  0  0  0
    8.6901  -16.4970   19.7321 C   0  0  1  0  0  0  0  0  0  0  0  0
    7.5438  -17.1007   18.9543 C   0  0  0  0  0  0  0  0  0  0  0  0
    8.0862  -17.6520   17.6646 C   0  0  0  0  0  0  0  0  0  0  0  0
    7.0959  -18.2888   16.7990 C   0  0  0  0  0  0  0  0  0  0  0  0
    6.6574  -17.7279   15.7640 O   0  0  0  0  0  0  0  0  0  0  0  0
    8.5424  -16.6946   21.1864 C   0  0  0  0  0  0  0  0  0  0  0  0
    7.5066  -16.2922   21.7579 O   0  0  0  0  0  0  0  0  0  0  0  0
    6.6072  -19.5515   17.1057 O   0  0  0  0  0  0  0  0  0  0  0  0
   12.0765  -17.4021   22.5714 N   0  0  0  0  0  0  0  0  0  0  0  0
   11.7381  -18.6226   23.2563 C   0  0  0  0  0  0  0  0  0  0  0  0
   12.6219  -19.4958   23.4265 O   0  0  0  0  0  0  0  0  0  0  0  0
   10.3371  -18.7959   23.7375 C   0  0  0  0  0  0  0  0  0  0  0  0
    9.4906  -17.6407   23.3164 C   0  0  2  0  0  0  0  0  0  0  0  0
    9.5863  -17.3388   21.9002 N   0  0  0  0  0  0  0  0  0  0  0  0
    9.7951  -16.4509   24.1489 C   0  0  0  0  0  0  0  0  0  0  0  0
   10.7684  -15.6756   23.9570 O   0  0  0  0  0  0  0  0  0  0  0  0
    6.7370  -11.2334   24.9945 C   0  0  0  0  0  0  0  0  0  0  0  0
    6.7024  -11.8063   26.7140 S   0  0  0  0  0  0  0  0  0  0  0  0
    8.1226  -12.9176   27.0560 C   0  0  0  0  0  0  0  0  0  0  0  0
    8.0225  -14.0495   26.0870 C   0  0  0  0  0  0  0  0  0  0  0  0
    9.2167  -14.9791   26.0933 C   0  0  2  0  0  0  0  0  0  0  0  0
    8.9376  -16.1536   25.2420 N   0  0  0  0  0  0  0  0  0  0  0  0
    9.5478  -15.4875   27.4339 C   0  0  0  0  0  0  0  0  0  0  0  0
   10.0968  -14.6473   28.3734 O   0  0  0  0  0  0  0  0  0  0  0  0
    9.3367  -16.6775   27.7297 O   0  0  0  0  0  0  0  0  0  0  0  0
  2  1  1  6
  2  7  1  0
  3  2  1  0
  4  3  1  0
  4  5  1  0
  5  9  1  0
  5  6  2  0
  7  8  2  0
 10 11  1  0
 11 12  2  0
 14 13  1  1
 13 11  1  0
 15 14  1  0
 15  7  1  0
 16 17  2  0
 16 14  1  0
 19 20  1  0
 19 18  1  0
 20 21  1  0
 22 21  1  1
 22 23  1  0
 22 24  1  0
 23 16  1  0
 24 25  1  0
 26 24  2  0
M  END
$$$$
