TDI.pdb
     RDKit          3D

 24 23  0  0  1  0  0  0  0  0999 V2000
   21.0433  -10.2228  -20.9100 C   0  0  0  0  0  0  0  0  0  0  0  0
   20.6234   -8.9456  -20.2459 C   0  0  1  0  0  0  0  0  0  0  0  0
   19.5328   -8.4111  -20.8863 O   0  0  0  0  0  0  0  0  0  0  0  0
   20.3726   -9.1992  -18.7695 C   0  0  2  0  0  0  0  0  0  0  0  0
   19.3590  -10.1972  -18.5688 N   0  0  0  0  0  0  0  0  0  0  0  0
   20.0740   -7.9371  -18.0452 C   0  0  0  0  0  0  0  0  0  0  0  0
   18.8924   -7.5057  -18.0451 O   0  0  0  0  0  0  0  0  0  0  0  0
   21.0551   -7.1819  -17.3459 N   0  0  0  0  0  0  0  0  0  0  0  0
   20.7378   -5.9411  -16.6866 C   0  0  1  0  0  0  0  0  0  0  0  0
   21.2467   -5.9483  -15.2762 C   0  0  0  0  0  0  0  0  0  0  0  0
   20.5280   -6.8701  -14.3895 C   0  0  0  0  0  0  0  0  0  0  0  0
   19.2701   -6.8267  -14.3996 O   0  0  0  0  0  0  0  0  0  0  0  0
   21.1885   -4.7581  -17.4580 C   0  0  0  0  0  0  0  0  0  0  0  0
   22.3035   -4.8289  -18.0355 O   0  0  0  0  0  0  0  0  0  0  0  0
   21.1275   -7.7738  -13.5520 O   0  0  0  0  0  0  0  0  0  0  0  0
   18.3414   -2.4779  -21.2248 C   0  0  0  0  0  0  0  0  0  0  0  0
   19.4765   -3.0019  -20.3778 C   0  0  0  0  0  0  0  0  0  0  0  0
   19.8141   -1.9758  -19.3229 C   0  0  2  0  0  0  0  0  0  0  0  0
   20.3882   -0.7726  -20.0446 C   0  0  0  0  0  0  0  0  0  0  0  0
   20.8638   -2.4616  -18.3599 C   0  0  2  0  0  0  0  0  0  0  0  0
   20.4109   -3.5726  -17.5598 N   0  0  0  0  0  0  0  0  0  0  0  0
   21.1929   -1.3349  -17.4536 C   0  0  0  0  0  0  0  0  0  0  0  0
   20.4603   -1.0648  -16.4482 O   0  0  0  0  0  0  0  0  0  0  0  0
   22.3164   -0.5597  -17.7016 O   0  0  0  0  0  0  0  0  0  0  0  0
  2  1  1  6
  2  4  1  0
  2  3  1  0
  4  5  1  6
  6  8  1  0
  6  4  1  0
  7  6  2  0
  9  8  1  0
  9 13  1  0
  9 10  1  1
 11 15  1  0
 11 10  1  0
 12 11  2  0
 13 21  1  0
 14 13  2  0
 17 16  1  0
 18 17  1  0
 18 19  1  6
 20 18  1  0
 20 22  1  0
 20 21  1  1
 22 23  2  0
 22 24  1  0
M  END
$$$$
