TDI.pdb
     RDKit          3D

 24 23  0  0  1  0  0  0  0  0999 V2000
   22.4005  -11.0126  -19.0754 C   0  0  0  0  0  0  0  0  0  0  0  0
   23.0323  -11.8071  -17.9718 C   0  0  1  0  0  0  0  0  0  0  0  0
   23.0552  -13.1408  -18.2970 O   0  0  0  0  0  0  0  0  0  0  0  0
   24.4135  -11.2510  -17.6719 C   0  0  2  0  0  0  0  0  0  0  0  0
   25.1481  -12.1090  -16.7842 N   0  0  0  0  0  0  0  0  0  0  0  0
   24.3394   -9.8535  -17.1740 C   0  0  0  0  0  0  0  0  0  0  0  0
   24.1410   -9.6590  -15.9471 O   0  0  0  0  0  0  0  0  0  0  0  0
   24.4810   -8.7128  -18.0112 N   0  0  0  0  0  0  0  0  0  0  0  0
   24.4714   -7.3722  -17.4844 C   0  0  1  0  0  0  0  0  0  0  0  0
   24.8548   -6.3856  -18.5465 C   0  0  0  0  0  0  0  0  0  0  0  0
   24.9969   -5.0100  -18.0567 C   0  0  0  0  0  0  0  0  0  0  0  0
   24.9075   -4.8211  -16.8154 O   0  0  0  0  0  0  0  0  0  0  0  0
   23.1915   -7.0349  -16.8166 C   0  0  0  0  0  0  0  0  0  0  0  0
   22.1454   -7.0607  -17.5144 O   0  0  0  0  0  0  0  0  0  0  0  0
   25.2196   -3.9173  -18.8529 O   0  0  0  0  0  0  0  0  0  0  0  0
   20.9779   -9.6303  -13.0298 C   0  0  0  0  0  0  0  0  0  0  0  0
   21.3171   -8.7461  -14.2060 C   0  0  0  0  0  0  0  0  0  0  0  0
   21.4910   -7.3279  -13.7179 C   0  0  2  0  0  0  0  0  0  0  0  0
   20.1525   -6.8849  -13.1611 C   0  0  0  0  0  0  0  0  0  0  0  0
   21.8506   -6.3757  -14.8267 C   0  0  2  0  0  0  0  0  0  0  0  0
   23.1173   -6.6909  -15.4395 N   0  0  0  0  0  0  0  0  0  0  0  0
   21.9403   -5.0181  -14.2367 C   0  0  0  0  0  0  0  0  0  0  0  0
   23.0564   -4.5410  -13.8529 O   0  0  0  0  0  0  0  0  0  0  0  0
   20.7920   -4.2520  -14.0989 O   0  0  0  0  0  0  0  0  0  0  0  0
  2  1  1  6
  2  4  1  0
  2  3  1  0
  4  5  1  1
  6  8  1  0
  6  4  1  0
  7  6  2  0
  9  8  1  0
  9 13  1  0
  9 10  1  6
 11 15  1  0
 11 10  1  0
 12 11  2  0
 13 21  1  0
 14 13  2  0
 17 16  1  0
 18 17  1  0
 18 19  1  6
 20 18  1  0
 20 22  1  0
 20 21  1  1
 22 23  2  0
 22 24  1  0
M  END
$$$$
