TDI.pdb
     RDKit          3D

 24 23  0  0  1  0  0  0  0  0999 V2000
   15.8178  -11.6111  -13.9294 C   0  0  0  0  0  0  0  0  0  0  0  0
   14.9415  -12.0984  -15.0444 C   0  0  1  0  0  0  0  0  0  0  0  0
   13.9123  -12.8576  -14.5452 O   0  0  0  0  0  0  0  0  0  0  0  0
   14.4560  -10.9149  -15.8633 C   0  0  2  0  0  0  0  0  0  0  0  0
   13.5401  -11.3233  -16.8920 N   0  0  0  0  0  0  0  0  0  0  0  0
   15.5928  -10.1239  -16.4005 C   0  0  0  0  0  0  0  0  0  0  0  0
   16.1496  -10.5095  -17.4606 O   0  0  0  0  0  0  0  0  0  0  0  0
   16.0924   -8.9458  -15.7805 N   0  0  0  0  0  0  0  0  0  0  0  0
   17.2817   -8.2814  -16.2483 C   0  0  1  0  0  0  0  0  0  0  0  0
   16.9734   -6.8706  -16.6519 C   0  0  0  0  0  0  0  0  0  0  0  0
   18.1449   -6.1121  -17.1046 C   0  0  0  0  0  0  0  0  0  0  0  0
   18.8593   -6.6255  -18.0048 O   0  0  0  0  0  0  0  0  0  0  0  0
   18.4008   -8.3746  -15.2805 C   0  0  0  0  0  0  0  0  0  0  0  0
   18.1451   -8.1481  -14.0701 O   0  0  0  0  0  0  0  0  0  0  0  0
   18.5165   -4.8864  -16.6180 O   0  0  0  0  0  0  0  0  0  0  0  0
   22.2163  -12.2656  -15.3268 C   0  0  0  0  0  0  0  0  0  0  0  0
   21.1575  -11.2434  -14.9886 C   0  0  0  0  0  0  0  0  0  0  0  0
   21.7801   -9.8680  -15.0112 C   0  0  2  0  0  0  0  0  0  0  0  0
   22.8309   -9.8407  -13.9189 C   0  0  0  0  0  0  0  0  0  0  0  0
   20.7872   -8.7797  -14.7029 C   0  0  2  0  0  0  0  0  0  0  0  0
   19.7254   -8.7057  -15.6758 N   0  0  0  0  0  0  0  0  0  0  0  0
   21.5213   -7.4912  -14.7116 C   0  0  0  0  0  0  0  0  0  0  0  0
   21.5248   -6.7439  -15.7421 O   0  0  0  0  0  0  0  0  0  0  0  0
   22.2170   -7.0896  -13.5805 O   0  0  0  0  0  0  0  0  0  0  0  0
  2  1  1  1
  2  4  1  0
  2  3  1  0
  4  5  1  6
  6  8  1  0
  6  4  1  0
  7  6  2  0
  9  8  1  0
  9 13  1  0
  9 10  1  1
 11 15  1  0
 11 10  1  0
 12 11  2  0
 13 21  1  0
 14 13  2  0
 17 16  1  0
 18 17  1  0
 18 19  1  1
 20 18  1  0
 20 22  1  0
 20 21  1  6
 22 23  2  0
 22 24  1  0
M  END
$$$$
