TDI.pdb
     RDKit          3D

 24 23  0  0  1  0  0  0  0  0999 V2000
   14.4044  -15.5352  -15.5778 C   0  0  0  0  0  0  0  0  0  0  0  0
   14.5638  -14.1252  -16.0627 C   0  0  1  0  0  0  0  0  0  0  0  0
   13.3762  -13.6577  -16.5687 O   0  0  0  0  0  0  0  0  0  0  0  0
   15.1054  -13.2595  -14.9383 C   0  0  2  0  0  0  0  0  0  0  0  0
   14.1191  -13.0403  -13.9171 N   0  0  0  0  0  0  0  0  0  0  0  0
   15.6734  -11.9888  -15.4573 C   0  0  0  0  0  0  0  0  0  0  0  0
   15.1268  -11.4441  -16.4507 O   0  0  0  0  0  0  0  0  0  0  0  0
   16.8090  -11.3469  -14.8912 N   0  0  0  0  0  0  0  0  0  0  0  0
   17.2827  -10.0725  -15.3668 C   0  0  1  0  0  0  0  0  0  0  0  0
   16.1683   -9.0695  -15.3863 C   0  0  0  0  0  0  0  0  0  0  0  0
   16.5659   -7.7486  -15.8859 C   0  0  0  0  0  0  0  0  0  0  0  0
   17.7248   -7.3444  -15.6065 O   0  0  0  0  0  0  0  0  0  0  0  0
   18.4749   -9.5981  -14.6241 C   0  0  0  0  0  0  0  0  0  0  0  0
   18.3364   -9.3446  -13.4000 O   0  0  0  0  0  0  0  0  0  0  0  0
   15.7669   -6.9244  -16.6340 O   0  0  0  0  0  0  0  0  0  0  0  0
   23.1087  -12.1682  -15.4479 C   0  0  0  0  0  0  0  0  0  0  0  0
   21.8898  -11.4703  -14.8935 C   0  0  0  0  0  0  0  0  0  0  0  0
   22.1128   -9.9780  -14.9489 C   0  0  2  0  0  0  0  0  0  0  0  0
   23.2720   -9.6697  -14.0218 C   0  0  0  0  0  0  0  0  0  0  0  0
   20.9250   -9.1978  -14.4532 C   0  0  2  0  0  0  0  0  0  0  0  0
   19.7418   -9.4260  -15.2452 N   0  0  0  0  0  0  0  0  0  0  0  0
   21.2722   -7.7584  -14.5334 C   0  0  0  0  0  0  0  0  0  0  0  0
   20.9821   -7.0689  -15.5635 O   0  0  0  0  0  0  0  0  0  0  0  0
   21.9238   -7.1488  -13.4711 O   0  0  0  0  0  0  0  0  0  0  0  0
  2  1  1  1
  2  4  1  0
  2  3  1  0
  4  5  1  1
  6  8  1  0
  6  4  1  0
  7  6  2  0
  9  8  1  0
  9 13  1  0
  9 10  1  1
 11 15  1  0
 11 10  1  0
 12 11  2  0
 13 21  1  0
 14 13  2  0
 17 16  1  0
 18 17  1  0
 18 19  1  1
 20 18  1  0
 20 22  1  0
 20 21  1  6
 22 23  2  0
 22 24  1  0
M  END
$$$$
