TDI.pdb
     RDKit          3D

 24 23  0  0  1  0  0  0  0  0999 V2000
   25.6832  -37.2238   -8.3101 C   0  0  0  0  0  0  0  0  0  0  0  0
   26.7670  -36.8609   -7.3395 C   0  0  1  0  0  0  0  0  0  0  0  0
   27.9711  -36.7479   -7.9895 O   0  0  0  0  0  0  0  0  0  0  0  0
   26.3794  -35.5949   -6.5952 C   0  0  2  0  0  0  0  0  0  0  0  0
   26.0588  -34.5262   -7.5001 N   0  0  0  0  0  0  0  0  0  0  0  0
   27.4187  -35.2063   -5.6076 C   0  0  0  0  0  0  0  0  0  0  0  0
   28.0336  -34.1214   -5.7728 O   0  0  0  0  0  0  0  0  0  0  0  0
   27.7618  -35.9966   -4.4763 N   0  0  0  0  0  0  0  0  0  0  0  0
   28.7443  -35.5680   -3.5141 C   0  0  1  0  0  0  0  0  0  0  0  0
   28.3753  -36.0375   -2.1388 C   0  0  0  0  0  0  0  0  0  0  0  0
   27.5184  -35.1024   -1.4013 C   0  0  0  0  0  0  0  0  0  0  0  0
   26.2868  -35.1115   -1.6614 O   0  0  0  0  0  0  0  0  0  0  0  0
   30.1231  -35.9480   -3.9044 C   0  0  0  0  0  0  0  0  0  0  0  0
   30.3041  -37.1114   -4.3467 O   0  0  0  0  0  0  0  0  0  0  0  0
   27.9622  -34.2210   -0.4508 O   0  0  0  0  0  0  0  0  0  0  0  0
   33.4514  -32.8314   -6.7516 C   0  0  0  0  0  0  0  0  0  0  0  0
   32.7417  -34.0479   -6.2070 C   0  0  0  0  0  0  0  0  0  0  0  0
   33.3299  -34.3958   -4.8606 C   0  0  2  0  0  0  0  0  0  0  0  0
   34.7227  -34.9381   -5.1137 C   0  0  0  0  0  0  0  0  0  0  0  0
   32.5533  -35.4730   -4.1521 C   0  0  2  0  0  0  0  0  0  0  0  0
   31.2212  -35.0522   -3.7942 N   0  0  0  0  0  0  0  0  0  0  0  0
   33.2887  -35.8082   -2.9088 C   0  0  0  0  0  0  0  0  0  0  0  0
   34.3020  -36.5785   -2.9322 O   0  0  0  0  0  0  0  0  0  0  0  0
   32.8694  -35.2761   -1.6982 O   0  0  0  0  0  0  0  0  0  0  0  0
  2  1  1  6
  2  4  1  0
  2  3  1  0
  4  5  1  6
  6  8  1  0
  6  4  1  0
  7  6  2  0
  9  8  1  0
  9 13  1  0
  9 10  1  1
 11 15  1  0
 11 10  1  0
 12 11  2  0
 13 21  1  0
 14 13  2  0
 17 16  1  0
 18 17  1  0
 18 19  1  6
 20 18  1  0
 20 22  1  0
 20 21  1  1
 22 23  2  0
 22 24  1  0
M  END
$$$$
