TDI.pdb
     RDKit          3D

 24 23  0  0  1  0  0  0  0  0999 V2000
   27.6276  -15.8140  -16.8696 C   0  0  0  0  0  0  0  0  0  0  0  0
   26.7316  -16.7746  -16.1465 C   0  0  1  0  0  0  0  0  0  0  0  0
   25.4170  -16.5230  -16.4522 O   0  0  0  0  0  0  0  0  0  0  0  0
   27.1482  -18.1991  -16.4690 C   0  0  2  0  0  0  0  0  0  0  0  0
   27.1085  -18.4550  -17.8820 N   0  0  0  0  0  0  0  0  0  0  0  0
   26.3532  -19.1857  -15.6936 C   0  0  0  0  0  0  0  0  0  0  0  0
   25.4824  -19.8660  -16.2947 O   0  0  0  0  0  0  0  0  0  0  0  0
   26.5210  -19.4077  -14.2991 N   0  0  0  0  0  0  0  0  0  0  0  0
   25.6761  -20.3118  -13.5620 C   0  0  1  0  0  0  0  0  0  0  0  0
   26.3623  -20.7734  -12.3112 C   0  0  0  0  0  0  0  0  0  0  0  0
   25.5666  -21.7070  -11.5064 C   0  0  0  0  0  0  0  0  0  0  0  0
   24.5260  -22.1859  -12.0283 O   0  0  0  0  0  0  0  0  0  0  0  0
   24.3286  -19.7484  -13.3081 C   0  0  0  0  0  0  0  0  0  0  0  0
   24.2577  -18.6854  -12.6396 O   0  0  0  0  0  0  0  0  0  0  0  0
   25.8747  -22.0944  -10.2287 O   0  0  0  0  0  0  0  0  0  0  0  0
   19.9073  -17.3178  -15.8772 C   0  0  0  0  0  0  0  0  0  0  0  0
   20.1570  -18.1969  -14.6751 C   0  0  0  0  0  0  0  0  0  0  0  0
   21.5286  -18.8163  -14.7983 C   0  0  2  0  0  0  0  0  0  0  0  0
   21.5139  -19.6778  -16.0455 C   0  0  0  0  0  0  0  0  0  0  0  0
   21.8623  -19.7155  -13.6384 C   0  0  2  0  0  0  0  0  0  0  0  0
   23.1413  -20.3641  -13.7895 N   0  0  0  0  0  0  0  0  0  0  0  0
   20.8124  -20.7603  -13.5680 C   0  0  0  0  0  0  0  0  0  0  0  0
   21.0502  -21.9564  -13.9334 O   0  0  0  0  0  0  0  0  0  0  0  0
   19.5490  -20.4338  -13.0969 O   0  0  0  0  0  0  0  0  0  0  0  0
  2  1  1  6
  2  4  1  0
  2  3  1  0
  4  5  1  6
  6  8  1  0
  6  4  1  0
  7  6  2  0
  9  8  1  0
  9 13  1  0
  9 10  1  1
 11 15  1  0
 11 10  1  0
 12 11  2  0
 13 21  1  0
 14 13  2  0
 17 16  1  0
 18 17  1  0
 18 19  1  6
 20 18  1  0
 20 22  1  0
 20 21  1  6
 22 23  2  0
 22 24  1  0
M  END
$$$$
