TDI.pdb
     RDKit          3D

 24 23  0  0  1  0  0  0  0  0999 V2000
   13.9743  -12.6452  -12.5576 C   0  0  0  0  0  0  0  0  0  0  0  0
   15.0851  -12.3670  -13.5258 C   0  0  1  0  0  0  0  0  0  0  0  0
   15.0233  -13.2378  -14.5855 O   0  0  0  0  0  0  0  0  0  0  0  0
   15.0308  -10.9115  -13.9566 C   0  0  2  0  0  0  0  0  0  0  0  0
   15.4981  -10.7409  -15.3043 N   0  0  0  0  0  0  0  0  0  0  0  0
   15.7465  -10.0340  -12.9952 C   0  0  0  0  0  0  0  0  0  0  0  0
   15.5170  -10.1711  -11.7659 O   0  0  0  0  0  0  0  0  0  0  0  0
   16.6841   -9.0394  -13.3872 N   0  0  0  0  0  0  0  0  0  0  0  0
   17.3860   -8.2291  -12.4251 C   0  0  1  0  0  0  0  0  0  0  0  0
   18.5667   -7.5590  -13.0615 C   0  0  0  0  0  0  0  0  0  0  0  0
   19.7373   -8.4312  -13.2090 C   0  0  0  0  0  0  0  0  0  0  0  0
   19.5856   -9.5078  -13.8432 O   0  0  0  0  0  0  0  0  0  0  0  0
   16.4902   -7.2787  -11.7237 C   0  0  0  0  0  0  0  0  0  0  0  0
   15.7411   -6.5551  -12.4287 O   0  0  0  0  0  0  0  0  0  0  0  0
   20.9822   -8.1579  -12.7063 O   0  0  0  0  0  0  0  0  0  0  0  0
   12.2227   -6.3191   -8.1931 C   0  0  0  0  0  0  0  0  0  0  0  0
   13.6612   -5.8708   -8.0941 C   0  0  0  0  0  0  0  0  0  0  0  0
   14.5360   -6.8713   -8.8108 C   0  0  2  0  0  0  0  0  0  0  0  0
   15.2594   -7.6695   -7.7443 C   0  0  0  0  0  0  0  0  0  0  0  0
   15.5860   -6.2128   -9.6648 C   0  0  2  0  0  0  0  0  0  0  0  0
   16.4566   -7.1663  -10.3071 N   0  0  0  0  0  0  0  0  0  0  0  0
   16.4063   -5.3523   -8.7783 C   0  0  0  0  0  0  0  0  0  0  0  0
   17.5239   -5.7559   -8.3217 O   0  0  0  0  0  0  0  0  0  0  0  0
   15.9523   -4.0862   -8.4385 O   0  0  0  0  0  0  0  0  0  0  0  0
  2  1  1  1
  2  4  1  0
  2  3  1  0
  4  5  1  6
  6  8  1  0
  6  4  1  0
  7  6  2  0
  9  8  1  0
  9 13  1  0
  9 10  1  6
 11 15  1  0
 11 10  1  0
 12 11  2  0
 13 21  1  0
 14 13  2  0
 17 16  1  0
 18 17  1  0
 18 19  1  1
 20 18  1  0
 20 22  1  0
 20 21  1  1
 22 23  2  0
 22 24  1  0
M  END
$$$$
