TDI.pdb
     RDKit          3D

 24 23  0  0  1  0  0  0  0  0999 V2000
   15.8113  -14.1978  -16.2633 C   0  0  0  0  0  0  0  0  0  0  0  0
   16.5698  -13.1067  -15.5684 C   0  0  1  0  0  0  0  0  0  0  0  0
   17.7199  -13.6066  -15.0096 O   0  0  0  0  0  0  0  0  0  0  0  0
   16.8343  -11.9718  -16.5427 C   0  0  2  0  0  0  0  0  0  0  0  0
   17.6315  -12.4055  -17.6563 N   0  0  0  0  0  0  0  0  0  0  0  0
   17.4184  -10.7917  -15.8554 C   0  0  0  0  0  0  0  0  0  0  0  0
   16.7563  -10.2359  -14.9415 O   0  0  0  0  0  0  0  0  0  0  0  0
   18.6937  -10.2490  -16.1734 N   0  0  0  0  0  0  0  0  0  0  0  0
   19.2267   -9.0984  -15.4902 C   0  0  1  0  0  0  0  0  0  0  0  0
   20.7075   -9.2373  -15.2998 C   0  0  0  0  0  0  0  0  0  0  0  0
   21.3256   -8.1059  -14.5995 C   0  0  0  0  0  0  0  0  0  0  0  0
   22.0783   -7.3487  -15.2664 O   0  0  0  0  0  0  0  0  0  0  0  0
   18.8447   -7.8238  -16.1440 C   0  0  0  0  0  0  0  0  0  0  0  0
   18.9903   -7.7416  -17.3906 O   0  0  0  0  0  0  0  0  0  0  0  0
   21.1425   -7.8148  -13.2732 O   0  0  0  0  0  0  0  0  0  0  0  0
   14.6107   -3.8548  -16.8562 C   0  0  0  0  0  0  0  0  0  0  0  0
   16.1142   -3.9439  -16.7475 C   0  0  0  0  0  0  0  0  0  0  0  0
   16.4838   -5.2848  -16.1601 C   0  0  2  0  0  0  0  0  0  0  0  0
   15.9594   -5.3039  -14.7379 C   0  0  0  0  0  0  0  0  0  0  0  0
   17.9727   -5.4938  -16.0899 C   0  0  2  0  0  0  0  0  0  0  0  0
   18.3298   -6.7173  -15.4154 N   0  0  0  0  0  0  0  0  0  0  0  0
   18.5472   -4.3560  -15.3320 C   0  0  0  0  0  0  0  0  0  0  0  0
   18.6340   -3.1972  -15.8518 O   0  0  0  0  0  0  0  0  0  0  0  0
   18.9986   -4.5528  -14.0350 O   0  0  0  0  0  0  0  0  0  0  0  0
  2  1  1  6
  2  4  1  0
  2  3  1  0
  4  5  1  6
  6  8  1  0
  6  4  1  0
  7  6  2  0
  9  8  1  0
  9 13  1  0
  9 10  1  6
 11 15  1  0
 11 10  1  0
 12 11  2  0
 13 21  1  0
 14 13  2  0
 17 16  1  0
 18 17  1  0
 18 19  1  1
 20 18  1  0
 20 22  1  0
 20 21  1  1
 22 23  2  0
 22 24  1  0
M  END
$$$$
