TDI.pdb
     RDKit          3D

 24 23  0  0  1  0  0  0  0  0999 V2000
   13.8752  -12.1575  -15.9735 C   0  0  0  0  0  0  0  0  0  0  0  0
   14.8372  -13.2674  -15.6715 C   0  0  1  0  0  0  0  0  0  0  0  0
   14.5252  -14.3827  -16.4088 O   0  0  0  0  0  0  0  0  0  0  0  0
   16.2585  -12.7858  -15.9062 C   0  0  2  0  0  0  0  0  0  0  0  0
   17.2022  -13.8664  -15.8327 N   0  0  0  0  0  0  0  0  0  0  0  0
   16.6094  -11.6663  -14.9951 C   0  0  0  0  0  0  0  0  0  0  0  0
   16.8260  -11.9197  -13.7822 O   0  0  0  0  0  0  0  0  0  0  0  0
   16.7157  -10.3129  -15.4184 N   0  0  0  0  0  0  0  0  0  0  0  0
   17.0604   -9.2519  -14.5072 C   0  0  1  0  0  0  0  0  0  0  0  0
   17.6578   -8.0936  -15.2485 C   0  0  0  0  0  0  0  0  0  0  0  0
   17.9919   -6.9491  -14.3935 C   0  0  0  0  0  0  0  0  0  0  0  0
   18.7655   -7.1537  -13.4218 O   0  0  0  0  0  0  0  0  0  0  0  0
   15.9246   -8.8592  -13.6391 C   0  0  0  0  0  0  0  0  0  0  0  0
   14.8019   -8.7016  -14.1837 O   0  0  0  0  0  0  0  0  0  0  0  0
   17.5226   -5.6748  -14.5768 O   0  0  0  0  0  0  0  0  0  0  0  0
   12.5588   -9.4166   -9.5123 C   0  0  0  0  0  0  0  0  0  0  0  0
   13.7197   -8.4832   -9.2646 C   0  0  0  0  0  0  0  0  0  0  0  0
   14.8938   -8.9294  -10.1027 C   0  0  2  0  0  0  0  0  0  0  0  0
   16.1491   -8.5447   -9.3450 C   0  0  0  0  0  0  0  0  0  0  0  0
   14.9474   -8.2353  -11.4372 C   0  0  2  0  0  0  0  0  0  0  0  0
   16.0680   -8.6606  -12.2389 N   0  0  0  0  0  0  0  0  0  0  0  0
   15.0814   -6.7814  -11.1783 C   0  0  0  0  0  0  0  0  0  0  0  0
   16.2158   -6.2062  -11.2323 O   0  0  0  0  0  0  0  0  0  0  0  0
   13.9550   -6.0317  -10.8719 O   0  0  0  0  0  0  0  0  0  0  0  0
  2  1  1  6
  2  4  1  0
  2  3  1  0
  4  5  1  1
  6  8  1  0
  6  4  1  0
  7  6  2  0
  9  8  1  0
  9 13  1  0
  9 10  1  6
 11 15  1  0
 11 10  1  0
 12 11  2  0
 13 21  1  0
 14 13  2  0
 17 16  1  0
 18 17  1  0
 18 19  1  1
 20 18  1  0
 20 22  1  0
 20 21  1  6
 22 23  2  0
 22 24  1  0
M  END
$$$$
