TDI.pdb
     RDKit          3D

 24 23  0  0  1  0  0  0  0  0999 V2000
   22.2308  -10.7620  -20.1890 C   0  0  0  0  0  0  0  0  0  0  0  0
   21.4095  -12.0163  -20.1629 C   0  0  1  0  0  0  0  0  0  0  0  0
   22.0266  -13.0057  -20.8876 O   0  0  0  0  0  0  0  0  0  0  0  0
   21.1446  -12.4202  -18.7228 C   0  0  2  0  0  0  0  0  0  0  0  0
   20.5056  -13.7044  -18.6425 N   0  0  0  0  0  0  0  0  0  0  0  0
   20.3912  -11.3677  -17.9940 C   0  0  0  0  0  0  0  0  0  0  0  0
   19.1525  -11.2669  -18.1887 O   0  0  0  0  0  0  0  0  0  0  0  0
   20.9943  -10.4597  -17.0809 N   0  0  0  0  0  0  0  0  0  0  0  0
   20.2363   -9.4370  -16.4069 C   0  0  1  0  0  0  0  0  0  0  0  0
   19.1145  -10.0449  -15.6193 C   0  0  0  0  0  0  0  0  0  0  0  0
   18.3696   -9.0796  -14.8034 C   0  0  0  0  0  0  0  0  0  0  0  0
   18.0951   -7.9664  -15.3230 O   0  0  0  0  0  0  0  0  0  0  0  0
   21.0925   -8.5390  -15.5954 C   0  0  0  0  0  0  0  0  0  0  0  0
   21.9616   -9.0713  -14.8584 O   0  0  0  0  0  0  0  0  0  0  0  0
   17.9517   -9.3028  -13.5177 O   0  0  0  0  0  0  0  0  0  0  0  0
   23.9887   -3.8209  -17.6265 C   0  0  0  0  0  0  0  0  0  0  0  0
   23.6197   -4.5135  -16.3364 C   0  0  0  0  0  0  0  0  0  0  0  0
   22.4364   -5.4172  -16.5873 C   0  0  2  0  0  0  0  0  0  0  0  0
   21.2427   -4.5200  -16.8483 C   0  0  0  0  0  0  0  0  0  0  0  0
   22.1000   -6.2725  -15.3954 C   0  0  2  0  0  0  0  0  0  0  0  0
   20.9599   -7.1242  -15.6278 N   0  0  0  0  0  0  0  0  0  0  0  0
   21.7828   -5.3619  -14.2688 C   0  0  0  0  0  0  0  0  0  0  0  0
   22.6930   -4.6752  -13.7026 O   0  0  0  0  0  0  0  0  0  0  0  0
   20.4742   -5.2533  -13.8211 O   0  0  0  0  0  0  0  0  0  0  0  0
  2  1  1  1
  2  4  1  0
  2  3  1  0
  4  5  1  6
  6  8  1  0
  6  4  1  0
  7  6  2  0
  9  8  1  0
  9 13  1  0
  9 10  1  1
 11 15  1  0
 11 10  1  0
 12 11  2  0
 13 21  1  0
 14 13  2  0
 17 16  1  0
 18 17  1  0
 18 19  1  1
 20 18  1  0
 20 22  1  0
 20 21  1  6
 22 23  2  0
 22 24  1  0
M  END
$$$$
