TDI.pdb
     RDKit          3D

 24 23  0  0  1  0  0  0  0  0999 V2000
   17.8515   -8.2696  -17.5568 C   0  0  0  0  0  0  0  0  0  0  0  0
   17.1814   -9.0961  -16.5002 C   0  0  1  0  0  0  0  0  0  0  0  0
   16.5682  -10.1868  -17.0654 O   0  0  0  0  0  0  0  0  0  0  0  0
   18.1946   -9.4774  -15.4349 C   0  0  2  0  0  0  0  0  0  0  0  0
   17.6487  -10.4207  -14.4989 N   0  0  0  0  0  0  0  0  0  0  0  0
   18.7551   -8.2762  -14.7645 C   0  0  0  0  0  0  0  0  0  0  0  0
   18.0599   -7.6895  -13.8957 O   0  0  0  0  0  0  0  0  0  0  0  0
   20.0434   -7.7465  -15.0505 N   0  0  0  0  0  0  0  0  0  0  0  0
   20.4990   -6.5002  -14.4901 C   0  0  1  0  0  0  0  0  0  0  0  0
   21.9173   -6.6210  -14.0189 C   0  0  0  0  0  0  0  0  0  0  0  0
   22.4581   -5.3870  -13.4382 C   0  0  0  0  0  0  0  0  0  0  0  0
   23.1953   -4.6739  -14.1679 O   0  0  0  0  0  0  0  0  0  0  0  0
   20.2905   -5.3558  -15.4093 C   0  0  0  0  0  0  0  0  0  0  0  0
   20.7027   -5.4750  -16.5915 O   0  0  0  0  0  0  0  0  0  0  0  0
   22.2184   -4.9558  -12.1600 O   0  0  0  0  0  0  0  0  0  0  0  0
   16.2142   -1.9645  -17.7360 C   0  0  0  0  0  0  0  0  0  0  0  0
   17.6507   -1.8789  -17.2783 C   0  0  0  0  0  0  0  0  0  0  0  0
   17.9511   -3.0594  -16.3861 C   0  0  2  0  0  0  0  0  0  0  0  0
   17.1034   -2.8983  -15.1397 C   0  0  0  0  0  0  0  0  0  0  0  0
   19.3898   -3.0989  -15.9456 C   0  0  2  0  0  0  0  0  0  0  0  0
   19.6511   -4.1545  -14.9986 N   0  0  0  0  0  0  0  0  0  0  0  0
   19.6927   -1.8008  -15.2958 C   0  0  0  0  0  0  0  0  0  0  0  0
   19.7328   -1.6942  -14.0279 O   0  0  0  0  0  0  0  0  0  0  0  0
   19.9371   -0.6816  -16.0783 O   0  0  0  0  0  0  0  0  0  0  0  0
  2  1  1  6
  2  4  1  0
  2  3  1  0
  4  5  1  1
  6  8  1  0
  6  4  1  0
  7  6  2  0
  9  8  1  0
  9 13  1  0
  9 10  1  6
 11 15  1  0
 11 10  1  0
 12 11  2  0
 13 21  1  0
 14 13  2  0
 17 16  1  0
 18 17  1  0
 18 19  1  1
 20 18  1  0
 20 22  1  0
 20 21  1  1
 22 23  2  0
 22 24  1  0
M  END
$$$$
