TDI.pdb
     RDKit          3D

 24 23  0  0  1  0  0  0  0  0999 V2000
   16.0243  -10.7465  -14.5824 C   0  0  0  0  0  0  0  0  0  0  0  0
   16.3829  -11.4710  -15.8453 C   0  0  1  0  0  0  0  0  0  0  0  0
   15.6337  -12.6150  -15.9681 O   0  0  0  0  0  0  0  0  0  0  0  0
   16.2250  -10.5345  -17.0307 C   0  0  2  0  0  0  0  0  0  0  0  0
   16.3883  -11.2279  -18.2782 N   0  0  0  0  0  0  0  0  0  0  0  0
   17.1247   -9.3580  -16.9163 C   0  0  0  0  0  0  0  0  0  0  0  0
   18.2592   -9.4102  -17.4571 O   0  0  0  0  0  0  0  0  0  0  0  0
   16.7746   -8.1659  -16.2247 N   0  0  0  0  0  0  0  0  0  0  0  0
   17.6560   -7.0279  -16.1687 C   0  0  1  0  0  0  0  0  0  0  0  0
   16.8690   -5.7562  -16.0608 C   0  0  0  0  0  0  0  0  0  0  0  0
   17.6954   -4.5440  -16.0576 C   0  0  0  0  0  0  0  0  0  0  0  0
   18.8277   -4.6092  -16.6039 O   0  0  0  0  0  0  0  0  0  0  0  0
   18.6871   -7.1614  -15.1119 C   0  0  0  0  0  0  0  0  0  0  0  0
   18.2992   -7.4597  -13.9533 O   0  0  0  0  0  0  0  0  0  0  0  0
   17.3235   -3.3475  -15.5033 O   0  0  0  0  0  0  0  0  0  0  0  0
   23.5744  -10.0622  -13.8859 C   0  0  0  0  0  0  0  0  0  0  0  0
   22.8714   -8.7681  -13.5523 C   0  0  0  0  0  0  0  0  0  0  0  0
   21.8974   -8.4409  -14.6587 C   0  0  2  0  0  0  0  0  0  0  0  0
   22.7201   -8.1099  -15.8881 C   0  0  0  0  0  0  0  0  0  0  0  0
   21.0541   -7.2337  -14.3473 C   0  0  2  0  0  0  0  0  0  0  0  0
   20.0714   -6.9653  -15.3680 N   0  0  0  0  0  0  0  0  0  0  0  0
   21.9640   -6.0665  -14.2543 C   0  0  0  0  0  0  0  0  0  0  0  0
   22.0851   -5.2489  -15.2225 O   0  0  0  0  0  0  0  0  0  0  0  0
   22.6973   -5.8579  -13.0952 O   0  0  0  0  0  0  0  0  0  0  0  0
  2  1  1  1
  2  4  1  0
  2  3  1  0
  4  5  1  6
  6  8  1  0
  6  4  1  0
  7  6  2  0
  9  8  1  0
  9 13  1  0
  9 10  1  1
 11 15  1  0
 11 10  1  0
 12 11  2  0
 13 21  1  0
 14 13  2  0
 17 16  1  0
 18 17  1  0
 18 19  1  6
 20 18  1  0
 20 22  1  0
 20 21  1  6
 22 23  2  0
 22 24  1  0
M  END
$$$$
