GEP.pdb
     RDKit          3D

 21 21  0  0  1  0  0  0  0  0999 V2000
    8.6408  -13.0793   18.7375 N   0  0  0  0  0  0  0  0  0  0  0  0
    8.9362  -13.9480   19.8767 C   0  0  0  0  0  0  0  0  0  0  0  0
    7.9130  -13.7382   20.9361 C   0  0  0  0  0  0  0  0  0  0  0  0
    6.9776  -12.8984   20.8190 O   0  0  0  0  0  0  0  0  0  0  0  0
    8.0001  -14.5121   22.1126 N   0  0  0  0  0  0  0  0  0  0  0  0
    7.0491  -14.4364   23.2066 C   0  0  1  0  0  0  0  0  0  0  0  0
    6.1817  -15.6565   23.0959 C   0  0  0  0  0  0  0  0  0  0  0  0
    7.0866  -16.8626   23.2678 C   0  0  0  0  0  0  0  0  0  0  0  0
    6.3399  -18.1085   23.4459 C   0  0  0  0  0  0  0  0  0  0  0  0
    5.7355  -18.6592   22.4977 O   0  0  0  0  0  0  0  0  0  0  0  0
    7.8084  -14.3524   24.4789 C   0  0  0  0  0  0  0  0  0  0  0  0
    8.6483  -15.2683   24.6187 O   0  0  0  0  0  0  0  0  0  0  0  0
    6.2855  -18.7155   24.6914 O   0  0  0  0  0  0  0  0  0  0  0  0
    7.6359  -13.3694   25.4480 N   0  0  0  0  0  0  0  0  0  0  0  0
    7.0955  -12.0031   25.2691 C   0  0  0  0  0  0  0  0  0  0  0  0
    6.0488  -11.9803   26.3609 C   0  0  0  0  0  0  0  0  0  0  0  0
    6.4892  -13.0454   27.3802 C   0  0  0  0  0  0  0  0  0  0  0  0
    7.8968  -13.3358   26.8434 C   0  0  1  0  0  0  0  0  0  0  0  0
    8.5846  -14.3637   27.5384 C   0  0  0  0  0  0  0  0  0  0  0  0
    9.5706  -14.0252   28.2912 O   0  0  0  0  0  0  0  0  0  0  0  0
    8.3230  -15.6932   27.5028 O   0  0  0  0  0  0  0  0  0  0  0  0
  2  1  1  0
  3  2  1  0
  4  3  2  0
  5  3  1  0
  6  5  1  0
  6 11  1  0
  6  7  1  1
  8  7  1  0
  9  8  1  0
 10  9  2  0
 11 12  2  0
 13  9  1  0
 14 11  1  0
 14 18  1  0
 15 14  1  0
 16 15  1  0
 16 17  1  0
 17 18  1  0
 18 19  1  1
 19 20  2  0
 19 21  1  0
M  END
$$$$
