GEP.pdb
     RDKit          3D

 21 21  0  0  1  0  0  0  0  0999 V2000
    7.9739  -16.2123   19.1640 N   0  0  0  0  0  0  0  0  0  0  0  0
    8.6398  -15.8928   20.4266 C   0  0  0  0  0  0  0  0  0  0  0  0
    7.6158  -15.6736   21.4833 C   0  0  0  0  0  0  0  0  0  0  0  0
    6.3949  -15.9454   21.3116 O   0  0  0  0  0  0  0  0  0  0  0  0
    8.0351  -15.1413   22.7208 N   0  0  0  0  0  0  0  0  0  0  0  0
    7.4070  -15.4503   23.9924 C   0  0  1  0  0  0  0  0  0  0  0  0
    7.4004  -16.9471   24.1061 C   0  0  0  0  0  0  0  0  0  0  0  0
    6.7178  -17.2905   25.4172 C   0  0  0  0  0  0  0  0  0  0  0  0
    7.1360  -18.5881   25.9491 C   0  0  0  0  0  0  0  0  0  0  0  0
    6.6845  -19.0385   27.0266 O   0  0  0  0  0  0  0  0  0  0  0  0
    8.1711  -14.7695   25.0671 C   0  0  0  0  0  0  0  0  0  0  0  0
    9.1863  -15.4014   25.4330 O   0  0  0  0  0  0  0  0  0  0  0  0
    8.0579  -19.3594   25.2578 O   0  0  0  0  0  0  0  0  0  0  0  0
    7.8287  -13.5487   25.6394 N   0  0  0  0  0  0  0  0  0  0  0  0
    7.1079  -12.4204   25.0081 C   0  0  0  0  0  0  0  0  0  0  0  0
    6.0313  -12.1740   26.0417 C   0  0  0  0  0  0  0  0  0  0  0  0
    6.5816  -12.7479   27.3590 C   0  0  0  0  0  0  0  0  0  0  0  0
    8.0338  -12.9995   26.9328 C   0  0  1  0  0  0  0  0  0  0  0  0
    8.8349  -13.6149   27.9289 C   0  0  0  0  0  0  0  0  0  0  0  0
    9.5892  -12.8595   28.6457 O   0  0  0  0  0  0  0  0  0  0  0  0
    8.9048  -14.9362   28.2227 O   0  0  0  0  0  0  0  0  0  0  0  0
  2  1  1  0
  3  2  1  0
  4  3  2  0
  5  3  1  0
  6  5  1  0
  6 11  1  0
  6  7  1  1
  8  7  1  0
  9  8  1  0
 10  9  2  0
 11 12  2  0
 13  9  1  0
 14 11  1  0
 14 18  1  0
 15 14  1  0
 16 15  1  0
 16 17  1  0
 17 18  1  0
 18 19  1  1
 19 20  2  0
 19 21  1  0
M  END
$$$$
