GEP.pdb
     RDKit          3D

 21 21  0  0  1  0  0  0  0  0999 V2000
    8.0066  -12.3894   19.5584 N   0  0  0  0  0  0  0  0  0  0  0  0
    8.5805  -13.5523   20.2349 C   0  0  0  0  0  0  0  0  0  0  0  0
    7.8618  -13.7824   21.5170 C   0  0  0  0  0  0  0  0  0  0  0  0
    7.0433  -12.9484   21.9949 O   0  0  0  0  0  0  0  0  0  0  0  0
    8.1113  -14.9812   22.2178 N   0  0  0  0  0  0  0  0  0  0  0  0
    7.4604  -15.3441   23.4634 C   0  0  1  0  0  0  0  0  0  0  0  0
    7.3243  -16.8389   23.4476 C   0  0  0  0  0  0  0  0  0  0  0  0
    6.4871  -17.2221   24.6539 C   0  0  0  0  0  0  0  0  0  0  0  0
    6.3650  -18.6710   24.8197 C   0  0  0  0  0  0  0  0  0  0  0  0
    7.0473  -19.3009   25.6596 O   0  0  0  0  0  0  0  0  0  0  0  0
    8.2821  -14.8275   24.5862 C   0  0  0  0  0  0  0  0  0  0  0  0
    9.3058  -15.5103   24.8091 O   0  0  0  0  0  0  0  0  0  0  0  0
    5.4748  -19.3888   24.0356 O   0  0  0  0  0  0  0  0  0  0  0  0
    7.9813  -13.6993   25.3422 N   0  0  0  0  0  0  0  0  0  0  0  0
    7.3053  -12.4607   24.8954 C   0  0  0  0  0  0  0  0  0  0  0  0
    6.2331  -12.3392   25.9555 C   0  0  0  0  0  0  0  0  0  0  0  0
    6.7555  -13.1314   27.1666 C   0  0  0  0  0  0  0  0  0  0  0  0
    8.1997  -13.3665   26.7054 C   0  0  1  0  0  0  0  0  0  0  0  0
    8.9729  -14.1588   27.5927 C   0  0  0  0  0  0  0  0  0  0  0  0
    9.9342  -13.5872   28.2271 O   0  0  0  0  0  0  0  0  0  0  0  0
    8.8184  -15.4790   27.8580 O   0  0  0  0  0  0  0  0  0  0  0  0
  2  1  1  0
  3  2  1  0
  4  3  2  0
  5  3  1  0
  6  5  1  0
  6 11  1  0
  6  7  1  1
  8  7  1  0
  9  8  1  0
 10  9  2  0
 11 12  2  0
 13  9  1  0
 14 11  1  0
 14 18  1  0
 15 14  1  0
 16 15  1  0
 16 17  1  0
 17 18  1  0
 18 19  1  1
 19 20  2  0
 19 21  1  0
M  END
$$$$
