GEP.pdb
     RDKit          3D

 21 21  0  0  1  0  0  0  0  0999 V2000
    8.7305  -12.2981   19.0076 N   0  0  0  0  0  0  0  0  0  0  0  0
    9.1901  -13.2901   19.9793 C   0  0  0  0  0  0  0  0  0  0  0  0
    8.1891  -13.4103   21.0733 C   0  0  0  0  0  0  0  0  0  0  0  0
    7.1858  -12.6490   21.1615 O   0  0  0  0  0  0  0  0  0  0  0  0
    8.3772  -14.4165   22.0443 N   0  0  0  0  0  0  0  0  0  0  0  0
    7.4599  -14.6686   23.1406 C   0  0  1  0  0  0  0  0  0  0  0  0
    7.0322  -16.1016   23.0109 C   0  0  0  0  0  0  0  0  0  0  0  0
    6.5135  -16.2846   21.5966 C   0  0  0  0  0  0  0  0  0  0  0  0
    6.4303  -17.6917   21.2029 C   0  0  0  0  0  0  0  0  0  0  0  0
    5.6540  -18.4932   21.7710 O   0  0  0  0  0  0  0  0  0  0  0  0
    8.1597  -14.3633   24.4132 C   0  0  0  0  0  0  0  0  0  0  0  0
    9.1310  -15.1176   24.6405 O   0  0  0  0  0  0  0  0  0  0  0  0
    7.2242  -18.1747   20.1738 O   0  0  0  0  0  0  0  0  0  0  0  0
    7.8051  -13.3480   25.2955 N   0  0  0  0  0  0  0  0  0  0  0  0
    7.2178  -12.0284   24.9723 C   0  0  0  0  0  0  0  0  0  0  0  0
    6.0354  -12.0193   25.9157 C   0  0  0  0  0  0  0  0  0  0  0  0
    6.3949  -13.0049   27.0412 C   0  0  0  0  0  0  0  0  0  0  0  0
    7.8755  -13.2316   26.7091 C   0  0  1  0  0  0  0  0  0  0  0  0
    8.5210  -14.1801   27.5436 C   0  0  0  0  0  0  0  0  0  0  0  0
    9.2129  -13.7382   28.5332 O   0  0  0  0  0  0  0  0  0  0  0  0
    8.4977  -15.5297   27.4200 O   0  0  0  0  0  0  0  0  0  0  0  0
  2  1  1  0
  3  2  1  0
  4  3  2  0
  5  3  1  0
  6  5  1  0
  6 11  1  0
  6  7  1  1
  8  7  1  0
  9  8  1  0
 10  9  2  0
 11 12  2  0
 13  9  1  0
 14 11  1  0
 14 18  1  0
 15 14  1  0
 16 15  1  0
 16 17  1  0
 17 18  1  0
 18 19  1  1
 19 20  2  0
 19 21  1  0
M  END
$$$$
