GEP.pdb
     RDKit          3D

 21 21  0  0  1  0  0  0  0  0999 V2000
   -6.6851  -28.5924   25.5415 N   0  0  0  0  0  0  0  0  0  0  0  0
   -5.4923  -27.7485   25.4743 C   0  0  0  0  0  0  0  0  0  0  0  0
   -5.8939  -26.3184   25.5556 C   0  0  0  0  0  0  0  0  0  0  0  0
   -5.5172  -25.4589   24.7109 O   0  0  0  0  0  0  0  0  0  0  0  0
   -6.7274  -25.9173   26.6210 N   0  0  0  0  0  0  0  0  0  0  0  0
   -7.0684  -24.5362   26.9096 C   0  0  1  0  0  0  0  0  0  0  0  0
   -8.3534  -24.5728   27.6846 C   0  0  0  0  0  0  0  0  0  0  0  0
   -8.7470  -23.1335   27.9612 C   0  0  0  0  0  0  0  0  0  0  0  0
   -9.8468  -23.0229   28.9204 C   0  0  0  0  0  0  0  0  0  0  0  0
  -10.2674  -21.9134   29.3202 O   0  0  0  0  0  0  0  0  0  0  0  0
   -5.9379  -23.9220   27.6494 C   0  0  0  0  0  0  0  0  0  0  0  0
   -5.7416  -24.4343   28.7733 O   0  0  0  0  0  0  0  0  0  0  0  0
  -10.4567  -24.1658   29.4150 O   0  0  0  0  0  0  0  0  0  0  0  0
   -5.1479  -22.8789   27.1774 N   0  0  0  0  0  0  0  0  0  0  0  0
   -5.0347  -22.3828   25.7874 C   0  0  0  0  0  0  0  0  0  0  0  0
   -5.2601  -20.9034   26.0082 C   0  0  0  0  0  0  0  0  0  0  0  0
   -4.8953  -20.6432   27.4802 C   0  0  0  0  0  0  0  0  0  0  0  0
   -4.2427  -21.9905   27.8161 C   0  0  1  0  0  0  0  0  0  0  0  0
   -3.8388  -22.1206   29.1699 C   0  0  0  0  0  0  0  0  0  0  0  0
   -2.5785  -22.1720   29.4193 O   0  0  0  0  0  0  0  0  0  0  0  0
   -4.6408  -22.2010   30.2597 O   0  0  0  0  0  0  0  0  0  0  0  0
  2  1  1  0
  3  2  1  0
  4  3  2  0
  5  3  1  0
  6  5  1  0
  6 11  1  0
  6  7  1  1
  8  7  1  0
  9  8  1  0
 10  9  2  0
 11 12  2  0
 13  9  1  0
 14 11  1  0
 14 18  1  0
 15 14  1  0
 16 15  1  0
 16 17  1  0
 17 18  1  0
 18 19  1  1
 19 20  2  0
 19 21  1  0
M  END
$$$$
