GEP.pdb
     RDKit          3D

 21 21  0  0  1  0  0  0  0  0999 V2000
    7.8771  -12.7051   18.8597 N   0  0  0  0  0  0  0  0  0  0  0  0
    8.6979  -13.3447   19.8876 C   0  0  0  0  0  0  0  0  0  0  0  0
    7.8533  -13.6535   21.0728 C   0  0  0  0  0  0  0  0  0  0  0  0
    6.6320  -13.3396   21.1357 O   0  0  0  0  0  0  0  0  0  0  0  0
    8.4490  -14.3228   22.1626 N   0  0  0  0  0  0  0  0  0  0  0  0
    7.7198  -14.7810   23.3310 C   0  0  1  0  0  0  0  0  0  0  0  0
    7.6432  -16.2760   23.2202 C   0  0  0  0  0  0  0  0  0  0  0  0
    7.2164  -16.5954   21.7994 C   0  0  0  0  0  0  0  0  0  0  0  0
    7.5464  -17.9655   21.4048 C   0  0  0  0  0  0  0  0  0  0  0  0
    7.9861  -18.8029   22.2253 O   0  0  0  0  0  0  0  0  0  0  0  0
    8.4331  -14.3040   24.5419 C   0  0  0  0  0  0  0  0  0  0  0  0
    9.5324  -14.8705   24.7276 O   0  0  0  0  0  0  0  0  0  0  0  0
    7.3757  -18.3715   20.0900 O   0  0  0  0  0  0  0  0  0  0  0  0
    7.9629  -13.3256   25.4117 N   0  0  0  0  0  0  0  0  0  0  0  0
    7.3007  -12.0472   25.0678 C   0  0  0  0  0  0  0  0  0  0  0  0
    6.0742  -12.1314   25.9491 C   0  0  0  0  0  0  0  0  0  0  0  0
    6.4449  -13.1010   27.0848 C   0  0  0  0  0  0  0  0  0  0  0  0
    7.9528  -13.2194   26.8278 C   0  0  1  0  0  0  0  0  0  0  0  0
    8.6207  -14.1288   27.6879 C   0  0  0  0  0  0  0  0  0  0  0  0
    8.5993  -15.3764   27.3776 O   0  0  0  0  0  0  0  0  0  0  0  0
    9.2940  -13.8346   28.8269 O   0  0  0  0  0  0  0  0  0  0  0  0
  2  1  1  0
  3  2  1  0
  4  3  2  0
  5  3  1  0
  6  5  1  0
  6 11  1  0
  6  7  1  1
  8  7  1  0
  9  8  1  0
 10  9  2  0
 11 12  2  0
 13  9  1  0
 14 11  1  0
 14 18  1  0
 15 14  1  0
 16 15  1  0
 16 17  1  0
 17 18  1  0
 18 19  1  1
 19 20  2  0
 19 21  1  0
M  END
$$$$
