GEP.pdb
     RDKit          3D

 21 21  0  0  1  0  0  0  0  0999 V2000
    8.2556  -19.8296   27.9476 N   0  0  0  0  0  0  0  0  0  0  0  0
    7.7988  -19.3070   26.6601 C   0  0  0  0  0  0  0  0  0  0  0  0
    8.2680  -17.9041   26.5019 C   0  0  0  0  0  0  0  0  0  0  0  0
    8.8344  -17.2690   27.4346 O   0  0  0  0  0  0  0  0  0  0  0  0
    8.0678  -17.2680   25.2586 N   0  0  0  0  0  0  0  0  0  0  0  0
    8.4462  -15.8950   24.9786 C   0  0  1  0  0  0  0  0  0  0  0  0
    8.7067  -15.8226   23.5021 C   0  0  0  0  0  0  0  0  0  0  0  0
   10.0100  -16.5558   23.2439 C   0  0  0  0  0  0  0  0  0  0  0  0
   10.3744  -16.5783   21.8267 C   0  0  0  0  0  0  0  0  0  0  0  0
   10.0899  -17.5465   21.0854 O   0  0  0  0  0  0  0  0  0  0  0  0
    7.3506  -15.0064   25.4398 C   0  0  0  0  0  0  0  0  0  0  0  0
    6.2115  -15.4187   25.1296 O   0  0  0  0  0  0  0  0  0  0  0  0
   11.0547  -15.5082   21.2658 O   0  0  0  0  0  0  0  0  0  0  0  0
    7.5277  -13.8235   26.1499 N   0  0  0  0  0  0  0  0  0  0  0  0
    8.7838  -13.2854   26.7188 C   0  0  0  0  0  0  0  0  0  0  0  0
    8.7542  -11.8799   26.1605 C   0  0  0  0  0  0  0  0  0  0  0  0
    7.2756  -11.5872   25.8514 C   0  0  0  0  0  0  0  0  0  0  0  0
    6.6330  -12.7946   26.5465 C   0  0  1  0  0  0  0  0  0  0  0  0
    5.2252  -12.8752   26.3904 C   0  0  0  0  0  0  0  0  0  0  0  0
    4.7665  -13.6110   25.4409 O   0  0  0  0  0  0  0  0  0  0  0  0
    4.2813  -12.2536   27.1385 O   0  0  0  0  0  0  0  0  0  0  0  0
  2  1  1  0
  3  2  1  0
  4  3  2  0
  5  3  1  0
  6  5  1  0
  6 11  1  0
  6  7  1  6
  8  7  1  0
  9  8  1  0
 10  9  2  0
 11 12  2  0
 13  9  1  0
 14 11  1  0
 14 18  1  0
 15 14  1  0
 16 15  1  0
 16 17  1  0
 17 18  1  0
 18 19  1  6
 19 20  2  0
 19 21  1  0
M  END
$$$$
