GEP.pdb
     RDKit          3D

 21 21  0  0  1  0  0  0  0  0999 V2000
    8.7300  -13.9378   13.1016 N   0  0  0  0  0  0  0  0  0  0  0  0
    9.3966  -14.8252   14.0542 C   0  0  0  0  0  0  0  0  0  0  0  0
    8.5714  -14.9354   15.2872 C   0  0  0  0  0  0  0  0  0  0  0  0
    7.5561  -14.2131   15.4908 O   0  0  0  0  0  0  0  0  0  0  0  0
    8.9459  -15.8864   16.2598 N   0  0  0  0  0  0  0  0  0  0  0  0
    8.2119  -16.1223   17.4897 C   0  0  1  0  0  0  0  0  0  0  0  0
    7.8419  -17.5771   17.4869 C   0  0  0  0  0  0  0  0  0  0  0  0
    6.8895  -17.7959   18.6480 C   0  0  0  0  0  0  0  0  0  0  0  0
    6.4910  -19.1963   18.7956 C   0  0  0  0  0  0  0  0  0  0  0  0
    5.3286  -19.5844   18.5385 O   0  0  0  0  0  0  0  0  0  0  0  0
    9.0737  -15.7238   18.6303 C   0  0  0  0  0  0  0  0  0  0  0  0
   10.0384  -16.4969   18.8192 O   0  0  0  0  0  0  0  0  0  0  0  0
    7.4095  -20.1393   19.2311 O   0  0  0  0  0  0  0  0  0  0  0  0
    8.8667  -14.6086   19.4356 N   0  0  0  0  0  0  0  0  0  0  0  0
    8.3075  -13.2958   19.0421 C   0  0  0  0  0  0  0  0  0  0  0  0
    7.2398  -13.1275   20.1004 C   0  0  0  0  0  0  0  0  0  0  0  0
    7.6780  -14.0170   21.2770 C   0  0  0  0  0  0  0  0  0  0  0  0
    9.1002  -14.3586   20.8138 C   0  0  1  0  0  0  0  0  0  0  0  0
    9.7914  -15.2558   21.6683 C   0  0  0  0  0  0  0  0  0  0  0  0
    9.3700  -16.4688   21.7341 O   0  0  0  0  0  0  0  0  0  0  0  0
   10.8681  -14.9820   22.4446 O   0  0  0  0  0  0  0  0  0  0  0  0
  2  1  1  0
  3  2  1  0
  4  3  2  0
  5  3  1  0
  6  5  1  0
  6 11  1  0
  6  7  1  1
  8  7  1  0
  9  8  1  0
 10  9  2  0
 11 12  2  0
 13  9  1  0
 14 11  1  0
 14 18  1  0
 15 14  1  0
 16 15  1  0
 16 17  1  0
 17 18  1  0
 18 19  1  1
 19 20  2  0
 19 21  1  0
M  END
$$$$
