GEP.pdb
     RDKit          3D

 21 21  0  0  1  0  0  0  0  0999 V2000
    4.1232  -18.9719   21.5024 N   0  0  0  0  0  0  0  0  0  0  0  0
    4.8141  -17.6867   21.6048 C   0  0  0  0  0  0  0  0  0  0  0  0
    5.1311  -17.4087   23.0315 C   0  0  0  0  0  0  0  0  0  0  0  0
    4.3214  -17.6587   23.9674 O   0  0  0  0  0  0  0  0  0  0  0  0
    6.3868  -16.8442   23.3400 N   0  0  0  0  0  0  0  0  0  0  0  0
    6.8339  -16.5461   24.6884 C   0  0  1  0  0  0  0  0  0  0  0  0
    7.4271  -17.8160   25.2258 C   0  0  0  0  0  0  0  0  0  0  0  0
    7.7491  -17.5721   26.6886 C   0  0  0  0  0  0  0  0  0  0  0  0
    8.4641  -18.6911   27.3039 C   0  0  0  0  0  0  0  0  0  0  0  0
    7.9500  -19.8280   27.4079 O   0  0  0  0  0  0  0  0  0  0  0  0
    7.7934  -15.4159   24.6218 C   0  0  0  0  0  0  0  0  0  0  0  0
    8.8580  -15.7009   24.0309 O   0  0  0  0  0  0  0  0  0  0  0  0
    9.7490  -18.5115   27.7931 O   0  0  0  0  0  0  0  0  0  0  0  0
    7.5715  -14.1484   25.1502 N   0  0  0  0  0  0  0  0  0  0  0  0
    6.4441  -13.2317   24.8680 C   0  0  0  0  0  0  0  0  0  0  0  0
    6.0039  -12.9013   26.2770 C   0  0  0  0  0  0  0  0  0  0  0  0
    7.2308  -13.1644   27.1675 C   0  0  0  0  0  0  0  0  0  0  0  0
    8.2937  -13.3508   26.0769 C   0  0  1  0  0  0  0  0  0  0  0  0
    9.5802  -13.6903   26.5694 C   0  0  0  0  0  0  0  0  0  0  0  0
    9.8613  -14.9373   26.7080 O   0  0  0  0  0  0  0  0  0  0  0  0
   10.5733  -12.8379   26.9221 O   0  0  0  0  0  0  0  0  0  0  0  0
  2  1  1  0
  3  2  1  0
  4  3  2  0
  5  3  1  0
  6  5  1  0
  6 11  1  0
  6  7  1  6
  8  7  1  0
  9  8  1  0
 10  9  2  0
 11 12  2  0
 13  9  1  0
 14 11  1  0
 14 18  1  0
 15 14  1  0
 16 15  1  0
 16 17  1  0
 17 18  1  0
 18 19  1  1
 19 20  2  0
 19 21  1  0
M  END
$$$$
