GEP.pdb
     RDKit          3D

 21 21  0  0  1  0  0  0  0  0999 V2000
    9.6186  -20.4775   22.1300 N   0  0  0  0  0  0  0  0  0  0  0  0
    8.7834  -20.0615   23.2563 C   0  0  0  0  0  0  0  0  0  0  0  0
    9.0074  -18.6165   23.5300 C   0  0  0  0  0  0  0  0  0  0  0  0
    9.8883  -17.9408   22.9289 O   0  0  0  0  0  0  0  0  0  0  0  0
    8.1995  -17.9864   24.5000 N   0  0  0  0  0  0  0  0  0  0  0  0
    8.2706  -16.5729   24.8223 C   0  0  1  0  0  0  0  0  0  0  0  0
    6.9336  -15.9916   24.4647 C   0  0  0  0  0  0  0  0  0  0  0  0
    7.1657  -14.5392   24.0910 C   0  0  0  0  0  0  0  0  0  0  0  0
    7.3662  -14.3506   22.6537 C   0  0  0  0  0  0  0  0  0  0  0  0
    7.0497  -15.2298   21.8203 O   0  0  0  0  0  0  0  0  0  0  0  0
    8.6190  -16.4395   26.2587 C   0  0  0  0  0  0  0  0  0  0  0  0
    8.0296  -17.2630   26.9924 O   0  0  0  0  0  0  0  0  0  0  0  0
    7.9209  -13.1727   22.1768 O   0  0  0  0  0  0  0  0  0  0  0  0
    9.5081  -15.5058   26.7810 N   0  0  0  0  0  0  0  0  0  0  0  0
   10.0337  -14.2871   26.1257 C   0  0  0  0  0  0  0  0  0  0  0  0
    9.7426  -13.2573   27.1948 C   0  0  0  0  0  0  0  0  0  0  0  0
    9.6428  -14.0445   28.5130 C   0  0  0  0  0  0  0  0  0  0  0  0
   10.1716  -15.4020   28.0322 C   0  0  1  0  0  0  0  0  0  0  0  0
   10.1474  -16.4197   29.0203 C   0  0  0  0  0  0  0  0  0  0  0  0
   10.9792  -16.3300   29.9968 O   0  0  0  0  0  0  0  0  0  0  0  0
    9.3345  -17.5036   29.0599 O   0  0  0  0  0  0  0  0  0  0  0  0
  2  1  1  0
  3  2  1  0
  4  3  2  0
  5  3  1  0
  6  5  1  0
  6 11  1  0
  6  7  1  1
  8  7  1  0
  9  8  1  0
 10  9  2  0
 11 12  2  0
 13  9  1  0
 14 11  1  0
 14 18  1  0
 15 14  1  0
 16 15  1  0
 16 17  1  0
 17 18  1  0
 18 19  1  1
 19 20  2  0
 19 21  1  0
M  END
$$$$
