GEP.pdb
     RDKit          3D

 21 21  0  0  1  0  0  0  0  0999 V2000
    7.9077  -12.5953   19.4879 N   0  0  0  0  0  0  0  0  0  0  0  0
    8.5725  -13.6372   20.2702 C   0  0  0  0  0  0  0  0  0  0  0  0
    7.7134  -14.0111   21.4258 C   0  0  0  0  0  0  0  0  0  0  0  0
    6.5356  -13.5778   21.5637 O   0  0  0  0  0  0  0  0  0  0  0  0
    8.2443  -14.8835   22.3992 N   0  0  0  0  0  0  0  0  0  0  0  0
    7.5349  -15.2905   23.5984 C   0  0  1  0  0  0  0  0  0  0  0  0
    7.4863  -16.7905   23.5705 C   0  0  0  0  0  0  0  0  0  0  0  0
    6.6690  -17.2314   24.7707 C   0  0  0  0  0  0  0  0  0  0  0  0
    6.7231  -18.6772   24.9908 C   0  0  0  0  0  0  0  0  0  0  0  0
    5.7740  -19.4307   24.6756 O   0  0  0  0  0  0  0  0  0  0  0  0
    8.2499  -14.7343   24.7740 C   0  0  0  0  0  0  0  0  0  0  0  0
    9.2910  -15.3624   25.0664 O   0  0  0  0  0  0  0  0  0  0  0  0
    7.8472  -19.2527   25.5633 O   0  0  0  0  0  0  0  0  0  0  0  0
    7.8389  -13.6258   25.5071 N   0  0  0  0  0  0  0  0  0  0  0  0
    7.0596  -12.4608   25.0315 C   0  0  0  0  0  0  0  0  0  0  0  0
    5.9674  -12.4198   26.0773 C   0  0  0  0  0  0  0  0  0  0  0  0
    6.5438  -13.1418   27.3077 C   0  0  0  0  0  0  0  0  0  0  0  0
    8.0091  -13.2527   26.8667 C   0  0  1  0  0  0  0  0  0  0  0  0
    8.8393  -13.9574   27.7761 C   0  0  0  0  0  0  0  0  0  0  0  0
    9.6928  -13.2808   28.4595 O   0  0  0  0  0  0  0  0  0  0  0  0
    8.8433  -15.2913   28.0165 O   0  0  0  0  0  0  0  0  0  0  0  0
  2  1  1  0
  3  2  1  0
  4  3  2  0
  5  3  1  0
  6  5  1  0
  6 11  1  0
  6  7  1  1
  8  7  1  0
  9  8  1  0
 10  9  2  0
 11 12  2  0
 13  9  1  0
 14 11  1  0
 14 18  1  0
 15 14  1  0
 16 15  1  0
 16 17  1  0
 17 18  1  0
 18 19  1  1
 19 20  2  0
 19 21  1  0
M  END
$$$$
