GEP.pdb
     RDKit          3D

 21 21  0  0  1  0  0  0  0  0999 V2000
    3.3834  -18.4617   22.3113 N   0  0  0  0  0  0  0  0  0  0  0  0
    4.7911  -18.6421   21.9573 C   0  0  0  0  0  0  0  0  0  0  0  0
    5.5299  -17.3755   22.2088 C   0  0  0  0  0  0  0  0  0  0  0  0
    4.9646  -16.2466   22.1969 O   0  0  0  0  0  0  0  0  0  0  0  0
    6.9145  -17.4492   22.4696 N   0  0  0  0  0  0  0  0  0  0  0  0
    7.7903  -16.2938   22.5395 C   0  0  1  0  0  0  0  0  0  0  0  0
    8.9841  -16.7183   23.3445 C   0  0  0  0  0  0  0  0  0  0  0  0
    9.8376  -15.4822   23.5599 C   0  0  0  0  0  0  0  0  0  0  0  0
   11.1207  -15.7853   24.1952 C   0  0  0  0  0  0  0  0  0  0  0  0
   12.1982  -15.7551   23.5581 O   0  0  0  0  0  0  0  0  0  0  0  0
    8.1182  -15.8732   21.1546 C   0  0  0  0  0  0  0  0  0  0  0  0
    8.7580  -16.7340   20.5113 O   0  0  0  0  0  0  0  0  0  0  0  0
   11.1702  -16.1180   25.5403 O   0  0  0  0  0  0  0  0  0  0  0  0
    7.7680  -14.6525   20.5871 N   0  0  0  0  0  0  0  0  0  0  0  0
    6.7668  -13.6779   21.0758 C   0  0  0  0  0  0  0  0  0  0  0  0
    7.5942  -12.4116   21.0672 C   0  0  0  0  0  0  0  0  0  0  0  0
    8.7297  -12.6647   20.0602 C   0  0  0  0  0  0  0  0  0  0  0  0
    8.2158  -13.9648   19.4282 C   0  0  1  0  0  0  0  0  0  0  0  0
    9.0931  -14.5324   18.4685 C   0  0  0  0  0  0  0  0  0  0  0  0
   10.0532  -15.2736   18.8954 O   0  0  0  0  0  0  0  0  0  0  0  0
    9.0418  -14.3828   17.1223 O   0  0  0  0  0  0  0  0  0  0  0  0
  2  1  1  0
  3  2  1  0
  4  3  2  0
  5  3  1  0
  6  5  1  0
  6 11  1  0
  6  7  1  1
  8  7  1  0
  9  8  1  0
 10  9  2  0
 11 12  2  0
 13  9  1  0
 14 11  1  0
 14 18  1  0
 15 14  1  0
 16 15  1  0
 16 17  1  0
 17 18  1  0
 18 19  1  1
 19 20  2  0
 19 21  1  0
M  END
$$$$
