GEP.pdb
     RDKit          3D

 21 21  0  0  1  0  0  0  0  0999 V2000
    8.2417  -12.2731   19.4226 N   0  0  0  0  0  0  0  0  0  0  0  0
    8.8295  -13.3977   20.1500 C   0  0  0  0  0  0  0  0  0  0  0  0
    8.0201  -13.6761   21.3668 C   0  0  0  0  0  0  0  0  0  0  0  0
    7.0648  -12.9349   21.7303 O   0  0  0  0  0  0  0  0  0  0  0  0
    8.3400  -14.8141   22.1370 N   0  0  0  0  0  0  0  0  0  0  0  0
    7.6267  -15.2085   23.3380 C   0  0  1  0  0  0  0  0  0  0  0  0
    7.5081  -16.7040   23.2855 C   0  0  0  0  0  0  0  0  0  0  0  0
    6.5617  -17.1144   24.3986 C   0  0  0  0  0  0  0  0  0  0  0  0
    5.9283  -18.4105   24.1525 C   0  0  0  0  0  0  0  0  0  0  0  0
    6.3780  -19.4709   24.6436 O   0  0  0  0  0  0  0  0  0  0  0  0
    8.3806  -14.7065   24.5137 C   0  0  0  0  0  0  0  0  0  0  0  0
    9.3916  -15.3906   24.7857 O   0  0  0  0  0  0  0  0  0  0  0  0
    4.7965  -18.4922   23.3556 O   0  0  0  0  0  0  0  0  0  0  0  0
    8.0336  -13.5898   25.2670 N   0  0  0  0  0  0  0  0  0  0  0  0
    7.4403  -12.3208   24.7889 C   0  0  0  0  0  0  0  0  0  0  0  0
    6.2682  -12.1952   25.7368 C   0  0  0  0  0  0  0  0  0  0  0  0
    6.6418  -13.0333   26.9719 C   0  0  0  0  0  0  0  0  0  0  0  0
    8.1191  -13.2987   26.6542 C   0  0  1  0  0  0  0  0  0  0  0  0
    8.7755  -14.1359   27.5929 C   0  0  0  0  0  0  0  0  0  0  0  0
    9.6263  -13.5941   28.3903 O   0  0  0  0  0  0  0  0  0  0  0  0
    8.6117  -15.4718   27.7538 O   0  0  0  0  0  0  0  0  0  0  0  0
  2  1  1  0
  3  2  1  0
  4  3  2  0
  5  3  1  0
  6  5  1  0
  6 11  1  0
  6  7  1  1
  8  7  1  0
  9  8  1  0
 10  9  2  0
 11 12  2  0
 13  9  1  0
 14 11  1  0
 14 18  1  0
 15 14  1  0
 16 15  1  0
 16 17  1  0
 17 18  1  0
 18 19  1  1
 19 20  2  0
 19 21  1  0
M  END
$$$$
