GEP.pdb
     RDKit          3D

 21 21  0  0  1  0  0  0  0  0999 V2000
    7.1840  -12.0347   18.5642 N   0  0  0  0  0  0  0  0  0  0  0  0
    8.2451  -12.8392   19.1693 C   0  0  0  0  0  0  0  0  0  0  0  0
    7.6642  -13.7051   20.2305 C   0  0  0  0  0  0  0  0  0  0  0  0
    6.4262  -13.7398   20.4755 O   0  0  0  0  0  0  0  0  0  0  0  0
    8.5385  -14.5145   20.9862 N   0  0  0  0  0  0  0  0  0  0  0  0
    8.0976  -15.5035   21.9529 C   0  0  1  0  0  0  0  0  0  0  0  0
    8.4648  -16.8426   21.3828 C   0  0  0  0  0  0  0  0  0  0  0  0
    7.8716  -17.8949   22.3014 C   0  0  0  0  0  0  0  0  0  0  0  0
    8.1979  -19.2588   21.8831 C   0  0  0  0  0  0  0  0  0  0  0  0
    9.0868  -19.9313   22.4535 O   0  0  0  0  0  0  0  0  0  0  0  0
    8.7474  -15.2056   23.2535 C   0  0  0  0  0  0  0  0  0  0  0  0
    9.8497  -15.7775   23.4018 O   0  0  0  0  0  0  0  0  0  0  0  0
    7.5166  -19.8449   20.8272 O   0  0  0  0  0  0  0  0  0  0  0  0
    8.2191  -14.3778   24.2387 N   0  0  0  0  0  0  0  0  0  0  0  0
    7.3995  -13.1588   24.0568 C   0  0  0  0  0  0  0  0  0  0  0  0
    6.2407  -13.4711   24.9777 C   0  0  0  0  0  0  0  0  0  0  0  0
    6.7802  -14.4957   25.9908 C   0  0  0  0  0  0  0  0  0  0  0  0
    8.2754  -14.4110   25.6573 C   0  0  1  0  0  0  0  0  0  0  0  0
    9.0877  -15.3146   26.3897 C   0  0  0  0  0  0  0  0  0  0  0  0
    9.9801  -14.8216   27.1733 O   0  0  0  0  0  0  0  0  0  0  0  0
    9.0371  -16.6688   26.3615 O   0  0  0  0  0  0  0  0  0  0  0  0
  2  1  1  0
  3  2  1  0
  4  3  2  0
  5  3  1  0
  6  5  1  0
  6 11  1  0
  6  7  1  6
  8  7  1  0
  9  8  1  0
 10  9  2  0
 11 12  2  0
 13  9  1  0
 14 11  1  0
 14 18  1  0
 15 14  1  0
 16 15  1  0
 16 17  1  0
 17 18  1  0
 18 19  1  6
 19 20  2  0
 19 21  1  0
M  END
$$$$
