GEP.pdb
     RDKit          3D

 21 21  0  0  1  0  0  0  0  0999 V2000
    5.6022  -21.2099   25.0296 N   0  0  0  0  0  0  0  0  0  0  0  0
    6.0009  -20.2188   24.0306 C   0  0  0  0  0  0  0  0  0  0  0  0
    6.6637  -19.0726   24.7091 C   0  0  0  0  0  0  0  0  0  0  0  0
    6.4309  -18.7699   25.9125 O   0  0  0  0  0  0  0  0  0  0  0  0
    7.5858  -18.3008   23.9712 N   0  0  0  0  0  0  0  0  0  0  0  0
    8.2692  -17.1322   24.4949 C   0  0  1  0  0  0  0  0  0  0  0  0
    9.7374  -17.3863   24.3132 C   0  0  0  0  0  0  0  0  0  0  0  0
   10.4720  -16.2118   24.9328 C   0  0  0  0  0  0  0  0  0  0  0  0
   11.9163  -16.2635   24.7023 C   0  0  0  0  0  0  0  0  0  0  0  0
   12.6872  -16.8841   25.4694 O   0  0  0  0  0  0  0  0  0  0  0  0
    7.7719  -15.9372   23.7687 C   0  0  0  0  0  0  0  0  0  0  0  0
    7.9516  -15.9955   22.5325 O   0  0  0  0  0  0  0  0  0  0  0  0
   12.4705  -15.6144   23.6096 O   0  0  0  0  0  0  0  0  0  0  0  0
    7.1597  -14.8390   24.3639 N   0  0  0  0  0  0  0  0  0  0  0  0
    6.3941  -14.8021   25.6302 C   0  0  0  0  0  0  0  0  0  0  0  0
    7.0810  -13.6497   26.3289 C   0  0  0  0  0  0  0  0  0  0  0  0
    7.7223  -12.8093   25.2109 C   0  0  0  0  0  0  0  0  0  0  0  0
    7.0636  -13.4715   23.9937 C   0  0  1  0  0  0  0  0  0  0  0  0
    7.5045  -12.9635   22.7446 C   0  0  0  0  0  0  0  0  0  0  0  0
    7.0492  -11.8227   22.3646 O   0  0  0  0  0  0  0  0  0  0  0  0
    8.3680  -13.5508   21.8804 O   0  0  0  0  0  0  0  0  0  0  0  0
  2  1  1  0
  3  2  1  0
  4  3  2  0
  5  3  1  0
  6  5  1  0
  6 11  1  0
  6  7  1  6
  8  7  1  0
  9  8  1  0
 10  9  2  0
 11 12  2  0
 13  9  1  0
 14 11  1  0
 14 18  1  0
 15 14  1  0
 16 15  1  0
 16 17  1  0
 17 18  1  0
 18 19  1  6
 19 20  2  0
 19 21  1  0
M  END
$$$$
