PMG.pdb
     RDKit          3D

 20 20  0  0  1  0  0  0  0  0999 V2000
   27.2396  -19.1770  -14.7241 N   0  0  0  0  0  0  0  0  0  0  0  0
   28.4461  -18.8365  -15.4509 C   0  0  0  0  0  0  0  0  0  0  0  0
   29.1428  -20.1297  -15.8179 C   0  0  0  0  0  0  0  0  0  0  0  0
   28.4341  -21.1145  -14.8871 C   0  0  0  0  0  0  0  0  0  0  0  0
   27.0219  -20.5625  -15.0067 C   0  0  1  0  0  0  0  0  0  0  0  0
   26.0793  -21.2249  -14.1088 C   0  0  0  0  0  0  0  0  0  0  0  0
   25.8180  -22.4433  -14.2763 O   0  0  0  0  0  0  0  0  0  0  0  0
   25.1237  -20.8432   -7.4823 C   0  0  0  0  0  0  0  0  0  0  0  0
   26.4887  -20.3336   -8.5883 S   0  0  0  0  0  0  0  0  0  0  0  0
   26.1448  -20.9919  -10.2318 C   0  0  0  0  0  0  0  0  0  0  0  0
   24.8041  -20.5599  -10.7496 C   0  0  0  0  0  0  0  0  0  0  0  0
   24.5166  -21.0977  -12.1335 C   0  0  2  0  0  0  0  0  0  0  0  0
   25.4607  -20.5263  -13.0639 N   0  0  0  0  0  0  0  0  0  0  0  0
   23.1412  -20.6522  -12.5307 C   0  0  0  0  0  0  0  0  0  0  0  0
   22.9294  -19.4792  -12.9124 O   0  0  0  0  0  0  0  0  0  0  0  0
   22.0270  -21.5281  -12.4935 N   0  0  0  0  0  0  0  0  0  0  0  0
   20.6797  -21.0938  -12.8100 C   0  0  0  0  0  0  0  0  0  0  0  0
   20.3520  -21.3227  -14.2352 C   0  0  0  0  0  0  0  0  0  0  0  0
   20.2760  -22.4878  -14.6546 O   0  0  0  0  0  0  0  0  0  0  0  0
   20.1198  -20.2976  -15.1496 O   0  0  0  0  0  0  0  0  0  0  0  0
  1  2  1  0
  3  2  1  0
  4  5  1  0
  4  3  1  0
  5  6  1  1
  5  1  1  0
  6  7  2  0
  9  8  1  0
  9 10  1  0
 10 11  1  0
 12 11  1  1
 12 14  1  0
 13 12  1  0
 13  6  1  0
 14 15  2  0
 14 16  1  0
 16 17  1  0
 18 20  1  0
 18 17  1  0
 19 18  2  0
M  END
$$$$
