PMG.pdb
     RDKit          3D

 20 20  0  0  1  0  0  0  0  0999 V2000
   26.5497  -19.5190  -13.0192 N   0  0  0  0  0  0  0  0  0  0  0  0
   27.1999  -19.3053  -14.2965 C   0  0  0  0  0  0  0  0  0  0  0  0
   28.1836  -20.4369  -14.5072 C   0  0  0  0  0  0  0  0  0  0  0  0
   28.2828  -21.0018  -13.0896 C   0  0  0  0  0  0  0  0  0  0  0  0
   26.8177  -20.8869  -12.6974 C   0  0  1  0  0  0  0  0  0  0  0  0
   26.5782  -21.2407  -11.3006 C   0  0  0  0  0  0  0  0  0  0  0  0
   26.6963  -22.4386  -10.9373 O   0  0  0  0  0  0  0  0  0  0  0  0
   28.9306  -19.2484   -4.9303 C   0  0  0  0  0  0  0  0  0  0  0  0
   28.0392  -20.5248   -5.8908 S   0  0  0  0  0  0  0  0  0  0  0  0
   26.6092  -19.7403   -6.6606 C   0  0  0  0  0  0  0  0  0  0  0  0
   26.7930  -19.5439   -8.1370 C   0  0  0  0  0  0  0  0  0  0  0  0
   25.9837  -20.5235   -8.9571 C   0  0  2  0  0  0  0  0  0  0  0  0
   26.2189  -20.2684  -10.3582 N   0  0  0  0  0  0  0  0  0  0  0  0
   24.5314  -20.2799   -8.6752 C   0  0  0  0  0  0  0  0  0  0  0  0
   23.8416  -19.5568   -9.4287 O   0  0  0  0  0  0  0  0  0  0  0  0
   23.8770  -20.8503   -7.5543 N   0  0  0  0  0  0  0  0  0  0  0  0
   22.9384  -21.9499   -7.6725 C   0  0  0  0  0  0  0  0  0  0  0  0
   21.7520  -21.5726   -8.4730 C   0  0  0  0  0  0  0  0  0  0  0  0
   20.7398  -22.2882   -8.4213 O   0  0  0  0  0  0  0  0  0  0  0  0
   21.6984  -20.4477   -9.2932 O   0  0  0  0  0  0  0  0  0  0  0  0
  1  2  1  0
  3  2  1  0
  4  5  1  0
  4  3  1  0
  5  6  1  1
  5  1  1  0
  6  7  2  0
  9  8  1  0
  9 10  1  0
 10 11  1  0
 12 11  1  1
 12 14  1  0
 13 12  1  0
 13  6  1  0
 14 15  2  0
 14 16  1  0
 16 17  1  0
 18 20  1  0
 18 17  1  0
 19 18  2  0
M  END
$$$$
