PMG.pdb
     RDKit          3D

 20 20  0  0  1  0  0  0  0  0999 V2000
   26.6473  -19.3057  -13.1909 N   0  0  0  0  0  0  0  0  0  0  0  0
   27.2701  -19.1063  -14.4840 C   0  0  0  0  0  0  0  0  0  0  0  0
   27.9765  -20.3923  -14.8577 C   0  0  0  0  0  0  0  0  0  0  0  0
   28.0153  -21.1048  -13.5051 C   0  0  0  0  0  0  0  0  0  0  0  0
   26.6285  -20.7246  -13.0094 C   0  0  1  0  0  0  0  0  0  0  0  0
   26.3814  -21.1585  -11.6367 C   0  0  0  0  0  0  0  0  0  0  0  0
   26.2732  -22.3859  -11.3863 O   0  0  0  0  0  0  0  0  0  0  0  0
   27.7539  -19.8170   -4.1227 C   0  0  0  0  0  0  0  0  0  0  0  0
   27.9234  -19.1900   -5.8328 S   0  0  0  0  0  0  0  0  0  0  0  0
   26.7812  -20.1156   -6.8776 C   0  0  0  0  0  0  0  0  0  0  0  0
   26.9128  -19.7516   -8.3275 C   0  0  0  0  0  0  0  0  0  0  0  0
   25.9996  -20.5672   -9.2151 C   0  0  2  0  0  0  0  0  0  0  0  0
   26.2627  -20.2307  -10.5938 N   0  0  0  0  0  0  0  0  0  0  0  0
   24.5835  -20.1862   -8.9031 C   0  0  0  0  0  0  0  0  0  0  0  0
   24.1317  -19.0652   -9.2284 O   0  0  0  0  0  0  0  0  0  0  0  0
   23.6980  -21.0671   -8.2322 N   0  0  0  0  0  0  0  0  0  0  0  0
   22.2732  -20.8155   -8.1295 C   0  0  0  0  0  0  0  0  0  0  0  0
   21.5846  -21.8765   -7.3607 C   0  0  0  0  0  0  0  0  0  0  0  0
   22.2338  -22.8658   -6.9877 O   0  0  0  0  0  0  0  0  0  0  0  0
   20.2334  -21.8345   -7.0240 O   0  0  0  0  0  0  0  0  0  0  0  0
  1  2  1  0
  3  2  1  0
  4  5  1  0
  4  3  1  0
  5  6  1  1
  5  1  1  0
  6  7  2  0
  9  8  1  0
  9 10  1  0
 10 11  1  0
 12 11  1  1
 12 14  1  0
 13 12  1  0
 13  6  1  0
 14 15  2  0
 14 16  1  0
 16 17  1  0
 18 20  1  0
 18 17  1  0
 19 18  2  0
M  END
$$$$
