PMG.pdb
     RDKit          3D

 20 20  0  0  1  0  0  0  0  0999 V2000
   26.3952  -17.8879  -14.3742 N   0  0  0  0  0  0  0  0  0  0  0  0
   26.8080  -16.9776  -15.4234 C   0  0  0  0  0  0  0  0  0  0  0  0
   28.1116  -17.4942  -15.9944 C   0  0  0  0  0  0  0  0  0  0  0  0
   28.5338  -18.4811  -14.9051 C   0  0  0  0  0  0  0  0  0  0  0  0
   27.1674  -19.0721  -14.5935 C   0  0  1  0  0  0  0  0  0  0  0  0
   27.1969  -19.9963  -13.4628 C   0  0  0  0  0  0  0  0  0  0  0  0
   27.8020  -21.0926  -13.5761 O   0  0  0  0  0  0  0  0  0  0  0  0
   28.5610  -19.6088   -6.9219 C   0  0  0  0  0  0  0  0  0  0  0  0
   26.7575  -19.8480   -7.1116 S   0  0  0  0  0  0  0  0  0  0  0  0
   26.4766  -20.7414   -8.6530 C   0  0  0  0  0  0  0  0  0  0  0  0
   26.5478  -19.8433   -9.8532 C   0  0  0  0  0  0  0  0  0  0  0  0
   26.3837  -20.5989  -11.1529 C   0  0  2  0  0  0  0  0  0  0  0  0
   26.5627  -19.6826  -12.2537 N   0  0  0  0  0  0  0  0  0  0  0  0
   24.9828  -21.1300  -11.2102 C   0  0  0  0  0  0  0  0  0  0  0  0
   23.9989  -20.3581  -11.1592 O   0  0  0  0  0  0  0  0  0  0  0  0
   24.7081  -22.5163  -11.3233 N   0  0  0  0  0  0  0  0  0  0  0  0
   24.7945  -23.2305  -12.5829 C   0  0  0  0  0  0  0  0  0  0  0  0
   23.7015  -22.8477  -13.5046 C   0  0  0  0  0  0  0  0  0  0  0  0
   23.9838  -22.5150  -14.6661 O   0  0  0  0  0  0  0  0  0  0  0  0
   22.3554  -22.8371  -13.1458 O   0  0  0  0  0  0  0  0  0  0  0  0
  1  2  1  0
  3  2  1  0
  4  5  1  0
  4  3  1  0
  5  6  1  1
  5  1  1  0
  6  7  2  0
  9  8  1  0
  9 10  1  0
 10 11  1  0
 12 11  1  1
 12 14  1  0
 13 12  1  0
 13  6  1  0
 14 15  2  0
 14 16  1  0
 16 17  1  0
 18 20  1  0
 18 17  1  0
 19 18  2  0
M  END
$$$$
