PMG.pdb
     RDKit          3D

 20 20  0  0  1  0  0  0  0  0999 V2000
   26.9946  -18.9871  -13.3598 N   0  0  0  0  0  0  0  0  0  0  0  0
   27.6759  -18.7066  -14.6076 C   0  0  0  0  0  0  0  0  0  0  0  0
   28.4274  -19.9570  -15.0128 C   0  0  0  0  0  0  0  0  0  0  0  0
   28.4149  -20.7406  -13.6996 C   0  0  0  0  0  0  0  0  0  0  0  0
   26.9975  -20.4139  -13.2549 C   0  0  1  0  0  0  0  0  0  0  0  0
   26.6925  -20.9257  -11.9212 C   0  0  0  0  0  0  0  0  0  0  0  0
   26.6031  -22.1668  -11.7409 O   0  0  0  0  0  0  0  0  0  0  0  0
   27.7584  -20.1638   -4.3108 C   0  0  0  0  0  0  0  0  0  0  0  0
   28.0629  -19.4695   -5.9755 S   0  0  0  0  0  0  0  0  0  0  0  0
   26.8501  -20.1834   -7.1035 C   0  0  0  0  0  0  0  0  0  0  0  0
   27.0606  -19.7398   -8.5216 C   0  0  0  0  0  0  0  0  0  0  0  0
   26.1666  -20.4726   -9.4968 C   0  0  2  0  0  0  0  0  0  0  0  0
   26.4977  -20.0577  -10.8390 N   0  0  0  0  0  0  0  0  0  0  0  0
   24.7482  -20.0728   -9.2205 C   0  0  0  0  0  0  0  0  0  0  0  0
   24.3212  -18.9440   -9.5520 O   0  0  0  0  0  0  0  0  0  0  0  0
   23.8329  -20.9441   -8.5778 N   0  0  0  0  0  0  0  0  0  0  0  0
   22.4473  -20.5862   -8.3407 C   0  0  0  0  0  0  0  0  0  0  0  0
   21.6416  -20.6685   -9.5797 C   0  0  0  0  0  0  0  0  0  0  0  0
   21.7593  -19.7758  -10.4333 O   0  0  0  0  0  0  0  0  0  0  0  0
   20.7460  -21.7001   -9.8527 O   0  0  0  0  0  0  0  0  0  0  0  0
  1  2  1  0
  3  2  1  0
  4  5  1  0
  4  3  1  0
  5  6  1  1
  5  1  1  0
  6  7  2  0
  9  8  1  0
  9 10  1  0
 10 11  1  0
 12 11  1  1
 12 14  1  0
 13 12  1  0
 13  6  1  0
 14 15  2  0
 14 16  1  0
 16 17  1  0
 18 20  1  0
 18 17  1  0
 19 18  2  0
M  END
$$$$
