PMG.pdb
     RDKit          3D

 20 20  0  0  1  0  0  0  0  0999 V2000
   27.1678  -19.0084  -13.4481 N   0  0  0  0  0  0  0  0  0  0  0  0
   27.8327  -18.7356  -14.7064 C   0  0  0  0  0  0  0  0  0  0  0  0
   28.6072  -19.9768  -15.0962 C   0  0  0  0  0  0  0  0  0  0  0  0
   28.6221  -20.7372  -13.7695 C   0  0  0  0  0  0  0  0  0  0  0  0
   27.2018  -20.4327  -13.3184 C   0  0  1  0  0  0  0  0  0  0  0  0
   26.9188  -20.9273  -11.9734 C   0  0  0  0  0  0  0  0  0  0  0  0
   26.7211  -22.1562  -11.7955 O   0  0  0  0  0  0  0  0  0  0  0  0
   27.8001  -20.4064   -4.4223 C   0  0  0  0  0  0  0  0  0  0  0  0
   28.2289  -19.7535   -6.0764 S   0  0  0  0  0  0  0  0  0  0  0  0
   26.7749  -19.9184   -7.1307 C   0  0  0  0  0  0  0  0  0  0  0  0
   27.0458  -19.4961   -8.5451 C   0  0  0  0  0  0  0  0  0  0  0  0
   26.4036  -20.4172   -9.5580 C   0  0  2  0  0  0  0  0  0  0  0  0
   26.8634  -20.0561  -10.8777 N   0  0  0  0  0  0  0  0  0  0  0  0
   24.9201  -20.2060   -9.5061 C   0  0  0  0  0  0  0  0  0  0  0  0
   24.4000  -19.5097   -8.6055 O   0  0  0  0  0  0  0  0  0  0  0  0
   24.0451  -20.7784  -10.4636 N   0  0  0  0  0  0  0  0  0  0  0  0
   22.6105  -20.5653  -10.4380 C   0  0  0  0  0  0  0  0  0  0  0  0
   21.9567  -21.0991  -11.6540 C   0  0  0  0  0  0  0  0  0  0  0  0
   20.7214  -21.0342  -11.7497 O   0  0  0  0  0  0  0  0  0  0  0  0
   22.6505  -21.6784  -12.7141 O   0  0  0  0  0  0  0  0  0  0  0  0
  1  2  1  0
  3  2  1  0
  4  5  1  0
  4  3  1  0
  5  6  1  1
  5  1  1  0
  6  7  2  0
  9  8  1  0
  9 10  1  0
 10 11  1  0
 12 11  1  1
 12 14  1  0
 13 12  1  0
 13  6  1  0
 14 15  2  0
 14 16  1  0
 16 17  1  0
 18 20  1  0
 18 17  1  0
 19 18  2  0
M  END
$$$$
