PMG.pdb
     RDKit          3D

 20 20  0  0  1  0  0  0  0  0999 V2000
   27.0596  -19.1598  -13.4086 N   0  0  0  0  0  0  0  0  0  0  0  0
   27.9058  -18.7817  -14.5225 C   0  0  0  0  0  0  0  0  0  0  0  0
   28.7789  -19.9713  -14.8617 C   0  0  0  0  0  0  0  0  0  0  0  0
   28.6108  -20.8222  -13.6022 C   0  0  0  0  0  0  0  0  0  0  0  0
   27.1263  -20.5883  -13.3678 C   0  0  1  0  0  0  0  0  0  0  0  0
   26.6513  -21.1834  -12.1212 C   0  0  0  0  0  0  0  0  0  0  0  0
   26.6063  -22.4352  -12.0115 O   0  0  0  0  0  0  0  0  0  0  0  0
   27.2316  -19.2453   -5.6660 C   0  0  0  0  0  0  0  0  0  0  0  0
   28.4327  -19.5438   -7.0129 S   0  0  0  0  0  0  0  0  0  0  0  0
   27.6416  -20.6095   -8.2341 C   0  0  0  0  0  0  0  0  0  0  0  0
   26.2985  -20.0912   -8.6578 C   0  0  0  0  0  0  0  0  0  0  0  0
   25.7065  -20.8829   -9.8024 C   0  0  2  0  0  0  0  0  0  0  0  0
   26.2447  -20.3837  -11.0453 N   0  0  0  0  0  0  0  0  0  0  0  0
   24.2246  -20.6552   -9.8100 C   0  0  0  0  0  0  0  0  0  0  0  0
   23.5210  -20.9617   -8.8213 O   0  0  0  0  0  0  0  0  0  0  0  0
   23.5565  -20.0883  -10.9246 N   0  0  0  0  0  0  0  0  0  0  0  0
   22.1267  -19.8444  -10.9384 C   0  0  0  0  0  0  0  0  0  0  0  0
   21.4343  -20.7078  -11.9213 C   0  0  0  0  0  0  0  0  0  0  0  0
   22.0973  -21.5328  -12.5686 O   0  0  0  0  0  0  0  0  0  0  0  0
   20.0646  -20.6523  -12.1696 O   0  0  0  0  0  0  0  0  0  0  0  0
  1  2  1  0
  3  2  1  0
  4  5  1  0
  4  3  1  0
  5  6  1  1
  5  1  1  0
  6  7  2  0
  9  8  1  0
  9 10  1  0
 10 11  1  0
 12 11  1  1
 12 14  1  0
 13 12  1  0
 13  6  1  0
 14 15  2  0
 14 16  1  0
 16 17  1  0
 18 20  1  0
 18 17  1  0
 19 18  2  0
M  END
$$$$
