PMG.pdb
     RDKit          3D

 20 20  0  0  1  0  0  0  0  0999 V2000
   27.2528  -18.9202  -14.6869 N   0  0  0  0  0  0  0  0  0  0  0  0
   28.2263  -18.4832  -15.6672 C   0  0  0  0  0  0  0  0  0  0  0  0
   29.1374  -19.6552  -15.9651 C   0  0  0  0  0  0  0  0  0  0  0  0
   28.8209  -20.5751  -14.7852 C   0  0  0  0  0  0  0  0  0  0  0  0
   27.3182  -20.3490  -14.7190 C   0  0  1  0  0  0  0  0  0  0  0  0
   26.6979  -21.0116  -13.5746 C   0  0  0  0  0  0  0  0  0  0  0  0
   26.5626  -22.2616  -13.5826 O   0  0  0  0  0  0  0  0  0  0  0  0
   27.9130  -20.1980   -7.5055 C   0  0  0  0  0  0  0  0  0  0  0  0
   26.0942  -20.1368   -7.3209 S   0  0  0  0  0  0  0  0  0  0  0  0
   25.3615  -20.7495   -8.8509 C   0  0  0  0  0  0  0  0  0  0  0  0
   26.1206  -20.3014  -10.0655 C   0  0  0  0  0  0  0  0  0  0  0  0
   25.5238  -20.8315  -11.3500 C   0  0  2  0  0  0  0  0  0  0  0  0
   26.2506  -20.2785  -12.4677 N   0  0  0  0  0  0  0  0  0  0  0  0
   24.1040  -20.3574  -11.4353 C   0  0  0  0  0  0  0  0  0  0  0  0
   23.8317  -19.2141  -11.8656 O   0  0  0  0  0  0  0  0  0  0  0  0
   23.0139  -21.1719  -11.0372 N   0  0  0  0  0  0  0  0  0  0  0  0
   21.6396  -20.7091  -11.0679 C   0  0  0  0  0  0  0  0  0  0  0  0
   20.8910  -21.2935  -12.2033 C   0  0  0  0  0  0  0  0  0  0  0  0
   21.4981  -21.5516  -13.2541 O   0  0  0  0  0  0  0  0  0  0  0  0
   19.5275  -21.5767  -12.1667 O   0  0  0  0  0  0  0  0  0  0  0  0
  1  2  1  0
  3  2  1  0
  4  5  1  0
  4  3  1  0
  5  6  1  1
  5  1  1  0
  6  7  2  0
  9  8  1  0
  9 10  1  0
 10 11  1  0
 12 11  1  1
 12 14  1  0
 13 12  1  0
 13  6  1  0
 14 15  2  0
 14 16  1  0
 16 17  1  0
 18 20  1  0
 18 17  1  0
 19 18  2  0
M  END
$$$$
