PMG.pdb
     RDKit          3D

 20 20  0  0  1  0  0  0  0  0999 V2000
   27.3120  -20.2101  -16.0170 N   0  0  0  0  0  0  0  0  0  0  0  0
   28.3241  -20.1868  -17.0538 C   0  0  0  0  0  0  0  0  0  0  0  0
   28.8081  -21.6071  -17.2565 C   0  0  0  0  0  0  0  0  0  0  0  0
   28.2781  -22.2773  -15.9881 C   0  0  0  0  0  0  0  0  0  0  0  0
   26.9264  -21.5840  -15.9140 C   0  0  1  0  0  0  0  0  0  0  0  0
   26.1868  -21.9181  -14.6995 C   0  0  0  0  0  0  0  0  0  0  0  0
   25.7054  -23.0720  -14.5666 O   0  0  0  0  0  0  0  0  0  0  0  0
   25.5341  -20.7003   -7.0465 C   0  0  0  0  0  0  0  0  0  0  0  0
   26.3271  -20.1598   -8.6037 S   0  0  0  0  0  0  0  0  0  0  0  0
   25.4014  -20.8780   -9.9749 C   0  0  0  0  0  0  0  0  0  0  0  0
   26.0520  -20.6151  -11.3014 C   0  0  0  0  0  0  0  0  0  0  0  0
   25.2783  -21.2130  -12.4551 C   0  0  2  0  0  0  0  0  0  0  0  0
   26.0043  -20.9750  -13.6797 N   0  0  0  0  0  0  0  0  0  0  0  0
   23.9595  -20.5060  -12.5487 C   0  0  0  0  0  0  0  0  0  0  0  0
   23.8809  -19.3497  -13.0211 O   0  0  0  0  0  0  0  0  0  0  0  0
   22.7518  -21.1063  -12.1115 N   0  0  0  0  0  0  0  0  0  0  0  0
   21.4680  -20.4371  -12.2025 C   0  0  0  0  0  0  0  0  0  0  0  0
   20.7754  -20.7532  -13.4718 C   0  0  0  0  0  0  0  0  0  0  0  0
   20.9982  -20.0498  -14.4693 O   0  0  0  0  0  0  0  0  0  0  0  0
   19.8755  -21.8063  -13.6202 O   0  0  0  0  0  0  0  0  0  0  0  0
  1  2  1  0
  3  2  1  0
  4  5  1  0
  4  3  1  0
  5  6  1  1
  5  1  1  0
  6  7  2  0
  9  8  1  0
  9 10  1  0
 10 11  1  0
 12 11  1  1
 12 14  1  0
 13 12  1  0
 13  6  1  0
 14 15  2  0
 14 16  1  0
 16 17  1  0
 18 20  1  0
 18 17  1  0
 19 18  2  0
M  END
$$$$
