PMG.pdb
     RDKit          3D

 20 20  0  0  1  0  0  0  0  0999 V2000
   27.4537  -19.1412  -15.1884 N   0  0  0  0  0  0  0  0  0  0  0  0
   28.4283  -18.8030  -16.2060 C   0  0  0  0  0  0  0  0  0  0  0  0
   29.1653  -20.0724  -16.5774 C   0  0  0  0  0  0  0  0  0  0  0  0
   28.7884  -20.9794  -15.4053 C   0  0  0  0  0  0  0  0  0  0  0  0
   27.3324  -20.5650  -15.2578 C   0  0  1  0  0  0  0  0  0  0  0  0
   26.6861  -21.1769  -14.0996 C   0  0  0  0  0  0  0  0  0  0  0  0
   26.3595  -22.3903  -14.1433 O   0  0  0  0  0  0  0  0  0  0  0  0
   27.8561  -20.6440   -7.4967 C   0  0  0  0  0  0  0  0  0  0  0  0
   26.1754  -19.9969   -7.8167 S   0  0  0  0  0  0  0  0  0  0  0  0
   25.5483  -20.7973   -9.3064 C   0  0  0  0  0  0  0  0  0  0  0  0
   26.2850  -20.3631  -10.5397 C   0  0  0  0  0  0  0  0  0  0  0  0
   25.6701  -20.9147  -11.8064 C   0  0  2  0  0  0  0  0  0  0  0  0
   26.4234  -20.4353  -12.9405 N   0  0  0  0  0  0  0  0  0  0  0  0
   24.2722  -20.3838  -11.9159 C   0  0  0  0  0  0  0  0  0  0  0  0
   24.0333  -19.1641  -11.7692 O   0  0  0  0  0  0  0  0  0  0  0  0
   23.1662  -21.2282  -12.1878 N   0  0  0  0  0  0  0  0  0  0  0  0
   21.8198  -20.7198  -12.3686 C   0  0  0  0  0  0  0  0  0  0  0  0
   20.8670  -21.8019  -12.7034 C   0  0  0  0  0  0  0  0  0  0  0  0
   21.2273  -22.7013  -13.4784 O   0  0  0  0  0  0  0  0  0  0  0  0
   19.5717  -21.8763  -12.1958 O   0  0  0  0  0  0  0  0  0  0  0  0
  1  2  1  0
  3  2  1  0
  4  5  1  0
  4  3  1  0
  5  6  1  1
  5  1  1  0
  6  7  2  0
  9  8  1  0
  9 10  1  0
 10 11  1  0
 12 11  1  1
 12 14  1  0
 13 12  1  0
 13  6  1  0
 14 15  2  0
 14 16  1  0
 16 17  1  0
 18 20  1  0
 18 17  1  0
 19 18  2  0
M  END
$$$$
