PMG.pdb
     RDKit          3D

 20 20  0  0  1  0  0  0  0  0999 V2000
   27.3629  -19.0059  -15.0623 N   0  0  0  0  0  0  0  0  0  0  0  0
   28.3174  -18.5368  -16.0465 C   0  0  0  0  0  0  0  0  0  0  0  0
   29.2187  -19.6996  -16.4042 C   0  0  0  0  0  0  0  0  0  0  0  0
   28.9236  -20.6599  -15.2512 C   0  0  0  0  0  0  0  0  0  0  0  0
   27.4233  -20.4328  -15.1461 C   0  0  1  0  0  0  0  0  0  0  0  0
   26.8246  -21.1339  -14.0132 C   0  0  0  0  0  0  0  0  0  0  0  0
   26.7191  -22.3863  -14.0470 O   0  0  0  0  0  0  0  0  0  0  0  0
   27.6070  -20.3257   -7.9163 C   0  0  0  0  0  0  0  0  0  0  0  0
   25.7849  -20.4069   -7.7771 S   0  0  0  0  0  0  0  0  0  0  0  0
   25.1299  -20.9229   -9.3764 C   0  0  0  0  0  0  0  0  0  0  0  0
   25.9357  -20.3849  -10.5225 C   0  0  0  0  0  0  0  0  0  0  0  0
   25.5401  -20.9979  -11.8472 C   0  0  2  0  0  0  0  0  0  0  0  0
   26.3653  -20.4351  -12.8892 N   0  0  0  0  0  0  0  0  0  0  0  0
   24.1151  -20.6248  -12.1270 C   0  0  0  0  0  0  0  0  0  0  0  0
   23.8091  -19.4592  -12.4645 O   0  0  0  0  0  0  0  0  0  0  0  0
   23.0578  -21.5637  -12.0237 N   0  0  0  0  0  0  0  0  0  0  0  0
   21.7234  -21.2973  -12.5263 C   0  0  0  0  0  0  0  0  0  0  0  0
   20.8211  -20.8188  -11.4550 C   0  0  0  0  0  0  0  0  0  0  0  0
   20.5700  -21.5705  -10.5005 O   0  0  0  0  0  0  0  0  0  0  0  0
   20.2268  -19.5588  -11.4500 O   0  0  0  0  0  0  0  0  0  0  0  0
  1  2  1  0
  3  2  1  0
  4  5  1  0
  4  3  1  0
  5  6  1  1
  5  1  1  0
  6  7  2  0
  9  8  1  0
  9 10  1  0
 10 11  1  0
 12 11  1  1
 12 14  1  0
 13 12  1  0
 13  6  1  0
 14 15  2  0
 14 16  1  0
 16 17  1  0
 18 20  1  0
 18 17  1  0
 19 18  2  0
M  END
$$$$
