PMG.pdb
     RDKit          3D

 20 20  0  0  1  0  0  0  0  0999 V2000
   22.2537  -12.0922  -19.2240 N   0  0  0  0  0  0  0  0  0  0  0  0
   22.0341  -13.1480  -20.1920 C   0  0  0  0  0  0  0  0  0  0  0  0
   22.4393  -14.4561  -19.5461 C   0  0  0  0  0  0  0  0  0  0  0  0
   23.2517  -13.9505  -18.3532 C   0  0  0  0  0  0  0  0  0  0  0  0
   22.3765  -12.7675  -17.9687 C   0  0  1  0  0  0  0  0  0  0  0  0
   22.9571  -11.9602  -16.8988 C   0  0  0  0  0  0  0  0  0  0  0  0
   23.0670  -12.4491  -15.7456 O   0  0  0  0  0  0  0  0  0  0  0  0
   28.3176  -12.0968  -15.8408 C   0  0  0  0  0  0  0  0  0  0  0  0
   26.9006  -11.0043  -15.4604 S   0  0  0  0  0  0  0  0  0  0  0  0
   26.3709  -10.2282  -17.0000 C   0  0  0  0  0  0  0  0  0  0  0  0
   25.2893   -9.2109  -16.7826 C   0  0  0  0  0  0  0  0  0  0  0  0
   24.0474   -9.8094  -16.1606 C   0  0  2  0  0  0  0  0  0  0  0  0
   23.3939  -10.6502  -17.1349 N   0  0  0  0  0  0  0  0  0  0  0  0
   23.1150   -8.6889  -15.8099 C   0  0  0  0  0  0  0  0  0  0  0  0
   23.4405   -7.8189  -14.9711 O   0  0  0  0  0  0  0  0  0  0  0  0
   21.8342   -8.5624  -16.4045 N   0  0  0  0  0  0  0  0  0  0  0  0
   20.9209   -7.4853  -16.0731 C   0  0  0  0  0  0  0  0  0  0  0  0
   21.4283   -6.1753  -16.5392 C   0  0  0  0  0  0  0  0  0  0  0  0
   20.9507   -5.6785  -17.5709 O   0  0  0  0  0  0  0  0  0  0  0  0
   22.4229   -5.4534  -15.8832 O   0  0  0  0  0  0  0  0  0  0  0  0
  1  2  1  0
  3  2  1  0
  4  5  1  0
  4  3  1  0
  5  6  1  1
  5  1  1  0
  6  7  2  0
  9  8  1  0
  9 10  1  0
 10 11  1  0
 12 11  1  6
 12 14  1  0
 13 12  1  0
 13  6  1  0
 14 15  2  0
 14 16  1  0
 16 17  1  0
 18 20  1  0
 18 17  1  0
 19 18  2  0
M  END
$$$$
