PMG.pdb
     RDKit          3D

 20 20  0  0  1  0  0  0  0  0999 V2000
   21.6929  -12.7557  -18.9250 N   0  0  0  0  0  0  0  0  0  0  0  0
   21.3062  -13.6229  -20.0197 C   0  0  0  0  0  0  0  0  0  0  0  0
   20.3970  -14.6955  -19.4580 C   0  0  0  0  0  0  0  0  0  0  0  0
   20.6766  -14.5571  -17.9609 C   0  0  0  0  0  0  0  0  0  0  0  0
   20.7531  -13.0399  -17.8845 C   0  0  1  0  0  0  0  0  0  0  0  0
   21.1475  -12.5608  -16.5621 C   0  0  0  0  0  0  0  0  0  0  0  0
   20.4082  -12.7977  -15.5730 O   0  0  0  0  0  0  0  0  0  0  0  0
   26.1355  -15.5876  -15.5149 C   0  0  0  0  0  0  0  0  0  0  0  0
   25.8677  -13.8276  -15.9354 S   0  0  0  0  0  0  0  0  0  0  0  0
   24.6325  -13.1684  -14.7983 C   0  0  0  0  0  0  0  0  0  0  0  0
   24.3402  -11.7186  -15.0525 C   0  0  0  0  0  0  0  0  0  0  0  0
   22.8572  -11.4255  -15.0967 C   0  0  2  0  0  0  0  0  0  0  0  0
   22.3352  -11.8415  -16.3765 N   0  0  0  0  0  0  0  0  0  0  0  0
   22.6709   -9.9427  -14.9757 C   0  0  0  0  0  0  0  0  0  0  0  0
   23.0838   -9.3218  -13.9706 O   0  0  0  0  0  0  0  0  0  0  0  0
   22.0253   -9.1813  -15.9824 N   0  0  0  0  0  0  0  0  0  0  0  0
   21.8175   -7.7502  -15.8683 C   0  0  0  0  0  0  0  0  0  0  0  0
   20.4588   -7.4327  -15.3744 C   0  0  0  0  0  0  0  0  0  0  0  0
   19.6789   -8.3637  -15.1205 O   0  0  0  0  0  0  0  0  0  0  0  0
   19.9927   -6.1354  -15.1731 O   0  0  0  0  0  0  0  0  0  0  0  0
  1  2  1  0
  3  2  1  0
  4  5  1  0
  4  3  1  0
  5  6  1  1
  5  1  1  0
  6  7  2  0
  9  8  1  0
  9 10  1  0
 10 11  1  0
 12 11  1  6
 12 14  1  0
 13 12  1  0
 13  6  1  0
 14 15  2  0
 14 16  1  0
 16 17  1  0
 18 20  1  0
 18 17  1  0
 19 18  2  0
M  END
$$$$
