PMG.pdb
     RDKit          3D

 20 20  0  0  1  0  0  0  0  0999 V2000
   26.9151  -18.7370  -13.4635 N   0  0  0  0  0  0  0  0  0  0  0  0
   27.4856  -18.2503  -14.7035 C   0  0  0  0  0  0  0  0  0  0  0  0
   28.5270  -19.2522  -15.1554 C   0  0  0  0  0  0  0  0  0  0  0  0
   28.7326  -20.0555  -13.8705 C   0  0  0  0  0  0  0  0  0  0  0  0
   27.2847  -20.1180  -13.4088 C   0  0  1  0  0  0  0  0  0  0  0  0
   27.1383  -20.7345  -12.0927 C   0  0  0  0  0  0  0  0  0  0  0  0
   27.3613  -21.9645  -11.9580 O   0  0  0  0  0  0  0  0  0  0  0  0
   27.5320  -20.1602   -4.3806 C   0  0  0  0  0  0  0  0  0  0  0  0
   27.5109  -19.2391   -5.9609 S   0  0  0  0  0  0  0  0  0  0  0  0
   27.2823  -20.4320   -7.2941 C   0  0  0  0  0  0  0  0  0  0  0  0
   27.3275  -19.7881   -8.6489 C   0  0  0  0  0  0  0  0  0  0  0  0
   26.4824  -20.5203   -9.6671 C   0  0  2  0  0  0  0  0  0  0  0  0
   26.7534  -19.9791  -10.9775 N   0  0  0  0  0  0  0  0  0  0  0  0
   25.0401  -20.2662   -9.3457 C   0  0  0  0  0  0  0  0  0  0  0  0
   24.5236  -19.1441   -9.5472 O   0  0  0  0  0  0  0  0  0  0  0  0
   24.2016  -21.2730   -8.8043 N   0  0  0  0  0  0  0  0  0  0  0  0
   22.8126  -21.0334   -8.4618 C   0  0  0  0  0  0  0  0  0  0  0  0
   21.9639  -20.9179   -9.6690 C   0  0  0  0  0  0  0  0  0  0  0  0
   22.1830  -21.6692  -10.6317 O   0  0  0  0  0  0  0  0  0  0  0  0
   20.9186  -20.0055   -9.7949 O   0  0  0  0  0  0  0  0  0  0  0  0
  1  2  1  0
  3  2  1  0
  4  5  1  0
  4  3  1  0
  5  6  1  1
  5  1  1  0
  6  7  2  0
  9  8  1  0
  9 10  1  0
 10 11  1  0
 12 11  1  1
 12 14  1  0
 13 12  1  0
 13  6  1  0
 14 15  2  0
 14 16  1  0
 16 17  1  0
 18 20  1  0
 18 17  1  0
 19 18  2  0
M  END
$$$$
