NET.pdb
     RDKit          3D

 25 24  0  0  1  0  0  0  0  0999 V2000
    8.8885  -14.2036   17.4177 N   0  0  0  0  0  0  0  0  0  0  0  0
    8.3419  -13.1950   18.2583 C   0  0  0  0  0  0  0  0  0  0  0  0
    8.2368  -12.0122   17.8344 O   0  0  0  0  0  0  0  0  0  0  0  0
    7.8870  -13.4990   19.6348 C   0  0  0  0  0  0  0  0  0  0  0  0
    8.1233  -14.9479   19.9080 C   0  0  2  0  0  0  0  0  0  0  0  0
    7.2120  -15.7832   19.1670 N   0  0  0  0  0  0  0  0  0  0  0  0
    7.9970  -15.2846   21.3479 C   0  0  0  0  0  0  0  0  0  0  0  0
    6.8785  -15.2148   21.9581 O   0  0  0  0  0  0  0  0  0  0  0  0
    9.1011  -15.7060   22.1475 N   0  0  0  0  0  0  0  0  0  0  0  0
    8.9256  -16.1808   23.5064 C   0  0  1  0  0  0  0  0  0  0  0  0
    9.8066  -17.3672   23.7830 C   0  0  0  0  0  0  0  0  0  0  0  0
    9.6611  -17.9132   25.1620 C   0  0  0  0  0  0  0  0  0  0  0  0
   10.6759  -18.9798   25.3570 C   0  0  0  0  0  0  0  0  0  0  0  0
   10.9146  -19.4702   26.4905 O   0  0  0  0  0  0  0  0  0  0  0  0
    9.1809  -15.0644   24.4550 C   0  0  0  0  0  0  0  0  0  0  0  0
   10.2517  -14.4042   24.4364 O   0  0  0  0  0  0  0  0  0  0  0  0
   11.4049  -19.4801   24.2903 O   0  0  0  0  0  0  0  0  0  0  0  0
    6.8127  -12.0266   25.3030 C   0  0  0  0  0  0  0  0  0  0  0  0
    7.0779  -12.8996   26.4931 C   0  0  1  0  0  0  0  0  0  0  0  0
    6.0435  -13.8154   26.6888 O   0  0  0  0  0  0  0  0  0  0  0  0
    8.4078  -13.6361   26.3861 C   0  0  2  0  0  0  0  0  0  0  0  0
    8.2061  -14.7046   25.4267 N   0  0  0  0  0  0  0  0  0  0  0  0
    8.7883  -14.1851   27.6916 C   0  0  0  0  0  0  0  0  0  0  0  0
    9.0319  -13.4120   28.6527 O   0  0  0  0  0  0  0  0  0  0  0  0
    8.8939  -15.5377   27.9204 O   0  0  0  0  0  0  0  0  0  0  0  0
  1  2  1  0
  2  3  2  0
  4  2  1  0
  4  5  1  0
  5  6  1  6
  7  9  1  0
  7  5  1  0
  8  7  2  0
 10  9  1  0
 10 11  1  1
 11 12  1  0
 12 13  1  0
 13 17  1  0
 14 13  2  0
 15 10  1  0
 16 15  2  0
 19 18  1  6
 19 21  1  0
 20 19  1  0
 21 23  1  0
 21 22  1  6
 22 15  1  0
 23 25  1  0
 24 23  2  0
M  END
$$$$
