NET.pdb
     RDKit          3D

 25 24  0  0  1  0  0  0  0  0999 V2000
    6.9662  -12.6027   17.5048 N   0  0  0  0  0  0  0  0  0  0  0  0
    7.8520  -13.3990   18.2819 C   0  0  0  0  0  0  0  0  0  0  0  0
    8.9604  -13.7589   17.8003 O   0  0  0  0  0  0  0  0  0  0  0  0
    7.5047  -13.8227   19.6581 C   0  0  0  0  0  0  0  0  0  0  0  0
    8.5577  -14.7599   20.1505 C   0  0  2  0  0  0  0  0  0  0  0  0
    8.6361  -15.9458   19.3350 N   0  0  0  0  0  0  0  0  0  0  0  0
    8.3372  -15.1767   21.5578 C   0  0  0  0  0  0  0  0  0  0  0  0
    7.2686  -14.8770   22.1872 O   0  0  0  0  0  0  0  0  0  0  0  0
    9.2903  -15.9335   22.3027 N   0  0  0  0  0  0  0  0  0  0  0  0
    9.0521  -16.3225   23.6793 C   0  0  1  0  0  0  0  0  0  0  0  0
    9.9380  -17.4698   24.0782 C   0  0  0  0  0  0  0  0  0  0  0  0
    9.9919  -18.5646   23.0686 C   0  0  0  0  0  0  0  0  0  0  0  0
   11.3854  -19.0731   22.9974 C   0  0  0  0  0  0  0  0  0  0  0  0
   11.8704  -19.5348   21.9325 O   0  0  0  0  0  0  0  0  0  0  0  0
    9.2378  -15.1418   24.5639 C   0  0  0  0  0  0  0  0  0  0  0  0
   10.2604  -14.4120   24.4974 O   0  0  0  0  0  0  0  0  0  0  0  0
   12.2120  -19.0587   24.1093 O   0  0  0  0  0  0  0  0  0  0  0  0
    6.6656  -12.2371   25.2605 C   0  0  0  0  0  0  0  0  0  0  0  0
    7.0008  -13.0170   26.4968 C   0  0  1  0  0  0  0  0  0  0  0  0
    6.0363  -13.9911   26.7569 O   0  0  0  0  0  0  0  0  0  0  0  0
    8.3795  -13.6616   26.4185 C   0  0  2  0  0  0  0  0  0  0  0  0
    8.2486  -14.7975   25.5266 N   0  0  0  0  0  0  0  0  0  0  0  0
    8.8078  -14.1026   27.7498 C   0  0  0  0  0  0  0  0  0  0  0  0
    9.0374  -13.2553   28.6500 O   0  0  0  0  0  0  0  0  0  0  0  0
    8.9744  -15.4306   28.0687 O   0  0  0  0  0  0  0  0  0  0  0  0
  1  2  1  0
  2  3  2  0
  4  2  1  0
  4  5  1  0
  5  6  1  6
  7  9  1  0
  7  5  1  0
  8  7  2  0
 10  9  1  0
 10 11  1  1
 11 12  1  0
 12 13  1  0
 13 17  1  0
 14 13  2  0
 15 10  1  0
 16 15  2  0
 19 18  1  6
 19 21  1  0
 20 19  1  0
 21 23  1  0
 21 22  1  6
 22 15  1  0
 23 25  1  0
 24 23  2  0
M  END
$$$$
