NET.pdb
     RDKit          3D

 25 24  0  0  1  0  0  0  0  0999 V2000
    9.0609  -13.1944   17.4039 N   0  0  0  0  0  0  0  0  0  0  0  0
    7.6893  -13.4509   17.6784 C   0  0  0  0  0  0  0  0  0  0  0  0
    6.8292  -13.3135   16.7667 O   0  0  0  0  0  0  0  0  0  0  0  0
    7.2373  -13.8803   19.0221 C   0  0  0  0  0  0  0  0  0  0  0  0
    8.4032  -13.8423   19.9542 C   0  0  2  0  0  0  0  0  0  0  0  0
    9.5283  -14.5728   19.4268 N   0  0  0  0  0  0  0  0  0  0  0  0
    8.0796  -14.3907   21.2948 C   0  0  0  0  0  0  0  0  0  0  0  0
    7.0716  -13.9821   21.9619 O   0  0  0  0  0  0  0  0  0  0  0  0
    8.8604  -15.4020   21.9302 N   0  0  0  0  0  0  0  0  0  0  0  0
    8.5350  -15.9037   23.2513 C   0  0  1  0  0  0  0  0  0  0  0  0
    9.1870  -17.2355   23.4998 C   0  0  0  0  0  0  0  0  0  0  0  0
   10.6763  -17.1870   23.4782 C   0  0  0  0  0  0  0  0  0  0  0  0
   11.1972  -18.5472   23.7680 C   0  0  0  0  0  0  0  0  0  0  0  0
   10.4304  -19.5144   24.0101 O   0  0  0  0  0  0  0  0  0  0  0  0
    8.9244  -14.8942   24.2713 C   0  0  0  0  0  0  0  0  0  0  0  0
    9.9964  -14.2408   24.1887 O   0  0  0  0  0  0  0  0  0  0  0  0
   12.5583  -18.8059   23.7832 O   0  0  0  0  0  0  0  0  0  0  0  0
    6.7498  -11.9421   25.5537 C   0  0  0  0  0  0  0  0  0  0  0  0
    7.1044  -12.8807   26.6684 C   0  0  1  0  0  0  0  0  0  0  0  0
    6.0692  -13.7821   26.9188 O   0  0  0  0  0  0  0  0  0  0  0  0
    8.3974  -13.6401   26.3965 C   0  0  2  0  0  0  0  0  0  0  0  0
    8.0826  -14.6335   25.3880 N   0  0  0  0  0  0  0  0  0  0  0  0
    8.8707  -14.2884   27.6237 C   0  0  0  0  0  0  0  0  0  0  0  0
    8.9384  -15.5422   27.6874 O   0  0  0  0  0  0  0  0  0  0  0  0
    9.2532  -13.5732   28.7353 O   0  0  0  0  0  0  0  0  0  0  0  0
  1  2  1  0
  2  3  2  0
  4  2  1  0
  4  5  1  0
  5  6  1  6
  7  9  1  0
  7  5  1  0
  8  7  2  0
 10  9  1  0
 10 11  1  1
 11 12  1  0
 12 13  1  0
 13 17  1  0
 14 13  2  0
 15 10  1  0
 16 15  2  0
 19 18  1  6
 19 21  1  0
 20 19  1  0
 21 23  1  0
 21 22  1  6
 22 15  1  0
 23 25  1  0
 24 23  2  0
M  END
$$$$
