NET.pdb
     RDKit          3D

 25 24  0  0  1  0  0  0  0  0999 V2000
    7.5753  -12.3958   17.4535 N   0  0  0  0  0  0  0  0  0  0  0  0
    7.6849  -13.7977   17.6660 C   0  0  0  0  0  0  0  0  0  0  0  0
    8.0790  -14.5464   16.7311 O   0  0  0  0  0  0  0  0  0  0  0  0
    7.3449  -14.4105   18.9709 C   0  0  0  0  0  0  0  0  0  0  0  0
    8.4460  -14.1211   19.9371 C   0  0  2  0  0  0  0  0  0  0  0  0
    9.7254  -14.5452   19.4263 N   0  0  0  0  0  0  0  0  0  0  0  0
    8.2332  -14.7694   21.2551 C   0  0  0  0  0  0  0  0  0  0  0  0
    7.1487  -14.6187   21.9102 O   0  0  0  0  0  0  0  0  0  0  0  0
    9.2117  -15.5986   21.8805 N   0  0  0  0  0  0  0  0  0  0  0  0
    8.9998  -16.1760   23.1938 C   0  0  1  0  0  0  0  0  0  0  0  0
    9.8514  -17.3993   23.3907 C   0  0  0  0  0  0  0  0  0  0  0  0
    9.0747  -18.6707   23.4269 C   0  0  0  0  0  0  0  0  0  0  0  0
    9.9750  -19.7611   23.8807 C   0  0  0  0  0  0  0  0  0  0  0  0
   10.4913  -19.7620   25.0277 O   0  0  0  0  0  0  0  0  0  0  0  0
    9.2585  -15.1443   24.2330 C   0  0  0  0  0  0  0  0  0  0  0  0
   10.3362  -14.4968   24.2772 O   0  0  0  0  0  0  0  0  0  0  0  0
   10.2837  -20.8280   23.0523 O   0  0  0  0  0  0  0  0  0  0  0  0
    7.1580  -12.0391   25.4448 C   0  0  0  0  0  0  0  0  0  0  0  0
    7.2599  -13.1130   26.4866 C   0  0  1  0  0  0  0  0  0  0  0  0
    6.1366  -13.9406   26.4712 O   0  0  0  0  0  0  0  0  0  0  0  0
    8.5228  -13.9519   26.3316 C   0  0  2  0  0  0  0  0  0  0  0  0
    8.2791  -14.8549   25.2234 N   0  0  0  0  0  0  0  0  0  0  0  0
    8.7816  -14.7081   27.5610 C   0  0  0  0  0  0  0  0  0  0  0  0
    8.7105  -15.9634   27.5546 O   0  0  0  0  0  0  0  0  0  0  0  0
    9.1062  -14.0953   28.7493 O   0  0  0  0  0  0  0  0  0  0  0  0
  1  2  1  0
  2  3  2  0
  4  2  1  0
  4  5  1  0
  5  6  1  6
  7  9  1  0
  7  5  1  0
  8  7  2  0
 10  9  1  0
 10 11  1  1
 11 12  1  0
 12 13  1  0
 13 17  1  0
 14 13  2  0
 15 10  1  0
 16 15  2  0
 19 18  1  6
 19 21  1  0
 20 19  1  0
 21 23  1  0
 21 22  1  6
 22 15  1  0
 23 25  1  0
 24 23  2  0
M  END
$$$$
