NET.pdb
     RDKit          3D

 25 24  0  0  1  0  0  0  0  0999 V2000
   10.3015  -17.0933   12.1380 N   0  0  0  0  0  0  0  0  0  0  0  0
   11.1390  -17.6034   13.1680 C   0  0  0  0  0  0  0  0  0  0  0  0
   12.3488  -17.8619   12.9243 O   0  0  0  0  0  0  0  0  0  0  0  0
   10.6235  -17.8426   14.5359 C   0  0  0  0  0  0  0  0  0  0  0  0
   10.8085  -16.5989   15.3414 C   0  0  2  0  0  0  0  0  0  0  0  0
   12.1988  -16.2311   15.4380 N   0  0  0  0  0  0  0  0  0  0  0  0
   10.2637  -16.7237   16.7163 C   0  0  0  0  0  0  0  0  0  0  0  0
    9.0523  -16.4290   16.9877 O   0  0  0  0  0  0  0  0  0  0  0  0
   11.0425  -17.1763   17.8229 N   0  0  0  0  0  0  0  0  0  0  0  0
   10.4514  -17.4304   19.1225 C   0  0  1  0  0  0  0  0  0  0  0  0
   11.2798  -18.4053   19.9123 C   0  0  0  0  0  0  0  0  0  0  0  0
   11.4153  -19.7400   19.2633 C   0  0  0  0  0  0  0  0  0  0  0  0
   12.3230  -20.5765   20.0891 C   0  0  0  0  0  0  0  0  0  0  0  0
   11.9434  -21.1044   21.1659 O   0  0  0  0  0  0  0  0  0  0  0  0
   10.2715  -16.1416   19.8422 C   0  0  0  0  0  0  0  0  0  0  0  0
   11.2071  -15.3097   19.9659 O   0  0  0  0  0  0  0  0  0  0  0  0
   13.6330  -20.8099   19.7030 O   0  0  0  0  0  0  0  0  0  0  0  0
    7.9640  -13.1603   19.4128 C   0  0  0  0  0  0  0  0  0  0  0  0
    7.6232  -13.8924   20.6765 C   0  0  1  0  0  0  0  0  0  0  0  0
    6.5651  -14.7798   20.4770 O   0  0  0  0  0  0  0  0  0  0  0  0
    8.8207  -14.6365   21.2553 C   0  0  2  0  0  0  0  0  0  0  0  0
    9.0159  -15.8065   20.4210 N   0  0  0  0  0  0  0  0  0  0  0  0
    8.5475  -15.0347   22.6399 C   0  0  0  0  0  0  0  0  0  0  0  0
    8.4395  -16.2521   22.9351 O   0  0  0  0  0  0  0  0  0  0  0  0
    8.4001  -14.1182   23.6555 O   0  0  0  0  0  0  0  0  0  0  0  0
  1  2  1  0
  2  3  2  0
  4  2  1  0
  4  5  1  0
  5  6  1  1
  7  9  1  0
  7  5  1  0
  8  7  2  0
 10  9  1  0
 10 11  1  1
 11 12  1  0
 12 13  1  0
 13 17  1  0
 14 13  2  0
 15 10  1  0
 16 15  2  0
 19 18  1  6
 19 21  1  0
 20 19  1  0
 21 23  1  0
 21 22  1  6
 22 15  1  0
 23 25  1  0
 24 23  2  0
M  END
$$$$
