NET.pdb
     RDKit          3D

 25 24  0  0  1  0  0  0  0  0999 V2000
    7.7857  -12.5172   17.2752 N   0  0  0  0  0  0  0  0  0  0  0  0
    7.7726  -13.8902   17.6460 C   0  0  0  0  0  0  0  0  0  0  0  0
    8.1253  -14.7694   16.8139 O   0  0  0  0  0  0  0  0  0  0  0  0
    7.3511  -14.3214   18.9988 C   0  0  0  0  0  0  0  0  0  0  0  0
    8.4470  -14.0093   19.9639 C   0  0  2  0  0  0  0  0  0  0  0  0
    9.7254  -14.4687   19.4819 N   0  0  0  0  0  0  0  0  0  0  0  0
    8.2138  -14.6042   21.3034 C   0  0  0  0  0  0  0  0  0  0  0  0
    7.1240  -14.4177   21.9404 O   0  0  0  0  0  0  0  0  0  0  0  0
    9.1771  -15.4183   21.9708 N   0  0  0  0  0  0  0  0  0  0  0  0
    8.9301  -15.9734   23.2876 C   0  0  1  0  0  0  0  0  0  0  0  0
    9.8418  -17.1366   23.5639 C   0  0  0  0  0  0  0  0  0  0  0  0
    9.6934  -17.7018   24.9348 C   0  0  0  0  0  0  0  0  0  0  0  0
   10.6122  -18.8607   25.0697 C   0  0  0  0  0  0  0  0  0  0  0  0
   11.3295  -19.2543   24.1142 O   0  0  0  0  0  0  0  0  0  0  0  0
    9.0704  -14.9013   24.3083 C   0  0  0  0  0  0  0  0  0  0  0  0
   10.0849  -14.1593   24.3622 O   0  0  0  0  0  0  0  0  0  0  0  0
   10.7160  -19.5590   26.2619 O   0  0  0  0  0  0  0  0  0  0  0  0
    6.7530  -11.9414   25.2923 C   0  0  0  0  0  0  0  0  0  0  0  0
    6.8597  -12.9500   26.3970 C   0  0  1  0  0  0  0  0  0  0  0  0
    5.7854  -13.8401   26.3743 O   0  0  0  0  0  0  0  0  0  0  0  0
    8.1728  -13.7223   26.3507 C   0  0  2  0  0  0  0  0  0  0  0  0
    8.0449  -14.6798   25.2691 N   0  0  0  0  0  0  0  0  0  0  0  0
    8.3971  -14.4148   27.6237 C   0  0  0  0  0  0  0  0  0  0  0  0
    8.5527  -13.7530   28.6814 O   0  0  0  0  0  0  0  0  0  0  0  0
    8.4468  -15.7866   27.7184 O   0  0  0  0  0  0  0  0  0  0  0  0
  1  2  1  0
  2  3  2  0
  4  2  1  0
  4  5  1  0
  5  6  1  6
  7  9  1  0
  7  5  1  0
  8  7  2  0
 10  9  1  0
 10 11  1  1
 11 12  1  0
 12 13  1  0
 13 17  1  0
 14 13  2  0
 15 10  1  0
 16 15  2  0
 19 18  1  6
 19 21  1  0
 20 19  1  0
 21 23  1  0
 21 22  1  6
 22 15  1  0
 23 25  1  0
 24 23  2  0
M  END
$$$$
