NET.pdb
     RDKit          3D

 25 24  0  0  1  0  0  0  0  0999 V2000
    7.7541  -12.3155   17.5774 N   0  0  0  0  0  0  0  0  0  0  0  0
    7.6702  -13.7271   17.7287 C   0  0  0  0  0  0  0  0  0  0  0  0
    7.8976  -14.4797   16.7429 O   0  0  0  0  0  0  0  0  0  0  0  0
    7.3187  -14.3456   19.0279 C   0  0  0  0  0  0  0  0  0  0  0  0
    8.4672  -14.1731   19.9665 C   0  0  2  0  0  0  0  0  0  0  0  0
    9.6764  -14.7525   19.4377 N   0  0  0  0  0  0  0  0  0  0  0  0
    8.2089  -14.7717   21.2998 C   0  0  0  0  0  0  0  0  0  0  0  0
    7.1221  -14.5572   21.9329 O   0  0  0  0  0  0  0  0  0  0  0  0
    9.1434  -15.6203   21.9650 N   0  0  0  0  0  0  0  0  0  0  0  0
    8.9159  -16.1008   23.3143 C   0  0  1  0  0  0  0  0  0  0  0  0
    9.7684  -17.3031   23.6112 C   0  0  0  0  0  0  0  0  0  0  0  0
    9.4795  -18.4737   22.7354 C   0  0  0  0  0  0  0  0  0  0  0  0
   10.4392  -19.5581   23.0647 C   0  0  0  0  0  0  0  0  0  0  0  0
   11.6701  -19.4497   22.8291 O   0  0  0  0  0  0  0  0  0  0  0  0
    9.1578  -14.9948   24.2783 C   0  0  0  0  0  0  0  0  0  0  0  0
   10.2226  -14.3247   24.2722 O   0  0  0  0  0  0  0  0  0  0  0  0
   10.0134  -20.7402   23.6486 O   0  0  0  0  0  0  0  0  0  0  0  0
    6.7852  -11.9963   25.2209 C   0  0  0  0  0  0  0  0  0  0  0  0
    7.0603  -12.8906   26.3928 C   0  0  1  0  0  0  0  0  0  0  0  0
    6.0233  -13.8038   26.5863 O   0  0  0  0  0  0  0  0  0  0  0  0
    8.3845  -13.6325   26.2565 C   0  0  2  0  0  0  0  0  0  0  0  0
    8.1765  -14.6568   25.2512 N   0  0  0  0  0  0  0  0  0  0  0  0
    8.7576  -14.2407   27.5376 C   0  0  0  0  0  0  0  0  0  0  0  0
    8.7792  -15.4921   27.6578 O   0  0  0  0  0  0  0  0  0  0  0  0
    9.0930  -13.4897   28.6407 O   0  0  0  0  0  0  0  0  0  0  0  0
  1  2  1  0
  2  3  2  0
  4  2  1  0
  4  5  1  0
  5  6  1  6
  7  9  1  0
  7  5  1  0
  8  7  2  0
 10  9  1  0
 10 11  1  1
 11 12  1  0
 12 13  1  0
 13 17  1  0
 14 13  2  0
 15 10  1  0
 16 15  2  0
 19 18  1  6
 19 21  1  0
 20 19  1  0
 21 23  1  0
 21 22  1  6
 22 15  1  0
 23 25  1  0
 24 23  2  0
M  END
$$$$
