NET.pdb
     RDKit          3D

 25 24  0  0  1  0  0  0  0  0999 V2000
    8.2551  -12.8770   16.5967 N   0  0  0  0  0  0  0  0  0  0  0  0
    7.7139  -14.1874   16.4853 C   0  0  0  0  0  0  0  0  0  0  0  0
    7.1577  -14.5489   15.4130 O   0  0  0  0  0  0  0  0  0  0  0  0
    7.7863  -15.1514   17.6075 C   0  0  0  0  0  0  0  0  0  0  0  0
    8.3438  -14.4526   18.8036 C   0  0  2  0  0  0  0  0  0  0  0  0
    9.5793  -13.7771   18.4957 N   0  0  0  0  0  0  0  0  0  0  0  0
    8.5887  -15.3751   19.9403 C   0  0  0  0  0  0  0  0  0  0  0  0
    7.6537  -16.0813   20.4453 O   0  0  0  0  0  0  0  0  0  0  0  0
    9.8703  -15.5395   20.5457 N   0  0  0  0  0  0  0  0  0  0  0  0
   10.0796  -16.4398   21.6631 C   0  0  1  0  0  0  0  0  0  0  0  0
   11.3986  -17.1516   21.5444 C   0  0  0  0  0  0  0  0  0  0  0  0
   11.5051  -18.0187   20.3371 C   0  0  0  0  0  0  0  0  0  0  0  0
   12.8534  -18.6409   20.3201 C   0  0  0  0  0  0  0  0  0  0  0  0
   13.0141  -19.8725   20.1207 O   0  0  0  0  0  0  0  0  0  0  0  0
    9.9701  -15.6788   22.9359 C   0  0  0  0  0  0  0  0  0  0  0  0
   10.8428  -14.8460   23.2931 O   0  0  0  0  0  0  0  0  0  0  0  0
   13.9956  -17.8838   20.5249 O   0  0  0  0  0  0  0  0  0  0  0  0
    7.3857  -13.3088   24.1221 C   0  0  0  0  0  0  0  0  0  0  0  0
    7.3842  -14.4844   25.0532 C   0  0  1  0  0  0  0  0  0  0  0  0
    6.3708  -15.3863   24.7270 O   0  0  0  0  0  0  0  0  0  0  0  0
    8.7278  -15.2033   25.0801 C   0  0  2  0  0  0  0  0  0  0  0  0
    8.8574  -15.8735   23.8007 N   0  0  0  0  0  0  0  0  0  0  0  0
    8.7574  -16.1788   26.1745 C   0  0  0  0  0  0  0  0  0  0  0  0
    8.6767  -15.7894   27.3673 O   0  0  0  0  0  0  0  0  0  0  0  0
    8.8720  -17.5320   25.9534 O   0  0  0  0  0  0  0  0  0  0  0  0
  1  2  1  0
  2  3  2  0
  4  2  1  0
  4  5  1  0
  5  6  1  6
  7  9  1  0
  7  5  1  0
  8  7  2  0
 10  9  1  0
 10 11  1  6
 11 12  1  0
 12 13  1  0
 13 17  1  0
 14 13  2  0
 15 10  1  0
 16 15  2  0
 19 18  1  6
 19 21  1  0
 20 19  1  0
 21 23  1  0
 21 22  1  6
 22 15  1  0
 23 25  1  0
 24 23  2  0
M  END
$$$$
