RAT.pdb
     RDKit          3D

 24 23  0  0  1  0  0  0  0  0999 V2000
   19.0659  -25.0580   -6.1960 N   0  0  0  0  0  0  0  0  0  0  0  0
   17.8311  -25.5250   -6.6950 C   0  0  0  0  0  0  0  0  0  0  0  0
   17.3848  -26.6960   -6.3858 N   0  0  0  0  0  0  0  0  0  0  0  0
   17.0488  -24.6893   -7.5622 N   0  0  0  0  0  0  0  0  0  0  0  0
   17.4949  -24.5760   -8.9466 C   0  0  0  0  0  0  0  0  0  0  0  0
   18.4340  -23.4042   -9.1167 C   0  0  0  0  0  0  0  0  0  0  0  0
   17.8659  -22.3452  -10.0280 C   0  0  0  0  0  0  0  0  0  0  0  0
   18.2402  -22.5821  -11.4760 C   0  0  2  0  0  0  0  0  0  0  0  0
   19.1459  -23.7135  -11.5871 N   0  0  0  0  0  0  0  0  0  0  0  0
   18.9019  -21.3648  -11.9915 C   0  0  0  0  0  0  0  0  0  0  0  0
   18.2910  -20.2819  -11.9534 O   0  0  0  0  0  0  0  0  0  0  0  0
   16.4644  -27.0247   -6.7501 C   0  0  0  0  0  0  0  0  0  0  0  0
   22.3897  -20.3121  -12.9373 C   0  0  2  0  0  0  0  0  0  0  0  0
   20.8835  -20.2022  -13.0603 N   0  0  0  0  0  0  0  0  0  0  0  0
   20.2132  -21.3612  -12.5352 C   0  0  0  0  0  0  0  0  0  0  0  0
   20.5189  -19.9062  -14.4534 O   0  0  0  0  0  0  0  0  0  0  0  0
   20.3090  -20.8571  -15.2648 C   0  0  0  0  0  0  0  0  0  0  0  0
   17.7156  -17.3396  -15.9326 C   0  0  2  0  0  0  0  0  0  0  0  0
   19.1049  -17.0828  -16.4237 O   0  0  0  0  0  0  0  0  0  0  0  0
   19.7179  -16.0324  -15.7237 C   0  0  2  0  0  0  0  0  0  0  0  0
   19.9713  -18.3356  -16.3487 N   0  0  0  0  0  0  0  0  0  0  0  0
   20.3801  -18.5977  -14.9731 C   0  0  0  0  0  0  0  0  0  0  0  0
   21.2414  -18.1036  -17.1114 O   0  0  0  0  0  0  0  0  0  0  0  0
   21.2316  -17.8893  -18.4925 O   0  0  0  0  0  0  0  0  0  0  0  0
  1  2  1  0
  2  3  2  0
  4  5  1  0
  4  2  1  0
  6  7  1  0
  6  5  1  0
  7  8  1  0
  8  9  1  1
  8 10  1  0
 10 11  2  0
 13 12  1  1
 14 10  1  0
 14 13  1  0
 15 13  1  0
 15 16  2  0
 18 17  1  6
 18 20  1  0
 19 18  1  0
 20 21  1  6
 21 15  1  0
 22 20  1  0
 23 22  1  0
 24 22  2  0
M  END
$$$$
