RAT.pdb
     RDKit          3D

 24 23  0  0  1  0  0  0  0  0999 V2000
   15.3535  -13.6317  -13.7148 N   0  0  0  0  0  0  0  0  0  0  0  0
   15.0163  -14.0412  -15.0227 C   0  0  0  0  0  0  0  0  0  0  0  0
   13.8171  -14.4164  -15.3176 N   0  0  0  0  0  0  0  0  0  0  0  0
   16.0185  -14.0429  -16.0514 N   0  0  0  0  0  0  0  0  0  0  0  0
   17.1491  -13.1387  -15.8715 C   0  0  0  0  0  0  0  0  0  0  0  0
   16.9904  -11.9003  -16.7232 C   0  0  0  0  0  0  0  0  0  0  0  0
   18.0389  -10.8600  -16.4184 C   0  0  0  0  0  0  0  0  0  0  0  0
   19.3963  -11.2441  -16.9687 C   0  0  2  0  0  0  0  0  0  0  0  0
   19.8531  -12.4872  -16.3697 N   0  0  0  0  0  0  0  0  0  0  0  0
   20.3512  -10.1609  -16.6520 C   0  0  0  0  0  0  0  0  0  0  0  0
   20.8109  -10.0774  -15.4992 O   0  0  0  0  0  0  0  0  0  0  0  0
   13.5716  -14.6830  -16.2956 C   0  0  0  0  0  0  0  0  0  0  0  0
   22.3571   -7.6268  -18.6244 C   0  0  1  0  0  0  0  0  0  0  0  0
   21.7428   -8.1603  -17.3461 N   0  0  0  0  0  0  0  0  0  0  0  0
   20.7792   -9.1967  -17.6020 C   0  0  0  0  0  0  0  0  0  0  0  0
   21.1976   -7.0477  -16.5547 O   0  0  0  0  0  0  0  0  0  0  0  0
   20.0865   -6.5304  -16.8781 C   0  0  0  0  0  0  0  0  0  0  0  0
   19.8908   -6.9300  -13.1192 C   0  0  2  0  0  0  0  0  0  0  0  0
   21.0019   -5.9309  -13.1856 O   0  0  0  0  0  0  0  0  0  0  0  0
   22.1938   -6.4424  -12.6499 C   0  0  2  0  0  0  0  0  0  0  0  0
   21.2377   -5.4420  -14.6108 N   0  0  0  0  0  0  0  0  0  0  0  0
   21.8404   -6.4934  -15.4230 C   0  0  0  0  0  0  0  0  0  0  0  0
   22.2365   -4.3237  -14.5899 O   0  0  0  0  0  0  0  0  0  0  0  0
   21.9720   -3.1248  -13.9221 O   0  0  0  0  0  0  0  0  0  0  0  0
  1  2  1  0
  2  3  2  0
  4  5  1  0
  4  2  1  0
  6  7  1  0
  6  5  1  0
  7  8  1  0
  8  9  1  1
  8 10  1  0
 10 11  2  0
 13 12  1  1
 14 10  1  0
 14 13  1  0
 15 13  1  0
 15 16  2  0
 18 17  1  1
 18 20  1  0
 19 18  1  0
 20 21  1  1
 21 15  1  0
 22 20  1  0
 23 22  1  0
 24 22  2  0
M  END
$$$$
