RAT.pdb
     RDKit          3D

 24 23  0  0  1  0  0  0  0  0999 V2000
   12.6484  -16.8927  -14.9927 N   0  0  0  0  0  0  0  0  0  0  0  0
   13.6623  -17.3225  -14.1100 C   0  0  0  0  0  0  0  0  0  0  0  0
   13.4064  -18.1414  -13.1457 N   0  0  0  0  0  0  0  0  0  0  0  0
   15.0066  -16.8466  -14.2801 N   0  0  0  0  0  0  0  0  0  0  0  0
   15.2634  -15.9973  -15.4382 C   0  0  0  0  0  0  0  0  0  0  0  0
   16.7443  -15.7461  -15.6052 C   0  0  0  0  0  0  0  0  0  0  0  0
   17.0652  -14.2765  -15.7138 C   0  0  0  0  0  0  0  0  0  0  0  0
   17.1676  -13.8229  -17.1549 C   0  0  2  0  0  0  0  0  0  0  0  0
   17.9743  -14.7557  -17.9241 N   0  0  0  0  0  0  0  0  0  0  0  0
   17.7975  -12.4857  -17.1789 C   0  0  0  0  0  0  0  0  0  0  0  0
   19.0380  -12.4018  -17.2154 O   0  0  0  0  0  0  0  0  0  0  0  0
   14.1680  -18.4667  -12.5116 C   0  0  0  0  0  0  0  0  0  0  0  0
   16.5949   -8.8798  -17.3865 C   0  0  1  0  0  0  0  0  0  0  0  0
   17.6332   -9.9573  -17.1484 N   0  0  0  0  0  0  0  0  0  0  0  0
   17.0567  -11.2748  -17.1625 C   0  0  0  0  0  0  0  0  0  0  0  0
   18.3776   -9.6661  -15.9145 O   0  0  0  0  0  0  0  0  0  0  0  0
   17.9470  -10.0971  -14.8029 C   0  0  0  0  0  0  0  0  0  0  0  0
   22.4602   -8.9977  -15.9301 C   0  0  2  0  0  0  0  0  0  0  0  0
   21.6861   -9.4136  -14.7197 O   0  0  0  0  0  0  0  0  0  0  0  0
   22.4099   -9.1917  -13.5381 C   0  0  1  0  0  0  0  0  0  0  0  0
   20.3350   -8.7105  -14.6440 N   0  0  0  0  0  0  0  0  0  0  0  0
   19.5771   -8.9171  -15.8732 C   0  0  0  0  0  0  0  0  0  0  0  0
   20.5539   -7.2302  -14.5471 O   0  0  0  0  0  0  0  0  0  0  0  0
   21.2085   -6.6619  -13.4508 O   0  0  0  0  0  0  0  0  0  0  0  0
  1  2  1  0
  2  3  2  0
  4  5  1  0
  4  2  1  0
  6  7  1  0
  6  5  1  0
  7  8  1  0
  8  9  1  6
  8 10  1  0
 10 11  2  0
 13 12  1  6
 14 10  1  0
 14 13  1  0
 15 13  1  0
 15 16  2  0
 18 17  1  6
 18 20  1  0
 19 18  1  0
 20 21  1  6
 21 15  1  0
 22 20  1  0
 23 22  1  0
 24 22  2  0
M  END
$$$$
