RAT.pdb
     RDKit          3D

 24 23  0  0  1  0  0  0  0  0999 V2000
   21.6872  -23.7959  -14.5620 N   0  0  0  0  0  0  0  0  0  0  0  0
   20.8504  -23.9150  -13.4317 C   0  0  0  0  0  0  0  0  0  0  0  0
   20.2117  -25.0090  -13.1849 N   0  0  0  0  0  0  0  0  0  0  0  0
   20.7011  -22.8047  -12.5331 N   0  0  0  0  0  0  0  0  0  0  0  0
   21.4794  -21.6070  -12.8305 C   0  0  0  0  0  0  0  0  0  0  0  0
   22.9579  -21.8675  -12.6567 C   0  0  0  0  0  0  0  0  0  0  0  0
   23.7936  -20.6570  -12.9898 C   0  0  0  0  0  0  0  0  0  0  0  0
   25.2761  -20.9634  -12.9539 C   0  0  2  0  0  0  0  0  0  0  0  0
   25.7336  -21.0956  -11.5807 N   0  0  0  0  0  0  0  0  0  0  0  0
   25.9975  -19.8536  -13.6122 C   0  0  0  0  0  0  0  0  0  0  0  0
   26.3207  -18.8586  -12.9394 O   0  0  0  0  0  0  0  0  0  0  0  0
   19.6220  -25.0960  -12.3290 C   0  0  0  0  0  0  0  0  0  0  0  0
   28.0117  -19.3340  -16.7067 C   0  0  1  0  0  0  0  0  0  0  0  0
   27.0514  -18.8017  -15.6625 N   0  0  0  0  0  0  0  0  0  0  0  0
   26.3471  -19.8588  -14.9881 C   0  0  0  0  0  0  0  0  0  0  0  0
   26.1553  -17.8081  -16.2719 O   0  0  0  0  0  0  0  0  0  0  0  0
   25.0677  -18.1838  -16.8036 C   0  0  0  0  0  0  0  0  0  0  0  0
   24.8391  -14.2768  -14.7908 C   0  0  2  0  0  0  0  0  0  0  0  0
   25.5236  -14.1448  -16.1141 O   0  0  0  0  0  0  0  0  0  0  0  0
   26.8447  -13.6931  -15.9733 C   0  0  2  0  0  0  0  0  0  0  0  0
   25.5001  -15.4542  -16.8954 N   0  0  0  0  0  0  0  0  0  0  0  0
   26.4243  -16.4198  -16.3106 C   0  0  0  0  0  0  0  0  0  0  0  0
   25.9999  -15.2072  -18.2875 O   0  0  0  0  0  0  0  0  0  0  0  0
   25.2400  -14.4915  -19.2168 O   0  0  0  0  0  0  0  0  0  0  0  0
  1  2  1  0
  2  3  2  0
  4  5  1  0
  4  2  1  0
  6  7  1  0
  6  5  1  0
  7  8  1  0
  8  9  1  1
  8 10  1  0
 10 11  2  0
 13 12  1  1
 14 10  1  0
 14 13  1  0
 15 13  1  0
 15 16  2  0
 18 17  1  6
 18 20  1  0
 19 18  1  0
 20 21  1  6
 21 15  1  0
 22 20  1  0
 23 22  1  0
 24 22  2  0
M  END
$$$$
