RAT.pdb
     RDKit          3D

 24 23  0  0  1  0  0  0  0  0999 V2000
   21.4940  -21.0713   -8.9131 N   0  0  0  0  0  0  0  0  0  0  0  0
   21.3669  -20.0933   -9.9227 C   0  0  0  0  0  0  0  0  0  0  0  0
   20.5635  -19.0924   -9.7868 N   0  0  0  0  0  0  0  0  0  0  0  0
   22.1423  -20.2044  -11.1265 N   0  0  0  0  0  0  0  0  0  0  0  0
   23.4438  -20.8540  -11.0146 C   0  0  0  0  0  0  0  0  0  0  0  0
   24.2970  -20.1755   -9.9677 C   0  0  0  0  0  0  0  0  0  0  0  0
   25.7537  -20.1363  -10.3566 C   0  0  0  0  0  0  0  0  0  0  0  0
   26.0251  -20.9248  -11.6206 C   0  0  2  0  0  0  0  0  0  0  0  0
   27.2812  -21.6473  -11.5078 N   0  0  0  0  0  0  0  0  0  0  0  0
   26.0975  -19.9782  -12.7538 C   0  0  0  0  0  0  0  0  0  0  0  0
   25.1995  -19.1285  -12.8907 O   0  0  0  0  0  0  0  0  0  0  0  0
   20.4126  -18.4244  -10.5734 C   0  0  0  0  0  0  0  0  0  0  0  0
   28.6839  -18.9447  -15.3087 C   0  0  2  0  0  0  0  0  0  0  0  0
   27.2560  -19.0776  -14.8196 N   0  0  0  0  0  0  0  0  0  0  0  0
   27.1484  -19.9840  -13.7082 C   0  0  0  0  0  0  0  0  0  0  0  0
   26.3771  -19.4345  -15.9428 O   0  0  0  0  0  0  0  0  0  0  0  0
   26.3725  -20.6221  -16.3857 C   0  0  0  0  0  0  0  0  0  0  0  0
   22.4645  -19.1541  -16.3147 C   0  0  2  0  0  0  0  0  0  0  0  0
   23.1847  -18.3671  -17.3632 O   0  0  0  0  0  0  0  0  0  0  0  0
   23.2719  -17.0081  -17.0248 C   0  0  2  0  0  0  0  0  0  0  0  0
   24.5767  -18.9280  -17.6341 N   0  0  0  0  0  0  0  0  0  0  0  0
   25.5082  -18.5228  -16.5870 C   0  0  0  0  0  0  0  0  0  0  0  0
   25.1100  -18.3330  -18.9030 O   0  0  0  0  0  0  0  0  0  0  0  0
   26.1585  -17.4090  -18.8885 O   0  0  0  0  0  0  0  0  0  0  0  0
  1  2  1  0
  2  3  2  0
  4  5  1  0
  4  2  1  0
  6  7  1  0
  6  5  1  0
  7  8  1  0
  8  9  1  1
  8 10  1  0
 10 11  2  0
 13 12  1  1
 14 10  1  0
 14 13  1  0
 15 13  1  0
 15 16  2  0
 18 17  1  6
 18 20  1  0
 19 18  1  0
 20 21  1  6
 21 15  1  0
 22 20  1  0
 23 22  1  0
 24 22  2  0
M  END
$$$$
