RAT.pdb
     RDKit          3D

 24 23  0  0  1  0  0  0  0  0999 V2000
   20.7481  -19.4181  -17.8393 N   0  0  0  0  0  0  0  0  0  0  0  0
   19.6464  -19.3695  -18.7202 C   0  0  0  0  0  0  0  0  0  0  0  0
   19.0809  -20.4495  -19.1438 N   0  0  0  0  0  0  0  0  0  0  0  0
   19.1373  -18.1000  -19.1580 N   0  0  0  0  0  0  0  0  0  0  0  0
   19.8416  -16.9109  -18.6908 C   0  0  0  0  0  0  0  0  0  0  0  0
   18.9220  -16.0196  -17.8882 C   0  0  0  0  0  0  0  0  0  0  0  0
   19.6483  -14.8405  -17.2908 C   0  0  0  0  0  0  0  0  0  0  0  0
   18.7349  -13.9827  -16.4405 C   0  0  2  0  0  0  0  0  0  0  0  0
   17.3430  -14.2524  -16.7604 N   0  0  0  0  0  0  0  0  0  0  0  0
   19.0406  -12.5626  -16.7148 C   0  0  0  0  0  0  0  0  0  0  0  0
   20.2275  -12.2126  -16.8411 O   0  0  0  0  0  0  0  0  0  0  0  0
   18.2414  -20.4002  -19.7608 C   0  0  0  0  0  0  0  0  0  0  0  0
   17.0625   -9.4029  -17.4605 C   0  0  2  0  0  0  0  0  0  0  0  0
   18.3023  -10.1589  -17.0280 N   0  0  0  0  0  0  0  0  0  0  0  0
   18.0425  -11.5614  -16.8440 C   0  0  0  0  0  0  0  0  0  0  0  0
   18.8852   -9.5190  -15.8396 O   0  0  0  0  0  0  0  0  0  0  0  0
   18.4314   -9.7963  -14.6890 C   0  0  0  0  0  0  0  0  0  0  0  0
   22.4711   -9.7116  -14.5190 C   0  0  2  0  0  0  0  0  0  0  0  0
   22.1024   -8.2802  -14.7481 O   0  0  0  0  0  0  0  0  0  0  0  0
   22.6028   -7.8035  -15.9693 C   0  0  2  0  0  0  0  0  0  0  0  0
   20.5936   -8.0682  -14.6839 N   0  0  0  0  0  0  0  0  0  0  0  0
   19.9488   -8.5873  -15.8852 C   0  0  0  0  0  0  0  0  0  0  0  0
   20.3020   -6.5973  -14.6712 O   0  0  0  0  0  0  0  0  0  0  0  0
   20.6512   -5.7961  -13.5807 O   0  0  0  0  0  0  0  0  0  0  0  0
  1  2  1  0
  2  3  2  0
  4  5  1  0
  4  2  1  0
  6  7  1  0
  6  5  1  0
  7  8  1  0
  8  9  1  6
  8 10  1  0
 10 11  2  0
 13 12  1  6
 14 10  1  0
 14 13  1  0
 15 13  1  0
 15 16  2  0
 18 17  1  1
 18 20  1  0
 19 18  1  0
 20 21  1  1
 21 15  1  0
 22 20  1  0
 23 22  1  0
 24 22  2  0
M  END
$$$$
