RAT.pdb
     RDKit          3D

 24 23  0  0  1  0  0  0  0  0999 V2000
   14.8645  -12.3000  -15.1314 N   0  0  0  0  0  0  0  0  0  0  0  0
   15.2731  -13.5417  -15.6636 C   0  0  0  0  0  0  0  0  0  0  0  0
   14.6625  -14.6356  -15.3533 N   0  0  0  0  0  0  0  0  0  0  0  0
   16.3867  -13.5994  -16.5687 N   0  0  0  0  0  0  0  0  0  0  0  0
   17.1687  -12.3784  -16.7299 C   0  0  0  0  0  0  0  0  0  0  0  0
   18.3281  -12.6010  -17.6736 C   0  0  0  0  0  0  0  0  0  0  0  0
   19.2004  -11.3776  -17.8043 C   0  0  0  0  0  0  0  0  0  0  0  0
   20.6735  -11.7205  -17.7304 C   0  0  2  0  0  0  0  0  0  0  0  0
   20.8640  -12.9983  -17.0645 N   0  0  0  0  0  0  0  0  0  0  0  0
   21.3618  -10.6568  -16.9686 C   0  0  0  0  0  0  0  0  0  0  0  0
   21.3639  -10.7073  -15.7258 O   0  0  0  0  0  0  0  0  0  0  0  0
   15.0081  -15.5535  -15.7081 C   0  0  0  0  0  0  0  0  0  0  0  0
   23.7594   -7.8393  -17.7536 C   0  0  1  0  0  0  0  0  0  0  0  0
   22.7310   -8.5266  -16.8784 N   0  0  0  0  0  0  0  0  0  0  0  0
   22.0300   -9.5656  -17.5836 C   0  0  0  0  0  0  0  0  0  0  0  0
   21.8334   -7.5242  -16.2857 O   0  0  0  0  0  0  0  0  0  0  0  0
   20.9258   -6.9947  -16.9945 C   0  0  0  0  0  0  0  0  0  0  0  0
   19.1611   -7.8075  -13.9536 C   0  0  2  0  0  0  0  0  0  0  0  0
   20.0798   -6.8058  -13.3292 O   0  0  0  0  0  0  0  0  0  0  0  0
   20.8670   -7.3808  -12.3198 C   0  0  2  0  0  0  0  0  0  0  0  0
   20.9717   -6.1331  -14.3672 N   0  0  0  0  0  0  0  0  0  0  0  0
   21.9091   -7.0926  -14.9406 C   0  0  0  0  0  0  0  0  0  0  0  0
   21.8172   -5.0946  -13.6925 O   0  0  0  0  0  0  0  0  0  0  0  0
   21.2492   -3.9506  -13.1250 O   0  0  0  0  0  0  0  0  0  0  0  0
  1  2  1  0
  2  3  2  0
  4  5  1  0
  4  2  1  0
  6  7  1  0
  6  5  1  0
  7  8  1  0
  8  9  1  1
  8 10  1  0
 10 11  2  0
 13 12  1  1
 14 10  1  0
 14 13  1  0
 15 13  1  0
 15 16  2  0
 18 17  1  1
 18 20  1  0
 19 18  1  0
 20 21  1  1
 21 15  1  0
 22 20  1  0
 23 22  1  0
 24 22  2  0
M  END
$$$$
