RAT.pdb
     RDKit          3D

 24 23  0  0  1  0  0  0  0  0999 V2000
   29.5821  -26.2180  -16.9640 N   0  0  0  0  0  0  0  0  0  0  0  0
   28.4394  -27.0403  -16.8645 C   0  0  0  0  0  0  0  0  0  0  0  0
   28.5406  -28.2932  -16.5717 N   0  0  0  0  0  0  0  0  0  0  0  0
   27.1356  -26.4820  -17.0903 N   0  0  0  0  0  0  0  0  0  0  0  0
   26.9775  -25.0539  -16.8374 C   0  0  0  0  0  0  0  0  0  0  0  0
   26.4583  -24.8078  -15.4395 C   0  0  0  0  0  0  0  0  0  0  0  0
   25.5175  -23.6305  -15.3793 C   0  0  0  0  0  0  0  0  0  0  0  0
   25.9443  -22.5147  -16.3097 C   0  0  2  0  0  0  0  0  0  0  0  0
   27.3823  -22.3162  -16.2374 N   0  0  0  0  0  0  0  0  0  0  0  0
   25.2513  -21.2750  -15.8994 C   0  0  0  0  0  0  0  0  0  0  0  0
   24.0158  -21.2913  -15.7569 O   0  0  0  0  0  0  0  0  0  0  0  0
   27.6863  -28.8801  -16.4552 C   0  0  0  0  0  0  0  0  0  0  0  0
   26.2770  -17.6844  -15.1248 C   0  0  2  0  0  0  0  0  0  0  0  0
   25.2853  -18.8207  -15.2700 N   0  0  0  0  0  0  0  0  0  0  0  0
   25.9253  -20.0496  -15.6553 C   0  0  0  0  0  0  0  0  0  0  0  0
   24.2034  -18.4225  -16.1825 O   0  0  0  0  0  0  0  0  0  0  0  0
   24.4261  -18.3478  -17.4281 C   0  0  0  0  0  0  0  0  0  0  0  0
   20.8920  -19.9920  -17.0728 C   0  0  2  0  0  0  0  0  0  0  0  0
   20.6221  -18.6176  -16.5480 O   0  0  0  0  0  0  0  0  0  0  0  0
   20.1982  -18.6457  -15.2107 C   0  0  2  0  0  0  0  0  0  0  0  0
   21.8388  -17.7093  -16.6910 N   0  0  0  0  0  0  0  0  0  0  0  0
   22.8904  -18.1066  -15.7611 C   0  0  0  0  0  0  0  0  0  0  0  0
   21.4599  -16.3119  -16.3007 O   0  0  0  0  0  0  0  0  0  0  0  0
   20.5891  -15.5489  -17.0836 O   0  0  0  0  0  0  0  0  0  0  0  0
  1  2  1  0
  2  3  2  0
  4  5  1  0
  4  2  1  0
  6  7  1  0
  6  5  1  0
  7  8  1  0
  8  9  1  1
  8 10  1  0
 10 11  2  0
 13 12  1  1
 14 10  1  0
 14 13  1  0
 15 13  1  0
 15 16  2  0
 18 17  1  6
 18 20  1  0
 19 18  1  0
 20 21  1  6
 21 15  1  0
 22 20  1  0
 23 22  1  0
 24 22  2  0
M  END
$$$$
