RAT.pdb
     RDKit          3D

 24 23  0  0  1  0  0  0  0  0999 V2000
   18.5108  -12.9675  -13.8698 N   0  0  0  0  0  0  0  0  0  0  0  0
   17.5533  -13.0943  -14.8989 C   0  0  0  0  0  0  0  0  0  0  0  0
   17.4069  -14.2031  -15.5432 N   0  0  0  0  0  0  0  0  0  0  0  0
   16.7212  -11.9753  -15.2423 N   0  0  0  0  0  0  0  0  0  0  0  0
   16.8269  -10.7914  -14.3965 C   0  0  0  0  0  0  0  0  0  0  0  0
   16.1056  -10.9994  -13.0847 C   0  0  0  0  0  0  0  0  0  0  0  0
   16.0318   -9.7342  -12.2672 C   0  0  0  0  0  0  0  0  0  0  0  0
   15.1968   -9.9142  -11.0168 C   0  0  2  0  0  0  0  0  0  0  0  0
   14.0072  -10.6962  -11.3097 N   0  0  0  0  0  0  0  0  0  0  0  0
   14.8026   -8.5777  -10.5232 C   0  0  0  0  0  0  0  0  0  0  0  0
   13.9289   -7.9395  -11.1369 O   0  0  0  0  0  0  0  0  0  0  0  0
   16.6942  -14.2851  -16.3002 C   0  0  0  0  0  0  0  0  0  0  0  0
   15.0625   -6.6182   -7.3552 C   0  0  2  0  0  0  0  0  0  0  0  0
   15.0245   -6.6711   -8.8690 N   0  0  0  0  0  0  0  0  0  0  0  0
   15.3726   -7.9725   -9.3725 C   0  0  0  0  0  0  0  0  0  0  0  0
   15.8580   -5.5951   -9.4249 O   0  0  0  0  0  0  0  0  0  0  0  0
   17.1206   -5.6709   -9.3430 C   0  0  0  0  0  0  0  0  0  0  0  0
   16.4833   -4.2258  -12.9660 C   0  0  2  0  0  0  0  0  0  0  0  0
   15.8729   -3.1733  -12.0960 O   0  0  0  0  0  0  0  0  0  0  0  0
   14.4839   -3.0900  -12.2774 C   0  0  2  0  0  0  0  0  0  0  0  0
   16.1941   -3.4018  -10.6228 N   0  0  0  0  0  0  0  0  0  0  0  0
   15.3401   -4.4447  -10.0650 C   0  0  0  0  0  0  0  0  0  0  0  0
   15.8725   -2.1582   -9.8490 O   0  0  0  0  0  0  0  0  0  0  0  0
   16.5896   -0.9745  -10.0440 O   0  0  0  0  0  0  0  0  0  0  0  0
  1  2  1  0
  2  3  2  0
  4  5  1  0
  4  2  1  0
  6  7  1  0
  6  5  1  0
  7  8  1  0
  8  9  1  6
  8 10  1  0
 10 11  2  0
 13 12  1  1
 14 10  1  0
 14 13  1  0
 15 13  1  0
 15 16  2  0
 18 17  1  6
 18 20  1  0
 19 18  1  0
 20 21  1  1
 21 15  1  0
 22 20  1  0
 23 22  1  0
 24 22  2  0
M  END
$$$$
