RAT.pdb
     RDKit          3D

 24 23  0  0  1  0  0  0  0  0999 V2000
   19.6299  -23.3747  -14.8594 N   0  0  0  0  0  0  0  0  0  0  0  0
   19.2081  -22.9350  -13.5863 C   0  0  0  0  0  0  0  0  0  0  0  0
   18.3831  -23.6305  -12.8781 N   0  0  0  0  0  0  0  0  0  0  0  0
   19.7009  -21.6929  -13.0600 N   0  0  0  0  0  0  0  0  0  0  0  0
   20.5566  -20.8995  -13.9356 C   0  0  0  0  0  0  0  0  0  0  0  0
   21.9747  -21.4219  -13.9221 C   0  0  0  0  0  0  0  0  0  0  0  0
   22.9870  -20.3311  -14.1670 C   0  0  0  0  0  0  0  0  0  0  0  0
   24.3421  -20.6731  -13.5840 C   0  0  2  0  0  0  0  0  0  0  0  0
   24.3094  -20.5764  -12.1341 N   0  0  0  0  0  0  0  0  0  0  0  0
   25.3351  -19.7194  -14.1223 C   0  0  0  0  0  0  0  0  0  0  0  0
   25.4551  -18.6036  -13.5859 O   0  0  0  0  0  0  0  0  0  0  0  0
   18.1158  -23.3191  -11.9193 C   0  0  0  0  0  0  0  0  0  0  0  0
   28.0742  -19.7763  -16.7572 C   0  0  1  0  0  0  0  0  0  0  0  0
   27.0978  -19.0839  -15.8281 N   0  0  0  0  0  0  0  0  0  0  0  0
   26.1714  -20.0086  -15.2325 C   0  0  0  0  0  0  0  0  0  0  0  0
   26.4355  -17.9792  -16.5370 O   0  0  0  0  0  0  0  0  0  0  0  0
   25.4000  -18.2079  -17.2314 C   0  0  0  0  0  0  0  0  0  0  0  0
   25.0685  -14.5113  -15.2429 C   0  0  2  0  0  0  0  0  0  0  0  0
   26.0804  -14.3231  -16.3281 O   0  0  0  0  0  0  0  0  0  0  0  0
   27.3390  -13.9797  -15.8115 C   0  0  2  0  0  0  0  0  0  0  0  0
   26.1987  -15.5609  -17.2111 N   0  0  0  0  0  0  0  0  0  0  0  0
   26.8812  -16.6370  -16.5009 C   0  0  0  0  0  0  0  0  0  0  0  0
   27.0647  -15.2428  -18.3932 O   0  0  0  0  0  0  0  0  0  0  0  0
   26.6389  -14.3609  -19.3904 O   0  0  0  0  0  0  0  0  0  0  0  0
  1  2  1  0
  2  3  2  0
  4  5  1  0
  4  2  1  0
  6  7  1  0
  6  5  1  0
  7  8  1  0
  8  9  1  1
  8 10  1  0
 10 11  2  0
 13 12  1  1
 14 10  1  0
 14 13  1  0
 15 13  1  0
 15 16  2  0
 18 17  1  6
 18 20  1  0
 19 18  1  0
 20 21  1  6
 21 15  1  0
 22 20  1  0
 23 22  1  0
 24 22  2  0
M  END
$$$$
