WFP.pdb
     RDKit          3D

 33 36  0  0  1  0  0  0  0  0999 V2000
   24.8212  -18.2232  -19.3468 N   0  0  0  0  0  0  0  0  0  0  0  0
   24.1956  -18.0502  -18.0742 C   0  0  1  0  0  0  0  0  0  0  0  0
   22.7663  -18.5008  -18.0965 C   0  0  0  0  0  0  0  0  0  0  0  0
   21.8058  -17.5295  -18.6065 C   0  0  0  0  0  0  0  0  0  0  0  0
   21.6182  -17.1405  -19.9055 C   0  0  0  0  0  0  0  0  0  0  0  0
   20.6196  -16.2530  -19.9999 N   0  0  0  0  0  0  0  0  0  0  0  0
   20.1479  -16.0554  -18.7565 C   0  0  0  0  0  0  0  0  0  0  0  0
   19.1194  -15.2217  -18.3752 C   0  0  0  0  0  0  0  0  0  0  0  0
   18.7930  -15.1650  -17.0395 C   0  0  0  0  0  0  0  0  0  0  0  0
   19.4966  -15.9366  -16.1118 C   0  0  0  0  0  0  0  0  0  0  0  0
   20.5195  -16.7593  -16.5296 C   0  0  0  0  0  0  0  0  0  0  0  0
   20.8674  -16.8386  -17.8576 C   0  0  0  0  0  0  0  0  0  0  0  0
   24.9673  -18.8080  -17.0331 C   0  0  0  0  0  0  0  0  0  0  0  0
   25.5127  -19.8869  -17.3086 O   0  0  0  0  0  0  0  0  0  0  0  0
   25.1119  -18.3587  -15.7211 N   0  0  0  0  0  0  0  0  0  0  0  0
   25.5928  -19.0815  -14.5768 C   0  0  1  0  0  0  0  0  0  0  0  0
   26.1154  -18.3017  -13.4563 C   0  0  0  0  0  0  0  0  0  0  0  0
   26.6561  -19.2368  -12.3932 C   0  0  0  0  0  0  0  0  0  0  0  0
   27.9169  -19.7573  -12.5564 C   0  0  0  0  0  0  0  0  0  0  0  0
   28.4476  -20.6248  -11.5944 C   0  0  0  0  0  0  0  0  0  0  0  0
   27.7138  -20.9694  -10.4712 C   0  0  0  0  0  0  0  0  0  0  0  0
   26.4489  -20.4399  -10.3206 C   0  0  0  0  0  0  0  0  0  0  0  0
   25.9495  -19.5827  -11.2890 C   0  0  0  0  0  0  0  0  0  0  0  0
   24.4890  -19.9898  -14.2029 C   0  0  0  0  0  0  0  0  0  0  0  0
   23.3458  -19.4339  -13.9752 O   0  0  0  0  0  0  0  0  0  0  0  0
   24.5818  -21.4189  -14.0739 N   0  0  0  0  0  0  0  0  0  0  0  0
   25.7035  -22.2876  -14.2526 C   0  0  0  0  0  0  0  0  0  0  0  0
   25.1146  -23.7127  -14.2698 C   0  0  0  0  0  0  0  0  0  0  0  0
   23.9374  -23.5518  -13.3394 C   0  0  0  0  0  0  0  0  0  0  0  0
   23.4143  -22.1988  -13.7460 C   0  0  1  0  0  0  0  0  0  0  0  0
   22.6437  -21.6313  -12.5936 C   0  0  0  0  0  0  0  0  0  0  0  0
   21.4037  -22.0795  -12.2561 O   0  0  0  0  0  0  0  0  0  0  0  0
   23.1850  -20.7114  -11.9368 O   0  0  0  0  0  0  0  0  0  0  0  0
  2  1  1  6
  2 13  1  0
  2  3  1  0
  4  3  1  0
  4  5  2  0
  6  5  1  0
  7  6  1  0
  8  7  2  0
  9  8  1  0
 10  9  2  0
 10 11  1  0
 11 12  2  0
 12  7  1  0
 12  4  1  0
 13 14  2  0
 15 16  1  0
 15 13  1  0
 16 17  1  1
 18 17  1  0
 19 18  2  0
 20 19  1  0
 21 20  2  0
 21 22  1  0
 22 23  2  0
 23 18  1  0
 24 25  2  0
 24 16  1  0
 26 24  1  0
 27 26  1  0
 28 27  1  0
 28 29  1  0
 29 30  1  0
 30 26  1  0
 30 31  1  1
 32 31  1  0
 33 31  2  0
M  END
$$$$
