WFP.pdb
     RDKit          3D

 33 36  0  0  1  0  0  0  0  0999 V2000
   24.1459  -19.0982  -17.2048 N   0  0  0  0  0  0  0  0  0  0  0  0
   23.7213  -19.0425  -15.8419 C   0  0  1  0  0  0  0  0  0  0  0  0
   22.5625  -19.9584  -15.5875 C   0  0  0  0  0  0  0  0  0  0  0  0
   21.3639  -19.6942  -16.3749 C   0  0  0  0  0  0  0  0  0  0  0  0
   20.7029  -20.5562  -17.2079 C   0  0  0  0  0  0  0  0  0  0  0  0
   19.6189  -19.9739  -17.7367 N   0  0  0  0  0  0  0  0  0  0  0  0
   19.5664  -18.7215  -17.2506 C   0  0  0  0  0  0  0  0  0  0  0  0
   18.6204  -17.7577  -17.5235 C   0  0  0  0  0  0  0  0  0  0  0  0
   18.7536  -16.5296  -16.9171 C   0  0  0  0  0  0  0  0  0  0  0  0
   19.8244  -16.2854  -16.0540 C   0  0  0  0  0  0  0  0  0  0  0  0
   20.7515  -17.2734  -15.8045 C   0  0  0  0  0  0  0  0  0  0  0  0
   20.6441  -18.5109  -16.3942 C   0  0  0  0  0  0  0  0  0  0  0  0
   24.8736  -19.3950  -14.9466 C   0  0  0  0  0  0  0  0  0  0  0  0
   25.6336  -20.3325  -15.2310 O   0  0  0  0  0  0  0  0  0  0  0  0
   25.1521  -18.7090  -13.7651 N   0  0  0  0  0  0  0  0  0  0  0  0
   26.0036  -19.1084  -12.6794 C   0  0  1  0  0  0  0  0  0  0  0  0
   26.4197  -18.0754  -11.7325 C   0  0  0  0  0  0  0  0  0  0  0  0
   27.3748  -18.6702  -10.7171 C   0  0  0  0  0  0  0  0  0  0  0  0
   27.0252  -18.6372   -9.3890 C   0  0  0  0  0  0  0  0  0  0  0  0
   27.8838  -19.1767   -8.4240 C   0  0  0  0  0  0  0  0  0  0  0  0
   29.0910  -19.7479   -8.7916 C   0  0  0  0  0  0  0  0  0  0  0  0
   29.4296  -19.7735  -10.1287 C   0  0  0  0  0  0  0  0  0  0  0  0
   28.5593  -19.2324  -11.0623 C   0  0  0  0  0  0  0  0  0  0  0  0
   25.3103  -20.2488  -12.0454 C   0  0  0  0  0  0  0  0  0  0  0  0
   24.1002  -20.0319  -11.6501 O   0  0  0  0  0  0  0  0  0  0  0  0
   25.8637  -21.5593  -11.8358 N   0  0  0  0  0  0  0  0  0  0  0  0
   27.0699  -22.1396  -12.3391 C   0  0  0  0  0  0  0  0  0  0  0  0
   26.9633  -23.6432  -12.0139 C   0  0  0  0  0  0  0  0  0  0  0  0
   26.1664  -23.6077  -10.7330 C   0  0  0  0  0  0  0  0  0  0  0  0
   25.1591  -22.5287  -11.0342 C   0  0  1  0  0  0  0  0  0  0  0  0
   24.6777  -21.9640   -9.7330 C   0  0  0  0  0  0  0  0  0  0  0  0
   23.6217  -22.4929   -9.0564 O   0  0  0  0  0  0  0  0  0  0  0  0
   25.2874  -20.9685   -9.2771 O   0  0  0  0  0  0  0  0  0  0  0  0
  2  1  1  6
  2 13  1  0
  2  3  1  0
  4  3  1  0
  4  5  2  0
  6  5  1  0
  7  6  1  0
  8  7  2  0
  9  8  1  0
 10  9  2  0
 10 11  1  0
 11 12  2  0
 12  7  1  0
 12  4  1  0
 13 14  2  0
 15 16  1  0
 15 13  1  0
 16 17  1  1
 18 17  1  0
 19 18  2  0
 20 19  1  0
 21 20  2  0
 21 22  1  0
 22 23  2  0
 23 18  1  0
 24 25  2  0
 24 16  1  0
 26 24  1  0
 27 26  1  0
 28 27  1  0
 28 29  1  0
 29 30  1  0
 30 26  1  0
 30 31  1  1
 32 31  1  0
 33 31  2  0
M  END
$$$$
