WFP.pdb
     RDKit          3D

 33 36  0  0  1  0  0  0  0  0999 V2000
   27.0680  -20.4315  -19.4114 N   0  0  0  0  0  0  0  0  0  0  0  0
   26.4237  -19.5642  -18.4768 C   0  0  1  0  0  0  0  0  0  0  0  0
   25.0036  -19.2883  -18.8689 C   0  0  0  0  0  0  0  0  0  0  0  0
   24.8204  -18.2944  -19.9200 C   0  0  0  0  0  0  0  0  0  0  0  0
   24.6925  -18.5126  -21.2653 C   0  0  0  0  0  0  0  0  0  0  0  0
   24.5034  -17.3605  -21.9213 N   0  0  0  0  0  0  0  0  0  0  0  0
   24.5082  -16.3780  -21.0036 C   0  0  0  0  0  0  0  0  0  0  0  0
   24.3497  -15.0272  -21.2240 C   0  0  0  0  0  0  0  0  0  0  0  0
   24.3889  -14.1847  -20.1366 C   0  0  0  0  0  0  0  0  0  0  0  0
   24.5862  -14.7024  -18.8543 C   0  0  0  0  0  0  0  0  0  0  0  0
   24.7409  -16.0591  -18.6718 C   0  0  0  0  0  0  0  0  0  0  0  0
   24.7046  -16.9260  -19.7385 C   0  0  0  0  0  0  0  0  0  0  0  0
   26.4790  -20.1782  -17.1080 C   0  0  0  0  0  0  0  0  0  0  0  0
   26.4339  -21.4088  -16.9629 O   0  0  0  0  0  0  0  0  0  0  0  0
   26.5777  -19.4207  -15.9416 N   0  0  0  0  0  0  0  0  0  0  0  0
   26.4459  -19.8563  -14.5792 C   0  0  1  0  0  0  0  0  0  0  0  0
   27.0526  -19.0235  -13.5423 C   0  0  0  0  0  0  0  0  0  0  0  0
   26.7954  -19.6374  -12.1807 C   0  0  0  0  0  0  0  0  0  0  0  0
   25.8599  -19.0519  -11.3627 C   0  0  0  0  0  0  0  0  0  0  0  0
   25.5975  -19.5920  -10.0981 C   0  0  0  0  0  0  0  0  0  0  0  0
   26.2731  -20.7175   -9.6558 C   0  0  0  0  0  0  0  0  0  0  0  0
   27.2102  -21.2947  -10.4874 C   0  0  0  0  0  0  0  0  0  0  0  0
   27.4488  -20.7385  -11.7346 C   0  0  0  0  0  0  0  0  0  0  0  0
   24.9988  -20.0833  -14.3856 C   0  0  0  0  0  0  0  0  0  0  0  0
   24.2400  -19.0433  -14.4879 O   0  0  0  0  0  0  0  0  0  0  0  0
   24.3760  -21.3469  -14.0972 N   0  0  0  0  0  0  0  0  0  0  0  0
   24.9422  -22.6586  -14.0361 C   0  0  0  0  0  0  0  0  0  0  0  0
   23.7368  -23.6188  -13.9815 C   0  0  0  0  0  0  0  0  0  0  0  0
   22.7297  -22.7787  -13.2350 C   0  0  0  0  0  0  0  0  0  0  0  0
   22.9583  -21.4205  -13.8453 C   0  0  1  0  0  0  0  0  0  0  0  0
   22.4891  -20.3857  -12.8691 C   0  0  0  0  0  0  0  0  0  0  0  0
   21.1690  -20.1582  -12.6282 O   0  0  0  0  0  0  0  0  0  0  0  0
   23.3661  -19.7208  -12.2696 O   0  0  0  0  0  0  0  0  0  0  0  0
  2  1  1  6
  2 13  1  0
  2  3  1  0
  4  3  1  0
  4  5  2  0
  6  5  1  0
  7  6  1  0
  8  7  2  0
  9  8  1  0
 10  9  2  0
 10 11  1  0
 11 12  2  0
 12  7  1  0
 12  4  1  0
 13 14  2  0
 15 16  1  0
 15 13  1  0
 16 17  1  1
 18 17  1  0
 19 18  2  0
 20 19  1  0
 21 20  2  0
 21 22  1  0
 22 23  2  0
 23 18  1  0
 24 25  2  0
 24 16  1  0
 26 24  1  0
 27 26  1  0
 28 27  1  0
 28 29  1  0
 29 30  1  0
 30 26  1  0
 30 31  1  1
 32 31  1  0
 33 31  2  0
M  END
$$$$
