WFP.pdb
     RDKit          3D

 33 36  0  0  1  0  0  0  0  0999 V2000
   22.6646  -16.7768  -17.3045 N   0  0  0  0  0  0  0  0  0  0  0  0
   22.1902  -17.8746  -16.5232 C   0  0  1  0  0  0  0  0  0  0  0  0
   21.7616  -19.0219  -17.3872 C   0  0  0  0  0  0  0  0  0  0  0  0
   20.3659  -19.0077  -17.8093 C   0  0  0  0  0  0  0  0  0  0  0  0
   19.7207  -19.9213  -18.5986 C   0  0  0  0  0  0  0  0  0  0  0  0
   18.4290  -19.5996  -18.7453 N   0  0  0  0  0  0  0  0  0  0  0  0
   18.2225  -18.4675  -18.0502 C   0  0  0  0  0  0  0  0  0  0  0  0
   17.0410  -17.7708  -17.9186 C   0  0  0  0  0  0  0  0  0  0  0  0
   17.0464  -16.6248  -17.1568 C   0  0  0  0  0  0  0  0  0  0  0  0
   18.2256  -16.1952  -16.5436 C   0  0  0  0  0  0  0  0  0  0  0  0
   19.3886  -16.9174  -16.6972 C   0  0  0  0  0  0  0  0  0  0  0  0
   19.4141  -18.0674  -17.4508 C   0  0  0  0  0  0  0  0  0  0  0  0
   23.2661  -18.3098  -15.5710 C   0  0  0  0  0  0  0  0  0  0  0  0
   24.4619  -18.1102  -15.8316 O   0  0  0  0  0  0  0  0  0  0  0  0
   22.9948  -18.9541  -14.3647 N   0  0  0  0  0  0  0  0  0  0  0  0
   23.9218  -19.4100  -13.3667 C   0  0  1  0  0  0  0  0  0  0  0  0
   23.3730  -19.8432  -12.0830 C   0  0  0  0  0  0  0  0  0  0  0  0
   24.5047  -20.1529  -11.1237 C   0  0  0  0  0  0  0  0  0  0  0  0
   25.0614  -19.1197  -10.4097 C   0  0  0  0  0  0  0  0  0  0  0  0
   26.1089  -19.3695   -9.5153 C   0  0  0  0  0  0  0  0  0  0  0  0
   26.5967  -20.6539   -9.3384 C   0  0  0  0  0  0  0  0  0  0  0  0
   26.0287  -21.6816  -10.0624 C   0  0  0  0  0  0  0  0  0  0  0  0
   24.9922  -21.4047  -10.9403 C   0  0  0  0  0  0  0  0  0  0  0  0
   24.7373  -20.4413  -14.0408 C   0  0  0  0  0  0  0  0  0  0  0  0
   24.0920  -21.4442  -14.5366 O   0  0  0  0  0  0  0  0  0  0  0  0
   26.1675  -20.4203  -14.1879 N   0  0  0  0  0  0  0  0  0  0  0  0
   27.1161  -19.4181  -13.8126 C   0  0  0  0  0  0  0  0  0  0  0  0
   28.4366  -19.8347  -14.4912 C   0  0  0  0  0  0  0  0  0  0  0  0
   28.3065  -21.3381  -14.4818 C   0  0  0  0  0  0  0  0  0  0  0  0
   26.8511  -21.5171  -14.8271 C   0  0  1  0  0  0  0  0  0  0  0  0
   26.4105  -22.8530  -14.3121 C   0  0  0  0  0  0  0  0  0  0  0  0
   26.8909  -24.0220  -14.8172 O   0  0  0  0  0  0  0  0  0  0  0  0
   25.5680  -22.8626  -13.3844 O   0  0  0  0  0  0  0  0  0  0  0  0
  2  1  1  6
  2 13  1  0
  2  3  1  0
  4  3  1  0
  4  5  2  0
  6  5  1  0
  7  6  1  0
  8  7  2  0
  9  8  1  0
 10  9  2  0
 10 11  1  0
 11 12  2  0
 12  7  1  0
 12  4  1  0
 13 14  2  0
 15 16  1  0
 15 13  1  0
 16 17  1  1
 18 17  1  0
 19 18  2  0
 20 19  1  0
 21 20  2  0
 21 22  1  0
 22 23  2  0
 23 18  1  0
 24 25  2  0
 24 16  1  0
 26 24  1  0
 27 26  1  0
 28 27  1  0
 28 29  1  0
 29 30  1  0
 30 26  1  0
 30 31  1  1
 32 31  1  0
 33 31  2  0
M  END
$$$$
