WFP.pdb
     RDKit          3D

 33 36  0  0  1  0  0  0  0  0999 V2000
   26.2972  -20.8289  -12.5911 N   0  0  0  0  0  0  0  0  0  0  0  0
   25.5395  -20.5070  -11.4236 C   0  0  1  0  0  0  0  0  0  0  0  0
   24.2629  -21.2899  -11.3614 C   0  0  0  0  0  0  0  0  0  0  0  0
   23.1906  -20.8195  -12.2303 C   0  0  0  0  0  0  0  0  0  0  0  0
   23.0263  -21.0675  -13.5665 C   0  0  0  0  0  0  0  0  0  0  0  0
   21.9033  -20.4991  -14.0243 N   0  0  0  0  0  0  0  0  0  0  0  0
   21.3256  -19.8722  -12.9846 C   0  0  0  0  0  0  0  0  0  0  0  0
   20.1512  -19.1519  -12.9903 C   0  0  0  0  0  0  0  0  0  0  0  0
   19.7339  -18.5844  -11.8081 C   0  0  0  0  0  0  0  0  0  0  0  0
   20.4932  -18.7437  -10.6466 C   0  0  0  0  0  0  0  0  0  0  0  0
   21.6627  -19.4709  -10.6785 C   0  0  0  0  0  0  0  0  0  0  0  0
   22.1045  -20.0513  -11.8442 C   0  0  0  0  0  0  0  0  0  0  0  0
   26.3728  -20.7664  -10.2021 C   0  0  0  0  0  0  0  0  0  0  0  0
   27.0115  -21.8226  -10.0831 O   0  0  0  0  0  0  0  0  0  0  0  0
   26.4748  -19.8593   -9.1482 N   0  0  0  0  0  0  0  0  0  0  0  0
   27.3120  -19.9333   -7.9833 C   0  0  1  0  0  0  0  0  0  0  0  0
   27.8686  -18.6823   -7.4713 C   0  0  0  0  0  0  0  0  0  0  0  0
   28.6947  -18.9620   -6.2319 C   0  0  0  0  0  0  0  0  0  0  0  0
   29.8684  -19.6625   -6.3695 C   0  0  0  0  0  0  0  0  0  0  0  0
   30.6560  -19.9394   -5.2458 C   0  0  0  0  0  0  0  0  0  0  0  0
   30.2659  -19.5140   -3.9866 C   0  0  0  0  0  0  0  0  0  0  0  0
   29.0847  -18.8122   -3.8630 C   0  0  0  0  0  0  0  0  0  0  0  0
   28.3255  -18.5519   -4.9934 C   0  0  0  0  0  0  0  0  0  0  0  0
   26.5190  -20.6811   -6.9858 C   0  0  0  0  0  0  0  0  0  0  0  0
   25.2902  -20.3111   -6.8410 O   0  0  0  0  0  0  0  0  0  0  0  0
   26.9956  -21.7696   -6.1761 N   0  0  0  0  0  0  0  0  0  0  0  0
   28.2594  -22.4386   -6.1860 C   0  0  0  0  0  0  0  0  0  0  0  0
   28.0619  -23.6923   -5.3101 C   0  0  0  0  0  0  0  0  0  0  0  0
   27.0476  -23.1919   -4.3111 C   0  0  0  0  0  0  0  0  0  0  0  0
   26.1360  -22.3756   -5.1898 C   0  0  1  0  0  0  0  0  0  0  0  0
   25.4402  -21.3659   -4.3293 C   0  0  0  0  0  0  0  0  0  0  0  0
   25.9378  -20.1153   -4.1277 O   0  0  0  0  0  0  0  0  0  0  0  0
   24.3650  -21.7146   -3.7881 O   0  0  0  0  0  0  0  0  0  0  0  0
  2  1  1  6
  2 13  1  0
  2  3  1  0
  4  3  1  0
  4  5  2  0
  6  5  1  0
  7  6  1  0
  8  7  2  0
  9  8  1  0
 10  9  2  0
 10 11  1  0
 11 12  2  0
 12  7  1  0
 12  4  1  0
 13 14  2  0
 15 16  1  0
 15 13  1  0
 16 17  1  1
 18 17  1  0
 19 18  2  0
 20 19  1  0
 21 20  2  0
 21 22  1  0
 22 23  2  0
 23 18  1  0
 24 25  2  0
 24 16  1  0
 26 24  1  0
 27 26  1  0
 28 27  1  0
 28 29  1  0
 29 30  1  0
 30 26  1  0
 30 31  1  1
 32 31  1  0
 33 31  2  0
M  END
$$$$
