WFP.pdb
     RDKit          3D

 33 36  0  0  1  0  0  0  0  0999 V2000
   23.4931  -18.9724  -18.1205 N   0  0  0  0  0  0  0  0  0  0  0  0
   23.9237  -18.2527  -16.9641 C   0  0  1  0  0  0  0  0  0  0  0  0
   22.7613  -17.7297  -16.1755 C   0  0  0  0  0  0  0  0  0  0  0  0
   22.4909  -16.3041  -16.3191 C   0  0  0  0  0  0  0  0  0  0  0  0
   21.3324  -15.7103  -16.7422 C   0  0  0  0  0  0  0  0  0  0  0  0
   21.4401  -14.3757  -16.7129 N   0  0  0  0  0  0  0  0  0  0  0  0
   22.6764  -14.0888  -16.2694 C   0  0  0  0  0  0  0  0  0  0  0  0
   23.2284  -12.8406  -16.0810 C   0  0  0  0  0  0  0  0  0  0  0  0
   24.5219  -12.7679  -15.6169 C   0  0  0  0  0  0  0  0  0  0  0  0
   25.2392  -13.9367  -15.3516 C   0  0  0  0  0  0  0  0  0  0  0  0
   24.6547  -15.1680  -15.5519 C   0  0  0  0  0  0  0  0  0  0  0  0
   23.3634  -15.2727  -16.0129 C   0  0  0  0  0  0  0  0  0  0  0  0
   24.7760  -19.1463  -16.1103 C   0  0  0  0  0  0  0  0  0  0  0  0
   24.7055  -20.3797  -16.2163 O   0  0  0  0  0  0  0  0  0  0  0  0
   25.6755  -18.6567  -15.1642 N   0  0  0  0  0  0  0  0  0  0  0  0
   26.5311  -19.3959  -14.2783 C   0  0  1  0  0  0  0  0  0  0  0  0
   27.7460  -18.7348  -13.8053 C   0  0  0  0  0  0  0  0  0  0  0  0
   28.5444  -19.6924  -12.9435 C   0  0  0  0  0  0  0  0  0  0  0  0
   29.2940  -20.6632  -13.5622 C   0  0  0  0  0  0  0  0  0  0  0  0
   30.0430  -21.5650  -12.7971 C   0  0  0  0  0  0  0  0  0  0  0  0
   30.0392  -21.4924  -11.4138 C   0  0  0  0  0  0  0  0  0  0  0  0
   29.2815  -20.5129  -10.8059 C   0  0  0  0  0  0  0  0  0  0  0  0
   28.5504  -19.6331  -11.5890 C   0  0  0  0  0  0  0  0  0  0  0  0
   25.6479  -19.8619  -13.1893 C   0  0  0  0  0  0  0  0  0  0  0  0
   24.9992  -18.9462  -12.5502 O   0  0  0  0  0  0  0  0  0  0  0  0
   25.4544  -21.2295  -12.7893 N   0  0  0  0  0  0  0  0  0  0  0  0
   25.9469  -22.4375  -13.3749 C   0  0  0  0  0  0  0  0  0  0  0  0
   25.1644  -23.5722  -12.6835 C   0  0  0  0  0  0  0  0  0  0  0  0
   24.9439  -22.9799  -11.3132 C   0  0  0  0  0  0  0  0  0  0  0  0
   24.6276  -21.5464  -11.6514 C   0  0  1  0  0  0  0  0  0  0  0  0
   24.9435  -20.7041  -10.4536 C   0  0  0  0  0  0  0  0  0  0  0  0
   24.0424  -20.4904   -9.4562 O   0  0  0  0  0  0  0  0  0  0  0  0
   26.0850  -20.1900  -10.3967 O   0  0  0  0  0  0  0  0  0  0  0  0
  2  1  1  6
  2 13  1  0
  2  3  1  0
  4  3  1  0
  4  5  2  0
  6  5  1  0
  7  6  1  0
  8  7  2  0
  9  8  1  0
 10  9  2  0
 10 11  1  0
 11 12  2  0
 12  7  1  0
 12  4  1  0
 13 14  2  0
 15 16  1  0
 15 13  1  0
 16 17  1  1
 18 17  1  0
 19 18  2  0
 20 19  1  0
 21 20  2  0
 21 22  1  0
 22 23  2  0
 23 18  1  0
 24 25  2  0
 24 16  1  0
 26 24  1  0
 27 26  1  0
 28 27  1  0
 28 29  1  0
 29 30  1  0
 30 26  1  0
 30 31  1  1
 32 31  1  0
 33 31  2  0
M  END
$$$$
