WFP.pdb
     RDKit          3D

 33 36  0  0  1  0  0  0  0  0999 V2000
   24.3559  -20.5172  -16.0270 N   0  0  0  0  0  0  0  0  0  0  0  0
   24.0257  -19.7716  -14.8540 C   0  0  1  0  0  0  0  0  0  0  0  0
   22.5688  -19.8847  -14.5206 C   0  0  0  0  0  0  0  0  0  0  0  0
   21.6500  -19.3336  -15.5097 C   0  0  0  0  0  0  0  0  0  0  0  0
   20.7901  -20.0177  -16.3261 C   0  0  0  0  0  0  0  0  0  0  0  0
   20.0747  -19.1745  -17.0817 N   0  0  0  0  0  0  0  0  0  0  0  0
   20.4664  -17.9286  -16.7624 C   0  0  0  0  0  0  0  0  0  0  0  0
   20.0010  -16.7446  -17.2913 C   0  0  0  0  0  0  0  0  0  0  0  0
   20.5416  -15.5691  -16.8224 C   0  0  0  0  0  0  0  0  0  0  0  0
   21.5337  -15.5958  -15.8395 C   0  0  0  0  0  0  0  0  0  0  0  0
   21.9747  -16.7989  -15.3337 C   0  0  0  0  0  0  0  0  0  0  0  0
   21.4524  -17.9897  -15.7810 C   0  0  0  0  0  0  0  0  0  0  0  0
   24.8645  -20.2529  -13.7057 C   0  0  0  0  0  0  0  0  0  0  0  0
   25.1343  -21.4564  -13.5785 O   0  0  0  0  0  0  0  0  0  0  0  0
   25.3767  -19.3973  -12.7312 N   0  0  0  0  0  0  0  0  0  0  0  0
   26.0970  -19.7346  -11.5351 C   0  0  1  0  0  0  0  0  0  0  0  0
   26.8932  -18.6819  -10.9069 C   0  0  0  0  0  0  0  0  0  0  0  0
   27.5801  -19.2310   -9.6725 C   0  0  0  0  0  0  0  0  0  0  0  0
   27.1277  -18.8335   -8.4378 C   0  0  0  0  0  0  0  0  0  0  0  0
   27.7393  -19.3202   -7.2765 C   0  0  0  0  0  0  0  0  0  0  0  0
   28.8031  -20.2040   -7.3547 C   0  0  0  0  0  0  0  0  0  0  0  0
   29.2474  -20.5941   -8.6010 C   0  0  0  0  0  0  0  0  0  0  0  0
   28.6220  -20.0965   -9.7337 C   0  0  0  0  0  0  0  0  0  0  0  0
   25.0898  -20.3330  -10.6346 C   0  0  0  0  0  0  0  0  0  0  0  0
   24.0650  -19.5979  -10.3570 O   0  0  0  0  0  0  0  0  0  0  0  0
   25.1561  -21.6458  -10.0516 N   0  0  0  0  0  0  0  0  0  0  0  0
   26.0781  -22.7126  -10.2901 C   0  0  0  0  0  0  0  0  0  0  0  0
   25.4602  -23.9450   -9.5991 C   0  0  0  0  0  0  0  0  0  0  0  0
   24.7438  -23.2989   -8.4388 C   0  0  0  0  0  0  0  0  0  0  0  0
   24.1702  -22.0660   -9.0872 C   0  0  1  0  0  0  0  0  0  0  0  0
   23.9337  -21.0439   -8.0179 C   0  0  0  0  0  0  0  0  0  0  0  0
   24.8278  -20.0542   -7.7468 O   0  0  0  0  0  0  0  0  0  0  0  0
   22.8671  -21.1299   -7.3656 O   0  0  0  0  0  0  0  0  0  0  0  0
  2  1  1  6
  2 13  1  0
  2  3  1  0
  4  3  1  0
  4  5  2  0
  6  5  1  0
  7  6  1  0
  8  7  2  0
  9  8  1  0
 10  9  2  0
 10 11  1  0
 11 12  2  0
 12  7  1  0
 12  4  1  0
 13 14  2  0
 15 16  1  0
 15 13  1  0
 16 17  1  1
 18 17  1  0
 19 18  2  0
 20 19  1  0
 21 20  2  0
 21 22  1  0
 22 23  2  0
 23 18  1  0
 24 25  2  0
 24 16  1  0
 26 24  1  0
 27 26  1  0
 28 27  1  0
 28 29  1  0
 29 30  1  0
 30 26  1  0
 30 31  1  1
 32 31  1  0
 33 31  2  0
M  END
$$$$
