WFP.pdb
     RDKit          3D

 33 36  0  0  1  0  0  0  0  0999 V2000
   26.1893  -18.9840  -19.6295 N   0  0  0  0  0  0  0  0  0  0  0  0
   25.4166  -18.4975  -18.5309 C   0  0  1  0  0  0  0  0  0  0  0  0
   23.9464  -18.5847  -18.8093 C   0  0  0  0  0  0  0  0  0  0  0  0
   23.2579  -17.3098  -18.9733 C   0  0  0  0  0  0  0  0  0  0  0  0
   23.5107  -16.3352  -19.9006 C   0  0  0  0  0  0  0  0  0  0  0  0
   22.6510  -15.3165  -19.7709 N   0  0  0  0  0  0  0  0  0  0  0  0
   21.8286  -15.6210  -18.7519 C   0  0  0  0  0  0  0  0  0  0  0  0
   20.7886  -14.8620  -18.2613 C   0  0  0  0  0  0  0  0  0  0  0  0
   20.0661  -15.3612  -17.2018 C   0  0  0  0  0  0  0  0  0  0  0  0
   20.3935  -16.6028  -16.6520 C   0  0  0  0  0  0  0  0  0  0  0  0
   21.4403  -17.3343  -17.1686 C   0  0  0  0  0  0  0  0  0  0  0  0
   22.1794  -16.8626  -18.2279 C   0  0  0  0  0  0  0  0  0  0  0  0
   25.7625  -19.2766  -17.2951 C   0  0  0  0  0  0  0  0  0  0  0  0
   26.0241  -20.4868  -17.3613 O   0  0  0  0  0  0  0  0  0  0  0  0
   25.8060  -18.7025  -16.0253 N   0  0  0  0  0  0  0  0  0  0  0  0
   25.9940  -19.3508  -14.7574 C   0  0  1  0  0  0  0  0  0  0  0  0
   26.6202  -18.5747  -13.6885 C   0  0  0  0  0  0  0  0  0  0  0  0
   26.8069  -19.4504  -12.4657 C   0  0  0  0  0  0  0  0  0  0  0  0
   25.9187  -19.3234  -11.4254 C   0  0  0  0  0  0  0  0  0  0  0  0
   26.0617  -20.1157  -10.2802 C   0  0  0  0  0  0  0  0  0  0  0  0
   27.0944  -21.0335  -10.1796 C   0  0  0  0  0  0  0  0  0  0  0  0
   27.9793  -21.1499  -11.2315 C   0  0  0  0  0  0  0  0  0  0  0  0
   27.8126  -20.3527  -12.3534 C   0  0  0  0  0  0  0  0  0  0  0  0
   24.6654  -19.8887  -14.3989 C   0  0  0  0  0  0  0  0  0  0  0  0
   23.7018  -19.0313  -14.3344 O   0  0  0  0  0  0  0  0  0  0  0  0
   24.3622  -21.2664  -14.1204 N   0  0  0  0  0  0  0  0  0  0  0  0
   25.2135  -22.4154  -14.1289 C   0  0  0  0  0  0  0  0  0  0  0  0
   24.2620  -23.6261  -14.0453 C   0  0  0  0  0  0  0  0  0  0  0  0
   23.1336  -23.0526  -13.2239 C   0  0  0  0  0  0  0  0  0  0  0  0
   23.0142  -21.6664  -13.8014 C   0  0  1  0  0  0  0  0  0  0  0  0
   22.3773  -20.7852  -12.7709 C   0  0  0  0  0  0  0  0  0  0  0  0
   21.0424  -20.8206  -12.5079 O   0  0  0  0  0  0  0  0  0  0  0  0
   23.1251  -19.9971  -12.1463 O   0  0  0  0  0  0  0  0  0  0  0  0
  2  1  1  6
  2 13  1  0
  2  3  1  0
  4  3  1  0
  4  5  2  0
  6  5  1  0
  7  6  1  0
  8  7  2  0
  9  8  1  0
 10  9  2  0
 10 11  1  0
 11 12  2  0
 12  7  1  0
 12  4  1  0
 13 14  2  0
 15 16  1  0
 15 13  1  0
 16 17  1  1
 18 17  1  0
 19 18  2  0
 20 19  1  0
 21 20  2  0
 21 22  1  0
 22 23  2  0
 23 18  1  0
 24 25  2  0
 24 16  1  0
 26 24  1  0
 27 26  1  0
 28 27  1  0
 28 29  1  0
 29 30  1  0
 30 26  1  0
 30 31  1  1
 32 31  1  0
 33 31  2  0
M  END
$$$$
