WFP.pdb
     RDKit          3D

 33 36  0  0  1  0  0  0  0  0999 V2000
   26.2731  -21.9367  -12.4946 N   0  0  0  0  0  0  0  0  0  0  0  0
   26.1941  -20.7193  -11.7514 C   0  0  1  0  0  0  0  0  0  0  0  0
   24.8700  -20.0428  -11.9402 C   0  0  0  0  0  0  0  0  0  0  0  0
   24.6503  -19.4388  -13.2491 C   0  0  0  0  0  0  0  0  0  0  0  0
   23.5130  -19.4799  -14.0097 C   0  0  0  0  0  0  0  0  0  0  0  0
   23.6682  -18.7803  -15.1411 N   0  0  0  0  0  0  0  0  0  0  0  0
   24.9148  -18.2768  -15.1263 C   0  0  0  0  0  0  0  0  0  0  0  0
   25.5112  -17.4925  -16.0894 C   0  0  0  0  0  0  0  0  0  0  0  0
   26.8072  -17.0809  -15.8780 C   0  0  0  0  0  0  0  0  0  0  0  0
   27.4828  -17.4587  -14.7152 C   0  0  0  0  0  0  0  0  0  0  0  0
   26.8544  -18.2440  -13.7737 C   0  0  0  0  0  0  0  0  0  0  0  0
   25.5595  -18.6692  -13.9560 C   0  0  0  0  0  0  0  0  0  0  0  0
   26.4322  -21.0073  -10.2974 C   0  0  0  0  0  0  0  0  0  0  0  0
   26.3518  -22.1643   -9.8589 O   0  0  0  0  0  0  0  0  0  0  0  0
   26.7470  -20.0145   -9.3703 N   0  0  0  0  0  0  0  0  0  0  0  0
   27.2411  -20.1675   -8.0303 C   0  0  1  0  0  0  0  0  0  0  0  0
   28.1265  -19.1252   -7.5141 C   0  0  0  0  0  0  0  0  0  0  0  0
   28.4836  -19.4282   -6.0727 C   0  0  0  0  0  0  0  0  0  0  0  0
   29.5347  -20.2762   -5.8211 C   0  0  0  0  0  0  0  0  0  0  0  0
   29.8917  -20.5787   -4.5017 C   0  0  0  0  0  0  0  0  0  0  0  0
   29.1946  -20.0312   -3.4372 C   0  0  0  0  0  0  0  0  0  0  0  0
   28.1410  -19.1818   -3.7045 C   0  0  0  0  0  0  0  0  0  0  0  0
   27.8106  -18.8997   -5.0210 C   0  0  0  0  0  0  0  0  0  0  0  0
   26.0395  -20.3892   -7.1995 C   0  0  0  0  0  0  0  0  0  0  0  0
   25.1439  -19.4593   -7.2329 O   0  0  0  0  0  0  0  0  0  0  0  0
   25.7895  -21.5370   -6.3703 N   0  0  0  0  0  0  0  0  0  0  0  0
   26.5425  -22.7432   -6.2180 C   0  0  0  0  0  0  0  0  0  0  0  0
   25.6236  -23.6985   -5.4299 C   0  0  0  0  0  0  0  0  0  0  0  0
   24.8545  -22.7219   -4.5743 C   0  0  0  0  0  0  0  0  0  0  0  0
   24.6076  -21.5982   -5.5467 C   0  0  1  0  0  0  0  0  0  0  0  0
   24.3837  -20.3425   -4.7612 C   0  0  0  0  0  0  0  0  0  0  0  0
   23.1864  -20.0486   -4.1846 O   0  0  0  0  0  0  0  0  0  0  0  0
   25.3510  -19.5535   -4.6495 O   0  0  0  0  0  0  0  0  0  0  0  0
  2  1  1  6
  2 13  1  0
  2  3  1  0
  4  3  1  0
  4  5  2  0
  6  5  1  0
  7  6  1  0
  8  7  2  0
  9  8  1  0
 10  9  2  0
 10 11  1  0
 11 12  2  0
 12  7  1  0
 12  4  1  0
 13 14  2  0
 15 16  1  0
 15 13  1  0
 16 17  1  1
 18 17  1  0
 19 18  2  0
 20 19  1  0
 21 20  2  0
 21 22  1  0
 22 23  2  0
 23 18  1  0
 24 25  2  0
 24 16  1  0
 26 24  1  0
 27 26  1  0
 28 27  1  0
 28 29  1  0
 29 30  1  0
 30 26  1  0
 30 31  1  1
 32 31  1  0
 33 31  2  0
M  END
$$$$
