WFP.pdb
     RDKit          3D

 33 36  0  0  1  0  0  0  0  0999 V2000
   25.8871  -22.3216  -12.1860 N   0  0  0  0  0  0  0  0  0  0  0  0
   26.2234  -21.0480  -11.6331 C   0  0  1  0  0  0  0  0  0  0  0  0
   25.2306  -19.9964  -12.0267 C   0  0  0  0  0  0  0  0  0  0  0  0
   25.3575  -19.4854  -13.3865 C   0  0  0  0  0  0  0  0  0  0  0  0
   24.3516  -19.1813  -14.2637 C   0  0  0  0  0  0  0  0  0  0  0  0
   24.8466  -18.7018  -15.4120 N   0  0  0  0  0  0  0  0  0  0  0  0
   26.1856  -18.6914  -15.2912 C   0  0  0  0  0  0  0  0  0  0  0  0
   27.1066  -18.2787  -16.2292 C   0  0  0  0  0  0  0  0  0  0  0  0
   28.4413  -18.3521  -15.9022 C   0  0  0  0  0  0  0  0  0  0  0  0
   28.8318  -18.8352  -14.6511 C   0  0  0  0  0  0  0  0  0  0  0  0
   27.8827  -19.2391  -13.7379 C   0  0  0  0  0  0  0  0  0  0  0  0
   26.5417  -19.1759  -14.0351 C   0  0  0  0  0  0  0  0  0  0  0  0
   26.3029  -21.1596  -10.1381 C   0  0  0  0  0  0  0  0  0  0  0  0
   25.7342  -22.0852   -9.5404 O   0  0  0  0  0  0  0  0  0  0  0  0
   27.0012  -20.2484   -9.3468 N   0  0  0  0  0  0  0  0  0  0  0  0
   27.4160  -20.3871   -7.9786 C   0  0  1  0  0  0  0  0  0  0  0  0
   28.5139  -19.5397   -7.5167 C   0  0  0  0  0  0  0  0  0  0  0  0
   28.7243  -19.7442   -6.0298 C   0  0  0  0  0  0  0  0  0  0  0  0
   28.2004  -18.8195   -5.1593 C   0  0  0  0  0  0  0  0  0  0  0  0
   28.3763  -18.9766   -3.7795 C   0  0  0  0  0  0  0  0  0  0  0  0
   29.0770  -20.0598   -3.2746 C   0  0  0  0  0  0  0  0  0  0  0  0
   29.5981  -20.9801   -4.1603 C   0  0  0  0  0  0  0  0  0  0  0  0
   29.4076  -20.7992   -5.5215 C   0  0  0  0  0  0  0  0  0  0  0  0
   26.1791  -20.2397   -7.1840 C   0  0  0  0  0  0  0  0  0  0  0  0
   25.6692  -19.0540   -7.1378 O   0  0  0  0  0  0  0  0  0  0  0  0
   25.5071  -21.2912   -6.4696 N   0  0  0  0  0  0  0  0  0  0  0  0
   25.7495  -22.7005   -6.4648 C   0  0  0  0  0  0  0  0  0  0  0  0
   24.5307  -23.3195   -5.7510 C   0  0  0  0  0  0  0  0  0  0  0  0
   24.1767  -22.2228   -4.7767 C   0  0  0  0  0  0  0  0  0  0  0  0
   24.3807  -20.9919   -5.6209 C   0  0  1  0  0  0  0  0  0  0  0  0
   24.6375  -19.8353   -4.7043 C   0  0  0  0  0  0  0  0  0  0  0  0
   23.6572  -19.2810   -3.9398 O   0  0  0  0  0  0  0  0  0  0  0  0
   25.8053  -19.3826   -4.6624 O   0  0  0  0  0  0  0  0  0  0  0  0
  2  1  1  6
  2 13  1  0
  2  3  1  0
  4  3  1  0
  4  5  2  0
  6  5  1  0
  7  6  1  0
  8  7  2  0
  9  8  1  0
 10  9  2  0
 10 11  1  0
 11 12  2  0
 12  7  1  0
 12  4  1  0
 13 14  2  0
 15 16  1  0
 15 13  1  0
 16 17  1  1
 18 17  1  0
 19 18  2  0
 20 19  1  0
 21 20  2  0
 21 22  1  0
 22 23  2  0
 23 18  1  0
 24 25  2  0
 24 16  1  0
 26 24  1  0
 27 26  1  0
 28 27  1  0
 28 29  1  0
 29 30  1  0
 30 26  1  0
 30 31  1  1
 32 31  1  0
 33 31  2  0
M  END
$$$$
