WFP.pdb
     RDKit          3D

 33 36  0  0  1  0  0  0  0  0999 V2000
   26.1088  -21.8588  -12.6527 N   0  0  0  0  0  0  0  0  0  0  0  0
   25.6236  -20.8623  -11.7513 C   0  0  1  0  0  0  0  0  0  0  0  0
   24.1292  -20.8988  -11.6415 C   0  0  0  0  0  0  0  0  0  0  0  0
   23.3984  -20.5995  -12.8673 C   0  0  0  0  0  0  0  0  0  0  0  0
   22.4688  -21.3805  -13.4995 C   0  0  0  0  0  0  0  0  0  0  0  0
   21.9815  -20.7624  -14.5831 N   0  0  0  0  0  0  0  0  0  0  0  0
   22.5943  -19.5686  -14.6658 C   0  0  0  0  0  0  0  0  0  0  0  0
   22.4061  -18.5968  -15.6243 C   0  0  0  0  0  0  0  0  0  0  0  0
   23.1418  -17.4381  -15.5248 C   0  0  0  0  0  0  0  0  0  0  0  0
   24.0492  -17.2707  -14.4762 C   0  0  0  0  0  0  0  0  0  0  0  0
   24.2111  -18.2641  -13.5356 C   0  0  0  0  0  0  0  0  0  0  0  0
   23.4890  -19.4322  -13.6075 C   0  0  0  0  0  0  0  0  0  0  0  0
   26.2527  -21.0619  -10.4030 C   0  0  0  0  0  0  0  0  0  0  0  0
   26.5908  -22.1925  -10.0223 O   0  0  0  0  0  0  0  0  0  0  0  0
   26.4865  -20.0138   -9.5137 N   0  0  0  0  0  0  0  0  0  0  0  0
   27.2030  -20.0408   -8.2691 C   0  0  1  0  0  0  0  0  0  0  0  0
   27.8839  -18.8153   -7.8552 C   0  0  0  0  0  0  0  0  0  0  0  0
   28.6097  -19.0532   -6.5462 C   0  0  0  0  0  0  0  0  0  0  0  0
   28.1541  -18.4160   -5.4177 C   0  0  0  0  0  0  0  0  0  0  0  0
   28.8009  -18.6121   -4.1918 C   0  0  0  0  0  0  0  0  0  0  0  0
   29.9031  -19.4461   -4.0993 C   0  0  0  0  0  0  0  0  0  0  0  0
   30.3502  -20.0790   -5.2406 C   0  0  0  0  0  0  0  0  0  0  0  0
   29.6894  -19.8665   -6.4406 C   0  0  0  0  0  0  0  0  0  0  0  0
   26.2313  -20.5431   -7.2759 C   0  0  0  0  0  0  0  0  0  0  0  0
   25.0821  -19.9542   -7.2544 O   0  0  0  0  0  0  0  0  0  0  0  0
   26.4565  -21.6167   -6.3462 N   0  0  0  0  0  0  0  0  0  0  0  0
   27.5933  -22.4687   -6.1829 C   0  0  0  0  0  0  0  0  0  0  0  0
   27.1234  -23.5965   -5.2420 C   0  0  0  0  0  0  0  0  0  0  0  0
   26.1200  -22.8623   -4.3868 C   0  0  0  0  0  0  0  0  0  0  0  0
   25.4296  -21.9964   -5.4080 C   0  0  1  0  0  0  0  0  0  0  0  0
   24.8326  -20.8214   -4.6960 C   0  0  0  0  0  0  0  0  0  0  0  0
   23.7527  -20.9393   -3.8760 O   0  0  0  0  0  0  0  0  0  0  0  0
   25.3669  -19.7033   -4.8828 O   0  0  0  0  0  0  0  0  0  0  0  0
  2  1  1  6
  2 13  1  0
  2  3  1  0
  4  3  1  0
  4  5  2  0
  6  5  1  0
  7  6  1  0
  8  7  2  0
  9  8  1  0
 10  9  2  0
 10 11  1  0
 11 12  2  0
 12  7  1  0
 12  4  1  0
 13 14  2  0
 15 16  1  0
 15 13  1  0
 16 17  1  1
 18 17  1  0
 19 18  2  0
 20 19  1  0
 21 20  2  0
 21 22  1  0
 22 23  2  0
 23 18  1  0
 24 25  2  0
 24 16  1  0
 26 24  1  0
 27 26  1  0
 28 27  1  0
 28 29  1  0
 29 30  1  0
 30 26  1  0
 30 31  1  1
 32 31  1  0
 33 31  2  0
M  END
$$$$
