WFP.pdb
     RDKit          3D

 33 36  0  0  1  0  0  0  0  0999 V2000
   26.1391  -21.2960  -12.0906 N   0  0  0  0  0  0  0  0  0  0  0  0
   25.5765  -20.5170  -11.0335 C   0  0  1  0  0  0  0  0  0  0  0  0
   24.1360  -20.8602  -10.8019 C   0  0  0  0  0  0  0  0  0  0  0  0
   23.1930  -20.3139  -11.7708 C   0  0  0  0  0  0  0  0  0  0  0  0
   22.3992  -19.2072  -11.6339 C   0  0  0  0  0  0  0  0  0  0  0  0
   21.6865  -18.9887  -12.7466 N   0  0  0  0  0  0  0  0  0  0  0  0
   22.0116  -19.9573  -13.6205 C   0  0  0  0  0  0  0  0  0  0  0  0
   21.5217  -20.1312  -14.8964 C   0  0  0  0  0  0  0  0  0  0  0  0
   21.9893  -21.1976  -15.6300 C   0  0  0  0  0  0  0  0  0  0  0  0
   22.9322  -22.0686  -15.0793 C   0  0  0  0  0  0  0  0  0  0  0  0
   23.3998  -21.8636  -13.7998 C   0  0  0  0  0  0  0  0  0  0  0  0
   22.9528  -20.8060  -13.0431 C   0  0  0  0  0  0  0  0  0  0  0  0
   26.3736  -20.7303   -9.7794 C   0  0  0  0  0  0  0  0  0  0  0  0
   26.6641  -21.8743   -9.3998 O   0  0  0  0  0  0  0  0  0  0  0  0
   26.8228  -19.6801   -8.9797 N   0  0  0  0  0  0  0  0  0  0  0  0
   27.6988  -19.7342   -7.8426 C   0  0  1  0  0  0  0  0  0  0  0  0
   28.4162  -18.5120   -7.4843 C   0  0  0  0  0  0  0  0  0  0  0  0
   29.2639  -18.7614   -6.2530 C   0  0  0  0  0  0  0  0  0  0  0  0
   28.9998  -18.0366   -5.1163 C   0  0  0  0  0  0  0  0  0  0  0  0
   29.7634  -18.2407   -3.9609 C   0  0  0  0  0  0  0  0  0  0  0  0
   30.7903  -19.1704   -3.9469 C   0  0  0  0  0  0  0  0  0  0  0  0
   31.0448  -19.8906   -5.0956 C   0  0  0  0  0  0  0  0  0  0  0  0
   30.2718  -19.6679   -6.2246 C   0  0  0  0  0  0  0  0  0  0  0  0
   26.8730  -20.2797   -6.7455 C   0  0  0  0  0  0  0  0  0  0  0  0
   25.6811  -19.7952   -6.6341 O   0  0  0  0  0  0  0  0  0  0  0  0
   27.2810  -21.2898   -5.8069 N   0  0  0  0  0  0  0  0  0  0  0  0
   28.4682  -22.0862   -5.7710 C   0  0  0  0  0  0  0  0  0  0  0  0
   28.1935  -23.1768   -4.7159 C   0  0  0  0  0  0  0  0  0  0  0  0
   27.2918  -22.4354   -3.7597 C   0  0  0  0  0  0  0  0  0  0  0  0
   26.4203  -21.6559   -4.7096 C   0  0  1  0  0  0  0  0  0  0  0  0
   25.8789  -20.4669   -3.9767 C   0  0  0  0  0  0  0  0  0  0  0  0
   26.4988  -19.2554   -3.9969 O   0  0  0  0  0  0  0  0  0  0  0  0
   24.8172  -20.6244   -3.3298 O   0  0  0  0  0  0  0  0  0  0  0  0
  2  1  1  6
  2 13  1  0
  2  3  1  0
  4  3  1  0
  4  5  2  0
  6  5  1  0
  7  6  1  0
  8  7  2  0
  9  8  1  0
 10  9  2  0
 10 11  1  0
 11 12  2  0
 12  7  1  0
 12  4  1  0
 13 14  2  0
 15 16  1  0
 15 13  1  0
 16 17  1  1
 18 17  1  0
 19 18  2  0
 20 19  1  0
 21 20  2  0
 21 22  1  0
 22 23  2  0
 23 18  1  0
 24 25  2  0
 24 16  1  0
 26 24  1  0
 27 26  1  0
 28 27  1  0
 28 29  1  0
 29 30  1  0
 30 26  1  0
 30 31  1  1
 32 31  1  0
 33 31  2  0
M  END
$$$$
