SHF.pdb
     RDKit          3D

 28 29  0  0  1  0  0  0  0  0999 V2000
    9.5901  -12.5507   20.3063 O   0  0  0  0  0  0  0  0  0  0  0  0
    9.5191  -13.8854   19.9163 C   0  0  0  0  0  0  0  0  0  0  0  0
    8.0811  -14.3074   19.7535 C   0  0  2  0  0  0  0  0  0  0  0  0
    7.3279  -13.2133   19.2017 N   0  0  0  0  0  0  0  0  0  0  0  0
    7.5262  -14.8155   21.0146 C   0  0  0  0  0  0  0  0  0  0  0  0
    6.6973  -14.1195   21.6457 O   0  0  0  0  0  0  0  0  0  0  0  0
    7.8907  -16.0632   21.5479 N   0  0  0  0  0  0  0  0  0  0  0  0
    7.3240  -16.5980   22.7821 C   0  0  1  0  0  0  0  0  0  0  0  0
    7.2331  -18.1069   22.6586 C   0  0  0  0  0  0  0  0  0  0  0  0
    6.1381  -18.4800   21.7436 C   0  0  0  0  0  0  0  0  0  0  0  0
    4.8109  -18.4210   22.0262 C   0  0  0  0  0  0  0  0  0  0  0  0
    4.1419  -18.8473   20.9257 N   0  0  0  0  0  0  0  0  0  0  0  0
    5.0239  -19.1681   19.9704 C   0  0  0  0  0  0  0  0  0  0  0  0
    6.2468  -18.9444   20.4677 N   0  0  0  0  0  0  0  0  0  0  0  0
    8.2596  -16.3167   23.9046 C   0  0  0  0  0  0  0  0  0  0  0  0
    9.5026  -16.3100   23.6907 O   0  0  0  0  0  0  0  0  0  0  0  0
    7.8292  -16.0493   25.2312 N   0  0  0  0  0  0  0  0  0  0  0  0
    8.7391  -15.7251   26.3229 C   0  0  1  0  0  0  0  0  0  0  0  0
    8.0797  -14.9179   27.3813 C   0  0  0  0  0  0  0  0  0  0  0  0
    7.4211  -13.7050   26.8626 C   0  0  0  0  0  0  0  0  0  0  0  0
    8.2111  -12.6037   26.5161 C   0  0  0  0  0  0  0  0  0  0  0  0
    7.5644  -11.5011   26.0190 C   0  0  0  0  0  0  0  0  0  0  0  0
    6.2050  -11.3975   25.8366 C   0  0  0  0  0  0  0  0  0  0  0  0
    5.4443  -12.4951   26.1846 C   0  0  0  0  0  0  0  0  0  0  0  0
    6.0330  -13.6342   26.6899 C   0  0  0  0  0  0  0  0  0  0  0  0
    9.3997  -16.9332   26.8532 C   0  0  0  0  0  0  0  0  0  0  0  0
   10.2881  -16.7555   27.7551 O   0  0  0  0  0  0  0  0  0  0  0  0
    9.1013  -18.1912   26.4269 O   0  0  0  0  0  0  0  0  0  0  0  0
  1  2  1  0
  2  3  1  0
  3  4  1  1
  3  5  1  0
  5  6  2  0
  7  5  1  0
  7  8  1  0
  8  9  1  6
  9 10  1  0
 10 14  1  0
 11 12  1  0
 11 10  2  0
 12 13  1  0
 13 14  2  0
 15  8  1  0
 15 16  2  0
 17 15  1  0
 18 17  1  0
 18 19  1  1
 20 19  1  0
 21 20  2  0
 22 21  1  0
 23 24  1  0
 23 22  2  0
 24 25  2  0
 25 20  1  0
 26 18  1  0
 27 26  2  0
 28 26  1  0
M  END
$$$$
