SHF.pdb
     RDKit          3D

 28 29  0  0  1  0  0  0  0  0999 V2000
   11.0356  -13.3669   19.6406 O   0  0  0  0  0  0  0  0  0  0  0  0
   10.4032  -14.0852   18.6293 C   0  0  0  0  0  0  0  0  0  0  0  0
    8.9088  -14.0596   18.8250 C   0  0  2  0  0  0  0  0  0  0  0  0
    8.4292  -12.7188   18.6219 N   0  0  0  0  0  0  0  0  0  0  0  0
    8.5299  -14.6197   20.1285 C   0  0  0  0  0  0  0  0  0  0  0  0
    8.1059  -13.8550   21.0259 O   0  0  0  0  0  0  0  0  0  0  0  0
    8.6242  -15.9923   20.4133 N   0  0  0  0  0  0  0  0  0  0  0  0
    8.1405  -16.5826   21.6575 C   0  0  1  0  0  0  0  0  0  0  0  0
    8.1923  -18.0929   21.5285 C   0  0  0  0  0  0  0  0  0  0  0  0
    7.0645  -18.5751   20.7094 C   0  0  0  0  0  0  0  0  0  0  0  0
    6.1023  -17.7995   20.1460 C   0  0  0  0  0  0  0  0  0  0  0  0
    5.2560  -18.6231   19.4781 N   0  0  0  0  0  0  0  0  0  0  0  0
    5.6724  -19.8885   19.6156 C   0  0  0  0  0  0  0  0  0  0  0  0
    6.7792  -19.8627   20.3688 N   0  0  0  0  0  0  0  0  0  0  0  0
    9.0705  -16.2157   22.7596 C   0  0  0  0  0  0  0  0  0  0  0  0
   10.2971  -16.0585   22.5113 O   0  0  0  0  0  0  0  0  0  0  0  0
    8.6524  -16.0273   24.1037 N   0  0  0  0  0  0  0  0  0  0  0  0
    9.5499  -15.6146   25.1757 C   0  0  1  0  0  0  0  0  0  0  0  0
    9.5781  -14.1393   25.3463 C   0  0  0  0  0  0  0  0  0  0  0  0
    8.2843  -13.5784   25.7770 C   0  0  0  0  0  0  0  0  0  0  0  0
    7.3379  -13.2401   24.8039 C   0  0  0  0  0  0  0  0  0  0  0  0
    6.1392  -12.7396   25.2440 C   0  0  0  0  0  0  0  0  0  0  0  0
    5.7997  -12.5464   26.5628 C   0  0  0  0  0  0  0  0  0  0  0  0
    6.7475  -12.8866   27.5064 C   0  0  0  0  0  0  0  0  0  0  0  0
    7.9721  -13.3947   27.1299 C   0  0  0  0  0  0  0  0  0  0  0  0
    9.2564  -16.3302   26.4322 C   0  0  0  0  0  0  0  0  0  0  0  0
   10.0873  -16.1754   27.3913 O   0  0  0  0  0  0  0  0  0  0  0  0
    8.1626  -17.1236   26.5976 O   0  0  0  0  0  0  0  0  0  0  0  0
  1  2  1  0
  2  3  1  0
  3  4  1  1
  3  5  1  0
  5  6  2  0
  7  5  1  0
  7  8  1  0
  8  9  1  6
  9 10  1  0
 10 14  1  0
 11 12  1  0
 11 10  2  0
 12 13  1  0
 13 14  2  0
 15  8  1  0
 15 16  2  0
 17 15  1  0
 18 17  1  0
 18 19  1  1
 20 19  1  0
 21 20  2  0
 22 21  1  0
 23 24  1  0
 23 22  2  0
 24 25  2  0
 25 20  1  0
 26 18  1  0
 27 26  2  0
 28 26  1  0
M  END
$$$$
