SHF.pdb
     RDKit          3D

 28 29  0  0  1  0  0  0  0  0999 V2000
    8.7521  -19.4063   22.5983 O   0  0  0  0  0  0  0  0  0  0  0  0
    7.8576  -19.2001   21.5514 C   0  0  0  0  0  0  0  0  0  0  0  0
    8.5282  -18.4474   20.4305 C   0  0  2  0  0  0  0  0  0  0  0  0
    9.5330  -19.2861   19.8339 N   0  0  0  0  0  0  0  0  0  0  0  0
    9.0507  -17.1547   20.8912 C   0  0  0  0  0  0  0  0  0  0  0  0
   10.2885  -16.9981   21.0060 O   0  0  0  0  0  0  0  0  0  0  0  0
    8.2106  -16.0751   21.2117 N   0  0  0  0  0  0  0  0  0  0  0  0
    8.7146  -14.7533   21.5712 C   0  0  1  0  0  0  0  0  0  0  0  0
    7.7687  -13.7069   21.0136 C   0  0  0  0  0  0  0  0  0  0  0  0
    7.7649  -13.7550   19.5394 C   0  0  0  0  0  0  0  0  0  0  0  0
    8.3589  -12.8556   18.7130 C   0  0  0  0  0  0  0  0  0  0  0  0
    8.1240  -13.2577   17.4388 N   0  0  0  0  0  0  0  0  0  0  0  0
    7.3992  -14.3837   17.4585 C   0  0  0  0  0  0  0  0  0  0  0  0
    7.1776  -14.6909   18.7428 N   0  0  0  0  0  0  0  0  0  0  0  0
    8.6840  -14.6111   23.0522 C   0  0  0  0  0  0  0  0  0  0  0  0
    8.1568  -13.5877   23.5674 O   0  0  0  0  0  0  0  0  0  0  0  0
    9.2239  -15.5785   23.9406 N   0  0  0  0  0  0  0  0  0  0  0  0
    9.0737  -15.5140   25.3891 C   0  0  1  0  0  0  0  0  0  0  0  0
    7.6554  -15.3498   25.7988 C   0  0  0  0  0  0  0  0  0  0  0  0
    7.3165  -13.9668   26.1813 C   0  0  0  0  0  0  0  0  0  0  0  0
    5.9717  -13.6276   26.3650 C   0  0  0  0  0  0  0  0  0  0  0  0
    5.6973  -12.3370   26.7395 C   0  0  0  0  0  0  0  0  0  0  0  0
    6.6397  -11.3568   26.9468 C   0  0  0  0  0  0  0  0  0  0  0  0
    7.9600  -11.7124   26.7602 C   0  0  0  0  0  0  0  0  0  0  0  0
    8.3027  -12.9932   26.3838 C   0  0  0  0  0  0  0  0  0  0  0  0
    9.7322  -16.6557   26.0524 C   0  0  0  0  0  0  0  0  0  0  0  0
   10.0230  -17.6601   25.3171 O   0  0  0  0  0  0  0  0  0  0  0  0
   10.0318  -16.6719   27.3803 O   0  0  0  0  0  0  0  0  0  0  0  0
  1  2  1  0
  2  3  1  0
  3  4  1  1
  3  5  1  0
  5  6  2  0
  7  5  1  0
  7  8  1  0
  8  9  1  6
  9 10  1  0
 10 14  1  0
 11 12  1  0
 11 10  2  0
 12 13  1  0
 13 14  2  0
 15  8  1  0
 15 16  2  0
 17 15  1  0
 18 17  1  0
 18 19  1  6
 20 19  1  0
 21 20  2  0
 22 21  1  0
 23 24  1  0
 23 22  2  0
 24 25  2  0
 25 20  1  0
 26 18  1  0
 27 26  2  0
 28 26  1  0
M  END
$$$$
