SHF.pdb
     RDKit          3D

 28 29  0  0  1  0  0  0  0  0999 V2000
    8.7568  -12.3255   21.1933 O   0  0  0  0  0  0  0  0  0  0  0  0
    8.9478  -13.2083   20.1337 C   0  0  0  0  0  0  0  0  0  0  0  0
    7.9013  -14.2929   20.1608 C   0  0  2  0  0  0  0  0  0  0  0  0
    6.6023  -13.6995   19.9892 N   0  0  0  0  0  0  0  0  0  0  0  0
    8.0091  -15.1106   21.3758 C   0  0  0  0  0  0  0  0  0  0  0  0
    7.0653  -15.1141   22.1998 O   0  0  0  0  0  0  0  0  0  0  0  0
    9.1392  -15.8975   21.6547 N   0  0  0  0  0  0  0  0  0  0  0  0
    9.1699  -16.8992   22.7159 C   0  0  1  0  0  0  0  0  0  0  0  0
   10.2699  -17.8968   22.4077 C   0  0  0  0  0  0  0  0  0  0  0  0
    9.8693  -18.7702   21.2887 C   0  0  0  0  0  0  0  0  0  0  0  0
    8.7316  -19.5094   21.2249 C   0  0  0  0  0  0  0  0  0  0  0  0
    8.7402  -20.1668   20.0382 N   0  0  0  0  0  0  0  0  0  0  0  0
    9.8558  -19.8514   19.3677 C   0  0  0  0  0  0  0  0  0  0  0  0
   10.5492  -18.9967   20.1303 N   0  0  0  0  0  0  0  0  0  0  0  0
    9.5407  -16.2360   23.9954 C   0  0  0  0  0  0  0  0  0  0  0  0
   10.5785  -15.5209   24.0467 O   0  0  0  0  0  0  0  0  0  0  0  0
    8.7809  -16.3615   25.1885 N   0  0  0  0  0  0  0  0  0  0  0  0
    9.1299  -15.6983   26.4389 C   0  0  1  0  0  0  0  0  0  0  0  0
    7.9307  -15.2202   27.1735 C   0  0  0  0  0  0  0  0  0  0  0  0
    7.3219  -14.0185   26.5742 C   0  0  0  0  0  0  0  0  0  0  0  0
    8.1011  -12.8650   26.4350 C   0  0  0  0  0  0  0  0  0  0  0  0
    7.5058  -11.7737   25.8554 C   0  0  0  0  0  0  0  0  0  0  0  0
    6.2076  -11.7287   25.4033 C   0  0  0  0  0  0  0  0  0  0  0  0
    5.4565  -12.8770   25.5501 C   0  0  0  0  0  0  0  0  0  0  0  0
    5.9955  -14.0079   26.1246 C   0  0  0  0  0  0  0  0  0  0  0  0
   10.0118  -16.5403   27.2698 C   0  0  0  0  0  0  0  0  0  0  0  0
   10.1459  -17.7608   26.9141 O   0  0  0  0  0  0  0  0  0  0  0  0
   10.6675  -16.0728   28.3674 O   0  0  0  0  0  0  0  0  0  0  0  0
  1  2  1  0
  2  3  1  0
  3  4  1  1
  3  5  1  0
  5  6  2  0
  7  5  1  0
  7  8  1  0
  8  9  1  6
  9 10  1  0
 10 14  1  0
 11 12  1  0
 11 10  2  0
 12 13  1  0
 13 14  2  0
 15  8  1  0
 15 16  2  0
 17 15  1  0
 18 17  1  0
 18 19  1  1
 20 19  1  0
 21 20  2  0
 22 21  1  0
 23 24  1  0
 23 22  2  0
 24 25  2  0
 25 20  1  0
 26 18  1  0
 27 26  2  0
 28 26  1  0
M  END
$$$$
