SHF.pdb
     RDKit          3D

 28 29  0  0  1  0  0  0  0  0999 V2000
    9.2606  -12.3544   20.4799 O   0  0  0  0  0  0  0  0  0  0  0  0
    8.1727  -12.6215   19.6531 C   0  0  0  0  0  0  0  0  0  0  0  0
    8.1480  -14.0806   19.2754 C   0  0  2  0  0  0  0  0  0  0  0  0
    7.1426  -14.2903   18.2683 N   0  0  0  0  0  0  0  0  0  0  0  0
    7.9733  -14.9363   20.4560 C   0  0  0  0  0  0  0  0  0  0  0  0
    6.8204  -15.1391   20.9025 O   0  0  0  0  0  0  0  0  0  0  0  0
    9.0575  -15.5430   21.1119 N   0  0  0  0  0  0  0  0  0  0  0  0
    8.8981  -16.4343   22.2568 C   0  0  1  0  0  0  0  0  0  0  0  0
    9.6758  -17.7087   21.9896 C   0  0  0  0  0  0  0  0  0  0  0  0
    8.9432  -18.5647   21.0378 C   0  0  0  0  0  0  0  0  0  0  0  0
    8.8638  -18.3741   19.6954 C   0  0  0  0  0  0  0  0  0  0  0  0
    8.1021  -19.3751   19.1872 N   0  0  0  0  0  0  0  0  0  0  0  0
    7.7092  -20.1792   20.1834 C   0  0  0  0  0  0  0  0  0  0  0  0
    8.2223  -19.6861   21.3176 N   0  0  0  0  0  0  0  0  0  0  0  0
    9.5157  -15.7995   23.4527 C   0  0  0  0  0  0  0  0  0  0  0  0
   10.7702  -15.6874   23.5185 O   0  0  0  0  0  0  0  0  0  0  0  0
    8.7624  -15.3012   24.5485 N   0  0  0  0  0  0  0  0  0  0  0  0
    9.1751  -15.4418   25.9395 C   0  0  1  0  0  0  0  0  0  0  0  0
    8.0626  -15.1676   26.8848 C   0  0  0  0  0  0  0  0  0  0  0  0
    7.4345  -13.8498   26.6778 C   0  0  0  0  0  0  0  0  0  0  0  0
    8.2103  -12.6982   26.8487 C   0  0  0  0  0  0  0  0  0  0  0  0
    7.5963  -11.4916   26.6284 C   0  0  0  0  0  0  0  0  0  0  0  0
    6.2826  -11.3299   26.2542 C   0  0  0  0  0  0  0  0  0  0  0  0
    5.5353  -12.4786   26.0912 C   0  0  0  0  0  0  0  0  0  0  0  0
    6.0928  -13.7221   26.2972 C   0  0  0  0  0  0  0  0  0  0  0  0
    9.8238  -16.7447   26.1821 C   0  0  0  0  0  0  0  0  0  0  0  0
    9.2264  -17.7794   25.7276 O   0  0  0  0  0  0  0  0  0  0  0  0
   11.0018  -16.8752   26.8518 O   0  0  0  0  0  0  0  0  0  0  0  0
  1  2  1  0
  2  3  1  0
  3  4  1  6
  3  5  1  0
  5  6  2  0
  7  5  1  0
  7  8  1  0
  8  9  1  6
  9 10  1  0
 10 14  1  0
 11 12  1  0
 11 10  2  0
 12 13  1  0
 13 14  2  0
 15  8  1  0
 15 16  2  0
 17 15  1  0
 18 17  1  0
 18 19  1  1
 20 19  1  0
 21 20  2  0
 22 21  1  0
 23 24  1  0
 23 22  2  0
 24 25  2  0
 25 20  1  0
 26 18  1  0
 27 26  2  0
 28 26  1  0
M  END
$$$$
