SHF.pdb
     RDKit          3D

 28 29  0  0  1  0  0  0  0  0999 V2000
   10.0583  -13.2610   19.6541 O   0  0  0  0  0  0  0  0  0  0  0  0
    9.1148  -13.1706   18.6343 C   0  0  0  0  0  0  0  0  0  0  0  0
    8.4502  -14.5059   18.4160 C   0  0  2  0  0  0  0  0  0  0  0  0
    7.5676  -14.4142   17.2839 N   0  0  0  0  0  0  0  0  0  0  0  0
    7.7817  -14.9769   19.6357 C   0  0  0  0  0  0  0  0  0  0  0  0
    6.7493  -14.3906   20.0359 O   0  0  0  0  0  0  0  0  0  0  0  0
    8.2575  -16.0696   20.3797 N   0  0  0  0  0  0  0  0  0  0  0  0
    7.6919  -16.4638   21.6663 C   0  0  1  0  0  0  0  0  0  0  0  0
    7.3726  -17.9458   21.6206 C   0  0  0  0  0  0  0  0  0  0  0  0
    6.0859  -18.1706   20.9356 C   0  0  0  0  0  0  0  0  0  0  0  0
    5.9302  -18.5601   19.6438 C   0  0  0  0  0  0  0  0  0  0  0  0
    4.5980  -18.6525   19.4049 N   0  0  0  0  0  0  0  0  0  0  0  0
    3.9272  -18.3294   20.5181 C   0  0  0  0  0  0  0  0  0  0  0  0
    4.8349  -18.0339   21.4570 N   0  0  0  0  0  0  0  0  0  0  0  0
    8.7231  -16.2812   22.7235 C   0  0  0  0  0  0  0  0  0  0  0  0
    9.9035  -16.6736   22.5145 O   0  0  0  0  0  0  0  0  0  0  0  0
    8.4538  -15.6789   23.9810 N   0  0  0  0  0  0  0  0  0  0  0  0
    9.4664  -15.4756   25.0097 C   0  0  1  0  0  0  0  0  0  0  0  0
    9.7126  -14.0354   25.2771 C   0  0  0  0  0  0  0  0  0  0  0  0
    8.5209  -13.3239   25.7749 C   0  0  0  0  0  0  0  0  0  0  0  0
    7.5629  -12.8859   24.8543 C   0  0  0  0  0  0  0  0  0  0  0  0
    6.4591  -12.2454   25.3568 C   0  0  0  0  0  0  0  0  0  0  0  0
    6.2247  -12.0028   26.6903 C   0  0  0  0  0  0  0  0  0  0  0  0
    7.1821  -12.4431   27.5813 C   0  0  0  0  0  0  0  0  0  0  0  0
    8.3145  -13.0937   27.1408 C   0  0  0  0  0  0  0  0  0  0  0  0
    9.1553  -16.2396   26.2331 C   0  0  0  0  0  0  0  0  0  0  0  0
   10.0390  -16.2332   27.1569 O   0  0  0  0  0  0  0  0  0  0  0  0
    7.9932  -16.9277   26.4043 O   0  0  0  0  0  0  0  0  0  0  0  0
  1  2  1  0
  2  3  1  0
  3  4  1  6
  3  5  1  0
  5  6  2  0
  7  5  1  0
  7  8  1  0
  8  9  1  6
  9 10  1  0
 10 14  1  0
 11 12  1  0
 11 10  2  0
 12 13  1  0
 13 14  2  0
 15  8  1  0
 15 16  2  0
 17 15  1  0
 18 17  1  0
 18 19  1  1
 20 19  1  0
 21 20  2  0
 22 21  1  0
 23 24  1  0
 23 22  2  0
 24 25  2  0
 25 20  1  0
 26 18  1  0
 27 26  2  0
 28 26  1  0
M  END
$$$$
