SHF.pdb
     RDKit          3D

 28 29  0  0  1  0  0  0  0  0999 V2000
    7.5461  -13.1924   22.0813 O   0  0  0  0  0  0  0  0  0  0  0  0
    6.5402  -13.9544   21.4931 C   0  0  0  0  0  0  0  0  0  0  0  0
    7.1269  -15.1758   20.8327 C   0  0  2  0  0  0  0  0  0  0  0  0
    6.0822  -15.8907   20.1498 N   0  0  0  0  0  0  0  0  0  0  0  0
    7.8620  -16.0046   21.7967 C   0  0  0  0  0  0  0  0  0  0  0  0
    7.2433  -16.8658   22.4639 O   0  0  0  0  0  0  0  0  0  0  0  0
    9.2451  -15.8697   22.0034 N   0  0  0  0  0  0  0  0  0  0  0  0
   10.0064  -16.7424   22.8918 C   0  0  1  0  0  0  0  0  0  0  0  0
   11.4581  -16.7322   22.4526 C   0  0  0  0  0  0  0  0  0  0  0  0
   11.6159  -17.4807   21.1915 C   0  0  0  0  0  0  0  0  0  0  0  0
   10.9790  -18.6357   20.8673 C   0  0  0  0  0  0  0  0  0  0  0  0
   11.3972  -18.9964   19.6283 N   0  0  0  0  0  0  0  0  0  0  0  0
   12.2772  -18.0920   19.1795 C   0  0  0  0  0  0  0  0  0  0  0  0
   12.4134  -17.1629   20.1339 N   0  0  0  0  0  0  0  0  0  0  0  0
    9.9725  -16.1782   24.2684 C   0  0  0  0  0  0  0  0  0  0  0  0
   10.5070  -15.0584   24.4944 O   0  0  0  0  0  0  0  0  0  0  0  0
    9.3617  -16.8381   25.3676 N   0  0  0  0  0  0  0  0  0  0  0  0
    9.3396  -16.2962   26.7207 C   0  0  1  0  0  0  0  0  0  0  0  0
    7.9599  -15.9955   27.1816 C   0  0  0  0  0  0  0  0  0  0  0  0
    7.4648  -14.6855   26.7204 C   0  0  0  0  0  0  0  0  0  0  0  0
    8.2407  -13.5470   26.9638 C   0  0  0  0  0  0  0  0  0  0  0  0
    7.7566  -12.3495   26.5027 C   0  0  0  0  0  0  0  0  0  0  0  0
    6.5723  -12.1848   25.8228 C   0  0  0  0  0  0  0  0  0  0  0  0
    5.8225  -13.3204   25.5933 C   0  0  0  0  0  0  0  0  0  0  0  0
    6.2530  -14.5544   26.0308 C   0  0  0  0  0  0  0  0  0  0  0  0
   10.0815  -17.1583   27.6606 C   0  0  0  0  0  0  0  0  0  0  0  0
   10.4504  -18.3022   27.2250 O   0  0  0  0  0  0  0  0  0  0  0  0
   10.3775  -16.7852   28.9359 O   0  0  0  0  0  0  0  0  0  0  0  0
  1  2  1  0
  2  3  1  0
  3  4  1  1
  3  5  1  0
  5  6  2  0
  7  5  1  0
  7  8  1  0
  8  9  1  6
  9 10  1  0
 10 14  1  0
 11 12  1  0
 11 10  2  0
 12 13  1  0
 13 14  2  0
 15  8  1  0
 15 16  2  0
 17 15  1  0
 18 17  1  0
 18 19  1  1
 20 19  1  0
 21 20  2  0
 22 21  1  0
 23 24  1  0
 23 22  2  0
 24 25  2  0
 25 20  1  0
 26 18  1  0
 27 26  2  0
 28 26  1  0
M  END
$$$$
