SHF.pdb
     RDKit          3D

 28 29  0  0  1  0  0  0  0  0999 V2000
    8.3993  -12.0435   20.2776 O   0  0  0  0  0  0  0  0  0  0  0  0
    9.3520  -12.6445   19.4593 C   0  0  0  0  0  0  0  0  0  0  0  0
    8.7989  -13.9092   18.8535 C   0  0  2  0  0  0  0  0  0  0  0  0
    7.6705  -13.5808   18.0242 N   0  0  0  0  0  0  0  0  0  0  0  0
    8.4890  -14.9064   19.8859 C   0  0  0  0  0  0  0  0  0  0  0  0
    7.5280  -15.6914   19.7130 O   0  0  0  0  0  0  0  0  0  0  0  0
    9.2340  -15.0172   21.0719 N   0  0  0  0  0  0  0  0  0  0  0  0
    9.2453  -16.2221   21.8957 C   0  0  1  0  0  0  0  0  0  0  0  0
    9.8834  -17.3454   21.1011 C   0  0  0  0  0  0  0  0  0  0  0  0
    8.8713  -18.0212   20.2678 C   0  0  0  0  0  0  0  0  0  0  0  0
    8.7668  -17.9338   18.9165 C   0  0  0  0  0  0  0  0  0  0  0  0
    7.7122  -18.6997   18.5401 N   0  0  0  0  0  0  0  0  0  0  0  0
    7.1630  -19.2580   19.6265 C   0  0  0  0  0  0  0  0  0  0  0  0
    7.8701  -18.8448   20.6858 N   0  0  0  0  0  0  0  0  0  0  0  0
   10.1150  -15.9891   23.0804 C   0  0  0  0  0  0  0  0  0  0  0  0
   11.0798  -15.1812   22.9938 O   0  0  0  0  0  0  0  0  0  0  0  0
    9.9211  -16.6347   24.3303 N   0  0  0  0  0  0  0  0  0  0  0  0
    9.2191  -16.0233   25.4520 C   0  0  1  0  0  0  0  0  0  0  0  0
    7.9213  -15.4273   25.0434 C   0  0  0  0  0  0  0  0  0  0  0  0
    7.6296  -14.1493   25.7183 C   0  0  0  0  0  0  0  0  0  0  0  0
    6.4877  -13.4333   25.3433 C   0  0  0  0  0  0  0  0  0  0  0  0
    6.2392  -12.2591   26.0071 C   0  0  0  0  0  0  0  0  0  0  0  0
    7.0240  -11.7357   27.0081 C   0  0  0  0  0  0  0  0  0  0  0  0
    8.1454  -12.4577   27.3626 C   0  0  0  0  0  0  0  0  0  0  0  0
    8.4515  -13.6455   26.7342 C   0  0  0  0  0  0  0  0  0  0  0  0
    9.0869  -16.9612   26.5833 C   0  0  0  0  0  0  0  0  0  0  0  0
    8.5471  -18.0928   26.3337 O   0  0  0  0  0  0  0  0  0  0  0  0
    9.5096  -16.6694   27.8440 O   0  0  0  0  0  0  0  0  0  0  0  0
  1  2  1  0
  2  3  1  0
  3  4  1  1
  3  5  1  0
  5  6  2  0
  7  5  1  0
  7  8  1  0
  8  9  1  6
  9 10  1  0
 10 14  1  0
 11 12  1  0
 11 10  2  0
 12 13  1  0
 13 14  2  0
 15  8  1  0
 15 16  2  0
 17 15  1  0
 18 17  1  0
 18 19  1  6
 20 19  1  0
 21 20  2  0
 22 21  1  0
 23 24  1  0
 23 22  2  0
 24 25  2  0
 25 20  1  0
 26 18  1  0
 27 26  2  0
 28 26  1  0
M  END
$$$$
