SHF.pdb
     RDKit          3D

 28 29  0  0  1  0  0  0  0  0999 V2000
   10.6008  -13.2652   19.7291 O   0  0  0  0  0  0  0  0  0  0  0  0
   10.1278  -14.1086   18.7273 C   0  0  0  0  0  0  0  0  0  0  0  0
    8.6205  -14.1192   18.7203 C   0  0  2  0  0  0  0  0  0  0  0  0
    8.1410  -12.8068   18.3791 N   0  0  0  0  0  0  0  0  0  0  0  0
    8.0828  -14.6206   19.9915 C   0  0  0  0  0  0  0  0  0  0  0  0
    7.5898  -13.8118   20.8117 O   0  0  0  0  0  0  0  0  0  0  0  0
    8.0986  -15.9844   20.3290 N   0  0  0  0  0  0  0  0  0  0  0  0
    7.6422  -16.4908   21.6196 C   0  0  1  0  0  0  0  0  0  0  0  0
    7.4590  -17.9926   21.5126 C   0  0  0  0  0  0  0  0  0  0  0  0
    6.2331  -18.3053   20.7546 C   0  0  0  0  0  0  0  0  0  0  0  0
    5.0713  -17.6029   20.7965 C   0  0  0  0  0  0  0  0  0  0  0  0
    4.1964  -18.2145   19.9593 N   0  0  0  0  0  0  0  0  0  0  0  0
    4.7897  -19.2776   19.4014 C   0  0  0  0  0  0  0  0  0  0  0  0
    6.0366  -19.3361   19.8861 N   0  0  0  0  0  0  0  0  0  0  0  0
    8.7079  -16.2613   22.6326 C   0  0  0  0  0  0  0  0  0  0  0  0
    9.9128  -16.4734   22.3259 O   0  0  0  0  0  0  0  0  0  0  0  0
    8.4456  -15.8083   23.9527 N   0  0  0  0  0  0  0  0  0  0  0  0
    9.4884  -15.5561   24.9394 C   0  0  1  0  0  0  0  0  0  0  0  0
    9.6703  -14.1059   25.2047 C   0  0  0  0  0  0  0  0  0  0  0  0
    8.4523  -13.4504   25.7153 C   0  0  0  0  0  0  0  0  0  0  0  0
    8.3265  -13.2391   27.0925 C   0  0  0  0  0  0  0  0  0  0  0  0
    7.1885  -12.6091   27.5276 C   0  0  0  0  0  0  0  0  0  0  0  0
    6.1676  -12.1720   26.7161 C   0  0  0  0  0  0  0  0  0  0  0  0
    6.3117  -12.3903   25.3611 C   0  0  0  0  0  0  0  0  0  0  0  0
    7.4315  -13.0181   24.8595 C   0  0  0  0  0  0  0  0  0  0  0  0
    9.2691  -16.3396   26.1703 C   0  0  0  0  0  0  0  0  0  0  0  0
    8.1601  -16.9685   26.2633 O   0  0  0  0  0  0  0  0  0  0  0  0
   10.1823  -16.4128   27.1773 O   0  0  0  0  0  0  0  0  0  0  0  0
  1  2  1  0
  2  3  1  0
  3  4  1  1
  3  5  1  0
  5  6  2  0
  7  5  1  0
  7  8  1  0
  8  9  1  6
  9 10  1  0
 10 14  1  0
 11 12  1  0
 11 10  2  0
 12 13  1  0
 13 14  2  0
 15  8  1  0
 15 16  2  0
 17 15  1  0
 18 17  1  0
 18 19  1  1
 20 19  1  0
 21 20  2  0
 22 21  1  0
 23 24  1  0
 23 22  2  0
 24 25  2  0
 25 20  1  0
 26 18  1  0
 27 26  2  0
 28 26  1  0
M  END
$$$$
