SHF.pdb
     RDKit          3D

 28 29  0  0  1  0  0  0  0  0999 V2000
   10.1064  -14.4070   16.4299 O   0  0  0  0  0  0  0  0  0  0  0  0
    8.8172  -14.7033   15.9957 C   0  0  0  0  0  0  0  0  0  0  0  0
    8.6206  -16.1958   15.9188 C   0  0  2  0  0  0  0  0  0  0  0  0
    7.3444  -16.4733   15.3161 N   0  0  0  0  0  0  0  0  0  0  0  0
    8.7900  -16.8265   17.2341 C   0  0  0  0  0  0  0  0  0  0  0  0
    7.8161  -16.8781   18.0206 O   0  0  0  0  0  0  0  0  0  0  0  0
   10.0122  -17.3803   17.6507 N   0  0  0  0  0  0  0  0  0  0  0  0
   10.1989  -18.0070   18.9556 C   0  0  1  0  0  0  0  0  0  0  0  0
   11.4288  -18.8924   18.8954 C   0  0  0  0  0  0  0  0  0  0  0  0
   11.4407  -19.8291   20.0347 C   0  0  0  0  0  0  0  0  0  0  0  0
   11.2053  -19.5055   21.3326 C   0  0  0  0  0  0  0  0  0  0  0  0
   11.3093  -20.6454   22.0608 N   0  0  0  0  0  0  0  0  0  0  0  0
   11.6033  -21.6651   21.2439 C   0  0  0  0  0  0  0  0  0  0  0  0
   11.6845  -21.1689   20.0029 N   0  0  0  0  0  0  0  0  0  0  0  0
   10.4826  -16.9494   19.9632 C   0  0  0  0  0  0  0  0  0  0  0  0
   11.3817  -16.0956   19.7316 O   0  0  0  0  0  0  0  0  0  0  0  0
    9.7876  -16.8398   21.1968 N   0  0  0  0  0  0  0  0  0  0  0  0
   10.0506  -15.7953   22.1791 C   0  0  1  0  0  0  0  0  0  0  0  0
    8.8175  -15.0591   22.5582 C   0  0  0  0  0  0  0  0  0  0  0  0
    8.1944  -14.3465   21.4277 C   0  0  0  0  0  0  0  0  0  0  0  0
    6.9077  -14.7175   21.0228 C   0  0  0  0  0  0  0  0  0  0  0  0
    6.3537  -14.0188   19.9807 C   0  0  0  0  0  0  0  0  0  0  0  0
    6.9648  -12.9865   19.3077 C   0  0  0  0  0  0  0  0  0  0  0  0
    8.2335  -12.6366   19.7230 C   0  0  0  0  0  0  0  0  0  0  0  0
    8.8464  -13.2994   20.7645 C   0  0  0  0  0  0  0  0  0  0  0  0
   10.7836  -16.3226   23.3460 C   0  0  0  0  0  0  0  0  0  0  0  0
   11.2669  -15.4630   24.1595 O   0  0  0  0  0  0  0  0  0  0  0  0
   10.9546  -17.6532   23.5772 O   0  0  0  0  0  0  0  0  0  0  0  0
  1  2  1  0
  2  3  1  0
  3  4  1  1
  3  5  1  0
  5  6  2  0
  7  5  1  0
  7  8  1  0
  8  9  1  6
  9 10  1  0
 10 14  1  0
 11 12  1  0
 11 10  2  0
 12 13  1  0
 13 14  2  0
 15  8  1  0
 15 16  2  0
 17 15  1  0
 18 17  1  0
 18 19  1  1
 20 19  1  0
 21 20  2  0
 22 21  1  0
 23 24  1  0
 23 22  2  0
 24 25  2  0
 25 20  1  0
 26 18  1  0
 27 26  2  0
 28 26  1  0
M  END
$$$$
