SHF.pdb
     RDKit          3D

 28 29  0  0  1  0  0  0  0  0999 V2000
   10.6582  -13.9716   19.2575 O   0  0  0  0  0  0  0  0  0  0  0  0
    9.7943  -14.4900   18.2965 C   0  0  0  0  0  0  0  0  0  0  0  0
    8.3648  -14.1652   18.6479 C   0  0  2  0  0  0  0  0  0  0  0  0
    8.1512  -12.7509   18.4958 N   0  0  0  0  0  0  0  0  0  0  0  0
    8.0154  -14.6639   19.9841 C   0  0  0  0  0  0  0  0  0  0  0  0
    7.9880  -13.8662   20.9498 O   0  0  0  0  0  0  0  0  0  0  0  0
    7.7071  -16.0131   20.2263 N   0  0  0  0  0  0  0  0  0  0  0  0
    7.2994  -16.5143   21.5351 C   0  0  1  0  0  0  0  0  0  0  0  0
    7.1084  -18.0160   21.4400 C   0  0  0  0  0  0  0  0  0  0  0  0
    6.7195  -18.5660   22.7521 C   0  0  0  0  0  0  0  0  0  0  0  0
    6.5723  -17.8554   23.9001 C   0  0  0  0  0  0  0  0  0  0  0  0
    6.2081  -18.7271   24.8737 N   0  0  0  0  0  0  0  0  0  0  0  0
    6.1269  -19.9590   24.3545 C   0  0  0  0  0  0  0  0  0  0  0  0
    6.4394  -19.8639   23.0560 N   0  0  0  0  0  0  0  0  0  0  0  0
    8.4037  -16.2846   22.5057 C   0  0  0  0  0  0  0  0  0  0  0  0
    9.5902  -16.5517   22.1717 O   0  0  0  0  0  0  0  0  0  0  0  0
    8.1989  -15.7715   23.8140 N   0  0  0  0  0  0  0  0  0  0  0  0
    9.2845  -15.4605   24.7359 C   0  0  1  0  0  0  0  0  0  0  0  0
    9.4625  -13.9972   24.9189 C   0  0  0  0  0  0  0  0  0  0  0  0
    8.2963  -13.3421   25.5392 C   0  0  0  0  0  0  0  0  0  0  0  0
    8.3719  -12.9610   26.8831 C   0  0  0  0  0  0  0  0  0  0  0  0
    7.2746  -12.3369   27.4193 C   0  0  0  0  0  0  0  0  0  0  0  0
    6.1120  -12.0593   26.7387 C   0  0  0  0  0  0  0  0  0  0  0  0
    6.0583  -12.4436   25.4144 C   0  0  0  0  0  0  0  0  0  0  0  0
    7.1272  -13.0750   24.8157 C   0  0  0  0  0  0  0  0  0  0  0  0
    9.1324  -16.1825   26.0136 C   0  0  0  0  0  0  0  0  0  0  0  0
   10.1167  -16.1273   26.8275 O   0  0  0  0  0  0  0  0  0  0  0  0
    8.0119  -16.8819   26.3433 O   0  0  0  0  0  0  0  0  0  0  0  0
  1  2  1  0
  2  3  1  0
  3  4  1  1
  3  5  1  0
  5  6  2  0
  7  5  1  0
  7  8  1  0
  8  9  1  6
  9 10  1  0
 10 14  1  0
 11 12  1  0
 11 10  2  0
 12 13  1  0
 13 14  2  0
 15  8  1  0
 15 16  2  0
 17 15  1  0
 18 17  1  0
 18 19  1  1
 20 19  1  0
 21 20  2  0
 22 21  1  0
 23 24  1  0
 23 22  2  0
 24 25  2  0
 25 20  1  0
 26 18  1  0
 27 26  2  0
 28 26  1  0
M  END
$$$$
