SHF.pdb
     RDKit          3D

 28 29  0  0  1  0  0  0  0  0999 V2000
   11.9277  -16.9764   18.6777 O   0  0  0  0  0  0  0  0  0  0  0  0
   12.3853  -17.8291   19.6787 C   0  0  0  0  0  0  0  0  0  0  0  0
   11.2706  -18.1533   20.6404 C   0  0  2  0  0  0  0  0  0  0  0  0
   10.2089  -18.8117   19.9273 N   0  0  0  0  0  0  0  0  0  0  0  0
   10.8260  -16.9574   21.3674 C   0  0  0  0  0  0  0  0  0  0  0  0
   11.6714  -16.2534   21.9670 O   0  0  0  0  0  0  0  0  0  0  0  0
    9.4775  -16.5664   21.4185 N   0  0  0  0  0  0  0  0  0  0  0  0
    9.0185  -15.3819   22.1373 C   0  0  1  0  0  0  0  0  0  0  0  0
    7.6737  -14.9647   21.5734 C   0  0  0  0  0  0  0  0  0  0  0  0
    7.8407  -14.3903   20.2252 C   0  0  0  0  0  0  0  0  0  0  0  0
    9.0077  -13.9504   19.6873 C   0  0  0  0  0  0  0  0  0  0  0  0
    8.7345  -13.5001   18.4371 N   0  0  0  0  0  0  0  0  0  0  0  0
    7.4270  -13.6513   18.1900 C   0  0  0  0  0  0  0  0  0  0  0  0
    6.8768  -14.1959   19.2825 N   0  0  0  0  0  0  0  0  0  0  0  0
    8.7911  -15.7405   23.5635 C   0  0  0  0  0  0  0  0  0  0  0  0
    8.0311  -16.7060   23.8480 O   0  0  0  0  0  0  0  0  0  0  0  0
    9.3907  -15.0468   24.6480 N   0  0  0  0  0  0  0  0  0  0  0  0
    9.1484  -15.3765   26.0471 C   0  0  1  0  0  0  0  0  0  0  0  0
    7.7346  -15.1468   26.4404 C   0  0  0  0  0  0  0  0  0  0  0  0
    7.4141  -13.7238   26.6553 C   0  0  0  0  0  0  0  0  0  0  0  0
    8.4242  -12.8643   27.1006 C   0  0  0  0  0  0  0  0  0  0  0  0
    8.0930  -11.5442   27.2702 C   0  0  0  0  0  0  0  0  0  0  0  0
    6.8494  -11.0050   27.0367 C   0  0  0  0  0  0  0  0  0  0  0  0
    5.8677  -11.8700   26.5980 C   0  0  0  0  0  0  0  0  0  0  0  0
    6.1357  -13.2085   26.4075 C   0  0  0  0  0  0  0  0  0  0  0  0
    9.6186  -16.7370   26.3714 C   0  0  0  0  0  0  0  0  0  0  0  0
    9.3372  -17.1816   27.5364 O   0  0  0  0  0  0  0  0  0  0  0  0
   10.3188  -17.5097   25.4963 O   0  0  0  0  0  0  0  0  0  0  0  0
  1  2  1  0
  2  3  1  0
  3  4  1  6
  3  5  1  0
  5  6  2  0
  7  5  1  0
  7  8  1  0
  8  9  1  6
  9 10  1  0
 10 14  1  0
 11 12  1  0
 11 10  2  0
 12 13  1  0
 13 14  2  0
 15  8  1  0
 15 16  2  0
 17 15  1  0
 18 17  1  0
 18 19  1  6
 20 19  1  0
 21 20  2  0
 22 21  1  0
 23 24  1  0
 23 22  2  0
 24 25  2  0
 25 20  1  0
 26 18  1  0
 27 26  2  0
 28 26  1  0
M  END
$$$$
