SHF.pdb
     RDKit          3D

 28 29  0  0  1  0  0  0  0  0999 V2000
    6.1318  -17.5841   24.7476 O   0  0  0  0  0  0  0  0  0  0  0  0
    5.6601  -18.4149   23.7347 C   0  0  0  0  0  0  0  0  0  0  0  0
    5.7960  -17.7367   22.3954 C   0  0  2  0  0  0  0  0  0  0  0  0
    5.3664  -18.6411   21.3628 N   0  0  0  0  0  0  0  0  0  0  0  0
    7.1575  -17.2263   22.1895 C   0  0  0  0  0  0  0  0  0  0  0  0
    8.0850  -18.0320   21.9438 O   0  0  0  0  0  0  0  0  0  0  0  0
    7.4655  -15.8572   22.2572 N   0  0  0  0  0  0  0  0  0  0  0  0
    8.8138  -15.3336   22.0612 C   0  0  1  0  0  0  0  0  0  0  0  0
    8.7100  -13.9196   21.5224 C   0  0  0  0  0  0  0  0  0  0  0  0
    8.4598  -13.9434   20.0690 C   0  0  0  0  0  0  0  0  0  0  0  0
    8.4456  -15.0508   19.2827 C   0  0  0  0  0  0  0  0  0  0  0  0
    8.1798  -14.6458   18.0155 N   0  0  0  0  0  0  0  0  0  0  0  0
    8.0296  -13.3151   18.0003 C   0  0  0  0  0  0  0  0  0  0  0  0
    8.2003  -12.8819   19.2558 N   0  0  0  0  0  0  0  0  0  0  0  0
    9.4918  -15.2387   23.3824 C   0  0  0  0  0  0  0  0  0  0  0  0
   10.5367  -14.5415   23.4960 O   0  0  0  0  0  0  0  0  0  0  0  0
    9.0242  -15.8998   24.5491 N   0  0  0  0  0  0  0  0  0  0  0  0
    9.7554  -15.9213   25.8100 C   0  0  1  0  0  0  0  0  0  0  0  0
    9.7477  -14.5983   26.4851 C   0  0  0  0  0  0  0  0  0  0  0  0
    8.4645  -13.8843   26.3517 C   0  0  0  0  0  0  0  0  0  0  0  0
    7.3692  -14.3181   27.1063 C   0  0  0  0  0  0  0  0  0  0  0  0
    6.1983  -13.6170   26.9699 C   0  0  0  0  0  0  0  0  0  0  0  0
    6.0212  -12.5256   26.1516 C   0  0  0  0  0  0  0  0  0  0  0  0
    7.1141  -12.1145   25.4162 C   0  0  0  0  0  0  0  0  0  0  0  0
    8.3197  -12.7761   25.5078 C   0  0  0  0  0  0  0  0  0  0  0  0
    9.2902  -17.0135   26.6863 C   0  0  0  0  0  0  0  0  0  0  0  0
    9.9229  -17.1804   27.7845 O   0  0  0  0  0  0  0  0  0  0  0  0
    8.2409  -17.8221   26.3728 O   0  0  0  0  0  0  0  0  0  0  0  0
  1  2  1  0
  2  3  1  0
  3  4  1  6
  3  5  1  0
  5  6  2  0
  7  5  1  0
  7  8  1  0
  8  9  1  1
  9 10  1  0
 10 14  1  0
 11 12  1  0
 11 10  2  0
 12 13  1  0
 13 14  2  0
 15  8  1  0
 15 16  2  0
 17 15  1  0
 18 17  1  0
 18 19  1  1
 20 19  1  0
 21 20  2  0
 22 21  1  0
 23 24  1  0
 23 22  2  0
 24 25  2  0
 25 20  1  0
 26 18  1  0
 27 26  2  0
 28 26  1  0
M  END
$$$$
