HGV.pdb
     RDKit          3D

 22 22  0  0  1  0  0  0  0  0999 V2000
    7.3011  -15.3305   20.3168 N   0  0  0  0  0  0  0  0  0  0  0  0
    7.8339  -16.6477   20.0256 C   0  0  1  0  0  0  0  0  0  0  0  0
    8.8999  -16.4916   18.9883 C   0  0  0  0  0  0  0  0  0  0  0  0
    8.5347  -15.3696   18.0896 C   0  0  0  0  0  0  0  0  0  0  0  0
    7.7487  -15.3687   16.9395 C   0  0  0  0  0  0  0  0  0  0  0  0
    7.6892  -14.1255   16.4412 N   0  0  0  0  0  0  0  0  0  0  0  0
    8.4127  -13.3252   17.2345 C   0  0  0  0  0  0  0  0  0  0  0  0
    8.9237  -14.0670   18.2274 N   0  0  0  0  0  0  0  0  0  0  0  0
    8.3518  -17.2103   21.2973 C   0  0  0  0  0  0  0  0  0  0  0  0
    8.5528  -18.4458   21.4039 O   0  0  0  0  0  0  0  0  0  0  0  0
    8.6442  -16.4273   22.4337 N   0  0  0  0  0  0  0  0  0  0  0  0
    9.1044  -16.9867   23.6897 C   0  0  0  0  0  0  0  0  0  0  0  0
    9.2396  -15.9156   24.7271 C   0  0  0  0  0  0  0  0  0  0  0  0
   10.3715  -15.5510   25.1070 O   0  0  0  0  0  0  0  0  0  0  0  0
    7.0548  -12.2773   27.3004 C   0  0  0  0  0  0  0  0  0  0  0  0
    6.8818  -13.4304   26.3408 C   0  0  1  0  0  0  0  0  0  0  0  0
    6.5748  -12.8024   24.9747 C   0  0  0  0  0  0  0  0  0  0  0  0
    8.1875  -14.2130   26.2563 C   0  0  2  0  0  0  0  0  0  0  0  0
    8.1048  -15.2870   25.3062 N   0  0  0  0  0  0  0  0  0  0  0  0
    8.6351  -14.6280   27.5870 C   0  0  0  0  0  0  0  0  0  0  0  0
    8.3274  -15.7676   28.0055 O   0  0  0  0  0  0  0  0  0  0  0  0
    9.3877  -13.8291   28.4241 O   0  0  0  0  0  0  0  0  0  0  0  0
  2  1  1  1
  3  4  1  0
  3  2  1  0
  4  8  1  0
  5  6  1  0
  5  4  2  0
  6  7  1  0
  7  8  2  0
  9  2  1  0
  9 11  1  0
 10  9  2  0
 12 11  1  0
 12 13  1  0
 13 19  1  0
 14 13  2  0
 16 15  1  1
 16 17  1  0
 18 16  1  0
 18 19  1  6
 20 22  1  0
 20 18  1  0
 21 20  2  0
M  END
$$$$
