HGV.pdb
     RDKit          3D

 22 22  0  0  1  0  0  0  0  0999 V2000
    7.7955  -16.6869   19.8319 N   0  0  0  0  0  0  0  0  0  0  0  0
    8.3397  -15.4853   20.4347 C   0  0  1  0  0  0  0  0  0  0  0  0
    7.5292  -14.3241   19.9539 C   0  0  0  0  0  0  0  0  0  0  0  0
    7.7524  -14.1528   18.4977 C   0  0  0  0  0  0  0  0  0  0  0  0
    8.4248  -13.1438   17.8118 C   0  0  0  0  0  0  0  0  0  0  0  0
    8.3762  -13.3911   16.4950 N   0  0  0  0  0  0  0  0  0  0  0  0
    7.6932  -14.5281   16.3110 C   0  0  0  0  0  0  0  0  0  0  0  0
    7.3154  -14.9912   17.5111 N   0  0  0  0  0  0  0  0  0  0  0  0
    8.2753  -15.6567   21.9073 C   0  0  0  0  0  0  0  0  0  0  0  0
    8.9499  -14.9093   22.6586 O   0  0  0  0  0  0  0  0  0  0  0  0
    7.4819  -16.6341   22.5439 N   0  0  0  0  0  0  0  0  0  0  0  0
    7.5497  -16.9134   23.9650 C   0  0  0  0  0  0  0  0  0  0  0  0
    8.0882  -15.7320   24.7107 C   0  0  0  0  0  0  0  0  0  0  0  0
    9.3009  -15.4452   24.6379 O   0  0  0  0  0  0  0  0  0  0  0  0
    7.2348  -11.7998   27.6243 C   0  0  0  0  0  0  0  0  0  0  0  0
    6.6348  -12.9352   26.8299 C   0  0  1  0  0  0  0  0  0  0  0  0
    5.9771  -12.2919   25.6017 C   0  0  0  0  0  0  0  0  0  0  0  0
    7.7479  -13.8726   26.3754 C   0  0  2  0  0  0  0  0  0  0  0  0
    7.2531  -14.9095   25.5135 N   0  0  0  0  0  0  0  0  0  0  0  0
    8.5160  -14.3655   27.5201 C   0  0  0  0  0  0  0  0  0  0  0  0
    8.2339  -15.4845   28.0069 O   0  0  0  0  0  0  0  0  0  0  0  0
    9.5491  -13.6632   28.1072 O   0  0  0  0  0  0  0  0  0  0  0  0
  2  1  1  6
  3  4  1  0
  3  2  1  0
  4  8  1  0
  5  6  1  0
  5  4  2  0
  6  7  1  0
  7  8  2  0
  9  2  1  0
  9 11  1  0
 10  9  2  0
 12 11  1  0
 12 13  1  0
 13 19  1  0
 14 13  2  0
 16 15  1  1
 16 17  1  0
 18 16  1  0
 18 19  1  1
 20 22  1  0
 20 18  1  0
 21 20  2  0
M  END
$$$$
