HGV.pdb
     RDKit          3D

 22 22  0  0  1  0  0  0  0  0999 V2000
    5.3111  -18.1249   21.9023 N   0  0  0  0  0  0  0  0  0  0  0  0
    6.1622  -18.8390   20.9701 C   0  0  1  0  0  0  0  0  0  0  0  0
    5.3727  -19.0832   19.7236 C   0  0  0  0  0  0  0  0  0  0  0  0
    4.1751  -19.8892   20.0640 C   0  0  0  0  0  0  0  0  0  0  0  0
    4.0718  -21.0593   20.8128 C   0  0  0  0  0  0  0  0  0  0  0  0
    2.7890  -21.4460   20.8609 N   0  0  0  0  0  0  0  0  0  0  0  0
    2.0624  -20.5614   20.1662 C   0  0  0  0  0  0  0  0  0  0  0  0
    2.8897  -19.6229   19.6844 N   0  0  0  0  0  0  0  0  0  0  0  0
    7.3633  -18.0009   20.7309 C   0  0  0  0  0  0  0  0  0  0  0  0
    8.2723  -18.4069   19.9648 O   0  0  0  0  0  0  0  0  0  0  0  0
    7.5619  -16.7367   21.3245 N   0  0  0  0  0  0  0  0  0  0  0  0
    8.7686  -15.9532   21.1454 C   0  0  0  0  0  0  0  0  0  0  0  0
    9.2023  -15.3466   22.4437 C   0  0  0  0  0  0  0  0  0  0  0  0
   10.2695  -14.7022   22.5083 O   0  0  0  0  0  0  0  0  0  0  0  0
    8.0066  -13.3221   26.6745 C   0  0  0  0  0  0  0  0  0  0  0  0
    7.5609  -14.1001   25.4595 C   0  0  1  0  0  0  0  0  0  0  0  0
    7.0579  -13.0589   24.4506 C   0  0  0  0  0  0  0  0  0  0  0  0
    8.7571  -14.8393   24.8704 C   0  0  2  0  0  0  0  0  0  0  0  0
    8.4286  -15.4803   23.6277 N   0  0  0  0  0  0  0  0  0  0  0  0
    9.3585  -15.7335   25.8613 C   0  0  0  0  0  0  0  0  0  0  0  0
    8.9627  -16.9197   25.9313 O   0  0  0  0  0  0  0  0  0  0  0  0
   10.3513  -15.3457   26.7383 O   0  0  0  0  0  0  0  0  0  0  0  0
  2  1  1  1
  3  4  1  0
  3  2  1  0
  4  8  1  0
  5  6  1  0
  5  4  2  0
  6  7  1  0
  7  8  2  0
  9  2  1  0
  9 11  1  0
 10  9  2  0
 12 11  1  0
 12 13  1  0
 13 19  1  0
 14 13  2  0
 16 15  1  1
 16 17  1  0
 18 16  1  0
 18 19  1  6
 20 22  1  0
 20 18  1  0
 21 20  2  0
M  END
$$$$
