HGV.pdb
     RDKit          3D

 22 22  0  0  1  0  0  0  0  0999 V2000
    9.3588  -14.5427   19.7604 N   0  0  0  0  0  0  0  0  0  0  0  0
    7.9128  -14.6522   19.7884 C   0  0  1  0  0  0  0  0  0  0  0  0
    7.5011  -15.5660   18.6784 C   0  0  0  0  0  0  0  0  0  0  0  0
    7.6907  -14.8658   17.3847 C   0  0  0  0  0  0  0  0  0  0  0  0
    8.1975  -13.5943   17.1255 C   0  0  0  0  0  0  0  0  0  0  0  0
    8.1834  -13.3698   15.8039 N   0  0  0  0  0  0  0  0  0  0  0  0
    7.6832  -14.4570   15.2033 C   0  0  0  0  0  0  0  0  0  0  0  0
    7.3850  -15.3602   16.1481 N   0  0  0  0  0  0  0  0  0  0  0  0
    7.5305  -15.1691   21.1258 C   0  0  0  0  0  0  0  0  0  0  0  0
    6.3192  -15.2397   21.4512 O   0  0  0  0  0  0  0  0  0  0  0  0
    8.4649  -15.6015   22.0902 N   0  0  0  0  0  0  0  0  0  0  0  0
    8.0899  -16.0581   23.4142 C   0  0  0  0  0  0  0  0  0  0  0  0
    8.6219  -15.1315   24.4631 C   0  0  0  0  0  0  0  0  0  0  0  0
    9.8482  -14.9120   24.5411 O   0  0  0  0  0  0  0  0  0  0  0  0
    7.1785  -11.6976   25.4198 C   0  0  0  0  0  0  0  0  0  0  0  0
    7.3375  -12.4603   26.7133 C   0  0  1  0  0  0  0  0  0  0  0  0
    5.9316  -12.9406   27.0976 C   0  0  0  0  0  0  0  0  0  0  0  0
    8.2379  -13.6676   26.4765 C   0  0  2  0  0  0  0  0  0  0  0  0
    7.7652  -14.4805   25.3907 N   0  0  0  0  0  0  0  0  0  0  0  0
    8.4597  -14.4062   27.7209 C   0  0  0  0  0  0  0  0  0  0  0  0
    9.0723  -13.8479   28.6599 O   0  0  0  0  0  0  0  0  0  0  0  0
    8.0291  -15.7011   27.9286 O   0  0  0  0  0  0  0  0  0  0  0  0
  2  1  1  1
  3  4  1  0
  3  2  1  0
  4  8  1  0
  5  6  1  0
  5  4  2  0
  6  7  1  0
  7  8  2  0
  9  2  1  0
  9 11  1  0
 10  9  2  0
 12 11  1  0
 12 13  1  0
 13 19  1  0
 14 13  2  0
 16 15  1  6
 16 17  1  0
 18 16  1  0
 18 19  1  6
 20 22  1  0
 20 18  1  0
 21 20  2  0
M  END
$$$$
