HGV.pdb
     RDKit          3D

 22 22  0  0  1  0  0  0  0  0999 V2000
    7.6937  -16.8456   20.0944 N   0  0  0  0  0  0  0  0  0  0  0  0
    7.7339  -15.6120   20.8561 C   0  0  1  0  0  0  0  0  0  0  0  0
    6.7016  -14.6900   20.2898 C   0  0  0  0  0  0  0  0  0  0  0  0
    7.2467  -14.0523   19.0666 C   0  0  0  0  0  0  0  0  0  0  0  0
    8.0528  -12.9240   18.9336 C   0  0  0  0  0  0  0  0  0  0  0  0
    8.3030  -12.7056   17.6347 N   0  0  0  0  0  0  0  0  0  0  0  0
    7.6831  -13.6581   16.9266 C   0  0  0  0  0  0  0  0  0  0  0  0
    7.0462  -14.4710   17.7815 N   0  0  0  0  0  0  0  0  0  0  0  0
    7.4754  -15.9562   22.2763 C   0  0  0  0  0  0  0  0  0  0  0  0
    6.3584  -16.4174   22.6194 O   0  0  0  0  0  0  0  0  0  0  0  0
    8.4296  -15.7959   23.3029 N   0  0  0  0  0  0  0  0  0  0  0  0
    8.1770  -16.1458   24.6870 C   0  0  0  0  0  0  0  0  0  0  0  0
    9.3871  -15.8814   25.5282 C   0  0  0  0  0  0  0  0  0  0  0  0
   10.4837  -15.6313   24.9867 O   0  0  0  0  0  0  0  0  0  0  0  0
   10.0851  -13.2433   27.6587 C   0  0  0  0  0  0  0  0  0  0  0  0
   10.3351  -14.3970   28.6003 C   0  0  1  0  0  0  0  0  0  0  0  0
    9.0938  -14.4880   29.4980 C   0  0  0  0  0  0  0  0  0  0  0  0
   10.4714  -15.6832   27.7930 C   0  0  2  0  0  0  0  0  0  0  0  0
    9.3317  -15.9053   26.9476 N   0  0  0  0  0  0  0  0  0  0  0  0
   10.7971  -16.8144   28.6633 C   0  0  0  0  0  0  0  0  0  0  0  0
    9.9117  -17.6635   28.9160 O   0  0  0  0  0  0  0  0  0  0  0  0
   12.0394  -17.0080   29.2329 O   0  0  0  0  0  0  0  0  0  0  0  0
  2  1  1  6
  3  4  1  0
  3  2  1  0
  4  8  1  0
  5  6  1  0
  5  4  2  0
  6  7  1  0
  7  8  2  0
  9  2  1  0
  9 11  1  0
 10  9  2  0
 12 11  1  0
 12 13  1  0
 13 19  1  0
 14 13  2  0
 16 15  1  6
 16 17  1  0
 18 16  1  0
 18 19  1  1
 20 22  1  0
 20 18  1  0
 21 20  2  0
M  END
$$$$
