HGV.pdb
     RDKit          3D

 22 22  0  0  1  0  0  0  0  0999 V2000
    8.5392  -17.3236   19.7768 N   0  0  0  0  0  0  0  0  0  0  0  0
    9.1732  -17.9681   20.9108 C   0  0  1  0  0  0  0  0  0  0  0  0
   10.6219  -17.5967   20.8979 C   0  0  0  0  0  0  0  0  0  0  0  0
   11.2944  -18.3250   19.7947 C   0  0  0  0  0  0  0  0  0  0  0  0
   11.4628  -19.6946   19.6035 C   0  0  0  0  0  0  0  0  0  0  0  0
   12.1388  -19.9059   18.4652 N   0  0  0  0  0  0  0  0  0  0  0  0
   12.4114  -18.7150   17.9170 C   0  0  0  0  0  0  0  0  0  0  0  0
   11.9065  -17.7604   18.7113 N   0  0  0  0  0  0  0  0  0  0  0  0
    8.4751  -17.5038   22.1352 C   0  0  0  0  0  0  0  0  0  0  0  0
    8.8072  -17.9556   23.2594 O   0  0  0  0  0  0  0  0  0  0  0  0
    7.4286  -16.5579   22.1241 N   0  0  0  0  0  0  0  0  0  0  0  0
    6.8166  -16.0325   23.3289 C   0  0  0  0  0  0  0  0  0  0  0  0
    7.7479  -15.0908   24.0271 C   0  0  0  0  0  0  0  0  0  0  0  0
    8.8645  -14.8324   23.5324 O   0  0  0  0  0  0  0  0  0  0  0  0
    7.2211  -11.6072   24.7983 C   0  0  0  0  0  0  0  0  0  0  0  0
    7.5724  -12.1900   26.1463 C   0  0  1  0  0  0  0  0  0  0  0  0
    6.2403  -12.3925   26.8806 C   0  0  0  0  0  0  0  0  0  0  0  0
    8.2513  -13.5406   25.9475 C   0  0  2  0  0  0  0  0  0  0  0  0
    7.4004  -14.4684   25.2561 N   0  0  0  0  0  0  0  0  0  0  0  0
    8.7833  -14.0493   27.2130 C   0  0  0  0  0  0  0  0  0  0  0  0
    9.6548  -13.3845   27.8189 O   0  0  0  0  0  0  0  0  0  0  0  0
    8.3783  -15.2357   27.7908 O   0  0  0  0  0  0  0  0  0  0  0  0
  2  1  1  6
  3  4  1  0
  3  2  1  0
  4  8  1  0
  5  6  1  0
  5  4  2  0
  6  7  1  0
  7  8  2  0
  9  2  1  0
  9 11  1  0
 10  9  2  0
 12 11  1  0
 12 13  1  0
 13 19  1  0
 14 13  2  0
 16 15  1  6
 16 17  1  0
 18 16  1  0
 18 19  1  1
 20 22  1  0
 20 18  1  0
 21 20  2  0
M  END
$$$$
