HGV.pdb
     RDKit          3D

 22 22  0  0  1  0  0  0  0  0999 V2000
    6.8447  -17.1994   20.3651 N   0  0  0  0  0  0  0  0  0  0  0  0
    7.4784  -15.9602   20.7730 C   0  0  1  0  0  0  0  0  0  0  0  0
    6.6979  -14.8301   20.1811 C   0  0  0  0  0  0  0  0  0  0  0  0
    7.2530  -14.5122   18.8430 C   0  0  0  0  0  0  0  0  0  0  0  0
    8.3091  -15.1031   18.1530 C   0  0  0  0  0  0  0  0  0  0  0  0
    8.4676  -14.4906   16.9710 N   0  0  0  0  0  0  0  0  0  0  0  0
    7.5464  -13.5232   16.8779 C   0  0  0  0  0  0  0  0  0  0  0  0
    6.8130  -13.5308   18.0001 N   0  0  0  0  0  0  0  0  0  0  0  0
    7.4891  -15.9322   22.2566 C   0  0  0  0  0  0  0  0  0  0  0  0
    6.4615  -15.5796   22.8875 O   0  0  0  0  0  0  0  0  0  0  0  0
    8.6115  -16.2860   23.0345 N   0  0  0  0  0  0  0  0  0  0  0  0
    9.7877  -15.4481   23.1632 C   0  0  0  0  0  0  0  0  0  0  0  0
    9.8258  -14.7940   24.5095 C   0  0  0  0  0  0  0  0  0  0  0  0
   10.9046  -14.3626   24.9659 O   0  0  0  0  0  0  0  0  0  0  0  0
    7.5272  -12.0881   25.7155 C   0  0  0  0  0  0  0  0  0  0  0  0
    7.5122  -13.1055   26.8312 C   0  0  1  0  0  0  0  0  0  0  0  0
    6.1745  -13.8476   26.7101 C   0  0  0  0  0  0  0  0  0  0  0  0
    8.6579  -14.0906   26.6274 C   0  0  2  0  0  0  0  0  0  0  0  0
    8.6562  -14.6436   25.3018 N   0  0  0  0  0  0  0  0  0  0  0  0
    8.6787  -15.0953   27.6920 C   0  0  0  0  0  0  0  0  0  0  0  0
    8.8232  -14.7226   28.8789 O   0  0  0  0  0  0  0  0  0  0  0  0
    8.5469  -16.4508   27.4668 O   0  0  0  0  0  0  0  0  0  0  0  0
  2  1  1  1
  3  4  1  0
  3  2  1  0
  4  8  1  0
  5  6  1  0
  5  4  2  0
  6  7  1  0
  7  8  2  0
  9  2  1  0
  9 11  1  0
 10  9  2  0
 12 11  1  0
 12 13  1  0
 13 19  1  0
 14 13  2  0
 16 15  1  6
 16 17  1  0
 18 16  1  0
 18 19  1  6
 20 22  1  0
 20 18  1  0
 21 20  2  0
M  END
$$$$
