HGV.pdb
     RDKit          3D

 22 22  0  0  1  0  0  0  0  0999 V2000
    8.3737  -16.2210   20.5234 N   0  0  0  0  0  0  0  0  0  0  0  0
    7.9821  -14.9803   21.1642 C   0  0  1  0  0  0  0  0  0  0  0  0
    6.8283  -14.4141   20.3995 C   0  0  0  0  0  0  0  0  0  0  0  0
    7.2729  -14.1043   19.0189 C   0  0  0  0  0  0  0  0  0  0  0  0
    7.9978  -13.0157   18.5393 C   0  0  0  0  0  0  0  0  0  0  0  0
    8.1719  -13.1441   17.2162 N   0  0  0  0  0  0  0  0  0  0  0  0
    7.5816  -14.2817   16.8282 C   0  0  0  0  0  0  0  0  0  0  0  0
    7.0391  -14.8638   17.9072 N   0  0  0  0  0  0  0  0  0  0  0  0
    7.6351  -15.2956   22.5721 C   0  0  0  0  0  0  0  0  0  0  0  0
    7.2994  -14.3760   23.3593 O   0  0  0  0  0  0  0  0  0  0  0  0
    7.6568  -16.6011   23.1062 N   0  0  0  0  0  0  0  0  0  0  0  0
    7.3843  -16.8967   24.4992 C   0  0  0  0  0  0  0  0  0  0  0  0
    8.5224  -16.4544   25.3657 C   0  0  0  0  0  0  0  0  0  0  0  0
    9.7001  -16.6443   24.9979 O   0  0  0  0  0  0  0  0  0  0  0  0
   10.1481  -13.4439   28.8705 C   0  0  0  0  0  0  0  0  0  0  0  0
    8.9402  -14.0523   28.1990 C   0  0  1  0  0  0  0  0  0  0  0  0
    8.4366  -13.0019   27.2001 C   0  0  0  0  0  0  0  0  0  0  0  0
    9.3648  -15.3067   27.4435 C   0  0  2  0  0  0  0  0  0  0  0  0
    8.3066  -15.8142   26.6155 N   0  0  0  0  0  0  0  0  0  0  0  0
    9.9347  -16.2989   28.3567 C   0  0  0  0  0  0  0  0  0  0  0  0
   11.0188  -16.0468   28.9310 O   0  0  0  0  0  0  0  0  0  0  0  0
    9.3428  -17.5157   28.6298 O   0  0  0  0  0  0  0  0  0  0  0  0
  2  1  1  6
  3  4  1  0
  3  2  1  0
  4  8  1  0
  5  6  1  0
  5  4  2  0
  6  7  1  0
  7  8  2  0
  9  2  1  0
  9 11  1  0
 10  9  2  0
 12 11  1  0
 12 13  1  0
 13 19  1  0
 14 13  2  0
 16 15  1  6
 16 17  1  0
 18 16  1  0
 18 19  1  1
 20 22  1  0
 20 18  1  0
 21 20  2  0
M  END
$$$$
