HGV.pdb
     RDKit          3D

 22 22  0  0  1  0  0  0  0  0999 V2000
    9.3890  -14.9691   20.6733 N   0  0  0  0  0  0  0  0  0  0  0  0
    8.0751  -14.5189   21.0911 C   0  0  1  0  0  0  0  0  0  0  0  0
    7.0920  -14.9430   20.0470 C   0  0  0  0  0  0  0  0  0  0  0  0
    7.4856  -14.3475   18.7469 C   0  0  0  0  0  0  0  0  0  0  0  0
    8.0333  -13.0972   18.4688 C   0  0  0  0  0  0  0  0  0  0  0  0
    8.2277  -12.9795   17.1475 N   0  0  0  0  0  0  0  0  0  0  0  0
    7.8221  -14.1153   16.5655 C   0  0  0  0  0  0  0  0  0  0  0  0
    7.3748  -14.9419   17.5215 N   0  0  0  0  0  0  0  0  0  0  0  0
    7.7972  -15.1241   22.4172 C   0  0  0  0  0  0  0  0  0  0  0  0
    6.7251  -14.8619   23.0172 O   0  0  0  0  0  0  0  0  0  0  0  0
    8.6838  -16.0036   23.0734 N   0  0  0  0  0  0  0  0  0  0  0  0
    8.4534  -16.5168   24.4097 C   0  0  0  0  0  0  0  0  0  0  0  0
    9.5711  -16.1258   25.3259 C   0  0  0  0  0  0  0  0  0  0  0  0
   10.7416  -16.0664   24.8962 O   0  0  0  0  0  0  0  0  0  0  0  0
    9.8549  -13.0534   27.0877 C   0  0  0  0  0  0  0  0  0  0  0  0
   10.1109  -14.0397   28.2021 C   0  0  1  0  0  0  0  0  0  0  0  0
    8.8191  -14.0896   29.0290 C   0  0  0  0  0  0  0  0  0  0  0  0
   10.3816  -15.4151   27.6024 C   0  0  2  0  0  0  0  0  0  0  0  0
    9.3437  -15.8140   26.6932 N   0  0  0  0  0  0  0  0  0  0  0  0
   10.6639  -16.3962   28.6517 C   0  0  0  0  0  0  0  0  0  0  0  0
   11.7013  -16.2690   29.3417 O   0  0  0  0  0  0  0  0  0  0  0  0
    9.8452  -17.4712   28.9336 O   0  0  0  0  0  0  0  0  0  0  0  0
  2  1  1  6
  3  4  1  0
  3  2  1  0
  4  8  1  0
  5  6  1  0
  5  4  2  0
  6  7  1  0
  7  8  2  0
  9  2  1  0
  9 11  1  0
 10  9  2  0
 12 11  1  0
 12 13  1  0
 13 19  1  0
 14 13  2  0
 16 15  1  6
 16 17  1  0
 18 16  1  0
 18 19  1  1
 20 22  1  0
 20 18  1  0
 21 20  2  0
M  END
$$$$
