HGV.pdb
     RDKit          3D

 22 22  0  0  1  0  0  0  0  0999 V2000
    8.6785  -18.2688   20.8956 N   0  0  0  0  0  0  0  0  0  0  0  0
    8.9972  -16.8668   20.7048 C   0  0  1  0  0  0  0  0  0  0  0  0
    8.0888  -16.3307   19.6447 C   0  0  0  0  0  0  0  0  0  0  0  0
    8.6173  -16.7238   18.3157 C   0  0  0  0  0  0  0  0  0  0  0  0
    9.7901  -17.4002   17.9877 C   0  0  0  0  0  0  0  0  0  0  0  0
    9.8675  -17.5382   16.6563 N   0  0  0  0  0  0  0  0  0  0  0  0
    8.7810  -16.9716   16.1163 C   0  0  0  0  0  0  0  0  0  0  0  0
    8.0253  -16.4801   17.1086 N   0  0  0  0  0  0  0  0  0  0  0  0
    8.8154  -16.1864   22.0110 C   0  0  0  0  0  0  0  0  0  0  0  0
    9.1039  -14.9698   22.1331 O   0  0  0  0  0  0  0  0  0  0  0  0
    8.3244  -16.8330   23.1646 N   0  0  0  0  0  0  0  0  0  0  0  0
    8.0627  -16.1445   24.4134 C   0  0  0  0  0  0  0  0  0  0  0  0
    9.3010  -16.0838   25.2528 C   0  0  0  0  0  0  0  0  0  0  0  0
   10.4229  -16.2315   24.7257 O   0  0  0  0  0  0  0  0  0  0  0  0
   10.1517  -13.2257   27.2696 C   0  0  0  0  0  0  0  0  0  0  0  0
   10.3557  -14.3601   28.2451 C   0  0  1  0  0  0  0  0  0  0  0  0
    9.1283  -14.3529   29.1661 C   0  0  0  0  0  0  0  0  0  0  0  0
   10.4064  -15.6774   27.4794 C   0  0  2  0  0  0  0  0  0  0  0  0
    9.2447  -15.8598   26.6547 N   0  0  0  0  0  0  0  0  0  0  0  0
   10.6772  -16.7970   28.3830 C   0  0  0  0  0  0  0  0  0  0  0  0
   11.7975  -16.8755   28.9373 O   0  0  0  0  0  0  0  0  0  0  0  0
    9.7602  -17.7887   28.6678 O   0  0  0  0  0  0  0  0  0  0  0  0
  2  1  1  1
  3  4  1  0
  3  2  1  0
  4  8  1  0
  5  6  1  0
  5  4  2  0
  6  7  1  0
  7  8  2  0
  9  2  1  0
  9 11  1  0
 10  9  2  0
 12 11  1  0
 12 13  1  0
 13 19  1  0
 14 13  2  0
 16 15  1  6
 16 17  1  0
 18 16  1  0
 18 19  1  1
 20 22  1  0
 20 18  1  0
 21 20  2  0
M  END
$$$$
