RPK.pdb
     RDKit          3D

 28 28  0  0  1  0  0  0  0  0999 V2000
   11.5693  -20.5131   16.5321 N   0  0  0  0  0  0  0  0  0  0  0  0
   11.3529  -19.2726   15.8670 C   0  0  0  0  0  0  0  0  0  0  0  0
   11.3459  -19.2704   14.5653 N   0  0  0  0  0  0  0  0  0  0  0  0
   11.1524  -18.0828   16.6050 N   0  0  0  0  0  0  0  0  0  0  0  0
   11.0169  -18.1176   18.0315 C   0  0  0  0  0  0  0  0  0  0  0  0
   10.7307  -16.7491   18.6169 C   0  0  0  0  0  0  0  0  0  0  0  0
   11.8480  -15.7850   18.3878 C   0  0  0  0  0  0  0  0  0  0  0  0
   11.4474  -14.3541   18.6931 C   0  0  2  0  0  0  0  0  0  0  0  0
   12.6981  -13.5980   18.6580 N   0  0  0  0  0  0  0  0  0  0  0  0
   10.8207  -14.2859   20.0718 C   0  0  0  0  0  0  0  0  0  0  0  0
   11.5129  -14.8643   20.9481 O   0  0  0  0  0  0  0  0  0  0  0  0
   11.1736  -18.4281   14.0016 N   0  0  0  0  0  0  0  0  0  0  0  0
    9.6071  -13.6348   20.2664 C   0  0  0  0  0  0  0  0  0  0  0  0
    9.1017  -12.5983   19.3379 C   0  0  0  0  0  0  0  0  0  0  0  0
    7.7131  -13.1497   19.1045 C   0  0  0  0  0  0  0  0  0  0  0  0
    7.3534  -13.8916   20.3761 C   0  0  2  0  0  0  0  0  0  0  0  0
    8.6030  -13.6714   21.2544 C   0  0  0  0  0  0  0  0  0  0  0  0
    8.6605  -14.6332   22.3311 O   0  0  0  0  0  0  0  0  0  0  0  0
    8.6234  -15.8609   22.1769 N   0  0  0  0  0  0  0  0  0  0  0  0
    8.7681  -14.1294   23.6719 C   0  0  1  0  0  0  0  0  0  0  0  0
    8.9758  -15.0293   24.7984 C   0  0  0  0  0  0  0  0  0  0  0  0
    8.9015  -14.2947   26.1198 C   0  0  0  0  0  0  0  0  0  0  0  0
    9.1517  -15.1868   27.2894 C   0  0  0  0  0  0  0  0  0  0  0  0
    9.9293  -14.4745   28.3621 C   0  0  0  0  0  0  0  0  0  0  0  0
   10.1667  -15.3929   29.5404 N   0  0  0  0  0  0  0  0  0  0  0  0
   10.9931  -14.7051   30.5333 C   0  0  0  0  0  0  0  0  0  0  0  0
    7.9432  -16.0788   24.7545 O   0  0  0  0  0  0  0  0  0  0  0  0
    6.6765  -15.8350   24.2368 O   0  0  0  0  0  0  0  0  0  0  0  0
  2  4  1  0
  2  1  1  0
  3  2  2  0
  5  4  1  0
  6  5  1  0
  7  6  1  0
  8  7  1  0
  8  9  1  1
 10  8  1  0
 11 10  2  0
 12 16  1  0
 12 10  1  0
 13 14  1  0
 13 12  1  0
 15 14  1  0
 15 16  1  0
 17 19  1  0
 16 17  1  6
 18 17  2  0
 20 19  1  0
 20 21  1  1
 22 21  1  0
 23 22  1  0
 23 24  1  0
 24 25  1  0
 26 20  1  0
 27 26  1  0
 28 26  2  0
M  END
$$$$
