RPK.pdb
     RDKit          3D

 28 28  0  0  1  0  0  0  0  0999 V2000
    8.7948  -14.1554   16.6409 N   0  0  0  0  0  0  0  0  0  0  0  0
    9.4706  -15.3069   17.1364 C   0  0  0  0  0  0  0  0  0  0  0  0
   10.5341  -15.7104   16.5037 N   0  0  0  0  0  0  0  0  0  0  0  0
    8.9947  -15.9865   18.2819 N   0  0  0  0  0  0  0  0  0  0  0  0
    7.5911  -16.0560   18.5641 C   0  0  0  0  0  0  0  0  0  0  0  0
    7.0370  -14.7355   19.0606 C   0  0  0  0  0  0  0  0  0  0  0  0
    6.7425  -14.7540   20.5247 C   0  0  0  0  0  0  0  0  0  0  0  0
    7.2722  -13.5231   21.2356 C   0  0  2  0  0  0  0  0  0  0  0  0
    8.0494  -12.8098   20.2235 N   0  0  0  0  0  0  0  0  0  0  0  0
    8.1593  -13.9463   22.3898 C   0  0  0  0  0  0  0  0  0  0  0  0
    9.1308  -14.6542   22.0202 O   0  0  0  0  0  0  0  0  0  0  0  0
   11.0875  -16.5279   16.7908 N   0  0  0  0  0  0  0  0  0  0  0  0
    7.8638  -13.5533   23.6909 C   0  0  0  0  0  0  0  0  0  0  0  0
    7.4022  -12.1867   24.0245 C   0  0  0  0  0  0  0  0  0  0  0  0
    6.1797  -12.5447   24.8394 C   0  0  0  0  0  0  0  0  0  0  0  0
    6.4927  -13.8866   25.4702 C   0  0  2  0  0  0  0  0  0  0  0  0
    7.9197  -14.1711   24.9563 C   0  0  0  0  0  0  0  0  0  0  0  0
    8.2499  -15.5721   25.0806 O   0  0  0  0  0  0  0  0  0  0  0  0
    7.4893  -16.5009   24.7786 N   0  0  0  0  0  0  0  0  0  0  0  0
    9.5500  -15.9095   25.5895 C   0  0  1  0  0  0  0  0  0  0  0  0
    9.9917  -17.2957   25.6629 C   0  0  0  0  0  0  0  0  0  0  0  0
   11.3330  -17.4897   24.9888 C   0  0  0  0  0  0  0  0  0  0  0  0
   11.8075  -18.9032   25.0469 C   0  0  0  0  0  0  0  0  0  0  0  0
   13.1335  -19.0622   24.3544 C   0  0  0  0  0  0  0  0  0  0  0  0
   13.5296  -20.5211   24.3008 N   0  0  0  0  0  0  0  0  0  0  0  0
   14.7944  -20.6544   23.5765 C   0  0  0  0  0  0  0  0  0  0  0  0
   10.0880  -17.6808   27.0814 O   0  0  0  0  0  0  0  0  0  0  0  0
   10.3527  -16.7457   28.0751 O   0  0  0  0  0  0  0  0  0  0  0  0
  2  4  1  0
  2  1  1  0
  3  2  2  0
  5  4  1  0
  6  5  1  0
  7  6  1  0
  8  7  1  0
  8  9  1  6
 10  8  1  0
 11 10  2  0
 12 16  1  0
 12 10  1  0
 13 14  1  0
 13 12  1  0
 15 14  1  0
 15 16  1  0
 17 19  1  0
 16 17  1  6
 18 17  2  0
 20 19  1  0
 20 21  1  1
 22 21  1  0
 23 22  1  0
 23 24  1  0
 24 25  1  0
 26 20  1  0
 27 26  1  0
 28 26  2  0
M  END
$$$$
