RPK.pdb
     RDKit          3D

 28 28  0  0  1  0  0  0  0  0999 V2000
    6.2080  -20.3124   16.0386 N   0  0  0  0  0  0  0  0  0  0  0  0
    5.3208  -20.3321   17.1525 C   0  0  0  0  0  0  0  0  0  0  0  0
    4.0684  -20.6090   16.9311 N   0  0  0  0  0  0  0  0  0  0  0  0
    5.7934  -20.0580   18.4571 N   0  0  0  0  0  0  0  0  0  0  0  0
    7.1945  -19.8932   18.7110 C   0  0  0  0  0  0  0  0  0  0  0  0
    7.5924  -18.4349   18.8220 C   0  0  0  0  0  0  0  0  0  0  0  0
    8.8584  -18.1311   18.0902 C   0  0  0  0  0  0  0  0  0  0  0  0
    9.2456  -16.6678   18.1896 C   0  0  2  0  0  0  0  0  0  0  0  0
   10.5002  -16.5597   17.4470 N   0  0  0  0  0  0  0  0  0  0  0  0
    9.4525  -16.2955   19.6446 C   0  0  0  0  0  0  0  0  0  0  0  0
   10.1130  -17.1591   20.2767 O   0  0  0  0  0  0  0  0  0  0  0  0
    3.3688  -20.7032   17.6785 N   0  0  0  0  0  0  0  0  0  0  0  0
    8.9359  -15.1079   20.1518 C   0  0  0  0  0  0  0  0  0  0  0  0
    8.6895  -13.9201   19.3033 C   0  0  0  0  0  0  0  0  0  0  0  0
    7.2602  -13.6359   19.7073 C   0  0  0  0  0  0  0  0  0  0  0  0
    7.1374  -14.1299   21.1347 C   0  0  2  0  0  0  0  0  0  0  0  0
    8.5600  -14.6496   21.4304 C   0  0  0  0  0  0  0  0  0  0  0  0
    8.5642  -15.5426   22.5661 O   0  0  0  0  0  0  0  0  0  0  0  0
    7.6361  -16.3073   22.8598 N   0  0  0  0  0  0  0  0  0  0  0  0
    9.7252  -15.5424   23.4119 C   0  0  1  0  0  0  0  0  0  0  0  0
    9.7672  -16.3395   24.6305 C   0  0  0  0  0  0  0  0  0  0  0  0
   10.9882  -17.2333   24.6700 C   0  0  0  0  0  0  0  0  0  0  0  0
   11.0301  -18.2013   23.5352 C   0  0  0  0  0  0  0  0  0  0  0  0
   12.2865  -19.0279   23.5696 C   0  0  0  0  0  0  0  0  0  0  0  0
   12.2846  -20.0386   22.4443 N   0  0  0  0  0  0  0  0  0  0  0  0
   13.5097  -20.8370   22.5067 C   0  0  0  0  0  0  0  0  0  0  0  0
    9.7823  -15.4261   25.7859 O   0  0  0  0  0  0  0  0  0  0  0  0
    9.8721  -14.0483   25.6258 O   0  0  0  0  0  0  0  0  0  0  0  0
  2  4  1  0
  2  1  1  0
  3  2  2  0
  5  4  1  0
  6  5  1  0
  7  6  1  0
  8  7  1  0
  8  9  1  6
 10  8  1  0
 11 10  2  0
 12 16  1  0
 12 10  1  0
 13 14  1  0
 13 12  1  0
 15 14  1  0
 15 16  1  0
 17 19  1  0
 16 17  1  1
 18 17  2  0
 20 19  1  0
 20 21  1  1
 22 21  1  0
 23 22  1  0
 23 24  1  0
 24 25  1  0
 26 20  1  0
 27 26  1  0
 28 26  2  0
M  END
$$$$
