RPK.pdb
     RDKit          3D

 28 28  0  0  1  0  0  0  0  0999 V2000
    7.7271  -13.4497   17.5010 N   0  0  0  0  0  0  0  0  0  0  0  0
    7.6464  -12.9045   18.8142 C   0  0  0  0  0  0  0  0  0  0  0  0
    8.2414  -11.7695   19.0420 N   0  0  0  0  0  0  0  0  0  0  0  0
    6.9393  -13.5816   19.8350 N   0  0  0  0  0  0  0  0  0  0  0  0
    6.3471  -14.8640   19.5916 C   0  0  0  0  0  0  0  0  0  0  0  0
    6.5196  -15.8102   20.7630 C   0  0  0  0  0  0  0  0  0  0  0  0
    7.7793  -16.6073   20.6727 C   0  0  0  0  0  0  0  0  0  0  0  0
    8.9257  -15.9626   21.4283 C   0  0  2  0  0  0  0  0  0  0  0  0
   10.1326  -16.5692   20.8693 N   0  0  0  0  0  0  0  0  0  0  0  0
    8.8028  -16.2814   22.9053 C   0  0  0  0  0  0  0  0  0  0  0  0
    8.8544  -17.5158   23.1406 O   0  0  0  0  0  0  0  0  0  0  0  0
    8.2567  -11.3133   19.9632 N   0  0  0  0  0  0  0  0  0  0  0  0
    8.6515  -15.2621   23.8394 C   0  0  0  0  0  0  0  0  0  0  0  0
    8.7997  -13.8316   23.4881 C   0  0  0  0  0  0  0  0  0  0  0  0
    7.5101  -13.3099   24.0810 C   0  0  0  0  0  0  0  0  0  0  0  0
    7.2006  -14.2272   25.2469 C   0  0  2  0  0  0  0  0  0  0  0  0
    8.3915  -15.2083   25.2234 C   0  0  0  0  0  0  0  0  0  0  0  0
    8.0921  -16.4108   25.9663 O   0  0  0  0  0  0  0  0  0  0  0  0
    6.9487  -16.8120   26.2192 N   0  0  0  0  0  0  0  0  0  0  0  0
    9.1976  -17.1938   26.4437 C   0  0  1  0  0  0  0  0  0  0  0  0
    8.9822  -18.3637   27.2846 C   0  0  0  0  0  0  0  0  0  0  0  0
    9.4271  -19.6354   26.5946 C   0  0  0  0  0  0  0  0  0  0  0  0
    8.8125  -19.8038   25.2455 C   0  0  0  0  0  0  0  0  0  0  0  0
    9.4024  -20.9827   24.5207 C   0  0  0  0  0  0  0  0  0  0  0  0
    8.8600  -21.0611   23.1108 N   0  0  0  0  0  0  0  0  0  0  0  0
    9.5503  -22.1274   22.3837 C   0  0  0  0  0  0  0  0  0  0  0  0
    9.7394  -18.1858   28.5354 O   0  0  0  0  0  0  0  0  0  0  0  0
    9.5187  -18.9954   29.6435 O   0  0  0  0  0  0  0  0  0  0  0  0
  2  4  1  0
  2  1  1  0
  3  2  2  0
  5  4  1  0
  6  5  1  0
  7  6  1  0
  8  7  1  0
  8  9  1  6
 10  8  1  0
 11 10  2  0
 12 16  1  0
 12 10  1  0
 13 14  1  0
 13 12  1  0
 15 14  1  0
 15 16  1  0
 17 19  1  0
 16 17  1  6
 18 17  2  0
 20 19  1  0
 20 21  1  1
 22 21  1  0
 23 22  1  0
 23 24  1  0
 24 25  1  0
 26 20  1  0
 27 26  1  0
 28 26  2  0
M  END
$$$$
