RPK.pdb
     RDKit          3D

 28 28  0  0  1  0  0  0  0  0999 V2000
    7.6512  -14.2924   15.0164 N   0  0  0  0  0  0  0  0  0  0  0  0
    8.0390  -14.8868   16.2510 C   0  0  0  0  0  0  0  0  0  0  0  0
    9.2292  -15.4079   16.3308 N   0  0  0  0  0  0  0  0  0  0  0  0
    7.1525  -14.9068   17.3529 N   0  0  0  0  0  0  0  0  0  0  0  0
    7.5408  -15.5037   18.5969 C   0  0  0  0  0  0  0  0  0  0  0  0
    8.2098  -14.5122   19.5279 C   0  0  0  0  0  0  0  0  0  0  0  0
    7.2423  -13.8647   20.4634 C   0  0  0  0  0  0  0  0  0  0  0  0
    7.9312  -12.9810   21.4858 C   0  0  2  0  0  0  0  0  0  0  0  0
    9.1256  -12.4815   20.8069 N   0  0  0  0  0  0  0  0  0  0  0  0
    8.3125  -13.8089   22.6972 C   0  0  0  0  0  0  0  0  0  0  0  0
    8.9843  -14.8284   22.3956 O   0  0  0  0  0  0  0  0  0  0  0  0
    9.6378  -15.7541   17.2084 N   0  0  0  0  0  0  0  0  0  0  0  0
    7.9231  -13.4170   23.9736 C   0  0  0  0  0  0  0  0  0  0  0  0
    7.5320  -12.0257   24.2948 C   0  0  0  0  0  0  0  0  0  0  0  0
    6.2144  -12.3054   24.9821 C   0  0  0  0  0  0  0  0  0  0  0  0
    6.3675  -13.6773   25.6074 C   0  0  2  0  0  0  0  0  0  0  0  0
    7.8127  -14.0584   25.2235 C   0  0  0  0  0  0  0  0  0  0  0  0
    8.0271  -15.4820   25.3450 O   0  0  0  0  0  0  0  0  0  0  0  0
    7.1913  -16.3447   25.0458 N   0  0  0  0  0  0  0  0  0  0  0  0
    9.2975  -15.9259   25.8473 C   0  0  1  0  0  0  0  0  0  0  0  0
    9.6517  -17.3389   25.8518 C   0  0  0  0  0  0  0  0  0  0  0  0
   11.0204  -17.5724   25.2491 C   0  0  0  0  0  0  0  0  0  0  0  0
   11.4245  -19.0085   25.2769 C   0  0  0  0  0  0  0  0  0  0  0  0
   12.7875  -19.2034   24.6710 C   0  0  0  0  0  0  0  0  0  0  0  0
   13.1816  -20.6630   24.7159 N   0  0  0  0  0  0  0  0  0  0  0  0
   14.5171  -20.8234   24.1389 C   0  0  0  0  0  0  0  0  0  0  0  0
    9.6326  -17.8209   27.2435 O   0  0  0  0  0  0  0  0  0  0  0  0
    9.9719  -16.9931   28.3072 O   0  0  0  0  0  0  0  0  0  0  0  0
  2  4  1  0
  2  1  1  0
  3  2  2  0
  5  4  1  0
  6  5  1  0
  7  6  1  0
  8  7  1  0
  8  9  1  6
 10  8  1  0
 11 10  2  0
 12 16  1  0
 12 10  1  0
 13 14  1  0
 13 12  1  0
 15 14  1  0
 15 16  1  0
 17 19  1  0
 16 17  1  6
 18 17  2  0
 20 19  1  0
 20 21  1  1
 22 21  1  0
 23 22  1  0
 23 24  1  0
 24 25  1  0
 26 20  1  0
 27 26  1  0
 28 26  2  0
M  END
$$$$
