RPK.pdb
     RDKit          3D

 28 28  0  0  1  0  0  0  0  0999 V2000
    8.2863  -12.2826   17.0255 N   0  0  0  0  0  0  0  0  0  0  0  0
    7.5949  -13.4099   17.5539 C   0  0  0  0  0  0  0  0  0  0  0  0
    7.4381  -14.4468   16.7828 N   0  0  0  0  0  0  0  0  0  0  0  0
    7.0966  -13.3963   18.8776 N   0  0  0  0  0  0  0  0  0  0  0  0
    6.4172  -14.5368   19.4181 C   0  0  0  0  0  0  0  0  0  0  0  0
    7.3782  -15.6056   19.8991 C   0  0  0  0  0  0  0  0  0  0  0  0
    7.3810  -15.7438   21.3862 C   0  0  0  0  0  0  0  0  0  0  0  0
    8.4860  -14.9352   22.0389 C   0  0  2  0  0  0  0  0  0  0  0  0
    9.7027  -15.3145   21.3227 N   0  0  0  0  0  0  0  0  0  0  0  0
    8.5905  -15.3093   23.5044 C   0  0  0  0  0  0  0  0  0  0  0  0
    9.2181  -16.3837   23.6867 O   0  0  0  0  0  0  0  0  0  0  0  0
    7.7932  -14.4944   15.8192 N   0  0  0  0  0  0  0  0  0  0  0  0
    8.0262  -14.4989   24.4838 C   0  0  0  0  0  0  0  0  0  0  0  0
    7.8054  -13.0482   24.2872 C   0  0  0  0  0  0  0  0  0  0  0  0
    6.3515  -12.9749   24.6965 C   0  0  0  0  0  0  0  0  0  0  0  0
    6.1600  -14.0854   25.7099 C   0  0  2  0  0  0  0  0  0  0  0  0
    7.5733  -14.6977   25.8034 C   0  0  0  0  0  0  0  0  0  0  0  0
    7.5314  -16.0224   26.3786 O   0  0  0  0  0  0  0  0  0  0  0  0
    6.4957  -16.6763   26.5577 N   0  0  0  0  0  0  0  0  0  0  0  0
    8.7774  -16.6210   26.7690 C   0  0  1  0  0  0  0  0  0  0  0  0
    8.8191  -17.9516   27.3604 C   0  0  0  0  0  0  0  0  0  0  0  0
    9.2562  -18.9951   26.3548 C   0  0  0  0  0  0  0  0  0  0  0  0
    9.3089  -20.3684   26.9359 C   0  0  0  0  0  0  0  0  0  0  0  0
    9.7160  -21.3827   25.9023 C   0  0  0  0  0  0  0  0  0  0  0  0
    9.7445  -22.7694   26.5059 N   0  0  0  0  0  0  0  0  0  0  0  0
   10.0909  -23.7430   25.4695 C   0  0  0  0  0  0  0  0  0  0  0  0
    9.7591  -17.9296   28.4943 O   0  0  0  0  0  0  0  0  0  0  0  0
   10.6270  -16.8640   28.7021 O   0  0  0  0  0  0  0  0  0  0  0  0
  2  4  1  0
  2  1  1  0
  3  2  2  0
  5  4  1  0
  6  5  1  0
  7  6  1  0
  8  7  1  0
  8  9  1  6
 10  8  1  0
 11 10  2  0
 12 16  1  0
 12 10  1  0
 13 14  1  0
 13 12  1  0
 15 14  1  0
 15 16  1  0
 17 19  1  0
 16 17  1  6
 18 17  2  0
 20 19  1  0
 20 21  1  1
 22 21  1  0
 23 22  1  0
 23 24  1  0
 24 25  1  0
 26 20  1  0
 27 26  1  0
 28 26  2  0
M  END
$$$$
