RPK.pdb
     RDKit          3D

 28 28  0  0  1  0  0  0  0  0999 V2000
    7.8992  -21.9857   20.3141 N   0  0  0  0  0  0  0  0  0  0  0  0
    8.4697  -20.9853   19.4764 C   0  0  0  0  0  0  0  0  0  0  0  0
    9.5364  -20.3706   19.8986 N   0  0  0  0  0  0  0  0  0  0  0  0
    7.8892  -20.6745   18.2245 N   0  0  0  0  0  0  0  0  0  0  0  0
    7.2685  -19.4024   17.9987 C   0  0  0  0  0  0  0  0  0  0  0  0
    8.2826  -18.2938   17.7985 C   0  0  0  0  0  0  0  0  0  0  0  0
    7.6397  -16.9766   17.5118 C   0  0  0  0  0  0  0  0  0  0  0  0
    8.6551  -15.8607   17.3549 C   0  0  2  0  0  0  0  0  0  0  0  0
    9.6067  -16.3554   16.3615 N   0  0  0  0  0  0  0  0  0  0  0  0
    9.3473  -15.6144   18.6810 C   0  0  0  0  0  0  0  0  0  0  0  0
   10.3337  -16.3734   18.8613 O   0  0  0  0  0  0  0  0  0  0  0  0
    9.9642  -19.5760   19.4059 N   0  0  0  0  0  0  0  0  0  0  0  0
    8.8811  -14.6351   19.5518 C   0  0  0  0  0  0  0  0  0  0  0  0
    8.4431  -13.2994   19.0871 C   0  0  0  0  0  0  0  0  0  0  0  0
    7.0966  -13.2425   19.7731 C   0  0  0  0  0  0  0  0  0  0  0  0
    7.2454  -14.0812   21.0265 C   0  0  2  0  0  0  0  0  0  0  0  0
    8.7172  -14.5384   20.9481 C   0  0  0  0  0  0  0  0  0  0  0  0
    8.9555  -15.6800   21.8009 O   0  0  0  0  0  0  0  0  0  0  0  0
    8.1834  -16.6406   21.9182 N   0  0  0  0  0  0  0  0  0  0  0  0
   10.1718  -15.7012   22.5647 C   0  0  1  0  0  0  0  0  0  0  0  0
   10.5117  -16.8415   23.4050 C   0  0  0  0  0  0  0  0  0  0  0  0
   11.8897  -17.3793   23.0840 C   0  0  0  0  0  0  0  0  0  0  0  0
   12.2500  -18.5692   23.9092 C   0  0  0  0  0  0  0  0  0  0  0  0
   13.6191  -19.0831   23.5566 C   0  0  0  0  0  0  0  0  0  0  0  0
   13.9430  -20.3203   24.3643 N   0  0  0  0  0  0  0  0  0  0  0  0
   15.2770  -20.8012   24.0021 C   0  0  0  0  0  0  0  0  0  0  0  0
   10.4604  -16.4152   24.8140 O   0  0  0  0  0  0  0  0  0  0  0  0
   10.1927  -15.0982   25.1687 O   0  0  0  0  0  0  0  0  0  0  0  0
  2  4  1  0
  2  1  1  0
  3  2  2  0
  5  4  1  0
  6  5  1  0
  7  6  1  0
  8  7  1  0
  8  9  1  6
 10  8  1  0
 11 10  2  0
 12 16  1  0
 12 10  1  0
 13 14  1  0
 13 12  1  0
 15 14  1  0
 15 16  1  0
 17 19  1  0
 16 17  1  6
 18 17  2  0
 20 19  1  0
 20 21  1  1
 22 21  1  0
 23 22  1  0
 23 24  1  0
 24 25  1  0
 26 20  1  0
 27 26  1  0
 28 26  2  0
M  END
$$$$
