RPK.pdb
     RDKit          3D

 28 28  0  0  1  0  0  0  0  0999 V2000
    9.7771  -14.5285   18.7148 N   0  0  0  0  0  0  0  0  0  0  0  0
    8.6390  -13.6741   18.6608 C   0  0  0  0  0  0  0  0  0  0  0  0
    8.8058  -12.4619   18.2168 N   0  0  0  0  0  0  0  0  0  0  0  0
    7.3690  -14.1355   19.0787 N   0  0  0  0  0  0  0  0  0  0  0  0
    7.2161  -15.4348   19.6643 C   0  0  0  0  0  0  0  0  0  0  0  0
    8.1965  -15.6764   20.7947 C   0  0  0  0  0  0  0  0  0  0  0  0
    7.5142  -16.0004   22.0830 C   0  0  0  0  0  0  0  0  0  0  0  0
    7.0767  -14.7567   22.8332 C   0  0  2  0  0  0  0  0  0  0  0  0
    7.6007  -13.6404   22.0480 N   0  0  0  0  0  0  0  0  0  0  0  0
    7.6825  -14.7629   24.2229 C   0  0  0  0  0  0  0  0  0  0  0  0
    8.2233  -15.8611   24.5109 O   0  0  0  0  0  0  0  0  0  0  0  0
    8.0459  -11.7721   18.1553 N   0  0  0  0  0  0  0  0  0  0  0  0
    7.6072  -13.6349   25.0331 C   0  0  0  0  0  0  0  0  0  0  0  0
    7.2607  -12.2963   24.5041 C   0  0  0  0  0  0  0  0  0  0  0  0
    6.1636  -11.9353   25.4804 C   0  0  0  0  0  0  0  0  0  0  0  0
    6.5127  -12.6575   26.7662 C   0  0  2  0  0  0  0  0  0  0  0  0
    7.8305  -13.3718   26.3994 C   0  0  0  0  0  0  0  0  0  0  0  0
    8.1162  -14.4465   27.3218 O   0  0  0  0  0  0  0  0  0  0  0  0
    7.2595  -15.0542   27.9769 N   0  0  0  0  0  0  0  0  0  0  0  0
    9.4886  -14.8359   27.4895 C   0  0  1  0  0  0  0  0  0  0  0  0
    9.8442  -16.0274   28.2484 C   0  0  0  0  0  0  0  0  0  0  0  0
   10.6861  -16.9804   27.4273 C   0  0  0  0  0  0  0  0  0  0  0  0
   11.1035  -18.1889   28.1966 C   0  0  0  0  0  0  0  0  0  0  0  0
   11.9486  -19.1060   27.3552 C   0  0  0  0  0  0  0  0  0  0  0  0
   12.3000  -20.3577   28.1283 N   0  0  0  0  0  0  0  0  0  0  0  0
   13.0273  -21.2797   27.2548 C   0  0  0  0  0  0  0  0  0  0  0  0
   10.5911  -15.6116   29.4479 O   0  0  0  0  0  0  0  0  0  0  0  0
   10.9801  -14.2917   29.6443 O   0  0  0  0  0  0  0  0  0  0  0  0
  2  4  1  0
  2  1  1  0
  3  2  2  0
  5  4  1  0
  6  5  1  0
  7  6  1  0
  8  7  1  0
  8  9  1  6
 10  8  1  0
 11 10  2  0
 12 16  1  0
 12 10  1  0
 13 14  1  0
 13 12  1  0
 15 14  1  0
 15 16  1  0
 17 19  1  0
 16 17  1  6
 18 17  2  0
 20 19  1  0
 20 21  1  1
 22 21  1  0
 23 22  1  0
 23 24  1  0
 24 25  1  0
 26 20  1  0
 27 26  1  0
 28 26  2  0
M  END
$$$$
