RPK.pdb
     RDKit          3D

 28 28  0  0  1  0  0  0  0  0999 V2000
   14.1934  -16.0572   19.7145 N   0  0  0  0  0  0  0  0  0  0  0  0
   13.1432  -16.3282   18.7916 C   0  0  0  0  0  0  0  0  0  0  0  0
   13.1651  -17.4648   18.1577 N   0  0  0  0  0  0  0  0  0  0  0  0
   12.1107  -15.3859   18.5754 N   0  0  0  0  0  0  0  0  0  0  0  0
   12.0757  -14.1541   19.3075 C   0  0  0  0  0  0  0  0  0  0  0  0
   10.9104  -13.2746   18.9002 C   0  0  0  0  0  0  0  0  0  0  0  0
    9.7451  -14.0648   18.4023 C   0  0  0  0  0  0  0  0  0  0  0  0
    8.4258  -13.5566   18.9520 C   0  0  2  0  0  0  0  0  0  0  0  0
    8.4687  -12.1088   18.7536 N   0  0  0  0  0  0  0  0  0  0  0  0
    8.3286  -13.8907   20.4276 C   0  0  0  0  0  0  0  0  0  0  0  0
    9.0850  -13.1788   21.1366 O   0  0  0  0  0  0  0  0  0  0  0  0
   12.4560  -17.7413   17.4667 N   0  0  0  0  0  0  0  0  0  0  0  0
    7.4708  -14.8914   20.8718 C   0  0  0  0  0  0  0  0  0  0  0  0
    6.2140  -15.2333   20.1680 C   0  0  0  0  0  0  0  0  0  0  0  0
    6.4076  -16.7289   20.0560 C   0  0  0  0  0  0  0  0  0  0  0  0
    7.2491  -17.1188   21.2545 C   0  0  2  0  0  0  0  0  0  0  0  0
    7.4483  -15.7685   21.9746 C   0  0  0  0  0  0  0  0  0  0  0  0
    8.5602  -15.8268   22.8952 O   0  0  0  0  0  0  0  0  0  0  0  0
    9.7131  -16.1514   22.5823 N   0  0  0  0  0  0  0  0  0  0  0  0
    8.3100  -15.4842   24.2676 C   0  0  1  0  0  0  0  0  0  0  0  0
    9.3470  -15.6315   25.2800 C   0  0  0  0  0  0  0  0  0  0  0  0
    8.8922  -15.1050   26.6243 C   0  0  0  0  0  0  0  0  0  0  0  0
    9.9243  -15.2751   27.6884 C   0  0  0  0  0  0  0  0  0  0  0  0
    9.4371  -14.7473   29.0101 C   0  0  0  0  0  0  0  0  0  0  0  0
   10.4799  -14.9676   30.0835 N   0  0  0  0  0  0  0  0  0  0  0  0
    9.9731  -14.4683   31.3625 C   0  0  0  0  0  0  0  0  0  0  0  0
    9.6880  -17.0598   25.3950 O   0  0  0  0  0  0  0  0  0  0  0  0
   11.0053  -17.4887   25.5082 O   0  0  0  0  0  0  0  0  0  0  0  0
  2  4  1  0
  2  1  1  0
  3  2  2  0
  5  4  1  0
  6  5  1  0
  7  6  1  0
  8  7  1  0
  8  9  1  1
 10  8  1  0
 11 10  2  0
 12 16  1  0
 12 10  1  0
 13 14  1  0
 13 12  1  0
 15 14  1  0
 15 16  1  0
 17 19  1  0
 16 17  1  6
 18 17  2  0
 20 19  1  0
 20 21  1  1
 22 21  1  0
 23 22  1  0
 23 24  1  0
 24 25  1  0
 26 20  1  0
 27 26  1  0
 28 26  2  0
M  END
$$$$
