RPK.pdb
     RDKit          3D

 28 28  0  0  1  0  0  0  0  0999 V2000
    7.8359  -20.7500   14.9019 N   0  0  0  0  0  0  0  0  0  0  0  0
    6.7113  -20.1760   14.2431 C   0  0  0  0  0  0  0  0  0  0  0  0
    6.3744  -20.6548   13.0806 N   0  0  0  0  0  0  0  0  0  0  0  0
    5.9870  -19.1179   14.8402 N   0  0  0  0  0  0  0  0  0  0  0  0
    6.3806  -18.5841   16.1109 C   0  0  0  0  0  0  0  0  0  0  0  0
    7.7712  -17.9821   16.0774 C   0  0  0  0  0  0  0  0  0  0  0  0
    8.1710  -17.3947   17.3910 C   0  0  0  0  0  0  0  0  0  0  0  0
    8.8778  -16.0615   17.2360 C   0  0  2  0  0  0  0  0  0  0  0  0
    9.9244  -16.3041   16.2445 N   0  0  0  0  0  0  0  0  0  0  0  0
    9.4846  -15.6516   18.5634 C   0  0  0  0  0  0  0  0  0  0  0  0
   10.5059  -16.3238   18.8577 O   0  0  0  0  0  0  0  0  0  0  0  0
    5.6019  -20.2788   12.5159 N   0  0  0  0  0  0  0  0  0  0  0  0
    8.9143  -14.6315   19.3175 C   0  0  0  0  0  0  0  0  0  0  0  0
    8.5095  -13.3355   18.7271 C   0  0  0  0  0  0  0  0  0  0  0  0
    7.0968  -13.2653   19.2622 C   0  0  0  0  0  0  0  0  0  0  0  0
    7.1230  -14.0236   20.5740 C   0  0  2  0  0  0  0  0  0  0  0  0
    8.6011  -14.4541   20.6800 C   0  0  0  0  0  0  0  0  0  0  0  0
    8.7633  -15.5371   21.6225 O   0  0  0  0  0  0  0  0  0  0  0  0
    7.9654  -16.4738   21.7578 N   0  0  0  0  0  0  0  0  0  0  0  0
    9.9307  -15.5253   22.4594 C   0  0  1  0  0  0  0  0  0  0  0  0
   10.2417  -16.6502   23.3311 C   0  0  0  0  0  0  0  0  0  0  0  0
   11.6079  -17.2279   23.0295 C   0  0  0  0  0  0  0  0  0  0  0  0
   11.9457  -18.3920   23.8996 C   0  0  0  0  0  0  0  0  0  0  0  0
   13.2766  -18.9848   23.5251 C   0  0  0  0  0  0  0  0  0  0  0  0
   13.5620  -20.2125   24.3614 N   0  0  0  0  0  0  0  0  0  0  0  0
   14.8907  -20.7283   24.0288 C   0  0  0  0  0  0  0  0  0  0  0  0
   10.1960  -16.1852   24.7280 O   0  0  0  0  0  0  0  0  0  0  0  0
    9.9837  -14.8489   25.0458 O   0  0  0  0  0  0  0  0  0  0  0  0
  2  4  1  0
  2  1  1  0
  3  2  2  0
  5  4  1  0
  6  5  1  0
  7  6  1  0
  8  7  1  0
  8  9  1  6
 10  8  1  0
 11 10  2  0
 12 16  1  0
 12 10  1  0
 13 14  1  0
 13 12  1  0
 15 14  1  0
 15 16  1  0
 17 19  1  0
 16 17  1  1
 18 17  2  0
 20 19  1  0
 20 21  1  1
 22 21  1  0
 23 22  1  0
 23 24  1  0
 24 25  1  0
 26 20  1  0
 27 26  1  0
 28 26  2  0
M  END
$$$$
