RPK.pdb
     RDKit          3D

 28 28  0  0  1  0  0  0  0  0999 V2000
    6.1377  -20.7368   16.8211 N   0  0  0  0  0  0  0  0  0  0  0  0
    7.2234  -21.4457   17.4100 C   0  0  0  0  0  0  0  0  0  0  0  0
    7.3475  -22.7117   17.1342 N   0  0  0  0  0  0  0  0  0  0  0  0
    8.1353  -20.7875   18.2677 N   0  0  0  0  0  0  0  0  0  0  0  0
    7.9592  -19.4056   18.6053 C   0  0  0  0  0  0  0  0  0  0  0  0
    7.2460  -18.6323   17.5141 C   0  0  0  0  0  0  0  0  0  0  0  0
    6.9191  -17.2342   17.9253 C   0  0  0  0  0  0  0  0  0  0  0  0
    7.9826  -16.2422   17.4943 C   0  0  2  0  0  0  0  0  0  0  0  0
    8.7298  -16.9264   16.4404 N   0  0  0  0  0  0  0  0  0  0  0  0
    8.8862  -15.9245   18.6694 C   0  0  0  0  0  0  0  0  0  0  0  0
    9.7917  -16.7822   18.8303 O   0  0  0  0  0  0  0  0  0  0  0  0
    8.0658  -23.3150   17.5552 N   0  0  0  0  0  0  0  0  0  0  0  0
    8.6719  -14.7864   19.4398 C   0  0  0  0  0  0  0  0  0  0  0  0
    8.3300  -13.4747   18.8446 C   0  0  0  0  0  0  0  0  0  0  0  0
    7.1157  -13.1460   19.6838 C   0  0  0  0  0  0  0  0  0  0  0  0
    7.3485  -13.8281   21.0169 C   0  0  2  0  0  0  0  0  0  0  0  0
    8.7286  -14.4887   20.8160 C   0  0  0  0  0  0  0  0  0  0  0  0
    8.9545  -15.5324   21.7892 O   0  0  0  0  0  0  0  0  0  0  0  0
    8.0747  -16.2857   22.2260 N   0  0  0  0  0  0  0  0  0  0  0  0
   10.2920  -15.7073   22.2830 C   0  0  1  0  0  0  0  0  0  0  0  0
   10.5969  -16.7210   23.2837 C   0  0  0  0  0  0  0  0  0  0  0  0
   11.3788  -17.8730   22.6897 C   0  0  0  0  0  0  0  0  0  0  0  0
   11.7153  -18.9207   23.6974 C   0  0  0  0  0  0  0  0  0  0  0  0
   12.5933  -19.9876   23.1025 C   0  0  0  0  0  0  0  0  0  0  0  0
   12.8046  -21.1108   24.0933 N   0  0  0  0  0  0  0  0  0  0  0  0
   13.6116  -22.1615   23.4713 C   0  0  0  0  0  0  0  0  0  0  0  0
   11.3795  -16.0927   24.3618 O   0  0  0  0  0  0  0  0  0  0  0  0
   11.3241  -16.5581   25.6704 O   0  0  0  0  0  0  0  0  0  0  0  0
  2  4  1  0
  2  1  1  0
  3  2  2  0
  5  4  1  0
  6  5  1  0
  7  6  1  0
  8  7  1  0
  8  9  1  6
 10  8  1  0
 11 10  2  0
 12 16  1  0
 12 10  1  0
 13 14  1  0
 13 12  1  0
 15 14  1  0
 15 16  1  0
 17 19  1  0
 16 17  1  1
 18 17  2  0
 20 19  1  0
 20 21  1  1
 22 21  1  0
 23 22  1  0
 23 24  1  0
 24 25  1  0
 26 20  1  0
 27 26  1  0
 28 26  2  0
M  END
$$$$
