RPK.pdb
     RDKit          3D

 28 28  0  0  1  0  0  0  0  0999 V2000
    5.3107  -20.7091   17.4947 N   0  0  0  0  0  0  0  0  0  0  0  0
    5.3018  -19.7221   16.4681 C   0  0  0  0  0  0  0  0  0  0  0  0
    4.8658  -20.0683   15.2916 N   0  0  0  0  0  0  0  0  0  0  0  0
    5.7547  -18.4073   16.7265 N   0  0  0  0  0  0  0  0  0  0  0  0
    6.1737  -18.0201   18.0414 C   0  0  0  0  0  0  0  0  0  0  0  0
    7.6018  -18.4336   18.3364 C   0  0  0  0  0  0  0  0  0  0  0  0
    8.5597  -17.9645   17.2910 C   0  0  0  0  0  0  0  0  0  0  0  0
    8.8490  -16.4793   17.3981 C   0  0  2  0  0  0  0  0  0  0  0  0
    9.9143  -16.2330   16.4278 N   0  0  0  0  0  0  0  0  0  0  0  0
    9.3198  -16.1540   18.8020 C   0  0  0  0  0  0  0  0  0  0  0  0
   10.0876  -17.0324   19.2714 O   0  0  0  0  0  0  0  0  0  0  0  0
    4.7801  -19.4128   14.5042 N   0  0  0  0  0  0  0  0  0  0  0  0
    8.9026  -14.9886   19.4364 C   0  0  0  0  0  0  0  0  0  0  0  0
    8.5458  -13.7602   18.6910 C   0  0  0  0  0  0  0  0  0  0  0  0
    7.1988  -13.4865   19.3215 C   0  0  0  0  0  0  0  0  0  0  0  0
    7.2883  -14.0471   20.7266 C   0  0  2  0  0  0  0  0  0  0  0  0
    8.7322  -14.5893   20.7771 C   0  0  0  0  0  0  0  0  0  0  0  0
    8.8974  -15.5352   21.8565 O   0  0  0  0  0  0  0  0  0  0  0  0
    7.9937  -16.2538   22.3032 N   0  0  0  0  0  0  0  0  0  0  0  0
   10.1997  -15.6492   22.4516 C   0  0  1  0  0  0  0  0  0  0  0  0
   10.4506  -16.5884   23.5365 C   0  0  0  0  0  0  0  0  0  0  0  0
   11.2412  -17.7890   23.0627 C   0  0  0  0  0  0  0  0  0  0  0  0
   11.4772  -18.7872   24.1464 C   0  0  0  0  0  0  0  0  0  0  0  0
   12.2750  -19.9594   23.6439 C   0  0  0  0  0  0  0  0  0  0  0  0
   12.4532  -20.9859   24.7405 N   0  0  0  0  0  0  0  0  0  0  0  0
   13.1948  -22.1333   24.2155 C   0  0  0  0  0  0  0  0  0  0  0  0
   11.1964  -15.8890   24.5968 O   0  0  0  0  0  0  0  0  0  0  0  0
   11.1436  -16.3048   25.9221 O   0  0  0  0  0  0  0  0  0  0  0  0
  2  4  1  0
  2  1  1  0
  3  2  2  0
  5  4  1  0
  6  5  1  0
  7  6  1  0
  8  7  1  0
  8  9  1  6
 10  8  1  0
 11 10  2  0
 12 16  1  0
 12 10  1  0
 13 14  1  0
 13 12  1  0
 15 14  1  0
 15 16  1  0
 17 19  1  0
 16 17  1  1
 18 17  2  0
 20 19  1  0
 20 21  1  1
 22 21  1  0
 23 22  1  0
 23 24  1  0
 24 25  1  0
 26 20  1  0
 27 26  1  0
 28 26  2  0
M  END
$$$$
