RPK.pdb
     RDKit          3D

 28 28  0  0  1  0  0  0  0  0999 V2000
    7.0195  -14.0725   17.0121 N   0  0  0  0  0  0  0  0  0  0  0  0
    8.3122  -14.5264   17.4009 C   0  0  0  0  0  0  0  0  0  0  0  0
    9.3490  -13.9257   16.8924 N   0  0  0  0  0  0  0  0  0  0  0  0
    8.4574  -15.5981   18.3124 N   0  0  0  0  0  0  0  0  0  0  0  0
    7.5837  -15.7250   19.4416 C   0  0  0  0  0  0  0  0  0  0  0  0
    7.7020  -14.5538   20.3964 C   0  0  0  0  0  0  0  0  0  0  0  0
    6.8055  -14.6915   21.5829 C   0  0  0  0  0  0  0  0  0  0  0  0
    6.9689  -13.5475   22.5656 C   0  0  2  0  0  0  0  0  0  0  0  0
    7.6350  -12.4913   21.8054 N   0  0  0  0  0  0  0  0  0  0  0  0
    7.8338  -13.9960   23.7271 C   0  0  0  0  0  0  0  0  0  0  0  0
    8.5307  -15.0057   23.4509 O   0  0  0  0  0  0  0  0  0  0  0  0
   10.3187  -14.1845   17.1151 N   0  0  0  0  0  0  0  0  0  0  0  0
    7.8038  -13.3117   24.9376 C   0  0  0  0  0  0  0  0  0  0  0  0
    7.5907  -11.8490   25.0205 C   0  0  0  0  0  0  0  0  0  0  0  0
    6.4752  -11.8322   26.0414 C   0  0  0  0  0  0  0  0  0  0  0  0
    6.6989  -13.0571   26.9052 C   0  0  2  0  0  0  0  0  0  0  0  0
    7.9747  -13.6696   26.2899 C   0  0  0  0  0  0  0  0  0  0  0  0
    8.1270  -15.0539   26.6744 O   0  0  0  0  0  0  0  0  0  0  0  0
    7.1980  -15.8694   26.7401 N   0  0  0  0  0  0  0  0  0  0  0  0
    9.4474  -15.5148   27.0025 C   0  0  1  0  0  0  0  0  0  0  0  0
    9.6991  -16.9161   27.3108 C   0  0  0  0  0  0  0  0  0  0  0  0
   10.7333  -17.5141   26.3813 C   0  0  0  0  0  0  0  0  0  0  0  0
   11.0749  -18.9239   26.7309 C   0  0  0  0  0  0  0  0  0  0  0  0
   12.1172  -19.4796   25.7994 C   0  0  0  0  0  0  0  0  0  0  0  0
   12.4139  -20.9232   26.1397 N   0  0  0  0  0  0  0  0  0  0  0  0
   13.3877  -21.4566   25.1861 C   0  0  0  0  0  0  0  0  0  0  0  0
   10.1687  -17.0109   28.7037 O   0  0  0  0  0  0  0  0  0  0  0  0
   10.7027  -15.9141   29.3701 O   0  0  0  0  0  0  0  0  0  0  0  0
  2  4  1  0
  2  1  1  0
  3  2  2  0
  5  4  1  0
  6  5  1  0
  7  6  1  0
  8  7  1  0
  8  9  1  6
 10  8  1  0
 11 10  2  0
 12 16  1  0
 12 10  1  0
 13 14  1  0
 13 12  1  0
 15 14  1  0
 15 16  1  0
 17 19  1  0
 16 17  1  6
 18 17  2  0
 20 19  1  0
 20 21  1  1
 22 21  1  0
 23 22  1  0
 23 24  1  0
 24 25  1  0
 26 20  1  0
 27 26  1  0
 28 26  2  0
M  END
$$$$
