RPK.pdb
     RDKit          3D

 28 28  0  0  1  0  0  0  0  0999 V2000
    6.3302  -19.4761   19.1038 N   0  0  0  0  0  0  0  0  0  0  0  0
    7.3112  -18.9224   19.9751 C   0  0  0  0  0  0  0  0  0  0  0  0
    8.4272  -18.5046   19.4514 N   0  0  0  0  0  0  0  0  0  0  0  0
    7.0731  -18.8323   21.3664 N   0  0  0  0  0  0  0  0  0  0  0  0
    7.6064  -17.7454   22.1337 C   0  0  0  0  0  0  0  0  0  0  0  0
    7.6806  -16.4587   21.3360 C   0  0  0  0  0  0  0  0  0  0  0  0
    6.7286  -15.4218   21.8349 C   0  0  0  0  0  0  0  0  0  0  0  0
    7.4051  -14.0859   22.0773 C   0  0  2  0  0  0  0  0  0  0  0  0
    8.1629  -13.8212   20.8555 N   0  0  0  0  0  0  0  0  0  0  0  0
    8.3355  -14.1973   23.2691 C   0  0  0  0  0  0  0  0  0  0  0  0
    9.2929  -14.9866   23.0645 O   0  0  0  0  0  0  0  0  0  0  0  0
    9.2024  -18.1179   20.0051 N   0  0  0  0  0  0  0  0  0  0  0  0
    8.0889  -13.4718   24.4299 C   0  0  0  0  0  0  0  0  0  0  0  0
    7.6125  -12.0702   24.4069 C   0  0  0  0  0  0  0  0  0  0  0  0
    6.4352  -12.2075   25.3460 C   0  0  0  0  0  0  0  0  0  0  0  0
    6.8051  -13.3274   26.2975 C   0  0  2  0  0  0  0  0  0  0  0  0
    8.2140  -13.7261   25.8103 C   0  0  0  0  0  0  0  0  0  0  0  0
    8.5802  -15.0390   26.2896 O   0  0  0  0  0  0  0  0  0  0  0  0
    7.8706  -16.0476   26.1816 N   0  0  0  0  0  0  0  0  0  0  0  0
    9.8551  -15.1830   26.9354 C   0  0  1  0  0  0  0  0  0  0  0  0
   10.3070  -16.4780   27.4260 C   0  0  0  0  0  0  0  0  0  0  0  0
   11.5559  -16.9415   26.7072 C   0  0  0  0  0  0  0  0  0  0  0  0
   12.0834  -18.2305   27.2426 C   0  0  0  0  0  0  0  0  0  0  0  0
   13.3559  -18.6299   26.5468 C   0  0  0  0  0  0  0  0  0  0  0  0
   13.8530  -19.9569   27.0760 N   0  0  0  0  0  0  0  0  0  0  0  0
   14.9664  -20.4233   26.2484 C   0  0  0  0  0  0  0  0  0  0  0  0
   10.5781  -16.3621   28.8692 O   0  0  0  0  0  0  0  0  0  0  0  0
   10.5797  -17.4742   29.7030 O   0  0  0  0  0  0  0  0  0  0  0  0
  2  4  1  0
  2  1  1  0
  3  2  2  0
  5  4  1  0
  6  5  1  0
  7  6  1  0
  8  7  1  0
  8  9  1  6
 10  8  1  0
 11 10  2  0
 12 16  1  0
 12 10  1  0
 13 14  1  0
 13 12  1  0
 15 14  1  0
 15 16  1  0
 17 19  1  0
 16 17  1  6
 18 17  2  0
 20 19  1  0
 20 21  1  1
 22 21  1  0
 23 22  1  0
 23 24  1  0
 24 25  1  0
 26 20  1  0
 27 26  1  0
 28 26  2  0
M  END
$$$$
