RLY.pdb
     RDKit          3D

 32 32  0  0  1  0  0  0  0  0999 V2000
    6.7617  -21.5031   18.2993 N   0  0  0  0  0  0  0  0  0  0  0  0
    7.4061  -21.8398   19.5256 C   0  0  0  0  0  0  0  0  0  0  0  0
    7.0630  -22.9123   20.1895 N   0  0  0  0  0  0  0  0  0  0  0  0
    8.4358  -21.0545   20.0904 N   0  0  0  0  0  0  0  0  0  0  0  0
    8.8224  -19.7991   19.4930 C   0  0  0  0  0  0  0  0  0  0  0  0
    7.6945  -18.8298   19.6398 C   0  0  0  0  0  0  0  0  0  0  0  0
    8.0867  -17.4937   20.1682 C   0  0  0  0  0  0  0  0  0  0  0  0
    8.3819  -17.4983   21.6462 C   0  0  2  0  0  0  0  0  0  0  0  0
    7.4200  -18.2375   22.4192 N   0  0  0  0  0  0  0  0  0  0  0  0
    8.4583  -16.1223   22.1981 C   0  0  0  0  0  0  0  0  0  0  0  0
    9.1438  -15.2276   21.6425 O   0  0  0  0  0  0  0  0  0  0  0  0
    7.5925  -23.1389   21.0632 C   0  0  0  0  0  0  0  0  0  0  0  0
    6.9134  -11.6334   24.5725 C   0  0  2  0  0  0  0  0  0  0  0  0
    6.9986  -12.7532   25.6204 C   0  0  0  0  0  0  0  0  0  0  0  0
    5.9843  -12.5143   26.6848 C   0  0  0  0  0  0  0  0  0  0  0  0
    6.8579  -14.0866   24.9511 C   0  0  1  0  0  0  0  0  0  0  0  0
    7.9051  -14.4416   23.9735 N   0  0  0  0  0  0  0  0  0  0  0  0
    7.7580  -15.7451   23.3875 C   0  0  0  0  0  0  0  0  0  0  0  0
    9.2919  -14.2609   24.5348 O   0  0  0  0  0  0  0  0  0  0  0  0
    9.7550  -13.1074   24.7261 O   0  0  0  0  0  0  0  0  0  0  0  0
   10.2062  -17.1570   31.1526 C   0  0  0  0  0  0  0  0  0  0  0  0
   10.5294  -16.4281   30.0179 C   0  0  0  0  0  0  0  0  0  0  0  0
   10.8876  -17.1344   28.8738 C   0  0  0  0  0  0  0  0  0  0  0  0
   11.2029  -16.4069   27.7646 C   0  0  0  0  0  0  0  0  0  0  0  0
   11.1775  -15.0189   27.7461 C   0  0  0  0  0  0  0  0  0  0  0  0
   11.5381  -14.3050   26.5028 C   0  0  1  0  0  0  0  0  0  0  0  0
   11.4879  -15.1732   25.2908 N   0  0  0  0  0  0  0  0  0  0  0  0
   10.1096  -15.3678   24.8607 C   0  0  0  0  0  0  0  0  0  0  0  0
   12.1558  -16.4897   25.4708 O   0  0  0  0  0  0  0  0  0  0  0  0
   11.5337  -17.7044   25.3170 C   0  0  0  0  0  0  0  0  0  0  0  0
   10.8240  -14.3320   28.8758 C   0  0  0  0  0  0  0  0  0  0  0  0
   10.5002  -15.0589   30.0128 O   0  0  0  0  0  0  0  0  0  0  0  0
  2  3  2  0
  2  1  1  0
  4  2  1  0
  5  4  1  0
  6  5  1  0
  7  6  1  0
  8  9  1  1
  8  7  1  0
 10 11  2  0
 10  8  1  0
 13 12  1  1
 13 15  1  0
 14 13  1  0
 16 15  1  6
 16 17  1  0
 16 18  1  0
 17 10  1  0
 18 19  2  0
 21 22  2  0
 21 20  1  0
 23 22  1  0
 24 23  2  0
 25 24  1  0
 26 25  1  6
 27 18  1  0
 27 26  1  0
 28 29  1  0
 28 26  1  0
 30 24  1  0
 30 31  2  0
 31 21  1  0
 32 28  2  0
M  END
$$$$
