RLY.pdb
     RDKit          3D

 32 32  0  0  1  0  0  0  0  0999 V2000
    9.5693  -19.8260   13.3279 N   0  0  0  0  0  0  0  0  0  0  0  0
    8.5427  -20.7688   13.6277 C   0  0  0  0  0  0  0  0  0  0  0  0
    8.0302  -21.5210   12.6895 N   0  0  0  0  0  0  0  0  0  0  0  0
    8.0246  -20.9486   14.9296 N   0  0  0  0  0  0  0  0  0  0  0  0
    8.1528  -19.9139   15.9274 C   0  0  0  0  0  0  0  0  0  0  0  0
    9.2036  -20.3209   16.9089 C   0  0  0  0  0  0  0  0  0  0  0  0
    9.3966  -19.3745   18.0427 C   0  0  0  0  0  0  0  0  0  0  0  0
    9.5125  -17.9360   17.6076 C   0  0  2  0  0  0  0  0  0  0  0  0
   10.5469  -17.7150   16.6328 N   0  0  0  0  0  0  0  0  0  0  0  0
    9.7604  -17.0301   18.7573 C   0  0  0  0  0  0  0  0  0  0  0  0
   10.9085  -16.8889   19.2481 O   0  0  0  0  0  0  0  0  0  0  0  0
    7.2225  -22.1370   12.9411 C   0  0  0  0  0  0  0  0  0  0  0  0
    6.3276  -12.6396   19.8211 C   0  0  1  0  0  0  0  0  0  0  0  0
    7.6121  -13.4330   19.5383 C   0  0  0  0  0  0  0  0  0  0  0  0
    8.7293  -12.4867   19.2646 C   0  0  0  0  0  0  0  0  0  0  0  0
    7.8897  -14.3710   20.6736 C   0  0  2  0  0  0  0  0  0  0  0  0
    8.9545  -15.3688   20.4524 N   0  0  0  0  0  0  0  0  0  0  0  0
    8.7081  -16.2739   19.3642 C   0  0  0  0  0  0  0  0  0  0  0  0
    9.2956  -16.1251   21.7105 O   0  0  0  0  0  0  0  0  0  0  0  0
    8.4433  -16.8744   22.2524 O   0  0  0  0  0  0  0  0  0  0  0  0
   13.0109  -22.8464   25.1041 C   0  0  0  0  0  0  0  0  0  0  0  0
   12.5012  -21.7503   24.4243 C   0  0  0  0  0  0  0  0  0  0  0  0
   13.3486  -21.0796   23.5479 C   0  0  0  0  0  0  0  0  0  0  0  0
   12.8362  -20.0039   22.8851 C   0  0  0  0  0  0  0  0  0  0  0  0
   11.5282  -19.5712   23.0563 C   0  0  0  0  0  0  0  0  0  0  0  0
   11.0513  -18.3922   22.3026 C   0  0  2  0  0  0  0  0  0  0  0  0
   11.1201  -17.1255   23.0875 N   0  0  0  0  0  0  0  0  0  0  0  0
   10.5686  -16.0187   22.3171 C   0  0  0  0  0  0  0  0  0  0  0  0
   12.4903  -16.7866   23.5561 O   0  0  0  0  0  0  0  0  0  0  0  0
   13.4406  -16.1575   22.7898 C   0  0  0  0  0  0  0  0  0  0  0  0
   10.7013  -20.2366   23.9203 C   0  0  0  0  0  0  0  0  0  0  0  0
   11.2088  -21.3337   24.6022 O   0  0  0  0  0  0  0  0  0  0  0  0
  2  3  2  0
  2  1  1  0
  4  2  1  0
  5  4  1  0
  6  5  1  0
  7  6  1  0
  8  9  1  6
  8  7  1  0
 10 11  2  0
 10  8  1  0
 13 12  1  6
 13 15  1  0
 14 13  1  0
 16 15  1  6
 16 17  1  0
 16 18  1  0
 17 10  1  0
 18 19  2  0
 21 22  2  0
 21 20  1  0
 23 22  1  0
 24 23  2  0
 25 24  1  0
 26 25  1  1
 27 18  1  0
 27 26  1  0
 28 29  1  0
 28 26  1  0
 30 24  1  0
 30 31  2  0
 31 21  1  0
 32 28  2  0
M  END
$$$$
