RLY.pdb
     RDKit          3D

 32 32  0  0  1  0  0  0  0  0999 V2000
    7.1995  -18.0424   17.1195 N   0  0  0  0  0  0  0  0  0  0  0  0
    6.4081  -19.0082   17.8075 C   0  0  0  0  0  0  0  0  0  0  0  0
    5.3401  -19.5171   17.2513 N   0  0  0  0  0  0  0  0  0  0  0  0
    6.7199  -19.4692   19.1060 N   0  0  0  0  0  0  0  0  0  0  0  0
    7.8497  -18.9373   19.8294 C   0  0  0  0  0  0  0  0  0  0  0  0
    7.6166  -17.4830   20.0821 C   0  0  0  0  0  0  0  0  0  0  0  0
    8.1218  -16.9902   21.3937 C   0  0  0  0  0  0  0  0  0  0  0  0
    7.7723  -15.5496   21.6661 C   0  0  2  0  0  0  0  0  0  0  0  0
    8.2014  -14.6510   20.6281 N   0  0  0  0  0  0  0  0  0  0  0  0
    8.3442  -15.0765   22.9518 C   0  0  0  0  0  0  0  0  0  0  0  0
    9.5752  -14.8617   23.0849 O   0  0  0  0  0  0  0  0  0  0  0  0
    4.8340  -20.2759   17.7644 C   0  0  0  0  0  0  0  0  0  0  0  0
    5.5277  -12.0656   26.8576 C   0  0  1  0  0  0  0  0  0  0  0  0
    6.6327  -12.5193   25.8920 C   0  0  0  0  0  0  0  0  0  0  0  0
    7.6836  -11.4668   25.8115 C   0  0  0  0  0  0  0  0  0  0  0  0
    7.1595  -13.8567   26.3157 C   0  0  2  0  0  0  0  0  0  0  0  0
    8.0921  -14.5181   25.3823 N   0  0  0  0  0  0  0  0  0  0  0  0
    7.5262  -14.8422   24.1021 C   0  0  0  0  0  0  0  0  0  0  0  0
    8.7510  -15.7259   25.9971 O   0  0  0  0  0  0  0  0  0  0  0  0
    8.1220  -16.8101   26.0994 O   0  0  0  0  0  0  0  0  0  0  0  0
   11.5719  -18.6536   21.1183 C   0  0  0  0  0  0  0  0  0  0  0  0
   11.6879  -18.2605   22.4433 C   0  0  0  0  0  0  0  0  0  0  0  0
   11.3076  -19.1702   23.4250 C   0  0  0  0  0  0  0  0  0  0  0  0
   11.4265  -18.7725   24.7237 C   0  0  0  0  0  0  0  0  0  0  0  0
   11.9031  -17.5191   25.0835 C   0  0  0  0  0  0  0  0  0  0  0  0
   11.9967  -17.1640   26.5155 C   0  0  2  0  0  0  0  0  0  0  0  0
   10.6758  -16.8401   27.1284 N   0  0  0  0  0  0  0  0  0  0  0  0
   10.0815  -15.6818   26.4744 C   0  0  0  0  0  0  0  0  0  0  0  0
   10.7369  -16.6195   28.5979 O   0  0  0  0  0  0  0  0  0  0  0  0
   11.2054  -17.5398   29.5032 C   0  0  0  0  0  0  0  0  0  0  0  0
   12.2750  -16.6304   24.1114 C   0  0  0  0  0  0  0  0  0  0  0  0
   12.1597  -17.0210   22.7847 O   0  0  0  0  0  0  0  0  0  0  0  0
  2  3  2  0
  2  1  1  0
  4  2  1  0
  5  4  1  0
  6  5  1  0
  7  6  1  0
  8  9  1  6
  8  7  1  0
 10 11  2  0
 10  8  1  0
 13 12  1  6
 13 15  1  0
 14 13  1  0
 16 15  1  6
 16 17  1  0
 16 18  1  0
 17 10  1  0
 18 19  2  0
 21 22  2  0
 21 20  1  0
 23 22  1  0
 24 23  2  0
 25 24  1  0
 26 25  1  6
 27 18  1  0
 27 26  1  0
 28 29  1  0
 28 26  1  0
 30 24  1  0
 30 31  2  0
 31 21  1  0
 32 28  2  0
M  END
$$$$
