RLY.pdb
     RDKit          3D

 32 32  0  0  1  0  0  0  0  0999 V2000
   11.8717  -20.7692   19.8975 N   0  0  0  0  0  0  0  0  0  0  0  0
   11.8903  -20.6443   21.3175 C   0  0  0  0  0  0  0  0  0  0  0  0
   12.9763  -20.2716   21.9424 N   0  0  0  0  0  0  0  0  0  0  0  0
   10.7609  -20.9082   22.1243 N   0  0  0  0  0  0  0  0  0  0  0  0
    9.4407  -20.5027   21.7060 C   0  0  0  0  0  0  0  0  0  0  0  0
    9.4899  -19.0705   21.2823 C   0  0  0  0  0  0  0  0  0  0  0  0
    9.1827  -18.0910   22.3616 C   0  0  0  0  0  0  0  0  0  0  0  0
    8.9981  -16.6830   21.8565 C   0  0  2  0  0  0  0  0  0  0  0  0
    9.9087  -16.3305   20.8002 N   0  0  0  0  0  0  0  0  0  0  0  0
    9.1434  -15.6831   22.9441 C   0  0  0  0  0  0  0  0  0  0  0  0
   10.2645  -15.2098   23.2574 O   0  0  0  0  0  0  0  0  0  0  0  0
   12.9325  -20.1676   22.9828 C   0  0  0  0  0  0  0  0  0  0  0  0
    8.0072  -11.3996   25.9246 C   0  0  2  0  0  0  0  0  0  0  0  0
    7.1072  -12.5865   26.2995 C   0  0  0  0  0  0  0  0  0  0  0  0
    5.7966  -12.0786   26.7927 C   0  0  0  0  0  0  0  0  0  0  0  0
    6.9844  -13.5190   25.1327 C   0  0  1  0  0  0  0  0  0  0  0  0
    8.1711  -14.3406   24.8243 N   0  0  0  0  0  0  0  0  0  0  0  0
    8.0181  -15.2087   23.6898 C   0  0  0  0  0  0  0  0  0  0  0  0
    8.6576  -15.1103   26.0251 O   0  0  0  0  0  0  0  0  0  0  0  0
    7.9892  -16.0761   26.4746 O   0  0  0  0  0  0  0  0  0  0  0  0
   11.8877  -20.4961   24.2301 C   0  0  0  0  0  0  0  0  0  0  0  0
   11.8394  -19.3796   25.0514 C   0  0  0  0  0  0  0  0  0  0  0  0
   11.8173  -19.5872   26.4270 C   0  0  0  0  0  0  0  0  0  0  0  0
   11.7701  -18.4820   27.2241 C   0  0  0  0  0  0  0  0  0  0  0  0
   11.7438  -17.1907   26.7147 C   0  0  0  0  0  0  0  0  0  0  0  0
   11.6880  -16.0455   27.6478 C   0  0  2  0  0  0  0  0  0  0  0  0
   10.3068  -15.5205   27.8522 N   0  0  0  0  0  0  0  0  0  0  0  0
    9.8662  -14.7768   26.6794 C   0  0  0  0  0  0  0  0  0  0  0  0
   10.1607  -14.6815   29.0715 O   0  0  0  0  0  0  0  0  0  0  0  0
   10.2562  -15.1553   30.3570 C   0  0  0  0  0  0  0  0  0  0  0  0
   11.7659  -16.9955   25.3603 C   0  0  0  0  0  0  0  0  0  0  0  0
   11.8140  -18.1110   24.5359 O   0  0  0  0  0  0  0  0  0  0  0  0
  2  3  2  0
  2  1  1  0
  4  2  1  0
  5  4  1  0
  6  5  1  0
  7  6  1  0
  8  9  1  6
  8  7  1  0
 10 11  2  0
 10  8  1  0
 13 12  1  1
 13 15  1  0
 14 13  1  0
 16 15  1  6
 16 17  1  0
 16 18  1  0
 17 10  1  0
 18 19  2  0
 21 22  2  0
 21 20  1  0
 23 22  1  0
 24 23  2  0
 25 24  1  0
 26 25  1  6
 27 18  1  0
 27 26  1  0
 28 29  1  0
 28 26  1  0
 30 24  1  0
 30 31  2  0
 31 21  1  0
 32 28  2  0
M  END
$$$$
