RLY.pdb
     RDKit          3D

 32 32  0  0  1  0  0  0  0  0999 V2000
    7.1440  -12.9479   16.9756 N   0  0  0  0  0  0  0  0  0  0  0  0
    8.3295  -13.2789   17.6950 C   0  0  0  0  0  0  0  0  0  0  0  0
    9.0902  -12.3426   18.1985 N   0  0  0  0  0  0  0  0  0  0  0  0
    8.7499  -14.6109   17.9071 N   0  0  0  0  0  0  0  0  0  0  0  0
    7.8942  -15.7212   17.5644 C   0  0  0  0  0  0  0  0  0  0  0  0
    7.6988  -16.5697   18.7789 C   0  0  0  0  0  0  0  0  0  0  0  0
    8.9430  -17.1931   19.3096 C   0  0  0  0  0  0  0  0  0  0  0  0
    8.8937  -17.4579   20.7926 C   0  0  2  0  0  0  0  0  0  0  0  0
    7.7068  -18.1554   21.2097 N   0  0  0  0  0  0  0  0  0  0  0  0
    8.9931  -16.2037   21.5806 C   0  0  0  0  0  0  0  0  0  0  0  0
    9.9456  -15.3998   21.4206 O   0  0  0  0  0  0  0  0  0  0  0  0
    9.9712  -12.6336   18.6826 C   0  0  0  0  0  0  0  0  0  0  0  0
    7.2068  -11.9532   24.3588 C   0  0  2  0  0  0  0  0  0  0  0  0
    7.1417  -13.2387   25.1970 C   0  0  0  0  0  0  0  0  0  0  0  0
    6.0339  -13.1296   26.1868 C   0  0  0  0  0  0  0  0  0  0  0  0
    7.0193  -14.4281   24.2937 C   0  0  1  0  0  0  0  0  0  0  0  0
    8.1554  -14.6798   23.3858 N   0  0  0  0  0  0  0  0  0  0  0  0
    8.0132  -15.8471   22.5604 C   0  0  0  0  0  0  0  0  0  0  0  0
    9.4736  -14.6984   24.1160 O   0  0  0  0  0  0  0  0  0  0  0  0
   10.0878  -13.6254   24.3463 O   0  0  0  0  0  0  0  0  0  0  0  0
   11.6107  -16.2826   32.1548 C   0  0  0  0  0  0  0  0  0  0  0  0
   11.1207  -16.1167   30.8680 C   0  0  0  0  0  0  0  0  0  0  0  0
   10.7389  -17.2568   30.1677 C   0  0  0  0  0  0  0  0  0  0  0  0
   10.2585  -17.0810   28.9039 C   0  0  0  0  0  0  0  0  0  0  0  0
   10.1435  -15.8300   28.3127 C   0  0  0  0  0  0  0  0  0  0  0  0
    9.6168  -15.7261   26.9353 C   0  0  1  0  0  0  0  0  0  0  0  0
   10.6445  -16.0046   25.8905 N   0  0  0  0  0  0  0  0  0  0  0  0
   10.0576  -15.9072   24.5605 C   0  0  0  0  0  0  0  0  0  0  0  0
   11.3212  -17.3189   26.0533 O   0  0  0  0  0  0  0  0  0  0  0  0
   12.4192  -17.5345   26.8495 C   0  0  0  0  0  0  0  0  0  0  0  0
   10.5214  -14.7138   29.0086 C   0  0  0  0  0  0  0  0  0  0  0  0
   11.0123  -14.8769   30.2964 O   0  0  0  0  0  0  0  0  0  0  0  0
  2  3  2  0
  2  1  1  0
  4  2  1  0
  5  4  1  0
  6  5  1  0
  7  6  1  0
  8  9  1  6
  8  7  1  0
 10 11  2  0
 10  8  1  0
 13 12  1  1
 13 15  1  0
 14 13  1  0
 16 15  1  6
 16 17  1  0
 16 18  1  0
 17 10  1  0
 18 19  2  0
 21 22  2  0
 21 20  1  0
 23 22  1  0
 24 23  2  0
 25 24  1  0
 26 25  1  6
 27 18  1  0
 27 26  1  0
 28 29  1  0
 28 26  1  0
 30 24  1  0
 30 31  2  0
 31 21  1  0
 32 28  2  0
M  END
$$$$
