RLY.pdb
     RDKit          3D

 32 32  0  0  1  0  0  0  0  0999 V2000
   10.4213  -22.3625   22.0168 N   0  0  0  0  0  0  0  0  0  0  0  0
    9.2579  -22.9608   21.4503 C   0  0  0  0  0  0  0  0  0  0  0  0
    8.7404  -24.0423   21.9711 N   0  0  0  0  0  0  0  0  0  0  0  0
    8.6020  -22.4349   20.3148 N   0  0  0  0  0  0  0  0  0  0  0  0
    8.8355  -21.0766   19.8873 C   0  0  0  0  0  0  0  0  0  0  0  0
    8.7837  -20.1813   21.0827 C   0  0  0  0  0  0  0  0  0  0  0  0
    9.8690  -19.1632   21.1455 C   0  0  0  0  0  0  0  0  0  0  0  0
    9.7172  -18.0636   20.1258 C   0  0  2  0  0  0  0  0  0  0  0  0
   10.7071  -18.1099   19.0832 N   0  0  0  0  0  0  0  0  0  0  0  0
    9.7692  -16.7189   20.7525 C   0  0  0  0  0  0  0  0  0  0  0  0
   10.8557  -16.1065   20.9069 O   0  0  0  0  0  0  0  0  0  0  0  0
    7.9388  -24.4925   21.4712 C   0  0  0  0  0  0  0  0  0  0  0  0
    6.3835  -12.4382   19.8707 C   0  0  1  0  0  0  0  0  0  0  0  0
    7.6385  -13.2803   20.1448 C   0  0  0  0  0  0  0  0  0  0  0  0
    8.8534  -12.4568   19.8908 C   0  0  0  0  0  0  0  0  0  0  0  0
    7.5791  -13.8433   21.5324 C   0  0  2  0  0  0  0  0  0  0  0  0
    8.6478  -14.7928   21.8994 N   0  0  0  0  0  0  0  0  0  0  0  0
    8.5890  -16.0531   21.2121 C   0  0  0  0  0  0  0  0  0  0  0  0
    8.7376  -14.9998   23.3894 O   0  0  0  0  0  0  0  0  0  0  0  0
    8.4646  -14.0601   24.1793 O   0  0  0  0  0  0  0  0  0  0  0  0
    7.2892  -10.6724   27.2154 C   0  0  0  0  0  0  0  0  0  0  0  0
    7.3785  -12.0157   26.8821 C   0  0  0  0  0  0  0  0  0  0  0  0
    8.4211  -12.7528   27.4349 C   0  0  0  0  0  0  0  0  0  0  0  0
    8.4983  -14.0723   27.1000 C   0  0  0  0  0  0  0  0  0  0  0  0
    7.5903  -14.6834   26.2458 C   0  0  0  0  0  0  0  0  0  0  0  0
    7.7474  -16.1190   25.9296 C   0  0  2  0  0  0  0  0  0  0  0  0
    9.0939  -16.4567   25.3835 N   0  0  0  0  0  0  0  0  0  0  0  0
    9.1276  -16.2413   23.9430 C   0  0  0  0  0  0  0  0  0  0  0  0
    9.5381  -17.8398   25.7020 O   0  0  0  0  0  0  0  0  0  0  0  0
    9.8904  -18.7786   24.7635 C   0  0  0  0  0  0  0  0  0  0  0  0
    6.5678  -13.9510   25.7065 C   0  0  0  0  0  0  0  0  0  0  0  0
    6.4761  -12.6065   26.0382 O   0  0  0  0  0  0  0  0  0  0  0  0
  2  3  2  0
  2  1  1  0
  4  2  1  0
  5  4  1  0
  6  5  1  0
  7  6  1  0
  8  9  1  6
  8  7  1  0
 10 11  2  0
 10  8  1  0
 13 12  1  6
 13 15  1  0
 14 13  1  0
 16 15  1  6
 16 17  1  0
 16 18  1  0
 17 10  1  0
 18 19  2  0
 21 22  2  0
 21 20  1  0
 23 22  1  0
 24 23  2  0
 25 24  1  0
 26 25  1  1
 27 18  1  0
 27 26  1  0
 28 29  1  0
 28 26  1  0
 30 24  1  0
 30 31  2  0
 31 21  1  0
 32 28  2  0
M  END
$$$$
