RLY.pdb
     RDKit          3D

 32 32  0  0  1  0  0  0  0  0999 V2000
    6.7962  -13.8474   18.7422 N   0  0  0  0  0  0  0  0  0  0  0  0
    7.7776  -14.2136   17.7751 C   0  0  0  0  0  0  0  0  0  0  0  0
    8.3688  -13.3050   17.0445 N   0  0  0  0  0  0  0  0  0  0  0  0
    8.1675  -15.5525   17.5489 N   0  0  0  0  0  0  0  0  0  0  0  0
    7.9753  -16.5614   18.5627 C   0  0  0  0  0  0  0  0  0  0  0  0
    8.6762  -16.1289   19.8096 C   0  0  0  0  0  0  0  0  0  0  0  0
    8.2267  -16.8221   21.0489 C   0  0  0  0  0  0  0  0  0  0  0  0
    7.2690  -16.0048   21.8773 C   0  0  2  0  0  0  0  0  0  0  0  0
    6.6965  -14.8959   21.1618 N   0  0  0  0  0  0  0  0  0  0  0  0
    7.9134  -15.4779   23.1065 C   0  0  0  0  0  0  0  0  0  0  0  0
    9.0153  -14.8751   23.0651 O   0  0  0  0  0  0  0  0  0  0  0  0
    9.0101  -13.6285   16.2833 C   0  0  0  0  0  0  0  0  0  0  0  0
    5.7233  -12.2211   26.4685 C   0  0  1  0  0  0  0  0  0  0  0  0
    6.8627  -12.9207   25.7125 C   0  0  0  0  0  0  0  0  0  0  0  0
    8.0191  -11.9903   25.5869 C   0  0  0  0  0  0  0  0  0  0  0  0
    7.2065  -14.2108   26.3931 C   0  0  2  0  0  0  0  0  0  0  0  0
    7.9741  -15.1869   25.5954 N   0  0  0  0  0  0  0  0  0  0  0  0
    7.3154  -15.6292   24.3976 C   0  0  0  0  0  0  0  0  0  0  0  0
    8.4299  -16.3627   26.4205 O   0  0  0  0  0  0  0  0  0  0  0  0
    7.6333  -17.2984   26.6882 O   0  0  0  0  0  0  0  0  0  0  0  0
    5.1300  -21.2528   26.3333 C   0  0  0  0  0  0  0  0  0  0  0  0
    6.3704  -20.6325   26.3189 C   0  0  0  0  0  0  0  0  0  0  0  0
    7.1743  -20.7645   27.4469 C   0  0  0  0  0  0  0  0  0  0  0  0
    8.3914  -20.1505   27.4208 C   0  0  0  0  0  0  0  0  0  0  0  0
    8.8380  -19.4171   26.3299 C   0  0  0  0  0  0  0  0  0  0  0  0
   10.1700  -18.7781   26.3837 C   0  0  2  0  0  0  0  0  0  0  0  0
   10.2704  -17.7151   27.4255 N   0  0  0  0  0  0  0  0  0  0  0  0
    9.7514  -16.4526   26.9162 C   0  0  0  0  0  0  0  0  0  0  0  0
   11.6477  -17.5235   27.9530 O   0  0  0  0  0  0  0  0  0  0  0  0
   12.3492  -16.3448   27.8849 C   0  0  0  0  0  0  0  0  0  0  0  0
    8.0409  -19.2922   25.2245 C   0  0  0  0  0  0  0  0  0  0  0  0
    6.7991  -19.9118   25.2361 O   0  0  0  0  0  0  0  0  0  0  0  0
  2  3  2  0
  2  1  1  0
  4  2  1  0
  5  4  1  0
  6  5  1  0
  7  6  1  0
  8  9  1  6
  8  7  1  0
 10 11  2  0
 10  8  1  0
 13 12  1  6
 13 15  1  0
 14 13  1  0
 16 15  1  6
 16 17  1  0
 16 18  1  0
 17 10  1  0
 18 19  2  0
 21 22  2  0
 21 20  1  0
 23 22  1  0
 24 23  2  0
 25 24  1  0
 26 25  1  1
 27 18  1  0
 27 26  1  0
 28 29  1  0
 28 26  1  0
 30 24  1  0
 30 31  2  0
 31 21  1  0
 32 28  2  0
M  END
$$$$
