RLY.pdb
     RDKit          3D

 32 32  0  0  1  0  0  0  0  0999 V2000
    9.0848  -15.1971   16.1257 N   0  0  0  0  0  0  0  0  0  0  0  0
    7.9668  -14.4963   15.5860 C   0  0  0  0  0  0  0  0  0  0  0  0
    7.9520  -14.1234   14.3331 N   0  0  0  0  0  0  0  0  0  0  0  0
    6.8265  -14.1672   16.3525 N   0  0  0  0  0  0  0  0  0  0  0  0
    6.8964  -13.1709   17.3941 C   0  0  0  0  0  0  0  0  0  0  0  0
    8.1316  -13.4063   18.2016 C   0  0  0  0  0  0  0  0  0  0  0  0
    7.9252  -13.3821   19.6765 C   0  0  0  0  0  0  0  0  0  0  0  0
    8.0554  -14.7385   20.3208 C   0  0  2  0  0  0  0  0  0  0  0  0
    6.7901  -15.3703   20.5839 N   0  0  0  0  0  0  0  0  0  0  0  0
    8.8129  -14.6734   21.5958 C   0  0  0  0  0  0  0  0  0  0  0  0
   10.0672  -14.5996   21.6130 O   0  0  0  0  0  0  0  0  0  0  0  0
    7.1141  -13.6009   13.9867 C   0  0  0  0  0  0  0  0  0  0  0  0
    6.1392  -12.8993   26.1407 C   0  0  1  0  0  0  0  0  0  0  0  0
    7.1773  -12.9889   25.0121 C   0  0  0  0  0  0  0  0  0  0  0  0
    7.8900  -11.6868   24.8894 C   0  0  0  0  0  0  0  0  0  0  0  0
    8.0935  -14.1495   25.2560 C   0  0  2  0  0  0  0  0  0  0  0  0
    8.8880  -14.6098   24.1005 N   0  0  0  0  0  0  0  0  0  0  0  0
    8.1560  -14.6918   22.8669 C   0  0  0  0  0  0  0  0  0  0  0  0
    9.6061  -15.9041   24.3834 O   0  0  0  0  0  0  0  0  0  0  0  0
    9.0209  -17.0050   24.2184 O   0  0  0  0  0  0  0  0  0  0  0  0
   10.7667  -14.4020   31.4268 C   0  0  0  0  0  0  0  0  0  0  0  0
   10.6688  -15.1181   30.2431 C   0  0  0  0  0  0  0  0  0  0  0  0
   11.0247  -16.4629   30.2676 C   0  0  0  0  0  0  0  0  0  0  0  0
   10.9240  -17.1564   29.0980 C   0  0  0  0  0  0  0  0  0  0  0  0
   10.4883  -16.5733   27.9158 C   0  0  0  0  0  0  0  0  0  0  0  0
   10.4120  -17.3945   26.6889 C   0  0  2  0  0  0  0  0  0  0  0  0
   11.4319  -17.0203   25.6666 N   0  0  0  0  0  0  0  0  0  0  0  0
   10.9448  -15.9248   24.8389 C   0  0  0  0  0  0  0  0  0  0  0  0
   11.8613  -18.1557   24.8073 O   0  0  0  0  0  0  0  0  0  0  0  0
   12.6570  -19.1924   25.2295 C   0  0  0  0  0  0  0  0  0  0  0  0
   10.1402  -15.2498   27.9005 C   0  0  0  0  0  0  0  0  0  0  0  0
   10.2374  -14.5308   29.0835 O   0  0  0  0  0  0  0  0  0  0  0  0
  2  3  2  0
  2  1  1  0
  4  2  1  0
  5  4  1  0
  6  5  1  0
  7  6  1  0
  8  9  1  1
  8  7  1  0
 10 11  2  0
 10  8  1  0
 13 12  1  6
 13 15  1  0
 14 13  1  0
 16 15  1  6
 16 17  1  0
 16 18  1  0
 17 10  1  0
 18 19  2  0
 21 22  2  0
 21 20  1  0
 23 22  1  0
 24 23  2  0
 25 24  1  0
 26 25  1  1
 27 18  1  0
 27 26  1  0
 28 29  1  0
 28 26  1  0
 30 24  1  0
 30 31  2  0
 31 21  1  0
 32 28  2  0
M  END
$$$$
