RLY.pdb
     RDKit          3D

 32 32  0  0  1  0  0  0  0  0999 V2000
    9.0649  -15.8350   15.0445 N   0  0  0  0  0  0  0  0  0  0  0  0
    8.3839  -14.6517   14.6338 C   0  0  0  0  0  0  0  0  0  0  0  0
    8.4633  -14.2280   13.3998 N   0  0  0  0  0  0  0  0  0  0  0  0
    7.5953  -13.8775   15.5139 N   0  0  0  0  0  0  0  0  0  0  0  0
    8.1273  -13.4153   16.7732 C   0  0  0  0  0  0  0  0  0  0  0  0
    7.2053  -13.8413   17.8694 C   0  0  0  0  0  0  0  0  0  0  0  0
    7.6616  -13.4830   19.2412 C   0  0  0  0  0  0  0  0  0  0  0  0
    8.2080  -14.6554   20.0149 C   0  0  2  0  0  0  0  0  0  0  0  0
    7.2783  -15.7468   20.1316 N   0  0  0  0  0  0  0  0  0  0  0  0
    8.6343  -14.2639   21.3820 C   0  0  0  0  0  0  0  0  0  0  0  0
    9.6042  -13.4879   21.5718 O   0  0  0  0  0  0  0  0  0  0  0  0
    7.8729  -13.4094   13.1231 C   0  0  0  0  0  0  0  0  0  0  0  0
    7.8883  -11.7576   25.7466 C   0  0  2  0  0  0  0  0  0  0  0  0
    7.1157  -13.0795   25.8678 C   0  0  0  0  0  0  0  0  0  0  0  0
    5.8281  -12.8381   26.5767 C   0  0  0  0  0  0  0  0  0  0  0  0
    6.9436  -13.6933   24.5115 C   0  0  1  0  0  0  0  0  0  0  0  0
    8.1743  -14.1600   23.8438 N   0  0  0  0  0  0  0  0  0  0  0  0
    7.9654  -14.7491   22.5501 C   0  0  0  0  0  0  0  0  0  0  0  0
    8.9865  -15.0753   24.7234 O   0  0  0  0  0  0  0  0  0  0  0  0
    8.5295  -15.4657   25.8281 O   0  0  0  0  0  0  0  0  0  0  0  0
   10.3724  -16.9003   31.5693 C   0  0  0  0  0  0  0  0  0  0  0  0
   10.5908  -16.4048   30.2925 C   0  0  0  0  0  0  0  0  0  0  0  0
   10.5345  -15.0260   30.1139 C   0  0  0  0  0  0  0  0  0  0  0  0
   10.7511  -14.5508   28.8545 C   0  0  0  0  0  0  0  0  0  0  0  0
   11.0184  -15.3820   27.7751 C   0  0  0  0  0  0  0  0  0  0  0  0
   11.2372  -14.7865   26.4398 C   0  0  1  0  0  0  0  0  0  0  0  0
   11.2916  -15.7996   25.3461 N   0  0  0  0  0  0  0  0  0  0  0  0
   10.2737  -15.5199   24.3420 C   0  0  0  0  0  0  0  0  0  0  0  0
   11.1636  -17.2021   25.8240 O   0  0  0  0  0  0  0  0  0  0  0  0
   10.0524  -17.9878   25.6395 C   0  0  0  0  0  0  0  0  0  0  0  0
   11.0720  -16.7370   27.9596 C   0  0  0  0  0  0  0  0  0  0  0  0
   10.8537  -17.2358   29.2362 O   0  0  0  0  0  0  0  0  0  0  0  0
  2  3  2  0
  2  1  1  0
  4  2  1  0
  5  4  1  0
  6  5  1  0
  7  6  1  0
  8  9  1  1
  8  7  1  0
 10 11  2  0
 10  8  1  0
 13 12  1  1
 13 15  1  0
 14 13  1  0
 16 15  1  6
 16 17  1  0
 16 18  1  0
 17 10  1  0
 18 19  2  0
 21 22  2  0
 21 20  1  0
 23 22  1  0
 24 23  2  0
 25 24  1  0
 26 25  1  6
 27 18  1  0
 27 26  1  0
 28 29  1  0
 28 26  1  0
 30 24  1  0
 30 31  2  0
 31 21  1  0
 32 28  2  0
M  END
$$$$
