RLY.pdb
     RDKit          3D

 32 32  0  0  1  0  0  0  0  0999 V2000
   11.9338  -18.5075   17.8421 N   0  0  0  0  0  0  0  0  0  0  0  0
   11.6576  -18.8848   19.1889 C   0  0  0  0  0  0  0  0  0  0  0  0
   12.5094  -19.6053   19.8701 N   0  0  0  0  0  0  0  0  0  0  0  0
   10.4721  -18.5119   19.8609 N   0  0  0  0  0  0  0  0  0  0  0  0
    9.4456  -17.7541   19.1868 C   0  0  0  0  0  0  0  0  0  0  0  0
    8.3479  -17.4626   20.1581 C   0  0  0  0  0  0  0  0  0  0  0  0
    8.6006  -16.2984   21.0521 C   0  0  0  0  0  0  0  0  0  0  0  0
    8.4773  -16.6315   22.5169 C   0  0  2  0  0  0  0  0  0  0  0  0
    7.1272  -16.9090   22.9285 N   0  0  0  0  0  0  0  0  0  0  0  0
    9.0077  -15.5437   23.3767 C   0  0  0  0  0  0  0  0  0  0  0  0
   10.1817  -15.1149   23.2460 O   0  0  0  0  0  0  0  0  0  0  0  0
   12.2223  -19.9362   20.8205 C   0  0  0  0  0  0  0  0  0  0  0  0
    5.4937  -12.1111   26.0792 C   0  0  1  0  0  0  0  0  0  0  0  0
    6.6326  -12.5990   25.1714 C   0  0  0  0  0  0  0  0  0  0  0  0
    7.0531  -11.4936   24.2659 C   0  0  0  0  0  0  0  0  0  0  0  0
    7.7509  -13.1428   26.0077 C   0  0  2  0  0  0  0  0  0  0  0  0
    8.7586  -13.9583   25.3021 N   0  0  0  0  0  0  0  0  0  0  0  0
    8.2125  -14.9300   24.3956 C   0  0  0  0  0  0  0  0  0  0  0  0
    9.7355  -14.6024   26.2518 O   0  0  0  0  0  0  0  0  0  0  0  0
   10.4904  -13.8931   26.9650 O   0  0  0  0  0  0  0  0  0  0  0  0
   13.1292  -19.5131   32.4714 C   0  0  0  0  0  0  0  0  0  0  0  0
   12.3662  -18.8397   31.5293 C   0  0  0  0  0  0  0  0  0  0  0  0
   11.4953  -19.5893   30.7446 C   0  0  0  0  0  0  0  0  0  0  0  0
   10.7503  -18.9162   29.8222 C   0  0  0  0  0  0  0  0  0  0  0  0
   10.8349  -17.5413   29.6488 C   0  0  0  0  0  0  0  0  0  0  0  0
    9.9951  -16.8883   28.6223 C   0  0  1  0  0  0  0  0  0  0  0  0
   10.7284  -16.6089   27.3536 N   0  0  0  0  0  0  0  0  0  0  0  0
    9.8357  -16.0079   26.3714 C   0  0  0  0  0  0  0  0  0  0  0  0
   11.3936  -17.8052   26.7721 O   0  0  0  0  0  0  0  0  0  0  0  0
   12.7285  -18.0967   26.9110 C   0  0  0  0  0  0  0  0  0  0  0  0
   11.6941  -16.8116   30.4248 C   0  0  0  0  0  0  0  0  0  0  0  0
   12.4591  -17.4828   31.3684 O   0  0  0  0  0  0  0  0  0  0  0  0
  2  3  2  0
  2  1  1  0
  4  2  1  0
  5  4  1  0
  6  5  1  0
  7  6  1  0
  8  9  1  1
  8  7  1  0
 10 11  2  0
 10  8  1  0
 13 12  1  6
 13 15  1  0
 14 13  1  0
 16 15  1  6
 16 17  1  0
 16 18  1  0
 17 10  1  0
 18 19  2  0
 21 22  2  0
 21 20  1  0
 23 22  1  0
 24 23  2  0
 25 24  1  0
 26 25  1  1
 27 18  1  0
 27 26  1  0
 28 29  1  0
 28 26  1  0
 30 24  1  0
 30 31  2  0
 31 21  1  0
 32 28  2  0
M  END
$$$$
