RLY.pdb
     RDKit          3D

 32 32  0  0  1  0  0  0  0  0999 V2000
    7.4459  -12.1624   16.1379 N   0  0  0  0  0  0  0  0  0  0  0  0
    7.2350  -13.5538   15.9097 C   0  0  0  0  0  0  0  0  0  0  0  0
    7.6871  -14.1305   14.8272 N   0  0  0  0  0  0  0  0  0  0  0  0
    6.5401  -14.3822   16.8189 N   0  0  0  0  0  0  0  0  0  0  0  0
    6.6728  -14.1934   18.2434 C   0  0  0  0  0  0  0  0  0  0  0  0
    8.0132  -14.6965   18.6717 C   0  0  0  0  0  0  0  0  0  0  0  0
    8.3527  -14.4280   20.0969 C   0  0  0  0  0  0  0  0  0  0  0  0
    8.0254  -15.5767   21.0161 C   0  0  2  0  0  0  0  0  0  0  0  0
    6.7373  -16.1641   20.7611 N   0  0  0  0  0  0  0  0  0  0  0  0
    8.0739  -15.1723   22.4436 C   0  0  0  0  0  0  0  0  0  0  0  0
    7.1526  -14.4974   22.9680 O   0  0  0  0  0  0  0  0  0  0  0  0
    7.6135  -15.1722   14.7590 C   0  0  0  0  0  0  0  0  0  0  0  0
    6.4010  -13.2118   26.1867 C   0  0  1  0  0  0  0  0  0  0  0  0
    7.4422  -13.4005   25.0734 C   0  0  0  0  0  0  0  0  0  0  0  0
    8.2075  -12.1357   24.8907 C   0  0  0  0  0  0  0  0  0  0  0  0
    8.3094  -14.5826   25.3843 C   0  0  2  0  0  0  0  0  0  0  0  0
    9.4665  -14.7973   24.4937 N   0  0  0  0  0  0  0  0  0  0  0  0
    9.1688  -15.5283   23.2933 C   0  0  0  0  0  0  0  0  0  0  0  0
   10.6357  -15.4126   25.2187 O   0  0  0  0  0  0  0  0  0  0  0  0
   11.3361  -14.7188   25.9994 O   0  0  0  0  0  0  0  0  0  0  0  0
    9.5628  -15.3138   30.9756 C   0  0  0  0  0  0  0  0  0  0  0  0
   10.1924  -15.9985   29.9469 C   0  0  0  0  0  0  0  0  0  0  0  0
    9.3925  -16.6994   29.0499 C   0  0  0  0  0  0  0  0  0  0  0  0
   10.0229  -17.3683   28.0428 C   0  0  0  0  0  0  0  0  0  0  0  0
   11.4031  -17.3694   27.8923 C   0  0  0  0  0  0  0  0  0  0  0  0
   12.0087  -18.1245   26.7750 C   0  0  2  0  0  0  0  0  0  0  0  0
   12.2427  -17.2905   25.5605 N   0  0  0  0  0  0  0  0  0  0  0  0
   10.9811  -16.7732   25.0473 C   0  0  0  0  0  0  0  0  0  0  0  0
   12.9786  -18.0007   24.4806 O   0  0  0  0  0  0  0  0  0  0  0  0
   14.2313  -18.5456   24.6221 C   0  0  0  0  0  0  0  0  0  0  0  0
   12.1824  -16.6773   28.7792 C   0  0  0  0  0  0  0  0  0  0  0  0
   11.5551  -15.9914   29.8097 O   0  0  0  0  0  0  0  0  0  0  0  0
  2  3  2  0
  2  1  1  0
  4  2  1  0
  5  4  1  0
  6  5  1  0
  7  6  1  0
  8  9  1  6
  8  7  1  0
 10 11  2  0
 10  8  1  0
 13 12  1  6
 13 15  1  0
 14 13  1  0
 16 15  1  6
 16 17  1  0
 16 18  1  0
 17 10  1  0
 18 19  2  0
 21 22  2  0
 21 20  1  0
 23 22  1  0
 24 23  2  0
 25 24  1  0
 26 25  1  1
 27 18  1  0
 27 26  1  0
 28 29  1  0
 28 26  1  0
 30 24  1  0
 30 31  2  0
 31 21  1  0
 32 28  2  0
M  END
$$$$
