RLY.pdb
     RDKit          3D

 32 32  0  0  1  0  0  0  0  0999 V2000
   11.8349  -19.2551   22.5476 N   0  0  0  0  0  0  0  0  0  0  0  0
   11.7091  -19.8511   21.2587 C   0  0  0  0  0  0  0  0  0  0  0  0
   12.5749  -20.7384   20.8442 N   0  0  0  0  0  0  0  0  0  0  0  0
   10.6629  -19.5298   20.3652 N   0  0  0  0  0  0  0  0  0  0  0  0
   10.3875  -18.1586   20.0095 C   0  0  0  0  0  0  0  0  0  0  0  0
    9.3415  -17.6237   20.9331 C   0  0  0  0  0  0  0  0  0  0  0  0
    8.3431  -16.7252   20.2894 C   0  0  0  0  0  0  0  0  0  0  0  0
    7.4130  -16.0627   21.2732 C   0  0  2  0  0  0  0  0  0  0  0  0
    6.3971  -15.2591   20.6476 N   0  0  0  0  0  0  0  0  0  0  0  0
    8.1487  -15.2077   22.2384 C   0  0  0  0  0  0  0  0  0  0  0  0
    9.0965  -14.4680   21.8727 O   0  0  0  0  0  0  0  0  0  0  0  0
   12.4321  -21.1577   19.8961 C   0  0  0  0  0  0  0  0  0  0  0  0
    5.8541  -12.2808   26.3728 C   0  0  2  0  0  0  0  0  0  0  0  0
    6.7632  -12.6749   25.1991 C   0  0  0  0  0  0  0  0  0  0  0  0
    7.4596  -11.4636   24.6830 C   0  0  0  0  0  0  0  0  0  0  0  0
    7.6994  -13.7646   25.6257 C   0  0  2  0  0  0  0  0  0  0  0  0
    8.5354  -14.3610   24.5657 N   0  0  0  0  0  0  0  0  0  0  0  0
    7.8180  -15.1822   23.6303 C   0  0  0  0  0  0  0  0  0  0  0  0
    9.7225  -15.1009   25.1263 O   0  0  0  0  0  0  0  0  0  0  0  0
   10.5501  -14.5082   25.8649 O   0  0  0  0  0  0  0  0  0  0  0  0
   11.2359  -14.5510   31.4060 C   0  0  0  0  0  0  0  0  0  0  0  0
   10.9499  -15.3156   30.2849 C   0  0  0  0  0  0  0  0  0  0  0  0
   11.5860  -16.5468   30.1604 C   0  0  0  0  0  0  0  0  0  0  0  0
   11.2966  -17.2896   29.0543 C   0  0  0  0  0  0  0  0  0  0  0  0
   10.4094  -16.8625   28.0755 C   0  0  0  0  0  0  0  0  0  0  0  0
   10.1539  -17.7266   26.9034 C   0  0  2  0  0  0  0  0  0  0  0  0
   10.8478  -17.2612   25.6676 N   0  0  0  0  0  0  0  0  0  0  0  0
    9.9441  -16.4688   24.8442 C   0  0  0  0  0  0  0  0  0  0  0  0
   11.4363  -18.3638   24.8615 O   0  0  0  0  0  0  0  0  0  0  0  0
   12.5965  -19.0261   25.1802 C   0  0  0  0  0  0  0  0  0  0  0  0
    9.7881  -15.6501   28.2057 C   0  0  0  0  0  0  0  0  0  0  0  0
   10.0726  -14.8827   29.3265 O   0  0  0  0  0  0  0  0  0  0  0  0
  2  3  2  0
  2  1  1  0
  4  2  1  0
  5  4  1  0
  6  5  1  0
  7  6  1  0
  8  9  1  6
  8  7  1  0
 10 11  2  0
 10  8  1  0
 13 12  1  6
 13 15  1  0
 14 13  1  0
 16 15  1  6
 16 17  1  0
 16 18  1  0
 17 10  1  0
 18 19  2  0
 21 22  2  0
 21 20  1  0
 23 22  1  0
 24 23  2  0
 25 24  1  0
 26 25  1  1
 27 18  1  0
 27 26  1  0
 28 29  1  0
 28 26  1  0
 30 24  1  0
 30 31  2  0
 31 21  1  0
 32 28  2  0
M  END
$$$$
