RLY.pdb
     RDKit          3D

 32 32  0  0  1  0  0  0  0  0999 V2000
    7.7944  -20.8176   16.0921 N   0  0  0  0  0  0  0  0  0  0  0  0
    8.5832  -19.6447   15.9064 C   0  0  0  0  0  0  0  0  0  0  0  0
    8.6117  -19.0333   14.7513 N   0  0  0  0  0  0  0  0  0  0  0  0
    9.3673  -19.0781   16.9361 N   0  0  0  0  0  0  0  0  0  0  0  0
    9.0019  -19.2443   18.3222 C   0  0  0  0  0  0  0  0  0  0  0  0
    7.8620  -18.3288   18.6314 C   0  0  0  0  0  0  0  0  0  0  0  0
    8.2300  -17.1213   19.4219 C   0  0  0  0  0  0  0  0  0  0  0  0
    8.3536  -17.3891   20.9000 C   0  0  2  0  0  0  0  0  0  0  0  0
    7.2107  -18.0623   21.4566 N   0  0  0  0  0  0  0  0  0  0  0  0
    8.5739  -16.1395   21.6707 C   0  0  0  0  0  0  0  0  0  0  0  0
    9.5179  -15.3562   21.3982 O   0  0  0  0  0  0  0  0  0  0  0  0
    9.2700  -18.2277   14.6387 C   0  0  0  0  0  0  0  0  0  0  0  0
    7.1356  -11.8713   24.5120 C   0  0  2  0  0  0  0  0  0  0  0  0
    7.1854  -13.1012   25.4307 C   0  0  0  0  0  0  0  0  0  0  0  0
    6.1855  -12.9446   26.5236 C   0  0  0  0  0  0  0  0  0  0  0  0
    6.9936  -14.3477   24.6212 C   0  0  2  0  0  0  0  0  0  0  0  0
    7.9670  -14.5794   23.5363 N   0  0  0  0  0  0  0  0  0  0  0  0
    7.7258  -15.7642   22.7603 C   0  0  0  0  0  0  0  0  0  0  0  0
    9.3898  -14.5449   24.0318 O   0  0  0  0  0  0  0  0  0  0  0  0
   10.1790  -13.6490   23.6366 O   0  0  0  0  0  0  0  0  0  0  0  0
    9.8121  -17.2462   31.4911 C   0  0  0  0  0  0  0  0  0  0  0  0
   10.1114  -16.5210   30.3475 C   0  0  0  0  0  0  0  0  0  0  0  0
    9.7174  -17.0504   29.1226 C   0  0  0  0  0  0  0  0  0  0  0  0
   10.0169  -16.3283   28.0055 C   0  0  0  0  0  0  0  0  0  0  0  0
   10.6862  -15.1129   28.0554 C   0  0  0  0  0  0  0  0  0  0  0  0
   10.9770  -14.3945   26.7966 C   0  0  1  0  0  0  0  0  0  0  0  0
   11.1514  -15.3044   25.6273 N   0  0  0  0  0  0  0  0  0  0  0  0
    9.8799  -15.5066   24.9455 C   0  0  0  0  0  0  0  0  0  0  0  0
   11.7561  -16.6174   25.9770 O   0  0  0  0  0  0  0  0  0  0  0  0
   11.1953  -17.8353   25.6796 C   0  0  0  0  0  0  0  0  0  0  0  0
   11.0702  -14.5994   29.2645 C   0  0  0  0  0  0  0  0  0  0  0  0
   10.7722  -15.3231   30.4106 O   0  0  0  0  0  0  0  0  0  0  0  0
  2  3  2  0
  2  1  1  0
  4  2  1  0
  5  4  1  0
  6  5  1  0
  7  6  1  0
  8  9  1  1
  8  7  1  0
 10 11  2  0
 10  8  1  0
 13 12  1  1
 13 15  1  0
 14 13  1  0
 16 15  1  6
 16 17  1  0
 16 18  1  0
 17 10  1  0
 18 19  2  0
 21 22  2  0
 21 20  1  0
 23 22  1  0
 24 23  2  0
 25 24  1  0
 26 25  1  6
 27 18  1  0
 27 26  1  0
 28 29  1  0
 28 26  1  0
 30 24  1  0
 30 31  2  0
 31 21  1  0
 32 28  2  0
M  END
$$$$
