RLY.pdb
     RDKit          3D

 32 32  0  0  1  0  0  0  0  0999 V2000
   11.4241  -22.6325   17.0656 N   0  0  0  0  0  0  0  0  0  0  0  0
   10.1496  -22.0811   16.7430 C   0  0  0  0  0  0  0  0  0  0  0  0
    9.2903  -22.7566   16.0260 N   0  0  0  0  0  0  0  0  0  0  0  0
    9.7406  -20.7976   17.1687 N   0  0  0  0  0  0  0  0  0  0  0  0
   10.3730  -19.6087   16.6501 C   0  0  0  0  0  0  0  0  0  0  0  0
   11.5435  -19.2710   17.5156 C   0  0  0  0  0  0  0  0  0  0  0  0
   11.5114  -17.9011   18.0994 C   0  0  0  0  0  0  0  0  0  0  0  0
   11.3489  -17.8933   19.5979 C   0  0  2  0  0  0  0  0  0  0  0  0
   10.6239  -19.0297   20.1002 N   0  0  0  0  0  0  0  0  0  0  0  0
   10.6662  -16.6636   20.0725 C   0  0  0  0  0  0  0  0  0  0  0  0
   10.7982  -15.5656   19.4757 O   0  0  0  0  0  0  0  0  0  0  0  0
    8.3434  -22.3382   15.8722 C   0  0  0  0  0  0  0  0  0  0  0  0
    8.5307  -12.4768   21.3259 C   0  0  2  0  0  0  0  0  0  0  0  0
    7.5639  -13.6113   20.9552 C   0  0  0  0  0  0  0  0  0  0  0  0
    6.6297  -13.1401   19.8950 C   0  0  0  0  0  0  0  0  0  0  0  0
    8.3399  -14.8329   20.5661 C   0  0  1  0  0  0  0  0  0  0  0  0
    9.1010  -15.4950   21.6434 N   0  0  0  0  0  0  0  0  0  0  0  0
    9.8259  -16.6648   21.2307 C   0  0  0  0  0  0  0  0  0  0  0  0
    8.2425  -15.7941   22.8453 O   0  0  0  0  0  0  0  0  0  0  0  0
    7.9721  -16.9831   23.1533 O   0  0  0  0  0  0  0  0  0  0  0  0
   10.6278  -15.0431   30.8470 C   0  0  0  0  0  0  0  0  0  0  0  0
   10.3349  -15.0222   29.4916 C   0  0  0  0  0  0  0  0  0  0  0  0
   10.1508  -13.7825   28.8872 C   0  0  0  0  0  0  0  0  0  0  0  0
    9.8637  -13.7748   27.5543 C   0  0  0  0  0  0  0  0  0  0  0  0
    9.7526  -14.9379   26.8045 C   0  0  0  0  0  0  0  0  0  0  0  0
    9.4338  -14.8428   25.3641 C   0  0  2  0  0  0  0  0  0  0  0  0
    7.9706  -14.7418   25.0914 N   0  0  0  0  0  0  0  0  0  0  0  0
    7.7177  -14.7615   23.6567 C   0  0  0  0  0  0  0  0  0  0  0  0
    7.3294  -13.5484   25.7050 O   0  0  0  0  0  0  0  0  0  0  0  0
    6.4174  -13.5972   26.7307 C   0  0  0  0  0  0  0  0  0  0  0  0
    9.9352  -16.1531   27.4069 C   0  0  0  0  0  0  0  0  0  0  0  0
   10.2282  -16.1771   28.7632 O   0  0  0  0  0  0  0  0  0  0  0  0
  2  3  2  0
  2  1  1  0
  4  2  1  0
  5  4  1  0
  6  5  1  0
  7  6  1  0
  8  9  1  6
  8  7  1  0
 10 11  2  0
 10  8  1  0
 13 12  1  1
 13 15  1  0
 14 13  1  0
 16 15  1  6
 16 17  1  0
 16 18  1  0
 17 10  1  0
 18 19  2  0
 21 22  2  0
 21 20  1  0
 23 22  1  0
 24 23  2  0
 25 24  1  0
 26 25  1  1
 27 18  1  0
 27 26  1  0
 28 29  1  0
 28 26  1  0
 30 24  1  0
 30 31  2  0
 31 21  1  0
 32 28  2  0
M  END
$$$$
