CNQ.pdb
     RDKit          3D

 24 23  0  0  1  0  0  0  0  0999 V2000
   24.9854  -34.0398   -9.7745 N   0  0  0  0  0  0  0  0  0  0  0  0
   25.1732  -33.1304   -8.6760 C   0  0  1  0  0  0  0  0  0  0  0  0
   23.8182  -32.4605   -8.4222 C   0  0  0  0  0  0  0  0  0  0  0  0
   23.6256  -31.1148   -9.6026 S   0  0  0  0  0  0  0  0  0  0  0  0
   25.5409  -33.8586   -7.4261 C   0  0  0  0  0  0  0  0  0  0  0  0
   24.9969  -34.9642   -7.1893 O   0  0  0  0  0  0  0  0  0  0  0  0
   27.8675  -35.1381   -3.0324 N   0  0  0  0  0  0  0  0  0  0  0  0
   28.5200  -33.9361   -3.4782 C   0  0  0  0  0  0  0  0  0  0  0  0
   29.4850  -33.5041   -2.8132 O   0  0  0  0  0  0  0  0  0  0  0  0
   28.0305  -33.2645   -4.6923 C   0  0  0  0  0  0  0  0  0  0  0  0
   26.8353  -33.9534   -5.2664 C   0  0  2  0  0  0  0  0  0  0  0  0
   26.4898  -33.3080   -6.5225 N   0  0  0  0  0  0  0  0  0  0  0  0
   25.6862  -33.8526   -4.3079 C   0  0  0  0  0  0  0  0  0  0  0  0
   24.9195  -32.8607   -4.4746 O   0  0  0  0  0  0  0  0  0  0  0  0
   21.1330  -33.8092   -0.4838 N   0  0  0  0  0  0  0  0  0  0  0  0
   21.3408  -33.7486   -1.8882 C   0  0  0  0  0  0  0  0  0  0  0  0
   21.1385  -32.6270   -2.4484 O   0  0  0  0  0  0  0  0  0  0  0  0
   21.7767  -34.8979   -2.7033 C   0  0  0  0  0  0  0  0  0  0  0  0
   23.1014  -34.7943   -3.3338 C   0  0  0  0  0  0  0  0  0  0  0  0
   24.2812  -34.7242   -2.4300 C   0  0  2  0  0  0  0  0  0  0  0  0
   25.4707  -34.7907   -3.2938 N   0  0  0  0  0  0  0  0  0  0  0  0
   24.3629  -35.7355   -1.3982 C   0  0  0  0  0  0  0  0  0  0  0  0
   23.7255  -35.5365   -0.1696 O   0  0  0  0  0  0  0  0  0  0  0  0
   24.9904  -36.7998   -1.5598 O   0  0  0  0  0  0  0  0  0  0  0  0
  2  3  1  0
  2  1  1  6
  4  3  1  0
  5  6  2  0
  5  2  1  0
  8  7  1  0
  8 10  1  0
  9  8  2  0
 11 10  1  1
 11 12  1  0
 12  5  1  0
 13 11  1  0
 13 21  1  0
 14 13  2  0
 16 15  1  0
 16 17  2  0
 18 16  1  0
 20 19  1  6
 19 18  1  0
 20 21  1  0
 20 22  1  0
 22 24  2  0
 22 23  1  0
M  END
$$$$
