CNQ.pdb
     RDKit          3D

 24 23  0  0  1  0  0  0  0  0999 V2000
   16.4017  -12.7441  -15.1015 N   0  0  0  0  0  0  0  0  0  0  0  0
   17.0434  -11.9811  -16.1384 C   0  0  1  0  0  0  0  0  0  0  0  0
   15.9279  -11.4211  -17.0277 C   0  0  0  0  0  0  0  0  0  0  0  0
   15.1786  -12.7925  -17.9216 S   0  0  0  0  0  0  0  0  0  0  0  0
   17.7803  -10.8122  -15.5743 C   0  0  0  0  0  0  0  0  0  0  0  0
   17.2889  -10.2055  -14.5920 O   0  0  0  0  0  0  0  0  0  0  0  0
   21.4488   -7.2988  -14.7338 N   0  0  0  0  0  0  0  0  0  0  0  0
   22.0701   -8.4264  -15.3754 C   0  0  0  0  0  0  0  0  0  0  0  0
   23.3172   -8.4624  -15.4332 O   0  0  0  0  0  0  0  0  0  0  0  0
   21.2200   -9.4883  -15.9360 C   0  0  0  0  0  0  0  0  0  0  0  0
   19.7768   -9.2756  -15.6125 C   0  0  2  0  0  0  0  0  0  0  0  0
   19.0154  -10.3957  -16.1409 N   0  0  0  0  0  0  0  0  0  0  0  0
   19.3032   -7.9967  -16.2366 C   0  0  0  0  0  0  0  0  0  0  0  0
   18.8792   -8.0914  -17.4244 O   0  0  0  0  0  0  0  0  0  0  0  0
   14.6971   -4.7936  -18.7817 N   0  0  0  0  0  0  0  0  0  0  0  0
   15.2094   -5.5347  -17.6829 C   0  0  0  0  0  0  0  0  0  0  0  0
   14.3877   -5.8339  -16.7620 O   0  0  0  0  0  0  0  0  0  0  0  0
   16.6147   -5.9677  -17.5692 C   0  0  0  0  0  0  0  0  0  0  0  0
   17.1893   -5.9931  -16.2155 C   0  0  0  0  0  0  0  0  0  0  0  0
   18.6164   -5.5962  -16.0750 C   0  0  2  0  0  0  0  0  0  0  0  0
   19.3263   -6.7760  -15.5555 N   0  0  0  0  0  0  0  0  0  0  0  0
   18.8859   -4.4484  -15.2360 C   0  0  0  0  0  0  0  0  0  0  0  0
   18.6118   -3.1591  -15.7027 O   0  0  0  0  0  0  0  0  0  0  0  0
   19.3623   -4.5608  -14.0901 O   0  0  0  0  0  0  0  0  0  0  0  0
  2  3  1  0
  2  1  1  1
  4  3  1  0
  5  6  2  0
  5  2  1  0
  8  7  1  0
  8 10  1  0
  9  8  2  0
 11 10  1  6
 11 12  1  0
 12  5  1  0
 13 11  1  0
 13 21  1  0
 14 13  2  0
 16 15  1  0
 16 17  2  0
 18 16  1  0
 20 19  1  1
 19 18  1  0
 20 21  1  0
 20 22  1  0
 22 24  2  0
 22 23  1  0
M  END
$$$$
