CNQ.pdb
     RDKit          3D

 24 23  0  0  1  0  0  0  0  0999 V2000
   24.0956  -20.4641  -10.1156 N   0  0  0  0  0  0  0  0  0  0  0  0
   25.4853  -20.1392  -10.2946 C   0  0  1  0  0  0  0  0  0  0  0  0
   26.2774  -21.0654   -9.3651 C   0  0  0  0  0  0  0  0  0  0  0  0
   26.0267  -20.5110   -7.6707 S   0  0  0  0  0  0  0  0  0  0  0  0
   25.9351  -20.4302  -11.6876 C   0  0  0  0  0  0  0  0  0  0  0  0
   27.1480  -20.2836  -11.9734 O   0  0  0  0  0  0  0  0  0  0  0  0
   26.8134  -23.9896  -15.7696 N   0  0  0  0  0  0  0  0  0  0  0  0
   26.8509  -22.6041  -15.3847 C   0  0  0  0  0  0  0  0  0  0  0  0
   27.2416  -21.7661  -16.2243 O   0  0  0  0  0  0  0  0  0  0  0  0
   26.4306  -22.2276  -14.0260 C   0  0  0  0  0  0  0  0  0  0  0  0
   25.3961  -21.1494  -14.0415 C   0  0  2  0  0  0  0  0  0  0  0  0
   25.0051  -20.8652  -12.6705 N   0  0  0  0  0  0  0  0  0  0  0  0
   24.2036  -21.6059  -14.8282 C   0  0  0  0  0  0  0  0  0  0  0  0
   23.9517  -22.8441  -14.7716 O   0  0  0  0  0  0  0  0  0  0  0  0
   19.4922  -21.2998  -12.1037 N   0  0  0  0  0  0  0  0  0  0  0  0
   19.6865  -20.0094  -12.6661 C   0  0  0  0  0  0  0  0  0  0  0  0
   18.9616  -19.0717  -12.2099 O   0  0  0  0  0  0  0  0  0  0  0  0
   20.6716  -19.7151  -13.7235 C   0  0  0  0  0  0  0  0  0  0  0  0
   21.5142  -20.8351  -14.1696 C   0  0  0  0  0  0  0  0  0  0  0  0
   21.9497  -20.8338  -15.5923 C   0  0  2  0  0  0  0  0  0  0  0  0
   23.4173  -20.7255  -15.5774 N   0  0  0  0  0  0  0  0  0  0  0  0
   21.3870  -19.8024  -16.4371 C   0  0  0  0  0  0  0  0  0  0  0  0
   20.1766  -20.0234  -17.1016 O   0  0  0  0  0  0  0  0  0  0  0  0
   21.9460  -18.7010  -16.6023 O   0  0  0  0  0  0  0  0  0  0  0  0
  2  3  1  0
  2  1  1  6
  4  3  1  0
  5  6  2  0
  5  2  1  0
  8  7  1  0
  8 10  1  0
  9  8  2  0
 11 10  1  1
 11 12  1  0
 12  5  1  0
 13 11  1  0
 13 21  1  0
 14 13  2  0
 16 15  1  0
 16 17  2  0
 18 16  1  0
 20 19  1  1
 19 18  1  0
 20 21  1  0
 20 22  1  0
 22 24  2  0
 22 23  1  0
M  END
$$$$
