CNQ.pdb
     RDKit          3D

 24 23  0  0  1  0  0  0  0  0999 V2000
   16.9720  -26.0442    2.4965 N   0  0  0  0  0  0  0  0  0  0  0  0
   16.6708  -26.8994    1.3799 C   0  0  1  0  0  0  0  0  0  0  0  0
   15.3100  -26.4508    0.8359 C   0  0  0  0  0  0  0  0  0  0  0  0
   14.1714  -26.3002    2.2223 S   0  0  0  0  0  0  0  0  0  0  0  0
   17.6616  -26.7214    0.2779 C   0  0  0  0  0  0  0  0  0  0  0  0
   18.8651  -26.5255    0.5740 O   0  0  0  0  0  0  0  0  0  0  0  0
   20.7233  -28.0264   -1.9385 N   0  0  0  0  0  0  0  0  0  0  0  0
   19.7631  -29.0620   -1.6648 C   0  0  0  0  0  0  0  0  0  0  0  0
   20.1843  -30.1780   -1.2945 O   0  0  0  0  0  0  0  0  0  0  0  0
   18.3304  -28.7709   -1.8299 C   0  0  0  0  0  0  0  0  0  0  0  0
   18.0863  -27.3277   -2.1305 C   0  0  2  0  0  0  0  0  0  0  0  0
   17.2474  -26.7731   -1.0807 N   0  0  0  0  0  0  0  0  0  0  0  0
   17.3971  -27.1982   -3.4563 C   0  0  0  0  0  0  0  0  0  0  0  0
   16.2576  -27.7411   -3.5364 O   0  0  0  0  0  0  0  0  0  0  0  0
   19.6339  -23.2756   -8.0609 N   0  0  0  0  0  0  0  0  0  0  0  0
   18.3927  -23.7803   -8.5341 C   0  0  0  0  0  0  0  0  0  0  0  0
   17.9992  -23.3611   -9.6664 O   0  0  0  0  0  0  0  0  0  0  0  0
   17.5651  -24.7499   -7.7924 C   0  0  0  0  0  0  0  0  0  0  0  0
   18.0315  -25.1226   -6.4482 C   0  0  0  0  0  0  0  0  0  0  0  0
   17.1476  -26.0080   -5.6429 C   0  0  2  0  0  0  0  0  0  0  0  0
   17.9713  -26.5229   -4.5374 N   0  0  0  0  0  0  0  0  0  0  0  0
   16.5232  -27.1073   -6.3471 C   0  0  0  0  0  0  0  0  0  0  0  0
   15.3468  -26.8968   -7.0731 O   0  0  0  0  0  0  0  0  0  0  0  0
   16.9984  -28.2591   -6.3349 O   0  0  0  0  0  0  0  0  0  0  0  0
  2  3  1  0
  2  1  1  1
  4  3  1  0
  5  6  2  0
  5  2  1  0
  8  7  1  0
  8 10  1  0
  9  8  2  0
 11 10  1  1
 11 12  1  0
 12  5  1  0
 13 11  1  0
 13 21  1  0
 14 13  2  0
 16 15  1  0
 16 17  2  0
 18 16  1  0
 20 19  1  6
 19 18  1  0
 20 21  1  0
 20 22  1  0
 22 24  2  0
 22 23  1  0
M  END
$$$$
