CNQ.pdb
     RDKit          3D

 24 23  0  0  1  0  0  0  0  0999 V2000
   23.8680  -13.9180  -17.2608 N   0  0  0  0  0  0  0  0  0  0  0  0
   23.7328  -12.9678  -16.1894 C   0  0  1  0  0  0  0  0  0  0  0  0
   25.0684  -12.2225  -16.0905 C   0  0  0  0  0  0  0  0  0  0  0  0
   26.3202  -13.3838  -15.5199 S   0  0  0  0  0  0  0  0  0  0  0  0
   22.6862  -11.9491  -16.4971 C   0  0  0  0  0  0  0  0  0  0  0  0
   21.7252  -12.2748  -17.2352 O   0  0  0  0  0  0  0  0  0  0  0  0
   19.3810   -8.3303  -16.6226 N   0  0  0  0  0  0  0  0  0  0  0  0
   19.2749   -9.4577  -15.7355 C   0  0  0  0  0  0  0  0  0  0  0  0
   18.1525   -9.7378  -15.2647 O   0  0  0  0  0  0  0  0  0  0  0  0
   20.4836  -10.2339  -15.4175 C   0  0  0  0  0  0  0  0  0  0  0  0
   21.6984   -9.6691  -16.0791 C   0  0  2  0  0  0  0  0  0  0  0  0
   22.7785  -10.6352  -15.9629 N   0  0  0  0  0  0  0  0  0  0  0  0
   22.0874   -8.3854  -15.4081 C   0  0  0  0  0  0  0  0  0  0  0  0
   22.3986   -8.4791  -14.1858 O   0  0  0  0  0  0  0  0  0  0  0  0
   24.9442   -3.9226  -18.6912 N   0  0  0  0  0  0  0  0  0  0  0  0
   25.5840   -4.7855  -17.7610 C   0  0  0  0  0  0  0  0  0  0  0  0
   26.8310   -4.9697  -17.9160 O   0  0  0  0  0  0  0  0  0  0  0  0
   24.8853   -5.4543  -16.6476 C   0  0  0  0  0  0  0  0  0  0  0  0
   23.4300   -5.2564  -16.5688 C   0  0  0  0  0  0  0  0  0  0  0  0
   22.7059   -5.9621  -15.4772 C   0  0  2  0  0  0  0  0  0  0  0  0
   22.1070   -7.1617  -16.0838 N   0  0  0  0  0  0  0  0  0  0  0  0
   21.6907   -5.2012  -14.7811 C   0  0  0  0  0  0  0  0  0  0  0  0
   22.0440   -4.3812  -13.7050 O   0  0  0  0  0  0  0  0  0  0  0  0
   20.4885   -5.2456  -15.1056 O   0  0  0  0  0  0  0  0  0  0  0  0
  2  3  1  0
  2  1  1  6
  4  3  1  0
  5  6  2  0
  5  2  1  0
  8  7  1  0
  8 10  1  0
  9  8  2  0
 11 10  1  1
 11 12  1  0
 12  5  1  0
 13 11  1  0
 13 21  1  0
 14 13  2  0
 16 15  1  0
 16 17  2  0
 18 16  1  0
 20 19  1  6
 19 18  1  0
 20 21  1  0
 20 22  1  0
 22 24  2  0
 22 23  1  0
M  END
$$$$
