CNQ.pdb
     RDKit          3D

 24 23  0  0  1  0  0  0  0  0999 V2000
   27.2514  -16.4878  -18.2636 N   0  0  0  0  0  0  0  0  0  0  0  0
   26.1843  -15.5313  -18.1400 C   0  0  1  0  0  0  0  0  0  0  0  0
   25.0872  -16.2008  -17.3050 C   0  0  0  0  0  0  0  0  0  0  0  0
   24.4743  -17.6256  -18.2191 S   0  0  0  0  0  0  0  0  0  0  0  0
   26.6265  -14.3197  -17.3890 C   0  0  0  0  0  0  0  0  0  0  0  0
   27.7229  -14.3538  -16.7798 O   0  0  0  0  0  0  0  0  0  0  0  0
   28.8903  -10.1305  -15.7815 N   0  0  0  0  0  0  0  0  0  0  0  0
   28.0745  -10.2295  -16.9622 C   0  0  0  0  0  0  0  0  0  0  0  0
   27.7969   -9.1803  -17.5803 O   0  0  0  0  0  0  0  0  0  0  0  0
   27.6005  -11.5532  -17.3952 C   0  0  0  0  0  0  0  0  0  0  0  0
   26.2788  -11.8973  -16.7892 C   0  0  2  0  0  0  0  0  0  0  0  0
   25.8190  -13.1503  -17.3655 N   0  0  0  0  0  0  0  0  0  0  0  0
   25.2906  -10.8078  -17.0823 C   0  0  0  0  0  0  0  0  0  0  0  0
   24.8667  -10.7588  -18.2728 O   0  0  0  0  0  0  0  0  0  0  0  0
   21.1826   -8.9739  -12.7568 N   0  0  0  0  0  0  0  0  0  0  0  0
   20.8431   -8.2317  -13.9201 C   0  0  0  0  0  0  0  0  0  0  0  0
   19.7646   -7.5627  -13.8770 O   0  0  0  0  0  0  0  0  0  0  0  0
   21.6689   -8.1979  -15.1416 C   0  0  0  0  0  0  0  0  0  0  0  0
   22.8857   -9.0240  -15.1378 C   0  0  0  0  0  0  0  0  0  0  0  0
   23.7382   -8.9846  -16.3566 C   0  0  2  0  0  0  0  0  0  0  0  0
   24.8617   -9.9019  -16.1075 N   0  0  0  0  0  0  0  0  0  0  0  0
   24.2393   -7.6854  -16.7503 C   0  0  0  0  0  0  0  0  0  0  0  0
   23.4076   -6.7895  -17.4292 O   0  0  0  0  0  0  0  0  0  0  0  0
   25.4056   -7.3215  -16.5054 O   0  0  0  0  0  0  0  0  0  0  0  0
  2  3  1  0
  2  1  1  1
  4  3  1  0
  5  6  2  0
  5  2  1  0
  8  7  1  0
  8 10  1  0
  9  8  2  0
 11 10  1  6
 11 12  1  0
 12  5  1  0
 13 11  1  0
 13 21  1  0
 14 13  2  0
 16 15  1  0
 16 17  2  0
 18 16  1  0
 20 19  1  1
 19 18  1  0
 20 21  1  0
 20 22  1  0
 22 24  2  0
 22 23  1  0
M  END
$$$$
