CNQ.pdb
     RDKit          3D

 24 23  0  0  1  0  0  0  0  0999 V2000
   31.1653  -11.2147  -18.8007 N   0  0  0  0  0  0  0  0  0  0  0  0
   30.0897  -10.4190  -18.2726 C   0  0  1  0  0  0  0  0  0  0  0  0
   29.2453  -11.3479  -17.3931 C   0  0  0  0  0  0  0  0  0  0  0  0
   28.5314  -12.6232  -18.4444 S   0  0  0  0  0  0  0  0  0  0  0  0
   30.6033   -9.3303  -17.3903 C   0  0  0  0  0  0  0  0  0  0  0  0
   29.7783   -8.5894  -16.8030 O   0  0  0  0  0  0  0  0  0  0  0  0
   33.6890   -6.2623  -14.7085 N   0  0  0  0  0  0  0  0  0  0  0  0
   34.5010   -7.3789  -15.1125 C   0  0  0  0  0  0  0  0  0  0  0  0
   35.6769   -7.4381  -14.6956 O   0  0  0  0  0  0  0  0  0  0  0  0
   33.9210   -8.4026  -15.9957 C   0  0  0  0  0  0  0  0  0  0  0  0
   32.5478   -8.0309  -16.4527 C   0  0  2  0  0  0  0  0  0  0  0  0
   32.0012   -9.1383  -17.2198 N   0  0  0  0  0  0  0  0  0  0  0  0
   32.6167   -6.8016  -17.3091 C   0  0  0  0  0  0  0  0  0  0  0  0
   33.1672   -6.9509  -18.4379 O   0  0  0  0  0  0  0  0  0  0  0  0
   27.7833   -3.9147  -18.9321 N   0  0  0  0  0  0  0  0  0  0  0  0
   28.7988   -3.0556  -19.4320 C   0  0  0  0  0  0  0  0  0  0  0  0
   28.4270   -2.1223  -20.2089 O   0  0  0  0  0  0  0  0  0  0  0  0
   30.2277   -3.1903  -19.0929 C   0  0  0  0  0  0  0  0  0  0  0  0
   30.5938   -4.3112  -18.2137 C   0  0  0  0  0  0  0  0  0  0  0  0
   32.0229   -4.4244  -17.8153 C   0  0  2  0  0  0  0  0  0  0  0  0
   32.1076   -5.5678  -16.8928 N   0  0  0  0  0  0  0  0  0  0  0  0
   32.6163   -3.2534  -17.2064 C   0  0  0  0  0  0  0  0  0  0  0  0
   33.4530   -2.4211  -17.9563 O   0  0  0  0  0  0  0  0  0  0  0  0
   32.4099   -2.9472  -16.0163 O   0  0  0  0  0  0  0  0  0  0  0  0
  2  3  1  0
  2  1  1  1
  4  3  1  0
  5  6  2  0
  5  2  1  0
  8  7  1  0
  8 10  1  0
  9  8  2  0
 11 10  1  6
 11 12  1  0
 12  5  1  0
 13 11  1  0
 13 21  1  0
 14 13  2  0
 16 15  1  0
 16 17  2  0
 18 16  1  0
 20 19  1  1
 19 18  1  0
 20 21  1  0
 20 22  1  0
 22 24  2  0
 22 23  1  0
M  END
$$$$
