CNQ.pdb
     RDKit          3D

 24 23  0  0  1  0  0  0  0  0999 V2000
   27.5502  -19.1025  -14.6150 N   0  0  0  0  0  0  0  0  0  0  0  0
   28.0182  -20.3562  -14.0874 C   0  0  1  0  0  0  0  0  0  0  0  0
   29.2012  -20.0331  -13.1681 C   0  0  0  0  0  0  0  0  0  0  0  0
   30.3942  -19.0638  -14.1055 S   0  0  0  0  0  0  0  0  0  0  0  0
   26.9763  -21.0121  -13.2437 C   0  0  0  0  0  0  0  0  0  0  0  0
   27.3407  -21.6904  -12.2530 O   0  0  0  0  0  0  0  0  0  0  0  0
   25.5860  -21.9946  -10.2365 N   0  0  0  0  0  0  0  0  0  0  0  0
   25.3734  -20.5724  -10.2751 C   0  0  0  0  0  0  0  0  0  0  0  0
   25.6819  -19.8995   -9.2691 O   0  0  0  0  0  0  0  0  0  0  0  0
   24.8047  -19.9669  -11.4894 C   0  0  0  0  0  0  0  0  0  0  0  0
   24.5530  -20.9847  -12.5540 C   0  0  2  0  0  0  0  0  0  0  0  0
   25.5976  -20.8697  -13.5585 N   0  0  0  0  0  0  0  0  0  0  0  0
   23.2129  -20.7382  -13.1807 C   0  0  0  0  0  0  0  0  0  0  0  0
   23.0524  -19.5955  -13.6985 O   0  0  0  0  0  0  0  0  0  0  0  0
   19.7947  -25.3372  -15.7311 N   0  0  0  0  0  0  0  0  0  0  0  0
   21.0319  -24.7046  -16.0283 C   0  0  0  0  0  0  0  0  0  0  0  0
   21.7745  -25.2754  -16.8859 O   0  0  0  0  0  0  0  0  0  0  0  0
   21.4785  -23.4436  -15.4074 C   0  0  0  0  0  0  0  0  0  0  0  0
   20.5377  -22.7955  -14.4810 C   0  0  0  0  0  0  0  0  0  0  0  0
   20.9387  -21.4792  -13.9150 C   0  0  2  0  0  0  0  0  0  0  0  0
   22.2024  -21.7043  -13.1951 N   0  0  0  0  0  0  0  0  0  0  0  0
   19.9810  -20.8349  -13.0422 C   0  0  0  0  0  0  0  0  0  0  0  0
   20.2829  -20.6431  -11.6904 O   0  0  0  0  0  0  0  0  0  0  0  0
   18.8743  -20.4345  -13.4513 O   0  0  0  0  0  0  0  0  0  0  0  0
  2  3  1  0
  2  1  1  1
  4  3  1  0
  5  6  2  0
  5  2  1  0
  8  7  1  0
  8 10  1  0
  9  8  2  0
 11 10  1  1
 11 12  1  0
 12  5  1  0
 13 11  1  0
 13 21  1  0
 14 13  2  0
 16 15  1  0
 16 17  2  0
 18 16  1  0
 20 19  1  1
 19 18  1  0
 20 21  1  0
 20 22  1  0
 22 24  2  0
 22 23  1  0
M  END
$$$$
