CNQ.pdb
     RDKit          3D

 24 23  0  0  1  0  0  0  0  0999 V2000
   19.5475  -14.6196  -17.6861 N   0  0  0  0  0  0  0  0  0  0  0  0
   18.6454  -13.6948  -17.0536 C   0  0  1  0  0  0  0  0  0  0  0  0
   19.0062  -13.6767  -15.5641 C   0  0  0  0  0  0  0  0  0  0  0  0
   18.4753  -15.2359  -14.8372 S   0  0  0  0  0  0  0  0  0  0  0  0
   18.8428  -12.3075  -17.5674 C   0  0  0  0  0  0  0  0  0  0  0  0
   19.9977  -11.9445  -17.8974 O   0  0  0  0  0  0  0  0  0  0  0  0
   18.0102   -7.7897  -19.7305 N   0  0  0  0  0  0  0  0  0  0  0  0
   16.8915   -8.6513  -20.0055 C   0  0  0  0  0  0  0  0  0  0  0  0
   16.0767   -8.3020  -20.8852 O   0  0  0  0  0  0  0  0  0  0  0  0
   16.7492   -9.9032  -19.2459 C   0  0  0  0  0  0  0  0  0  0  0  0
   17.8666  -10.0942  -18.2725 C   0  0  2  0  0  0  0  0  0  0  0  0
   17.7416  -11.4160  -17.6800 N   0  0  0  0  0  0  0  0  0  0  0  0
   17.7883   -9.0460  -17.2026 C   0  0  0  0  0  0  0  0  0  0  0  0
   16.8360   -9.1731  -16.3802 O   0  0  0  0  0  0  0  0  0  0  0  0
   22.7956   -7.0684  -14.4858 N   0  0  0  0  0  0  0  0  0  0  0  0
   21.8736   -8.1060  -14.1814 C   0  0  0  0  0  0  0  0  0  0  0  0
   22.3150   -9.0808  -13.4976 O   0  0  0  0  0  0  0  0  0  0  0  0
   20.4613   -8.0992  -14.6062 C   0  0  0  0  0  0  0  0  0  0  0  0
   20.0288   -6.9666  -15.4390 C   0  0  0  0  0  0  0  0  0  0  0  0
   18.6550   -7.0260  -16.0073 C   0  0  2  0  0  0  0  0  0  0  0  0
   18.7051   -7.9941  -17.1146 N   0  0  0  0  0  0  0  0  0  0  0  0
   18.0950   -5.7746  -16.4704 C   0  0  0  0  0  0  0  0  0  0  0  0
   17.6690   -4.8135  -15.5484 O   0  0  0  0  0  0  0  0  0  0  0  0
   17.9730   -5.5097  -17.6818 O   0  0  0  0  0  0  0  0  0  0  0  0
  2  3  1  0
  2  1  1  6
  4  3  1  0
  5  6  2  0
  5  2  1  0
  8  7  1  0
  8 10  1  0
  9  8  2  0
 11 10  1  6
 11 12  1  0
 12  5  1  0
 13 11  1  0
 13 21  1  0
 14 13  2  0
 16 15  1  0
 16 17  2  0
 18 16  1  0
 20 19  1  6
 19 18  1  0
 20 21  1  0
 20 22  1  0
 22 24  2  0
 22 23  1  0
M  END
$$$$
