CNQ.pdb
     RDKit          3D

 24 23  0  0  1  0  0  0  0  0999 V2000
   13.8674   -8.7842   -8.4481 N   0  0  0  0  0  0  0  0  0  0  0  0
   14.8527   -8.9828   -9.4770 C   0  0  1  0  0  0  0  0  0  0  0  0
   14.1517   -9.7238  -10.6210 C   0  0  0  0  0  0  0  0  0  0  0  0
   13.6647  -11.3506  -10.0231 S   0  0  0  0  0  0  0  0  0  0  0  0
   15.3307   -7.6809  -10.0284 C   0  0  0  0  0  0  0  0  0  0  0  0
   14.4824   -6.8408  -10.4146 O   0  0  0  0  0  0  0  0  0  0  0  0
   18.0711   -3.4485  -10.2938 N   0  0  0  0  0  0  0  0  0  0  0  0
   17.2258   -3.8360   -9.1962 C   0  0  0  0  0  0  0  0  0  0  0  0
   16.9142   -2.9686   -8.3533 O   0  0  0  0  0  0  0  0  0  0  0  0
   16.7626   -5.2295   -9.1074 C   0  0  0  0  0  0  0  0  0  0  0  0
   17.2356   -6.0486  -10.2641 C   0  0  2  0  0  0  0  0  0  0  0  0
   16.7214   -7.4000  -10.1137 N   0  0  0  0  0  0  0  0  0  0  0  0
   18.7351   -6.0725  -10.2856 C   0  0  0  0  0  0  0  0  0  0  0  0
   19.2811   -6.8881   -9.4879 O   0  0  0  0  0  0  0  0  0  0  0  0
   19.5068   -9.4563  -13.9601 N   0  0  0  0  0  0  0  0  0  0  0  0
   20.7885   -8.8651  -14.1238 C   0  0  0  0  0  0  0  0  0  0  0  0
   21.6206   -9.4948  -14.8476 O   0  0  0  0  0  0  0  0  0  0  0  0
   21.1843   -7.5824  -13.5130 C   0  0  0  0  0  0  0  0  0  0  0  0
   20.2214   -6.9687  -12.5859 C   0  0  0  0  0  0  0  0  0  0  0  0
   20.6686   -5.7600  -11.8425 C   0  0  2  0  0  0  0  0  0  0  0  0
   19.4865   -5.2496  -11.1299 N   0  0  0  0  0  0  0  0  0  0  0  0
   21.2646   -4.7030  -12.6310 C   0  0  0  0  0  0  0  0  0  0  0  0
   22.6331   -4.7281  -12.9168 O   0  0  0  0  0  0  0  0  0  0  0  0
   20.5969   -3.7498  -13.0765 O   0  0  0  0  0  0  0  0  0  0  0  0
  2  3  1  0
  2  1  1  1
  4  3  1  0
  5  6  2  0
  5  2  1  0
  8  7  1  0
  8 10  1  0
  9  8  2  0
 11 10  1  1
 11 12  1  0
 12  5  1  0
 13 11  1  0
 13 21  1  0
 14 13  2  0
 16 15  1  0
 16 17  2  0
 18 16  1  0
 20 19  1  6
 19 18  1  0
 20 21  1  0
 20 22  1  0
 22 24  2  0
 22 23  1  0
M  END
$$$$
