CNQ.pdb
     RDKit          3D

 24 23  0  0  1  0  0  0  0  0999 V2000
   12.0349  -11.0111   -9.4460 N   0  0  0  0  0  0  0  0  0  0  0  0
   13.3666  -11.0302   -9.9893 C   0  0  1  0  0  0  0  0  0  0  0  0
   13.2927  -11.8052  -11.3095 C   0  0  0  0  0  0  0  0  0  0  0  0
   12.7586  -13.4858  -10.9465 S   0  0  0  0  0  0  0  0  0  0  0  0
   13.8379   -9.6526  -10.3177 C   0  0  0  0  0  0  0  0  0  0  0  0
   13.0705   -8.6840  -10.1002 O   0  0  0  0  0  0  0  0  0  0  0  0
   16.2195   -5.4027   -9.1415 N   0  0  0  0  0  0  0  0  0  0  0  0
   16.8916   -6.6745   -9.1274 C   0  0  0  0  0  0  0  0  0  0  0  0
   18.1285   -6.6893   -8.9549 O   0  0  0  0  0  0  0  0  0  0  0  0
   16.1031   -7.9023   -9.3154 C   0  0  0  0  0  0  0  0  0  0  0  0
   15.8287   -8.1725  -10.7591 C   0  0  2  0  0  0  0  0  0  0  0  0
   15.1324   -9.4442  -10.8664 N   0  0  0  0  0  0  0  0  0  0  0  0
   17.1224   -8.2336  -11.5156 C   0  0  0  0  0  0  0  0  0  0  0  0
   17.9828   -9.0432  -11.0642 O   0  0  0  0  0  0  0  0  0  0  0  0
   17.2245   -7.9372  -17.5707 N   0  0  0  0  0  0  0  0  0  0  0  0
   16.9949   -8.9596  -16.6108 C   0  0  0  0  0  0  0  0  0  0  0  0
   16.3546   -9.9824  -17.0068 O   0  0  0  0  0  0  0  0  0  0  0  0
   17.4605   -8.8921  -15.2131 C   0  0  0  0  0  0  0  0  0  0  0  0
   18.2411   -7.7043  -14.8349 C   0  0  0  0  0  0  0  0  0  0  0  0
   18.6241   -7.5697  -13.4034 C   0  0  2  0  0  0  0  0  0  0  0  0
   17.3676   -7.4496  -12.6468 N   0  0  0  0  0  0  0  0  0  0  0  0
   19.5064   -6.4712  -13.0734 C   0  0  0  0  0  0  0  0  0  0  0  0
   19.0208   -5.3729  -12.3571 O   0  0  0  0  0  0  0  0  0  0  0  0
   20.7070   -6.4606  -13.4071 O   0  0  0  0  0  0  0  0  0  0  0  0
  2  3  1  0
  2  1  1  6
  4  3  1  0
  5  6  2  0
  5  2  1  0
  8  7  1  0
  8 10  1  0
  9  8  2  0
 11 10  1  1
 11 12  1  0
 12  5  1  0
 13 11  1  0
 13 21  1  0
 14 13  2  0
 16 15  1  0
 16 17  2  0
 18 16  1  0
 20 19  1  6
 19 18  1  0
 20 21  1  0
 20 22  1  0
 22 24  2  0
 22 23  1  0
M  END
$$$$
