CNQ.pdb
     RDKit          3D

 24 23  0  0  1  0  0  0  0  0999 V2000
   27.4065  -21.7914  -12.3860 N   0  0  0  0  0  0  0  0  0  0  0  0
   26.6562  -20.6303  -12.7832 C   0  0  1  0  0  0  0  0  0  0  0  0
   27.5840  -19.7864  -13.6641 C   0  0  0  0  0  0  0  0  0  0  0  0
   29.0594  -19.3911  -12.7110 S   0  0  0  0  0  0  0  0  0  0  0  0
   25.4801  -21.0056  -13.6220 C   0  0  0  0  0  0  0  0  0  0  0  0
   25.0255  -22.1720  -13.5369 O   0  0  0  0  0  0  0  0  0  0  0  0
   20.7367  -20.1922  -14.9373 N   0  0  0  0  0  0  0  0  0  0  0  0
   21.2857  -20.0917  -13.6115 C   0  0  0  0  0  0  0  0  0  0  0  0
   20.5007  -20.1281  -12.6407 O   0  0  0  0  0  0  0  0  0  0  0  0
   22.7410  -19.9507  -13.4487 C   0  0  0  0  0  0  0  0  0  0  0  0
   23.4575  -20.0221  -14.7580 C   0  0  2  0  0  0  0  0  0  0  0  0
   24.8878  -20.0579  -14.5001 N   0  0  0  0  0  0  0  0  0  0  0  0
   23.1180  -18.8179  -15.5851 C   0  0  0  0  0  0  0  0  0  0  0  0
   22.3873  -17.9540  -15.0200 O   0  0  0  0  0  0  0  0  0  0  0  0
   23.9715  -19.6519  -21.5516 N   0  0  0  0  0  0  0  0  0  0  0  0
   22.5604  -19.5577  -21.4133 C   0  0  0  0  0  0  0  0  0  0  0  0
   21.8823  -19.5121  -22.4861 O   0  0  0  0  0  0  0  0  0  0  0  0
   21.8643  -19.5188  -20.1136 C   0  0  0  0  0  0  0  0  0  0  0  0
   22.7106  -19.5517  -18.9112 C   0  0  0  0  0  0  0  0  0  0  0  0
   22.6466  -18.3756  -18.0021 C   0  0  2  0  0  0  0  0  0  0  0  0
   23.5761  -18.6547  -16.8958 N   0  0  0  0  0  0  0  0  0  0  0  0
   21.3411  -18.0378  -17.4772 C   0  0  0  0  0  0  0  0  0  0  0  0
   20.8692  -16.7244  -17.5636 O   0  0  0  0  0  0  0  0  0  0  0  0
   20.6022  -18.8848  -16.9393 O   0  0  0  0  0  0  0  0  0  0  0  0
  2  3  1  0
  2  1  1  6
  4  3  1  0
  5  6  2  0
  5  2  1  0
  8  7  1  0
  8 10  1  0
  9  8  2  0
 11 10  1  1
 11 12  1  0
 12  5  1  0
 13 11  1  0
 13 21  1  0
 14 13  2  0
 16 15  1  0
 16 17  2  0
 18 16  1  0
 20 19  1  6
 19 18  1  0
 20 21  1  0
 20 22  1  0
 22 24  2  0
 22 23  1  0
M  END
$$$$
