CNQ.pdb
     RDKit          3D

 24 23  0  0  1  0  0  0  0  0999 V2000
   14.4084  -13.2297  -12.8956 N   0  0  0  0  0  0  0  0  0  0  0  0
   15.5810  -13.7827  -13.5187 C   0  0  1  0  0  0  0  0  0  0  0  0
   15.1251  -14.4009  -14.8450 C   0  0  0  0  0  0  0  0  0  0  0  0
   14.1709  -15.8826  -14.4769 S   0  0  0  0  0  0  0  0  0  0  0  0
   16.5717  -12.7171  -13.8515 C   0  0  0  0  0  0  0  0  0  0  0  0
   17.6528  -13.0468  -14.3964 O   0  0  0  0  0  0  0  0  0  0  0  0
   18.9245   -9.1711  -17.0640 N   0  0  0  0  0  0  0  0  0  0  0  0
   18.5312   -9.2937  -15.6857 C   0  0  0  0  0  0  0  0  0  0  0  0
   19.0640   -8.5362  -14.8477 O   0  0  0  0  0  0  0  0  0  0  0  0
   17.5229  -10.2994  -15.3164 C   0  0  0  0  0  0  0  0  0  0  0  0
   17.2337  -10.2860  -13.8505 C   0  0  2  0  0  0  0  0  0  0  0  0
   16.2936  -11.3550  -13.5558 N   0  0  0  0  0  0  0  0  0  0  0  0
   16.6398   -8.9636  -13.4656 C   0  0  0  0  0  0  0  0  0  0  0  0
   15.3784   -8.8926  -13.5224 O   0  0  0  0  0  0  0  0  0  0  0  0
   15.1405   -8.0169   -8.5559 N   0  0  0  0  0  0  0  0  0  0  0  0
   15.2574   -6.6416   -8.8938 C   0  0  0  0  0  0  0  0  0  0  0  0
   14.8829   -5.8033   -8.0164 O   0  0  0  0  0  0  0  0  0  0  0  0
   15.7874   -6.1554  -10.1813 C   0  0  0  0  0  0  0  0  0  0  0  0
   16.2532   -7.1775  -11.1307 C   0  0  0  0  0  0  0  0  0  0  0  0
   16.8267   -6.6994  -12.4177 C   0  0  2  0  0  0  0  0  0  0  0  0
   17.4239   -7.8762  -13.0690 N   0  0  0  0  0  0  0  0  0  0  0  0
   17.8025   -5.6342  -12.3316 C   0  0  0  0  0  0  0  0  0  0  0  0
   17.3920   -4.3292  -12.0421 O   0  0  0  0  0  0  0  0  0  0  0  0
   19.0198   -5.8330  -12.5080 O   0  0  0  0  0  0  0  0  0  0  0  0
  2  3  1  0
  2  1  1  6
  4  3  1  0
  5  6  2  0
  5  2  1  0
  8  7  1  0
  8 10  1  0
  9  8  2  0
 11 10  1  6
 11 12  1  0
 12  5  1  0
 13 11  1  0
 13 21  1  0
 14 13  2  0
 16 15  1  0
 16 17  2  0
 18 16  1  0
 20 19  1  1
 19 18  1  0
 20 21  1  0
 20 22  1  0
 22 24  2  0
 22 23  1  0
M  END
$$$$
