NAV.pdb
     RDKit          3D

 21 20  0  0  1  0  0  0  0  0999 V2000
   15.0856  -13.2875  -16.1732 N   0  0  0  0  0  0  0  0  0  0  0  0
   15.5077  -12.6391  -14.9905 C   0  0  0  0  0  0  0  0  0  0  0  0
   14.7864  -12.6991  -13.9777 O   0  0  0  0  0  0  0  0  0  0  0  0
   16.8002  -11.9145  -15.0186 C   0  0  0  0  0  0  0  0  0  0  0  0
   17.4596  -11.9911  -16.3788 C   0  0  2  0  0  0  0  0  0  0  0  0
   18.1683  -13.2301  -16.4724 N   0  0  0  0  0  0  0  0  0  0  0  0
   18.3482  -10.8079  -16.5114 C   0  0  0  0  0  0  0  0  0  0  0  0
   19.4685  -10.8386  -15.9401 O   0  0  0  0  0  0  0  0  0  0  0  0
   18.3029   -7.6168  -18.4461 C   0  0  0  0  0  0  0  0  0  0  0  0
   18.9270   -8.5829  -17.4299 C   0  0  2  0  0  0  0  0  0  0  0  0
   17.9867   -9.6504  -17.2523 N   0  0  0  0  0  0  0  0  0  0  0  0
   19.1513   -7.7966  -16.1992 C   0  0  0  0  0  0  0  0  0  0  0  0
   18.2490   -7.7903  -15.3250 O   0  0  0  0  0  0  0  0  0  0  0  0
   22.9331   -5.8916  -15.3574 C   0  0  0  0  0  0  0  0  0  0  0  0
   21.9612   -6.3447  -14.2900 C   0  0  1  0  0  0  0  0  0  0  0  0
   22.1703   -5.5550  -13.0075 C   0  0  0  0  0  0  0  0  0  0  0  0
   20.5289   -6.2446  -14.7679 C   0  0  2  0  0  0  0  0  0  0  0  0
   20.3317   -7.0502  -15.9560 N   0  0  0  0  0  0  0  0  0  0  0  0
   20.2605   -4.8091  -15.0566 C   0  0  0  0  0  0  0  0  0  0  0  0
   20.2870   -4.3905  -16.2419 O   0  0  0  0  0  0  0  0  0  0  0  0
   19.9771   -3.8971  -14.0521 O   0  0  0  0  0  0  0  0  0  0  0  0
  1  2  1  0
  2  3  2  0
  4  2  1  0
  5  4  1  0
  5  6  1  1
  7  5  1  0
  7 11  1  0
  8  7  2  0
 10 12  1  0
 10 11  1  0
 10  9  1  6
 12 18  1  0
 13 12  2  0
 15 16  1  1
 15 14  1  0
 17 15  1  0
 17 18  1  6
 19 21  1  0
 19 17  1  0
 20 19  2  0
M  END
$$$$
