NAV.pdb
     RDKit          3D

 21 20  0  0  1  0  0  0  0  0999 V2000
   24.3108  -20.8970   -8.1287 N   0  0  0  0  0  0  0  0  0  0  0  0
   23.7882  -20.9551   -9.4405 C   0  0  0  0  0  0  0  0  0  0  0  0
   22.7708  -21.6391   -9.6562 O   0  0  0  0  0  0  0  0  0  0  0  0
   24.4862  -20.1908  -10.5011 C   0  0  0  0  0  0  0  0  0  0  0  0
   25.2224  -21.1013  -11.4603 C   0  0  2  0  0  0  0  0  0  0  0  0
   26.1451  -21.8994  -10.7134 N   0  0  0  0  0  0  0  0  0  0  0  0
   25.8912  -20.2399  -12.4690 C   0  0  0  0  0  0  0  0  0  0  0  0
   25.8254  -18.9922  -12.3231 O   0  0  0  0  0  0  0  0  0  0  0  0
   28.1769  -20.7463  -15.3644 C   0  0  0  0  0  0  0  0  0  0  0  0
   27.2327  -19.8811  -14.5187 C   0  0  2  0  0  0  0  0  0  0  0  0
   26.5977  -20.7644  -13.5849 N   0  0  0  0  0  0  0  0  0  0  0  0
   26.2845  -19.2600  -15.4666 C   0  0  0  0  0  0  0  0  0  0  0  0
   25.2991  -19.9376  -15.8517 O   0  0  0  0  0  0  0  0  0  0  0  0
   26.0590  -15.1500  -15.7261 C   0  0  0  0  0  0  0  0  0  0  0  0
   24.9330  -16.0367  -16.2111 C   0  0  1  0  0  0  0  0  0  0  0  0
   24.0361  -15.2800  -17.1781 C   0  0  0  0  0  0  0  0  0  0  0  0
   25.4615  -17.3097  -16.8356 C   0  0  2  0  0  0  0  0  0  0  0  0
   26.4310  -17.9400  -15.9624 N   0  0  0  0  0  0  0  0  0  0  0  0
   26.0884  -16.9361  -18.1330 C   0  0  0  0  0  0  0  0  0  0  0  0
   27.3147  -16.6631  -18.1834 O   0  0  0  0  0  0  0  0  0  0  0  0
   25.3609  -16.8758  -19.3113 O   0  0  0  0  0  0  0  0  0  0  0  0
  1  2  1  0
  2  3  2  0
  4  2  1  0
  5  4  1  0
  5  6  1  1
  7  5  1  0
  7 11  1  0
  8  7  2  0
 10 12  1  0
 10 11  1  0
 10  9  1  6
 12 18  1  0
 13 12  2  0
 15 16  1  6
 15 14  1  0
 17 15  1  0
 17 18  1  1
 19 21  1  0
 19 17  1  0
 20 19  2  0
M  END
$$$$
