NAV.pdb
     RDKit          3D

 21 20  0  0  1  0  0  0  0  0999 V2000
   29.4092  -18.7262  -15.8805 N   0  0  0  0  0  0  0  0  0  0  0  0
   28.1346  -18.7480  -16.4907 C   0  0  0  0  0  0  0  0  0  0  0  0
   27.9192  -18.0072  -17.4676 O   0  0  0  0  0  0  0  0  0  0  0  0
   27.1111  -19.6612  -15.9296 C   0  0  0  0  0  0  0  0  0  0  0  0
   27.6866  -20.5626  -14.8585 C   0  0  2  0  0  0  0  0  0  0  0  0
   28.4807  -21.5709  -15.4900 N   0  0  0  0  0  0  0  0  0  0  0  0
   26.5472  -21.1251  -14.0889 C   0  0  0  0  0  0  0  0  0  0  0  0
   25.7098  -21.8369  -14.7008 O   0  0  0  0  0  0  0  0  0  0  0  0
   25.3297  -20.9753  -10.5583 C   0  0  0  0  0  0  0  0  0  0  0  0
   25.1749  -21.3445  -12.0399 C   0  0  2  0  0  0  0  0  0  0  0  0
   26.3657  -20.8934  -12.6986 N   0  0  0  0  0  0  0  0  0  0  0  0
   23.9553  -20.6556  -12.5101 C   0  0  0  0  0  0  0  0  0  0  0  0
   23.9973  -19.4091  -12.6611 O   0  0  0  0  0  0  0  0  0  0  0  0
   22.0965  -20.9223  -15.6569 C   0  0  0  0  0  0  0  0  0  0  0  0
   21.0774  -21.1868  -14.5701 C   0  0  1  0  0  0  0  0  0  0  0  0
   20.7617  -22.6717  -14.4843 C   0  0  0  0  0  0  0  0  0  0  0  0
   21.5407  -20.6468  -13.2346 C   0  0  2  0  0  0  0  0  0  0  0  0
   22.7421  -21.3297  -12.7990 N   0  0  0  0  0  0  0  0  0  0  0  0
   20.4328  -20.8632  -12.2641 C   0  0  0  0  0  0  0  0  0  0  0  0
   20.5166  -21.7806  -11.4085 O   0  0  0  0  0  0  0  0  0  0  0  0
   19.2900  -20.0789  -12.2653 O   0  0  0  0  0  0  0  0  0  0  0  0
  1  2  1  0
  2  3  2  0
  4  2  1  0
  5  4  1  0
  5  6  1  6
  7  5  1  0
  7 11  1  0
  8  7  2  0
 10 12  1  0
 10 11  1  0
 10  9  1  1
 12 18  1  0
 13 12  2  0
 15 16  1  1
 15 14  1  0
 17 15  1  0
 17 18  1  1
 19 21  1  0
 19 17  1  0
 20 19  2  0
M  END
$$$$
