NAV.pdb
     RDKit          3D

 21 20  0  0  1  0  0  0  0  0999 V2000
   16.6793  -13.1001  -15.7341 N   0  0  0  0  0  0  0  0  0  0  0  0
   17.4869  -12.5555  -14.7100 C   0  0  0  0  0  0  0  0  0  0  0  0
   17.4040  -13.0254  -13.5603 O   0  0  0  0  0  0  0  0  0  0  0  0
   18.3994  -11.4421  -15.0626 C   0  0  0  0  0  0  0  0  0  0  0  0
   18.3094  -11.0831  -16.5303 C   0  0  2  0  0  0  0  0  0  0  0  0
   19.1532  -11.9710  -17.2690 N   0  0  0  0  0  0  0  0  0  0  0  0
   18.7115   -9.6595  -16.6670 C   0  0  0  0  0  0  0  0  0  0  0  0
   19.9369   -9.3800  -16.6153 O   0  0  0  0  0  0  0  0  0  0  0  0
   16.9839   -6.4120  -17.3175 C   0  0  0  0  0  0  0  0  0  0  0  0
   18.2258   -7.2541  -16.9952 C   0  0  2  0  0  0  0  0  0  0  0  0
   17.7745   -8.6074  -16.8526 N   0  0  0  0  0  0  0  0  0  0  0  0
   18.7888   -6.6959  -15.7483 C   0  0  0  0  0  0  0  0  0  0  0  0
   18.2743   -7.0432  -14.6560 O   0  0  0  0  0  0  0  0  0  0  0  0
   22.0564   -7.1181  -14.2067 C   0  0  0  0  0  0  0  0  0  0  0  0
   21.8851   -5.6220  -14.3538 C   0  0  1  0  0  0  0  0  0  0  0  0
   22.7066   -5.1029  -15.5232 C   0  0  0  0  0  0  0  0  0  0  0  0
   20.4268   -5.2440  -14.4977 C   0  0  2  0  0  0  0  0  0  0  0  0
   19.8786   -5.7897  -15.7230 N   0  0  0  0  0  0  0  0  0  0  0  0
   20.3564   -3.7571  -14.5076 C   0  0  0  0  0  0  0  0  0  0  0  0
   20.1126   -3.1463  -15.5792 O   0  0  0  0  0  0  0  0  0  0  0  0
   20.5527   -3.0036  -13.3609 O   0  0  0  0  0  0  0  0  0  0  0  0
  1  2  1  0
  2  3  2  0
  4  2  1  0
  5  4  1  0
  5  6  1  6
  7  5  1  0
  7 11  1  0
  8  7  2  0
 10 12  1  0
 10 11  1  0
 10  9  1  1
 12 18  1  0
 13 12  2  0
 15 16  1  6
 15 14  1  0
 17 15  1  0
 17 18  1  6
 19 21  1  0
 19 17  1  0
 20 19  2  0
M  END
$$$$
