NAV.pdb
     RDKit          3D

 21 20  0  0  1  0  0  0  0  0999 V2000
   17.6319  -12.4046  -18.8665 N   0  0  0  0  0  0  0  0  0  0  0  0
   17.7400  -11.0136  -19.0917 C   0  0  0  0  0  0  0  0  0  0  0  0
   17.3964  -10.5513  -20.1953 O   0  0  0  0  0  0  0  0  0  0  0  0
   18.2619  -10.1698  -17.9908 C   0  0  0  0  0  0  0  0  0  0  0  0
   18.6958  -10.9999  -16.8018 C   0  0  2  0  0  0  0  0  0  0  0  0
   17.5313  -11.5566  -16.1855 N   0  0  0  0  0  0  0  0  0  0  0  0
   19.4596  -10.1092  -15.8906 C   0  0  0  0  0  0  0  0  0  0  0  0
   18.8291   -9.2227  -15.2591 O   0  0  0  0  0  0  0  0  0  0  0  0
   22.9785   -9.8671  -14.6706 C   0  0  0  0  0  0  0  0  0  0  0  0
   21.5427   -9.3398  -14.7959 C   0  0  2  0  0  0  0  0  0  0  0  0
   20.8643  -10.2172  -15.7044 N   0  0  0  0  0  0  0  0  0  0  0  0
   21.6556   -7.9559  -15.3012 C   0  0  0  0  0  0  0  0  0  0  0  0
   21.9550   -7.7868  -16.5095 O   0  0  0  0  0  0  0  0  0  0  0  0
   19.4856   -5.5553  -16.3425 C   0  0  0  0  0  0  0  0  0  0  0  0
   20.2239   -4.8384  -15.2333 C   0  0  1  0  0  0  0  0  0  0  0  0
   19.3884   -4.8162  -13.9631 C   0  0  0  0  0  0  0  0  0  0  0  0
   21.5829   -5.4560  -14.9848 C   0  0  2  0  0  0  0  0  0  0  0  0
   21.4432   -6.8114  -14.4921 N   0  0  0  0  0  0  0  0  0  0  0  0
   22.2777   -4.6022  -13.9826 C   0  0  0  0  0  0  0  0  0  0  0  0
   22.3376   -4.9656  -12.7805 O   0  0  0  0  0  0  0  0  0  0  0  0
   22.8730   -3.3989  -14.3276 O   0  0  0  0  0  0  0  0  0  0  0  0
  1  2  1  0
  2  3  2  0
  4  2  1  0
  5  4  1  0
  5  6  1  1
  7  5  1  0
  7 11  1  0
  8  7  2  0
 10 12  1  0
 10 11  1  0
 10  9  1  6
 12 18  1  0
 13 12  2  0
 15 16  1  1
 15 14  1  0
 17 15  1  0
 17 18  1  1
 19 21  1  0
 19 17  1  0
 20 19  2  0
M  END
$$$$
