NAV.pdb
     RDKit          3D

 21 20  0  0  1  0  0  0  0  0999 V2000
   28.6227  -25.0209  -19.4687 N   0  0  0  0  0  0  0  0  0  0  0  0
   27.5568  -25.3049  -18.5852 C   0  0  0  0  0  0  0  0  0  0  0  0
   26.7194  -26.1683  -18.9058 O   0  0  0  0  0  0  0  0  0  0  0  0
   27.4914  -24.5519  -17.3104 C   0  0  0  0  0  0  0  0  0  0  0  0
   28.6203  -23.5509  -17.1887 C   0  0  2  0  0  0  0  0  0  0  0  0
   29.8286  -24.2599  -16.8997 N   0  0  0  0  0  0  0  0  0  0  0  0
   28.2488  -22.5869  -16.1212 C   0  0  0  0  0  0  0  0  0  0  0  0
   28.4936  -22.8982  -14.9272 O   0  0  0  0  0  0  0  0  0  0  0  0
   26.8483  -19.1263  -15.9845 C   0  0  0  0  0  0  0  0  0  0  0  0
   27.3889  -20.4045  -15.3292 C   0  0  2  0  0  0  0  0  0  0  0  0
   27.6323  -21.3354  -16.3919 N   0  0  0  0  0  0  0  0  0  0  0  0
   26.3435  -20.8581  -14.3886 C   0  0  0  0  0  0  0  0  0  0  0  0
   25.4196  -21.5849  -14.8319 O   0  0  0  0  0  0  0  0  0  0  0  0
   25.8004  -19.1700  -10.4852 C   0  0  0  0  0  0  0  0  0  0  0  0
   25.7464  -20.6726  -10.6549 C   0  0  1  0  0  0  0  0  0  0  0  0
   24.7901  -21.2898   -9.6466 C   0  0  0  0  0  0  0  0  0  0  0  0
   25.3732  -21.0560  -12.0703 C   0  0  2  0  0  0  0  0  0  0  0  0
   26.3309  -20.5146  -13.0133 N   0  0  0  0  0  0  0  0  0  0  0  0
   24.0135  -20.5088  -12.3306 C   0  0  0  0  0  0  0  0  0  0  0  0
   23.8800  -19.4316  -12.9649 O   0  0  0  0  0  0  0  0  0  0  0  0
   22.8658  -21.1513  -11.8933 O   0  0  0  0  0  0  0  0  0  0  0  0
  1  2  1  0
  2  3  2  0
  4  2  1  0
  5  4  1  0
  5  6  1  1
  7  5  1  0
  7 11  1  0
  8  7  2  0
 10 12  1  0
 10 11  1  0
 10  9  1  6
 12 18  1  0
 13 12  2  0
 15 16  1  1
 15 14  1  0
 17 15  1  0
 17 18  1  6
 19 21  1  0
 19 17  1  0
 20 19  2  0
M  END
$$$$
