NAV.pdb
     RDKit          3D

 21 20  0  0  1  0  0  0  0  0999 V2000
   17.7911  -14.4764  -19.4742 N   0  0  0  0  0  0  0  0  0  0  0  0
   18.8255  -13.5332  -19.2798 C   0  0  0  0  0  0  0  0  0  0  0  0
   19.8135  -13.5549  -20.0366 O   0  0  0  0  0  0  0  0  0  0  0  0
   18.6777  -12.5578  -18.1738 C   0  0  0  0  0  0  0  0  0  0  0  0
   19.8452  -12.6151  -17.2123 C   0  0  2  0  0  0  0  0  0  0  0  0
   19.7499  -13.8225  -16.4512 N   0  0  0  0  0  0  0  0  0  0  0  0
   19.7872  -11.3951  -16.3665 C   0  0  0  0  0  0  0  0  0  0  0  0
   18.7252  -11.1593  -15.7348 O   0  0  0  0  0  0  0  0  0  0  0  0
   22.1646   -8.7768  -15.2107 C   0  0  0  0  0  0  0  0  0  0  0  0
   20.7430   -9.3053  -15.4454 C   0  0  2  0  0  0  0  0  0  0  0  0
   20.8752  -10.4894  -16.2427 N   0  0  0  0  0  0  0  0  0  0  0  0
   20.0098   -8.2220  -16.1325 C   0  0  0  0  0  0  0  0  0  0  0  0
   20.0794   -8.1587  -17.3853 O   0  0  0  0  0  0  0  0  0  0  0  0
   16.4764   -6.6231  -14.8966 C   0  0  0  0  0  0  0  0  0  0  0  0
   17.1124   -6.3570  -16.2435 C   0  0  1  0  0  0  0  0  0  0  0  0
   16.4337   -5.1833  -16.9320 C   0  0  0  0  0  0  0  0  0  0  0  0
   18.6031   -6.1301  -16.1158 C   0  0  2  0  0  0  0  0  0  0  0  0
   19.2331   -7.2523  -15.4499 N   0  0  0  0  0  0  0  0  0  0  0  0
   18.7924   -4.8800  -15.3302 C   0  0  0  0  0  0  0  0  0  0  0  0
   18.8861   -4.9326  -14.0775 O   0  0  0  0  0  0  0  0  0  0  0  0
   18.8711   -3.6355  -15.9354 O   0  0  0  0  0  0  0  0  0  0  0  0
  1  2  1  0
  2  3  2  0
  4  2  1  0
  5  4  1  0
  5  6  1  1
  7  5  1  0
  7 11  1  0
  8  7  2  0
 10 12  1  0
 10 11  1  0
 10  9  1  6
 12 18  1  0
 13 12  2  0
 15 16  1  1
 15 14  1  0
 17 15  1  0
 17 18  1  1
 19 21  1  0
 19 17  1  0
 20 19  2  0
M  END
$$$$
