NAV.pdb
     RDKit          3D

 21 20  0  0  1  0  0  0  0  0999 V2000
   15.9905  -13.3257  -15.9362 N   0  0  0  0  0  0  0  0  0  0  0  0
   16.6875  -12.2792  -16.5815 C   0  0  0  0  0  0  0  0  0  0  0  0
   16.4020  -11.9996  -17.7604 O   0  0  0  0  0  0  0  0  0  0  0  0
   17.7322  -11.5625  -15.8126 C   0  0  0  0  0  0  0  0  0  0  0  0
   18.9689  -11.3053  -16.6466 C   0  0  2  0  0  0  0  0  0  0  0  0
   19.5901  -12.5601  -16.9392 N   0  0  0  0  0  0  0  0  0  0  0  0
   19.8490  -10.3941  -15.8707 C   0  0  0  0  0  0  0  0  0  0  0  0
   19.4066   -9.9120  -14.7963 O   0  0  0  0  0  0  0  0  0  0  0  0
   23.4260   -9.3669  -16.0226 C   0  0  0  0  0  0  0  0  0  0  0  0
   22.0111   -9.2688  -15.4363 C   0  0  2  0  0  0  0  0  0  0  0  0
   21.1617  -10.0470  -16.2898 N   0  0  0  0  0  0  0  0  0  0  0  0
   21.6673   -7.8318  -15.4300 C   0  0  0  0  0  0  0  0  0  0  0  0
   21.2867   -7.3068  -16.5060 O   0  0  0  0  0  0  0  0  0  0  0  0
   18.9997   -6.0582  -14.6639 C   0  0  0  0  0  0  0  0  0  0  0  0
   20.0174   -5.3753  -13.7765 C   0  0  1  0  0  0  0  0  0  0  0  0
   19.8621   -5.8339  -12.3351 C   0  0  0  0  0  0  0  0  0  0  0  0
   21.4276   -5.6036  -14.2754 C   0  0  2  0  0  0  0  0  0  0  0  0
   21.7455   -7.0173  -14.2723 N   0  0  0  0  0  0  0  0  0  0  0  0
   22.3418   -4.8580  -13.3676 C   0  0  0  0  0  0  0  0  0  0  0  0
   22.3787   -3.6018  -13.4054 O   0  0  0  0  0  0  0  0  0  0  0  0
   23.1705   -5.5050  -12.4644 O   0  0  0  0  0  0  0  0  0  0  0  0
  1  2  1  0
  2  3  2  0
  4  2  1  0
  5  4  1  0
  5  6  1  1
  7  5  1  0
  7 11  1  0
  8  7  2  0
 10 12  1  0
 10 11  1  0
 10  9  1  6
 12 18  1  0
 13 12  2  0
 15 16  1  1
 15 14  1  0
 17 15  1  0
 17 18  1  1
 19 21  1  0
 19 17  1  0
 20 19  2  0
M  END
$$$$
