NAV.pdb
     RDKit          3D

 21 20  0  0  1  0  0  0  0  0999 V2000
   16.1492  -11.5857  -16.2648 N   0  0  0  0  0  0  0  0  0  0  0  0
   15.6672  -11.8550  -14.9638 C   0  0  0  0  0  0  0  0  0  0  0  0
   14.8010  -12.7357  -14.8103 O   0  0  0  0  0  0  0  0  0  0  0  0
   16.2241  -11.0665  -13.8393 C   0  0  0  0  0  0  0  0  0  0  0  0
   17.2502  -10.0590  -14.3114 C   0  0  2  0  0  0  0  0  0  0  0  0
   18.5173  -10.7144  -14.4168 N   0  0  0  0  0  0  0  0  0  0  0  0
   17.2601   -8.9404  -13.3338 C   0  0  0  0  0  0  0  0  0  0  0  0
   17.5495   -9.1988  -12.1372 O   0  0  0  0  0  0  0  0  0  0  0  0
   16.9660   -5.2320  -13.4527 C   0  0  0  0  0  0  0  0  0  0  0  0
   16.9529   -6.5677  -12.6970 C   0  0  2  0  0  0  0  0  0  0  0  0
   16.9577   -7.5991  -13.6928 N   0  0  0  0  0  0  0  0  0  0  0  0
   15.7260   -6.5622  -11.8735 C   0  0  0  0  0  0  0  0  0  0  0  0
   14.6449   -6.9031  -12.4150 O   0  0  0  0  0  0  0  0  0  0  0  0
   14.7698   -8.2963   -8.6033 C   0  0  0  0  0  0  0  0  0  0  0  0
   14.6332   -6.8022   -8.4073 C   0  0  1  0  0  0  0  0  0  0  0  0
   15.8083   -6.2587   -7.6099 C   0  0  0  0  0  0  0  0  0  0  0  0
   14.4886   -6.0820   -9.7303 C   0  0  2  0  0  0  0  0  0  0  0  0
   15.7080   -6.1921  -10.5052 N   0  0  0  0  0  0  0  0  0  0  0  0
   14.1877   -4.6565   -9.4248 C   0  0  0  0  0  0  0  0  0  0  0  0
   15.0765   -3.7800   -9.5751 O   0  0  0  0  0  0  0  0  0  0  0  0
   12.9428   -4.2480   -8.9725 O   0  0  0  0  0  0  0  0  0  0  0  0
  1  2  1  0
  2  3  2  0
  4  2  1  0
  5  4  1  0
  5  6  1  1
  7  5  1  0
  7 11  1  0
  8  7  2  0
 10 12  1  0
 10 11  1  0
 10  9  1  6
 12 18  1  0
 13 12  2  0
 15 16  1  6
 15 14  1  0
 17 15  1  0
 17 18  1  1
 19 21  1  0
 19 17  1  0
 20 19  2  0
M  END
$$$$
