NAV.pdb
     RDKit          3D

 21 20  0  0  1  0  0  0  0  0999 V2000
   30.4114  -17.7186  -18.7770 N   0  0  0  0  0  0  0  0  0  0  0  0
   29.4499  -18.2554  -17.8912 C   0  0  0  0  0  0  0  0  0  0  0  0
   29.3062  -19.4904  -17.8310 O   0  0  0  0  0  0  0  0  0  0  0  0
   28.6551  -17.3099  -17.0722 C   0  0  0  0  0  0  0  0  0  0  0  0
   27.2032  -17.2776  -17.4987 C   0  0  2  0  0  0  0  0  0  0  0  0
   26.9097  -15.9774  -18.0178 N   0  0  0  0  0  0  0  0  0  0  0  0
   26.3811  -17.6223  -16.3103 C   0  0  0  0  0  0  0  0  0  0  0  0
   26.8119  -17.2963  -15.1743 O   0  0  0  0  0  0  0  0  0  0  0  0
   22.9435  -18.8983  -15.6990 C   0  0  0  0  0  0  0  0  0  0  0  0
   24.3628  -18.5586  -15.2243 C   0  0  2  0  0  0  0  0  0  0  0  0
   25.1360  -18.3009  -16.4037 N   0  0  0  0  0  0  0  0  0  0  0  0
   24.8356  -19.7356  -14.4663 C   0  0  0  0  0  0  0  0  0  0  0  0
   25.1971  -20.7517  -15.1106 O   0  0  0  0  0  0  0  0  0  0  0  0
   25.3347  -19.6339  -10.1758 C   0  0  0  0  0  0  0  0  0  0  0  0
   26.1559  -20.5093  -11.0972 C   0  0  1  0  0  0  0  0  0  0  0  0
   26.6989  -21.7142  -10.3453 C   0  0  0  0  0  0  0  0  0  0  0  0
   25.3590  -20.9345  -12.3113 C   0  0  2  0  0  0  0  0  0  0  0  0
   24.9015  -19.7754  -13.0508 N   0  0  0  0  0  0  0  0  0  0  0  0
   24.2031  -21.7342  -11.8212 C   0  0  0  0  0  0  0  0  0  0  0  0
   23.0525  -21.2278  -11.7987 O   0  0  0  0  0  0  0  0  0  0  0  0
   24.3463  -23.0403  -11.3800 O   0  0  0  0  0  0  0  0  0  0  0  0
  1  2  1  0
  2  3  2  0
  4  2  1  0
  5  4  1  0
  5  6  1  1
  7  5  1  0
  7 11  1  0
  8  7  2  0
 10 12  1  0
 10 11  1  0
 10  9  1  6
 12 18  1  0
 13 12  2  0
 15 16  1  1
 15 14  1  0
 17 15  1  0
 17 18  1  1
 19 21  1  0
 19 17  1  0
 20 19  2  0
M  END
$$$$
