NAV.pdb
     RDKit          3D

 21 20  0  0  1  0  0  0  0  0999 V2000
   17.3281   -9.7210  -20.4944 N   0  0  0  0  0  0  0  0  0  0  0  0
   18.5712  -10.0855  -19.9294 C   0  0  0  0  0  0  0  0  0  0  0  0
   19.3115  -10.8693  -20.5516 O   0  0  0  0  0  0  0  0  0  0  0  0
   18.9316   -9.5093  -18.6124 C   0  0  0  0  0  0  0  0  0  0  0  0
   19.3864  -10.5737  -17.6371 C   0  0  2  0  0  0  0  0  0  0  0  0
   18.2516  -11.3563  -17.2551 N   0  0  0  0  0  0  0  0  0  0  0  0
   20.0228   -9.8823  -16.4865 C   0  0  0  0  0  0  0  0  0  0  0  0
   19.2863   -9.2268  -15.7052 O   0  0  0  0  0  0  0  0  0  0  0  0
   23.4087   -9.7568  -14.9389 C   0  0  0  0  0  0  0  0  0  0  0  0
   21.9772   -9.2315  -15.1131 C   0  0  2  0  0  0  0  0  0  0  0  0
   21.4204   -9.9308  -16.2340 N   0  0  0  0  0  0  0  0  0  0  0  0
   22.0978   -7.7763  -15.3389 C   0  0  0  0  0  0  0  0  0  0  0  0
   22.5578   -7.3814  -16.4392 O   0  0  0  0  0  0  0  0  0  0  0  0
   19.7496   -5.3303  -16.0418 C   0  0  0  0  0  0  0  0  0  0  0  0
   20.4227   -4.7888  -14.7996 C   0  0  1  0  0  0  0  0  0  0  0  0
   19.5554   -5.0299  -13.5742 C   0  0  0  0  0  0  0  0  0  0  0  0
   21.8044   -5.3785  -14.6178 C   0  0  2  0  0  0  0  0  0  0  0  0
   21.7210   -6.8050  -14.3775 N   0  0  0  0  0  0  0  0  0  0  0  0
   22.4292   -4.6864  -13.4575 C   0  0  0  0  0  0  0  0  0  0  0  0
   22.4980   -5.2644  -12.3430 O   0  0  0  0  0  0  0  0  0  0  0  0
   22.9486   -3.4052  -13.5575 O   0  0  0  0  0  0  0  0  0  0  0  0
  1  2  1  0
  2  3  2  0
  4  2  1  0
  5  4  1  0
  5  6  1  1
  7  5  1  0
  7 11  1  0
  8  7  2  0
 10 12  1  0
 10 11  1  0
 10  9  1  6
 12 18  1  0
 13 12  2  0
 15 16  1  1
 15 14  1  0
 17 15  1  0
 17 18  1  1
 19 21  1  0
 19 17  1  0
 20 19  2  0
M  END
$$$$
