NAV.pdb
     RDKit          3D

 21 20  0  0  1  0  0  0  0  0999 V2000
   15.2388  -13.9434  -15.6584 N   0  0  0  0  0  0  0  0  0  0  0  0
   16.3998  -13.7585  -14.8741 C   0  0  0  0  0  0  0  0  0  0  0  0
   16.5832  -14.4899  -13.8837 O   0  0  0  0  0  0  0  0  0  0  0  0
   17.3477  -12.6926  -15.2763 C   0  0  0  0  0  0  0  0  0  0  0  0
   16.8649  -11.9409  -16.4981 C   0  0  2  0  0  0  0  0  0  0  0  0
   17.0903  -12.7550  -17.6525 N   0  0  0  0  0  0  0  0  0  0  0  0
   17.6021  -10.6521  -16.5495 C   0  0  0  0  0  0  0  0  0  0  0  0
   18.8406  -10.6837  -16.7672 O   0  0  0  0  0  0  0  0  0  0  0  0
   16.7208   -7.0273  -16.3253 C   0  0  0  0  0  0  0  0  0  0  0  0
   17.7174   -8.1793  -16.5128 C   0  0  2  0  0  0  0  0  0  0  0  0
   16.9694   -9.3932  -16.3639 N   0  0  0  0  0  0  0  0  0  0  0  0
   18.7504   -8.0029  -15.4712 C   0  0  0  0  0  0  0  0  0  0  0  0
   18.4758   -8.3525  -14.2962 O   0  0  0  0  0  0  0  0  0  0  0  0
   22.1831   -9.5051  -15.2036 C   0  0  0  0  0  0  0  0  0  0  0  0
   22.3379   -8.0007  -15.1590 C   0  0  1  0  0  0  0  0  0  0  0  0
   22.8004   -7.4712  -16.5072 C   0  0  0  0  0  0  0  0  0  0  0  0
   21.0581   -7.3262  -14.7150 C   0  0  2  0  0  0  0  0  0  0  0  0
   20.0339   -7.4597  -15.7311 N   0  0  0  0  0  0  0  0  0  0  0  0
   21.3765   -5.8918  -14.4759 C   0  0  0  0  0  0  0  0  0  0  0  0
   22.1264   -5.5648  -13.5212 O   0  0  0  0  0  0  0  0  0  0  0  0
   20.8699   -4.8820  -15.2789 O   0  0  0  0  0  0  0  0  0  0  0  0
  1  2  1  0
  2  3  2  0
  4  2  1  0
  5  4  1  0
  5  6  1  6
  7  5  1  0
  7 11  1  0
  8  7  2  0
 10 12  1  0
 10 11  1  0
 10  9  1  1
 12 18  1  0
 13 12  2  0
 15 16  1  6
 15 14  1  0
 17 15  1  0
 17 18  1  6
 19 21  1  0
 19 17  1  0
 20 19  2  0
M  END
$$$$
