QWH.pdb
     RDKit          3D

 34 36  0  0  1  0  0  0  0  0999 V2000
   19.6416  -15.0322  -14.7156 N   0  0  0  0  0  0  0  0  0  0  0  0
   18.4652  -14.7703  -15.4853 C   0  0  0  0  0  0  0  0  0  0  0  0
   17.5836  -15.6484  -15.5774 O   0  0  0  0  0  0  0  0  0  0  0  0
   18.2927  -13.4648  -16.1700 C   0  0  0  0  0  0  0  0  0  0  0  0
   19.3937  -12.5284  -15.7333 C   0  0  0  0  0  0  0  0  0  0  0  0
   19.2502  -11.1602  -16.3519 C   0  0  2  0  0  0  0  0  0  0  0  0
   19.2490  -11.2603  -17.7842 N   0  0  0  0  0  0  0  0  0  0  0  0
   20.4251  -10.3448  -15.9309 C   0  0  0  0  0  0  0  0  0  0  0  0
   20.6694  -10.1800  -14.7068 O   0  0  0  0  0  0  0  0  0  0  0  0
   21.3030   -9.7306  -16.8610 N   0  0  0  0  0  0  0  0  0  0  0  0
   22.4100   -8.8951  -16.4687 C   0  0  1  0  0  0  0  0  0  0  0  0
   23.6837   -9.3043  -17.1356 C   0  0  0  0  0  0  0  0  0  0  0  0
   24.2061  -10.6307  -16.7617 C   0  0  0  0  0  0  0  0  0  0  0  0
   23.5126  -11.8526  -16.9579 C   0  0  0  0  0  0  0  0  0  0  0  0
   24.2631  -12.8733  -16.5316 N   0  0  0  0  0  0  0  0  0  0  0  0
   25.4372  -12.4012  -16.0531 C   0  0  0  0  0  0  0  0  0  0  0  0
   26.5263  -13.0454  -15.5060 C   0  0  0  0  0  0  0  0  0  0  0  0
   27.6039  -12.2826  -15.0912 C   0  0  0  0  0  0  0  0  0  0  0  0
   27.5991  -10.9179  -15.2166 C   0  0  0  0  0  0  0  0  0  0  0  0
   26.4959  -10.3244  -15.7655 C   0  0  0  0  0  0  0  0  0  0  0  0
   25.3892  -11.0118  -16.2009 C   0  0  0  0  0  0  0  0  0  0  0  0
   22.1642   -7.4523  -16.5014 C   0  0  0  0  0  0  0  0  0  0  0  0
   21.8061   -6.8386  -17.5400 O   0  0  0  0  0  0  0  0  0  0  0  0
   22.3217   -6.6610  -15.2985 N   0  0  0  0  0  0  0  0  0  0  0  0
   22.1274   -5.2311  -15.2626 C   0  0  1  0  0  0  0  0  0  0  0  0
   21.0494   -4.9486  -14.2060 C   0  0  0  0  0  0  0  0  0  0  0  0
   19.6854   -5.1622  -14.6691 C   0  0  0  0  0  0  0  0  0  0  0  0
   19.2647   -5.5569  -15.9427 C   0  0  0  0  0  0  0  0  0  0  0  0
   17.9422   -5.6369  -15.9600 N   0  0  0  0  0  0  0  0  0  0  0  0
   17.4837   -5.3081  -14.7413 C   0  0  0  0  0  0  0  0  0  0  0  0
   18.5510   -5.0265  -13.9817 N   0  0  0  0  0  0  0  0  0  0  0  0
   23.3366   -4.5386  -14.6805 C   0  0  0  0  0  0  0  0  0  0  0  0
   23.3565   -3.1601  -14.7409 O   0  0  0  0  0  0  0  0  0  0  0  0
   24.2619   -5.1818  -14.1777 O   0  0  0  0  0  0  0  0  0  0  0  0
  2  3  2  0
  2  1  1  0
  4  2  1  0
  5  4  1  0
  6  5  1  0
  6  7  1  6
  8  9  2  0
  8  6  1  0
 10  8  1  0
 11 12  1  6
 11 10  1  0
 12 13  1  0
 13 21  1  0
 13 14  2  0
 14 15  1  0
 16 15  1  0
 16 17  2  0
 18 17  1  0
 19 18  2  0
 20 21  2  0
 20 19  1  0
 21 16  1  0
 22 11  1  0
 23 22  2  0
 24 22  1  0
 25 24  1  0
 25 26  1  1
 26 27  1  0
 27 28  2  0
 28 29  1  0
 30 29  1  0
 31 27  1  0
 31 30  2  0
 32 25  1  0
 32 33  1  0
 34 32  2  0
M  END
$$$$
