QWH.pdb
     RDKit          3D

 34 36  0  0  1  0  0  0  0  0999 V2000
   30.3276  -24.1251  -16.1041 N   0  0  0  0  0  0  0  0  0  0  0  0
   30.0956  -23.5677  -17.4004 C   0  0  0  0  0  0  0  0  0  0  0  0
   31.0155  -23.5698  -18.2432 O   0  0  0  0  0  0  0  0  0  0  0  0
   28.7716  -22.9906  -17.7422 C   0  0  0  0  0  0  0  0  0  0  0  0
   27.8769  -23.0527  -16.5275 C   0  0  0  0  0  0  0  0  0  0  0  0
   27.4130  -21.6836  -16.0969 C   0  0  2  0  0  0  0  0  0  0  0  0
   28.5348  -20.7965  -15.9687 N   0  0  0  0  0  0  0  0  0  0  0  0
   26.7592  -21.8226  -14.7643 C   0  0  0  0  0  0  0  0  0  0  0  0
   25.6637  -22.4349  -14.6628 O   0  0  0  0  0  0  0  0  0  0  0  0
   27.3216  -21.2878  -13.5765 N   0  0  0  0  0  0  0  0  0  0  0  0
   26.6326  -21.2805  -12.3106 C   0  0  1  0  0  0  0  0  0  0  0  0
   27.5756  -21.1256  -11.1612 C   0  0  0  0  0  0  0  0  0  0  0  0
   26.9587  -20.7842   -9.8669 C   0  0  0  0  0  0  0  0  0  0  0  0
   25.5609  -20.7454   -9.6277 C   0  0  0  0  0  0  0  0  0  0  0  0
   25.3282  -20.4222   -8.3517 N   0  0  0  0  0  0  0  0  0  0  0  0
   26.5055  -20.2385   -7.7108 C   0  0  0  0  0  0  0  0  0  0  0  0
   26.7921  -19.8951   -6.4068 C   0  0  0  0  0  0  0  0  0  0  0  0
   28.1191  -19.7723   -6.0336 C   0  0  0  0  0  0  0  0  0  0  0  0
   29.1326  -19.9847   -6.9314 C   0  0  0  0  0  0  0  0  0  0  0  0
   28.7982  -20.3234   -8.2136 C   0  0  0  0  0  0  0  0  0  0  0  0
   27.5067  -20.4652   -8.6597 C   0  0  0  0  0  0  0  0  0  0  0  0
   25.4558  -20.4136  -12.2290 C   0  0  0  0  0  0  0  0  0  0  0  0
   25.5177  -19.1596  -12.3138 O   0  0  0  0  0  0  0  0  0  0  0  0
   24.1392  -20.9906  -12.0514 N   0  0  0  0  0  0  0  0  0  0  0  0
   22.9191  -20.2860  -12.3655 C   0  0  1  0  0  0  0  0  0  0  0  0
   22.8457  -20.1705  -13.8950 C   0  0  0  0  0  0  0  0  0  0  0  0
   21.6869  -19.4378  -14.3860 C   0  0  0  0  0  0  0  0  0  0  0  0
   20.7124  -18.7730  -13.6357 C   0  0  0  0  0  0  0  0  0  0  0  0
   19.8239  -18.2316  -14.4563 N   0  0  0  0  0  0  0  0  0  0  0  0
   20.1843  -18.5197  -15.7176 C   0  0  0  0  0  0  0  0  0  0  0  0
   21.3082  -19.2462  -15.6500 N   0  0  0  0  0  0  0  0  0  0  0  0
   21.7111  -21.1355  -12.0495 C   0  0  0  0  0  0  0  0  0  0  0  0
   20.6107  -20.4871  -11.5271 O   0  0  0  0  0  0  0  0  0  0  0  0
   21.7153  -22.3532  -12.2493 O   0  0  0  0  0  0  0  0  0  0  0  0
  2  3  2  0
  2  1  1  0
  4  2  1  0
  5  4  1  0
  6  5  1  0
  6  7  1  1
  8  9  2  0
  8  6  1  0
 10  8  1  0
 11 12  1  1
 11 10  1  0
 12 13  1  0
 13 21  1  0
 13 14  2  0
 14 15  1  0
 16 15  1  0
 16 17  2  0
 18 17  1  0
 19 18  2  0
 20 21  2  0
 20 19  1  0
 21 16  1  0
 22 11  1  0
 23 22  2  0
 24 22  1  0
 25 24  1  0
 25 26  1  6
 26 27  1  0
 27 28  2  0
 28 29  1  0
 30 29  1  0
 31 27  1  0
 31 30  2  0
 32 25  1  0
 32 33  1  0
 34 32  2  0
M  END
$$$$
