QWH.pdb
     RDKit          3D

 34 36  0  0  1  0  0  0  0  0999 V2000
   20.3928  -13.7775  -19.6602 N   0  0  0  0  0  0  0  0  0  0  0  0
   21.3629  -14.2970  -20.5735 C   0  0  0  0  0  0  0  0  0  0  0  0
   21.0001  -15.0790  -21.4753 O   0  0  0  0  0  0  0  0  0  0  0  0
   22.7905  -13.9100  -20.4509 C   0  0  0  0  0  0  0  0  0  0  0  0
   22.9308  -12.8785  -19.3571 C   0  0  0  0  0  0  0  0  0  0  0  0
   24.3351  -12.3351  -19.2696 C   0  0  2  0  0  0  0  0  0  0  0  0
   25.2742  -13.4092  -19.1081 N   0  0  0  0  0  0  0  0  0  0  0  0
   24.4079  -11.4525  -18.0704 C   0  0  0  0  0  0  0  0  0  0  0  0
   24.1681  -11.9240  -16.9278 O   0  0  0  0  0  0  0  0  0  0  0  0
   24.7416  -10.0759  -18.1526 N   0  0  0  0  0  0  0  0  0  0  0  0
   24.7797   -9.2030  -17.0062 C   0  0  1  0  0  0  0  0  0  0  0  0
   26.1402   -8.6229  -16.7898 C   0  0  0  0  0  0  0  0  0  0  0  0
   27.2557   -9.5862  -16.7897 C   0  0  0  0  0  0  0  0  0  0  0  0
   28.4746   -9.4051  -17.4925 C   0  0  0  0  0  0  0  0  0  0  0  0
   29.2837  -10.4463  -17.2725 N   0  0  0  0  0  0  0  0  0  0  0  0
   28.6700  -11.3291  -16.4513 C   0  0  0  0  0  0  0  0  0  0  0  0
   29.0822  -12.5418  -15.9416 C   0  0  0  0  0  0  0  0  0  0  0  0
   28.2177  -13.2378  -15.1148 C   0  0  0  0  0  0  0  0  0  0  0  0
   26.9784  -12.7423  -14.8036 C   0  0  0  0  0  0  0  0  0  0  0  0
   26.6146  -11.5350  -15.3335 C   0  0  0  0  0  0  0  0  0  0  0  0
   27.4155  -10.7852  -16.1601 C   0  0  0  0  0  0  0  0  0  0  0  0
   23.6983   -8.2206  -16.9154 C   0  0  0  0  0  0  0  0  0  0  0  0
   23.3002   -7.5425  -17.8979 O   0  0  0  0  0  0  0  0  0  0  0  0
   23.0242   -7.9966  -15.6531 N   0  0  0  0  0  0  0  0  0  0  0  0
   21.8511   -7.1660  -15.5205 C   0  0  1  0  0  0  0  0  0  0  0  0
   21.0978   -7.6452  -14.2710 C   0  0  0  0  0  0  0  0  0  0  0  0
   20.3621   -8.8884  -14.4545 C   0  0  0  0  0  0  0  0  0  0  0  0
   20.1919   -9.6173  -15.6353 C   0  0  0  0  0  0  0  0  0  0  0  0
   19.4556  -10.6898  -15.3839 N   0  0  0  0  0  0  0  0  0  0  0  0
   19.1384  -10.6872  -14.0789 C   0  0  0  0  0  0  0  0  0  0  0  0
   19.6950   -9.5937  -13.5404 N   0  0  0  0  0  0  0  0  0  0  0  0
   22.2318   -5.7540  -15.1440 C   0  0  0  0  0  0  0  0  0  0  0  0
   21.2028   -4.8443  -15.0093 O   0  0  0  0  0  0  0  0  0  0  0  0
   23.4107   -5.4343  -14.9686 O   0  0  0  0  0  0  0  0  0  0  0  0
  2  3  2  0
  2  1  1  0
  4  2  1  0
  5  4  1  0
  6  5  1  0
  6  7  1  1
  8  9  2  0
  8  6  1  0
 10  8  1  0
 11 12  1  6
 11 10  1  0
 12 13  1  0
 13 21  1  0
 13 14  2  0
 14 15  1  0
 16 15  1  0
 16 17  2  0
 18 17  1  0
 19 18  2  0
 20 21  2  0
 20 19  1  0
 21 16  1  0
 22 11  1  0
 23 22  2  0
 24 22  1  0
 25 24  1  0
 25 26  1  1
 26 27  1  0
 27 28  2  0
 28 29  1  0
 30 29  1  0
 31 27  1  0
 31 30  2  0
 32 25  1  0
 32 33  1  0
 34 32  2  0
M  END
$$$$
