QWH.pdb
     RDKit          3D

 34 36  0  0  1  0  0  0  0  0999 V2000
   23.5354  -13.9669  -21.4009 N   0  0  0  0  0  0  0  0  0  0  0  0
   22.6085  -13.5565  -22.4097 C   0  0  0  0  0  0  0  0  0  0  0  0
   22.5704  -14.1708  -23.4949 O   0  0  0  0  0  0  0  0  0  0  0  0
   21.6985  -12.4090  -22.1693 C   0  0  0  0  0  0  0  0  0  0  0  0
   22.1240  -11.6965  -20.9078 C   0  0  0  0  0  0  0  0  0  0  0  0
   21.9870  -12.5748  -19.6893 C   0  0  2  0  0  0  0  0  0  0  0  0
   20.9906  -13.5840  -19.9137 N   0  0  0  0  0  0  0  0  0  0  0  0
   21.5476  -11.7136  -18.5544 C   0  0  0  0  0  0  0  0  0  0  0  0
   20.3877  -11.8412  -18.0814 O   0  0  0  0  0  0  0  0  0  0  0  0
   22.3894  -10.7347  -17.9661 N   0  0  0  0  0  0  0  0  0  0  0  0
   21.9333   -9.7953  -16.9727 C   0  0  1  0  0  0  0  0  0  0  0  0
   22.9689   -9.5422  -15.9248 C   0  0  0  0  0  0  0  0  0  0  0  0
   22.6010   -8.5683  -14.8816 C   0  0  0  0  0  0  0  0  0  0  0  0
   21.9349   -8.8975  -13.6730 C   0  0  0  0  0  0  0  0  0  0  0  0
   21.7648   -7.7962  -12.9347 N   0  0  0  0  0  0  0  0  0  0  0  0
   22.2851   -6.7310  -13.5866 C   0  0  0  0  0  0  0  0  0  0  0  0
   22.3529   -5.3964  -13.2481 C   0  0  0  0  0  0  0  0  0  0  0  0
   22.9515   -4.5203  -14.1365 C   0  0  0  0  0  0  0  0  0  0  0  0
   23.4680   -4.9584  -15.3279 C   0  0  0  0  0  0  0  0  0  0  0  0
   23.3769   -6.2916  -15.6192 C   0  0  0  0  0  0  0  0  0  0  0  0
   22.7991   -7.2222  -14.7903 C   0  0  0  0  0  0  0  0  0  0  0  0
   21.3043   -8.5774  -17.4866 C   0  0  0  0  0  0  0  0  0  0  0  0
   21.8480   -7.8297  -18.3403 O   0  0  0  0  0  0  0  0  0  0  0  0
   19.9899   -8.1863  -17.0205 N   0  0  0  0  0  0  0  0  0  0  0  0
   19.2713   -7.0499  -17.5459 C   0  0  1  0  0  0  0  0  0  0  0  0
   17.7756   -7.3914  -17.4788 C   0  0  0  0  0  0  0  0  0  0  0  0
   16.9074   -6.4091  -18.1126 C   0  0  0  0  0  0  0  0  0  0  0  0
   17.1657   -5.6488  -19.2572 C   0  0  0  0  0  0  0  0  0  0  0  0
   16.1235   -4.8701  -19.5082 N   0  0  0  0  0  0  0  0  0  0  0  0
   15.1923   -5.0952  -18.5669 C   0  0  0  0  0  0  0  0  0  0  0  0
   15.6866   -6.0251  -17.7384 N   0  0  0  0  0  0  0  0  0  0  0  0
   19.3733   -5.8695  -16.6093 C   0  0  0  0  0  0  0  0  0  0  0  0
   19.7112   -4.6546  -17.1699 O   0  0  0  0  0  0  0  0  0  0  0  0
   19.1653   -5.9930  -15.3993 O   0  0  0  0  0  0  0  0  0  0  0  0
  2  3  2  0
  2  1  1  0
  4  2  1  0
  5  4  1  0
  6  5  1  0
  6  7  1  6
  8  9  2  0
  8  6  1  0
 10  8  1  0
 11 12  1  6
 11 10  1  0
 12 13  1  0
 13 21  1  0
 13 14  2  0
 14 15  1  0
 16 15  1  0
 16 17  2  0
 18 17  1  0
 19 18  2  0
 20 21  2  0
 20 19  1  0
 21 16  1  0
 22 11  1  0
 23 22  2  0
 24 22  1  0
 25 24  1  0
 25 26  1  1
 26 27  1  0
 27 28  2  0
 28 29  1  0
 30 29  1  0
 31 27  1  0
 31 30  2  0
 32 25  1  0
 32 33  1  0
 34 32  2  0
M  END
$$$$
