QWH.pdb
     RDKit          3D

 34 36  0  0  1  0  0  0  0  0999 V2000
   26.6000  -17.1132  -14.5331 N   0  0  0  0  0  0  0  0  0  0  0  0
   27.6282  -17.4296  -15.4754 C   0  0  0  0  0  0  0  0  0  0  0  0
   27.6983  -16.7910  -16.5449 O   0  0  0  0  0  0  0  0  0  0  0  0
   28.6048  -18.5088  -15.1850 C   0  0  0  0  0  0  0  0  0  0  0  0
   28.4278  -18.9643  -13.7563 C   0  0  0  0  0  0  0  0  0  0  0  0
   28.6457  -20.4491  -13.6056 C   0  0  2  0  0  0  0  0  0  0  0  0
   28.6338  -21.0861  -14.8924 N   0  0  0  0  0  0  0  0  0  0  0  0
   27.5213  -20.9941  -12.7923 C   0  0  0  0  0  0  0  0  0  0  0  0
   26.4810  -21.4166  -13.3621 O   0  0  0  0  0  0  0  0  0  0  0  0
   27.5645  -21.0627  -11.3758 N   0  0  0  0  0  0  0  0  0  0  0  0
   26.4504  -21.4989  -10.5723 C   0  0  1  0  0  0  0  0  0  0  0  0
   26.8785  -21.9188   -9.2030 C   0  0  0  0  0  0  0  0  0  0  0  0
   27.0523  -20.8313   -8.2236 C   0  0  0  0  0  0  0  0  0  0  0  0
   26.4798  -19.5391   -8.3469 C   0  0  0  0  0  0  0  0  0  0  0  0
   26.8099  -18.7942   -7.2871 N   0  0  0  0  0  0  0  0  0  0  0  0
   27.5822  -19.5212   -6.4473 C   0  0  0  0  0  0  0  0  0  0  0  0
   28.1692  -19.2045   -5.2409 C   0  0  0  0  0  0  0  0  0  0  0  0
   28.9243  -20.1716   -4.6008 C   0  0  0  0  0  0  0  0  0  0  0  0
   29.0914  -21.4184   -5.1447 C   0  0  0  0  0  0  0  0  0  0  0  0
   28.4893  -21.6852   -6.3435 C   0  0  0  0  0  0  0  0  0  0  0  0
   27.7250  -20.7799   -7.0386 C   0  0  0  0  0  0  0  0  0  0  0  0
   25.2759  -20.6251  -10.5810 C   0  0  0  0  0  0  0  0  0  0  0  0
   25.2634  -19.4837  -10.0512 O   0  0  0  0  0  0  0  0  0  0  0  0
   24.0541  -21.0566  -11.2282 N   0  0  0  0  0  0  0  0  0  0  0  0
   22.8941  -20.2093  -11.3709 C   0  0  1  0  0  0  0  0  0  0  0  0
   22.7405  -19.9029  -12.8679 C   0  0  0  0  0  0  0  0  0  0  0  0
   21.6368  -19.0079  -13.1865 C   0  0  0  0  0  0  0  0  0  0  0  0
   21.3605  -17.7558  -12.6292 C   0  0  0  0  0  0  0  0  0  0  0  0
   20.2650  -17.2619  -13.1875 N   0  0  0  0  0  0  0  0  0  0  0  0
   19.8156  -18.1482  -14.0909 C   0  0  0  0  0  0  0  0  0  0  0  0
   20.6573  -19.1906  -14.0725 N   0  0  0  0  0  0  0  0  0  0  0  0
   21.6282  -20.9755  -11.0687 C   0  0  0  0  0  0  0  0  0  0  0  0
   20.5849  -20.2637  -10.5125 O   0  0  0  0  0  0  0  0  0  0  0  0
   21.5384  -22.1826  -11.3082 O   0  0  0  0  0  0  0  0  0  0  0  0
  2  3  2  0
  2  1  1  0
  4  2  1  0
  5  4  1  0
  6  5  1  0
  6  7  1  6
  8  9  2  0
  8  6  1  0
 10  8  1  0
 11 12  1  1
 11 10  1  0
 12 13  1  0
 13 21  1  0
 13 14  2  0
 14 15  1  0
 16 15  1  0
 16 17  2  0
 18 17  1  0
 19 18  2  0
 20 21  2  0
 20 19  1  0
 21 16  1  0
 22 11  1  0
 23 22  2  0
 24 22  1  0
 25 24  1  0
 25 26  1  6
 26 27  1  0
 27 28  2  0
 28 29  1  0
 30 29  1  0
 31 27  1  0
 31 30  2  0
 32 25  1  0
 32 33  1  0
 34 32  2  0
M  END
$$$$
