QWH.pdb
     RDKit          3D

 34 36  0  0  1  0  0  0  0  0999 V2000
   26.8181  -20.0951  -18.3188 N   0  0  0  0  0  0  0  0  0  0  0  0
   28.1728  -20.3410  -17.9322 C   0  0  0  0  0  0  0  0  0  0  0  0
   28.8821  -21.0965  -18.6271 O   0  0  0  0  0  0  0  0  0  0  0  0
   28.7322  -19.7036  -16.7142 C   0  0  0  0  0  0  0  0  0  0  0  0
   27.9023  -20.1080  -15.5192 C   0  0  0  0  0  0  0  0  0  0  0  0
   28.5280  -21.2493  -14.7570 C   0  0  2  0  0  0  0  0  0  0  0  0
   28.4683  -22.4564  -15.5324 N   0  0  0  0  0  0  0  0  0  0  0  0
   27.7420  -21.4460  -13.5056 C   0  0  0  0  0  0  0  0  0  0  0  0
   26.5769  -21.9198  -13.5634 O   0  0  0  0  0  0  0  0  0  0  0  0
   28.2517  -21.1192  -12.2224 N   0  0  0  0  0  0  0  0  0  0  0  0
   27.4486  -21.1376  -11.0258 C   0  0  1  0  0  0  0  0  0  0  0  0
   28.2756  -20.9547   -9.7941 C   0  0  0  0  0  0  0  0  0  0  0  0
   27.5283  -20.6688   -8.5563 C   0  0  0  0  0  0  0  0  0  0  0  0
   26.1219  -20.7943   -8.4190 C   0  0  0  0  0  0  0  0  0  0  0  0
   25.7585  -20.4806   -7.1714 N   0  0  0  0  0  0  0  0  0  0  0  0
   26.8549  -20.1464   -6.4526 C   0  0  0  0  0  0  0  0  0  0  0  0
   27.0013  -19.7499   -5.1404 C   0  0  0  0  0  0  0  0  0  0  0  0
   28.2729  -19.4626   -4.6762 C   0  0  0  0  0  0  0  0  0  0  0  0
   29.3682  -19.5663   -5.4935 C   0  0  0  0  0  0  0  0  0  0  0  0
   29.1724  -19.9636   -6.7875 C   0  0  0  0  0  0  0  0  0  0  0  0
   27.9435  -20.2667   -7.3213 C   0  0  0  0  0  0  0  0  0  0  0  0
   26.2415  -20.3099  -11.0540 C   0  0  0  0  0  0  0  0  0  0  0  0
   26.2581  -19.0629  -10.8860 O   0  0  0  0  0  0  0  0  0  0  0  0
   24.9489  -20.9182  -11.2927 N   0  0  0  0  0  0  0  0  0  0  0  0
   23.7507  -20.1538  -11.5452 C   0  0  1  0  0  0  0  0  0  0  0  0
   23.2387  -20.5629  -12.9340 C   0  0  0  0  0  0  0  0  0  0  0  0
   22.0231  -19.8777  -13.3506 C   0  0  0  0  0  0  0  0  0  0  0  0
   21.2779  -18.9399  -12.6296 C   0  0  0  0  0  0  0  0  0  0  0  0
   20.2401  -18.5544  -13.3576 N   0  0  0  0  0  0  0  0  0  0  0  0
   20.2811  -19.2080  -14.5300 C   0  0  0  0  0  0  0  0  0  0  0  0
   21.3628  -19.9985  -14.5027 N   0  0  0  0  0  0  0  0  0  0  0  0
   22.6260  -20.6035  -10.6432 C   0  0  0  0  0  0  0  0  0  0  0  0
   22.8370  -21.7510   -9.9063 O   0  0  0  0  0  0  0  0  0  0  0  0
   21.5687  -19.9708  -10.5748 O   0  0  0  0  0  0  0  0  0  0  0  0
  2  3  2  0
  2  1  1  0
  4  2  1  0
  5  4  1  0
  6  5  1  0
  6  7  1  6
  8  9  2  0
  8  6  1  0
 10  8  1  0
 11 12  1  1
 11 10  1  0
 12 13  1  0
 13 21  1  0
 13 14  2  0
 14 15  1  0
 16 15  1  0
 16 17  2  0
 18 17  1  0
 19 18  2  0
 20 21  2  0
 20 19  1  0
 21 16  1  0
 22 11  1  0
 23 22  2  0
 24 22  1  0
 25 24  1  0
 25 26  1  6
 26 27  1  0
 27 28  2  0
 28 29  1  0
 30 29  1  0
 31 27  1  0
 31 30  2  0
 32 25  1  0
 32 33  1  0
 34 32  2  0
M  END
$$$$
