QWH.pdb
     RDKit          3D

 34 36  0  0  1  0  0  0  0  0999 V2000
   18.9890  -18.3570  -11.5382 N   0  0  0  0  0  0  0  0  0  0  0  0
   19.0799  -19.7745  -11.3718 C   0  0  0  0  0  0  0  0  0  0  0  0
   18.4916  -20.5260  -12.1754 O   0  0  0  0  0  0  0  0  0  0  0  0
   19.8673  -20.3487  -10.2524 C   0  0  0  0  0  0  0  0  0  0  0  0
   21.3133  -19.9416  -10.4053 C   0  0  0  0  0  0  0  0  0  0  0  0
   22.0079  -20.7216  -11.4935 C   0  0  2  0  0  0  0  0  0  0  0  0
   21.9095  -22.1306  -11.2349 N   0  0  0  0  0  0  0  0  0  0  0  0
   23.4473  -20.3335  -11.4839 C   0  0  0  0  0  0  0  0  0  0  0  0
   23.7764  -19.1357  -11.6895 O   0  0  0  0  0  0  0  0  0  0  0  0
   24.4899  -21.2668  -11.2491 N   0  0  0  0  0  0  0  0  0  0  0  0
   25.8849  -20.9546  -11.4328 C   0  0  1  0  0  0  0  0  0  0  0  0
   26.7238  -21.4544  -10.3010 C   0  0  0  0  0  0  0  0  0  0  0  0
   26.6316  -20.6865   -9.0464 C   0  0  0  0  0  0  0  0  0  0  0  0
   25.5043  -19.9197   -8.6540 C   0  0  0  0  0  0  0  0  0  0  0  0
   25.7285  -19.3629   -7.4596 N   0  0  0  0  0  0  0  0  0  0  0  0
   26.9587  -19.7159   -7.0208 C   0  0  0  0  0  0  0  0  0  0  0  0
   27.6427  -19.3995   -5.8665 C   0  0  0  0  0  0  0  0  0  0  0  0
   28.9154  -19.9141   -5.6920 C   0  0  0  0  0  0  0  0  0  0  0  0
   29.4921  -20.7204   -6.6384 C   0  0  0  0  0  0  0  0  0  0  0  0
   28.7740  -21.0060   -7.7669 C   0  0  0  0  0  0  0  0  0  0  0  0
   27.5072  -20.5348   -8.0122 C   0  0  0  0  0  0  0  0  0  0  0  0
   26.4380  -21.2552  -12.7545 C   0  0  0  0  0  0  0  0  0  0  0  0
   27.6124  -20.9559  -13.0933 O   0  0  0  0  0  0  0  0  0  0  0  0
   25.6280  -21.9366  -13.7432 N   0  0  0  0  0  0  0  0  0  0  0  0
   26.1500  -22.4058  -15.0046 C   0  0  1  0  0  0  0  0  0  0  0  0
   25.9327  -23.9255  -15.0455 C   0  0  0  0  0  0  0  0  0  0  0  0
   26.3843  -24.5628  -16.2745 C   0  0  0  0  0  0  0  0  0  0  0  0
   27.2597  -24.0479  -17.2353 C   0  0  0  0  0  0  0  0  0  0  0  0
   27.4150  -24.9370  -18.2054 N   0  0  0  0  0  0  0  0  0  0  0  0
   26.6709  -26.0159  -17.9118 C   0  0  0  0  0  0  0  0  0  0  0  0
   26.0600  -25.7674  -16.7454 N   0  0  0  0  0  0  0  0  0  0  0  0
   25.2927  -21.9280  -16.1524 C   0  0  0  0  0  0  0  0  0  0  0  0
   25.8339  -22.0236  -17.4183 O   0  0  0  0  0  0  0  0  0  0  0  0
   24.1623  -21.4721  -15.9601 O   0  0  0  0  0  0  0  0  0  0  0  0
  2  3  2  0
  2  1  1  0
  4  2  1  0
  5  4  1  0
  6  5  1  0
  6  7  1  1
  8  9  2  0
  8  6  1  0
 10  8  1  0
 11 12  1  1
 11 10  1  0
 12 13  1  0
 13 21  1  0
 13 14  2  0
 14 15  1  0
 16 15  1  0
 16 17  2  0
 18 17  1  0
 19 18  2  0
 20 21  2  0
 20 19  1  0
 21 16  1  0
 22 11  1  0
 23 22  2  0
 24 22  1  0
 25 24  1  0
 25 26  1  1
 26 27  1  0
 27 28  2  0
 28 29  1  0
 30 29  1  0
 31 27  1  0
 31 30  2  0
 32 25  1  0
 32 33  1  0
 34 32  2  0
M  END
$$$$
