QWH.pdb
     RDKit          3D

 34 36  0  0  1  0  0  0  0  0999 V2000
   26.5849  -32.5252   -9.6060 N   0  0  0  0  0  0  0  0  0  0  0  0
   25.1772  -32.7343   -9.7462 C   0  0  0  0  0  0  0  0  0  0  0  0
   24.5637  -32.1773  -10.6789 O   0  0  0  0  0  0  0  0  0  0  0  0
   24.4502  -33.6066   -8.7906 C   0  0  0  0  0  0  0  0  0  0  0  0
   25.4260  -34.1444   -7.7714 C   0  0  0  0  0  0  0  0  0  0  0  0
   24.8112  -34.2428   -6.3976 C   0  0  2  0  0  0  0  0  0  0  0  0
   24.4375  -32.9391   -5.9260 N   0  0  0  0  0  0  0  0  0  0  0  0
   25.8400  -34.8068   -5.4778 C   0  0  0  0  0  0  0  0  0  0  0  0
   26.2444  -35.9886   -5.6364 O   0  0  0  0  0  0  0  0  0  0  0  0
   26.4002  -34.0624   -4.4077 N   0  0  0  0  0  0  0  0  0  0  0  0
   27.4301  -34.5782   -3.5413 C   0  0  1  0  0  0  0  0  0  0  0  0
   28.6097  -33.6631   -3.4679 C   0  0  0  0  0  0  0  0  0  0  0  0
   29.6568  -33.8838   -4.4814 C   0  0  0  0  0  0  0  0  0  0  0  0
   29.5096  -33.6024   -5.8640 C   0  0  0  0  0  0  0  0  0  0  0  0
   30.6434  -33.8943   -6.5092 N   0  0  0  0  0  0  0  0  0  0  0  0
   31.5566  -34.3625   -5.6276 C   0  0  0  0  0  0  0  0  0  0  0  0
   32.8541  -34.7954   -5.7992 C   0  0  0  0  0  0  0  0  0  0  0  0
   33.5557  -35.2325   -4.6894 C   0  0  0  0  0  0  0  0  0  0  0  0
   32.9837  -35.2394   -3.4440 C   0  0  0  0  0  0  0  0  0  0  0  0
   31.6939  -34.8004   -3.3241 C   0  0  0  0  0  0  0  0  0  0  0  0
   30.9334  -34.3513   -4.3762 C   0  0  0  0  0  0  0  0  0  0  0  0
   26.9812  -35.0676   -2.2367 C   0  0  0  0  0  0  0  0  0  0  0  0
   26.1757  -34.4360   -1.5047 O   0  0  0  0  0  0  0  0  0  0  0  0
   27.4582  -36.3397   -1.7345 N   0  0  0  0  0  0  0  0  0  0  0  0
   27.1492  -36.8335   -0.4137 C   0  0  1  0  0  0  0  0  0  0  0  0
   27.6914  -38.2679   -0.3300 C   0  0  0  0  0  0  0  0  0  0  0  0
   26.8818  -39.2565   -1.0283 C   0  0  0  0  0  0  0  0  0  0  0  0
   25.6762  -39.0526   -1.7063 C   0  0  0  0  0  0  0  0  0  0  0  0
   25.2558  -40.2059   -2.2053 N   0  0  0  0  0  0  0  0  0  0  0  0
   26.1453  -41.1569   -1.8768 C   0  0  0  0  0  0  0  0  0  0  0  0
   27.1149  -40.5618   -1.1688 N   0  0  0  0  0  0  0  0  0  0  0  0
   27.9699  -36.1186    0.6332 C   0  0  0  0  0  0  0  0  0  0  0  0
   27.7719  -36.4943    1.9462 O   0  0  0  0  0  0  0  0  0  0  0  0
   28.7769  -35.2382    0.3224 O   0  0  0  0  0  0  0  0  0  0  0  0
  2  3  2  0
  2  1  1  0
  4  2  1  0
  5  4  1  0
  6  5  1  0
  6  7  1  1
  8  9  2  0
  8  6  1  0
 10  8  1  0
 11 12  1  1
 11 10  1  0
 12 13  1  0
 13 21  1  0
 13 14  2  0
 14 15  1  0
 16 15  1  0
 16 17  2  0
 18 17  1  0
 19 18  2  0
 20 21  2  0
 20 19  1  0
 21 16  1  0
 22 11  1  0
 23 22  2  0
 24 22  1  0
 25 24  1  0
 25 26  1  6
 26 27  1  0
 27 28  2  0
 28 29  1  0
 30 29  1  0
 31 27  1  0
 31 30  2  0
 32 25  1  0
 32 33  1  0
 34 32  2  0
M  END
$$$$
