QWH.pdb
     RDKit          3D

 34 36  0  0  1  0  0  0  0  0999 V2000
   30.6334  -21.7175  -17.0665 N   0  0  0  0  0  0  0  0  0  0  0  0
   30.4373  -22.9948  -17.6789 C   0  0  0  0  0  0  0  0  0  0  0  0
   31.2136  -23.3687  -18.5812 O   0  0  0  0  0  0  0  0  0  0  0  0
   29.3195  -23.8699  -17.2460 C   0  0  0  0  0  0  0  0  0  0  0  0
   28.5713  -23.1959  -16.1208 C   0  0  0  0  0  0  0  0  0  0  0  0
   27.2021  -22.7320  -16.5510 C   0  0  2  0  0  0  0  0  0  0  0  0
   27.2996  -21.4883  -17.2620 N   0  0  0  0  0  0  0  0  0  0  0  0
   26.3872  -22.5166  -15.3213 C   0  0  0  0  0  0  0  0  0  0  0  0
   26.1101  -23.4904  -14.5727 O   0  0  0  0  0  0  0  0  0  0  0  0
   25.8966  -21.2404  -14.9423 N   0  0  0  0  0  0  0  0  0  0  0  0
   25.0322  -21.0320  -13.8079 C   0  0  1  0  0  0  0  0  0  0  0  0
   25.5610  -19.9794  -12.8876 C   0  0  0  0  0  0  0  0  0  0  0  0
   26.7293  -20.3649  -12.0761 C   0  0  0  0  0  0  0  0  0  0  0  0
   28.0335  -20.5751  -12.5933 C   0  0  0  0  0  0  0  0  0  0  0  0
   28.8691  -20.8942  -11.5999 N   0  0  0  0  0  0  0  0  0  0  0  0
   28.1921  -20.9113  -10.4287 C   0  0  0  0  0  0  0  0  0  0  0  0
   28.6012  -21.1837   -9.1407 C   0  0  0  0  0  0  0  0  0  0  0  0
   27.6629  -21.1279   -8.1250 C   0  0  0  0  0  0  0  0  0  0  0  0
   26.3547  -20.8104   -8.3824 C   0  0  0  0  0  0  0  0  0  0  0  0
   25.9970  -20.5481   -9.6762 C   0  0  0  0  0  0  0  0  0  0  0  0
   26.8689  -20.5824  -10.7372 C   0  0  0  0  0  0  0  0  0  0  0  0
   23.6066  -20.8905  -14.1087 C   0  0  0  0  0  0  0  0  0  0  0  0
   23.1526  -20.0211  -14.8972 O   0  0  0  0  0  0  0  0  0  0  0  0
   22.6427  -21.7810  -13.4956 N   0  0  0  0  0  0  0  0  0  0  0  0
   21.2174  -21.6540  -13.6858 C   0  0  1  0  0  0  0  0  0  0  0  0
   20.5476  -22.7122  -12.7970 C   0  0  0  0  0  0  0  0  0  0  0  0
   19.1001  -22.7851  -12.9389 C   0  0  0  0  0  0  0  0  0  0  0  0
   18.1534  -21.8249  -12.5695 C   0  0  0  0  0  0  0  0  0  0  0  0
   16.9411  -22.2717  -12.8635 N   0  0  0  0  0  0  0  0  0  0  0  0
   17.0627  -23.4913  -13.4126 C   0  0  0  0  0  0  0  0  0  0  0  0
   18.3710  -23.7788  -13.4476 N   0  0  0  0  0  0  0  0  0  0  0  0
   20.7081  -20.3640  -13.0882 C   0  0  0  0  0  0  0  0  0  0  0  0
   19.6339  -19.7663  -13.7153 O   0  0  0  0  0  0  0  0  0  0  0  0
   21.2343  -19.8711  -12.0868 O   0  0  0  0  0  0  0  0  0  0  0  0
  2  3  2  0
  2  1  1  0
  4  2  1  0
  5  4  1  0
  6  5  1  0
  6  7  1  1
  8  9  2  0
  8  6  1  0
 10  8  1  0
 11 12  1  6
 11 10  1  0
 12 13  1  0
 13 21  1  0
 13 14  2  0
 14 15  1  0
 16 15  1  0
 16 17  2  0
 18 17  1  0
 19 18  2  0
 20 21  2  0
 20 19  1  0
 21 16  1  0
 22 11  1  0
 23 22  2  0
 24 22  1  0
 25 24  1  0
 25 26  1  1
 26 27  1  0
 27 28  2  0
 28 29  1  0
 30 29  1  0
 31 27  1  0
 31 30  2  0
 32 25  1  0
 32 33  1  0
 34 32  2  0
M  END
$$$$
