QWH.pdb
     RDKit          3D

 34 36  0  0  1  0  0  0  0  0999 V2000
   19.1836  -13.4260  -21.4128 N   0  0  0  0  0  0  0  0  0  0  0  0
   19.4661  -14.8146  -21.2205 C   0  0  0  0  0  0  0  0  0  0  0  0
   19.5644  -15.5643  -22.2129 O   0  0  0  0  0  0  0  0  0  0  0  0
   19.6412  -15.3614  -19.8519 C   0  0  0  0  0  0  0  0  0  0  0  0
   19.4721  -14.2458  -18.8485 C   0  0  0  0  0  0  0  0  0  0  0  0
   20.7650  -13.9189  -18.1438 C   0  0  2  0  0  0  0  0  0  0  0  0
   21.2432  -15.0666  -17.4256 N   0  0  0  0  0  0  0  0  0  0  0  0
   20.4881  -12.8261  -17.1683 C   0  0  0  0  0  0  0  0  0  0  0  0
   20.1111  -13.1072  -16.0003 O   0  0  0  0  0  0  0  0  0  0  0  0
   20.6311  -11.4531  -17.4963 N   0  0  0  0  0  0  0  0  0  0  0  0
   20.3730  -10.3870  -16.5613 C   0  0  1  0  0  0  0  0  0  0  0  0
   21.2747  -10.4561  -15.3712 C   0  0  0  0  0  0  0  0  0  0  0  0
   21.1723   -9.3326  -14.4228 C   0  0  0  0  0  0  0  0  0  0  0  0
   20.4071   -9.3557  -13.2284 C   0  0  0  0  0  0  0  0  0  0  0  0
   20.5388   -8.1924  -12.5832 N   0  0  0  0  0  0  0  0  0  0  0  0
   21.3595   -7.3774  -13.2850 C   0  0  0  0  0  0  0  0  0  0  0  0
   21.7967   -6.0925  -13.0432 C   0  0  0  0  0  0  0  0  0  0  0  0
   22.6448   -5.5005  -13.9627 C   0  0  0  0  0  0  0  0  0  0  0  0
   23.0468   -6.1668  -15.0908 C   0  0  0  0  0  0  0  0  0  0  0  0
   22.5864   -7.4397  -15.2868 C   0  0  0  0  0  0  0  0  0  0  0  0
   21.7443   -8.0947  -14.4215 C   0  0  0  0  0  0  0  0  0  0  0  0
   20.2583   -9.0462  -17.1375 C   0  0  0  0  0  0  0  0  0  0  0  0
   20.9655   -8.6475  -18.0990 O   0  0  0  0  0  0  0  0  0  0  0  0
   19.2897   -8.1083  -16.6081 N   0  0  0  0  0  0  0  0  0  0  0  0
   19.0402   -6.8140  -17.1965 C   0  0  1  0  0  0  0  0  0  0  0  0
   17.7639   -6.9407  -18.0410 C   0  0  0  0  0  0  0  0  0  0  0  0
   17.4531   -5.7624  -18.8382 C   0  0  0  0  0  0  0  0  0  0  0  0
   18.1656   -4.5614  -18.9063 C   0  0  0  0  0  0  0  0  0  0  0  0
   17.5546   -3.7385  -19.7460 N   0  0  0  0  0  0  0  0  0  0  0  0
   16.4668   -4.3604  -20.2295 C   0  0  0  0  0  0  0  0  0  0  0  0
   16.4268   -5.5768  -19.6689 N   0  0  0  0  0  0  0  0  0  0  0  0
   18.6292   -5.8142  -16.1418 C   0  0  0  0  0  0  0  0  0  0  0  0
   19.3095   -4.6137  -16.1202 O   0  0  0  0  0  0  0  0  0  0  0  0
   17.7276   -6.0663  -15.3380 O   0  0  0  0  0  0  0  0  0  0  0  0
  2  3  2  0
  2  1  1  0
  4  2  1  0
  5  4  1  0
  6  5  1  0
  6  7  1  1
  8  9  2  0
  8  6  1  0
 10  8  1  0
 11 12  1  1
 11 10  1  0
 12 13  1  0
 13 21  1  0
 13 14  2  0
 14 15  1  0
 16 15  1  0
 16 17  2  0
 18 17  1  0
 19 18  2  0
 20 21  2  0
 20 19  1  0
 21 16  1  0
 22 11  1  0
 23 22  2  0
 24 22  1  0
 25 24  1  0
 25 26  1  6
 26 27  1  0
 27 28  2  0
 28 29  1  0
 30 29  1  0
 31 27  1  0
 31 30  2  0
 32 25  1  0
 32 33  1  0
 34 32  2  0
M  END
$$$$
