QWH.pdb
     RDKit          3D

 34 36  0  0  1  0  0  0  0  0999 V2000
   26.3728  -26.9443  -16.4349 N   0  0  0  0  0  0  0  0  0  0  0  0
   27.8026  -26.9176  -16.4500 C   0  0  0  0  0  0  0  0  0  0  0  0
   28.4386  -27.6527  -15.6679 O   0  0  0  0  0  0  0  0  0  0  0  0
   28.5257  -26.0230  -17.3878 C   0  0  0  0  0  0  0  0  0  0  0  0
   27.5275  -25.3569  -18.3043 C   0  0  0  0  0  0  0  0  0  0  0  0
   27.8663  -23.9080  -18.5510 C   0  0  2  0  0  0  0  0  0  0  0  0
   28.8338  -23.4537  -17.5922 N   0  0  0  0  0  0  0  0  0  0  0  0
   26.6165  -23.1130  -18.3819 C   0  0  0  0  0  0  0  0  0  0  0  0
   26.0574  -23.0534  -17.2553 O   0  0  0  0  0  0  0  0  0  0  0  0
   26.0106  -22.4033  -19.4507 N   0  0  0  0  0  0  0  0  0  0  0  0
   24.7983  -21.6377  -19.3030 C   0  0  1  0  0  0  0  0  0  0  0  0
   24.6358  -20.6310  -20.3959 C   0  0  0  0  0  0  0  0  0  0  0  0
   23.5043  -19.6985  -20.2460 C   0  0  0  0  0  0  0  0  0  0  0  0
   23.3353  -18.8082  -19.1546 C   0  0  0  0  0  0  0  0  0  0  0  0
   22.2227  -18.0872  -19.3259 N   0  0  0  0  0  0  0  0  0  0  0  0
   21.6259  -18.4470  -20.4855 C   0  0  0  0  0  0  0  0  0  0  0  0
   20.4704  -18.0053  -21.0939 C   0  0  0  0  0  0  0  0  0  0  0  0
   20.1002  -18.5756  -22.2992 C   0  0  0  0  0  0  0  0  0  0  0  0
   20.8571  -19.5576  -22.8832 C   0  0  0  0  0  0  0  0  0  0  0  0
   21.9951  -19.9625  -22.2414 C   0  0  0  0  0  0  0  0  0  0  0  0
   22.4288  -19.4452  -21.0451 C   0  0  0  0  0  0  0  0  0  0  0  0
   23.5854  -22.4093  -19.0267 C   0  0  0  0  0  0  0  0  0  0  0  0
   23.3455  -23.5266  -19.5538 O   0  0  0  0  0  0  0  0  0  0  0  0
   22.5949  -21.8993  -18.1011 N   0  0  0  0  0  0  0  0  0  0  0  0
   21.3579  -22.5846  -17.8111 C   0  0  1  0  0  0  0  0  0  0  0  0
   20.7956  -21.9735  -16.5194 C   0  0  0  0  0  0  0  0  0  0  0  0
   19.5681  -22.5976  -16.0458 C   0  0  0  0  0  0  0  0  0  0  0  0
   18.3341  -22.6662  -16.6995 C   0  0  0  0  0  0  0  0  0  0  0  0
   17.4704  -23.3173  -15.9340 N   0  0  0  0  0  0  0  0  0  0  0  0
   18.0975  -23.6767  -14.8021 C   0  0  0  0  0  0  0  0  0  0  0  0
   19.3585  -23.2327  -14.8923 N   0  0  0  0  0  0  0  0  0  0  0  0
   20.2957  -22.2282  -18.8237 C   0  0  0  0  0  0  0  0  0  0  0  0
   19.4003  -23.2210  -19.1656 O   0  0  0  0  0  0  0  0  0  0  0  0
   20.2380  -21.1000  -19.3203 O   0  0  0  0  0  0  0  0  0  0  0  0
  2  3  2  0
  2  1  1  0
  4  2  1  0
  5  4  1  0
  6  5  1  0
  6  7  1  1
  8  9  2  0
  8  6  1  0
 10  8  1  0
 11 12  1  6
 11 10  1  0
 12 13  1  0
 13 21  1  0
 13 14  2  0
 14 15  1  0
 16 15  1  0
 16 17  2  0
 18 17  1  0
 19 18  2  0
 20 21  2  0
 20 19  1  0
 21 16  1  0
 22 11  1  0
 23 22  2  0
 24 22  1  0
 25 24  1  0
 25 26  1  1
 26 27  1  0
 27 28  2  0
 28 29  1  0
 30 29  1  0
 31 27  1  0
 31 30  2  0
 32 25  1  0
 32 33  1  0
 34 32  2  0
M  END
$$$$
