QWH.pdb
     RDKit          3D

 34 36  0  0  1  0  0  0  0  0999 V2000
   30.4757  -23.6781  -15.2209 N   0  0  0  0  0  0  0  0  0  0  0  0
   30.2546  -22.8509  -16.3664 C   0  0  0  0  0  0  0  0  0  0  0  0
   31.1404  -22.7635  -17.2406 O   0  0  0  0  0  0  0  0  0  0  0  0
   28.9822  -22.1015  -16.5154 C   0  0  0  0  0  0  0  0  0  0  0  0
   28.0724  -22.4372  -15.3581 C   0  0  0  0  0  0  0  0  0  0  0  0
   27.1887  -21.2752  -14.9786 C   0  0  2  0  0  0  0  0  0  0  0  0
   27.9846  -20.1059  -14.7313 N   0  0  0  0  0  0  0  0  0  0  0  0
   26.4718  -21.6394  -13.7233 C   0  0  0  0  0  0  0  0  0  0  0  0
   26.0302  -22.8084  -13.5685 O   0  0  0  0  0  0  0  0  0  0  0  0
   26.2566  -20.7145  -12.6691 N   0  0  0  0  0  0  0  0  0  0  0  0
   25.1744  -20.8320  -11.7243 C   0  0  1  0  0  0  0  0  0  0  0  0
   25.5434  -20.2908  -10.3807 C   0  0  0  0  0  0  0  0  0  0  0  0
   26.8544  -20.7139   -9.8568 C   0  0  0  0  0  0  0  0  0  0  0  0
   27.7714  -21.5399  -10.5563 C   0  0  0  0  0  0  0  0  0  0  0  0
   28.8712  -21.7222   -9.8186 N   0  0  0  0  0  0  0  0  0  0  0  0
   28.7442  -21.0575   -8.6472 C   0  0  0  0  0  0  0  0  0  0  0  0
   29.5917  -20.9407   -7.5662 C   0  0  0  0  0  0  0  0  0  0  0  0
   29.1798  -20.1829   -6.4840 C   0  0  0  0  0  0  0  0  0  0  0  0
   27.9596  -19.5588   -6.4765 C   0  0  0  0  0  0  0  0  0  0  0  0
   27.1539  -19.7041   -7.5721 C   0  0  0  0  0  0  0  0  0  0  0  0
   27.4915  -20.4379   -8.6831 C   0  0  0  0  0  0  0  0  0  0  0  0
   23.8620  -20.3895  -12.1984 C   0  0  0  0  0  0  0  0  0  0  0  0
   23.6215  -19.2064  -12.5534 O   0  0  0  0  0  0  0  0  0  0  0  0
   22.7653  -21.3316  -12.2852 N   0  0  0  0  0  0  0  0  0  0  0  0
   21.4449  -20.9670  -12.7407 C   0  0  1  0  0  0  0  0  0  0  0  0
   20.7125  -22.2705  -13.0910 C   0  0  0  0  0  0  0  0  0  0  0  0
   21.1269  -22.8709  -14.3514 C   0  0  0  0  0  0  0  0  0  0  0  0
   21.9531  -22.3170  -15.3338 C   0  0  0  0  0  0  0  0  0  0  0  0
   22.0867  -23.1809  -16.3295 N   0  0  0  0  0  0  0  0  0  0  0  0
   21.3761  -24.2809  -16.0318 C   0  0  0  0  0  0  0  0  0  0  0  0
   20.8074  -24.0710  -14.8367 N   0  0  0  0  0  0  0  0  0  0  0  0
   20.6130  -20.4276  -11.6015 C   0  0  0  0  0  0  0  0  0  0  0  0
   19.4310  -19.7982  -11.9346 O   0  0  0  0  0  0  0  0  0  0  0  0
   20.9803  -20.5454  -10.4294 O   0  0  0  0  0  0  0  0  0  0  0  0
  2  3  2  0
  2  1  1  0
  4  2  1  0
  5  4  1  0
  6  5  1  0
  6  7  1  1
  8  9  2  0
  8  6  1  0
 10  8  1  0
 11 12  1  1
 11 10  1  0
 12 13  1  0
 13 21  1  0
 13 14  2  0
 14 15  1  0
 16 15  1  0
 16 17  2  0
 18 17  1  0
 19 18  2  0
 20 21  2  0
 20 19  1  0
 21 16  1  0
 22 11  1  0
 23 22  2  0
 24 22  1  0
 25 24  1  0
 25 26  1  1
 26 27  1  0
 27 28  2  0
 28 29  1  0
 30 29  1  0
 31 27  1  0
 31 30  2  0
 32 25  1  0
 32 33  1  0
 34 32  2  0
M  END
$$$$
