QWH.pdb
     RDKit          3D

 34 36  0  0  1  0  0  0  0  0999 V2000
   24.2866   -8.3549  -27.7073 N   0  0  0  0  0  0  0  0  0  0  0  0
   25.6984   -8.5829  -27.7078 C   0  0  0  0  0  0  0  0  0  0  0  0
   26.3615   -8.3249  -28.7326 O   0  0  0  0  0  0  0  0  0  0  0  0
   26.3709   -9.1224  -26.4998 C   0  0  0  0  0  0  0  0  0  0  0  0
   25.3448   -9.3216  -25.4101 C   0  0  0  0  0  0  0  0  0  0  0  0
   25.9574   -9.8888  -24.1540 C   0  0  2  0  0  0  0  0  0  0  0  0
   26.1891  -11.2976  -24.3067 N   0  0  0  0  0  0  0  0  0  0  0  0
   24.9874   -9.6820  -23.0409 C   0  0  0  0  0  0  0  0  0  0  0  0
   23.9446  -10.3848  -22.9776 O   0  0  0  0  0  0  0  0  0  0  0  0
   25.1840   -8.7112  -22.0251 N   0  0  0  0  0  0  0  0  0  0  0  0
   24.7986   -8.9165  -20.6515 C   0  0  1  0  0  0  0  0  0  0  0  0
   25.2901  -10.2252  -20.1222 C   0  0  0  0  0  0  0  0  0  0  0  0
   24.9071  -10.5403  -18.7343 C   0  0  0  0  0  0  0  0  0  0  0  0
   23.6418  -11.0506  -18.3454 C   0  0  0  0  0  0  0  0  0  0  0  0
   23.6192  -11.2472  -17.0234 N   0  0  0  0  0  0  0  0  0  0  0  0
   24.8129  -10.8931  -16.4940 C   0  0  0  0  0  0  0  0  0  0  0  0
   25.2769  -10.9066  -15.1960 C   0  0  0  0  0  0  0  0  0  0  0  0
   26.5677  -10.4712  -14.9525 C   0  0  0  0  0  0  0  0  0  0  0  0
   27.3746  -10.0346  -15.9707 C   0  0  0  0  0  0  0  0  0  0  0  0
   26.8695  -10.0400  -17.2417 C   0  0  0  0  0  0  0  0  0  0  0  0
   25.6008  -10.4570  -17.5633 C   0  0  0  0  0  0  0  0  0  0  0  0
   25.0323   -7.7893  -19.7473 C   0  0  0  0  0  0  0  0  0  0  0  0
   26.1447   -7.5614  -19.2049 O   0  0  0  0  0  0  0  0  0  0  0  0
   23.9586   -6.8652  -19.4454 N   0  0  0  0  0  0  0  0  0  0  0  0
   23.2849   -6.8268  -18.1693 C   0  0  1  0  0  0  0  0  0  0  0  0
   22.7850   -8.2497  -17.8799 C   0  0  0  0  0  0  0  0  0  0  0  0
   21.9558   -8.3630  -16.6882 C   0  0  0  0  0  0  0  0  0  0  0  0
   21.5513   -7.3401  -15.8252 C   0  0  0  0  0  0  0  0  0  0  0  0
   20.8054   -7.8544  -14.8582 N   0  0  0  0  0  0  0  0  0  0  0  0
   20.7084   -9.1787  -15.0595 C   0  0  0  0  0  0  0  0  0  0  0  0
   21.4086   -9.4613  -16.1665 N   0  0  0  0  0  0  0  0  0  0  0  0
   24.2703   -6.5986  -17.0478 C   0  0  0  0  0  0  0  0  0  0  0  0
   25.1677   -7.6144  -16.7884 O   0  0  0  0  0  0  0  0  0  0  0  0
   24.2664   -5.5509  -16.3959 O   0  0  0  0  0  0  0  0  0  0  0  0
  2  3  2  0
  2  1  1  0
  4  2  1  0
  5  4  1  0
  6  5  1  0
  6  7  1  6
  8  9  2  0
  8  6  1  0
 10  8  1  0
 11 12  1  1
 11 10  1  0
 12 13  1  0
 13 21  1  0
 13 14  2  0
 14 15  1  0
 16 15  1  0
 16 17  2  0
 18 17  1  0
 19 18  2  0
 20 21  2  0
 20 19  1  0
 21 16  1  0
 22 11  1  0
 23 22  2  0
 24 22  1  0
 25 24  1  0
 25 26  1  1
 26 27  1  0
 27 28  2  0
 28 29  1  0
 30 29  1  0
 31 27  1  0
 31 30  2  0
 32 25  1  0
 32 33  1  0
 34 32  2  0
M  END
$$$$
