QWH.pdb
     RDKit          3D

 34 36  0  0  1  0  0  0  0  0999 V2000
   17.2047  -28.8534  -12.7710 N   0  0  0  0  0  0  0  0  0  0  0  0
   16.3102  -27.9589  -13.4380 C   0  0  0  0  0  0  0  0  0  0  0  0
   15.6774  -28.3555  -14.4374 O   0  0  0  0  0  0  0  0  0  0  0  0
   16.1350  -26.5695  -12.9467 C   0  0  0  0  0  0  0  0  0  0  0  0
   17.0732  -26.3331  -11.7874 C   0  0  0  0  0  0  0  0  0  0  0  0
   17.7025  -24.9633  -11.8402 C   0  0  2  0  0  0  0  0  0  0  0  0
   18.6409  -24.8892  -12.9245 N   0  0  0  0  0  0  0  0  0  0  0  0
   18.4346  -24.7490  -10.5593 C   0  0  0  0  0  0  0  0  0  0  0  0
   19.3888  -25.5087  -10.2463 O   0  0  0  0  0  0  0  0  0  0  0  0
   18.1036  -23.7083   -9.6536 N   0  0  0  0  0  0  0  0  0  0  0  0
   18.6785  -23.5951   -8.3368 C   0  0  1  0  0  0  0  0  0  0  0  0
   19.1212  -22.1991   -8.0376 C   0  0  0  0  0  0  0  0  0  0  0  0
   20.1654  -21.6536   -8.9231 C   0  0  0  0  0  0  0  0  0  0  0  0
   19.9347  -21.1752  -10.2386 C   0  0  0  0  0  0  0  0  0  0  0  0
   21.0796  -20.7311  -10.7667 N   0  0  0  0  0  0  0  0  0  0  0  0
   22.0804  -20.8860   -9.8695 C   0  0  0  0  0  0  0  0  0  0  0  0
   23.4248  -20.5889   -9.9398 C   0  0  0  0  0  0  0  0  0  0  0  0
   24.2207  -20.8708   -8.8434 C   0  0  0  0  0  0  0  0  0  0  0  0
   23.6951  -21.4324   -7.7091 C   0  0  0  0  0  0  0  0  0  0  0  0
   22.3558  -21.7089   -7.6870 C   0  0  0  0  0  0  0  0  0  0  0  0
   21.5014  -21.4582   -8.7330 C   0  0  0  0  0  0  0  0  0  0  0  0
   17.9178  -24.2180   -7.2521 C   0  0  0  0  0  0  0  0  0  0  0  0
   16.7522  -24.6687   -7.3997 O   0  0  0  0  0  0  0  0  0  0  0  0
   18.5047  -24.3475   -5.9343 N   0  0  0  0  0  0  0  0  0  0  0  0
   17.9104  -25.1326   -4.8787 C   0  0  1  0  0  0  0  0  0  0  0  0
   16.5425  -25.6106   -5.3872 C   0  0  0  0  0  0  0  0  0  0  0  0
   15.4739  -24.6318   -5.2432 C   0  0  0  0  0  0  0  0  0  0  0  0
   14.5600  -24.2115   -6.2142 C   0  0  0  0  0  0  0  0  0  0  0  0
   13.7483  -23.3067   -5.6869 N   0  0  0  0  0  0  0  0  0  0  0  0
   14.1001  -23.1209   -4.4042 C   0  0  0  0  0  0  0  0  0  0  0  0
   15.1407  -23.9290   -4.1601 N   0  0  0  0  0  0  0  0  0  0  0  0
   18.6553  -26.4329   -4.6912 C   0  0  0  0  0  0  0  0  0  0  0  0
   19.2162  -26.6582   -3.4506 O   0  0  0  0  0  0  0  0  0  0  0  0
   18.7561  -27.2507   -5.6097 O   0  0  0  0  0  0  0  0  0  0  0  0
  2  3  2  0
  2  1  1  0
  4  2  1  0
  5  4  1  0
  6  5  1  0
  6  7  1  6
  8  9  2  0
  8  6  1  0
 10  8  1  0
 11 12  1  1
 11 10  1  0
 12 13  1  0
 13 21  1  0
 13 14  2  0
 14 15  1  0
 16 15  1  0
 16 17  2  0
 18 17  1  0
 19 18  2  0
 20 21  2  0
 20 19  1  0
 21 16  1  0
 22 11  1  0
 23 22  2  0
 24 22  1  0
 25 24  1  0
 25 26  1  6
 26 27  1  0
 27 28  2  0
 28 29  1  0
 30 29  1  0
 31 27  1  0
 31 30  2  0
 32 25  1  0
 32 33  1  0
 34 32  2  0
M  END
$$$$
