QWH.pdb
     RDKit          3D

 34 36  0  0  1  0  0  0  0  0999 V2000
   29.9146  -22.3729  -17.7960 N   0  0  0  0  0  0  0  0  0  0  0  0
   30.1542  -20.9658  -17.8840 C   0  0  0  0  0  0  0  0  0  0  0  0
   31.0735  -20.5441  -18.6144 O   0  0  0  0  0  0  0  0  0  0  0  0
   29.3169  -20.0133  -17.1131 C   0  0  0  0  0  0  0  0  0  0  0  0
   28.3683  -20.7902  -16.2318 C   0  0  0  0  0  0  0  0  0  0  0  0
   27.4285  -19.8840  -15.4764 C   0  0  2  0  0  0  0  0  0  0  0  0
   28.1688  -19.0177  -14.6028 N   0  0  0  0  0  0  0  0  0  0  0  0
   26.5329  -20.7433  -14.6506 C   0  0  0  0  0  0  0  0  0  0  0  0
   25.8077  -21.6105  -15.2052 O   0  0  0  0  0  0  0  0  0  0  0  0
   26.4541  -20.6317  -13.2384 N   0  0  0  0  0  0  0  0  0  0  0  0
   25.5005  -21.3608  -12.4408 C   0  0  1  0  0  0  0  0  0  0  0  0
   26.1382  -21.9947  -11.2467 C   0  0  0  0  0  0  0  0  0  0  0  0
   26.3094  -21.1215  -10.0717 C   0  0  0  0  0  0  0  0  0  0  0  0
   25.2701  -20.3609   -9.4769 C   0  0  0  0  0  0  0  0  0  0  0  0
   25.7449  -19.6927   -8.4210 N   0  0  0  0  0  0  0  0  0  0  0  0
   27.0617  -19.9639   -8.2700 C   0  0  0  0  0  0  0  0  0  0  0  0
   27.9854  -19.5232   -7.3464 C   0  0  0  0  0  0  0  0  0  0  0  0
   29.2886  -19.9775   -7.4487 C   0  0  0  0  0  0  0  0  0  0  0  0
   29.6631  -20.8452   -8.4413 C   0  0  0  0  0  0  0  0  0  0  0  0
   28.7109  -21.2541   -9.3339 C   0  0  0  0  0  0  0  0  0  0  0  0
   27.3988  -20.8491   -9.2981 C   0  0  0  0  0  0  0  0  0  0  0  0
   24.2511  -20.6598  -12.1398 C   0  0  0  0  0  0  0  0  0  0  0  0
   24.1973  -19.4292  -11.8821 O   0  0  0  0  0  0  0  0  0  0  0  0
   22.9953  -21.3815  -12.1376 N   0  0  0  0  0  0  0  0  0  0  0  0
   21.7773  -20.8490  -12.7004 C   0  0  1  0  0  0  0  0  0  0  0  0
   21.9753  -20.7804  -14.2216 C   0  0  0  0  0  0  0  0  0  0  0  0
   22.1219  -19.4301  -14.7468 C   0  0  0  0  0  0  0  0  0  0  0  0
   22.0554  -18.2245  -14.0420 C   0  0  0  0  0  0  0  0  0  0  0  0
   22.2386  -17.2169  -14.8827 N   0  0  0  0  0  0  0  0  0  0  0  0
   22.4227  -17.7224  -16.1133 C   0  0  0  0  0  0  0  0  0  0  0  0
   22.3483  -19.0560  -16.0064 N   0  0  0  0  0  0  0  0  0  0  0  0
   20.6457  -21.8405  -12.5684 C   0  0  0  0  0  0  0  0  0  0  0  0
   19.4323  -21.3492  -12.1319 O   0  0  0  0  0  0  0  0  0  0  0  0
   20.8061  -23.0340  -12.8378 O   0  0  0  0  0  0  0  0  0  0  0  0
  2  3  2  0
  2  1  1  0
  4  2  1  0
  5  4  1  0
  6  5  1  0
  6  7  1  1
  8  9  2  0
  8  6  1  0
 10  8  1  0
 11 12  1  1
 11 10  1  0
 12 13  1  0
 13 21  1  0
 13 14  2  0
 14 15  1  0
 16 15  1  0
 16 17  2  0
 18 17  1  0
 19 18  2  0
 20 21  2  0
 20 19  1  0
 21 16  1  0
 22 11  1  0
 23 22  2  0
 24 22  1  0
 25 24  1  0
 25 26  1  6
 26 27  1  0
 27 28  2  0
 28 29  1  0
 30 29  1  0
 31 27  1  0
 31 30  2  0
 32 25  1  0
 32 33  1  0
 34 32  2  0
M  END
$$$$
