CEA.pdb
     RDKit          3D

 21 20  0  0  1  0  0  0  0  0999 V2000
    6.5413  -15.7260   20.1393 N   0  0  0  0  0  0  0  0  0  0  0  0
    7.5590  -14.9778   20.8132 C   0  0  1  0  0  0  0  0  0  0  0  0
    7.1638  -13.5223   21.0246 C   0  0  0  0  0  0  0  0  0  0  0  0
    8.4359  -12.6379   21.9455 S   0  0  0  0  0  0  0  0  0  0  0  0
    7.8674  -15.5441   22.1667 C   0  0  0  0  0  0  0  0  0  0  0  0
    6.8978  -15.7439   22.9389 O   0  0  0  0  0  0  0  0  0  0  0  0
    9.2239  -15.8115   22.4747 N   0  0  0  0  0  0  0  0  0  0  0  0
    9.4973  -16.4098   23.7984 C   0  0  1  0  0  0  0  0  0  0  0  0
   10.5150  -17.4531   23.6051 C   0  0  0  0  0  0  0  0  0  0  0  0
   11.0460  -18.1561   24.8032 C   0  0  0  0  0  0  0  0  0  0  0  0
   12.1585  -19.0891   24.5393 C   0  0  0  0  0  0  0  0  0  0  0  0
   12.6444  -19.2101   23.4003 O   0  0  0  0  0  0  0  0  0  0  0  0
    9.7609  -15.3318   24.7309 C   0  0  0  0  0  0  0  0  0  0  0  0
   10.6444  -14.4620   24.4119 O   0  0  0  0  0  0  0  0  0  0  0  0
   12.6670  -19.8400   25.5786 O   0  0  0  0  0  0  0  0  0  0  0  0
    8.4156  -13.1589   27.1837 C   0  0  0  0  0  0  0  0  0  0  0  0
    9.5986  -14.0539   26.8942 C   0  0  2  0  0  0  0  0  0  0  0  0
    9.1518  -15.1019   25.9888 N   0  0  0  0  0  0  0  0  0  0  0  0
    9.9821  -14.7236   28.1724 C   0  0  0  0  0  0  0  0  0  0  0  0
    9.8700  -16.0965   28.2758 O   0  0  0  0  0  0  0  0  0  0  0  0
   10.4076  -14.0938   29.1725 O   0  0  0  0  0  0  0  0  0  0  0  0
  2  1  1  1
  3  2  1  0
  4  3  1  0
  5  7  1  0
  5  2  1  0
  6  5  2  0
  8  9  1  6
  8  7  1  0
 10  9  1  0
 11 10  1  0
 11 15  1  0
 12 11  2  0
 13  8  1  0
 13 18  1  0
 14 13  2  0
 17 18  1  0
 17 16  1  1
 19 17  1  0
 20 19  1  0
 21 19  2  0
M  END
$$$$
