CEA.pdb
     RDKit          3D

 21 20  0  0  1  0  0  0  0  0999 V2000
    7.7250  -15.5318   18.5291 N   0  0  0  0  0  0  0  0  0  0  0  0
    8.2264  -14.6553   19.5441 C   0  0  1  0  0  0  0  0  0  0  0  0
    7.7096  -13.2315   19.3870 C   0  0  0  0  0  0  0  0  0  0  0  0
    8.2844  -12.1861   20.7380 S   0  0  0  0  0  0  0  0  0  0  0  0
    7.8361  -15.1088   20.9188 C   0  0  0  0  0  0  0  0  0  0  0  0
    6.6397  -15.4475   21.0925 O   0  0  0  0  0  0  0  0  0  0  0  0
    8.8407  -15.1222   21.9174 N   0  0  0  0  0  0  0  0  0  0  0  0
    8.4552  -15.6628   23.2380 C   0  0  1  0  0  0  0  0  0  0  0  0
    9.2874  -16.8494   23.4849 C   0  0  0  0  0  0  0  0  0  0  0  0
   10.7663  -16.6941   23.4681 C   0  0  0  0  0  0  0  0  0  0  0  0
   11.5282  -17.9284   23.7391 C   0  0  0  0  0  0  0  0  0  0  0  0
   11.5621  -18.4305   24.8770 O   0  0  0  0  0  0  0  0  0  0  0  0
    8.4811  -14.5724   24.1927 C   0  0  0  0  0  0  0  0  0  0  0  0
    9.5601  -13.8920   24.3008 O   0  0  0  0  0  0  0  0  0  0  0  0
   12.2149  -18.5346   22.7079 O   0  0  0  0  0  0  0  0  0  0  0  0
    6.2263  -12.5516   26.3708 C   0  0  0  0  0  0  0  0  0  0  0  0
    7.6036  -13.0460   25.9925 C   0  0  2  0  0  0  0  0  0  0  0  0
    7.4387  -14.1423   25.0498 N   0  0  0  0  0  0  0  0  0  0  0  0
    8.2292  -13.6233   27.2192 C   0  0  0  0  0  0  0  0  0  0  0  0
    8.4822  -14.9802   27.2739 O   0  0  0  0  0  0  0  0  0  0  0  0
    8.5418  -12.9286   28.2180 O   0  0  0  0  0  0  0  0  0  0  0  0
  2  1  1  6
  3  2  1  0
  4  3  1  0
  5  7  1  0
  5  2  1  0
  6  5  2  0
  8  9  1  1
  8  7  1  0
 10  9  1  0
 11 10  1  0
 11 15  1  0
 12 11  2  0
 13  8  1  0
 13 18  1  0
 14 13  2  0
 17 18  1  0
 17 16  1  1
 19 17  1  0
 20 19  1  0
 21 19  2  0
M  END
$$$$
