CEA.pdb
     RDKit          3D

 21 20  0  0  1  0  0  0  0  0999 V2000
   10.7762  -15.0855   17.1961 N   0  0  0  0  0  0  0  0  0  0  0  0
   11.9758  -15.4042   17.9098 C   0  0  1  0  0  0  0  0  0  0  0  0
   12.9083  -14.2071   18.0391 C   0  0  0  0  0  0  0  0  0  0  0  0
   14.5705  -14.7332   18.4955 S   0  0  0  0  0  0  0  0  0  0  0  0
   11.6894  -15.8827   19.3015 C   0  0  0  0  0  0  0  0  0  0  0  0
   11.5021  -15.0070   20.1815 O   0  0  0  0  0  0  0  0  0  0  0  0
   11.6511  -17.2814   19.5217 N   0  0  0  0  0  0  0  0  0  0  0  0
   12.5368  -17.8101   20.5805 C   0  0  1  0  0  0  0  0  0  0  0  0
   13.9179  -17.7073   20.0872 C   0  0  0  0  0  0  0  0  0  0  0  0
   15.0197  -18.1986   20.9568 C   0  0  0  0  0  0  0  0  0  0  0  0
   16.3680  -18.1221   20.3618 C   0  0  0  0  0  0  0  0  0  0  0  0
   16.9442  -19.1382   19.9334 O   0  0  0  0  0  0  0  0  0  0  0  0
   12.1828  -17.1591   21.8263 C   0  0  0  0  0  0  0  0  0  0  0  0
   12.7294  -16.0329   22.0939 O   0  0  0  0  0  0  0  0  0  0  0  0
   16.9985  -16.8981   20.2808 O   0  0  0  0  0  0  0  0  0  0  0  0
    9.5429  -17.1402   24.3993 C   0  0  0  0  0  0  0  0  0  0  0  0
   10.9713  -16.8366   24.0098 C   0  0  2  0  0  0  0  0  0  0  0  0
   11.2825  -17.6150   22.8203 N   0  0  0  0  0  0  0  0  0  0  0  0
   11.8550  -17.3451   25.1006 C   0  0  0  0  0  0  0  0  0  0  0  0
   11.9379  -16.6413   26.2863 O   0  0  0  0  0  0  0  0  0  0  0  0
   12.5367  -18.3948   24.9939 O   0  0  0  0  0  0  0  0  0  0  0  0
  2  1  1  1
  3  2  1  0
  4  3  1  0
  5  7  1  0
  5  2  1  0
  6  5  2  0
  8  9  1  6
  8  7  1  0
 10  9  1  0
 11 10  1  0
 11 15  1  0
 12 11  2  0
 13  8  1  0
 13 18  1  0
 14 13  2  0
 17 18  1  0
 17 16  1  1
 19 17  1  0
 20 19  1  0
 21 19  2  0
M  END
$$$$
