CEA.pdb
     RDKit          3D

 21 20  0  0  1  0  0  0  0  0999 V2000
    7.3794  -15.6760   19.3646 N   0  0  0  0  0  0  0  0  0  0  0  0
    8.0942  -14.8831   20.3186 C   0  0  1  0  0  0  0  0  0  0  0  0
    7.6650  -13.4221   20.2952 C   0  0  0  0  0  0  0  0  0  0  0  0
    8.5495  -12.4720   21.5454 S   0  0  0  0  0  0  0  0  0  0  0  0
    7.8885  -15.3728   21.7207 C   0  0  0  0  0  0  0  0  0  0  0  0
    6.7038  -15.4791   22.1226 O   0  0  0  0  0  0  0  0  0  0  0  0
    9.0401  -15.6785   22.4866 N   0  0  0  0  0  0  0  0  0  0  0  0
    8.8100  -16.1825   23.8570 C   0  0  1  0  0  0  0  0  0  0  0  0
    9.3983  -17.5277   23.9329 C   0  0  0  0  0  0  0  0  0  0  0  0
   10.8795  -17.6567   23.8987 C   0  0  0  0  0  0  0  0  0  0  0  0
   11.3900  -19.0370   24.0069 C   0  0  0  0  0  0  0  0  0  0  0  0
   11.3090  -19.8328   23.0540 O   0  0  0  0  0  0  0  0  0  0  0  0
    9.2546  -15.1648   24.7886 C   0  0  0  0  0  0  0  0  0  0  0  0
   10.3611  -14.5685   24.5461 O   0  0  0  0  0  0  0  0  0  0  0  0
   11.9676  -19.4492   25.1897 O   0  0  0  0  0  0  0  0  0  0  0  0
    7.9990  -12.8477   27.3296 C   0  0  0  0  0  0  0  0  0  0  0  0
    9.1548  -13.6750   26.8157 C   0  0  2  0  0  0  0  0  0  0  0  0
    8.6080  -14.7251   25.9696 N   0  0  0  0  0  0  0  0  0  0  0  0
    9.7835  -14.3512   27.9892 C   0  0  0  0  0  0  0  0  0  0  0  0
    9.7819  -15.7311   28.0546 O   0  0  0  0  0  0  0  0  0  0  0  0
   10.3214  -13.7209   28.9333 O   0  0  0  0  0  0  0  0  0  0  0  0
  2  1  1  6
  3  2  1  0
  4  3  1  0
  5  7  1  0
  5  2  1  0
  6  5  2  0
  8  9  1  1
  8  7  1  0
 10  9  1  0
 11 10  1  0
 11 15  1  0
 12 11  2  0
 13  8  1  0
 13 18  1  0
 14 13  2  0
 17 18  1  0
 17 16  1  1
 19 17  1  0
 20 19  1  0
 21 19  2  0
M  END
$$$$
