CEA.pdb
     RDKit          3D

 21 20  0  0  1  0  0  0  0  0999 V2000
    1.6564  -21.3227   21.8367 N   0  0  0  0  0  0  0  0  0  0  0  0
    2.2935  -20.1105   22.2545 C   0  0  1  0  0  0  0  0  0  0  0  0
    1.6226  -19.4943   23.4749 C   0  0  0  0  0  0  0  0  0  0  0  0
   -0.0990  -19.0904   23.1268 S   0  0  0  0  0  0  0  0  0  0  0  0
    3.7323  -20.3293   22.6150 C   0  0  0  0  0  0  0  0  0  0  0  0
    4.0247  -21.4158   23.1719 O   0  0  0  0  0  0  0  0  0  0  0  0
    4.6530  -19.2991   22.3028 N   0  0  0  0  0  0  0  0  0  0  0  0
    6.0817  -19.5918   22.5438 C   0  0  1  0  0  0  0  0  0  0  0  0
    6.8118  -19.2486   21.3147 C   0  0  0  0  0  0  0  0  0  0  0  0
    8.2782  -19.4924   21.2698 C   0  0  0  0  0  0  0  0  0  0  0  0
    8.9258  -19.1764   19.9820 C   0  0  0  0  0  0  0  0  0  0  0  0
    8.9116  -19.9842   19.0358 O   0  0  0  0  0  0  0  0  0  0  0  0
    6.4638  -18.9595   23.7909 C   0  0  0  0  0  0  0  0  0  0  0  0
    6.1397  -17.7338   23.9688 O   0  0  0  0  0  0  0  0  0  0  0  0
    9.5583  -17.9604   19.8283 O   0  0  0  0  0  0  0  0  0  0  0  0
    6.9489  -19.4010   27.2595 C   0  0  0  0  0  0  0  0  0  0  0  0
    7.5752  -18.7619   26.0414 C   0  0  2  0  0  0  0  0  0  0  0  0
    7.1695  -19.5339   24.8764 N   0  0  0  0  0  0  0  0  0  0  0  0
    9.0558  -18.9121   26.1631 C   0  0  0  0  0  0  0  0  0  0  0  0
    9.7128  -18.3006   27.2131 O   0  0  0  0  0  0  0  0  0  0  0  0
    9.7443  -19.5754   25.3482 O   0  0  0  0  0  0  0  0  0  0  0  0
  2  1  1  1
  3  2  1  0
  4  3  1  0
  5  7  1  0
  5  2  1  0
  6  5  2  0
  8  9  1  6
  8  7  1  0
 10  9  1  0
 11 10  1  0
 11 15  1  0
 12 11  2  0
 13  8  1  0
 13 18  1  0
 14 13  2  0
 17 18  1  0
 17 16  1  1
 19 17  1  0
 20 19  1  0
 21 19  2  0
M  END
$$$$
