CEA.pdb
     RDKit          3D

 21 20  0  0  1  0  0  0  0  0999 V2000
    7.1965  -15.7285   20.0775 N   0  0  0  0  0  0  0  0  0  0  0  0
    7.8873  -14.9247   21.0401 C   0  0  1  0  0  0  0  0  0  0  0  0
    7.1422  -13.6356   21.3600 C   0  0  0  0  0  0  0  0  0  0  0  0
    7.9682  -12.7258   22.6784 S   0  0  0  0  0  0  0  0  0  0  0  0
    8.0796  -15.6479   22.3393 C   0  0  0  0  0  0  0  0  0  0  0  0
    7.0560  -16.1284   22.8848 O   0  0  0  0  0  0  0  0  0  0  0  0
    9.3960  -15.7362   22.8548 N   0  0  0  0  0  0  0  0  0  0  0  0
    9.5641  -16.4847   24.1183 C   0  0  1  0  0  0  0  0  0  0  0  0
   10.4293  -17.6382   23.8316 C   0  0  0  0  0  0  0  0  0  0  0  0
   11.0445  -17.7448   22.4818 C   0  0  0  0  0  0  0  0  0  0  0  0
   12.2913  -18.5320   22.4229 C   0  0  0  0  0  0  0  0  0  0  0  0
   12.2738  -19.7751   22.4701 O   0  0  0  0  0  0  0  0  0  0  0  0
    9.9615  -15.5434   25.1465 C   0  0  0  0  0  0  0  0  0  0  0  0
   11.0120  -14.8399   24.9454 O   0  0  0  0  0  0  0  0  0  0  0  0
   13.4979  -17.8728   22.3134 O   0  0  0  0  0  0  0  0  0  0  0  0
    8.7815  -13.4406   27.8139 C   0  0  0  0  0  0  0  0  0  0  0  0
    9.8802  -14.3834   27.3796 C   0  0  2  0  0  0  0  0  0  0  0  0
    9.3227  -15.2870   26.3844 N   0  0  0  0  0  0  0  0  0  0  0  0
   10.2513  -15.2191   28.5600 C   0  0  0  0  0  0  0  0  0  0  0  0
   10.8783  -14.6249   29.6380 O   0  0  0  0  0  0  0  0  0  0  0  0
   10.0195  -16.4520   28.6240 O   0  0  0  0  0  0  0  0  0  0  0  0
  2  1  1  6
  3  2  1  0
  4  3  1  0
  5  7  1  0
  5  2  1  0
  6  5  2  0
  8  9  1  6
  8  7  1  0
 10  9  1  0
 11 10  1  0
 11 15  1  0
 12 11  2  0
 13  8  1  0
 13 18  1  0
 14 13  2  0
 17 18  1  0
 17 16  1  1
 19 17  1  0
 20 19  1  0
 21 19  2  0
M  END
$$$$
