CEA.pdb
     RDKit          3D

 21 20  0  0  1  0  0  0  0  0999 V2000
    7.9457  -15.8364   19.9353 N   0  0  0  0  0  0  0  0  0  0  0  0
    8.2907  -15.0480   21.0795 C   0  0  1  0  0  0  0  0  0  0  0  0
    7.1978  -14.0537   21.4487 C   0  0  0  0  0  0  0  0  0  0  0  0
    7.5833  -13.2212   23.0000 S   0  0  0  0  0  0  0  0  0  0  0  0
    8.5327  -15.8959   22.2920 C   0  0  0  0  0  0  0  0  0  0  0  0
    7.6520  -16.7414   22.5851 O   0  0  0  0  0  0  0  0  0  0  0  0
    9.7316  -15.6828   23.0156 N   0  0  0  0  0  0  0  0  0  0  0  0
    9.9528  -16.5406   24.1989 C   0  0  1  0  0  0  0  0  0  0  0  0
   10.8688  -17.6169   23.7939 C   0  0  0  0  0  0  0  0  0  0  0  0
   12.1319  -17.2493   23.1004 C   0  0  0  0  0  0  0  0  0  0  0  0
   12.9789  -18.3886   22.6975 C   0  0  0  0  0  0  0  0  0  0  0  0
   13.3031  -18.5648   21.5094 O   0  0  0  0  0  0  0  0  0  0  0  0
   10.3183  -15.6844   25.3101 C   0  0  0  0  0  0  0  0  0  0  0  0
   11.3368  -14.9211   25.1726 O   0  0  0  0  0  0  0  0  0  0  0  0
   13.4176  -19.2735   23.6603 O   0  0  0  0  0  0  0  0  0  0  0  0
    8.9794  -13.8268   28.0544 C   0  0  0  0  0  0  0  0  0  0  0  0
   10.1510  -14.6715   27.6090 C   0  0  2  0  0  0  0  0  0  0  0  0
    9.6787  -15.5732   26.5689 N   0  0  0  0  0  0  0  0  0  0  0  0
   10.5590  -15.5238   28.7651 C   0  0  0  0  0  0  0  0  0  0  0  0
   11.1395  -14.9311   29.8696 O   0  0  0  0  0  0  0  0  0  0  0  0
   10.3992  -16.7696   28.7852 O   0  0  0  0  0  0  0  0  0  0  0  0
  2  1  1  6
  3  2  1  0
  4  3  1  0
  5  7  1  0
  5  2  1  0
  6  5  2  0
  8  9  1  6
  8  7  1  0
 10  9  1  0
 11 10  1  0
 11 15  1  0
 12 11  2  0
 13  8  1  0
 13 18  1  0
 14 13  2  0
 17 18  1  0
 17 16  1  1
 19 17  1  0
 20 19  1  0
 21 19  2  0
M  END
$$$$
