CEA.pdb
     RDKit          3D

 21 20  0  0  1  0  0  0  0  0999 V2000
    8.2614  -14.2071   16.8651 N   0  0  0  0  0  0  0  0  0  0  0  0
    9.2412  -14.0911   17.9026 C   0  0  1  0  0  0  0  0  0  0  0  0
    9.1700  -12.7493   18.6193 C   0  0  0  0  0  0  0  0  0  0  0  0
    7.6030  -12.5685   19.4911 S   0  0  0  0  0  0  0  0  0  0  0  0
    9.0765  -15.1511   18.9499 C   0  0  0  0  0  0  0  0  0  0  0  0
    7.9521  -15.7034   19.0345 O   0  0  0  0  0  0  0  0  0  0  0  0
   10.1958  -15.4514   19.7643 N   0  0  0  0  0  0  0  0  0  0  0  0
   10.0424  -16.5735   20.7142 C   0  0  1  0  0  0  0  0  0  0  0  0
   11.0417  -17.5903   20.3552 C   0  0  0  0  0  0  0  0  0  0  0  0
   12.4278  -17.1456   20.0509 C   0  0  0  0  0  0  0  0  0  0  0  0
   13.3739  -18.2287   19.7201 C   0  0  0  0  0  0  0  0  0  0  0  0
   14.6010  -18.0813   19.8629 O   0  0  0  0  0  0  0  0  0  0  0  0
   10.0437  -16.0266   22.0566 C   0  0  0  0  0  0  0  0  0  0  0  0
   10.9742  -15.2058   22.3717 O   0  0  0  0  0  0  0  0  0  0  0  0
   12.8841  -19.4268   19.2435 O   0  0  0  0  0  0  0  0  0  0  0  0
    7.7580  -15.4472   24.8848 C   0  0  0  0  0  0  0  0  0  0  0  0
    9.1751  -15.5902   24.3792 C   0  0  2  0  0  0  0  0  0  0  0  0
    9.1231  -16.2850   23.1016 N   0  0  0  0  0  0  0  0  0  0  0  0
    9.9048  -16.4846   25.3263 C   0  0  0  0  0  0  0  0  0  0  0  0
   10.2903  -15.9932   26.5584 O   0  0  0  0  0  0  0  0  0  0  0  0
   10.1903  -17.6777   25.0564 O   0  0  0  0  0  0  0  0  0  0  0  0
  2  1  1  6
  3  2  1  0
  4  3  1  0
  5  7  1  0
  5  2  1  0
  6  5  2  0
  8  9  1  1
  8  7  1  0
 10  9  1  0
 11 10  1  0
 11 15  1  0
 12 11  2  0
 13  8  1  0
 13 18  1  0
 14 13  2  0
 17 18  1  0
 17 16  1  1
 19 17  1  0
 20 19  1  0
 21 19  2  0
M  END
$$$$
