CEA.pdb
     RDKit          3D

 21 20  0  0  1  0  0  0  0  0999 V2000
    5.0217  -13.1410   26.0707 N   0  0  0  0  0  0  0  0  0  0  0  0
    6.3811  -13.0905   25.6245 C   0  0  1  0  0  0  0  0  0  0  0  0
    7.3018  -12.4349   26.6452 C   0  0  0  0  0  0  0  0  0  0  0  0
    6.8556  -10.7069   26.8971 S   0  0  0  0  0  0  0  0  0  0  0  0
    6.9344  -14.4581   25.3574 C   0  0  0  0  0  0  0  0  0  0  0  0
    6.3355  -15.4305   25.8789 O   0  0  0  0  0  0  0  0  0  0  0  0
    8.0871  -14.5535   24.5398 N   0  0  0  0  0  0  0  0  0  0  0  0
    8.5486  -15.9164   24.2015 C   0  0  1  0  0  0  0  0  0  0  0  0
    9.4034  -15.8058   23.0104 C   0  0  0  0  0  0  0  0  0  0  0  0
   10.1390  -17.0139   22.5511 C   0  0  0  0  0  0  0  0  0  0  0  0
   10.8274  -16.8715   21.2536 C   0  0  0  0  0  0  0  0  0  0  0  0
   10.2549  -16.3694   20.2697 O   0  0  0  0  0  0  0  0  0  0  0  0
    9.0900  -16.5170   25.4046 C   0  0  0  0  0  0  0  0  0  0  0  0
    9.8485  -15.8008   26.1465 O   0  0  0  0  0  0  0  0  0  0  0  0
   12.1313  -17.3049   21.1333 O   0  0  0  0  0  0  0  0  0  0  0  0
    8.6459  -19.4915   27.6011 C   0  0  0  0  0  0  0  0  0  0  0  0
    9.4597  -18.3050   27.1382 C   0  0  2  0  0  0  0  0  0  0  0  0
    8.8851  -17.8327   25.8875 N   0  0  0  0  0  0  0  0  0  0  0  0
   10.8343  -18.7953   26.8226 C   0  0  0  0  0  0  0  0  0  0  0  0
   11.6393  -19.2550   27.8467 O   0  0  0  0  0  0  0  0  0  0  0  0
   11.3029  -18.8114   25.6572 O   0  0  0  0  0  0  0  0  0  0  0  0
  2  1  1  1
  3  2  1  0
  4  3  1  0
  5  7  1  0
  5  2  1  0
  6  5  2  0
  8  9  1  6
  8  7  1  0
 10  9  1  0
 11 10  1  0
 11 15  1  0
 12 11  2  0
 13  8  1  0
 13 18  1  0
 14 13  2  0
 17 18  1  0
 17 16  1  6
 19 17  1  0
 20 19  1  0
 21 19  2  0
M  END
$$$$
