CEA.pdb
     RDKit          3D

 21 20  0  0  1  0  0  0  0  0999 V2000
    7.8580  -14.4885   17.5320 N   0  0  0  0  0  0  0  0  0  0  0  0
    8.7997  -14.2062   18.5728 C   0  0  1  0  0  0  0  0  0  0  0  0
    8.3697  -13.0303   19.4397 C   0  0  0  0  0  0  0  0  0  0  0  0
    8.5714  -11.4724   18.5560 S   0  0  0  0  0  0  0  0  0  0  0  0
    8.9870  -15.3761   19.4914 C   0  0  0  0  0  0  0  0  0  0  0  0
    7.9746  -16.0743   19.7441 O   0  0  0  0  0  0  0  0  0  0  0  0
   10.2865  -15.6080   20.0053 N   0  0  0  0  0  0  0  0  0  0  0  0
   10.4389  -16.7501   20.9312 C   0  0  1  0  0  0  0  0  0  0  0  0
   11.6232  -17.5073   20.5005 C   0  0  0  0  0  0  0  0  0  0  0  0
   12.0096  -18.7184   21.2722 C   0  0  0  0  0  0  0  0  0  0  0  0
   13.2043  -19.4249   20.7711 C   0  0  0  0  0  0  0  0  0  0  0  0
   14.3462  -18.9574   20.9308 O   0  0  0  0  0  0  0  0  0  0  0  0
   10.3837  -16.2382   22.2862 C   0  0  0  0  0  0  0  0  0  0  0  0
   11.2547  -15.3681   22.6373 O   0  0  0  0  0  0  0  0  0  0  0  0
   13.0478  -20.6270   20.1131 O   0  0  0  0  0  0  0  0  0  0  0  0
    8.0884  -16.0644   25.2015 C   0  0  0  0  0  0  0  0  0  0  0  0
    9.4766  -15.9430   24.6162 C   0  0  2  0  0  0  0  0  0  0  0  0
    9.4647  -16.5805   23.3082 N   0  0  0  0  0  0  0  0  0  0  0  0
   10.4008  -16.7408   25.4757 C   0  0  0  0  0  0  0  0  0  0  0  0
   10.7428  -16.2624   26.7257 O   0  0  0  0  0  0  0  0  0  0  0  0
   10.8902  -17.8402   25.1155 O   0  0  0  0  0  0  0  0  0  0  0  0
  2  1  1  6
  3  2  1  0
  4  3  1  0
  5  7  1  0
  5  2  1  0
  6  5  2  0
  8  9  1  6
  8  7  1  0
 10  9  1  0
 11 10  1  0
 11 15  1  0
 12 11  2  0
 13  8  1  0
 13 18  1  0
 14 13  2  0
 17 18  1  0
 17 16  1  1
 19 17  1  0
 20 19  1  0
 21 19  2  0
M  END
$$$$
