CEA.pdb
     RDKit          3D

 21 20  0  0  1  0  0  0  0  0999 V2000
    9.8909  -13.0616   18.7620 N   0  0  0  0  0  0  0  0  0  0  0  0
    8.7607  -13.7863   19.2593 C   0  0  1  0  0  0  0  0  0  0  0  0
    7.8115  -14.2133   18.1475 C   0  0  0  0  0  0  0  0  0  0  0  0
    7.1508  -12.7785   17.2798 S   0  0  0  0  0  0  0  0  0  0  0  0
    9.1695  -15.0340   19.9831 C   0  0  0  0  0  0  0  0  0  0  0  0
    8.2519  -15.7957   20.3755 O   0  0  0  0  0  0  0  0  0  0  0  0
   10.5548  -15.2620   20.1709 N   0  0  0  0  0  0  0  0  0  0  0  0
   10.9398  -16.5700   20.7418 C   0  0  1  0  0  0  0  0  0  0  0  0
   12.0245  -17.1088   19.9085 C   0  0  0  0  0  0  0  0  0  0  0  0
   12.6006  -18.4330   20.2640 C   0  0  0  0  0  0  0  0  0  0  0  0
   13.7179  -18.8790   19.4094 C   0  0  0  0  0  0  0  0  0  0  0  0
   13.6382  -18.8396   18.1684 O   0  0  0  0  0  0  0  0  0  0  0  0
   11.1651  -16.3893   22.1623 C   0  0  0  0  0  0  0  0  0  0  0  0
   12.0460  -15.5357   22.5286 O   0  0  0  0  0  0  0  0  0  0  0  0
   14.8716  -19.3482   20.0019 O   0  0  0  0  0  0  0  0  0  0  0  0
    9.5976  -16.7973   25.4339 C   0  0  0  0  0  0  0  0  0  0  0  0
   10.8756  -16.8138   24.6270 C   0  0  2  0  0  0  0  0  0  0  0  0
   10.5197  -17.0503   23.2359 N   0  0  0  0  0  0  0  0  0  0  0  0
   11.6764  -17.9925   25.0730 C   0  0  0  0  0  0  0  0  0  0  0  0
   12.2577  -17.9792   26.3261 O   0  0  0  0  0  0  0  0  0  0  0  0
   11.8512  -19.0098   24.3572 O   0  0  0  0  0  0  0  0  0  0  0  0
  2  1  1  6
  3  2  1  0
  4  3  1  0
  5  7  1  0
  5  2  1  0
  6  5  2  0
  8  9  1  6
  8  7  1  0
 10  9  1  0
 11 10  1  0
 11 15  1  0
 12 11  2  0
 13  8  1  0
 13 18  1  0
 14 13  2  0
 17 18  1  0
 17 16  1  1
 19 17  1  0
 20 19  1  0
 21 19  2  0
M  END
$$$$
