CEA.pdb
     RDKit          3D

 21 20  0  0  1  0  0  0  0  0999 V2000
    7.1536  -15.4963   19.2493 N   0  0  0  0  0  0  0  0  0  0  0  0
    8.0020  -14.7860   20.1578 C   0  0  1  0  0  0  0  0  0  0  0  0
    7.8962  -13.2762   19.9891 C   0  0  0  0  0  0  0  0  0  0  0  0
    8.9128  -12.7102   18.6128 S   0  0  0  0  0  0  0  0  0  0  0  0
    7.6677  -15.0868   21.5880 C   0  0  0  0  0  0  0  0  0  0  0  0
    6.4511  -15.1683   21.8873 O   0  0  0  0  0  0  0  0  0  0  0  0
    8.7435  -15.2563   22.4937 N   0  0  0  0  0  0  0  0  0  0  0  0
    8.3899  -15.6212   23.8818 C   0  0  1  0  0  0  0  0  0  0  0  0
    9.3391  -16.6558   24.3176 C   0  0  0  0  0  0  0  0  0  0  0  0
    9.3290  -17.0710   25.7455 C   0  0  0  0  0  0  0  0  0  0  0  0
   10.3880  -18.0253   26.1271 C   0  0  0  0  0  0  0  0  0  0  0  0
   11.3144  -18.3090   25.3466 O   0  0  0  0  0  0  0  0  0  0  0  0
    8.2780  -14.3978   24.6513 C   0  0  0  0  0  0  0  0  0  0  0  0
    9.2694  -13.5880   24.6425 O   0  0  0  0  0  0  0  0  0  0  0  0
   10.3464  -18.6121   27.3747 O   0  0  0  0  0  0  0  0  0  0  0  0
    5.7506  -12.3403   26.4686 C   0  0  0  0  0  0  0  0  0  0  0  0
    7.1847  -12.6896   26.1432 C   0  0  2  0  0  0  0  0  0  0  0  0
    7.1829  -13.9618   25.4367 N   0  0  0  0  0  0  0  0  0  0  0  0
    7.8990  -12.9154   27.4349 C   0  0  0  0  0  0  0  0  0  0  0  0
    8.3214  -14.1900   27.7594 O   0  0  0  0  0  0  0  0  0  0  0  0
    8.1388  -11.9929   28.2530 O   0  0  0  0  0  0  0  0  0  0  0  0
  2  1  1  6
  3  2  1  0
  4  3  1  0
  5  7  1  0
  5  2  1  0
  6  5  2  0
  8  9  1  1
  8  7  1  0
 10  9  1  0
 11 10  1  0
 11 15  1  0
 12 11  2  0
 13  8  1  0
 13 18  1  0
 14 13  2  0
 17 18  1  0
 17 16  1  1
 19 17  1  0
 20 19  1  0
 21 19  2  0
M  END
$$$$
