IPE.pdb
     RDKit          3D

 25 25  0  0  1  0  0  0  0  0999 V2000
   18.5196  -12.6849  -20.6037 C   0  0  0  0  0  0  0  0  0  0  0  0
   19.5437  -13.1086  -19.5513 C   0  0  0  0  0  0  0  0  0  0  0  0
   19.7801  -12.0130  -18.5846 C   0  0  2  0  0  0  0  0  0  0  0  0
   20.7265  -10.9703  -19.1407 C   0  0  0  0  0  0  0  0  0  0  0  0
   20.1530  -12.4829  -17.2271 C   0  0  2  0  0  0  0  0  0  0  0  0
   19.2236  -13.5015  -16.7421 N   0  0  0  0  0  0  0  0  0  0  0  0
   20.3333  -11.4800  -16.1863 C   0  0  0  0  0  0  0  0  0  0  0  0
   19.3483  -10.8322  -15.6861 O   0  0  0  0  0  0  0  0  0  0  0  0
   21.6159  -11.1520  -15.6534 N   0  0  0  0  0  0  0  0  0  0  0  0
   22.8323  -11.7798  -16.1971 C   0  0  0  0  0  0  0  0  0  0  0  0
   23.9904  -11.2401  -15.4075 C   0  0  0  0  0  0  0  0  0  0  0  0
   23.3356  -10.8155  -14.1345 C   0  0  0  0  0  0  0  0  0  0  0  0
   22.0259  -10.2430  -14.6341 C   0  0  1  0  0  0  0  0  0  0  0  0
   22.1990   -8.8561  -15.1400 C   0  0  0  0  0  0  0  0  0  0  0  0
   22.7101   -8.7238  -16.2780 O   0  0  0  0  0  0  0  0  0  0  0  0
   21.8271   -7.7056  -14.4237 N   0  0  0  0  0  0  0  0  0  0  0  0
   21.9393   -6.3626  -15.0128 C   0  0  1  0  0  0  0  0  0  0  0  0
   20.6413   -6.0321  -15.6698 C   0  0  0  0  0  0  0  0  0  0  0  0
   19.4349   -6.1035  -14.8017 C   0  0  0  0  0  0  0  0  0  0  0  0
   18.2535   -5.6476  -15.5667 C   0  0  0  0  0  0  0  0  0  0  0  0
   17.1100   -5.7512  -15.0703 O   0  0  0  0  0  0  0  0  0  0  0  0
   22.3605   -5.4097  -13.9698 C   0  0  0  0  0  0  0  0  0  0  0  0
   22.7998   -4.1298  -14.2821 O   0  0  0  0  0  0  0  0  0  0  0  0
   18.4028   -5.1070  -16.8282 O   0  0  0  0  0  0  0  0  0  0  0  0
   22.3200   -5.7690  -12.7691 O   0  0  0  0  0  0  0  0  0  0  0  0
  2  1  1  0
  2  3  1  0
  3  5  1  0
  3  4  1  6
  5  6  1  1
  7  5  1  0
  7  8  2  0
  9 13  1  0
  9  7  1  0
 10 11  1  0
 10  9  1  0
 11 12  1  0
 13 12  1  0
 13 14  1  6
 15 14  2  0
 16 14  1  0
 17 16  1  0
 17 18  1  1
 19 18  1  0
 20 19  1  0
 21 20  2  0
 22 17  1  0
 22 23  1  0
 24 20  1  0
 25 22  2  0
M  END
$$$$
