IPE.pdb
     RDKit          3D

 25 25  0  0  1  0  0  0  0  0999 V2000
   18.7661  -11.6529  -20.8110 C   0  0  0  0  0  0  0  0  0  0  0  0
   19.5124  -12.3332  -19.6639 C   0  0  0  0  0  0  0  0  0  0  0  0
   19.7580  -11.3754  -18.5624 C   0  0  2  0  0  0  0  0  0  0  0  0
   20.7557  -10.3084  -18.9604 C   0  0  0  0  0  0  0  0  0  0  0  0
   20.0745  -12.0236  -17.2653 C   0  0  2  0  0  0  0  0  0  0  0  0
   19.1182  -13.0838  -16.9523 N   0  0  0  0  0  0  0  0  0  0  0  0
   20.2237  -11.1677  -16.0962 C   0  0  0  0  0  0  0  0  0  0  0  0
   19.2248  -10.5845  -15.5465 O   0  0  0  0  0  0  0  0  0  0  0  0
   21.4894  -10.9214  -15.4845 N   0  0  0  0  0  0  0  0  0  0  0  0
   22.7009  -11.5975  -15.9787 C   0  0  0  0  0  0  0  0  0  0  0  0
   23.8387  -11.1402  -15.1114 C   0  0  0  0  0  0  0  0  0  0  0  0
   23.1358  -10.7155  -13.8644 C   0  0  0  0  0  0  0  0  0  0  0  0
   21.8870  -10.0623  -14.4181 C   0  0  1  0  0  0  0  0  0  0  0  0
   22.1586   -8.6735  -14.8729 C   0  0  0  0  0  0  0  0  0  0  0  0
   22.3270   -8.4992  -16.1039 O   0  0  0  0  0  0  0  0  0  0  0  0
   22.2353   -7.5650  -14.0125 N   0  0  0  0  0  0  0  0  0  0  0  0
   21.9495   -6.2021  -14.4860 C   0  0  1  0  0  0  0  0  0  0  0  0
   20.5680   -6.1844  -15.0486 C   0  0  0  0  0  0  0  0  0  0  0  0
   20.4428   -5.7133  -16.4544 C   0  0  0  0  0  0  0  0  0  0  0  0
   19.0237   -5.7763  -16.8676 C   0  0  0  0  0  0  0  0  0  0  0  0
   18.1234   -5.8407  -16.0016 O   0  0  0  0  0  0  0  0  0  0  0  0
   22.1770   -5.2490  -13.3846 C   0  0  0  0  0  0  0  0  0  0  0  0
   22.0006   -5.6110  -12.0554 O   0  0  0  0  0  0  0  0  0  0  0  0
   18.6833   -5.7646  -18.2055 O   0  0  0  0  0  0  0  0  0  0  0  0
   22.5390   -4.0805  -13.6598 O   0  0  0  0  0  0  0  0  0  0  0  0
  2  1  1  0
  2  3  1  0
  3  5  1  0
  3  4  1  6
  5  6  1  1
  7  5  1  0
  7  8  2  0
  9 13  1  0
  9  7  1  0
 10 11  1  0
 10  9  1  0
 11 12  1  0
 13 12  1  0
 13 14  1  6
 15 14  2  0
 16 14  1  0
 17 16  1  0
 17 18  1  1
 19 18  1  0
 20 19  1  0
 21 20  2  0
 22 17  1  0
 22 23  1  0
 24 20  1  0
 25 22  2  0
M  END
$$$$
