IPE.pdb
     RDKit          3D

 25 25  0  0  1  0  0  0  0  0999 V2000
   12.4969  -19.0730    3.3634 C   0  0  0  0  0  0  0  0  0  0  0  0
   13.8273  -18.9940    2.6153 C   0  0  0  0  0  0  0  0  0  0  0  0
   14.8886  -19.7030    3.3648 C   0  0  2  0  0  0  0  0  0  0  0  0
   15.0775  -19.1237    4.7508 C   0  0  0  0  0  0  0  0  0  0  0  0
   16.1578  -19.8504    2.6098 C   0  0  2  0  0  0  0  0  0  0  0  0
   15.9260  -20.4231    1.2851 N   0  0  0  0  0  0  0  0  0  0  0  0
   17.2485  -20.5745    3.2485 C   0  0  0  0  0  0  0  0  0  0  0  0
   17.2968  -21.8540    3.2699 O   0  0  0  0  0  0  0  0  0  0  0  0
   18.3353  -19.9096    3.8916 N   0  0  0  0  0  0  0  0  0  0  0  0
   18.3876  -18.4385    3.9377 C   0  0  0  0  0  0  0  0  0  0  0  0
   19.6547  -18.0706    4.6553 C   0  0  0  0  0  0  0  0  0  0  0  0
   20.4969  -19.2872    4.4551 C   0  0  0  0  0  0  0  0  0  0  0  0
   19.4770  -20.3978    4.5928 C   0  0  1  0  0  0  0  0  0  0  0  0
   19.1883  -20.6941    6.0204 C   0  0  0  0  0  0  0  0  0  0  0  0
   18.3448  -19.9646    6.5950 O   0  0  0  0  0  0  0  0  0  0  0  0
   19.7994  -21.7298    6.7477 N   0  0  0  0  0  0  0  0  0  0  0  0
   19.4699  -21.9766    8.1598 C   0  0  1  0  0  0  0  0  0  0  0  0
   19.7423  -23.4128    8.4576 C   0  0  0  0  0  0  0  0  0  0  0  0
   18.8593  -24.3983    7.7769 C   0  0  0  0  0  0  0  0  0  0  0  0
   19.2548  -25.7671    8.1751 C   0  0  0  0  0  0  0  0  0  0  0  0
   18.4505  -26.7149    8.0362 O   0  0  0  0  0  0  0  0  0  0  0  0
   20.2115  -21.0224    9.0042 C   0  0  0  0  0  0  0  0  0  0  0  0
   19.8213  -20.7416   10.3071 O   0  0  0  0  0  0  0  0  0  0  0  0
   20.5085  -26.0082    8.7006 O   0  0  0  0  0  0  0  0  0  0  0  0
   21.2211  -20.4506    8.5289 O   0  0  0  0  0  0  0  0  0  0  0  0
  2  1  1  0
  2  3  1  0
  3  5  1  0
  3  4  1  1
  5  6  1  6
  7  5  1  0
  7  8  2  0
  9 13  1  0
  9  7  1  0
 10 11  1  0
 10  9  1  0
 11 12  1  0
 13 12  1  0
 13 14  1  1
 15 14  2  0
 16 14  1  0
 17 16  1  0
 17 18  1  1
 19 18  1  0
 20 19  1  0
 21 20  2  0
 22 17  1  0
 22 23  1  0
 24 20  1  0
 25 22  2  0
M  END
$$$$
