IPE.pdb
     RDKit          3D

 25 25  0  0  1  0  0  0  0  0999 V2000
   26.1246  -20.0621   -8.4451 C   0  0  0  0  0  0  0  0  0  0  0  0
   26.8201  -19.9485   -9.8013 C   0  0  0  0  0  0  0  0  0  0  0  0
   25.8619  -20.2034  -10.9003 C   0  0  2  0  0  0  0  0  0  0  0  0
   25.2139  -21.5658  -10.7734 C   0  0  0  0  0  0  0  0  0  0  0  0
   26.4166  -19.9383  -12.2511 C   0  0  2  0  0  0  0  0  0  0  0  0
   27.1308  -18.6636  -12.2929 N   0  0  0  0  0  0  0  0  0  0  0  0
   25.5043  -20.0011  -13.3849 C   0  0  0  0  0  0  0  0  0  0  0  0
   24.6504  -19.0772  -13.6246 O   0  0  0  0  0  0  0  0  0  0  0  0
   25.4998  -21.0928  -14.3040 N   0  0  0  0  0  0  0  0  0  0  0  0
   26.4587  -22.2002  -14.1516 C   0  0  0  0  0  0  0  0  0  0  0  0
   26.2026  -23.1560  -15.2816 C   0  0  0  0  0  0  0  0  0  0  0  0
   25.5472  -22.2785  -16.2964 C   0  0  0  0  0  0  0  0  0  0  0  0
   24.6761  -21.3954  -15.4281 C   0  0  1  0  0  0  0  0  0  0  0  0
   23.4165  -22.0855  -15.0454 C   0  0  0  0  0  0  0  0  0  0  0  0
   23.5004  -22.9828  -14.1726 O   0  0  0  0  0  0  0  0  0  0  0  0
   22.1590  -21.7914  -15.5996 N   0  0  0  0  0  0  0  0  0  0  0  0
   20.9212  -22.3580  -15.0427 C   0  0  1  0  0  0  0  0  0  0  0  0
   19.8749  -21.2947  -15.0558 C   0  0  0  0  0  0  0  0  0  0  0  0
   18.5200  -21.7080  -14.6004 C   0  0  0  0  0  0  0  0  0  0  0  0
   17.5820  -20.5756  -14.7630 C   0  0  0  0  0  0  0  0  0  0  0  0
   17.5508  -19.6628  -13.9083 O   0  0  0  0  0  0  0  0  0  0  0  0
   20.5673  -23.5779  -15.7911 C   0  0  0  0  0  0  0  0  0  0  0  0
   19.7086  -24.5351  -15.2664 O   0  0  0  0  0  0  0  0  0  0  0  0
   16.7378  -20.5174  -15.8539 O   0  0  0  0  0  0  0  0  0  0  0  0
   21.0575  -23.7522  -16.9319 O   0  0  0  0  0  0  0  0  0  0  0  0
  2  1  1  0
  2  3  1  0
  3  5  1  0
  3  4  1  6
  5  6  1  1
  7  5  1  0
  7  8  2  0
  9 13  1  0
  9  7  1  0
 10 11  1  0
 10  9  1  0
 11 12  1  0
 13 12  1  0
 13 14  1  1
 15 14  2  0
 16 14  1  0
 17 16  1  0
 17 18  1  6
 19 18  1  0
 20 19  1  0
 21 20  2  0
 22 17  1  0
 22 23  1  0
 24 20  1  0
 25 22  2  0
M  END
$$$$
