IPE.pdb
     RDKit          3D

 25 25  0  0  1  0  0  0  0  0999 V2000
   16.7677  -14.9348  -17.3296 C   0  0  0  0  0  0  0  0  0  0  0  0
   17.8282  -14.5796  -18.3711 C   0  0  0  0  0  0  0  0  0  0  0  0
   18.5683  -13.3634  -17.9663 C   0  0  2  0  0  0  0  0  0  0  0  0
   17.6476  -12.1704  -17.8205 C   0  0  0  0  0  0  0  0  0  0  0  0
   19.7648  -13.0860  -18.7994 C   0  0  2  0  0  0  0  0  0  0  0  0
   20.6149  -14.2689  -18.9212 N   0  0  0  0  0  0  0  0  0  0  0  0
   20.5969  -11.9470  -18.4360 C   0  0  0  0  0  0  0  0  0  0  0  0
   21.4383  -11.9976  -17.4719 O   0  0  0  0  0  0  0  0  0  0  0  0
   20.5324  -10.7005  -19.1279 N   0  0  0  0  0  0  0  0  0  0  0  0
   19.6591  -10.5441  -20.3035 C   0  0  0  0  0  0  0  0  0  0  0  0
   19.8445   -9.1385  -20.7993 C   0  0  0  0  0  0  0  0  0  0  0  0
   21.1925   -8.7879  -20.2611 C   0  0  0  0  0  0  0  0  0  0  0  0
   21.1624   -9.4424  -18.8960 C   0  0  1  0  0  0  0  0  0  0  0  0
   20.4270   -8.6069  -17.9110 C   0  0  0  0  0  0  0  0  0  0  0  0
   19.2115   -8.8654  -17.7387 O   0  0  0  0  0  0  0  0  0  0  0  0
   21.0107   -7.5613  -17.1754 N   0  0  0  0  0  0  0  0  0  0  0  0
   20.3197   -6.9456  -16.0322 C   0  0  1  0  0  0  0  0  0  0  0  0
   20.1684   -7.9794  -14.9674 C   0  0  0  0  0  0  0  0  0  0  0  0
   19.5644   -7.5149  -13.6893 C   0  0  0  0  0  0  0  0  0  0  0  0
   19.5136   -8.6427  -12.7333 C   0  0  0  0  0  0  0  0  0  0  0  0
   20.0124   -9.7472  -13.0432 O   0  0  0  0  0  0  0  0  0  0  0  0
   21.0543   -5.7372  -15.6158 C   0  0  0  0  0  0  0  0  0  0  0  0
   20.4789   -4.7784  -14.7922 O   0  0  0  0  0  0  0  0  0  0  0  0
   18.9184   -8.4861  -11.4974 O   0  0  0  0  0  0  0  0  0  0  0  0
   22.2304   -5.5743  -16.0189 O   0  0  0  0  0  0  0  0  0  0  0  0
  2  1  1  0
  2  3  1  0
  3  5  1  0
  3  4  1  6
  5  6  1  1
  7  5  1  0
  7  8  2  0
  9 13  1  0
  9  7  1  0
 10 11  1  0
 10  9  1  0
 11 12  1  0
 13 12  1  0
 13 14  1  1
 15 14  2  0
 16 14  1  0
 17 16  1  0
 17 18  1  1
 19 18  1  0
 20 19  1  0
 21 20  2  0
 22 17  1  0
 22 23  1  0
 24 20  1  0
 25 22  2  0
M  END
$$$$
