IPE.pdb
     RDKit          3D

 25 25  0  0  1  0  0  0  0  0999 V2000
   19.0529  -13.8133  -20.5165 C   0  0  0  0  0  0  0  0  0  0  0  0
   20.0233  -14.2192  -19.4077 C   0  0  0  0  0  0  0  0  0  0  0  0
   20.1763  -13.1243  -18.4235 C   0  0  2  0  0  0  0  0  0  0  0  0
   20.8283  -11.9047  -19.0398 C   0  0  0  0  0  0  0  0  0  0  0  0
   20.8073  -13.5491  -17.1492 C   0  0  2  0  0  0  0  0  0  0  0  0
   20.1833  -14.7623  -16.6243 N   0  0  0  0  0  0  0  0  0  0  0  0
   20.8994  -12.5684  -16.0762 C   0  0  0  0  0  0  0  0  0  0  0  0
   19.8667  -12.1486  -15.4459 O   0  0  0  0  0  0  0  0  0  0  0  0
   22.1432  -12.0101  -15.6544 N   0  0  0  0  0  0  0  0  0  0  0  0
   23.4078  -12.4658  -16.2564 C   0  0  0  0  0  0  0  0  0  0  0  0
   24.5112  -11.7040  -15.5794 C   0  0  0  0  0  0  0  0  0  0  0  0
   23.8800  -11.3172  -14.2827 C   0  0  0  0  0  0  0  0  0  0  0  0
   22.4648  -10.9905  -14.7107 C   0  0  1  0  0  0  0  0  0  0  0  0
   22.3762   -9.6250  -15.2910 C   0  0  0  0  0  0  0  0  0  0  0  0
   22.3622   -9.5369  -16.5424 O   0  0  0  0  0  0  0  0  0  0  0  0
   22.3084   -8.4482  -14.5258 N   0  0  0  0  0  0  0  0  0  0  0  0
   21.7256   -7.2109  -15.0670 C   0  0  1  0  0  0  0  0  0  0  0  0
   20.2808   -7.4587  -15.3437 C   0  0  0  0  0  0  0  0  0  0  0  0
   19.4880   -6.2760  -15.7762 C   0  0  0  0  0  0  0  0  0  0  0  0
   19.4007   -6.2584  -17.2529 C   0  0  0  0  0  0  0  0  0  0  0  0
   19.4492   -7.3312  -17.8943 O   0  0  0  0  0  0  0  0  0  0  0  0
   21.9912   -6.1015  -14.1331 C   0  0  0  0  0  0  0  0  0  0  0  0
   22.0912   -6.3062  -12.7631 O   0  0  0  0  0  0  0  0  0  0  0  0
   19.2658   -5.0638  -17.9316 O   0  0  0  0  0  0  0  0  0  0  0  0
   22.1293   -4.9430  -14.5924 O   0  0  0  0  0  0  0  0  0  0  0  0
  2  1  1  0
  2  3  1  0
  3  5  1  0
  3  4  1  6
  5  6  1  1
  7  5  1  0
  7  8  2  0
  9 13  1  0
  9  7  1  0
 10 11  1  0
 10  9  1  0
 11 12  1  0
 13 12  1  0
 13 14  1  6
 15 14  2  0
 16 14  1  0
 17 16  1  0
 17 18  1  1
 19 18  1  0
 20 19  1  0
 21 20  2  0
 22 17  1  0
 22 23  1  0
 24 20  1  0
 25 22  2  0
M  END
$$$$
