IPE.pdb
     RDKit          3D

 25 25  0  0  1  0  0  0  0  0999 V2000
   20.3780  -14.2225  -18.1862 C   0  0  0  0  0  0  0  0  0  0  0  0
   19.3067  -13.7465  -17.2057 C   0  0  0  0  0  0  0  0  0  0  0  0
   19.4623  -12.3013  -16.9263 C   0  0  2  0  0  0  0  0  0  0  0  0
   20.7369  -12.0130  -16.1618 C   0  0  0  0  0  0  0  0  0  0  0  0
   18.2593  -11.6755  -16.3233 C   0  0  2  0  0  0  0  0  0  0  0  0
   17.0415  -12.0777  -17.0247 N   0  0  0  0  0  0  0  0  0  0  0  0
   18.2525  -10.2274  -16.1665 C   0  0  0  0  0  0  0  0  0  0  0  0
   18.2785   -9.4329  -17.1706 O   0  0  0  0  0  0  0  0  0  0  0  0
   18.2160   -9.5963  -14.8870 N   0  0  0  0  0  0  0  0  0  0  0  0
   18.2074  -10.4053  -13.6562 C   0  0  0  0  0  0  0  0  0  0  0  0
   18.1430   -9.4437  -12.5041 C   0  0  0  0  0  0  0  0  0  0  0  0
   17.5452   -8.2306  -13.1370 C   0  0  0  0  0  0  0  0  0  0  0  0
   18.2157   -8.2254  -14.4946 C   0  0  1  0  0  0  0  0  0  0  0  0
   19.5845   -7.6510  -14.4204 C   0  0  0  0  0  0  0  0  0  0  0  0
   20.4896   -8.3910  -13.9653 O   0  0  0  0  0  0  0  0  0  0  0  0
   19.9128   -6.3460  -14.8258 N   0  0  0  0  0  0  0  0  0  0  0  0
   21.2956   -5.8479  -14.7698 C   0  0  1  0  0  0  0  0  0  0  0  0
   21.4071   -4.6784  -15.6893 C   0  0  0  0  0  0  0  0  0  0  0  0
   20.9608   -3.3706  -15.1373 C   0  0  0  0  0  0  0  0  0  0  0  0
   21.0584   -2.3358  -16.1901 C   0  0  0  0  0  0  0  0  0  0  0  0
   21.5868   -2.6115  -17.2898 O   0  0  0  0  0  0  0  0  0  0  0  0
   21.6516   -5.5635  -13.3677 C   0  0  0  0  0  0  0  0  0  0  0  0
   22.9725   -5.4252  -12.9617 O   0  0  0  0  0  0  0  0  0  0  0  0
   20.5693   -1.0639  -15.9684 O   0  0  0  0  0  0  0  0  0  0  0  0
   20.7337   -5.4446  -12.5218 O   0  0  0  0  0  0  0  0  0  0  0  0
  2  1  1  0
  2  3  1  0
  3  5  1  0
  3  4  1  1
  5  6  1  6
  7  5  1  0
  7  8  2  0
  9 13  1  0
  9  7  1  0
 10 11  1  0
 10  9  1  0
 11 12  1  0
 13 12  1  0
 13 14  1  1
 15 14  2  0
 16 14  1  0
 17 16  1  0
 17 18  1  6
 19 18  1  0
 20 19  1  0
 21 20  2  0
 22 17  1  0
 22 23  1  0
 24 20  1  0
 25 22  2  0
M  END
$$$$
