IPE.pdb
     RDKit          3D

 25 25  0  0  1  0  0  0  0  0999 V2000
   16.4938  -14.1122  -15.0225 C   0  0  0  0  0  0  0  0  0  0  0  0
   17.0922  -13.8939  -16.4118 C   0  0  0  0  0  0  0  0  0  0  0  0
   17.8165  -12.6044  -16.4696 C   0  0  2  0  0  0  0  0  0  0  0  0
   16.8750  -11.4268  -16.3315 C   0  0  0  0  0  0  0  0  0  0  0  0
   18.7399  -12.4880  -17.6256 C   0  0  2  0  0  0  0  0  0  0  0  0
   19.5987  -13.6652  -17.7418 N   0  0  0  0  0  0  0  0  0  0  0  0
   19.5683  -11.2934  -17.7164 C   0  0  0  0  0  0  0  0  0  0  0  0
   20.6661  -11.1743  -17.0678 O   0  0  0  0  0  0  0  0  0  0  0  0
   19.2149  -10.1773  -18.5326 N   0  0  0  0  0  0  0  0  0  0  0  0
   17.9740  -10.1963  -19.3257 C   0  0  0  0  0  0  0  0  0  0  0  0
   17.9181   -8.8970  -20.0772 C   0  0  0  0  0  0  0  0  0  0  0  0
   19.3555   -8.4953  -20.1228 C   0  0  0  0  0  0  0  0  0  0  0  0
   19.8394   -8.9139  -18.7505 C   0  0  1  0  0  0  0  0  0  0  0  0
   19.4742   -7.9093  -17.7178 C   0  0  0  0  0  0  0  0  0  0  0  0
   18.3083   -7.9623  -17.2576 O   0  0  0  0  0  0  0  0  0  0  0  0
   20.3503   -6.9207  -17.2379 N   0  0  0  0  0  0  0  0  0  0  0  0
   19.9753   -6.0345  -16.1255 C   0  0  1  0  0  0  0  0  0  0  0  0
   21.1055   -6.0045  -15.1523 C   0  0  0  0  0  0  0  0  0  0  0  0
   20.9365   -5.0970  -13.9852 C   0  0  0  0  0  0  0  0  0  0  0  0
   22.1480   -5.1576  -13.1383 C   0  0  0  0  0  0  0  0  0  0  0  0
   22.9984   -4.2423  -13.1983 O   0  0  0  0  0  0  0  0  0  0  0  0
   19.5926   -4.7166  -16.6641 C   0  0  0  0  0  0  0  0  0  0  0  0
   18.7978   -3.8344  -15.9437 O   0  0  0  0  0  0  0  0  0  0  0  0
   22.3487   -6.2195  -12.2792 O   0  0  0  0  0  0  0  0  0  0  0  0
   19.9975   -4.3873  -17.8042 O   0  0  0  0  0  0  0  0  0  0  0  0
  2  1  1  0
  2  3  1  0
  3  5  1  0
  3  4  1  6
  5  6  1  1
  7  5  1  0
  7  8  2  0
  9 13  1  0
  9  7  1  0
 10 11  1  0
 10  9  1  0
 11 12  1  0
 13 12  1  0
 13 14  1  1
 15 14  2  0
 16 14  1  0
 17 16  1  0
 17 18  1  1
 19 18  1  0
 20 19  1  0
 21 20  2  0
 22 17  1  0
 22 23  1  0
 24 20  1  0
 25 22  2  0
M  END
$$$$
