IPE.pdb
     RDKit          3D

 25 25  0  0  1  0  0  0  0  0999 V2000
   27.3394  -20.3180   -3.6159 C   0  0  0  0  0  0  0  0  0  0  0  0
   27.9084  -19.5135   -4.7841 C   0  0  0  0  0  0  0  0  0  0  0  0
   27.2514  -19.9020   -6.0523 C   0  0  2  0  0  0  0  0  0  0  0  0
   27.2603  -21.4029   -6.2505 C   0  0  0  0  0  0  0  0  0  0  0  0
   27.7395  -19.1487   -7.2343 C   0  0  2  0  0  0  0  0  0  0  0  0
   27.8091  -17.7145   -6.9603 N   0  0  0  0  0  0  0  0  0  0  0  0
   27.0496  -19.3503   -8.5012 C   0  0  0  0  0  0  0  0  0  0  0  0
   25.9130  -18.8157   -8.7510 O   0  0  0  0  0  0  0  0  0  0  0  0
   27.5917  -20.1543   -9.5483 N   0  0  0  0  0  0  0  0  0  0  0  0
   28.7134  -21.0704   -9.2808 C   0  0  0  0  0  0  0  0  0  0  0  0
   29.0505  -21.7375  -10.5836 C   0  0  0  0  0  0  0  0  0  0  0  0
   28.5185  -20.7653  -11.5843 C   0  0  0  0  0  0  0  0  0  0  0  0
   27.2372  -20.3059  -10.9212 C   0  0  1  0  0  0  0  0  0  0  0  0
   26.1401  -21.2880  -11.1240 C   0  0  0  0  0  0  0  0  0  0  0  0
   25.8949  -22.0728  -10.1764 O   0  0  0  0  0  0  0  0  0  0  0  0
   25.3766  -21.3825  -12.3001 N   0  0  0  0  0  0  0  0  0  0  0  0
   23.9297  -21.6433  -12.2592 C   0  0  1  0  0  0  0  0  0  0  0  0
   23.2710  -20.5062  -11.5529 C   0  0  0  0  0  0  0  0  0  0  0  0
   22.4461  -19.6030  -12.4001 C   0  0  0  0  0  0  0  0  0  0  0  0
   21.0236  -19.9949  -12.2928 C   0  0  0  0  0  0  0  0  0  0  0  0
   20.5366  -20.2793  -11.1763 O   0  0  0  0  0  0  0  0  0  0  0  0
   23.4415  -21.8812  -13.6298 C   0  0  0  0  0  0  0  0  0  0  0  0
   22.3390  -22.6865  -13.8844 O   0  0  0  0  0  0  0  0  0  0  0  0
   20.2262  -20.0496  -13.4185 O   0  0  0  0  0  0  0  0  0  0  0  0
   24.0412  -21.3403  -14.5888 O   0  0  0  0  0  0  0  0  0  0  0  0
  2  1  1  0
  2  3  1  0
  3  5  1  0
  3  4  1  6
  5  6  1  1
  7  5  1  0
  7  8  2  0
  9 13  1  0
  9  7  1  0
 10 11  1  0
 10  9  1  0
 11 12  1  0
 13 12  1  0
 13 14  1  1
 15 14  2  0
 16 14  1  0
 17 16  1  0
 17 18  1  6
 19 18  1  0
 20 19  1  0
 21 20  2  0
 22 17  1  0
 22 23  1  0
 24 20  1  0
 25 22  2  0
M  END
$$$$
