IPE.pdb
     RDKit          3D

 25 25  0  0  1  0  0  0  0  0999 V2000
   14.4604  -11.1632  -18.1270 C   0  0  0  0  0  0  0  0  0  0  0  0
   15.7343  -11.9025  -18.5345 C   0  0  0  0  0  0  0  0  0  0  0  0
   16.9291  -11.2199  -17.9892 C   0  0  2  0  0  0  0  0  0  0  0  0
   17.0451   -9.7999  -18.5015 C   0  0  0  0  0  0  0  0  0  0  0  0
   18.1824  -12.0020  -18.1320 C   0  0  2  0  0  0  0  0  0  0  0  0
   18.0228  -13.3619  -17.6204 N   0  0  0  0  0  0  0  0  0  0  0  0
   19.4046  -11.4343  -17.5792 C   0  0  0  0  0  0  0  0  0  0  0  0
   19.6507  -11.4391  -16.3225 O   0  0  0  0  0  0  0  0  0  0  0  0
   20.4091  -10.8362  -18.3978 N   0  0  0  0  0  0  0  0  0  0  0  0
   20.3037  -10.8885  -19.8659 C   0  0  0  0  0  0  0  0  0  0  0  0
   21.5187  -10.1962  -20.4141 C   0  0  0  0  0  0  0  0  0  0  0  0
   22.4874  -10.3138  -19.2840 C   0  0  0  0  0  0  0  0  0  0  0  0
   21.5908  -10.1030  -18.0822 C   0  0  1  0  0  0  0  0  0  0  0  0
   21.3240   -8.6590  -17.8522 C   0  0  0  0  0  0  0  0  0  0  0  0
   20.3072   -8.1721  -18.4027 O   0  0  0  0  0  0  0  0  0  0  0  0
   22.1361   -7.8249  -17.0648 N   0  0  0  0  0  0  0  0  0  0  0  0
   21.7318   -6.4509  -16.7301 C   0  0  1  0  0  0  0  0  0  0  0  0
   21.9446   -6.2458  -15.2679 C   0  0  0  0  0  0  0  0  0  0  0  0
   21.6851   -4.8722  -14.7580 C   0  0  0  0  0  0  0  0  0  0  0  0
   22.0956   -4.7908  -13.3391 C   0  0  0  0  0  0  0  0  0  0  0  0
   22.6563   -5.7671  -12.7941 O   0  0  0  0  0  0  0  0  0  0  0  0
   22.4616   -5.5068  -17.5959 C   0  0  0  0  0  0  0  0  0  0  0  0
   21.9761   -4.2333  -17.8625 O   0  0  0  0  0  0  0  0  0  0  0  0
   21.8644   -3.6423  -12.6086 O   0  0  0  0  0  0  0  0  0  0  0  0
   23.5497   -5.8678  -18.1037 O   0  0  0  0  0  0  0  0  0  0  0  0
  2  1  1  0
  2  3  1  0
  3  5  1  0
  3  4  1  6
  5  6  1  1
  7  5  1  0
  7  8  2  0
  9 13  1  0
  9  7  1  0
 10 11  1  0
 10  9  1  0
 11 12  1  0
 13 12  1  0
 13 14  1  6
 15 14  2  0
 16 14  1  0
 17 16  1  0
 17 18  1  1
 19 18  1  0
 20 19  1  0
 21 20  2  0
 22 17  1  0
 22 23  1  0
 24 20  1  0
 25 22  2  0
M  END
$$$$
