IPE.pdb
     RDKit          3D

 25 25  0  0  1  0  0  0  0  0999 V2000
   23.7133  -16.8463  -18.8232 C   0  0  0  0  0  0  0  0  0  0  0  0
   24.5999  -16.5219  -17.6214 C   0  0  0  0  0  0  0  0  0  0  0  0
   24.3317  -15.1510  -17.1318 C   0  0  2  0  0  0  0  0  0  0  0  0
   24.4832  -14.1236  -18.2335 C   0  0  0  0  0  0  0  0  0  0  0  0
   25.0731  -14.8018  -15.8945 C   0  0  2  0  0  0  0  0  0  0  0  0
   24.9857  -15.8709  -14.9016 N   0  0  0  0  0  0  0  0  0  0  0  0
   24.7578  -13.5354  -15.2477 C   0  0  0  0  0  0  0  0  0  0  0  0
   23.7478  -13.3990  -14.4721 O   0  0  0  0  0  0  0  0  0  0  0  0
   25.5506  -12.3632  -15.4327 N   0  0  0  0  0  0  0  0  0  0  0  0
   26.7615  -12.4062  -16.2700 C   0  0  0  0  0  0  0  0  0  0  0  0
   27.3643  -11.0310  -16.2341 C   0  0  0  0  0  0  0  0  0  0  0  0
   26.8151  -10.4775  -14.9607 C   0  0  0  0  0  0  0  0  0  0  0  0
   25.4028  -11.0233  -14.9677 C   0  0  1  0  0  0  0  0  0  0  0  0
   24.5123  -10.2107  -15.8372 C   0  0  0  0  0  0  0  0  0  0  0  0
   24.5702  -10.4253  -17.0719 O   0  0  0  0  0  0  0  0  0  0  0  0
   23.6248   -9.2321  -15.3579 N   0  0  0  0  0  0  0  0  0  0  0  0
   22.6794   -8.5467  -16.2523 C   0  0  1  0  0  0  0  0  0  0  0  0
   21.4993   -8.1212  -15.4449 C   0  0  0  0  0  0  0  0  0  0  0  0
   20.4569   -7.3476  -16.1723 C   0  0  0  0  0  0  0  0  0  0  0  0
   19.3839   -6.9643  -15.2287 C   0  0  0  0  0  0  0  0  0  0  0  0
   19.4680   -7.2863  -14.0229 O   0  0  0  0  0  0  0  0  0  0  0  0
   23.3777   -7.4490  -16.9458 C   0  0  0  0  0  0  0  0  0  0  0  0
   22.9060   -6.9209  -18.1405 O   0  0  0  0  0  0  0  0  0  0  0  0
   18.2864   -6.2518  -15.6691 O   0  0  0  0  0  0  0  0  0  0  0  0
   24.4261   -6.9829  -16.4400 O   0  0  0  0  0  0  0  0  0  0  0  0
  2  1  1  0
  2  3  1  0
  3  5  1  0
  3  4  1  6
  5  6  1  1
  7  5  1  0
  7  8  2  0
  9 13  1  0
  9  7  1  0
 10 11  1  0
 10  9  1  0
 11 12  1  0
 13 12  1  0
 13 14  1  6
 15 14  2  0
 16 14  1  0
 17 16  1  0
 17 18  1  1
 19 18  1  0
 20 19  1  0
 21 20  2  0
 22 17  1  0
 22 23  1  0
 24 20  1  0
 25 22  2  0
M  END
$$$$
