IPE.pdb
     RDKit          3D

 25 25  0  0  1  0  0  0  0  0999 V2000
   19.4810  -16.0254  -20.1102 C   0  0  0  0  0  0  0  0  0  0  0  0
   20.3920  -16.1626  -18.8908 C   0  0  0  0  0  0  0  0  0  0  0  0
   20.3666  -14.9242  -18.0804 C   0  0  2  0  0  0  0  0  0  0  0  0
   20.8048  -13.7192  -18.8855 C   0  0  0  0  0  0  0  0  0  0  0  0
   21.0653  -15.0478  -16.7769 C   0  0  2  0  0  0  0  0  0  0  0  0
   20.6523  -16.2549  -16.0635 N   0  0  0  0  0  0  0  0  0  0  0  0
   21.0001  -13.9172  -15.8608 C   0  0  0  0  0  0  0  0  0  0  0  0
   19.9227  -13.5998  -15.2456 O   0  0  0  0  0  0  0  0  0  0  0  0
   22.1291  -13.0886  -15.5862 N   0  0  0  0  0  0  0  0  0  0  0  0
   23.4430  -13.3989  -16.1749 C   0  0  0  0  0  0  0  0  0  0  0  0
   24.4020  -12.3583  -15.6714 C   0  0  0  0  0  0  0  0  0  0  0  0
   23.7376  -11.8958  -14.4167 C   0  0  0  0  0  0  0  0  0  0  0  0
   22.2779  -11.8956  -14.8193 C   0  0  1  0  0  0  0  0  0  0  0  0
   21.9287  -10.6730  -15.5891 C   0  0  0  0  0  0  0  0  0  0  0  0
   22.2047  -10.6714  -16.8130 O   0  0  0  0  0  0  0  0  0  0  0  0
   21.3165   -9.5389  -15.0287 N   0  0  0  0  0  0  0  0  0  0  0  0
   20.8320   -8.4323  -15.8678 C   0  0  1  0  0  0  0  0  0  0  0  0
   19.6304   -7.8409  -15.2107 C   0  0  0  0  0  0  0  0  0  0  0  0
   19.0522   -6.6390  -15.8705 C   0  0  0  0  0  0  0  0  0  0  0  0
   17.8150   -6.2401  -15.1642 C   0  0  0  0  0  0  0  0  0  0  0  0
   17.3836   -6.9361  -14.2186 O   0  0  0  0  0  0  0  0  0  0  0  0
   21.9351   -7.4825  -16.1011 C   0  0  0  0  0  0  0  0  0  0  0  0
   21.9302   -6.6054  -17.1779 O   0  0  0  0  0  0  0  0  0  0  0  0
   17.1301   -5.1022  -15.5410 O   0  0  0  0  0  0  0  0  0  0  0  0
   22.9024   -7.4698  -15.3034 O   0  0  0  0  0  0  0  0  0  0  0  0
  2  1  1  0
  2  3  1  0
  3  5  1  0
  3  4  1  6
  5  6  1  1
  7  5  1  0
  7  8  2  0
  9 13  1  0
  9  7  1  0
 10 11  1  0
 10  9  1  0
 11 12  1  0
 13 12  1  0
 13 14  1  6
 15 14  2  0
 16 14  1  0
 17 16  1  0
 17 18  1  1
 19 18  1  0
 20 19  1  0
 21 20  2  0
 22 17  1  0
 22 23  1  0
 24 20  1  0
 25 22  2  0
M  END
$$$$
