IPE.pdb
     RDKit          3D

 25 25  0  0  1  0  0  0  0  0999 V2000
   23.8100  -19.8123  -16.9599 C   0  0  0  0  0  0  0  0  0  0  0  0
   24.5038  -20.9336  -16.1871 C   0  0  0  0  0  0  0  0  0  0  0  0
   25.5573  -20.3831  -15.3051 C   0  0  2  0  0  0  0  0  0  0  0  0
   26.6160  -19.6413  -16.0932 C   0  0  0  0  0  0  0  0  0  0  0  0
   26.1179  -21.3735  -14.3524 C   0  0  2  0  0  0  0  0  0  0  0  0
   26.8911  -22.4016  -15.0465 N   0  0  0  0  0  0  0  0  0  0  0  0
   25.1987  -22.0233  -13.4280 C   0  0  0  0  0  0  0  0  0  0  0  0
   24.8092  -23.2323  -13.5912 O   0  0  0  0  0  0  0  0  0  0  0  0
   24.6710  -21.3595  -12.2802 N   0  0  0  0  0  0  0  0  0  0  0  0
   25.0989  -19.9899  -11.9480 C   0  0  0  0  0  0  0  0  0  0  0  0
   24.3816  -19.6040  -10.6861 C   0  0  0  0  0  0  0  0  0  0  0  0
   24.0645  -20.9327  -10.0830 C   0  0  0  0  0  0  0  0  0  0  0  0
   23.7072  -21.7519  -11.3052 C   0  0  1  0  0  0  0  0  0  0  0  0
   22.3111  -21.4907  -11.7431 C   0  0  0  0  0  0  0  0  0  0  0  0
   22.1487  -20.6488  -12.6589 O   0  0  0  0  0  0  0  0  0  0  0  0
   21.1833  -22.1256  -11.1953 N   0  0  0  0  0  0  0  0  0  0  0  0
   19.8493  -21.9786  -11.7973 C   0  0  1  0  0  0  0  0  0  0  0  0
   18.9212  -22.9225  -11.1095 C   0  0  0  0  0  0  0  0  0  0  0  0
   18.6082  -24.1789  -11.8427 C   0  0  0  0  0  0  0  0  0  0  0  0
   18.4455  -25.2843  -10.8731 C   0  0  0  0  0  0  0  0  0  0  0  0
   19.2920  -25.4500   -9.9672 O   0  0  0  0  0  0  0  0  0  0  0  0
   19.4433  -20.5627  -11.7354 C   0  0  0  0  0  0  0  0  0  0  0  0
   18.4897  -20.0366  -12.5971 O   0  0  0  0  0  0  0  0  0  0  0  0
   17.3637  -26.1375  -10.9597 O   0  0  0  0  0  0  0  0  0  0  0  0
   19.9764  -19.8166  -10.8803 O   0  0  0  0  0  0  0  0  0  0  0  0
  2  1  1  0
  2  3  1  0
  3  5  1  0
  3  4  1  6
  5  6  1  6
  7  5  1  0
  7  8  2  0
  9 13  1  0
  9  7  1  0
 10 11  1  0
 10  9  1  0
 11 12  1  0
 13 12  1  0
 13 14  1  6
 15 14  2  0
 16 14  1  0
 17 16  1  0
 17 18  1  1
 19 18  1  0
 20 19  1  0
 21 20  2  0
 22 17  1  0
 22 23  1  0
 24 20  1  0
 25 22  2  0
M  END
$$$$
