IPE.pdb
     RDKit          3D

 25 25  0  0  1  0  0  0  0  0999 V2000
   11.9735  -24.7033   -0.5242 C   0  0  0  0  0  0  0  0  0  0  0  0
   12.4067  -23.2457   -0.6768 C   0  0  0  0  0  0  0  0  0  0  0  0
   13.3103  -22.8530    0.4278 C   0  0  2  0  0  0  0  0  0  0  0  0
   12.5778  -22.7786    1.7507 C   0  0  0  0  0  0  0  0  0  0  0  0
   14.1229  -21.6459    0.1357 C   0  0  2  0  0  0  0  0  0  0  0  0
   14.8331  -21.7768   -1.1353 N   0  0  0  0  0  0  0  0  0  0  0  0
   15.0634  -21.1970    1.1533 C   0  0  0  0  0  0  0  0  0  0  0  0
   16.1962  -21.7667    1.3333 O   0  0  0  0  0  0  0  0  0  0  0  0
   14.7883  -20.0944    2.0165 N   0  0  0  0  0  0  0  0  0  0  0  0
   13.5172  -19.3589    1.9052 C   0  0  0  0  0  0  0  0  0  0  0  0
   13.5592  -18.2603    2.9286 C   0  0  0  0  0  0  0  0  0  0  0  0
   15.0263  -18.0791    3.1388 C   0  0  0  0  0  0  0  0  0  0  0  0
   15.5271  -19.5070    3.0855 C   0  0  1  0  0  0  0  0  0  0  0  0
   15.3129  -20.2047    4.3803 C   0  0  0  0  0  0  0  0  0  0  0  0
   14.3237  -20.9724    4.4577 O   0  0  0  0  0  0  0  0  0  0  0  0
   16.1450  -20.0527    5.5026 N   0  0  0  0  0  0  0  0  0  0  0  0
   15.9196  -20.8198    6.7372 C   0  0  1  0  0  0  0  0  0  0  0  0
   16.2588  -22.2473    6.4673 C   0  0  0  0  0  0  0  0  0  0  0  0
   17.7097  -22.5719    6.4058 C   0  0  0  0  0  0  0  0  0  0  0  0
   17.8772  -24.0202    6.1549 C   0  0  0  0  0  0  0  0  0  0  0  0
   17.3710  -24.5403    5.1362 O   0  0  0  0  0  0  0  0  0  0  0  0
   16.6843  -20.2036    7.8367 C   0  0  0  0  0  0  0  0  0  0  0  0
   16.5287  -20.6119    9.1550 O   0  0  0  0  0  0  0  0  0  0  0  0
   18.5901  -24.8055    7.0388 O   0  0  0  0  0  0  0  0  0  0  0  0
   17.4959  -19.2858    7.5701 O   0  0  0  0  0  0  0  0  0  0  0  0
  2  1  1  0
  2  3  1  0
  3  5  1  0
  3  4  1  1
  5  6  1  6
  7  5  1  0
  7  8  2  0
  9 13  1  0
  9  7  1  0
 10 11  1  0
 10  9  1  0
 11 12  1  0
 13 12  1  0
 13 14  1  1
 15 14  2  0
 16 14  1  0
 17 16  1  0
 17 18  1  6
 19 18  1  0
 20 19  1  0
 21 20  2  0
 22 17  1  0
 22 23  1  0
 24 20  1  0
 25 22  2  0
M  END
$$$$
