IPE.pdb
     RDKit          3D

 25 25  0  0  1  0  0  0  0  0999 V2000
   25.1116  -20.3962   -8.6376 C   0  0  0  0  0  0  0  0  0  0  0  0
   26.2247  -19.9368   -9.5787 C   0  0  0  0  0  0  0  0  0  0  0  0
   25.7693  -19.9860  -10.9862 C   0  0  2  0  0  0  0  0  0  0  0  0
   25.2903  -21.3696  -11.3716 C   0  0  0  0  0  0  0  0  0  0  0  0
   26.7397  -19.4089  -11.9496 C   0  0  2  0  0  0  0  0  0  0  0  0
   27.2388  -18.1136  -11.4914 N   0  0  0  0  0  0  0  0  0  0  0  0
   26.3251  -19.2854  -13.3404 C   0  0  0  0  0  0  0  0  0  0  0  0
   25.5466  -18.3500  -13.7391 O   0  0  0  0  0  0  0  0  0  0  0  0
   26.7573  -20.1951  -14.3515 N   0  0  0  0  0  0  0  0  0  0  0  0
   27.6490  -21.3175  -14.0133 C   0  0  0  0  0  0  0  0  0  0  0  0
   27.9252  -22.0543  -15.2927 C   0  0  0  0  0  0  0  0  0  0  0  0
   27.6680  -21.0058  -16.3241 C   0  0  0  0  0  0  0  0  0  0  0  0
   26.4677  -20.2872  -15.7447 C   0  0  1  0  0  0  0  0  0  0  0  0
   25.2085  -21.0274  -16.0199 C   0  0  0  0  0  0  0  0  0  0  0  0
   25.0708  -22.1443  -15.4655 O   0  0  0  0  0  0  0  0  0  0  0  0
   24.1823  -20.5508  -16.8534 N   0  0  0  0  0  0  0  0  0  0  0  0
   22.8275  -21.1217  -16.8090 C   0  0  1  0  0  0  0  0  0  0  0  0
   21.9215  -20.1226  -16.1712 C   0  0  0  0  0  0  0  0  0  0  0  0
   20.4745  -20.4688  -16.1603 C   0  0  0  0  0  0  0  0  0  0  0  0
   19.7124  -19.3682  -15.5307 C   0  0  0  0  0  0  0  0  0  0  0  0
   19.2981  -18.4163  -16.2285 O   0  0  0  0  0  0  0  0  0  0  0  0
   22.4301  -21.5323  -18.1681 C   0  0  0  0  0  0  0  0  0  0  0  0
   21.4382  -22.4797  -18.3856 O   0  0  0  0  0  0  0  0  0  0  0  0
   19.4536  -19.3827  -14.1746 O   0  0  0  0  0  0  0  0  0  0  0  0
   23.0063  -21.0098  -19.1515 O   0  0  0  0  0  0  0  0  0  0  0  0
  2  1  1  0
  2  3  1  0
  3  5  1  0
  3  4  1  6
  5  6  1  1
  7  5  1  0
  7  8  2  0
  9 13  1  0
  9  7  1  0
 10 11  1  0
 10  9  1  0
 11 12  1  0
 13 12  1  0
 13 14  1  1
 15 14  2  0
 16 14  1  0
 17 16  1  0
 17 18  1  6
 19 18  1  0
 20 19  1  0
 21 20  2  0
 22 17  1  0
 22 23  1  0
 24 20  1  0
 25 22  2  0
M  END
$$$$
