IPE.pdb
     RDKit          3D

 25 25  0  0  1  0  0  0  0  0999 V2000
   13.5194  -10.7887   -9.2259 C   0  0  0  0  0  0  0  0  0  0  0  0
   13.1894  -10.9665  -10.7075 C   0  0  0  0  0  0  0  0  0  0  0  0
   14.2317  -10.3401  -11.5515 C   0  0  2  0  0  0  0  0  0  0  0  0
   14.4027   -8.8703  -11.2312 C   0  0  0  0  0  0  0  0  0  0  0  0
   14.0708  -10.6123  -13.0016 C   0  0  2  0  0  0  0  0  0  0  0  0
   14.0039  -12.0477  -13.2699 N   0  0  0  0  0  0  0  0  0  0  0  0
   15.0300  -10.0092  -13.9169 C   0  0  0  0  0  0  0  0  0  0  0  0
   16.1287  -10.5873  -14.2311 O   0  0  0  0  0  0  0  0  0  0  0  0
   14.8116   -8.7368  -14.5253 N   0  0  0  0  0  0  0  0  0  0  0  0
   13.5786   -7.9800  -14.2496 C   0  0  0  0  0  0  0  0  0  0  0  0
   13.6554   -6.7148  -15.0555 C   0  0  0  0  0  0  0  0  0  0  0  0
   14.6045   -7.0904  -16.1452 C   0  0  0  0  0  0  0  0  0  0  0  0
   15.6099   -7.9443  -15.4017 C   0  0  1  0  0  0  0  0  0  0  0  0
   16.5990   -7.1066  -14.6743 C   0  0  0  0  0  0  0  0  0  0  0  0
   16.6768   -7.2650  -13.4322 O   0  0  0  0  0  0  0  0  0  0  0  0
   17.4369   -6.1632  -15.2933 N   0  0  0  0  0  0  0  0  0  0  0  0
   18.7872   -5.8812  -14.7827 C   0  0  1  0  0  0  0  0  0  0  0  0
   19.5429   -7.1663  -14.7292 C   0  0  0  0  0  0  0  0  0  0  0  0
   20.9865   -7.0595  -14.3850 C   0  0  0  0  0  0  0  0  0  0  0  0
   21.6136   -8.3958  -14.4830 C   0  0  0  0  0  0  0  0  0  0  0  0
   21.3111   -9.2894  -13.6616 O   0  0  0  0  0  0  0  0  0  0  0  0
   19.4108   -4.8355  -15.6141 C   0  0  0  0  0  0  0  0  0  0  0  0
   19.0135   -4.6095  -16.9255 O   0  0  0  0  0  0  0  0  0  0  0  0
   22.5330   -8.6661  -15.4768 O   0  0  0  0  0  0  0  0  0  0  0  0
   20.3248   -4.1337  -15.1199 O   0  0  0  0  0  0  0  0  0  0  0  0
  2  1  1  0
  2  3  1  0
  3  5  1  0
  3  4  1  6
  5  6  1  1
  7  5  1  0
  7  8  2  0
  9 13  1  0
  9  7  1  0
 10 11  1  0
 10  9  1  0
 11 12  1  0
 13 12  1  0
 13 14  1  1
 15 14  2  0
 16 14  1  0
 17 16  1  0
 17 18  1  6
 19 18  1  0
 20 19  1  0
 21 20  2  0
 22 17  1  0
 22 23  1  0
 24 20  1  0
 25 22  2  0
M  END
$$$$
