IPE.pdb
     RDKit          3D

 25 25  0  0  1  0  0  0  0  0999 V2000
   21.8313  -16.6944  -15.3230 C   0  0  0  0  0  0  0  0  0  0  0  0
   23.1700  -16.2630  -15.9210 C   0  0  0  0  0  0  0  0  0  0  0  0
   23.1792  -14.8054  -16.1787 C   0  0  2  0  0  0  0  0  0  0  0  0
   22.0097  -14.3822  -17.0421 C   0  0  0  0  0  0  0  0  0  0  0  0
   24.4848  -14.2915  -16.6621 C   0  0  2  0  0  0  0  0  0  0  0  0
   25.5876  -14.7759  -15.8338 N   0  0  0  0  0  0  0  0  0  0  0  0
   24.6268  -12.8522  -16.8354 C   0  0  0  0  0  0  0  0  0  0  0  0
   24.9767  -12.0812  -15.8745 O   0  0  0  0  0  0  0  0  0  0  0  0
   24.3872  -12.2045  -18.0843 N   0  0  0  0  0  0  0  0  0  0  0  0
   23.9829  -12.9867  -19.2649 C   0  0  0  0  0  0  0  0  0  0  0  0
   23.8386  -12.0156  -20.4015 C   0  0  0  0  0  0  0  0  0  0  0  0
   24.7071  -10.8829  -19.9628 C   0  0  0  0  0  0  0  0  0  0  0  0
   24.4268  -10.8338  -18.4757 C   0  0  1  0  0  0  0  0  0  0  0  0
   23.1557  -10.1194  -18.1875 C   0  0  0  0  0  0  0  0  0  0  0  0
   22.0918  -10.7698  -18.3261 O   0  0  0  0  0  0  0  0  0  0  0  0
   23.0836   -8.7778  -17.7752 N   0  0  0  0  0  0  0  0  0  0  0  0
   21.8074   -8.1610  -17.3823 C   0  0  1  0  0  0  0  0  0  0  0  0
   21.9972   -7.5007  -16.0582 C   0  0  0  0  0  0  0  0  0  0  0  0
   20.8410   -6.7131  -15.5511 C   0  0  0  0  0  0  0  0  0  0  0  0
   21.2096   -6.0713  -14.2702 C   0  0  0  0  0  0  0  0  0  0  0  0
   21.2297   -4.8239  -14.1796 O   0  0  0  0  0  0  0  0  0  0  0  0
   21.3526   -7.2615  -18.4583 C   0  0  0  0  0  0  0  0  0  0  0  0
   20.0247   -6.8716  -18.5737 O   0  0  0  0  0  0  0  0  0  0  0  0
   21.5329   -6.8401  -13.1700 O   0  0  0  0  0  0  0  0  0  0  0  0
   22.1908   -6.8398  -19.2900 O   0  0  0  0  0  0  0  0  0  0  0  0
  2  1  1  0
  2  3  1  0
  3  5  1  0
  3  4  1  6
  5  6  1  1
  7  5  1  0
  7  8  2  0
  9 13  1  0
  9  7  1  0
 10 11  1  0
 10  9  1  0
 11 12  1  0
 13 12  1  0
 13 14  1  6
 15 14  2  0
 16 14  1  0
 17 16  1  0
 17 18  1  1
 19 18  1  0
 20 19  1  0
 21 20  2  0
 22 17  1  0
 22 23  1  0
 24 20  1  0
 25 22  2  0
M  END
$$$$
