SNK.pdb
     RDKit          3D

 24 23  0  0  1  0  0  0  0  0999 V2000
    7.9132  -13.5420   20.4064 O   0  0  0  0  0  0  0  0  0  0  0  0
    8.6023  -12.6588   19.5763 C   0  0  0  0  0  0  0  0  0  0  0  0
    9.2187  -13.4495   18.4724 C   0  0  2  0  0  0  0  0  0  0  0  0
    8.2320  -14.0358   17.6209 N   0  0  0  0  0  0  0  0  0  0  0  0
   10.1375  -14.5090   19.0245 C   0  0  0  0  0  0  0  0  0  0  0  0
    9.8641  -15.7266   18.8926 O   0  0  0  0  0  0  0  0  0  0  0  0
   14.1450  -13.8636   17.5877 N   0  0  0  0  0  0  0  0  0  0  0  0
   13.8916  -14.9870   18.4066 C   0  0  0  0  0  0  0  0  0  0  0  0
   13.8686  -16.1212   17.8824 O   0  0  0  0  0  0  0  0  0  0  0  0
   13.6561  -14.8420   19.8572 C   0  0  0  0  0  0  0  0  0  0  0  0
   12.2273  -15.1363   20.2329 C   0  0  2  0  0  0  0  0  0  0  0  0
   11.3237  -14.1504   19.7006 N   0  0  0  0  0  0  0  0  0  0  0  0
   12.1725  -15.0627   21.7410 C   0  0  0  0  0  0  0  0  0  0  0  0
   13.0043  -14.3532   22.3672 O   0  0  0  0  0  0  0  0  0  0  0  0
   11.2091  -15.7710   22.4791 N   0  0  0  0  0  0  0  0  0  0  0  0
   11.6618  -16.7544   23.4862 C   0  0  1  0  0  0  0  0  0  0  0  0
   11.1413  -18.1054   23.1269 C   0  0  0  0  0  0  0  0  0  0  0  0
   11.7097  -19.1479   24.0490 C   0  0  0  0  0  0  0  0  0  0  0  0
   10.5635  -20.1295   24.3152 C   0  0  0  0  0  0  0  0  0  0  0  0
   10.9830  -21.1697   25.3390 C   0  0  0  0  0  0  0  0  0  0  0  0
    9.9711  -22.1609   25.5397 N   0  0  0  0  0  0  0  0  0  0  0  0
   13.1213  -16.6465   23.6171 C   0  0  0  0  0  0  0  0  0  0  0  0
   13.7927  -16.3231   24.7763 O   0  0  0  0  0  0  0  0  0  0  0  0
   13.8665  -16.8594   22.5993 O   0  0  0  0  0  0  0  0  0  0  0  0
  2  1  1  0
  3  5  1  0
  3  2  1  0
  3  4  1  1
  5  6  2  0
  7  8  1  0
  8  9  2  0
  8 10  1  0
 11 10  1  6
 11 13  1  0
 12 11  1  0
 12  5  1  0
 13 14  2  0
 13 15  1  0
 15 16  1  0
 16 22  1  0
 16 17  1  6
 18 17  1  0
 19 18  1  0
 20 19  1  0
 21 20  1  0
 22 24  2  0
 22 23  1  0
M  END
$$$$
