SNK.pdb
     RDKit          3D

 24 23  0  0  1  0  0  0  0  0999 V2000
    6.8916  -18.0494   17.2390 O   0  0  0  0  0  0  0  0  0  0  0  0
    7.6582  -19.0667   17.8059 C   0  0  0  0  0  0  0  0  0  0  0  0
    7.7124  -18.8372   19.2783 C   0  0  2  0  0  0  0  0  0  0  0  0
    6.4077  -18.7024   19.8456 N   0  0  0  0  0  0  0  0  0  0  0  0
    8.5556  -17.6298   19.5987 C   0  0  0  0  0  0  0  0  0  0  0  0
    9.7399  -17.5487   19.1916 O   0  0  0  0  0  0  0  0  0  0  0  0
    6.8144  -12.5642   19.1026 N   0  0  0  0  0  0  0  0  0  0  0  0
    7.7717  -13.5739   19.3499 C   0  0  0  0  0  0  0  0  0  0  0  0
    8.4799  -13.9770   18.4024 O   0  0  0  0  0  0  0  0  0  0  0  0
    7.9455  -14.1536   20.6969 C   0  0  0  0  0  0  0  0  0  0  0  0
    8.8006  -15.3935   20.6757 C   0  0  2  0  0  0  0  0  0  0  0  0
    8.0279  -16.5670   20.3633 N   0  0  0  0  0  0  0  0  0  0  0  0
    9.3448  -15.5448   22.0769 C   0  0  0  0  0  0  0  0  0  0  0  0
    8.5538  -15.6782   23.0485 O   0  0  0  0  0  0  0  0  0  0  0  0
   10.7260  -15.5413   22.3358 N   0  0  0  0  0  0  0  0  0  0  0  0
   11.2289  -16.2371   23.5396 C   0  0  1  0  0  0  0  0  0  0  0  0
   10.7951  -17.6639   23.5036 C   0  0  0  0  0  0  0  0  0  0  0  0
   11.3502  -18.4100   24.6847 C   0  0  0  0  0  0  0  0  0  0  0  0
   10.7841  -19.8299   24.5764 C   0  0  0  0  0  0  0  0  0  0  0  0
   11.1782  -20.6522   25.7907 C   0  0  0  0  0  0  0  0  0  0  0  0
   10.6793  -21.9908   25.7149 N   0  0  0  0  0  0  0  0  0  0  0  0
   12.6778  -16.0124   23.6344 C   0  0  0  0  0  0  0  0  0  0  0  0
   13.5541  -16.0235   22.5710 O   0  0  0  0  0  0  0  0  0  0  0  0
   13.2110  -15.7866   24.7751 O   0  0  0  0  0  0  0  0  0  0  0  0
  2  1  1  0
  3  5  1  0
  3  2  1  0
  3  4  1  6
  5  6  2  0
  7  8  1  0
  8  9  2  0
  8 10  1  0
 11 10  1  1
 11 13  1  0
 12 11  1  0
 12  5  1  0
 13 14  2  0
 13 15  1  0
 15 16  1  0
 16 22  1  0
 16 17  1  6
 18 17  1  0
 19 18  1  0
 20 19  1  0
 21 20  1  0
 22 24  2  0
 22 23  1  0
M  END
$$$$
