SNK.pdb
     RDKit          3D

 24 23  0  0  1  0  0  0  0  0999 V2000
    7.7965  -19.3665   20.9447 O   0  0  0  0  0  0  0  0  0  0  0  0
    8.3111  -18.9880   19.7054 C   0  0  0  0  0  0  0  0  0  0  0  0
    9.0929  -20.1352   19.1609 C   0  0  2  0  0  0  0  0  0  0  0  0
    8.3276  -21.3420   19.1440 N   0  0  0  0  0  0  0  0  0  0  0  0
   10.3681  -20.3287   19.9404 C   0  0  0  0  0  0  0  0  0  0  0  0
   10.6249  -21.4291   20.4864 O   0  0  0  0  0  0  0  0  0  0  0  0
   15.2237  -19.9728   21.3753 N   0  0  0  0  0  0  0  0  0  0  0  0
   14.9431  -18.7675   20.6931 C   0  0  0  0  0  0  0  0  0  0  0  0
   15.8883  -17.9980   20.4168 O   0  0  0  0  0  0  0  0  0  0  0  0
   13.5642  -18.4076   20.3061 C   0  0  0  0  0  0  0  0  0  0  0  0
   12.5640  -19.4503   20.7325 C   0  0  2  0  0  0  0  0  0  0  0  0
   11.2979  -19.2746   20.0707 N   0  0  0  0  0  0  0  0  0  0  0  0
   12.3560  -19.2423   22.2144 C   0  0  0  0  0  0  0  0  0  0  0  0
   11.7648  -18.2095   22.6282 O   0  0  0  0  0  0  0  0  0  0  0  0
   12.8074  -20.1779   23.1607 N   0  0  0  0  0  0  0  0  0  0  0  0
   12.4947  -19.9572   24.5889 C   0  0  1  0  0  0  0  0  0  0  0  0
   12.0653  -21.2456   25.2059 C   0  0  0  0  0  0  0  0  0  0  0  0
   11.7777  -21.0553   26.6692 C   0  0  0  0  0  0  0  0  0  0  0  0
   11.4933  -22.4578   27.2175 C   0  0  0  0  0  0  0  0  0  0  0  0
   11.1064  -22.3854   28.6841 C   0  0  0  0  0  0  0  0  0  0  0  0
   11.0053  -23.6843   29.2752 N   0  0  0  0  0  0  0  0  0  0  0  0
   13.6471  -19.2996   25.2201 C   0  0  0  0  0  0  0  0  0  0  0  0
   14.9562  -19.4249   24.8086 O   0  0  0  0  0  0  0  0  0  0  0  0
   13.4672  -18.5434   26.2362 O   0  0  0  0  0  0  0  0  0  0  0  0
  2  1  1  0
  3  5  1  0
  3  2  1  0
  3  4  1  1
  5  6  2  0
  7  8  1  0
  8  9  2  0
  8 10  1  0
 11 10  1  6
 11 13  1  0
 12 11  1  0
 12  5  1  0
 13 14  2  0
 13 15  1  0
 15 16  1  0
 16 22  1  0
 16 17  1  1
 18 17  1  0
 19 18  1  0
 20 19  1  0
 21 20  1  0
 22 24  2  0
 22 23  1  0
M  END
$$$$
