SNK.pdb
     RDKit          3D

 24 23  0  0  1  0  0  0  0  0999 V2000
    6.3912  -16.9850   16.5071 O   0  0  0  0  0  0  0  0  0  0  0  0
    6.7819  -18.0068   17.3716 C   0  0  0  0  0  0  0  0  0  0  0  0
    7.9421  -18.7130   16.7561 C   0  0  2  0  0  0  0  0  0  0  0  0
    7.5732  -19.4035   15.5605 N   0  0  0  0  0  0  0  0  0  0  0  0
    8.5719  -19.6628   17.7423 C   0  0  0  0  0  0  0  0  0  0  0  0
    7.9478  -20.6734   18.1471 O   0  0  0  0  0  0  0  0  0  0  0  0
   13.3058  -20.5379   16.7831 N   0  0  0  0  0  0  0  0  0  0  0  0
   12.3378  -21.0724   17.6630 C   0  0  0  0  0  0  0  0  0  0  0  0
   11.7615  -22.1362   17.3496 O   0  0  0  0  0  0  0  0  0  0  0  0
   12.0008  -20.3998   18.9337 C   0  0  0  0  0  0  0  0  0  0  0  0
   10.5133  -20.3264   19.1605 C   0  0  2  0  0  0  0  0  0  0  0  0
    9.8769  -19.4327   18.2289 N   0  0  0  0  0  0  0  0  0  0  0  0
   10.3342  -19.7654   20.5518 C   0  0  0  0  0  0  0  0  0  0  0  0
   10.8392  -18.6505   20.8509 O   0  0  0  0  0  0  0  0  0  0  0  0
    9.6114  -20.4575   21.5384 N   0  0  0  0  0  0  0  0  0  0  0  0
    9.5339  -19.8861   22.8999 C   0  0  1  0  0  0  0  0  0  0  0  0
    8.3644  -20.4727   23.6165 C   0  0  0  0  0  0  0  0  0  0  0  0
    7.2001  -20.6290   22.6784 C   0  0  0  0  0  0  0  0  0  0  0  0
    6.0628  -21.2060   23.5281 C   0  0  0  0  0  0  0  0  0  0  0  0
    4.8375  -21.4645   22.6691 C   0  0  0  0  0  0  0  0  0  0  0  0
    3.7428  -21.9718   23.4379 N   0  0  0  0  0  0  0  0  0  0  0  0
   10.8379  -20.0641   23.5530 C   0  0  0  0  0  0  0  0  0  0  0  0
   11.3239  -19.2857   24.5810 O   0  0  0  0  0  0  0  0  0  0  0  0
   11.6171  -21.0026   23.1674 O   0  0  0  0  0  0  0  0  0  0  0  0
  2  1  1  0
  3  5  1  0
  3  2  1  0
  3  4  1  6
  5  6  2  0
  7  8  1  0
  8  9  2  0
  8 10  1  0
 11 10  1  6
 11 13  1  0
 12 11  1  0
 12  5  1  0
 13 14  2  0
 13 15  1  0
 15 16  1  0
 16 22  1  0
 16 17  1  1
 18 17  1  0
 19 18  1  0
 20 19  1  0
 21 20  1  0
 22 24  2  0
 22 23  1  0
M  END
$$$$
