SNK.pdb
     RDKit          3D

 24 23  0  0  1  0  0  0  0  0999 V2000
   11.0829  -22.0534   19.3014 O   0  0  0  0  0  0  0  0  0  0  0  0
   11.2118  -21.1979   20.3947 C   0  0  0  0  0  0  0  0  0  0  0  0
   10.0846  -20.2225   20.3522 C   0  0  2  0  0  0  0  0  0  0  0  0
   10.1505  -19.3811   19.1988 N   0  0  0  0  0  0  0  0  0  0  0  0
   10.0497  -19.3933   21.6102 C   0  0  0  0  0  0  0  0  0  0  0  0
   10.7901  -18.3879   21.7359 O   0  0  0  0  0  0  0  0  0  0  0  0
    6.2738  -17.7228   26.1289 N   0  0  0  0  0  0  0  0  0  0  0  0
    7.5246  -17.9355   25.5065 C   0  0  0  0  0  0  0  0  0  0  0  0
    8.5166  -17.2939   25.9141 O   0  0  0  0  0  0  0  0  0  0  0  0
    7.6751  -18.8944   24.3936 C   0  0  0  0  0  0  0  0  0  0  0  0
    9.0846  -18.9326   23.8634 C   0  0  2  0  0  0  0  0  0  0  0  0
    9.1826  -19.7329   22.6710 N   0  0  0  0  0  0  0  0  0  0  0  0
    9.9148  -19.5878   24.9423 C   0  0  0  0  0  0  0  0  0  0  0  0
    9.8499  -20.8339   25.1169 O   0  0  0  0  0  0  0  0  0  0  0  0
   10.7701  -18.8410   25.7701 N   0  0  0  0  0  0  0  0  0  0  0  0
   11.4052  -19.5070   26.9275 C   0  0  1  0  0  0  0  0  0  0  0  0
   10.4070  -20.3885   27.5996 C   0  0  0  0  0  0  0  0  0  0  0  0
   10.4441  -20.1816   29.0882 C   0  0  0  0  0  0  0  0  0  0  0  0
   10.4277  -21.5872   29.6986 C   0  0  0  0  0  0  0  0  0  0  0  0
   10.4015  -21.5068   31.2147 C   0  0  0  0  0  0  0  0  0  0  0  0
   10.3476  -22.8028   31.8181 N   0  0  0  0  0  0  0  0  0  0  0  0
   12.6331  -20.1686   26.4659 C   0  0  0  0  0  0  0  0  0  0  0  0
   12.6818  -21.2249   25.5823 O   0  0  0  0  0  0  0  0  0  0  0  0
   13.7694  -19.7660   26.8941 O   0  0  0  0  0  0  0  0  0  0  0  0
  2  1  1  0
  3  5  1  0
  3  2  1  0
  3  4  1  6
  5  6  2  0
  7  8  1  0
  8  9  2  0
  8 10  1  0
 11 10  1  1
 11 13  1  0
 12 11  1  0
 12  5  1  0
 13 14  2  0
 13 15  1  0
 15 16  1  0
 16 22  1  0
 16 17  1  6
 18 17  1  0
 19 18  1  0
 20 19  1  0
 21 20  1  0
 22 24  2  0
 22 23  1  0
M  END
$$$$
