SNK.pdb
     RDKit          3D

 24 23  0  0  1  0  0  0  0  0999 V2000
    9.1985  -14.9865   17.3353 O   0  0  0  0  0  0  0  0  0  0  0  0
    7.8663  -14.6433   17.5619 C   0  0  0  0  0  0  0  0  0  0  0  0
    7.8432  -13.4550   18.4624 C   0  0  2  0  0  0  0  0  0  0  0  0
    8.4780  -12.3216   17.8665 N   0  0  0  0  0  0  0  0  0  0  0  0
    8.4788  -13.7798   19.7898 C   0  0  0  0  0  0  0  0  0  0  0  0
    9.6359  -13.3773   20.0620 O   0  0  0  0  0  0  0  0  0  0  0  0
    9.0875  -15.1803   24.7136 N   0  0  0  0  0  0  0  0  0  0  0  0
    7.8441  -15.7168   24.3097 C   0  0  0  0  0  0  0  0  0  0  0  0
    7.1547  -16.3360   25.1483 O   0  0  0  0  0  0  0  0  0  0  0  0
    7.3526  -15.5583   22.9262 C   0  0  0  0  0  0  0  0  0  0  0  0
    8.3220  -14.7937   22.0632 C   0  0  2  0  0  0  0  0  0  0  0  0
    7.7835  -14.5436   20.7519 N   0  0  0  0  0  0  0  0  0  0  0  0
    9.5342  -15.6831   21.9148 C   0  0  0  0  0  0  0  0  0  0  0  0
    9.4413  -16.7755   21.2940 O   0  0  0  0  0  0  0  0  0  0  0  0
   10.7813  -15.3258   22.4551 N   0  0  0  0  0  0  0  0  0  0  0  0
   11.9525  -16.1847   22.1778 C   0  0  1  0  0  0  0  0  0  0  0  0
   13.0160  -15.3727   21.5184 C   0  0  0  0  0  0  0  0  0  0  0  0
   13.1696  -15.7803   20.0795 C   0  0  0  0  0  0  0  0  0  0  0  0
   14.2897  -14.8969   19.5198 C   0  0  0  0  0  0  0  0  0  0  0  0
   14.4118  -15.0832   18.0177 C   0  0  0  0  0  0  0  0  0  0  0  0
   15.3763  -14.1951   17.4453 N   0  0  0  0  0  0  0  0  0  0  0  0
   12.3422  -16.8551   23.4257 C   0  0  0  0  0  0  0  0  0  0  0  0
   13.3428  -17.7954   23.5428 O   0  0  0  0  0  0  0  0  0  0  0  0
   11.7297  -16.5756   24.5135 O   0  0  0  0  0  0  0  0  0  0  0  0
  2  1  1  0
  3  5  1  0
  3  2  1  0
  3  4  1  6
  5  6  2  0
  7  8  1  0
  8  9  2  0
  8 10  1  0
 11 10  1  1
 11 13  1  0
 12 11  1  0
 12  5  1  0
 13 14  2  0
 13 15  1  0
 15 16  1  0
 16 22  1  0
 16 17  1  1
 18 17  1  0
 19 18  1  0
 20 19  1  0
 21 20  1  0
 22 24  2  0
 22 23  1  0
M  END
$$$$
