SNK.pdb
     RDKit          3D

 24 23  0  0  1  0  0  0  0  0999 V2000
    9.0285  -14.9898   17.3122 O   0  0  0  0  0  0  0  0  0  0  0  0
    7.7250  -14.6198   17.6404 C   0  0  0  0  0  0  0  0  0  0  0  0
    7.7956  -13.4378   18.5468 C   0  0  2  0  0  0  0  0  0  0  0  0
    8.4298  -12.3214   17.9191 N   0  0  0  0  0  0  0  0  0  0  0  0
    8.4997  -13.7925   19.8312 C   0  0  0  0  0  0  0  0  0  0  0  0
    9.6946  -13.4590   20.0203 O   0  0  0  0  0  0  0  0  0  0  0  0
    9.2663  -15.0561   24.7720 N   0  0  0  0  0  0  0  0  0  0  0  0
    8.0524  -15.6757   24.3984 C   0  0  0  0  0  0  0  0  0  0  0  0
    7.4406  -16.3610   25.2457 O   0  0  0  0  0  0  0  0  0  0  0  0
    7.5020  -15.5269   23.0362 C   0  0  0  0  0  0  0  0  0  0  0  0
    8.4252  -14.7528   22.1319 C   0  0  2  0  0  0  0  0  0  0  0  0
    7.8271  -14.5071   20.8459 N   0  0  0  0  0  0  0  0  0  0  0  0
    9.6380  -15.6308   21.9294 C   0  0  0  0  0  0  0  0  0  0  0  0
    9.5647  -16.6432   21.1829 O   0  0  0  0  0  0  0  0  0  0  0  0
   10.8640  -15.3505   22.5564 N   0  0  0  0  0  0  0  0  0  0  0  0
   12.0717  -16.0862   22.1247 C   0  0  1  0  0  0  0  0  0  0  0  0
   12.9415  -15.1799   21.3201 C   0  0  0  0  0  0  0  0  0  0  0  0
   13.2943  -15.8220   20.0074 C   0  0  0  0  0  0  0  0  0  0  0  0
   14.3083  -14.8802   19.3491 C   0  0  0  0  0  0  0  0  0  0  0  0
   14.6513  -15.3637   17.9510 C   0  0  0  0  0  0  0  0  0  0  0  0
   15.6643  -14.5589   17.3404 N   0  0  0  0  0  0  0  0  0  0  0  0
   12.6984  -16.6862   23.3104 C   0  0  0  0  0  0  0  0  0  0  0  0
   13.7758  -17.5449   23.2903 O   0  0  0  0  0  0  0  0  0  0  0  0
   12.2385  -16.4191   24.4740 O   0  0  0  0  0  0  0  0  0  0  0  0
  2  1  1  0
  3  5  1  0
  3  2  1  0
  3  4  1  6
  5  6  2  0
  7  8  1  0
  8  9  2  0
  8 10  1  0
 11 10  1  1
 11 13  1  0
 12 11  1  0
 12  5  1  0
 13 14  2  0
 13 15  1  0
 15 16  1  0
 16 22  1  0
 16 17  1  1
 18 17  1  0
 19 18  1  0
 20 19  1  0
 21 20  1  0
 22 24  2  0
 22 23  1  0
M  END
$$$$
