SNK.pdb
     RDKit          3D

 24 23  0  0  1  0  0  0  0  0999 V2000
   10.5623  -12.6119   19.4951 O   0  0  0  0  0  0  0  0  0  0  0  0
   10.2816  -13.3174   18.3257 C   0  0  0  0  0  0  0  0  0  0  0  0
    8.8641  -13.7755   18.3927 C   0  0  2  0  0  0  0  0  0  0  0  0
    7.9597  -12.6854   18.5828 N   0  0  0  0  0  0  0  0  0  0  0  0
    8.6876  -14.8047   19.4794 C   0  0  0  0  0  0  0  0  0  0  0  0
    8.0146  -14.5438   20.5060 O   0  0  0  0  0  0  0  0  0  0  0  0
   10.2682  -20.5211   21.1211 N   0  0  0  0  0  0  0  0  0  0  0  0
    9.3146  -19.5042   20.8894 C   0  0  0  0  0  0  0  0  0  0  0  0
    8.2564  -19.5086   21.5542 O   0  0  0  0  0  0  0  0  0  0  0  0
    9.5477  -18.4479   19.8841 C   0  0  0  0  0  0  0  0  0  0  0  0
    9.1251  -17.0894   20.3791 C   0  0  2  0  0  0  0  0  0  0  0  0
    9.2766  -16.0822   19.3621 N   0  0  0  0  0  0  0  0  0  0  0  0
   10.0592  -16.7553   21.5186 C   0  0  0  0  0  0  0  0  0  0  0  0
   11.1743  -16.2187   21.2817 O   0  0  0  0  0  0  0  0  0  0  0  0
    9.7194  -17.0278   22.8546 N   0  0  0  0  0  0  0  0  0  0  0  0
   10.5663  -16.4764   23.9338 C   0  0  1  0  0  0  0  0  0  0  0  0
    9.6961  -15.9471   25.0237 C   0  0  0  0  0  0  0  0  0  0  0  0
   10.5344  -15.4502   26.1684 C   0  0  0  0  0  0  0  0  0  0  0  0
    9.5387  -14.9342   27.2128 C   0  0  0  0  0  0  0  0  0  0  0  0
   10.2754  -14.3189   28.3895 C   0  0  0  0  0  0  0  0  0  0  0  0
    9.3757  -13.8545   29.4001 N   0  0  0  0  0  0  0  0  0  0  0  0
   11.5365  -17.5048   24.3338 C   0  0  0  0  0  0  0  0  0  0  0  0
   12.8009  -17.2564   24.8221 O   0  0  0  0  0  0  0  0  0  0  0  0
   11.2255  -18.7418   24.2360 O   0  0  0  0  0  0  0  0  0  0  0  0
  2  1  1  0
  3  5  1  0
  3  2  1  0
  3  4  1  1
  5  6  2  0
  7  8  1  0
  8  9  2  0
  8 10  1  0
 11 10  1  6
 11 13  1  0
 12 11  1  0
 12  5  1  0
 13 14  2  0
 13 15  1  0
 15 16  1  0
 16 22  1  0
 16 17  1  1
 18 17  1  0
 19 18  1  0
 20 19  1  0
 21 20  1  0
 22 24  2  0
 22 23  1  0
M  END
$$$$
