SNK.pdb
     RDKit          3D

 24 23  0  0  1  0  0  0  0  0999 V2000
   12.6324  -18.1108   19.7735 O   0  0  0  0  0  0  0  0  0  0  0  0
   11.4102  -17.4770   19.5536 C   0  0  0  0  0  0  0  0  0  0  0  0
   10.5628  -17.6769   20.7643 C   0  0  2  0  0  0  0  0  0  0  0  0
    9.3310  -18.3304   20.4512 N   0  0  0  0  0  0  0  0  0  0  0  0
   10.3036  -16.3633   21.4561 C   0  0  0  0  0  0  0  0  0  0  0  0
   11.2479  -15.7038   21.9542 O   0  0  0  0  0  0  0  0  0  0  0  0
    9.0005  -13.4853   19.7221 N   0  0  0  0  0  0  0  0  0  0  0  0
    7.7273  -13.4018   20.3295 C   0  0  0  0  0  0  0  0  0  0  0  0
    6.7936  -12.8616   19.6983 O   0  0  0  0  0  0  0  0  0  0  0  0
    7.4864  -13.9375   21.6843 C   0  0  0  0  0  0  0  0  0  0  0  0
    8.7035  -14.6221   22.2492 C   0  0  2  0  0  0  0  0  0  0  0  0
    8.9923  -15.8503   21.5564 N   0  0  0  0  0  0  0  0  0  0  0  0
    8.3621  -14.9566   23.6824 C   0  0  0  0  0  0  0  0  0  0  0  0
    7.5524  -15.8881   23.9358 O   0  0  0  0  0  0  0  0  0  0  0  0
    8.9272  -14.2517   24.7587 N   0  0  0  0  0  0  0  0  0  0  0  0
    8.6845  -14.7344   26.1350 C   0  0  1  0  0  0  0  0  0  0  0  0
    9.1235  -16.1558   26.2451 C   0  0  0  0  0  0  0  0  0  0  0  0
   10.5947  -16.2277   26.5459 C   0  0  0  0  0  0  0  0  0  0  0  0
   10.9280  -17.7220   26.6108 C   0  0  0  0  0  0  0  0  0  0  0  0
   12.3724  -17.9254   27.0331 C   0  0  0  0  0  0  0  0  0  0  0  0
   12.6855  -19.3090   27.2188 N   0  0  0  0  0  0  0  0  0  0  0  0
    9.3153  -13.7967   27.0739 C   0  0  0  0  0  0  0  0  0  0  0  0
    9.1692  -13.8259   28.4438 O   0  0  0  0  0  0  0  0  0  0  0  0
   10.0662  -12.8620   26.6277 O   0  0  0  0  0  0  0  0  0  0  0  0
  2  1  1  0
  3  5  1  0
  3  2  1  0
  3  4  1  6
  5  6  2  0
  7  8  1  0
  8  9  2  0
  8 10  1  0
 11 10  1  6
 11 13  1  0
 12 11  1  0
 12  5  1  0
 13 14  2  0
 13 15  1  0
 15 16  1  0
 16 22  1  0
 16 17  1  6
 18 17  1  0
 19 18  1  0
 20 19  1  0
 21 20  1  0
 22 24  2  0
 22 23  1  0
M  END
$$$$
