SNK.pdb
     RDKit          3D

 24 23  0  0  1  0  0  0  0  0999 V2000
    9.5964  -12.0404   19.9158 O   0  0  0  0  0  0  0  0  0  0  0  0
    9.9077  -12.8256   18.8065 C   0  0  0  0  0  0  0  0  0  0  0  0
    8.7301  -13.6906   18.5089 C   0  0  2  0  0  0  0  0  0  0  0  0
    7.5446  -12.9221   18.2933 N   0  0  0  0  0  0  0  0  0  0  0  0
    8.5153  -14.6960   19.6109 C   0  0  0  0  0  0  0  0  0  0  0  0
    7.4930  -14.6427   20.3368 O   0  0  0  0  0  0  0  0  0  0  0  0
    8.6278  -19.7231   21.5698 N   0  0  0  0  0  0  0  0  0  0  0  0
    9.8647  -19.0408   21.5320 C   0  0  0  0  0  0  0  0  0  0  0  0
   10.7596  -19.3718   22.3391 O   0  0  0  0  0  0  0  0  0  0  0  0
   10.1127  -17.9541   20.5634 C   0  0  0  0  0  0  0  0  0  0  0  0
    9.2387  -16.7542   20.8197 C   0  0  2  0  0  0  0  0  0  0  0  0
    9.4611  -15.7169   19.8469 N   0  0  0  0  0  0  0  0  0  0  0  0
    9.6473  -16.2268   22.1752 C   0  0  0  0  0  0  0  0  0  0  0  0
   10.6615  -15.4871   22.2833 O   0  0  0  0  0  0  0  0  0  0  0  0
    8.9216  -16.5395   23.3372 N   0  0  0  0  0  0  0  0  0  0  0  0
    9.2401  -15.8252   24.5921 C   0  0  1  0  0  0  0  0  0  0  0  0
    7.9773  -15.3316   25.2142 C   0  0  0  0  0  0  0  0  0  0  0  0
    7.8026  -13.8621   24.9493 C   0  0  0  0  0  0  0  0  0  0  0  0
    6.5742  -13.4414   25.7630 C   0  0  0  0  0  0  0  0  0  0  0  0
    6.2942  -11.9609   25.5739 C   0  0  0  0  0  0  0  0  0  0  0  0
    5.1550  -11.5318   26.3253 N   0  0  0  0  0  0  0  0  0  0  0  0
   10.0636  -16.7062   25.4314 C   0  0  0  0  0  0  0  0  0  0  0  0
   10.7987  -16.3017   26.5246 O   0  0  0  0  0  0  0  0  0  0  0  0
   10.1343  -17.9546   25.1613 O   0  0  0  0  0  0  0  0  0  0  0  0
  2  1  1  0
  3  5  1  0
  3  2  1  0
  3  4  1  1
  5  6  2  0
  7  8  1  0
  8  9  2  0
  8 10  1  0
 11 10  1  6
 11 13  1  0
 12 11  1  0
 12  5  1  0
 13 14  2  0
 13 15  1  0
 15 16  1  0
 16 22  1  0
 16 17  1  1
 18 17  1  0
 19 18  1  0
 20 19  1  0
 21 20  1  0
 22 24  2  0
 22 23  1  0
M  END
$$$$
