SNK.pdb
     RDKit          3D

 24 23  0  0  1  0  0  0  0  0999 V2000
    9.9881  -15.5292   17.4343 O   0  0  0  0  0  0  0  0  0  0  0  0
    9.0337  -15.5409   18.4506 C   0  0  0  0  0  0  0  0  0  0  0  0
    8.6374  -16.9576   18.6946 C   0  0  2  0  0  0  0  0  0  0  0  0
    7.8733  -17.4919   17.6115 N   0  0  0  0  0  0  0  0  0  0  0  0
    7.8776  -17.0828   19.9901 C   0  0  0  0  0  0  0  0  0  0  0  0
    6.6237  -17.0360   20.0048 O   0  0  0  0  0  0  0  0  0  0  0  0
    6.0296  -19.4986   24.3104 N   0  0  0  0  0  0  0  0  0  0  0  0
    7.4156  -19.2729   24.1520 C   0  0  0  0  0  0  0  0  0  0  0  0
    8.1511  -19.3125   25.1616 O   0  0  0  0  0  0  0  0  0  0  0  0
    8.0012  -18.9939   22.8254 C   0  0  0  0  0  0  0  0  0  0  0  0
    7.8727  -17.5430   22.4414 C   0  0  2  0  0  0  0  0  0  0  0  0
    8.5634  -17.2552   21.2118 N   0  0  0  0  0  0  0  0  0  0  0  0
    8.5365  -16.7611   23.5508 C   0  0  0  0  0  0  0  0  0  0  0  0
    9.7934  -16.7242   23.6301 O   0  0  0  0  0  0  0  0  0  0  0  0
    7.7859  -16.0631   24.5120 N   0  0  0  0  0  0  0  0  0  0  0  0
    8.4897  -15.4390   25.6529 C   0  0  1  0  0  0  0  0  0  0  0  0
    7.5529  -14.5292   26.3739 C   0  0  0  0  0  0  0  0  0  0  0  0
    7.5015  -13.1876   25.6976 C   0  0  0  0  0  0  0  0  0  0  0  0
    6.5037  -12.3558   26.5106 C   0  0  0  0  0  0  0  0  0  0  0  0
    6.3723  -10.9618   25.9230 C   0  0  0  0  0  0  0  0  0  0  0  0
    5.4221  -10.1671   26.6387 N   0  0  0  0  0  0  0  0  0  0  0  0
    9.0958  -16.5043   26.4632 C   0  0  0  0  0  0  0  0  0  0  0  0
   10.2093  -16.3583   27.2616 O   0  0  0  0  0  0  0  0  0  0  0  0
    8.5829  -17.6762   26.4555 O   0  0  0  0  0  0  0  0  0  0  0  0
  2  1  1  0
  3  5  1  0
  3  2  1  0
  3  4  1  6
  5  6  2  0
  7  8  1  0
  8  9  2  0
  8 10  1  0
 11 10  1  1
 11 13  1  0
 12 11  1  0
 12  5  1  0
 13 14  2  0
 13 15  1  0
 15 16  1  0
 16 22  1  0
 16 17  1  1
 18 17  1  0
 19 18  1  0
 20 19  1  0
 21 20  1  0
 22 24  2  0
 22 23  1  0
M  END
$$$$
