SNK.pdb
     RDKit          3D

 24 23  0  0  1  0  0  0  0  0999 V2000
   14.4295  -17.9263   22.1647 O   0  0  0  0  0  0  0  0  0  0  0  0
   13.6764  -18.5578   21.1758 C   0  0  0  0  0  0  0  0  0  0  0  0
   13.1092  -17.5047   20.2853 C   0  0  2  0  0  0  0  0  0  0  0  0
   14.1258  -16.6550   19.7495 N   0  0  0  0  0  0  0  0  0  0  0  0
   12.0713  -16.6917   21.0154 C   0  0  0  0  0  0  0  0  0  0  0  0
   12.2791  -15.4850   21.2902 O   0  0  0  0  0  0  0  0  0  0  0  0
    7.7900  -18.4528   19.8394 N   0  0  0  0  0  0  0  0  0  0  0  0
    7.9056  -17.2464   20.5661 C   0  0  0  0  0  0  0  0  0  0  0  0
    7.5229  -16.1831   20.0322 O   0  0  0  0  0  0  0  0  0  0  0  0
    8.4658  -17.2237   21.9322 C   0  0  0  0  0  0  0  0  0  0  0  0
    9.7849  -16.4987   21.9932 C   0  0  2  0  0  0  0  0  0  0  0  0
   10.8452  -17.2735   21.4038 N   0  0  0  0  0  0  0  0  0  0  0  0
   10.0906  -16.3190   23.4619 C   0  0  0  0  0  0  0  0  0  0  0  0
   10.9131  -17.0845   24.0319 O   0  0  0  0  0  0  0  0  0  0  0  0
    9.4778  -15.3102   24.2244 N   0  0  0  0  0  0  0  0  0  0  0  0
    9.8452  -15.1693   25.6497 C   0  0  1  0  0  0  0  0  0  0  0  0
    9.3356  -13.8655   26.1651 C   0  0  0  0  0  0  0  0  0  0  0  0
    7.8793  -13.9766   26.5216 C   0  0  0  0  0  0  0  0  0  0  0  0
    7.2875  -12.5858   26.2688 C   0  0  0  0  0  0  0  0  0  0  0  0
    5.7857  -12.5996   26.4934 C   0  0  0  0  0  0  0  0  0  0  0  0
    5.1982  -11.3164   26.2594 N   0  0  0  0  0  0  0  0  0  0  0  0
    9.3834  -16.3646   26.3684 C   0  0  0  0  0  0  0  0  0  0  0  0
    8.4998  -17.2980   25.8715 O   0  0  0  0  0  0  0  0  0  0  0  0
    9.8082  -16.5957   27.5529 O   0  0  0  0  0  0  0  0  0  0  0  0
  2  1  1  0
  3  5  1  0
  3  2  1  0
  3  4  1  1
  5  6  2  0
  7  8  1  0
  8  9  2  0
  8 10  1  0
 11 10  1  1
 11 13  1  0
 12 11  1  0
 12  5  1  0
 13 14  2  0
 13 15  1  0
 15 16  1  0
 16 22  1  0
 16 17  1  1
 18 17  1  0
 19 18  1  0
 20 19  1  0
 21 20  1  0
 22 24  2  0
 22 23  1  0
M  END
$$$$
