SNK.pdb
     RDKit          3D

 24 23  0  0  1  0  0  0  0  0999 V2000
    8.7819  -12.1059   19.2053 O   0  0  0  0  0  0  0  0  0  0  0  0
    9.6279  -12.9334   18.4682 C   0  0  0  0  0  0  0  0  0  0  0  0
    8.8524  -14.1401   18.0608 C   0  0  2  0  0  0  0  0  0  0  0  0
    7.6478  -13.7934   17.3745 N   0  0  0  0  0  0  0  0  0  0  0  0
    8.5493  -15.0072   19.2557 C   0  0  0  0  0  0  0  0  0  0  0  0
    7.3838  -15.0810   19.7149 O   0  0  0  0  0  0  0  0  0  0  0  0
   11.1037  -19.3273   22.8312 N   0  0  0  0  0  0  0  0  0  0  0  0
   10.0330  -18.6866   22.1678 C   0  0  0  0  0  0  0  0  0  0  0  0
    8.8680  -18.8844   22.5747 O   0  0  0  0  0  0  0  0  0  0  0  0
   10.2678  -17.7964   21.0132 C   0  0  0  0  0  0  0  0  0  0  0  0
    9.3069  -16.6367   20.9854 C   0  0  2  0  0  0  0  0  0  0  0  0
    9.5721  -15.7529   19.8806 N   0  0  0  0  0  0  0  0  0  0  0  0
    9.5418  -15.8739   22.2682 C   0  0  0  0  0  0  0  0  0  0  0  0
   10.6258  -15.2561   22.4437 O   0  0  0  0  0  0  0  0  0  0  0  0
    8.5757  -15.8305   23.2876 N   0  0  0  0  0  0  0  0  0  0  0  0
    8.8111  -14.9586   24.4583 C   0  0  1  0  0  0  0  0  0  0  0  0
    7.5665  -14.1954   24.7647 C   0  0  0  0  0  0  0  0  0  0  0  0
    7.7965  -13.2603   25.9192 C   0  0  0  0  0  0  0  0  0  0  0  0
    6.4609  -12.5415   26.1376 C   0  0  0  0  0  0  0  0  0  0  0  0
    6.5882  -11.5107   27.2455 C   0  0  0  0  0  0  0  0  0  0  0  0
    5.3229  -10.9420   27.5948 N   0  0  0  0  0  0  0  0  0  0  0  0
    9.3398  -15.7839   25.5529 C   0  0  0  0  0  0  0  0  0  0  0  0
    9.7619  -17.0899   25.4300 O   0  0  0  0  0  0  0  0  0  0  0  0
    9.4315  -15.2921   26.7303 O   0  0  0  0  0  0  0  0  0  0  0  0
  2  1  1  0
  3  5  1  0
  3  2  1  0
  3  4  1  1
  5  6  2  0
  7  8  1  0
  8  9  2  0
  8 10  1  0
 11 10  1  6
 11 13  1  0
 12 11  1  0
 12  5  1  0
 13 14  2  0
 13 15  1  0
 15 16  1  0
 16 22  1  0
 16 17  1  1
 18 17  1  0
 19 18  1  0
 20 19  1  0
 21 20  1  0
 22 24  2  0
 22 23  1  0
M  END
$$$$
