SNK.pdb
     RDKit          3D

 24 23  0  0  1  0  0  0  0  0999 V2000
    8.8780  -15.3595   17.9904 O   0  0  0  0  0  0  0  0  0  0  0  0
    7.6059  -14.8693   18.2824 C   0  0  0  0  0  0  0  0  0  0  0  0
    7.7655  -13.5741   19.0041 C   0  0  2  0  0  0  0  0  0  0  0  0
    8.3493  -12.5688   18.1729 N   0  0  0  0  0  0  0  0  0  0  0  0
    8.5786  -13.7601   20.2593 C   0  0  0  0  0  0  0  0  0  0  0  0
    9.7680  -13.3642   20.3170 O   0  0  0  0  0  0  0  0  0  0  0  0
    7.2205  -12.7103   23.8285 N   0  0  0  0  0  0  0  0  0  0  0  0
    7.1001  -14.0412   24.2878 C   0  0  0  0  0  0  0  0  0  0  0  0
    6.2824  -14.2919   25.1991 O   0  0  0  0  0  0  0  0  0  0  0  0
    7.9176  -15.1285   23.7132 C   0  0  0  0  0  0  0  0  0  0  0  0
    8.7870  -14.6479   22.5808 C   0  0  2  0  0  0  0  0  0  0  0  0
    8.0164  -14.3837   21.3940 N   0  0  0  0  0  0  0  0  0  0  0  0
    9.7414  -15.7804   22.2826 C   0  0  0  0  0  0  0  0  0  0  0  0
    9.2932  -16.9144   21.9651 O   0  0  0  0  0  0  0  0  0  0  0  0
   11.1344  -15.6075   22.3488 N   0  0  0  0  0  0  0  0  0  0  0  0
   12.0119  -16.7652   22.0733 C   0  0  1  0  0  0  0  0  0  0  0  0
   13.2757  -16.2881   21.4405 C   0  0  0  0  0  0  0  0  0  0  0  0
   12.9825  -15.6128   20.1297 C   0  0  0  0  0  0  0  0  0  0  0  0
   14.3476  -15.2131   19.5593 C   0  0  0  0  0  0  0  0  0  0  0  0
   14.1759  -14.4525   18.2563 C   0  0  0  0  0  0  0  0  0  0  0  0
   15.4272  -13.9948   17.7354 N   0  0  0  0  0  0  0  0  0  0  0  0
   12.1703  -17.5336   23.3155 C   0  0  0  0  0  0  0  0  0  0  0  0
   11.7362  -17.1301   24.5595 O   0  0  0  0  0  0  0  0  0  0  0  0
   12.7531  -18.6721   23.2867 O   0  0  0  0  0  0  0  0  0  0  0  0
  2  1  1  0
  3  5  1  0
  3  2  1  0
  3  4  1  6
  5  6  2  0
  7  8  1  0
  8  9  2  0
  8 10  1  0
 11 10  1  1
 11 13  1  0
 12 11  1  0
 12  5  1  0
 13 14  2  0
 13 15  1  0
 15 16  1  0
 16 22  1  0
 16 17  1  1
 18 17  1  0
 19 18  1  0
 20 19  1  0
 21 20  1  0
 22 24  2  0
 22 23  1  0
M  END
$$$$
