RPY.pdb
     RDKit          3D

 31 32  0  0  1  0  0  0  0  0999 V2000
    8.4952  -16.9277   13.7159 N   0  0  0  0  0  0  0  0  0  0  0  0
    9.0959  -15.7906   14.2769 C   0  0  0  0  0  0  0  0  0  0  0  0
    9.5671  -14.8749   13.5215 N   0  0  0  0  0  0  0  0  0  0  0  0
    9.1905  -15.6393   15.6847 N   0  0  0  0  0  0  0  0  0  0  0  0
    8.5092  -16.5570   16.6014 C   0  0  0  0  0  0  0  0  0  0  0  0
    8.8354  -16.1004   17.9802 C   0  0  0  0  0  0  0  0  0  0  0  0
    7.8937  -15.1557   18.6215 C   0  0  0  0  0  0  0  0  0  0  0  0
    8.5082  -13.9345   19.2526 C   0  0  2  0  0  0  0  0  0  0  0  0
    9.5246  -13.3426   18.4335 N   0  0  0  0  0  0  0  0  0  0  0  0
    8.8619  -14.1373   20.6566 C   0  0  0  0  0  0  0  0  0  0  0  0
   10.0561  -14.4366   20.9132 O   0  0  0  0  0  0  0  0  0  0  0  0
   10.0506  -14.0677   13.9198 N   0  0  0  0  0  0  0  0  0  0  0  0
    7.9599  -14.0239   21.7758 C   0  0  0  0  0  0  0  0  0  0  0  0
    6.5849  -13.6312   21.6449 C   0  0  0  0  0  0  0  0  0  0  0  0
    6.1290  -13.3552   23.0776 C   0  0  0  0  0  0  0  0  0  0  0  0
    6.9747  -14.3006   23.8929 C   0  0  2  0  0  0  0  0  0  0  0  0
    8.2758  -14.2560   23.1544 C   0  0  0  0  0  0  0  0  0  0  0  0
    8.9262  -15.5827   23.3690 O   0  0  0  0  0  0  0  0  0  0  0  0
    8.7245  -16.4813   22.5272 O   0  0  0  0  0  0  0  0  0  0  0  0
    9.8980  -14.0772   30.4534 C   0  0  0  0  0  0  0  0  0  0  0  0
   10.3357  -14.7318   29.3097 C   0  0  0  0  0  0  0  0  0  0  0  0
    9.4460  -14.9916   28.2913 C   0  0  0  0  0  0  0  0  0  0  0  0
    9.8420  -15.6427   27.1331 C   0  0  0  0  0  0  0  0  0  0  0  0
   11.1436  -16.0612   26.9454 C   0  0  0  0  0  0  0  0  0  0  0  0
   11.5410  -16.7601   25.7100 C   0  0  1  0  0  0  0  0  0  0  0  0
   10.3918  -17.0680   24.7787 N   0  0  0  0  0  0  0  0  0  0  0  0
    9.7422  -15.7710   24.5113 C   0  0  0  0  0  0  0  0  0  0  0  0
    9.4358  -17.9584   25.4833 O   0  0  0  0  0  0  0  0  0  0  0  0
    8.3206  -17.5972   25.8880 C   0  0  0  0  0  0  0  0  0  0  0  0
   12.0430  -15.8003   27.9707 C   0  0  0  0  0  0  0  0  0  0  0  0
   11.6331  -15.1525   29.1141 O   0  0  0  0  0  0  0  0  0  0  0  0
  2  1  1  0
  3  2  2  0
  4  2  1  0
  5  4  1  0
  6  5  1  0
  7  6  1  0
  8  7  1  0
  8  9  1  6
 10  8  1  0
 11 10  2  0
 12 10  1  0
 12 16  1  0
 13 14  1  0
 13 12  1  0
 14 15  1  0
 15 16  1  0
 16 17  1  6
 17 18  2  0
 19 20  1  0
 20 30  2  0
 21 20  1  0
 21 22  2  0
 22 23  1  0
 23 29  2  0
 23 24  1  0
 25 24  1  6
 25 27  1  0
 26 17  1  0
 26 25  1  0
 27 28  2  0
 27 31  1  0
 30 29  1  0
M  END
$$$$
