RPY.pdb
     RDKit          3D

 31 32  0  0  1  0  0  0  0  0999 V2000
    5.3756  -18.8689   19.1835 N   0  0  0  0  0  0  0  0  0  0  0  0
    5.5423  -19.5635   17.9759 C   0  0  0  0  0  0  0  0  0  0  0  0
    4.5564  -20.1815   17.4495 N   0  0  0  0  0  0  0  0  0  0  0  0
    6.8017  -19.5919   17.3226 N   0  0  0  0  0  0  0  0  0  0  0  0
    7.9503  -18.8438   17.8401 C   0  0  0  0  0  0  0  0  0  0  0  0
    8.6389  -18.2524   16.6601 C   0  0  0  0  0  0  0  0  0  0  0  0
    8.2381  -16.8860   16.2565 C   0  0  0  0  0  0  0  0  0  0  0  0
    9.2789  -15.8121   16.4316 C   0  0  2  0  0  0  0  0  0  0  0  0
   10.4520  -16.0469   15.6422 N   0  0  0  0  0  0  0  0  0  0  0  0
    9.5145  -15.4722   17.8339 C   0  0  0  0  0  0  0  0  0  0  0  0
   10.5151  -15.9899   18.3929 O   0  0  0  0  0  0  0  0  0  0  0  0
    4.6495  -20.6303   16.5364 N   0  0  0  0  0  0  0  0  0  0  0  0
    8.6985  -14.5934   18.6346 C   0  0  0  0  0  0  0  0  0  0  0  0
    7.5727  -13.8695   18.1145 C   0  0  0  0  0  0  0  0  0  0  0  0
    7.2251  -12.8644   19.2125 C   0  0  0  0  0  0  0  0  0  0  0  0
    7.6403  -13.5795   20.4734 C   0  0  2  0  0  0  0  0  0  0  0  0
    8.8779  -14.2912   20.0241 C   0  0  0  0  0  0  0  0  0  0  0  0
    8.9812  -15.5233   20.8610 O   0  0  0  0  0  0  0  0  0  0  0  0
    8.5078  -16.5852   20.4082 O   0  0  0  0  0  0  0  0  0  0  0  0
   13.0724  -22.1637   24.2721 C   0  0  0  0  0  0  0  0  0  0  0  0
   12.5530  -20.9927   23.7364 C   0  0  0  0  0  0  0  0  0  0  0  0
   13.4007  -19.9558   23.4162 C   0  0  0  0  0  0  0  0  0  0  0  0
   12.9229  -18.7700   22.8796 C   0  0  0  0  0  0  0  0  0  0  0  0
   11.5782  -18.5718   22.6414 C   0  0  0  0  0  0  0  0  0  0  0  0
   11.0908  -17.2995   22.0789 C   0  0  2  0  0  0  0  0  0  0  0  0
    9.9779  -16.6592   22.8754 N   0  0  0  0  0  0  0  0  0  0  0  0
    9.6080  -15.4421   22.1286 C   0  0  0  0  0  0  0  0  0  0  0  0
   10.5087  -16.2742   24.2071 O   0  0  0  0  0  0  0  0  0  0  0  0
   10.2638  -16.8891   25.2557 C   0  0  0  0  0  0  0  0  0  0  0  0
   10.7210  -19.6158   22.9632 C   0  0  0  0  0  0  0  0  0  0  0  0
   11.2121  -20.7867   23.4951 O   0  0  0  0  0  0  0  0  0  0  0  0
  2  1  1  0
  3  2  2  0
  4  2  1  0
  5  4  1  0
  6  5  1  0
  7  6  1  0
  8  7  1  0
  8  9  1  1
 10  8  1  0
 11 10  2  0
 12 10  1  0
 12 16  1  0
 13 14  1  0
 13 12  1  0
 14 15  1  0
 15 16  1  0
 16 17  1  1
 17 18  2  0
 19 20  1  0
 20 30  2  0
 21 20  1  0
 21 22  2  0
 22 23  1  0
 23 29  2  0
 23 24  1  0
 25 24  1  6
 25 27  1  0
 26 17  1  0
 26 25  1  0
 27 28  2  0
 27 31  1  0
 30 29  1  0
M  END
$$$$
