RPY.pdb
     RDKit          3D

 31 32  0  0  1  0  0  0  0  0999 V2000
    9.2377  -14.6725   17.8328 N   0  0  0  0  0  0  0  0  0  0  0  0
    8.5650  -13.7514   18.6498 C   0  0  0  0  0  0  0  0  0  0  0  0
    8.9059  -12.5207   18.6451 N   0  0  0  0  0  0  0  0  0  0  0  0
    7.5010  -14.1687   19.4909 N   0  0  0  0  0  0  0  0  0  0  0  0
    7.5865  -15.3995   20.2811 C   0  0  0  0  0  0  0  0  0  0  0  0
    6.9450  -16.4706   19.4704 C   0  0  0  0  0  0  0  0  0  0  0  0
    6.9275  -17.8352   20.0432 C   0  0  0  0  0  0  0  0  0  0  0  0
    5.7915  -18.1447   20.9817 C   0  0  2  0  0  0  0  0  0  0  0  0
    4.5293  -17.6713   20.4948 N   0  0  0  0  0  0  0  0  0  0  0  0
    6.0987  -17.8178   22.3732 C   0  0  0  0  0  0  0  0  0  0  0  0
    6.0333  -16.6077   22.7095 O   0  0  0  0  0  0  0  0  0  0  0  0
    8.4223  -11.8432   19.2377 N   0  0  0  0  0  0  0  0  0  0  0  0
    6.4709  -18.7629   23.3965 C   0  0  0  0  0  0  0  0  0  0  0  0
    6.3292  -20.1841   23.2478 C   0  0  0  0  0  0  0  0  0  0  0  0
    6.5481  -20.7386   24.6554 C   0  0  0  0  0  0  0  0  0  0  0  0
    7.4993  -19.7432   25.2701 C   0  0  2  0  0  0  0  0  0  0  0  0
    7.0056  -18.4548   24.6902 C   0  0  0  0  0  0  0  0  0  0  0  0
    8.1897  -17.5490   24.6105 O   0  0  0  0  0  0  0  0  0  0  0  0
    8.9842  -17.6992   23.6603 O   0  0  0  0  0  0  0  0  0  0  0  0
    4.9485  -12.0401   27.8886 C   0  0  0  0  0  0  0  0  0  0  0  0
    6.0751  -12.6162   27.3168 C   0  0  0  0  0  0  0  0  0  0  0  0
    5.9599  -13.3044   26.1297 C   0  0  0  0  0  0  0  0  0  0  0  0
    7.0596  -13.8944   25.5257 C   0  0  0  0  0  0  0  0  0  0  0  0
    8.3196  -13.8211   26.0837 C   0  0  0  0  0  0  0  0  0  0  0  0
    9.4734  -14.4639   25.4294 C   0  0  1  0  0  0  0  0  0  0  0  0
    9.6745  -15.9106   25.8158 N   0  0  0  0  0  0  0  0  0  0  0  0
    8.3662  -16.5598   25.6089 C   0  0  0  0  0  0  0  0  0  0  0  0
   10.0292  -15.9720   27.2558 O   0  0  0  0  0  0  0  0  0  0  0  0
    9.2411  -16.3132   28.1504 C   0  0  0  0  0  0  0  0  0  0  0  0
    8.4387  -13.1277   27.2809 C   0  0  0  0  0  0  0  0  0  0  0  0
    7.3365  -12.5475   27.8670 O   0  0  0  0  0  0  0  0  0  0  0  0
  2  1  1  0
  3  2  2  0
  4  2  1  0
  5  4  1  0
  6  5  1  0
  7  6  1  0
  8  7  1  0
  8  9  1  6
 10  8  1  0
 11 10  2  0
 12 10  1  0
 12 16  1  0
 13 14  1  0
 13 12  1  0
 14 15  1  0
 15 16  1  0
 16 17  1  6
 17 18  2  0
 19 20  1  0
 20 30  2  0
 21 20  1  0
 21 22  2  0
 22 23  1  0
 23 29  2  0
 23 24  1  0
 25 24  1  6
 25 27  1  0
 26 17  1  0
 26 25  1  0
 27 28  2  0
 27 31  1  0
 30 29  1  0
M  END
$$$$
