RPY.pdb
     RDKit          3D

 31 32  0  0  1  0  0  0  0  0999 V2000
   15.0301  -16.1575   17.7039 N   0  0  0  0  0  0  0  0  0  0  0  0
   14.3181  -15.2935   18.5495 C   0  0  0  0  0  0  0  0  0  0  0  0
   14.8714  -14.2330   18.9968 N   0  0  0  0  0  0  0  0  0  0  0  0
   12.9790  -15.5815   18.9207 N   0  0  0  0  0  0  0  0  0  0  0  0
   11.8426  -15.0156   18.1893 C   0  0  0  0  0  0  0  0  0  0  0  0
   11.0519  -14.2289   19.1751 C   0  0  0  0  0  0  0  0  0  0  0  0
   10.0908  -13.2398   18.6377 C   0  0  0  0  0  0  0  0  0  0  0  0
    8.6328  -13.5858   18.7851 C   0  0  2  0  0  0  0  0  0  0  0  0
    7.7683  -12.5424   18.3177 N   0  0  0  0  0  0  0  0  0  0  0  0
    8.3097  -14.1371   20.1001 C   0  0  0  0  0  0  0  0  0  0  0  0
    8.4858  -13.3916   21.0975 O   0  0  0  0  0  0  0  0  0  0  0  0
   15.8482  -14.0239   18.7820 N   0  0  0  0  0  0  0  0  0  0  0  0
    7.8055  -15.4638   20.3548 C   0  0  0  0  0  0  0  0  0  0  0  0
    7.5115  -16.4097   19.3152 C   0  0  0  0  0  0  0  0  0  0  0  0
    6.7330  -17.5208   20.0193 C   0  0  0  0  0  0  0  0  0  0  0  0
    7.2960  -17.4983   21.4180 C   0  0  2  0  0  0  0  0  0  0  0  0
    7.5063  -16.0325   21.6359 C   0  0  0  0  0  0  0  0  0  0  0  0
    8.6488  -15.9093   22.5890 O   0  0  0  0  0  0  0  0  0  0  0  0
    9.8037  -16.0867   22.1514 O   0  0  0  0  0  0  0  0  0  0  0  0
    4.4601  -12.1426   27.1256 C   0  0  0  0  0  0  0  0  0  0  0  0
    5.7017  -12.6452   26.7596 C   0  0  0  0  0  0  0  0  0  0  0  0
    6.0972  -12.5894   25.4418 C   0  0  0  0  0  0  0  0  0  0  0  0
    7.3284  -13.0799   25.0345 C   0  0  0  0  0  0  0  0  0  0  0  0
    8.2146  -13.6466   25.9277 C   0  0  0  0  0  0  0  0  0  0  0  0
    9.5146  -14.1705   25.4715 C   0  0  1  0  0  0  0  0  0  0  0  0
    9.4602  -15.5879   24.9512 N   0  0  0  0  0  0  0  0  0  0  0  0
    8.3819  -15.5977   23.9448 C   0  0  0  0  0  0  0  0  0  0  0  0
    9.0928  -16.4903   26.0711 O   0  0  0  0  0  0  0  0  0  0  0  0
    8.0030  -17.0751   26.1619 C   0  0  0  0  0  0  0  0  0  0  0  0
    7.8184  -13.7041   27.2574 C   0  0  0  0  0  0  0  0  0  0  0  0
    6.5925  -13.2121   27.6448 O   0  0  0  0  0  0  0  0  0  0  0  0
  2  1  1  0
  3  2  2  0
  4  2  1  0
  5  4  1  0
  6  5  1  0
  7  6  1  0
  8  7  1  0
  8  9  1  1
 10  8  1  0
 11 10  2  0
 12 10  1  0
 12 16  1  0
 13 14  1  0
 13 12  1  0
 14 15  1  0
 15 16  1  0
 16 17  1  6
 17 18  2  0
 19 20  1  0
 20 30  2  0
 21 20  1  0
 21 22  2  0
 22 23  1  0
 23 29  2  0
 23 24  1  0
 25 24  1  6
 25 27  1  0
 26 17  1  0
 26 25  1  0
 27 28  2  0
 27 31  1  0
 30 29  1  0
M  END
$$$$
