RPY.pdb
     RDKit          3D

 31 32  0  0  1  0  0  0  0  0999 V2000
   11.2455  -16.3946   14.1234 N   0  0  0  0  0  0  0  0  0  0  0  0
   11.7720  -17.0701   15.2346 C   0  0  0  0  0  0  0  0  0  0  0  0
   12.4463  -18.1427   15.0736 N   0  0  0  0  0  0  0  0  0  0  0  0
   11.5651  -16.5769   16.5490 N   0  0  0  0  0  0  0  0  0  0  0  0
   11.0053  -15.2442   16.7880 C   0  0  0  0  0  0  0  0  0  0  0  0
    9.5347  -15.3587   16.5869 C   0  0  0  0  0  0  0  0  0  0  0  0
    8.7064  -15.6284   17.7835 C   0  0  0  0  0  0  0  0  0  0  0  0
    8.2218  -14.4196   18.5393 C   0  0  2  0  0  0  0  0  0  0  0  0
    8.6510  -13.1884   17.9441 N   0  0  0  0  0  0  0  0  0  0  0  0
    8.4256  -14.5324   19.9826 C   0  0  0  0  0  0  0  0  0  0  0  0
    9.4225  -13.9424   20.4724 O   0  0  0  0  0  0  0  0  0  0  0  0
   12.8901  -18.6043   15.8697 N   0  0  0  0  0  0  0  0  0  0  0  0
    7.5822  -15.2623   20.8964 C   0  0  0  0  0  0  0  0  0  0  0  0
    6.3886  -15.9501   20.4911 C   0  0  0  0  0  0  0  0  0  0  0  0
    5.6847  -16.2979   21.8026 C   0  0  0  0  0  0  0  0  0  0  0  0
    6.8292  -16.4682   22.7694 C   0  0  2  0  0  0  0  0  0  0  0  0
    7.7746  -15.4028   22.3097 C   0  0  0  0  0  0  0  0  0  0  0  0
    9.1467  -15.8846   22.6476 O   0  0  0  0  0  0  0  0  0  0  0  0
    9.7517  -16.5792   21.8060 O   0  0  0  0  0  0  0  0  0  0  0  0
    9.1285  -15.1587   30.3471 C   0  0  0  0  0  0  0  0  0  0  0  0
    9.6953  -15.0529   29.0839 C   0  0  0  0  0  0  0  0  0  0  0  0
   10.7500  -15.8689   28.7403 C   0  0  0  0  0  0  0  0  0  0  0  0
   11.3444  -15.7952   27.4899 C   0  0  0  0  0  0  0  0  0  0  0  0
   10.9092  -14.9027   26.5316 C   0  0  0  0  0  0  0  0  0  0  0  0
   11.5617  -14.8346   25.2117 C   0  0  1  0  0  0  0  0  0  0  0  0
   11.0982  -15.8939   24.2392 N   0  0  0  0  0  0  0  0  0  0  0  0
    9.7071  -15.5380   23.9014 C   0  0  0  0  0  0  0  0  0  0  0  0
   11.1138  -17.2090   24.9274 O   0  0  0  0  0  0  0  0  0  0  0  0
   12.1482  -17.8322   25.2094 C   0  0  0  0  0  0  0  0  0  0  0  0
    9.8456  -14.0786   26.8753 C   0  0  0  0  0  0  0  0  0  0  0  0
    9.2668  -14.1650   28.1213 O   0  0  0  0  0  0  0  0  0  0  0  0
  2  1  1  0
  3  2  2  0
  4  2  1  0
  5  4  1  0
  6  5  1  0
  7  6  1  0
  8  7  1  0
  8  9  1  6
 10  8  1  0
 11 10  2  0
 12 10  1  0
 12 16  1  0
 13 14  1  0
 13 12  1  0
 14 15  1  0
 15 16  1  0
 16 17  1  1
 17 18  2  0
 19 20  1  0
 20 30  2  0
 21 20  1  0
 21 22  2  0
 22 23  1  0
 23 29  2  0
 23 24  1  0
 25 24  1  6
 25 27  1  0
 26 17  1  0
 26 25  1  0
 27 28  2  0
 27 31  1  0
 30 29  1  0
M  END
$$$$
