RPY.pdb
     RDKit          3D

 31 32  0  0  1  0  0  0  0  0999 V2000
    4.1839  -21.5810   22.1242 N   0  0  0  0  0  0  0  0  0  0  0  0
    3.8309  -20.5138   21.2845 C   0  0  0  0  0  0  0  0  0  0  0  0
    2.7232  -19.9017   21.4556 N   0  0  0  0  0  0  0  0  0  0  0  0
    4.6930  -20.0988   20.2365 N   0  0  0  0  0  0  0  0  0  0  0  0
    6.1414  -19.9948   20.4317 C   0  0  0  0  0  0  0  0  0  0  0  0
    6.4679  -18.5424   20.4249 C   0  0  0  0  0  0  0  0  0  0  0  0
    7.0310  -17.9805   19.1768 C   0  0  0  0  0  0  0  0  0  0  0  0
    8.4067  -17.3780   19.2837 C   0  0  2  0  0  0  0  0  0  0  0  0
    9.4483  -18.3504   19.1284 N   0  0  0  0  0  0  0  0  0  0  0  0
    8.5450  -16.4761   20.4260 C   0  0  0  0  0  0  0  0  0  0  0  0
    9.1547  -16.9128   21.4356 O   0  0  0  0  0  0  0  0  0  0  0  0
    2.4710  -19.1054   20.8672 N   0  0  0  0  0  0  0  0  0  0  0  0
    8.0425  -15.1264   20.4973 C   0  0  0  0  0  0  0  0  0  0  0  0
    7.3065  -14.5009   19.4347 C   0  0  0  0  0  0  0  0  0  0  0  0
    7.2596  -13.0229   19.8218 C   0  0  0  0  0  0  0  0  0  0  0  0
    7.2781  -13.0641   21.3290 C   0  0  2  0  0  0  0  0  0  0  0  0
    8.2032  -14.2117   21.5890 C   0  0  0  0  0  0  0  0  0  0  0  0
    7.7790  -14.8065   22.8910 O   0  0  0  0  0  0  0  0  0  0  0  0
    6.5924  -15.1720   23.0136 O   0  0  0  0  0  0  0  0  0  0  0  0
    7.0919  -20.9371   22.5265 C   0  0  0  0  0  0  0  0  0  0  0  0
    7.5879  -19.8712   23.2653 C   0  0  0  0  0  0  0  0  0  0  0  0
    6.8520  -19.3699   24.3157 C   0  0  0  0  0  0  0  0  0  0  0  0
    7.3108  -18.3069   25.0784 C   0  0  0  0  0  0  0  0  0  0  0  0
    8.5240  -17.7011   24.8223 C   0  0  0  0  0  0  0  0  0  0  0  0
    8.9883  -16.5660   25.6399 C   0  0  2  0  0  0  0  0  0  0  0  0
    8.3172  -15.2530   25.3102 N   0  0  0  0  0  0  0  0  0  0  0  0
    8.7320  -14.9332   23.9312 C   0  0  0  0  0  0  0  0  0  0  0  0
    8.8355  -14.2110   26.2315 O   0  0  0  0  0  0  0  0  0  0  0  0
    8.5234  -14.1261   27.4287 C   0  0  0  0  0  0  0  0  0  0  0  0
    9.2683  -18.2047   23.7637 C   0  0  0  0  0  0  0  0  0  0  0  0
    8.7980  -19.2610   23.0166 O   0  0  0  0  0  0  0  0  0  0  0  0
  2  1  1  0
  3  2  2  0
  4  2  1  0
  5  4  1  0
  6  5  1  0
  7  6  1  0
  8  7  1  0
  8  9  1  1
 10  8  1  0
 11 10  2  0
 12 10  1  0
 12 16  1  0
 13 14  1  0
 13 12  1  0
 14 15  1  0
 15 16  1  0
 16 17  1  1
 17 18  2  0
 19 20  1  0
 20 30  2  0
 21 20  1  0
 21 22  2  0
 22 23  1  0
 23 29  2  0
 23 24  1  0
 25 24  1  6
 25 27  1  0
 26 17  1  0
 26 25  1  0
 27 28  2  0
 27 31  1  0
 30 29  1  0
M  END
$$$$
