RPY.pdb
     RDKit          3D

 31 32  0  0  1  0  0  0  0  0999 V2000
    9.2675  -11.6940   19.3433 N   0  0  0  0  0  0  0  0  0  0  0  0
    9.2597  -12.9606   18.7399 C   0  0  0  0  0  0  0  0  0  0  0  0
   10.3567  -13.5078   18.3820 N   0  0  0  0  0  0  0  0  0  0  0  0
    8.0402  -13.6514   18.5175 N   0  0  0  0  0  0  0  0  0  0  0  0
    7.1356  -13.9837   19.6211 C   0  0  0  0  0  0  0  0  0  0  0  0
    7.5028  -15.3534   20.0739 C   0  0  0  0  0  0  0  0  0  0  0  0
    6.4021  -16.3281   20.2450 C   0  0  0  0  0  0  0  0  0  0  0  0
    6.8041  -17.7091   20.6904 C   0  0  2  0  0  0  0  0  0  0  0  0
    5.6787  -18.5752   20.8850 N   0  0  0  0  0  0  0  0  0  0  0  0
    7.7881  -17.6936   21.7715 C   0  0  0  0  0  0  0  0  0  0  0  0
    7.3933  -17.3210   22.9059 O   0  0  0  0  0  0  0  0  0  0  0  0
   10.3573  -14.4081   17.8990 N   0  0  0  0  0  0  0  0  0  0  0  0
    9.1752  -18.0690   21.6513 C   0  0  0  0  0  0  0  0  0  0  0  0
    9.7559  -18.5667   20.4360 C   0  0  0  0  0  0  0  0  0  0  0  0
   11.1210  -19.1085   20.8594 C   0  0  0  0  0  0  0  0  0  0  0  0
   11.4912  -18.2271   22.0255 C   0  0  2  0  0  0  0  0  0  0  0  0
   10.1639  -18.0287   22.6882 C   0  0  0  0  0  0  0  0  0  0  0  0
   10.2244  -16.6963   23.3591 O   0  0  0  0  0  0  0  0  0  0  0  0
   10.5657  -15.7081   22.6781 O   0  0  0  0  0  0  0  0  0  0  0  0
    5.2059  -11.6080   27.6741 C   0  0  0  0  0  0  0  0  0  0  0  0
    6.1663  -12.3060   26.9540 C   0  0  0  0  0  0  0  0  0  0  0  0
    7.1707  -11.6164   26.3123 C   0  0  0  0  0  0  0  0  0  0  0  0
    8.1489  -12.2748   25.5830 C   0  0  0  0  0  0  0  0  0  0  0  0
    8.1629  -13.6497   25.4648 C   0  0  0  0  0  0  0  0  0  0  0  0
    9.2070  -14.3288   24.6765 C   0  0  1  0  0  0  0  0  0  0  0  0
   10.0219  -15.3284   25.4637 N   0  0  0  0  0  0  0  0  0  0  0  0
    9.8945  -16.6037   24.7335 C   0  0  0  0  0  0  0  0  0  0  0  0
    9.4194  -15.4742   26.8124 O   0  0  0  0  0  0  0  0  0  0  0  0
    8.5647  -16.3247   27.1021 C   0  0  0  0  0  0  0  0  0  0  0  0
    7.1513  -14.3477   26.1110 C   0  0  0  0  0  0  0  0  0  0  0  0
    6.1880  -13.6782   26.8313 O   0  0  0  0  0  0  0  0  0  0  0  0
  2  1  1  0
  3  2  2  0
  4  2  1  0
  5  4  1  0
  6  5  1  0
  7  6  1  0
  8  7  1  0
  8  9  1  1
 10  8  1  0
 11 10  2  0
 12 10  1  0
 12 16  1  0
 13 14  1  0
 13 12  1  0
 14 15  1  0
 15 16  1  0
 16 17  1  6
 17 18  2  0
 19 20  1  0
 20 30  2  0
 21 20  1  0
 21 22  2  0
 22 23  1  0
 23 29  2  0
 23 24  1  0
 25 24  1  6
 25 27  1  0
 26 17  1  0
 26 25  1  0
 27 28  2  0
 27 31  1  0
 30 29  1  0
M  END
$$$$
