RPY.pdb
     RDKit          3D

 31 32  0  0  1  0  0  0  0  0999 V2000
    7.5038  -12.4414   18.4562 N   0  0  0  0  0  0  0  0  0  0  0  0
    8.6456  -12.7408   19.2146 C   0  0  0  0  0  0  0  0  0  0  0  0
    9.6810  -11.9972   19.1368 N   0  0  0  0  0  0  0  0  0  0  0  0
    8.6701  -13.8686   20.0756 N   0  0  0  0  0  0  0  0  0  0  0  0
    7.8813  -15.0693   19.7880 C   0  0  0  0  0  0  0  0  0  0  0  0
    6.7972  -15.1198   20.8070 C   0  0  0  0  0  0  0  0  0  0  0  0
    7.1780  -15.5128   22.1822 C   0  0  0  0  0  0  0  0  0  0  0  0
    7.1854  -16.9908   22.4702 C   0  0  2  0  0  0  0  0  0  0  0  0
    5.9073  -17.6017   22.2518 N   0  0  0  0  0  0  0  0  0  0  0  0
    7.8388  -17.3199   23.7359 C   0  0  0  0  0  0  0  0  0  0  0  0
    7.2193  -17.0418   24.7945 O   0  0  0  0  0  0  0  0  0  0  0  0
   10.5529  -12.2674   19.5959 N   0  0  0  0  0  0  0  0  0  0  0  0
    9.1343  -17.9369   23.8779 C   0  0  0  0  0  0  0  0  0  0  0  0
    9.8584  -18.5141   22.7804 C   0  0  0  0  0  0  0  0  0  0  0  0
   10.9917  -19.2984   23.4414 C   0  0  0  0  0  0  0  0  0  0  0  0
   11.2600  -18.5140   24.7010 C   0  0  2  0  0  0  0  0  0  0  0  0
    9.8793  -18.0893   25.0928 C   0  0  0  0  0  0  0  0  0  0  0  0
   10.0297  -16.7990   25.8285 O   0  0  0  0  0  0  0  0  0  0  0  0
   10.2475  -15.7643   25.1660 O   0  0  0  0  0  0  0  0  0  0  0  0
    5.5715  -12.5338   25.2267 C   0  0  0  0  0  0  0  0  0  0  0  0
    6.4925  -13.1185   26.0858 C   0  0  0  0  0  0  0  0  0  0  0  0
    6.3966  -14.4614   26.3751 C   0  0  0  0  0  0  0  0  0  0  0  0
    7.2955  -15.0839   27.2277 C   0  0  0  0  0  0  0  0  0  0  0  0
    8.3269  -14.3895   27.8263 C   0  0  0  0  0  0  0  0  0  0  0  0
    9.2657  -15.0692   28.7370 C   0  0  2  0  0  0  0  0  0  0  0  0
   10.4599  -15.6841   28.0452 N   0  0  0  0  0  0  0  0  0  0  0  0
    9.9203  -16.7966   27.2407 C   0  0  0  0  0  0  0  0  0  0  0  0
   11.3783  -16.2269   29.0774 O   0  0  0  0  0  0  0  0  0  0  0  0
   11.5073  -17.4352   29.3249 C   0  0  0  0  0  0  0  0  0  0  0  0
    8.4261  -13.0351   27.5363 C   0  0  0  0  0  0  0  0  0  0  0  0
    7.5252  -12.4328   26.6874 O   0  0  0  0  0  0  0  0  0  0  0  0
  2  1  1  0
  3  2  2  0
  4  2  1  0
  5  4  1  0
  6  5  1  0
  7  6  1  0
  8  7  1  0
  8  9  1  1
 10  8  1  0
 11 10  2  0
 12 10  1  0
 12 16  1  0
 13 14  1  0
 13 12  1  0
 14 15  1  0
 15 16  1  0
 16 17  1  6
 17 18  2  0
 19 20  1  0
 20 30  2  0
 21 20  1  0
 21 22  2  0
 22 23  1  0
 23 29  2  0
 23 24  1  0
 25 24  1  6
 25 27  1  0
 26 17  1  0
 26 25  1  0
 27 28  2  0
 27 31  1  0
 30 29  1  0
M  END
$$$$
