RPY.pdb
     RDKit          3D

 31 32  0  0  1  0  0  0  0  0999 V2000
    8.3422  -15.2462   17.7960 N   0  0  0  0  0  0  0  0  0  0  0  0
    7.9394  -13.9540   17.4268 C   0  0  0  0  0  0  0  0  0  0  0  0
    8.2003  -13.5097   16.2582 N   0  0  0  0  0  0  0  0  0  0  0  0
    7.2400  -13.1228   18.3399 N   0  0  0  0  0  0  0  0  0  0  0  0
    6.6061  -13.6693   19.5425 C   0  0  0  0  0  0  0  0  0  0  0  0
    7.5992  -13.5377   20.6436 C   0  0  0  0  0  0  0  0  0  0  0  0
    7.2932  -14.2262   21.9176 C   0  0  0  0  0  0  0  0  0  0  0  0
    7.3967  -15.7283   21.8997 C   0  0  2  0  0  0  0  0  0  0  0  0
    6.1503  -16.3633   21.5871 N   0  0  0  0  0  0  0  0  0  0  0  0
    8.1086  -16.2628   23.0594 C   0  0  0  0  0  0  0  0  0  0  0  0
    7.5285  -16.1968   24.1734 O   0  0  0  0  0  0  0  0  0  0  0  0
    7.9893  -12.5415   16.0091 N   0  0  0  0  0  0  0  0  0  0  0  0
    9.4207  -16.8604   23.0385 C   0  0  0  0  0  0  0  0  0  0  0  0
   10.1577  -17.1047   21.8306 C   0  0  0  0  0  0  0  0  0  0  0  0
   11.3134  -18.0062   22.2645 C   0  0  0  0  0  0  0  0  0  0  0  0
   11.5630  -17.5791   23.6889 C   0  0  2  0  0  0  0  0  0  0  0  0
   10.1722  -17.3112   24.1727 C   0  0  0  0  0  0  0  0  0  0  0  0
   10.2891  -16.2600   25.2264 O   0  0  0  0  0  0  0  0  0  0  0  0
   10.7412  -15.1442   24.8986 O   0  0  0  0  0  0  0  0  0  0  0  0
    6.3925  -11.5788   24.7518 C   0  0  0  0  0  0  0  0  0  0  0  0
    7.0855  -12.4176   25.6146 C   0  0  0  0  0  0  0  0  0  0  0  0
    6.5864  -13.6704   25.8932 C   0  0  0  0  0  0  0  0  0  0  0  0
    7.2470  -14.5385   26.7490 C   0  0  0  0  0  0  0  0  0  0  0  0
    8.4334  -14.1898   27.3616 C   0  0  0  0  0  0  0  0  0  0  0  0
    9.1142  -15.1247   28.2755 C   0  0  2  0  0  0  0  0  0  0  0  0
   10.3545  -15.7622   27.6941 N   0  0  0  0  0  0  0  0  0  0  0  0
    9.8856  -16.5656   26.5493 C   0  0  0  0  0  0  0  0  0  0  0  0
   10.9474  -16.6628   28.7142 O   0  0  0  0  0  0  0  0  0  0  0  0
   10.8797  -17.9002   28.6705 C   0  0  0  0  0  0  0  0  0  0  0  0
    8.9390  -12.9270   27.0824 C   0  0  0  0  0  0  0  0  0  0  0  0
    8.2704  -12.0775   26.2301 O   0  0  0  0  0  0  0  0  0  0  0  0
  2  1  1  0
  3  2  2  0
  4  2  1  0
  5  4  1  0
  6  5  1  0
  7  6  1  0
  8  7  1  0
  8  9  1  1
 10  8  1  0
 11 10  2  0
 12 10  1  0
 12 16  1  0
 13 14  1  0
 13 12  1  0
 14 15  1  0
 15 16  1  0
 16 17  1  6
 17 18  2  0
 19 20  1  0
 20 30  2  0
 21 20  1  0
 21 22  2  0
 22 23  1  0
 23 29  2  0
 23 24  1  0
 25 24  1  6
 25 27  1  0
 26 17  1  0
 26 25  1  0
 27 28  2  0
 27 31  1  0
 30 29  1  0
M  END
$$$$
