RPY.pdb
     RDKit          3D

 31 32  0  0  1  0  0  0  0  0999 V2000
    5.7563  -22.4771   17.1097 N   0  0  0  0  0  0  0  0  0  0  0  0
    6.4660  -22.4373   18.3193 C   0  0  0  0  0  0  0  0  0  0  0  0
    7.5507  -23.0988   18.4492 N   0  0  0  0  0  0  0  0  0  0  0  0
    5.9935  -21.6667   19.4133 N   0  0  0  0  0  0  0  0  0  0  0  0
    5.6829  -20.2421   19.2694 C   0  0  0  0  0  0  0  0  0  0  0  0
    6.7913  -19.4970   19.9269 C   0  0  0  0  0  0  0  0  0  0  0  0
    6.7304  -18.0186   19.8879 C   0  0  0  0  0  0  0  0  0  0  0  0
    7.8790  -17.3266   19.2031 C   0  0  2  0  0  0  0  0  0  0  0  0
    8.7425  -18.2407   18.5152 N   0  0  0  0  0  0  0  0  0  0  0  0
    8.5446  -16.3467   20.0600 C   0  0  0  0  0  0  0  0  0  0  0  0
    9.3745  -16.7827   20.8983 O   0  0  0  0  0  0  0  0  0  0  0  0
    8.0879  -23.0545   19.3172 N   0  0  0  0  0  0  0  0  0  0  0  0
    8.3327  -14.9208   20.0285 C   0  0  0  0  0  0  0  0  0  0  0  0
    7.4919  -14.2687   19.0641 C   0  0  0  0  0  0  0  0  0  0  0  0
    7.8137  -12.7826   19.2205 C   0  0  0  0  0  0  0  0  0  0  0  0
    8.1856  -12.6654   20.6771 C   0  0  2  0  0  0  0  0  0  0  0  0
    8.9172  -13.9508   20.9070 C   0  0  0  0  0  0  0  0  0  0  0  0
    8.7155  -14.2974   22.3450 O   0  0  0  0  0  0  0  0  0  0  0  0
    7.8422  -13.6767   22.9844 O   0  0  0  0  0  0  0  0  0  0  0  0
    5.9611  -10.7337   26.8622 C   0  0  0  0  0  0  0  0  0  0  0  0
    6.6064  -11.8843   26.4287 C   0  0  0  0  0  0  0  0  0  0  0  0
    5.8741  -12.9026   25.8604 C   0  0  0  0  0  0  0  0  0  0  0  0
    6.4793  -14.0676   25.4148 C   0  0  0  0  0  0  0  0  0  0  0  0
    7.8414  -14.2628   25.5193 C   0  0  0  0  0  0  0  0  0  0  0  0
    8.4631  -15.5133   25.0476 C   0  0  2  0  0  0  0  0  0  0  0  0
    9.8015  -15.3207   24.3736 N   0  0  0  0  0  0  0  0  0  0  0  0
    9.5167  -15.3106   22.9263 C   0  0  0  0  0  0  0  0  0  0  0  0
   10.6658  -16.4840   24.6944 O   0  0  0  0  0  0  0  0  0  0  0  0
   10.9913  -17.3539   23.8727 C   0  0  0  0  0  0  0  0  0  0  0  0
    8.5825  -13.2375   26.0919 C   0  0  0  0  0  0  0  0  0  0  0  0
    7.9656  -12.0871   26.5289 O   0  0  0  0  0  0  0  0  0  0  0  0
  2  1  1  0
  3  2  2  0
  4  2  1  0
  5  4  1  0
  6  5  1  0
  7  6  1  0
  8  7  1  0
  8  9  1  1
 10  8  1  0
 11 10  2  0
 12 10  1  0
 12 16  1  0
 13 14  1  0
 13 12  1  0
 14 15  1  0
 15 16  1  0
 16 17  1  1
 17 18  2  0
 19 20  1  0
 20 30  2  0
 21 20  1  0
 21 22  2  0
 22 23  1  0
 23 29  2  0
 23 24  1  0
 25 24  1  1
 25 27  1  0
 26 17  1  0
 26 25  1  0
 27 28  2  0
 27 31  1  0
 30 29  1  0
M  END
$$$$
