RPY.pdb
     RDKit          3D

 31 32  0  0  1  0  0  0  0  0999 V2000
   12.1754  -19.5643   20.9656 N   0  0  0  0  0  0  0  0  0  0  0  0
   11.6494  -20.7207   21.5611 C   0  0  0  0  0  0  0  0  0  0  0  0
   12.4292  -21.6556   21.9467 N   0  0  0  0  0  0  0  0  0  0  0  0
   10.2502  -20.8711   21.7435 N   0  0  0  0  0  0  0  0  0  0  0  0
    9.2900  -20.0092   21.0493 C   0  0  0  0  0  0  0  0  0  0  0  0
   10.0394  -19.3332   19.9550 C   0  0  0  0  0  0  0  0  0  0  0  0
    9.2836  -18.3946   19.0957 C   0  0  0  0  0  0  0  0  0  0  0  0
    9.8739  -17.0183   18.9397 C   0  0  2  0  0  0  0  0  0  0  0  0
   11.1892  -17.0436   18.3706 N   0  0  0  0  0  0  0  0  0  0  0  0
    9.7151  -16.1927   20.1358 C   0  0  0  0  0  0  0  0  0  0  0  0
   10.6897  -16.1319   20.9284 O   0  0  0  0  0  0  0  0  0  0  0  0
   12.0670  -22.4536   22.4721 N   0  0  0  0  0  0  0  0  0  0  0  0
    8.5365  -15.4403   20.4877 C   0  0  0  0  0  0  0  0  0  0  0  0
    7.4184  -15.2655   19.6039 C   0  0  0  0  0  0  0  0  0  0  0  0
    6.5765  -14.1743   20.2649 C   0  0  0  0  0  0  0  0  0  0  0  0
    6.8516  -14.3741   21.7340 C   0  0  2  0  0  0  0  0  0  0  0  0
    8.2999  -14.7513   21.7221 C   0  0  0  0  0  0  0  0  0  0  0  0
    8.5147  -15.6304   22.9095 O   0  0  0  0  0  0  0  0  0  0  0  0
    8.4207  -16.8649   22.7540 O   0  0  0  0  0  0  0  0  0  0  0  0
    4.7942  -11.2382   26.7989 C   0  0  0  0  0  0  0  0  0  0  0  0
    5.8815  -12.0982   26.7182 C   0  0  0  0  0  0  0  0  0  0  0  0
    5.6947  -13.4505   26.8982 C   0  0  0  0  0  0  0  0  0  0  0  0
    6.7532  -14.3431   26.8258 C   0  0  0  0  0  0  0  0  0  0  0  0
    8.0419  -13.9205   26.5708 C   0  0  0  0  0  0  0  0  0  0  0  0
    9.1541  -14.8856   26.5074 C   0  0  1  0  0  0  0  0  0  0  0  0
    9.0598  -15.8607   25.3572 N   0  0  0  0  0  0  0  0  0  0  0  0
    8.8152  -15.0355   24.1593 C   0  0  0  0  0  0  0  0  0  0  0  0
    7.8940  -16.7511   25.5847 O   0  0  0  0  0  0  0  0  0  0  0  0
    6.7843  -16.5898   25.0553 C   0  0  0  0  0  0  0  0  0  0  0  0
    8.2331  -12.5572   26.3887 C   0  0  0  0  0  0  0  0  0  0  0  0
    7.1710  -11.6847   26.4637 O   0  0  0  0  0  0  0  0  0  0  0  0
  2  1  1  0
  3  2  2  0
  4  2  1  0
  5  4  1  0
  6  5  1  0
  7  6  1  0
  8  7  1  0
  8  9  1  1
 10  8  1  0
 11 10  2  0
 12 10  1  0
 12 16  1  0
 13 14  1  0
 13 12  1  0
 14 15  1  0
 15 16  1  0
 16 17  1  1
 17 18  2  0
 19 20  1  0
 20 30  2  0
 21 20  1  0
 21 22  2  0
 22 23  1  0
 23 29  2  0
 23 24  1  0
 25 24  1  6
 25 27  1  0
 26 17  1  0
 26 25  1  0
 27 28  2  0
 27 31  1  0
 30 29  1  0
M  END
$$$$
