RPY.pdb
     RDKit          3D

 31 32  0  0  1  0  0  0  0  0999 V2000
    9.9459  -13.4737   19.5487 N   0  0  0  0  0  0  0  0  0  0  0  0
    8.7988  -12.8340   19.0552 C   0  0  0  0  0  0  0  0  0  0  0  0
    8.7143  -11.5599   19.0783 N   0  0  0  0  0  0  0  0  0  0  0  0
    7.7188  -13.5869   18.5256 N   0  0  0  0  0  0  0  0  0  0  0  0
    7.2475  -14.8123   19.1759 C   0  0  0  0  0  0  0  0  0  0  0  0
    8.4298  -15.4191   19.8468 C   0  0  0  0  0  0  0  0  0  0  0  0
    8.4025  -15.5005   21.3245 C   0  0  0  0  0  0  0  0  0  0  0  0
    7.5831  -16.6195   21.9107 C   0  0  2  0  0  0  0  0  0  0  0  0
    6.1863  -16.4939   21.6147 N   0  0  0  0  0  0  0  0  0  0  0  0
    7.9141  -16.8947   23.3079 C   0  0  0  0  0  0  0  0  0  0  0  0
    7.3856  -16.1603   24.1814 O   0  0  0  0  0  0  0  0  0  0  0  0
    7.8901  -11.0850   18.7054 N   0  0  0  0  0  0  0  0  0  0  0  0
    8.7953  -17.9366   23.7737 C   0  0  0  0  0  0  0  0  0  0  0  0
    9.3438  -18.9489   22.9156 C   0  0  0  0  0  0  0  0  0  0  0  0
    9.9408  -19.9792   23.8742 C   0  0  0  0  0  0  0  0  0  0  0  0
   10.3483  -19.1442   25.0618 C   0  0  2  0  0  0  0  0  0  0  0  0
    9.2392  -18.1409   25.1211 C   0  0  0  0  0  0  0  0  0  0  0  0
    9.8241  -16.9031   25.7166 O   0  0  0  0  0  0  0  0  0  0  0  0
   10.5146  -16.1657   24.9843 O   0  0  0  0  0  0  0  0  0  0  0  0
    6.0049  -12.0389   24.7214 C   0  0  0  0  0  0  0  0  0  0  0  0
    6.7983  -12.7001   25.6495 C   0  0  0  0  0  0  0  0  0  0  0  0
    8.1594  -12.4911   25.6534 C   0  0  0  0  0  0  0  0  0  0  0  0
    8.9872  -13.1313   26.5629 C   0  0  0  0  0  0  0  0  0  0  0  0
    8.4884  -14.0071   27.5057 C   0  0  0  0  0  0  0  0  0  0  0  0
    9.3877  -14.6842   28.4572 C   0  0  2  0  0  0  0  0  0  0  0  0
   10.3838  -15.6164   27.8077 N   0  0  0  0  0  0  0  0  0  0  0  0
    9.5755  -16.6133   27.0806 C   0  0  0  0  0  0  0  0  0  0  0  0
   11.1597  -16.2985   28.8736 O   0  0  0  0  0  0  0  0  0  0  0  0
   10.9624  -17.4683   29.2347 C   0  0  0  0  0  0  0  0  0  0  0  0
    7.1162  -14.2196   27.5041 C   0  0  0  0  0  0  0  0  0  0  0  0
    6.3086  -13.5755   26.5942 O   0  0  0  0  0  0  0  0  0  0  0  0
  2  1  1  0
  3  2  2  0
  4  2  1  0
  5  4  1  0
  6  5  1  0
  7  6  1  0
  8  7  1  0
  8  9  1  1
 10  8  1  0
 11 10  2  0
 12 10  1  0
 12 16  1  0
 13 14  1  0
 13 12  1  0
 14 15  1  0
 15 16  1  0
 16 17  1  6
 17 18  2  0
 19 20  1  0
 20 30  2  0
 21 20  1  0
 21 22  2  0
 22 23  1  0
 23 29  2  0
 23 24  1  0
 25 24  1  6
 25 27  1  0
 26 17  1  0
 26 25  1  0
 27 28  2  0
 27 31  1  0
 30 29  1  0
M  END
$$$$
