AVQ.pdb
     RDKit          3D

 22 21  0  0  1  0  0  0  0  0999 V2000
   22.6576  -14.1535  -18.3078 C   0  0  0  0  0  0  0  0  0  0  0  0
   21.1915  -14.2667  -18.6012 C   0  0  2  0  0  0  0  0  0  0  0  0
   20.9526  -14.7873  -19.9333 N   0  0  0  0  0  0  0  0  0  0  0  0
   20.5925  -12.9079  -18.4930 C   0  0  0  0  0  0  0  0  0  0  0  0
   20.8442  -12.0342  -19.3580 O   0  0  0  0  0  0  0  0  0  0  0  0
   17.1150  -12.5120  -16.2120 C   0  0  0  0  0  0  0  0  0  0  0  0
   17.5735  -11.5632  -17.2812 C   0  0  1  0  0  0  0  0  0  0  0  0
   16.9020  -10.2172  -16.9991 C   0  0  0  0  0  0  0  0  0  0  0  0
   19.0514  -11.3230  -17.2738 C   0  0  2  0  0  0  0  0  0  0  0  0
   19.7325  -12.5857  -17.4137 N   0  0  0  0  0  0  0  0  0  0  0  0
   19.5247  -10.5867  -16.0906 C   0  0  0  0  0  0  0  0  0  0  0  0
   19.5795  -11.1873  -14.9903 O   0  0  0  0  0  0  0  0  0  0  0  0
   22.5492   -4.9960  -15.7495 N   0  0  0  0  0  0  0  0  0  0  0  0
   22.3883   -5.3815  -14.3930 C   0  0  0  0  0  0  0  0  0  0  0  0
   22.9362   -4.6621  -13.5309 O   0  0  0  0  0  0  0  0  0  0  0  0
   21.5916   -6.6029  -14.0570 C   0  0  0  0  0  0  0  0  0  0  0  0
   21.0482   -7.2809  -15.2744 C   0  0  0  0  0  0  0  0  0  0  0  0
   20.3457   -8.5450  -14.9372 C   0  0  2  0  0  0  0  0  0  0  0  0
   19.9122   -9.2304  -16.1806 N   0  0  0  0  0  0  0  0  0  0  0  0
   19.1061   -8.2587  -14.1813 C   0  0  0  0  0  0  0  0  0  0  0  0
   19.1031   -8.3402  -12.7701 O   0  0  0  0  0  0  0  0  0  0  0  0
   18.0221   -7.9388  -14.7127 O   0  0  0  0  0  0  0  0  0  0  0  0
  2  3  1  0
  2  1  1  6
  4  5  2  0
  4  2  1  0
  7  6  1  1
  7  9  1  0
  8  7  1  0
  9 11  1  0
  9 10  1  1
 10  4  1  0
 11 19  1  0
 12 11  2  0
 14 15  2  0
 14 13  1  0
 16 14  1  0
 18 17  1  6
 17 16  1  0
 18 20  1  0
 19 18  1  0
 20 22  2  0
 20 21  1  0
M  END
$$$$
