AVQ.pdb
     RDKit          3D

 22 21  0  0  1  0  0  0  0  0999 V2000
   27.4950  -18.2252  -15.3391 C   0  0  0  0  0  0  0  0  0  0  0  0
   28.0163  -19.4733  -14.6917 C   0  0  2  0  0  0  0  0  0  0  0  0
   28.7900  -20.2732  -15.6213 N   0  0  0  0  0  0  0  0  0  0  0  0
   26.8508  -20.2682  -14.2157 C   0  0  0  0  0  0  0  0  0  0  0  0
   26.2407  -21.0314  -15.0032 O   0  0  0  0  0  0  0  0  0  0  0  0
   26.8517  -21.1197  -10.3339 C   0  0  0  0  0  0  0  0  0  0  0  0
   25.4439  -20.9418  -10.8242 C   0  0  1  0  0  0  0  0  0  0  0  0
   24.9727  -19.5704  -10.3350 C   0  0  0  0  0  0  0  0  0  0  0  0
   25.3270  -20.9360  -12.3169 C   0  0  2  0  0  0  0  0  0  0  0  0
   26.4174  -20.1724  -12.8698 N   0  0  0  0  0  0  0  0  0  0  0  0
   24.0278  -20.4473  -12.8062 C   0  0  0  0  0  0  0  0  0  0  0  0
   23.8145  -19.2108  -12.8148 O   0  0  0  0  0  0  0  0  0  0  0  0
   21.9025  -19.5839  -17.2006 N   0  0  0  0  0  0  0  0  0  0  0  0
   20.5587  -19.8823  -16.8546 C   0  0  0  0  0  0  0  0  0  0  0  0
   19.6646  -19.2633  -17.4698 O   0  0  0  0  0  0  0  0  0  0  0  0
   20.2725  -20.8981  -15.7937 C   0  0  0  0  0  0  0  0  0  0  0  0
   21.5200  -21.4273  -15.1607 C   0  0  0  0  0  0  0  0  0  0  0  0
   21.8004  -20.7730  -13.8575 C   0  0  2  0  0  0  0  0  0  0  0  0
   23.0334  -21.3436  -13.2595 N   0  0  0  0  0  0  0  0  0  0  0  0
   20.7146  -21.0601  -12.8937 C   0  0  0  0  0  0  0  0  0  0  0  0
   19.5626  -20.2415  -12.8612 O   0  0  0  0  0  0  0  0  0  0  0  0
   20.7376  -22.0041  -12.0764 O   0  0  0  0  0  0  0  0  0  0  0  0
  2  3  1  0
  2  1  1  6
  4  5  2  0
  4  2  1  0
  7  6  1  6
  7  9  1  0
  8  7  1  0
  9 11  1  0
  9 10  1  6
 10  4  1  0
 11 19  1  0
 12 11  2  0
 14 15  2  0
 14 13  1  0
 16 14  1  0
 18 17  1  6
 17 16  1  0
 18 20  1  0
 19 18  1  0
 20 22  2  0
 20 21  1  0
M  END
$$$$
