AVQ.pdb
     RDKit          3D

 22 21  0  0  1  0  0  0  0  0999 V2000
   14.8258  -11.6151  -10.7711 C   0  0  0  0  0  0  0  0  0  0  0  0
   13.9981  -10.8218   -9.8047 C   0  0  2  0  0  0  0  0  0  0  0  0
   12.5988  -11.1969   -9.8674 N   0  0  0  0  0  0  0  0  0  0  0  0
   14.1338   -9.3809  -10.1544 C   0  0  0  0  0  0  0  0  0  0  0  0
   13.5187   -8.9081  -11.1409 O   0  0  0  0  0  0  0  0  0  0  0  0
   13.3463   -6.4999   -7.8667 C   0  0  0  0  0  0  0  0  0  0  0  0
   14.7812   -6.4013   -8.2967 C   0  0  1  0  0  0  0  0  0  0  0  0
   15.6176   -7.0907   -7.2163 C   0  0  0  0  0  0  0  0  0  0  0  0
   15.0687   -7.1057   -9.5863 C   0  0  2  0  0  0  0  0  0  0  0  0
   14.9577   -8.5279   -9.3788 N   0  0  0  0  0  0  0  0  0  0  0  0
   16.3687   -6.7498  -10.1773 C   0  0  0  0  0  0  0  0  0  0  0  0
   17.4164   -7.0952   -9.5792 O   0  0  0  0  0  0  0  0  0  0  0  0
   19.7327   -9.0201  -13.3535 N   0  0  0  0  0  0  0  0  0  0  0  0
   20.2190   -7.7802  -13.8440 C   0  0  0  0  0  0  0  0  0  0  0  0
   21.3496   -7.7856  -14.3757 O   0  0  0  0  0  0  0  0  0  0  0  0
   19.3821   -6.5472  -13.7074 C   0  0  0  0  0  0  0  0  0  0  0  0
   18.0845   -6.8139  -13.0130 C   0  0  0  0  0  0  0  0  0  0  0  0
   17.7916   -5.7929  -11.9752 C   0  0  2  0  0  0  0  0  0  0  0  0
   16.4474   -6.0337  -11.3933 N   0  0  0  0  0  0  0  0  0  0  0  0
   17.7326   -4.4446  -12.5824 C   0  0  0  0  0  0  0  0  0  0  0  0
   16.4826   -3.8652  -12.8988 O   0  0  0  0  0  0  0  0  0  0  0  0
   18.7383   -3.7531  -12.8471 O   0  0  0  0  0  0  0  0  0  0  0  0
  2  3  1  0
  2  1  1  6
  4  5  2  0
  4  2  1  0
  7  6  1  1
  7  9  1  0
  8  7  1  0
  9 11  1  0
  9 10  1  1
 10  4  1  0
 11 19  1  0
 12 11  2  0
 14 15  2  0
 14 13  1  0
 16 14  1  0
 18 17  1  6
 17 16  1  0
 18 20  1  0
 19 18  1  0
 20 22  2  0
 20 21  1  0
M  END
$$$$
