AVQ.pdb
     RDKit          3D

 22 21  0  0  1  0  0  0  0  0999 V2000
   26.0313  -22.2719  -15.2743 C   0  0  0  0  0  0  0  0  0  0  0  0
   25.0063  -21.3109  -15.7980 C   0  0  2  0  0  0  0  0  0  0  0  0
   25.6242  -20.1247  -16.3582 N   0  0  0  0  0  0  0  0  0  0  0  0
   24.1243  -20.9139  -14.6659 C   0  0  0  0  0  0  0  0  0  0  0  0
   24.6207  -20.4741  -13.6005 O   0  0  0  0  0  0  0  0  0  0  0  0
   22.0051  -18.3645  -14.8370 C   0  0  0  0  0  0  0  0  0  0  0  0
   21.0897  -19.3706  -14.2020 C   0  0  1  0  0  0  0  0  0  0  0  0
   20.0776  -19.7881  -15.2714 C   0  0  0  0  0  0  0  0  0  0  0  0
   21.7892  -20.6163  -13.7539 C   0  0  2  0  0  0  0  0  0  0  0  0
   22.7162  -21.0279  -14.7781 N   0  0  0  0  0  0  0  0  0  0  0  0
   20.8739  -21.7093  -13.3883 C   0  0  0  0  0  0  0  0  0  0  0  0
   20.5169  -22.5183  -14.2786 O   0  0  0  0  0  0  0  0  0  0  0  0
   19.2158  -23.7521   -7.5775 N   0  0  0  0  0  0  0  0  0  0  0  0
   18.6037  -24.6782   -8.4620 C   0  0  0  0  0  0  0  0  0  0  0  0
   17.9842  -25.6316   -7.9439 O   0  0  0  0  0  0  0  0  0  0  0  0
   18.7223  -24.4832   -9.9409 C   0  0  0  0  0  0  0  0  0  0  0  0
   19.5176  -23.2664  -10.2928 C   0  0  0  0  0  0  0  0  0  0  0  0
   19.5346  -23.0202  -11.7571 C   0  0  2  0  0  0  0  0  0  0  0  0
   20.4005  -21.8543  -12.0644 N   0  0  0  0  0  0  0  0  0  0  0  0
   18.1819  -22.6545  -12.2330 C   0  0  0  0  0  0  0  0  0  0  0  0
   17.3052  -23.6553  -12.7107 O   0  0  0  0  0  0  0  0  0  0  0  0
   17.7379  -21.4873  -12.2459 O   0  0  0  0  0  0  0  0  0  0  0  0
  2  3  1  0
  2  1  1  1
  4  5  2  0
  4  2  1  0
  7  6  1  6
  7  9  1  0
  8  7  1  0
  9 11  1  0
  9 10  1  6
 10  4  1  0
 11 19  1  0
 12 11  2  0
 14 15  2  0
 14 13  1  0
 16 14  1  0
 18 17  1  1
 17 16  1  0
 18 20  1  0
 19 18  1  0
 20 22  2  0
 20 21  1  0
M  END
$$$$
