AVQ.pdb
     RDKit          3D

 22 21  0  0  1  0  0  0  0  0999 V2000
   23.7405  -14.7973  -20.3667 C   0  0  0  0  0  0  0  0  0  0  0  0
   24.3463  -14.8362  -18.9956 C   0  0  2  0  0  0  0  0  0  0  0  0
   24.5206  -16.1975  -18.5278 N   0  0  0  0  0  0  0  0  0  0  0  0
   23.4342  -14.1134  -18.0669 C   0  0  0  0  0  0  0  0  0  0  0  0
   22.1974  -14.3235  -18.1030 O   0  0  0  0  0  0  0  0  0  0  0  0
   25.1200  -12.5066  -14.5922 C   0  0  0  0  0  0  0  0  0  0  0  0
   23.6681  -12.8378  -14.7821 C   0  0  1  0  0  0  0  0  0  0  0  0
   22.8830  -11.9838  -13.7839 C   0  0  0  0  0  0  0  0  0  0  0  0
   23.1512  -12.4999  -16.1461 C   0  0  2  0  0  0  0  0  0  0  0  0
   23.9510  -13.1814  -17.1328 N   0  0  0  0  0  0  0  0  0  0  0  0
   23.0878  -11.0539  -16.4128 C   0  0  0  0  0  0  0  0  0  0  0  0
   24.1450  -10.4519  -16.7204 O   0  0  0  0  0  0  0  0  0  0  0  0
   19.6533   -7.9473  -19.8436 N   0  0  0  0  0  0  0  0  0  0  0  0
   20.0649   -6.8428  -19.0527 C   0  0  0  0  0  0  0  0  0  0  0  0
   19.9987   -5.7123  -19.5805 O   0  0  0  0  0  0  0  0  0  0  0  0
   20.5509   -7.0693  -17.6557 C   0  0  0  0  0  0  0  0  0  0  0  0
   20.5867   -8.5199  -17.2933 C   0  0  0  0  0  0  0  0  0  0  0  0
   21.8732   -8.9003  -16.6566 C   0  0  2  0  0  0  0  0  0  0  0  0
   21.8666  -10.3476  -16.3270 N   0  0  0  0  0  0  0  0  0  0  0  0
   22.0374   -8.1937  -15.3667 C   0  0  0  0  0  0  0  0  0  0  0  0
   22.6455   -6.9181  -15.3311 O   0  0  0  0  0  0  0  0  0  0  0  0
   21.6669   -8.6536  -14.2663 O   0  0  0  0  0  0  0  0  0  0  0  0
  2  3  1  0
  2  1  1  6
  4  5  2  0
  4  2  1  0
  7  6  1  6
  7  9  1  0
  8  7  1  0
  9 11  1  0
  9 10  1  6
 10  4  1  0
 11 19  1  0
 12 11  2  0
 14 15  2  0
 14 13  1  0
 16 14  1  0
 18 17  1  1
 17 16  1  0
 18 20  1  0
 19 18  1  0
 20 22  2  0
 20 21  1  0
M  END
$$$$
