AVQ.pdb
     RDKit          3D

 22 21  0  0  1  0  0  0  0  0999 V2000
   17.4835  -15.0751  -15.8945 C   0  0  0  0  0  0  0  0  0  0  0  0
   16.8498  -13.7991  -16.3622 C   0  0  2  0  0  0  0  0  0  0  0  0
   16.0497  -14.0063  -17.5536 N   0  0  0  0  0  0  0  0  0  0  0  0
   17.9366  -12.8279  -16.6664 C   0  0  0  0  0  0  0  0  0  0  0  0
   19.1296  -13.1070  -16.3945 O   0  0  0  0  0  0  0  0  0  0  0  0
   18.6581  -11.8455  -19.9235 C   0  0  0  0  0  0  0  0  0  0  0  0
   18.5474  -10.5279  -19.2126 C   0  0  1  0  0  0  0  0  0  0  0  0
   17.1622   -9.9632  -19.5357 C   0  0  0  0  0  0  0  0  0  0  0  0
   18.6342  -10.6435  -17.7223 C   0  0  2  0  0  0  0  0  0  0  0  0
   17.6372  -11.5791  -17.2655 N   0  0  0  0  0  0  0  0  0  0  0  0
   18.5206   -9.3541  -17.0217 C   0  0  0  0  0  0  0  0  0  0  0  0
   17.3816   -8.8493  -16.8715 O   0  0  0  0  0  0  0  0  0  0  0  0
   19.7184   -7.8441  -11.6309 N   0  0  0  0  0  0  0  0  0  0  0  0
   20.9093   -7.9851  -12.3902 C   0  0  0  0  0  0  0  0  0  0  0  0
   21.9705   -8.1550  -11.7530 O   0  0  0  0  0  0  0  0  0  0  0  0
   20.8497   -7.9246  -13.8842 C   0  0  0  0  0  0  0  0  0  0  0  0
   19.4921   -7.5462  -14.3850 C   0  0  0  0  0  0  0  0  0  0  0  0
   19.4736   -7.3755  -15.8600 C   0  0  2  0  0  0  0  0  0  0  0  0
   19.6643   -8.6894  -16.5241 N   0  0  0  0  0  0  0  0  0  0  0  0
   20.6114   -6.5350  -16.2949 C   0  0  0  0  0  0  0  0  0  0  0  0
   20.6464   -5.1624  -15.9584 O   0  0  0  0  0  0  0  0  0  0  0  0
   21.5790   -6.9594  -16.9607 O   0  0  0  0  0  0  0  0  0  0  0  0
  2  3  1  0
  2  1  1  6
  4  5  2  0
  4  2  1  0
  7  6  1  6
  7  9  1  0
  8  7  1  0
  9 11  1  0
  9 10  1  1
 10  4  1  0
 11 19  1  0
 12 11  2  0
 14 15  2  0
 14 13  1  0
 16 14  1  0
 18 17  1  1
 17 16  1  0
 18 20  1  0
 19 18  1  0
 20 22  2  0
 20 21  1  0
M  END
$$$$
