AVQ.pdb
     RDKit          3D

 22 21  0  0  1  0  0  0  0  0999 V2000
   27.5141  -18.8063  -15.3059 C   0  0  0  0  0  0  0  0  0  0  0  0
   27.9519  -20.0702  -14.6280 C   0  0  2  0  0  0  0  0  0  0  0  0
   28.6302  -20.9619  -15.5484 N   0  0  0  0  0  0  0  0  0  0  0  0
   26.7407  -20.7503  -14.0920 C   0  0  0  0  0  0  0  0  0  0  0  0
   26.0777  -21.5291  -14.8193 O   0  0  0  0  0  0  0  0  0  0  0  0
   26.8345  -21.4041  -10.1935 C   0  0  0  0  0  0  0  0  0  0  0  0
   25.4194  -21.1685  -10.6360 C   0  0  1  0  0  0  0  0  0  0  0  0
   25.0489  -19.7480  -10.2033 C   0  0  0  0  0  0  0  0  0  0  0  0
   25.2388  -21.2329  -12.1210 C   0  0  2  0  0  0  0  0  0  0  0  0
   26.3230  -20.5267  -12.7564 N   0  0  0  0  0  0  0  0  0  0  0  0
   23.9322  -20.7345  -12.5798 C   0  0  0  0  0  0  0  0  0  0  0  0
   23.7968  -19.5044  -12.7880 O   0  0  0  0  0  0  0  0  0  0  0  0
   20.8922  -22.3737  -17.0767 N   0  0  0  0  0  0  0  0  0  0  0  0
   19.8038  -21.7054  -16.4576 C   0  0  0  0  0  0  0  0  0  0  0  0
   18.9131  -21.2563  -17.2099 O   0  0  0  0  0  0  0  0  0  0  0  0
   19.7671  -21.5666  -14.9681 C   0  0  0  0  0  0  0  0  0  0  0  0
   21.0148  -22.0740  -14.3180 C   0  0  0  0  0  0  0  0  0  0  0  0
   21.6124  -21.0671  -13.4047 C   0  0  2  0  0  0  0  0  0  0  0  0
   22.8453  -21.6143  -12.7850 N   0  0  0  0  0  0  0  0  0  0  0  0
   20.6909  -20.7791  -12.2831 C   0  0  0  0  0  0  0  0  0  0  0  0
   19.6664  -19.8176  -12.4381 O   0  0  0  0  0  0  0  0  0  0  0  0
   20.7500  -21.3401  -11.1688 O   0  0  0  0  0  0  0  0  0  0  0  0
  2  3  1  0
  2  1  1  6
  4  5  2  0
  4  2  1  0
  7  6  1  6
  7  9  1  0
  8  7  1  0
  9 11  1  0
  9 10  1  6
 10  4  1  0
 11 19  1  0
 12 11  2  0
 14 15  2  0
 14 13  1  0
 16 14  1  0
 18 17  1  6
 17 16  1  0
 18 20  1  0
 19 18  1  0
 20 22  2  0
 20 21  1  0
M  END
$$$$
