AVQ.pdb
     RDKit          3D

 22 21  0  0  1  0  0  0  0  0999 V2000
   20.8584  -14.7659  -19.4872 C   0  0  0  0  0  0  0  0  0  0  0  0
   22.0284  -15.0082  -18.5812 C   0  0  2  0  0  0  0  0  0  0  0  0
   22.1044  -16.3958  -18.1674 N   0  0  0  0  0  0  0  0  0  0  0  0
   21.8663  -14.1475  -17.3771 C   0  0  0  0  0  0  0  0  0  0  0  0
   20.8034  -14.1844  -16.7108 O   0  0  0  0  0  0  0  0  0  0  0  0
   25.3444  -12.3401  -15.9891 C   0  0  0  0  0  0  0  0  0  0  0  0
   24.1562  -12.4947  -15.0847 C   0  0  1  0  0  0  0  0  0  0  0  0
   24.1849  -11.3173  -14.1076 C   0  0  0  0  0  0  0  0  0  0  0  0
   22.8448  -12.4319  -15.8046 C   0  0  2  0  0  0  0  0  0  0  0  0
   22.9085  -13.2778  -16.9701 N   0  0  0  0  0  0  0  0  0  0  0  0
   22.4284  -11.0649  -16.1563 C   0  0  0  0  0  0  0  0  0  0  0  0
   22.9593  -10.5108  -17.1492 O   0  0  0  0  0  0  0  0  0  0  0  0
   16.8263   -8.4740  -15.5569 N   0  0  0  0  0  0  0  0  0  0  0  0
   17.6088   -7.3828  -16.0170 C   0  0  0  0  0  0  0  0  0  0  0  0
   17.0028   -6.3222  -16.2797 O   0  0  0  0  0  0  0  0  0  0  0  0
   19.0892   -7.5411  -16.1675 C   0  0  0  0  0  0  0  0  0  0  0  0
   19.5536   -8.9178  -15.8123 C   0  0  0  0  0  0  0  0  0  0  0  0
   21.0336   -9.0311  -15.8543 C   0  0  2  0  0  0  0  0  0  0  0  0
   21.4512  -10.3806  -15.3983 N   0  0  0  0  0  0  0  0  0  0  0  0
   21.6497   -8.0764  -14.9061 C   0  0  0  0  0  0  0  0  0  0  0  0
   21.8463   -8.4473  -13.5562 O   0  0  0  0  0  0  0  0  0  0  0  0
   22.0232   -6.9259  -15.2169 O   0  0  0  0  0  0  0  0  0  0  0  0
  2  3  1  0
  2  1  1  6
  4  5  2  0
  4  2  1  0
  7  6  1  6
  7  9  1  0
  8  7  1  0
  9 11  1  0
  9 10  1  6
 10  4  1  0
 11 19  1  0
 12 11  2  0
 14 15  2  0
 14 13  1  0
 16 14  1  0
 18 17  1  1
 17 16  1  0
 18 20  1  0
 19 18  1  0
 20 22  2  0
 20 21  1  0
M  END
$$$$
