AVQ.pdb
     RDKit          3D

 22 21  0  0  1  0  0  0  0  0999 V2000
   15.5182  -11.0396  -15.3360 C   0  0  0  0  0  0  0  0  0  0  0  0
   16.9525  -11.4175  -15.1159 C   0  0  2  0  0  0  0  0  0  0  0  0
   17.0834  -12.8056  -14.7175 N   0  0  0  0  0  0  0  0  0  0  0  0
   17.4997  -10.5466  -14.0393 C   0  0  0  0  0  0  0  0  0  0  0  0
   17.2307  -10.7821  -12.8363 O   0  0  0  0  0  0  0  0  0  0  0  0
   20.6134   -7.6915  -15.0209 C   0  0  0  0  0  0  0  0  0  0  0  0
   20.3854   -8.4016  -13.7180 C   0  0  1  0  0  0  0  0  0  0  0  0
   20.9951   -7.5253  -12.6214 C   0  0  0  0  0  0  0  0  0  0  0  0
   18.9378   -8.5794  -13.3794 C   0  0  2  0  0  0  0  0  0  0  0  0
   18.3294   -9.4434  -14.3598 N   0  0  0  0  0  0  0  0  0  0  0  0
   18.2008   -7.3120  -13.2505 C   0  0  0  0  0  0  0  0  0  0  0  0
   17.7498   -6.7700  -14.2885 O   0  0  0  0  0  0  0  0  0  0  0  0
   16.2158   -6.8013   -8.3621 N   0  0  0  0  0  0  0  0  0  0  0  0
   15.1094   -6.3396   -9.1220 C   0  0  0  0  0  0  0  0  0  0  0  0
   13.9728   -6.6840   -8.7342 O   0  0  0  0  0  0  0  0  0  0  0  0
   15.3411   -5.4830  -10.3269 C   0  0  0  0  0  0  0  0  0  0  0  0
   16.7898   -5.1770  -10.5380 C   0  0  0  0  0  0  0  0  0  0  0  0
   17.2156   -5.4492  -11.9344 C   0  0  2  0  0  0  0  0  0  0  0  0
   17.9991   -6.7089  -11.9883 N   0  0  0  0  0  0  0  0  0  0  0  0
   18.1282   -4.3859  -12.4104 C   0  0  0  0  0  0  0  0  0  0  0  0
   19.5250   -4.6028  -12.4167 O   0  0  0  0  0  0  0  0  0  0  0  0
   17.7463   -3.2704  -12.8221 O   0  0  0  0  0  0  0  0  0  0  0  0
  2  3  1  0
  2  1  1  1
  4  5  2  0
  4  2  1  0
  7  6  1  6
  7  9  1  0
  8  7  1  0
  9 11  1  0
  9 10  1  6
 10  4  1  0
 11 19  1  0
 12 11  2  0
 14 15  2  0
 14 13  1  0
 16 14  1  0
 18 17  1  1
 17 16  1  0
 18 20  1  0
 19 18  1  0
 20 22  2  0
 20 21  1  0
M  END
$$$$
