AVQ.pdb
     RDKit          3D

 22 21  0  0  1  0  0  0  0  0999 V2000
   19.3335  -13.5257  -18.0883 C   0  0  0  0  0  0  0  0  0  0  0  0
   19.7337  -12.5811  -16.9946 C   0  0  2  0  0  0  0  0  0  0  0  0
   19.1821  -12.9821  -15.7150 N   0  0  0  0  0  0  0  0  0  0  0  0
   19.2231  -11.2268  -17.3440 C   0  0  0  0  0  0  0  0  0  0  0  0
   19.6376  -10.6398  -18.3729 O   0  0  0  0  0  0  0  0  0  0  0  0
   15.7202   -9.7778  -15.3644 C   0  0  0  0  0  0  0  0  0  0  0  0
   16.2366   -9.3293  -16.7008 C   0  0  1  0  0  0  0  0  0  0  0  0
   15.7239   -7.9041  -16.9201 C   0  0  0  0  0  0  0  0  0  0  0  0
   17.7309   -9.2714  -16.7757 C   0  0  2  0  0  0  0  0  0  0  0  0
   18.2646  -10.5859  -16.5202 N   0  0  0  0  0  0  0  0  0  0  0  0
   18.3291   -8.2667  -15.8819 C   0  0  0  0  0  0  0  0  0  0  0  0
   18.4601   -8.5455  -14.6655 O   0  0  0  0  0  0  0  0  0  0  0  0
   21.9455   -6.8127  -13.2947 N   0  0  0  0  0  0  0  0  0  0  0  0
   22.0598   -5.4421  -13.6457 C   0  0  0  0  0  0  0  0  0  0  0  0
   22.5403   -4.6751  -12.7844 O   0  0  0  0  0  0  0  0  0  0  0  0
   21.6107   -4.9810  -14.9966 C   0  0  0  0  0  0  0  0  0  0  0  0
   20.9006   -6.0549  -15.7578 C   0  0  0  0  0  0  0  0  0  0  0  0
   19.4512   -6.0951  -15.4372 C   0  0  2  0  0  0  0  0  0  0  0  0
   18.7509   -7.0103  -16.3730 N   0  0  0  0  0  0  0  0  0  0  0  0
   18.8414   -4.7627  -15.6444 C   0  0  0  0  0  0  0  0  0  0  0  0
   18.8467   -3.8117  -14.5985 O   0  0  0  0  0  0  0  0  0  0  0  0
   18.3024   -4.3993  -16.7108 O   0  0  0  0  0  0  0  0  0  0  0  0
  2  3  1  0
  2  1  1  6
  4  5  2  0
  4  2  1  0
  7  6  1  1
  7  9  1  0
  8  7  1  0
  9 11  1  0
  9 10  1  1
 10  4  1  0
 11 19  1  0
 12 11  2  0
 14 15  2  0
 14 13  1  0
 16 14  1  0
 18 17  1  6
 17 16  1  0
 18 20  1  0
 19 18  1  0
 20 22  2  0
 20 21  1  0
M  END
$$$$
