AVQ.pdb
     RDKit          3D

 22 21  0  0  1  0  0  0  0  0999 V2000
   17.1663  -12.2001  -16.9542 C   0  0  0  0  0  0  0  0  0  0  0  0
   18.6383  -12.0880  -16.6912 C   0  0  2  0  0  0  0  0  0  0  0  0
   19.2722  -13.3912  -16.6424 N   0  0  0  0  0  0  0  0  0  0  0  0
   18.8228  -11.4056  -15.3808 C   0  0  0  0  0  0  0  0  0  0  0  0
   18.6592  -12.0378  -14.3090 O   0  0  0  0  0  0  0  0  0  0  0  0
   21.9028   -9.5117  -14.4191 C   0  0  0  0  0  0  0  0  0  0  0  0
   20.7328   -8.5942  -14.2116 C   0  0  1  0  0  0  0  0  0  0  0  0
   20.6497   -7.6935  -15.4461 C   0  0  0  0  0  0  0  0  0  0  0  0
   19.4224   -9.3108  -14.1058 C   0  0  2  0  0  0  0  0  0  0  0  0
   19.1847  -10.0365  -15.3284 N   0  0  0  0  0  0  0  0  0  0  0  0
   18.2911   -8.4287  -13.7771 C   0  0  0  0  0  0  0  0  0  0  0  0
   17.6407   -7.9090  -14.7160 O   0  0  0  0  0  0  0  0  0  0  0  0
   15.4986   -7.4965   -8.1155 N   0  0  0  0  0  0  0  0  0  0  0  0
   14.7414   -6.6922   -9.0068 C   0  0  0  0  0  0  0  0  0  0  0  0
   13.7992   -6.0351   -8.5154 O   0  0  0  0  0  0  0  0  0  0  0  0
   15.0903   -6.6644  -10.4617 C   0  0  0  0  0  0  0  0  0  0  0  0
   16.2765   -7.5185  -10.7791 C   0  0  0  0  0  0  0  0  0  0  0  0
   16.7288   -7.3387  -12.1821 C   0  0  2  0  0  0  0  0  0  0  0  0
   17.9357   -8.1654  -12.4347 N   0  0  0  0  0  0  0  0  0  0  0  0
   17.1444   -5.9372  -12.4129 C   0  0  0  0  0  0  0  0  0  0  0  0
   16.2314   -5.0103  -12.9655 O   0  0  0  0  0  0  0  0  0  0  0  0
   18.2812   -5.4931  -12.1478 O   0  0  0  0  0  0  0  0  0  0  0  0
  2  3  1  0
  2  1  1  1
  4  5  2  0
  4  2  1  0
  7  6  1  6
  7  9  1  0
  8  7  1  0
  9 11  1  0
  9 10  1  6
 10  4  1  0
 11 19  1  0
 12 11  2  0
 14 15  2  0
 14 13  1  0
 16 14  1  0
 18 17  1  1
 17 16  1  0
 18 20  1  0
 19 18  1  0
 20 22  2  0
 20 21  1  0
M  END
$$$$
