AVQ.pdb
     RDKit          3D

 22 21  0  0  1  0  0  0  0  0999 V2000
   13.7154  -13.5511  -14.9816 C   0  0  0  0  0  0  0  0  0  0  0  0
   14.9591  -14.2428  -15.4539 C   0  0  2  0  0  0  0  0  0  0  0  0
   15.1078  -15.5493  -14.8426 N   0  0  0  0  0  0  0  0  0  0  0  0
   16.1269  -13.3956  -15.0860 C   0  0  0  0  0  0  0  0  0  0  0  0
   16.5424  -13.3694  -13.9021 O   0  0  0  0  0  0  0  0  0  0  0  0
   19.4886  -13.4883  -16.4345 C   0  0  0  0  0  0  0  0  0  0  0  0
   19.0457  -12.0656  -16.6174 C   0  0  1  0  0  0  0  0  0  0  0  0
   18.6234  -11.9159  -18.0807 C   0  0  0  0  0  0  0  0  0  0  0  0
   17.8597  -11.6964  -15.7814 C   0  0  2  0  0  0  0  0  0  0  0  0
   16.7819  -12.6100  -16.0669 N   0  0  0  0  0  0  0  0  0  0  0  0
   17.4339  -10.2970  -15.9446 C   0  0  0  0  0  0  0  0  0  0  0  0
   16.6293  -10.0165  -16.8657 O   0  0  0  0  0  0  0  0  0  0  0  0
   14.8354   -4.6910  -16.6236 N   0  0  0  0  0  0  0  0  0  0  0  0
   14.9161   -5.9197  -15.9175 C   0  0  0  0  0  0  0  0  0  0  0  0
   14.1164   -6.8191  -16.2527 O   0  0  0  0  0  0  0  0  0  0  0  0
   15.9274   -6.0851  -14.8271 C   0  0  0  0  0  0  0  0  0  0  0  0
   16.3112   -7.5156  -14.6186 C   0  0  0  0  0  0  0  0  0  0  0  0
   17.5313   -7.8788  -15.3831 C   0  0  2  0  0  0  0  0  0  0  0  0
   17.9152   -9.2819  -15.0871 N   0  0  0  0  0  0  0  0  0  0  0  0
   18.6763   -7.0474  -14.9497 C   0  0  0  0  0  0  0  0  0  0  0  0
   18.7940   -5.7136  -15.4030 O   0  0  0  0  0  0  0  0  0  0  0  0
   19.5804   -7.4471  -14.1864 O   0  0  0  0  0  0  0  0  0  0  0  0
  2  3  1  0
  2  1  1  1
  4  5  2  0
  4  2  1  0
  7  6  1  6
  7  9  1  0
  8  7  1  0
  9 11  1  0
  9 10  1  6
 10  4  1  0
 11 19  1  0
 12 11  2  0
 14 15  2  0
 14 13  1  0
 16 14  1  0
 18 17  1  1
 17 16  1  0
 18 20  1  0
 19 18  1  0
 20 22  2  0
 20 21  1  0
M  END
$$$$
