AVQ.pdb
     RDKit          3D

 22 21  0  0  1  0  0  0  0  0999 V2000
   13.6295  -11.1853  -13.3283 C   0  0  0  0  0  0  0  0  0  0  0  0
   14.0752  -11.7093  -14.6606 C   0  0  2  0  0  0  0  0  0  0  0  0
   14.0976  -13.1590  -14.6833 N   0  0  0  0  0  0  0  0  0  0  0  0
   15.4477  -11.1954  -14.9235 C   0  0  0  0  0  0  0  0  0  0  0  0
   16.4397  -11.7247  -14.3660 O   0  0  0  0  0  0  0  0  0  0  0  0
   16.6588  -11.1093  -18.2917 C   0  0  0  0  0  0  0  0  0  0  0  0
   16.9874   -9.7460  -17.7559 C   0  0  1  0  0  0  0  0  0  0  0  0
   15.9161   -8.7899  -18.2853 C   0  0  0  0  0  0  0  0  0  0  0  0
   16.9443   -9.6646  -16.2614 C   0  0  2  0  0  0  0  0  0  0  0  0
   15.6497  -10.1043  -15.8049 N   0  0  0  0  0  0  0  0  0  0  0  0
   17.2754   -8.3318  -15.7322 C   0  0  0  0  0  0  0  0  0  0  0  0
   16.3396   -7.5806  -15.3653 O   0  0  0  0  0  0  0  0  0  0  0  0
   22.6208   -6.4256  -13.0063 N   0  0  0  0  0  0  0  0  0  0  0  0
   21.8330   -5.2450  -13.0287 C   0  0  0  0  0  0  0  0  0  0  0  0
   22.3089   -4.2359  -12.4665 O   0  0  0  0  0  0  0  0  0  0  0  0
   20.4982   -5.2551  -13.7050 C   0  0  0  0  0  0  0  0  0  0  0  0
   20.1702   -6.5885  -14.2976 C   0  0  0  0  0  0  0  0  0  0  0  0
   18.8760   -6.5678  -15.0257 C   0  0  2  0  0  0  0  0  0  0  0  0
   18.6165   -7.8965  -15.6347 N   0  0  0  0  0  0  0  0  0  0  0  0
   18.9358   -5.6118  -16.1537 C   0  0  0  0  0  0  0  0  0  0  0  0
   18.9644   -6.0883  -17.4843 O   0  0  0  0  0  0  0  0  0  0  0  0
   18.9640   -4.3708  -16.0168 O   0  0  0  0  0  0  0  0  0  0  0  0
  2  3  1  0
  2  1  1  1
  4  5  2  0
  4  2  1  0
  7  6  1  1
  7  9  1  0
  8  7  1  0
  9 11  1  0
  9 10  1  6
 10  4  1  0
 11 19  1  0
 12 11  2  0
 14 15  2  0
 14 13  1  0
 16 14  1  0
 18 17  1  6
 17 16  1  0
 18 20  1  0
 19 18  1  0
 20 22  2  0
 20 21  1  0
M  END
$$$$
