AVQ.pdb
     RDKit          3D

 22 21  0  0  1  0  0  0  0  0999 V2000
   27.1917  -18.1269  -15.5157 C   0  0  0  0  0  0  0  0  0  0  0  0
   27.8114  -19.3420  -14.8928 C   0  0  2  0  0  0  0  0  0  0  0  0
   28.6050  -20.0868  -15.8510 N   0  0  0  0  0  0  0  0  0  0  0  0
   26.7144  -20.2118  -14.3860 C   0  0  0  0  0  0  0  0  0  0  0  0
   26.0927  -20.9689  -15.1704 O   0  0  0  0  0  0  0  0  0  0  0  0
   26.9817  -21.5583  -10.7024 C   0  0  0  0  0  0  0  0  0  0  0  0
   25.5548  -21.1948  -10.9950 C   0  0  1  0  0  0  0  0  0  0  0  0
   25.2770  -19.8718  -10.2776 C   0  0  0  0  0  0  0  0  0  0  0  0
   25.2819  -20.9677  -12.4495 C   0  0  2  0  0  0  0  0  0  0  0  0
   26.3599  -20.1950  -13.0140 N   0  0  0  0  0  0  0  0  0  0  0  0
   23.9767  -20.3416  -12.7154 C   0  0  0  0  0  0  0  0  0  0  0  0
   23.8675  -19.0986  -12.5825 O   0  0  0  0  0  0  0  0  0  0  0  0
   20.7922  -20.9265  -17.6822 N   0  0  0  0  0  0  0  0  0  0  0  0
   20.0575  -19.9380  -16.9766 C   0  0  0  0  0  0  0  0  0  0  0  0
   19.2206  -19.2800  -17.6304 O   0  0  0  0  0  0  0  0  0  0  0  0
   20.3084  -19.7268  -15.5166 C   0  0  0  0  0  0  0  0  0  0  0  0
   21.4624  -20.5349  -15.0143 C   0  0  0  0  0  0  0  0  0  0  0  0
   21.6358  -20.3996  -13.5457 C   0  0  2  0  0  0  0  0  0  0  0  0
   22.8624  -21.1149  -13.1128 N   0  0  0  0  0  0  0  0  0  0  0  0
   20.5153  -21.0529  -12.8331 C   0  0  0  0  0  0  0  0  0  0  0  0
   19.2945  -20.3638  -12.6515 O   0  0  0  0  0  0  0  0  0  0  0  0
   20.5660  -22.2085  -12.3622 O   0  0  0  0  0  0  0  0  0  0  0  0
  2  3  1  0
  2  1  1  6
  4  5  2  0
  4  2  1  0
  7  6  1  6
  7  9  1  0
  8  7  1  0
  9 11  1  0
  9 10  1  1
 10  4  1  0
 11 19  1  0
 12 11  2  0
 14 15  2  0
 14 13  1  0
 16 14  1  0
 18 17  1  6
 17 16  1  0
 18 20  1  0
 19 18  1  0
 20 22  2  0
 20 21  1  0
M  END
$$$$
