KSR.pdb
     RDKit          3D

 27 26  0  0  1  0  0  0  0  0999 V2000
    5.7719  -22.9211   26.0679 N   0  0  0  0  0  0  0  0  0  0  0  0
    6.4604  -22.1916   25.0294 C   0  0  1  0  0  0  0  0  0  0  0  0
    6.0375  -22.6033   23.6696 C   0  0  0  0  0  0  0  0  0  0  0  0
    5.3225  -23.9076   23.6730 C   0  0  0  0  0  0  0  0  0  0  0  0
    4.9170  -24.4710   22.3598 C   0  0  0  0  0  0  0  0  0  0  0  0
    4.1168  -25.7741   22.6092 C   0  0  0  0  0  0  0  0  0  0  0  0
    3.7482  -26.3911   21.3770 N   0  0  0  0  0  0  0  0  0  0  0  0
    6.2043  -20.7299   25.2801 C   0  0  0  0  0  0  0  0  0  0  0  0
    5.1108  -20.2074   24.9730 O   0  0  0  0  0  0  0  0  0  0  0  0
    8.8973  -18.7739   27.6269 O   0  0  0  0  0  0  0  0  0  0  0  0
    7.6963  -18.0925   27.3997 C   0  0  0  0  0  0  0  0  0  0  0  0
    7.0907  -18.4996   26.0512 C   0  0  2  0  0  0  0  0  0  0  0  0
    7.2115  -19.9212   25.8738 N   0  0  0  0  0  0  0  0  0  0  0  0
    7.8866  -17.8192   25.0045 C   0  0  0  0  0  0  0  0  0  0  0  0
    8.8768  -18.4345   24.5201 O   0  0  0  0  0  0  0  0  0  0  0  0
    6.9338  -12.1745   18.9524 N   0  0  0  0  0  0  0  0  0  0  0  0
    7.7899  -13.2358   18.6077 C   0  0  0  0  0  0  0  0  0  0  0  0
    7.9399  -13.5552   17.3814 N   0  0  0  0  0  0  0  0  0  0  0  0
    8.4824  -13.9451   19.6295 N   0  0  0  0  0  0  0  0  0  0  0  0
    7.8227  -14.4607   20.7964 C   0  0  0  0  0  0  0  0  0  0  0  0
    8.6091  -13.9674   22.0042 C   0  0  0  0  0  0  0  0  0  0  0  0
    8.0197  -14.5212   23.2555 C   0  0  0  0  0  0  0  0  0  0  0  0
    8.5767  -15.8471   23.6839 C   0  0  2  0  0  0  0  0  0  0  0  0
    7.6023  -16.5213   24.5161 N   0  0  0  0  0  0  0  0  0  0  0  0
    9.8931  -15.7525   24.3480 C   0  0  0  0  0  0  0  0  0  0  0  0
   10.0539  -15.5238   25.5700 O   0  0  0  0  0  0  0  0  0  0  0  0
   11.0794  -15.9221   23.6083 O   0  0  0  0  0  0  0  0  0  0  0  0
  2  1  1  1
  2  3  1  0
  3  4  1  0
  4  5  1  0
  5  6  1  0
  6  7  1  0
  8  2  1  0
  8  9  2  0
 11 10  1  0
 12 11  1  1
 12 13  1  0
 13  8  1  0
 14 12  1  0
 15 14  2  0
 17 16  1  0
 18 17  2  0
 19 17  1  0
 20 19  1  0
 21 22  1  0
 21 20  1  0
 23 24  1  0
 23 22  1  1
 24 14  1  0
 25 23  1  0
 26 25  2  0
 27 25  1  0
M  END
$$$$
