KSR.pdb
     RDKit          3D

 27 26  0  0  1  0  0  0  0  0999 V2000
    8.5044  -15.9229   19.7082 N   0  0  0  0  0  0  0  0  0  0  0  0
    8.2828  -14.7522   20.5237 C   0  0  1  0  0  0  0  0  0  0  0  0
    7.3290  -13.8008   19.9051 C   0  0  0  0  0  0  0  0  0  0  0  0
    7.8492  -13.2280   18.6348 C   0  0  0  0  0  0  0  0  0  0  0  0
    7.6153  -14.0002   17.3876 C   0  0  0  0  0  0  0  0  0  0  0  0
    8.2014  -13.2011   16.1966 C   0  0  0  0  0  0  0  0  0  0  0  0
    7.8609  -13.8130   14.9538 N   0  0  0  0  0  0  0  0  0  0  0  0
    7.8024  -15.2391   21.8643 C   0  0  0  0  0  0  0  0  0  0  0  0
    7.4894  -14.4320   22.7664 O   0  0  0  0  0  0  0  0  0  0  0  0
    8.1016  -19.3250   22.6544 O   0  0  0  0  0  0  0  0  0  0  0  0
    6.9919  -18.6844   23.2172 C   0  0  0  0  0  0  0  0  0  0  0  0
    7.2572  -17.1825   23.3744 C   0  0  2  0  0  0  0  0  0  0  0  0
    7.6986  -16.6334   22.1211 N   0  0  0  0  0  0  0  0  0  0  0  0
    8.3479  -17.0444   24.3660 C   0  0  0  0  0  0  0  0  0  0  0  0
    9.5354  -17.1940   23.9645 O   0  0  0  0  0  0  0  0  0  0  0  0
    7.3478  -11.0368   26.8055 N   0  0  0  0  0  0  0  0  0  0  0  0
    6.4976  -12.1088   26.4800 C   0  0  0  0  0  0  0  0  0  0  0  0
    5.2889  -11.8781   26.1426 N   0  0  0  0  0  0  0  0  0  0  0  0
    6.9924  -13.4429   26.5293 N   0  0  0  0  0  0  0  0  0  0  0  0
    8.2473  -13.8246   25.9443 C   0  0  0  0  0  0  0  0  0  0  0  0
    9.2021  -14.1158   27.0950 C   0  0  0  0  0  0  0  0  0  0  0  0
    8.9828  -15.5004   27.5996 C   0  0  0  0  0  0  0  0  0  0  0  0
    9.2793  -16.5885   26.6096 C   0  0  2  0  0  0  0  0  0  0  0  0
    8.1370  -16.7548   25.7356 N   0  0  0  0  0  0  0  0  0  0  0  0
    9.6831  -17.8656   27.2330 C   0  0  0  0  0  0  0  0  0  0  0  0
    8.9820  -18.9048   27.2344 O   0  0  0  0  0  0  0  0  0  0  0  0
   10.9275  -17.9808   27.8822 O   0  0  0  0  0  0  0  0  0  0  0  0
  2  1  1  6
  2  3  1  0
  3  4  1  0
  4  5  1  0
  5  6  1  0
  6  7  1  0
  8  2  1  0
  8  9  2  0
 11 10  1  0
 12 11  1  6
 12 13  1  0
 13  8  1  0
 14 12  1  0
 15 14  2  0
 17 16  1  0
 18 17  2  0
 19 17  1  0
 20 19  1  0
 21 22  1  0
 21 20  1  0
 23 24  1  0
 23 22  1  1
 24 14  1  0
 25 23  1  0
 26 25  2  0
 27 25  1  0
M  END
$$$$
