KSR.pdb
     RDKit          3D

 27 26  0  0  1  0  0  0  0  0999 V2000
    6.7665  -21.5984   26.6559 N   0  0  0  0  0  0  0  0  0  0  0  0
    6.6846  -21.1038   25.3019 C   0  0  1  0  0  0  0  0  0  0  0  0
    5.5783  -21.7255   24.5356 C   0  0  0  0  0  0  0  0  0  0  0  0
    5.7570  -23.1939   24.3795 C   0  0  0  0  0  0  0  0  0  0  0  0
    6.9259  -23.6626   23.5919 C   0  0  0  0  0  0  0  0  0  0  0  0
    6.9149  -25.2118   23.5691 C   0  0  0  0  0  0  0  0  0  0  0  0
    8.1168  -25.7230   22.9957 N   0  0  0  0  0  0  0  0  0  0  0  0
    6.5365  -19.6088   25.3918 C   0  0  0  0  0  0  0  0  0  0  0  0
    5.5322  -19.0333   24.9194 O   0  0  0  0  0  0  0  0  0  0  0  0
    9.2287  -17.4005   27.6675 O   0  0  0  0  0  0  0  0  0  0  0  0
    8.1678  -16.7212   27.0581 C   0  0  0  0  0  0  0  0  0  0  0  0
    7.7448  -17.4282   25.7651 C   0  0  2  0  0  0  0  0  0  0  0  0
    7.5453  -18.8290   26.0203 N   0  0  0  0  0  0  0  0  0  0  0  0
    8.8646  -17.2726   24.8091 C   0  0  0  0  0  0  0  0  0  0  0  0
    9.6858  -18.2250   24.6991 O   0  0  0  0  0  0  0  0  0  0  0  0
    8.9446  -12.6416   17.8370 N   0  0  0  0  0  0  0  0  0  0  0  0
    8.4738  -12.3607   19.1321 C   0  0  0  0  0  0  0  0  0  0  0  0
    8.4905  -11.1605   19.5651 N   0  0  0  0  0  0  0  0  0  0  0  0
    7.9821  -13.4174   19.9497 N   0  0  0  0  0  0  0  0  0  0  0  0
    7.8948  -14.7750   19.4893 C   0  0  0  0  0  0  0  0  0  0  0  0
    8.9080  -15.5810   20.2922 C   0  0  0  0  0  0  0  0  0  0  0  0
    8.6029  -15.4763   21.7468 C   0  0  0  0  0  0  0  0  0  0  0  0
    9.5064  -16.2735   22.6413 C   0  0  2  0  0  0  0  0  0  0  0  0
    9.0674  -16.1200   24.0125 N   0  0  0  0  0  0  0  0  0  0  0  0
   10.9384  -15.9462   22.4842 C   0  0  0  0  0  0  0  0  0  0  0  0
   11.6209  -15.3308   23.3368 O   0  0  0  0  0  0  0  0  0  0  0  0
   11.6338  -16.3263   21.3201 O   0  0  0  0  0  0  0  0  0  0  0  0
  2  1  1  1
  2  3  1  0
  3  4  1  0
  4  5  1  0
  5  6  1  0
  6  7  1  0
  8  2  1  0
  8  9  2  0
 11 10  1  0
 12 11  1  1
 12 13  1  0
 13  8  1  0
 14 12  1  0
 15 14  2  0
 17 16  1  0
 18 17  2  0
 19 17  1  0
 20 19  1  0
 21 22  1  0
 21 20  1  0
 23 24  1  0
 23 22  1  6
 24 14  1  0
 25 23  1  0
 26 25  2  0
 27 25  1  0
M  END
$$$$
