KSR.pdb
     RDKit          3D

 27 26  0  0  1  0  0  0  0  0999 V2000
   10.7718  -18.0730   16.3142 N   0  0  0  0  0  0  0  0  0  0  0  0
   10.9008  -18.7841   17.5641 C   0  0  1  0  0  0  0  0  0  0  0  0
   12.3129  -18.9349   17.9892 C   0  0  0  0  0  0  0  0  0  0  0  0
   12.9227  -20.1928   17.4810 C   0  0  0  0  0  0  0  0  0  0  0  0
   14.3600  -20.4258   17.7747 C   0  0  0  0  0  0  0  0  0  0  0  0
   14.7996  -21.7357   17.0737 C   0  0  0  0  0  0  0  0  0  0  0  0
   16.1457  -22.0678   17.4090 N   0  0  0  0  0  0  0  0  0  0  0  0
   10.0844  -18.0318   18.5802 C   0  0  0  0  0  0  0  0  0  0  0  0
   10.0911  -16.7819   18.6116 O   0  0  0  0  0  0  0  0  0  0  0  0
    8.0299  -20.2979   21.4144 O   0  0  0  0  0  0  0  0  0  0  0  0
    7.4329  -19.0851   21.0520 C   0  0  0  0  0  0  0  0  0  0  0  0
    8.4847  -18.1007   20.5272 C   0  0  2  0  0  0  0  0  0  0  0  0
    9.2902  -18.7403   19.5226 N   0  0  0  0  0  0  0  0  0  0  0  0
    9.3480  -17.7473   21.6769 C   0  0  0  0  0  0  0  0  0  0  0  0
   10.4591  -18.3365   21.7860 O   0  0  0  0  0  0  0  0  0  0  0  0
    9.8330  -16.0283   28.9421 N   0  0  0  0  0  0  0  0  0  0  0  0
   10.2341  -14.6828   29.0245 C   0  0  0  0  0  0  0  0  0  0  0  0
   10.5984  -14.1987   30.1475 N   0  0  0  0  0  0  0  0  0  0  0  0
   10.2306  -13.8717   27.8545 N   0  0  0  0  0  0  0  0  0  0  0  0
    9.3882  -14.1478   26.7245 C   0  0  0  0  0  0  0  0  0  0  0  0
   10.0868  -15.2243   25.9037 C   0  0  0  0  0  0  0  0  0  0  0  0
    9.2941  -15.5236   24.6781 C   0  0  0  0  0  0  0  0  0  0  0  0
    9.9008  -16.5508   23.7678 C   0  0  2  0  0  0  0  0  0  0  0  0
    9.0006  -16.7888   22.6590 N   0  0  0  0  0  0  0  0  0  0  0  0
   10.2720  -17.8065   24.4519 C   0  0  0  0  0  0  0  0  0  0  0  0
    9.4917  -18.7708   24.6326 O   0  0  0  0  0  0  0  0  0  0  0  0
   11.5751  -17.9872   24.9544 O   0  0  0  0  0  0  0  0  0  0  0  0
  2  1  1  6
  2  3  1  0
  3  4  1  0
  4  5  1  0
  5  6  1  0
  6  7  1  0
  8  2  1  0
  8  9  2  0
 11 10  1  0
 12 11  1  1
 12 13  1  0
 13  8  1  0
 14 12  1  0
 15 14  2  0
 17 16  1  0
 18 17  2  0
 19 17  1  0
 20 19  1  0
 21 22  1  0
 21 20  1  0
 23 24  1  0
 23 22  1  1
 24 14  1  0
 25 23  1  0
 26 25  2  0
 27 25  1  0
M  END
$$$$
