KSR.pdb
     RDKit          3D

 27 26  0  0  1  0  0  0  0  0999 V2000
    4.3799  -20.4694   15.4074 N   0  0  0  0  0  0  0  0  0  0  0  0
    4.5377  -20.2339   16.8231 C   0  0  1  0  0  0  0  0  0  0  0  0
    4.0919  -21.3849   17.6441 C   0  0  0  0  0  0  0  0  0  0  0  0
    3.8082  -22.5891   16.8183 C   0  0  0  0  0  0  0  0  0  0  0  0
    3.2787  -23.7893   17.5151 C   0  0  0  0  0  0  0  0  0  0  0  0
    3.1209  -24.9304   16.4789 C   0  0  0  0  0  0  0  0  0  0  0  0
    2.6519  -26.1249   17.1017 N   0  0  0  0  0  0  0  0  0  0  0  0
    5.9891  -19.9078   17.0519 C   0  0  0  0  0  0  0  0  0  0  0  0
    6.8762  -20.3624   16.2973 O   0  0  0  0  0  0  0  0  0  0  0  0
    6.8592  -17.7035   20.4252 O   0  0  0  0  0  0  0  0  0  0  0  0
    7.7194  -17.4552   19.3497 C   0  0  0  0  0  0  0  0  0  0  0  0
    7.7194  -18.6374   18.3735 C   0  0  2  0  0  0  0  0  0  0  0  0
    6.3696  -19.0725   18.1374 N   0  0  0  0  0  0  0  0  0  0  0  0
    8.4653  -19.7335   19.0325 C   0  0  0  0  0  0  0  0  0  0  0  0
    7.8060  -20.5879   19.6875 O   0  0  0  0  0  0  0  0  0  0  0  0
   14.2209  -25.3977   18.8160 N   0  0  0  0  0  0  0  0  0  0  0  0
   13.8664  -24.6434   17.6831 C   0  0  0  0  0  0  0  0  0  0  0  0
   13.6422  -25.2340   16.5744 N   0  0  0  0  0  0  0  0  0  0  0  0
   13.7603  -23.2272   17.7822 N   0  0  0  0  0  0  0  0  0  0  0  0
   13.9546  -22.5216   19.0180 C   0  0  0  0  0  0  0  0  0  0  0  0
   12.5854  -22.3894   19.6726 C   0  0  0  0  0  0  0  0  0  0  0  0
   11.8373  -21.2549   19.0617 C   0  0  0  0  0  0  0  0  0  0  0  0
   10.5052  -20.9651   19.6890 C   0  0  2  0  0  0  0  0  0  0  0  0
    9.8721  -19.8789   18.9708 N   0  0  0  0  0  0  0  0  0  0  0  0
   10.5774  -20.6946   21.1397 C   0  0  0  0  0  0  0  0  0  0  0  0
   10.4494  -21.5686   22.0292 O   0  0  0  0  0  0  0  0  0  0  0  0
   10.8032  -19.3872   21.6115 O   0  0  0  0  0  0  0  0  0  0  0  0
  2  1  1  6
  2  3  1  0
  3  4  1  0
  4  5  1  0
  5  6  1  0
  6  7  1  0
  8  2  1  0
  8  9  2  0
 11 10  1  0
 12 11  1  1
 12 13  1  0
 13  8  1  0
 14 12  1  0
 15 14  2  0
 17 16  1  0
 18 17  2  0
 19 17  1  0
 20 19  1  0
 21 22  1  0
 21 20  1  0
 23 24  1  0
 23 22  1  6
 24 14  1  0
 25 23  1  0
 26 25  2  0
 27 25  1  0
M  END
$$$$
