KSR.pdb
     RDKit          3D

 27 26  0  0  1  0  0  0  0  0999 V2000
    8.3901  -16.2689   16.2763 N   0  0  0  0  0  0  0  0  0  0  0  0
    7.5700  -16.4659   17.4481 C   0  0  1  0  0  0  0  0  0  0  0  0
    7.2163  -17.8896   17.6616 C   0  0  0  0  0  0  0  0  0  0  0  0
    6.5636  -18.4926   16.4687 C   0  0  0  0  0  0  0  0  0  0  0  0
    7.1123  -19.7768   15.9625 C   0  0  0  0  0  0  0  0  0  0  0  0
    6.2156  -20.2707   14.7995 C   0  0  0  0  0  0  0  0  0  0  0  0
    6.7235  -21.4811   14.2412 N   0  0  0  0  0  0  0  0  0  0  0  0
    8.3306  -15.8939   18.6140 C   0  0  0  0  0  0  0  0  0  0  0  0
    9.5808  -15.8896   18.6254 O   0  0  0  0  0  0  0  0  0  0  0  0
    6.2082  -15.0161   22.0895 O   0  0  0  0  0  0  0  0  0  0  0  0
    7.2335  -14.1152   21.7806 C   0  0  0  0  0  0  0  0  0  0  0  0
    8.2776  -14.7753   20.8724 C   0  0  2  0  0  0  0  0  0  0  0  0
    7.6297  -15.3479   19.7237 N   0  0  0  0  0  0  0  0  0  0  0  0
    8.9000  -15.8633   21.6604 C   0  0  0  0  0  0  0  0  0  0  0  0
    8.4550  -17.0346   21.5068 O   0  0  0  0  0  0  0  0  0  0  0  0
   16.3858  -19.5245   22.2220 N   0  0  0  0  0  0  0  0  0  0  0  0
   15.1614  -20.1683   21.9683 C   0  0  0  0  0  0  0  0  0  0  0  0
   15.1420  -21.2434   21.2813 N   0  0  0  0  0  0  0  0  0  0  0  0
   13.9534  -19.6156   22.4803 N   0  0  0  0  0  0  0  0  0  0  0  0
   13.9233  -18.4068   23.2552 C   0  0  0  0  0  0  0  0  0  0  0  0
   12.4852  -18.2139   23.7193 C   0  0  0  0  0  0  0  0  0  0  0  0
   11.8597  -17.0819   22.9795 C   0  0  0  0  0  0  0  0  0  0  0  0
   10.4388  -16.7857   23.3605 C   0  0  2  0  0  0  0  0  0  0  0  0
    9.9632  -15.6668   22.5742 N   0  0  0  0  0  0  0  0  0  0  0  0
   10.2460  -16.5600   24.8078 C   0  0  0  0  0  0  0  0  0  0  0  0
    9.8511  -15.4809   25.3088 O   0  0  0  0  0  0  0  0  0  0  0  0
   10.5076  -17.5900   25.7318 O   0  0  0  0  0  0  0  0  0  0  0  0
  2  1  1  6
  2  3  1  0
  3  4  1  0
  4  5  1  0
  5  6  1  0
  6  7  1  0
  8  2  1  0
  8  9  2  0
 11 10  1  0
 12 11  1  1
 12 13  1  0
 13  8  1  0
 14 12  1  0
 15 14  2  0
 17 16  1  0
 18 17  2  0
 19 17  1  0
 20 19  1  0
 21 22  1  0
 21 20  1  0
 23 24  1  0
 23 22  1  1
 24 14  1  0
 25 23  1  0
 26 25  2  0
 27 25  1  0
M  END
$$$$
