KSR.pdb
     RDKit          3D

 27 26  0  0  1  0  0  0  0  0999 V2000
   10.6718  -20.3628   16.4979 N   0  0  0  0  0  0  0  0  0  0  0  0
   11.6786  -19.8353   17.3881 C   0  0  1  0  0  0  0  0  0  0  0  0
   12.3244  -18.6122   16.8548 C   0  0  0  0  0  0  0  0  0  0  0  0
   12.0218  -18.3981   15.4143 C   0  0  0  0  0  0  0  0  0  0  0  0
   12.5519  -17.1650   14.7779 C   0  0  0  0  0  0  0  0  0  0  0  0
   12.1526  -17.1731   13.2809 C   0  0  0  0  0  0  0  0  0  0  0  0
   12.6604  -16.0209   12.6104 N   0  0  0  0  0  0  0  0  0  0  0  0
   11.0041  -19.5849   18.7100 C   0  0  0  0  0  0  0  0  0  0  0  0
    9.7775  -19.3510   18.7712 O   0  0  0  0  0  0  0  0  0  0  0  0
   13.3421  -20.3040   22.0265 O   0  0  0  0  0  0  0  0  0  0  0  0
   11.9691  -20.5463   22.1472 C   0  0  0  0  0  0  0  0  0  0  0  0
   11.1728  -19.6156   21.2250 C   0  0  2  0  0  0  0  0  0  0  0  0
   11.7610  -19.6122   19.9131 N   0  0  0  0  0  0  0  0  0  0  0  0
   11.2793  -18.2549   21.7988 C   0  0  0  0  0  0  0  0  0  0  0  0
   12.2995  -17.5693   21.5110 O   0  0  0  0  0  0  0  0  0  0  0  0
    8.0476  -12.0754   19.8780 N   0  0  0  0  0  0  0  0  0  0  0  0
    7.7234  -13.2922   19.2518 C   0  0  0  0  0  0  0  0  0  0  0  0
    7.8265  -13.3990   17.9845 N   0  0  0  0  0  0  0  0  0  0  0  0
    7.2829  -14.3952   20.0368 N   0  0  0  0  0  0  0  0  0  0  0  0
    7.5969  -14.5259   21.4322 C   0  0  0  0  0  0  0  0  0  0  0  0
    8.9189  -15.2778   21.5202 C   0  0  0  0  0  0  0  0  0  0  0  0
    9.2622  -15.5373   22.9466 C   0  0  0  0  0  0  0  0  0  0  0  0
   10.5120  -16.3400   23.1602 C   0  0  2  0  0  0  0  0  0  0  0  0
   10.3054  -17.6790   22.6496 N   0  0  0  0  0  0  0  0  0  0  0  0
   10.9775  -16.3536   24.5623 C   0  0  0  0  0  0  0  0  0  0  0  0
   10.7811  -17.2976   25.3635 O   0  0  0  0  0  0  0  0  0  0  0  0
   11.6943  -15.2609   25.0869 O   0  0  0  0  0  0  0  0  0  0  0  0
  2  1  1  6
  2  3  1  0
  3  4  1  0
  4  5  1  0
  5  6  1  0
  6  7  1  0
  8  2  1  0
  8  9  2  0
 11 10  1  0
 12 11  1  1
 12 13  1  0
 13  8  1  0
 14 12  1  0
 15 14  2  0
 17 16  1  0
 18 17  2  0
 19 17  1  0
 20 19  1  0
 21 22  1  0
 21 20  1  0
 23 24  1  0
 23 22  1  1
 24 14  1  0
 25 23  1  0
 26 25  2  0
 27 25  1  0
M  END
$$$$
