KSR.pdb
     RDKit          3D

 27 26  0  0  1  0  0  0  0  0999 V2000
    7.9062  -12.8019   19.7680 N   0  0  0  0  0  0  0  0  0  0  0  0
    7.3938  -13.7926   20.6849 C   0  0  1  0  0  0  0  0  0  0  0  0
    7.6080  -15.1779   20.2029 C   0  0  0  0  0  0  0  0  0  0  0  0
    7.4312  -15.2955   18.7307 C   0  0  0  0  0  0  0  0  0  0  0  0
    7.5713  -16.6463   18.1287 C   0  0  0  0  0  0  0  0  0  0  0  0
    7.2605  -16.5448   16.6142 C   0  0  0  0  0  0  0  0  0  0  0  0
    7.2954  -17.8309   15.9982 N   0  0  0  0  0  0  0  0  0  0  0  0
    8.0635  -13.5479   22.0103 C   0  0  0  0  0  0  0  0  0  0  0  0
    9.2888  -13.3082   22.0763 O   0  0  0  0  0  0  0  0  0  0  0  0
    5.7013  -13.3306   25.4921 O   0  0  0  0  0  0  0  0  0  0  0  0
    7.0196  -12.8615   25.5133 C   0  0  0  0  0  0  0  0  0  0  0  0
    7.8884  -13.6459   24.5231 C   0  0  2  0  0  0  0  0  0  0  0  0
    7.3036  -13.5868   23.2110 N   0  0  0  0  0  0  0  0  0  0  0  0
    7.8904  -15.0538   24.9813 C   0  0  0  0  0  0  0  0  0  0  0  0
    7.2829  -15.9067   24.2761 O   0  0  0  0  0  0  0  0  0  0  0  0
   14.6535  -19.4545   23.4923 N   0  0  0  0  0  0  0  0  0  0  0  0
   13.3136  -19.8175   23.7179 C   0  0  0  0  0  0  0  0  0  0  0  0
   13.0437  -20.7821   24.5084 N   0  0  0  0  0  0  0  0  0  0  0  0
   12.2691  -19.1058   23.0627 N   0  0  0  0  0  0  0  0  0  0  0  0
   11.8465  -17.7972   23.4771 C   0  0  0  0  0  0  0  0  0  0  0  0
   10.8296  -17.9933   24.5944 C   0  0  0  0  0  0  0  0  0  0  0  0
   10.2973  -16.6733   25.0348 C   0  0  0  0  0  0  0  0  0  0  0  0
    9.2823  -16.7370   26.1383 C   0  0  2  0  0  0  0  0  0  0  0  0
    8.5329  -15.4984   26.1618 N   0  0  0  0  0  0  0  0  0  0  0  0
    9.8606  -17.0532   27.4605 C   0  0  0  0  0  0  0  0  0  0  0  0
   10.2293  -16.1934   28.2950 O   0  0  0  0  0  0  0  0  0  0  0  0
   10.0319  -18.3918   27.8629 O   0  0  0  0  0  0  0  0  0  0  0  0
  2  1  1  6
  2  3  1  0
  3  4  1  0
  4  5  1  0
  5  6  1  0
  6  7  1  0
  8  2  1  0
  8  9  2  0
 11 10  1  0
 12 11  1  1
 12 13  1  0
 13  8  1  0
 14 12  1  0
 15 14  2  0
 17 16  1  0
 18 17  2  0
 19 17  1  0
 20 19  1  0
 21 22  1  0
 21 20  1  0
 23 24  1  0
 23 22  1  6
 24 14  1  0
 25 23  1  0
 26 25  2  0
 27 25  1  0
M  END
$$$$
