KSR.pdb
     RDKit          3D

 27 26  0  0  1  0  0  0  0  0999 V2000
    9.8133  -17.7847   18.8726 N   0  0  0  0  0  0  0  0  0  0  0  0
    9.9506  -18.1861   20.2527 C   0  0  1  0  0  0  0  0  0  0  0  0
   10.4913  -19.5591   20.3943 C   0  0  0  0  0  0  0  0  0  0  0  0
   11.6600  -19.7983   19.5058 C   0  0  0  0  0  0  0  0  0  0  0  0
   12.2984  -21.1385   19.5582 C   0  0  0  0  0  0  0  0  0  0  0  0
   13.4585  -21.1716   18.5317 C   0  0  0  0  0  0  0  0  0  0  0  0
   14.1333  -22.4279   18.5636 N   0  0  0  0  0  0  0  0  0  0  0  0
   10.8307  -17.1631   20.9190 C   0  0  0  0  0  0  0  0  0  0  0  0
   11.6076  -16.4495   20.2480 O   0  0  0  0  0  0  0  0  0  0  0  0
   10.8436  -17.0618   25.0995 O   0  0  0  0  0  0  0  0  0  0  0  0
   11.0179  -15.8335   24.4521 C   0  0  0  0  0  0  0  0  0  0  0  0
   11.5898  -16.0408   23.0447 C   0  0  2  0  0  0  0  0  0  0  0  0
   10.7872  -16.9958   22.3300 N   0  0  0  0  0  0  0  0  0  0  0  0
   12.9516  -16.5957   23.2162 C   0  0  0  0  0  0  0  0  0  0  0  0
   13.0732  -17.8491   23.3055 O   0  0  0  0  0  0  0  0  0  0  0  0
   21.6480  -14.6012   23.8616 N   0  0  0  0  0  0  0  0  0  0  0  0
   21.0920  -15.8324   23.4705 C   0  0  0  0  0  0  0  0  0  0  0  0
   21.4554  -16.9058   24.0570 N   0  0  0  0  0  0  0  0  0  0  0  0
   20.1281  -15.8713   22.4235 N   0  0  0  0  0  0  0  0  0  0  0  0
   18.8723  -15.1788   22.5021 C   0  0  0  0  0  0  0  0  0  0  0  0
   17.8294  -16.2008   22.9365 C   0  0  0  0  0  0  0  0  0  0  0  0
   16.5006  -15.5421   23.0790 C   0  0  0  0  0  0  0  0  0  0  0  0
   15.3959  -16.4421   23.5496 C   0  0  2  0  0  0  0  0  0  0  0  0
   14.1232  -15.8041   23.2856 N   0  0  0  0  0  0  0  0  0  0  0  0
   15.5223  -16.8488   24.9643 C   0  0  0  0  0  0  0  0  0  0  0  0
   14.9707  -16.2574   25.9222 O   0  0  0  0  0  0  0  0  0  0  0  0
   16.3011  -17.9674   25.3184 O   0  0  0  0  0  0  0  0  0  0  0  0
  2  1  1  6
  2  3  1  0
  3  4  1  0
  4  5  1  0
  5  6  1  0
  6  7  1  0
  8  2  1  0
  8  9  2  0
 11 10  1  0
 12 11  1  1
 12 13  1  0
 13  8  1  0
 14 12  1  0
 15 14  2  0
 17 16  1  0
 18 17  2  0
 19 17  1  0
 20 19  1  0
 21 22  1  0
 21 20  1  0
 23 24  1  0
 23 22  1  1
 24 14  1  0
 25 23  1  0
 26 25  2  0
 27 25  1  0
M  END
$$$$
