KSR.pdb
     RDKit          3D

 27 26  0  0  1  0  0  0  0  0999 V2000
    7.0209  -19.3139   19.3808 N   0  0  0  0  0  0  0  0  0  0  0  0
    8.4596  -19.3995   19.4662 C   0  0  1  0  0  0  0  0  0  0  0  0
    9.0787  -19.8479   18.1961 C   0  0  0  0  0  0  0  0  0  0  0  0
    8.5399  -21.1564   17.7382 C   0  0  0  0  0  0  0  0  0  0  0  0
    9.1773  -21.7836   16.5522 C   0  0  0  0  0  0  0  0  0  0  0  0
    8.4824  -23.1414   16.2801 C   0  0  0  0  0  0  0  0  0  0  0  0
    9.0678  -23.7993   15.1580 N   0  0  0  0  0  0  0  0  0  0  0  0
    8.9533  -18.0405   19.8841 C   0  0  0  0  0  0  0  0  0  0  0  0
    8.9872  -17.0914   19.0710 O   0  0  0  0  0  0  0  0  0  0  0  0
   10.2344  -15.2410   23.6759 O   0  0  0  0  0  0  0  0  0  0  0  0
    9.7338  -16.4594   23.2033 C   0  0  0  0  0  0  0  0  0  0  0  0
    9.9258  -16.5704   21.6862 C   0  0  2  0  0  0  0  0  0  0  0  0
    9.3897  -17.8199   21.2189 N   0  0  0  0  0  0  0  0  0  0  0  0
   11.3856  -16.5560   21.4397 C   0  0  0  0  0  0  0  0  0  0  0  0
   12.0318  -17.6201   21.6489 O   0  0  0  0  0  0  0  0  0  0  0  0
   17.0346  -12.0077   16.3321 N   0  0  0  0  0  0  0  0  0  0  0  0
   17.7780  -12.9177   17.1049 C   0  0  0  0  0  0  0  0  0  0  0  0
   19.0234  -13.0738   16.8749 N   0  0  0  0  0  0  0  0  0  0  0  0
   17.1354  -13.6572   18.1378 N   0  0  0  0  0  0  0  0  0  0  0  0
   15.7372  -13.5168   18.4345 C   0  0  0  0  0  0  0  0  0  0  0  0
   15.4606  -14.3586   19.6737 C   0  0  0  0  0  0  0  0  0  0  0  0
   13.9999  -14.3664   19.9673 C   0  0  0  0  0  0  0  0  0  0  0  0
   13.5363  -15.4960   20.8397 C   0  0  2  0  0  0  0  0  0  0  0  0
   12.0976  -15.4205   20.9839 N   0  0  0  0  0  0  0  0  0  0  0  0
   14.2165  -15.5532   22.1499 C   0  0  0  0  0  0  0  0  0  0  0  0
   13.7698  -15.0377   23.2017 O   0  0  0  0  0  0  0  0  0  0  0  0
   15.4506  -16.2178   22.2849 O   0  0  0  0  0  0  0  0  0  0  0  0
  2  1  1  6
  2  3  1  0
  3  4  1  0
  4  5  1  0
  5  6  1  0
  6  7  1  0
  8  2  1  0
  8  9  2  0
 11 10  1  0
 12 11  1  1
 12 13  1  0
 13  8  1  0
 14 12  1  0
 15 14  2  0
 17 16  1  0
 18 17  2  0
 19 17  1  0
 20 19  1  0
 21 22  1  0
 21 20  1  0
 23 24  1  0
 23 22  1  1
 24 14  1  0
 25 23  1  0
 26 25  2  0
 27 25  1  0
M  END
$$$$
