KSR.pdb
     RDKit          3D

 27 26  0  0  1  0  0  0  0  0999 V2000
    8.6480  -16.8803   19.9371 N   0  0  0  0  0  0  0  0  0  0  0  0
    9.2091  -17.5563   21.0829 C   0  0  1  0  0  0  0  0  0  0  0  0
   10.3321  -18.4533   20.7200 C   0  0  0  0  0  0  0  0  0  0  0  0
   10.3728  -18.7428   19.2616 C   0  0  0  0  0  0  0  0  0  0  0  0
   11.4237  -19.6736   18.7761 C   0  0  0  0  0  0  0  0  0  0  0  0
   11.2287  -19.8852   17.2537 C   0  0  0  0  0  0  0  0  0  0  0  0
   12.1959  -20.7973   16.7366 N   0  0  0  0  0  0  0  0  0  0  0  0
    9.6331  -16.4884   22.0549 C   0  0  0  0  0  0  0  0  0  0  0  0
   10.8309  -16.1418   22.1462 O   0  0  0  0  0  0  0  0  0  0  0  0
    6.6340  -14.7333   24.3715 O   0  0  0  0  0  0  0  0  0  0  0  0
    7.7168  -13.9236   24.0105 C   0  0  0  0  0  0  0  0  0  0  0  0
    8.9727  -14.7721   23.7791 C   0  0  2  0  0  0  0  0  0  0  0  0
    8.6681  -15.8570   22.8862 N   0  0  0  0  0  0  0  0  0  0  0  0
    9.3571  -15.3311   25.0950 C   0  0  0  0  0  0  0  0  0  0  0  0
    9.4196  -16.5868   25.2094 O   0  0  0  0  0  0  0  0  0  0  0  0
    9.8808  -20.2932   29.9707 N   0  0  0  0  0  0  0  0  0  0  0  0
   11.0309  -19.6923   30.5130 C   0  0  0  0  0  0  0  0  0  0  0  0
   11.5493  -20.1652   31.5788 N   0  0  0  0  0  0  0  0  0  0  0  0
   11.6077  -18.5614   29.8686 N   0  0  0  0  0  0  0  0  0  0  0  0
   11.0247  -17.9531   28.7056 C   0  0  0  0  0  0  0  0  0  0  0  0
   11.8400  -16.7020   28.4043 C   0  0  0  0  0  0  0  0  0  0  0  0
   11.2864  -16.0106   27.2062 C   0  0  0  0  0  0  0  0  0  0  0  0
   10.0559  -15.1906   27.4617 C   0  0  2  0  0  0  0  0  0  0  0  0
    9.6581  -14.5409   26.2304 N   0  0  0  0  0  0  0  0  0  0  0  0
   10.2051  -14.2234   28.5685 C   0  0  0  0  0  0  0  0  0  0  0  0
   10.3323  -12.9859   28.4139 O   0  0  0  0  0  0  0  0  0  0  0  0
   10.2114  -14.6646   29.9058 O   0  0  0  0  0  0  0  0  0  0  0  0
  2  1  1  6
  2  3  1  0
  3  4  1  0
  4  5  1  0
  5  6  1  0
  6  7  1  0
  8  2  1  0
  8  9  2  0
 11 10  1  0
 12 11  1  1
 12 13  1  0
 13  8  1  0
 14 12  1  0
 15 14  2  0
 17 16  1  0
 18 17  2  0
 19 17  1  0
 20 19  1  0
 21 22  1  0
 21 20  1  0
 23 24  1  0
 23 22  1  6
 24 14  1  0
 25 23  1  0
 26 25  2  0
 27 25  1  0
M  END
$$$$
