KSR.pdb
     RDKit          3D

 27 26  0  0  1  0  0  0  0  0999 V2000
    7.8846  -19.3185   16.3011 N   0  0  0  0  0  0  0  0  0  0  0  0
    9.1715  -18.7261   16.5798 C   0  0  1  0  0  0  0  0  0  0  0  0
    9.1714  -17.2549   16.3980 C   0  0  0  0  0  0  0  0  0  0  0  0
    8.5328  -16.8457   15.1185 C   0  0  0  0  0  0  0  0  0  0  0  0
    8.4339  -15.3908   14.8358 C   0  0  0  0  0  0  0  0  0  0  0  0
    7.7024  -15.2008   13.4833 C   0  0  0  0  0  0  0  0  0  0  0  0
    7.7218  -13.8328   13.0796 N   0  0  0  0  0  0  0  0  0  0  0  0
    9.5375  -19.1196   17.9856 C   0  0  0  0  0  0  0  0  0  0  0  0
    8.6754  -19.1446   18.8907 O   0  0  0  0  0  0  0  0  0  0  0  0
   13.5626  -19.9585   18.7466 O   0  0  0  0  0  0  0  0  0  0  0  0
   12.6216  -20.6358   19.5304 C   0  0  0  0  0  0  0  0  0  0  0  0
   11.3172  -19.8351   19.6212 C   0  0  2  0  0  0  0  0  0  0  0  0
   10.8785  -19.4700   18.3016 N   0  0  0  0  0  0  0  0  0  0  0  0
   11.6269  -18.6016   20.3791 C   0  0  0  0  0  0  0  0  0  0  0  0
   11.8774  -17.5517   19.7243 O   0  0  0  0  0  0  0  0  0  0  0  0
   10.8129  -14.5615   28.8999 N   0  0  0  0  0  0  0  0  0  0  0  0
   10.0298  -14.7153   27.7419 C   0  0  0  0  0  0  0  0  0  0  0  0
    8.7578  -14.6591   27.8260 N   0  0  0  0  0  0  0  0  0  0  0  0
   10.6624  -14.9324   26.4851 N   0  0  0  0  0  0  0  0  0  0  0  0
   11.0695  -16.2354   26.0389 C   0  0  0  0  0  0  0  0  0  0  0  0
   11.6361  -16.0659   24.6350 C   0  0  0  0  0  0  0  0  0  0  0  0
   11.3857  -17.2967   23.8336 C   0  0  0  0  0  0  0  0  0  0  0  0
   11.9253  -17.2606   22.4338 C   0  0  2  0  0  0  0  0  0  0  0  0
   11.6583  -18.5310   21.7926 N   0  0  0  0  0  0  0  0  0  0  0  0
   13.3553  -16.8974   22.3570 C   0  0  0  0  0  0  0  0  0  0  0  0
   14.2994  -17.7148   22.4663 O   0  0  0  0  0  0  0  0  0  0  0  0
   13.7415  -15.5594   22.1483 O   0  0  0  0  0  0  0  0  0  0  0  0
  2  1  1  1
  2  3  1  0
  3  4  1  0
  4  5  1  0
  5  6  1  0
  6  7  1  0
  8  2  1  0
  8  9  2  0
 11 10  1  0
 12 11  1  6
 12 13  1  0
 13  8  1  0
 14 12  1  0
 15 14  2  0
 17 16  1  0
 18 17  2  0
 19 17  1  0
 20 19  1  0
 21 22  1  0
 21 20  1  0
 23 24  1  0
 23 22  1  1
 24 14  1  0
 25 23  1  0
 26 25  2  0
 27 25  1  0
M  END
$$$$
