KSR.pdb
     RDKit          3D

 27 26  0  0  1  0  0  0  0  0999 V2000
    7.9564  -12.9795   18.7712 N   0  0  0  0  0  0  0  0  0  0  0  0
    7.3014  -13.7702   19.7863 C   0  0  1  0  0  0  0  0  0  0  0  0
    7.0681  -15.1690   19.3547 C   0  0  0  0  0  0  0  0  0  0  0  0
    7.9953  -15.5852   18.2687 C   0  0  0  0  0  0  0  0  0  0  0  0
    9.1860  -16.3861   18.6527 C   0  0  0  0  0  0  0  0  0  0  0  0
    9.9392  -16.7977   17.3629 C   0  0  0  0  0  0  0  0  0  0  0  0
   11.1936  -17.4012   17.6742 N   0  0  0  0  0  0  0  0  0  0  0  0
    8.1621  -13.6975   21.0188 C   0  0  0  0  0  0  0  0  0  0  0  0
    9.3738  -13.3999   20.9393 O   0  0  0  0  0  0  0  0  0  0  0  0
    6.4424  -14.8785   24.6614 O   0  0  0  0  0  0  0  0  0  0  0  0
    7.4150  -13.8739   24.7183 C   0  0  0  0  0  0  0  0  0  0  0  0
    8.3625  -13.9704   23.5167 C   0  0  2  0  0  0  0  0  0  0  0  0
    7.6017  -13.9684   22.2968 N   0  0  0  0  0  0  0  0  0  0  0  0
    9.0698  -15.2656   23.6355 C   0  0  0  0  0  0  0  0  0  0  0  0
    8.5388  -16.2808   23.1053 O   0  0  0  0  0  0  0  0  0  0  0  0
   14.7516  -14.2383   21.0362 N   0  0  0  0  0  0  0  0  0  0  0  0
   14.1134  -15.4231   20.6278 C   0  0  0  0  0  0  0  0  0  0  0  0
   13.2709  -15.3904   19.6701 N   0  0  0  0  0  0  0  0  0  0  0  0
   14.4126  -16.6496   21.2860 N   0  0  0  0  0  0  0  0  0  0  0  0
   13.3953  -17.4967   21.8430 C   0  0  0  0  0  0  0  0  0  0  0  0
   12.3315  -16.5809   22.4350 C   0  0  0  0  0  0  0  0  0  0  0  0
   12.2436  -16.7894   23.9076 C   0  0  0  0  0  0  0  0  0  0  0  0
   10.8519  -16.7623   24.4681 C   0  0  2  0  0  0  0  0  0  0  0  0
   10.3046  -15.4314   24.3075 N   0  0  0  0  0  0  0  0  0  0  0  0
   10.7657  -17.2253   25.8684 C   0  0  0  0  0  0  0  0  0  0  0  0
   10.6733  -16.4644   26.8604 O   0  0  0  0  0  0  0  0  0  0  0  0
   10.7837  -18.6013   26.1676 O   0  0  0  0  0  0  0  0  0  0  0  0
  2  1  1  6
  2  3  1  0
  3  4  1  0
  4  5  1  0
  5  6  1  0
  6  7  1  0
  8  2  1  0
  8  9  2  0
 11 10  1  0
 12 11  1  1
 12 13  1  0
 13  8  1  0
 14 12  1  0
 15 14  2  0
 17 16  1  0
 18 17  2  0
 19 17  1  0
 20 19  1  0
 21 22  1  0
 21 20  1  0
 23 24  1  0
 23 22  1  1
 24 14  1  0
 25 23  1  0
 26 25  2  0
 27 25  1  0
M  END
$$$$
