LPY.pdb
     RDKit          3D

 28 29  0  0  1  0  0  0  0  0999 V2000
    7.7964  -11.6707   26.2099 C   0  0  0  0  0  0  0  0  0  0  0  0
    6.9329  -12.8977   26.4190 C   0  0  1  0  0  0  0  0  0  0  0  0
    5.7730  -12.5353   27.3192 C   0  0  0  0  0  0  0  0  0  0  0  0
    6.4306  -13.4426   25.1008 C   0  0  0  0  0  0  0  0  0  0  0  0
    6.1935  -14.9156   25.1452 C   0  0  2  0  0  0  0  0  0  0  0  0
    6.0396  -15.3831   26.5266 N   0  0  0  0  0  0  0  0  0  0  0  0
    7.2143  -15.7363   24.4473 C   0  0  0  0  0  0  0  0  0  0  0  0
    7.4638  -16.9303   24.8872 O   0  0  0  0  0  0  0  0  0  0  0  0
    7.9695  -15.3650   23.3231 N   0  0  0  0  0  0  0  0  0  0  0  0
    7.9061  -14.0994   22.6250 C   0  0  0  0  0  0  0  0  0  0  0  0
    8.4637  -14.3731   21.2296 C   0  0  0  0  0  0  0  0  0  0  0  0
    8.4938  -15.8714   21.1870 C   0  0  0  0  0  0  0  0  0  0  0  0
    8.9547  -16.2070   22.6040 C   0  0  1  0  0  0  0  0  0  0  0  0
   10.2856  -15.6650   22.9246 C   0  0  0  0  0  0  0  0  0  0  0  0
   10.5122  -14.4222   23.0648 O   0  0  0  0  0  0  0  0  0  0  0  0
    9.1734  -14.5547   29.1473 O   0  0  0  0  0  0  0  0  0  0  0  0
    9.9683  -15.1673   28.1723 C   0  0  0  0  0  0  0  0  0  0  0  0
   10.8161  -14.4255   27.3754 C   0  0  0  0  0  0  0  0  0  0  0  0
   11.6070  -15.0052   26.4096 C   0  0  0  0  0  0  0  0  0  0  0  0
   11.5866  -16.3847   26.1937 C   0  0  0  0  0  0  0  0  0  0  0  0
   12.4388  -17.0081   25.1570 C   0  0  0  0  0  0  0  0  0  0  0  0
   12.5211  -16.1157   23.9411 C   0  0  2  0  0  0  0  0  0  0  0  0
   11.3949  -16.5292   23.0949 N   0  0  0  0  0  0  0  0  0  0  0  0
   13.7556  -16.2800   23.1618 C   0  0  0  0  0  0  0  0  0  0  0  0
   13.7484  -16.9334   21.9506 O   0  0  0  0  0  0  0  0  0  0  0  0
   10.7343  -17.1154   26.9986 C   0  0  0  0  0  0  0  0  0  0  0  0
    9.9432  -16.5302   27.9640 C   0  0  0  0  0  0  0  0  0  0  0  0
   14.8313  -15.8197   23.6036 O   0  0  0  0  0  0  0  0  0  0  0  0
  2  1  1  6
  2  3  1  0
  4  5  1  0
  4  2  1  0
  5  6  1  1
  7  5  1  0
  7  8  2  0
  9  7  1  0
 10  9  1  0
 11 12  1  0
 11 10  1  0
 12 13  1  0
 13  9  1  0
 14 23  1  0
 13 14  1  6
 15 14  2  0
 16 17  1  0
 17 18  2  0
 18 19  1  0
 20 19  2  0
 20 21  1  0
 22 21  1  1
 22 23  1  0
 22 24  1  0
 24 25  1  0
 26 20  1  0
 27 17  1  0
 27 26  2  0
 28 24  2  0
M  END
$$$$
