LPY.pdb
     RDKit          3D

 28 29  0  0  1  0  0  0  0  0999 V2000
    4.8887  -18.9635   20.8260 C   0  0  0  0  0  0  0  0  0  0  0  0
    5.2413  -17.5293   20.4887 C   0  0  1  0  0  0  0  0  0  0  0  0
    3.9807  -16.6943   20.5121 C   0  0  0  0  0  0  0  0  0  0  0  0
    6.2618  -16.9759   21.4579 C   0  0  0  0  0  0  0  0  0  0  0  0
    6.7342  -15.6133   21.0730 C   0  0  2  0  0  0  0  0  0  0  0  0
    7.1877  -15.5872   19.6787 N   0  0  0  0  0  0  0  0  0  0  0  0
    7.7827  -15.0411   21.9539 C   0  0  0  0  0  0  0  0  0  0  0  0
    8.9707  -14.8521   21.4699 O   0  0  0  0  0  0  0  0  0  0  0  0
    7.6390  -14.6612   23.2981 N   0  0  0  0  0  0  0  0  0  0  0  0
    6.4146  -14.6739   24.0686 C   0  0  0  0  0  0  0  0  0  0  0  0
    6.6473  -13.7015   25.2233 C   0  0  0  0  0  0  0  0  0  0  0  0
    7.8961  -12.9914   24.7947 C   0  0  0  0  0  0  0  0  0  0  0  0
    8.7034  -14.1361   24.1858 C   0  0  1  0  0  0  0  0  0  0  0  0
    9.0129  -15.2047   25.1502 C   0  0  0  0  0  0  0  0  0  0  0  0
    8.3664  -16.2978   25.2042 O   0  0  0  0  0  0  0  0  0  0  0  0
   10.1969  -15.8196   32.0571 O   0  0  0  0  0  0  0  0  0  0  0  0
   10.7195  -15.6343   30.7724 C   0  0  0  0  0  0  0  0  0  0  0  0
   10.5744  -14.4320   30.1110 C   0  0  0  0  0  0  0  0  0  0  0  0
   11.0790  -14.2261   28.8471 C   0  0  0  0  0  0  0  0  0  0  0  0
   11.7690  -15.2360   28.1732 C   0  0  0  0  0  0  0  0  0  0  0  0
   12.3136  -15.0136   26.8155 C   0  0  0  0  0  0  0  0  0  0  0  0
   11.3945  -15.6141   25.7781 C   0  0  2  0  0  0  0  0  0  0  0  0
   10.0713  -15.0541   26.0794 N   0  0  0  0  0  0  0  0  0  0  0  0
   11.2915  -17.0780   25.8468 C   0  0  0  0  0  0  0  0  0  0  0  0
   10.1006  -17.6915   26.1622 O   0  0  0  0  0  0  0  0  0  0  0  0
   11.9078  -16.4340   28.8468 C   0  0  0  0  0  0  0  0  0  0  0  0
   11.3997  -16.6358   30.1122 C   0  0  0  0  0  0  0  0  0  0  0  0
   12.3003  -17.7802   25.6154 O   0  0  0  0  0  0  0  0  0  0  0  0
  2  1  1  1
  2  3  1  0
  4  5  1  0
  4  2  1  0
  5  6  1  6
  7  5  1  0
  7  8  2  0
  9  7  1  0
 10  9  1  0
 11 12  1  0
 11 10  1  0
 12 13  1  0
 13  9  1  0
 14 23  1  0
 13 14  1  1
 15 14  2  0
 16 17  1  0
 17 18  2  0
 18 19  1  0
 20 19  2  0
 20 21  1  0
 22 21  1  1
 22 23  1  0
 22 24  1  0
 24 25  1  0
 26 20  1  0
 27 17  1  0
 27 26  2  0
 28 24  2  0
M  END
$$$$
