LPY.pdb
     RDKit          3D

 28 29  0  0  1  0  0  0  0  0999 V2000
    4.2267  -17.0644   19.7276 C   0  0  0  0  0  0  0  0  0  0  0  0
    5.4934  -17.7716   20.1636 C   0  0  1  0  0  0  0  0  0  0  0  0
    5.1208  -18.9941   20.9720 C   0  0  0  0  0  0  0  0  0  0  0  0
    6.3384  -18.1617   18.9716 C   0  0  0  0  0  0  0  0  0  0  0  0
    7.2786  -17.0782   18.5593 C   0  0  2  0  0  0  0  0  0  0  0  0
    8.1865  -17.5413   17.5049 N   0  0  0  0  0  0  0  0  0  0  0  0
    8.0603  -16.4717   19.6656 C   0  0  0  0  0  0  0  0  0  0  0  0
    9.2136  -16.9810   19.9682 O   0  0  0  0  0  0  0  0  0  0  0  0
    7.6909  -15.3689   20.4526 N   0  0  0  0  0  0  0  0  0  0  0  0
    6.4709  -14.6000   20.3361 C   0  0  0  0  0  0  0  0  0  0  0  0
    6.7726  -13.2521   20.9880 C   0  0  0  0  0  0  0  0  0  0  0  0
    8.2646  -13.2934   21.1289 C   0  0  0  0  0  0  0  0  0  0  0  0
    8.4918  -14.7484   21.5343 C   0  0  1  0  0  0  0  0  0  0  0  0
    7.8356  -15.1063   22.8027 C   0  0  0  0  0  0  0  0  0  0  0  0
    6.5751  -15.2173   22.9234 O   0  0  0  0  0  0  0  0  0  0  0  0
   10.4637  -13.3347   29.9582 O   0  0  0  0  0  0  0  0  0  0  0  0
   10.2479  -14.1826   28.8663 C   0  0  0  0  0  0  0  0  0  0  0  0
    9.7443  -15.4553   29.0414 C   0  0  0  0  0  0  0  0  0  0  0  0
    9.5240  -16.3076   27.9833 C   0  0  0  0  0  0  0  0  0  0  0  0
    9.8020  -15.9155   26.6722 C   0  0  0  0  0  0  0  0  0  0  0  0
    9.5627  -16.8310   25.5345 C   0  0  0  0  0  0  0  0  0  0  0  0
    8.2666  -16.4791   24.8432 C   0  0  2  0  0  0  0  0  0  0  0  0
    8.6023  -15.3485   23.9688 N   0  0  0  0  0  0  0  0  0  0  0  0
    7.2017  -16.0430   25.7564 C   0  0  0  0  0  0  0  0  0  0  0  0
    6.5222  -16.9492   26.5382 O   0  0  0  0  0  0  0  0  0  0  0  0
   10.3047  -14.6390   26.5108 C   0  0  0  0  0  0  0  0  0  0  0  0
   10.5246  -13.7894   27.5739 C   0  0  0  0  0  0  0  0  0  0  0  0
    6.9061  -14.8297   25.8267 O   0  0  0  0  0  0  0  0  0  0  0  0
  2  1  1  6
  2  3  1  0
  4  5  1  0
  4  2  1  0
  5  6  1  6
  7  5  1  0
  7  8  2  0
  9  7  1  0
 10  9  1  0
 11 12  1  0
 11 10  1  0
 12 13  1  0
 13  9  1  0
 14 23  1  0
 13 14  1  1
 15 14  2  0
 16 17  1  0
 17 18  2  0
 18 19  1  0
 20 19  2  0
 20 21  1  0
 22 21  1  1
 22 23  1  0
 22 24  1  0
 24 25  1  0
 26 20  1  0
 27 17  1  0
 27 26  2  0
 28 24  2  0
M  END
$$$$
