LPY.pdb
     RDKit          3D

 28 29  0  0  1  0  0  0  0  0999 V2000
    7.5676  -20.8568   19.6176 C   0  0  0  0  0  0  0  0  0  0  0  0
    8.2599  -19.6534   19.0113 C   0  0  1  0  0  0  0  0  0  0  0  0
    7.5057  -19.2243   17.7727 C   0  0  0  0  0  0  0  0  0  0  0  0
    8.3424  -18.5144   20.0028 C   0  0  0  0  0  0  0  0  0  0  0  0
    9.1864  -17.3871   19.5081 C   0  0  2  0  0  0  0  0  0  0  0  0
   10.5060  -17.8643   19.0822 N   0  0  0  0  0  0  0  0  0  0  0  0
    9.3424  -16.2570   20.4575 C   0  0  0  0  0  0  0  0  0  0  0  0
   10.4633  -16.1277   21.0963 O   0  0  0  0  0  0  0  0  0  0  0  0
    8.3891  -15.2706   20.7574 N   0  0  0  0  0  0  0  0  0  0  0  0
    7.1024  -15.0965   20.1191 C   0  0  0  0  0  0  0  0  0  0  0  0
    6.7070  -13.6451   20.3838 C   0  0  0  0  0  0  0  0  0  0  0  0
    7.9881  -13.0534   20.8900 C   0  0  0  0  0  0  0  0  0  0  0  0
    8.5244  -14.1880   21.7606 C   0  0  1  0  0  0  0  0  0  0  0  0
    7.6299  -14.5345   22.8776 C   0  0  0  0  0  0  0  0  0  0  0  0
    7.0361  -15.6548   22.9677 O   0  0  0  0  0  0  0  0  0  0  0  0
   10.4977  -15.8946   30.7021 O   0  0  0  0  0  0  0  0  0  0  0  0
   10.1593  -15.4798   29.4094 C   0  0  0  0  0  0  0  0  0  0  0  0
    9.7704  -16.3903   28.4481 C   0  0  0  0  0  0  0  0  0  0  0  0
    9.4334  -16.0065   27.1700 C   0  0  0  0  0  0  0  0  0  0  0  0
    9.4691  -14.6639   26.7876 C   0  0  0  0  0  0  0  0  0  0  0  0
    9.1043  -14.2512   25.4142 C   0  0  0  0  0  0  0  0  0  0  0  0
    7.6164  -14.0089   25.3183 C   0  0  2  0  0  0  0  0  0  0  0  0
    7.3900  -13.6102   23.9237 N   0  0  0  0  0  0  0  0  0  0  0  0
    7.1309  -12.9245   26.1824 C   0  0  0  0  0  0  0  0  0  0  0  0
    6.3560  -13.1913   27.2882 O   0  0  0  0  0  0  0  0  0  0  0  0
    9.8591  -13.7631   27.7595 C   0  0  0  0  0  0  0  0  0  0  0  0
   10.1967  -14.1524   29.0381 C   0  0  0  0  0  0  0  0  0  0  0  0
    7.4249  -11.7395   25.9114 O   0  0  0  0  0  0  0  0  0  0  0  0
  2  1  1  1
  2  3  1  0
  4  5  1  0
  4  2  1  0
  5  6  1  1
  7  5  1  0
  7  8  2  0
  9  7  1  0
 10  9  1  0
 11 12  1  0
 11 10  1  0
 12 13  1  0
 13  9  1  0
 14 23  1  0
 13 14  1  1
 15 14  2  0
 16 17  1  0
 17 18  2  0
 18 19  1  0
 20 19  2  0
 20 21  1  0
 22 21  1  6
 22 23  1  0
 22 24  1  0
 24 25  1  0
 26 20  1  0
 27 17  1  0
 27 26  2  0
 28 24  2  0
M  END
$$$$
