LPY.pdb
     RDKit          3D

 28 29  0  0  1  0  0  0  0  0999 V2000
    7.0424  -11.6723   26.9218 C   0  0  0  0  0  0  0  0  0  0  0  0
    6.1724  -12.8653   26.5832 C   0  0  1  0  0  0  0  0  0  0  0  0
    4.7192  -12.4636   26.7013 C   0  0  0  0  0  0  0  0  0  0  0  0
    6.4687  -13.3795   25.1922 C   0  0  0  0  0  0  0  0  0  0  0  0
    6.0749  -14.8085   25.0161 C   0  0  2  0  0  0  0  0  0  0  0  0
    5.7331  -15.4232   26.3028 N   0  0  0  0  0  0  0  0  0  0  0  0
    7.0695  -15.6499   24.3050 C   0  0  0  0  0  0  0  0  0  0  0  0
    7.1674  -16.9036   24.6211 O   0  0  0  0  0  0  0  0  0  0  0  0
    7.9488  -15.2393   23.2901 N   0  0  0  0  0  0  0  0  0  0  0  0
    8.1367  -13.8873   22.8107 C   0  0  0  0  0  0  0  0  0  0  0  0
    8.7363  -14.0281   21.4129 C   0  0  0  0  0  0  0  0  0  0  0  0
    8.5283  -15.4841   21.1224 C   0  0  0  0  0  0  0  0  0  0  0  0
    8.8325  -16.1120   22.4812 C   0  0  1  0  0  0  0  0  0  0  0  0
   10.2083  -15.8607   22.9413 C   0  0  0  0  0  0  0  0  0  0  0  0
   10.7855  -14.7350   22.8176 O   0  0  0  0  0  0  0  0  0  0  0  0
    9.9997  -13.8423   29.3552 O   0  0  0  0  0  0  0  0  0  0  0  0
   10.5837  -14.6681   28.3883 C   0  0  0  0  0  0  0  0  0  0  0  0
   10.3066  -16.0191   28.3442 C   0  0  0  0  0  0  0  0  0  0  0  0
   10.8690  -16.8515   27.4032 C   0  0  0  0  0  0  0  0  0  0  0  0
   11.7526  -16.3583   26.4409 C   0  0  0  0  0  0  0  0  0  0  0  0
   12.3552  -17.2529   25.4278 C   0  0  0  0  0  0  0  0  0  0  0  0
   12.3106  -16.6045   24.0643 C   0  0  2  0  0  0  0  0  0  0  0  0
   10.9627  -16.8894   23.5570 N   0  0  0  0  0  0  0  0  0  0  0  0
   13.2791  -17.1572   23.1080 C   0  0  0  0  0  0  0  0  0  0  0  0
   12.8610  -17.8559   21.9984 O   0  0  0  0  0  0  0  0  0  0  0  0
   12.0207  -15.0044   26.4958 C   0  0  0  0  0  0  0  0  0  0  0  0
   11.4557  -14.1748   27.4408 C   0  0  0  0  0  0  0  0  0  0  0  0
   14.5034  -16.9914   23.3025 O   0  0  0  0  0  0  0  0  0  0  0  0
  2  1  1  6
  2  3  1  0
  4  5  1  0
  4  2  1  0
  5  6  1  1
  7  5  1  0
  7  8  2  0
  9  7  1  0
 10  9  1  0
 11 12  1  0
 11 10  1  0
 12 13  1  0
 13  9  1  0
 14 23  1  0
 13 14  1  1
 15 14  2  0
 16 17  1  0
 17 18  2  0
 18 19  1  0
 20 19  2  0
 20 21  1  0
 22 21  1  1
 22 23  1  0
 22 24  1  0
 24 25  1  0
 26 20  1  0
 27 17  1  0
 27 26  2  0
 28 24  2  0
M  END
$$$$
