LPY.pdb
     RDKit          3D

 28 29  0  0  1  0  0  0  0  0999 V2000
    7.6203  -12.1450   25.6943 C   0  0  0  0  0  0  0  0  0  0  0  0
    7.0114  -13.5009   25.9872 C   0  0  1  0  0  0  0  0  0  0  0  0
    6.2101  -13.4141   27.2669 C   0  0  0  0  0  0  0  0  0  0  0  0
    6.1361  -13.9644   24.8443 C   0  0  0  0  0  0  0  0  0  0  0  0
    6.1111  -15.4508   24.7111 C   0  0  2  0  0  0  0  0  0  0  0  0
    6.1543  -16.0984   26.0262 N   0  0  0  0  0  0  0  0  0  0  0  0
    7.1656  -16.0198   23.8353 C   0  0  0  0  0  0  0  0  0  0  0  0
    7.5210  -17.2550   24.0066 O   0  0  0  0  0  0  0  0  0  0  0  0
    7.8493  -15.3597   22.8016 N   0  0  0  0  0  0  0  0  0  0  0  0
    7.7307  -13.9618   22.4483 C   0  0  0  0  0  0  0  0  0  0  0  0
    8.2086  -13.8631   21.0010 C   0  0  0  0  0  0  0  0  0  0  0  0
    8.2533  -15.3018   20.5817 C   0  0  0  0  0  0  0  0  0  0  0  0
    8.8002  -15.9693   21.8420 C   0  0  1  0  0  0  0  0  0  0  0  0
   10.1414  -15.4907   22.2163 C   0  0  0  0  0  0  0  0  0  0  0  0
   10.5765  -14.3370   21.9073 O   0  0  0  0  0  0  0  0  0  0  0  0
   10.9317  -14.4816   30.5339 O   0  0  0  0  0  0  0  0  0  0  0  0
   10.7156  -14.8095   29.1909 C   0  0  0  0  0  0  0  0  0  0  0  0
   10.7593  -13.8439   28.2061 C   0  0  0  0  0  0  0  0  0  0  0  0
   10.5495  -14.1420   26.8788 C   0  0  0  0  0  0  0  0  0  0  0  0
   10.2825  -15.4494   26.4672 C   0  0  0  0  0  0  0  0  0  0  0  0
   10.0595  -15.7700   25.0399 C   0  0  0  0  0  0  0  0  0  0  0  0
   11.3811  -15.9569   24.3328 C   0  0  2  0  0  0  0  0  0  0  0  0
   11.0224  -16.3174   22.9556 N   0  0  0  0  0  0  0  0  0  0  0  0
   12.2051  -17.0414   24.8834 C   0  0  0  0  0  0  0  0  0  0  0  0
   13.3548  -16.7705   25.5897 O   0  0  0  0  0  0  0  0  0  0  0  0
   10.2424  -16.4061   27.4628 C   0  0  0  0  0  0  0  0  0  0  0  0
   10.4522  -16.1026   28.7910 C   0  0  0  0  0  0  0  0  0  0  0  0
   11.8585  -18.2305   24.7093 O   0  0  0  0  0  0  0  0  0  0  0  0
  2  1  1  6
  2  3  1  0
  4  5  1  0
  4  2  1  0
  5  6  1  1
  7  5  1  0
  7  8  2  0
  9  7  1  0
 10  9  1  0
 11 12  1  0
 11 10  1  0
 12 13  1  0
 13  9  1  0
 14 23  1  0
 13 14  1  1
 15 14  2  0
 16 17  1  0
 17 18  2  0
 18 19  1  0
 20 19  2  0
 20 21  1  0
 22 21  1  1
 22 23  1  0
 22 24  1  0
 24 25  1  0
 26 20  1  0
 27 17  1  0
 27 26  2  0
 28 24  2  0
M  END
$$$$
