LPY.pdb
     RDKit          3D

 28 29  0  0  1  0  0  0  0  0999 V2000
    7.1642  -11.6885   25.6705 C   0  0  0  0  0  0  0  0  0  0  0  0
    6.4205  -12.9860   25.9122 C   0  0  1  0  0  0  0  0  0  0  0  0
    5.2434  -12.7160   26.8225 C   0  0  0  0  0  0  0  0  0  0  0  0
    5.9543  -13.5984   24.6104 C   0  0  0  0  0  0  0  0  0  0  0  0
    5.9433  -15.0903   24.6531 C   0  0  2  0  0  0  0  0  0  0  0  0
    5.9019  -15.5776   26.0357 N   0  0  0  0  0  0  0  0  0  0  0  0
    7.0554  -15.7467   23.9216 C   0  0  0  0  0  0  0  0  0  0  0  0
    7.4342  -16.9303   24.2916 O   0  0  0  0  0  0  0  0  0  0  0  0
    7.7729  -15.2240   22.8335 N   0  0  0  0  0  0  0  0  0  0  0  0
    7.7216  -13.8636   22.3440 C   0  0  0  0  0  0  0  0  0  0  0  0
    8.2082  -13.9301   20.8977 C   0  0  0  0  0  0  0  0  0  0  0  0
    8.1860  -15.4035   20.6218 C   0  0  0  0  0  0  0  0  0  0  0  0
    8.6969  -15.9688   21.9456 C   0  0  1  0  0  0  0  0  0  0  0  0
   10.0580  -15.5190   22.2817 C   0  0  0  0  0  0  0  0  0  0  0  0
   10.4977  -14.3629   21.9885 O   0  0  0  0  0  0  0  0  0  0  0  0
   11.2009  -14.6622   30.5671 O   0  0  0  0  0  0  0  0  0  0  0  0
   10.9280  -14.9956   29.2359 C   0  0  0  0  0  0  0  0  0  0  0  0
   10.7722  -14.0182   28.2744 C   0  0  0  0  0  0  0  0  0  0  0  0
   10.5028  -14.3214   26.9591 C   0  0  0  0  0  0  0  0  0  0  0  0
   10.3763  -15.6462   26.5363 C   0  0  0  0  0  0  0  0  0  0  0  0
   10.0892  -15.9720   25.1216 C   0  0  0  0  0  0  0  0  0  0  0  0
   11.3747  -16.0585   24.3332 C   0  0  2  0  0  0  0  0  0  0  0  0
   10.9543  -16.3781   22.9634 N   0  0  0  0  0  0  0  0  0  0  0  0
   12.2831  -17.1205   24.7861 C   0  0  0  0  0  0  0  0  0  0  0  0
   13.5076  -16.8195   25.3375 O   0  0  0  0  0  0  0  0  0  0  0  0
   10.5353  -16.6146   27.5084 C   0  0  0  0  0  0  0  0  0  0  0  0
   10.8040  -16.3059   28.8248 C   0  0  0  0  0  0  0  0  0  0  0  0
   11.9407  -18.3178   24.6703 O   0  0  0  0  0  0  0  0  0  0  0  0
  2  1  1  6
  2  3  1  0
  4  5  1  0
  4  2  1  0
  5  6  1  1
  7  5  1  0
  7  8  2  0
  9  7  1  0
 10  9  1  0
 11 12  1  0
 11 10  1  0
 12 13  1  0
 13  9  1  0
 14 23  1  0
 13 14  1  1
 15 14  2  0
 16 17  1  0
 17 18  2  0
 18 19  1  0
 20 19  2  0
 20 21  1  0
 22 21  1  1
 22 23  1  0
 22 24  1  0
 24 25  1  0
 26 20  1  0
 27 17  1  0
 27 26  2  0
 28 24  2  0
M  END
$$$$
