LPY.pdb
     RDKit          3D

 28 29  0  0  1  0  0  0  0  0999 V2000
    5.9838  -12.6204   25.6269 C   0  0  0  0  0  0  0  0  0  0  0  0
    7.0046  -13.7279   25.7887 C   0  0  1  0  0  0  0  0  0  0  0  0
    8.0641  -13.2807   26.7707 C   0  0  0  0  0  0  0  0  0  0  0  0
    6.3511  -15.0077   26.2604 C   0  0  0  0  0  0  0  0  0  0  0  0
    5.9335  -15.8862   25.1283 C   0  0  2  0  0  0  0  0  0  0  0  0
    5.2688  -17.0977   25.6190 N   0  0  0  0  0  0  0  0  0  0  0  0
    7.0199  -16.2547   24.1867 C   0  0  0  0  0  0  0  0  0  0  0  0
    7.4531  -17.4768   24.1798 O   0  0  0  0  0  0  0  0  0  0  0  0
    7.6582  -15.4099   23.2642 N   0  0  0  0  0  0  0  0  0  0  0  0
    7.6375  -13.9633   23.2663 C   0  0  0  0  0  0  0  0  0  0  0  0
    7.9786  -13.5468   21.8369 C   0  0  0  0  0  0  0  0  0  0  0  0
    7.8465  -14.8392   21.0886 C   0  0  0  0  0  0  0  0  0  0  0  0
    8.4490  -15.8297   22.0831 C   0  0  1  0  0  0  0  0  0  0  0  0
    9.8594  -15.5489   22.3990 C   0  0  0  0  0  0  0  0  0  0  0  0
   10.4607  -14.4988   22.0099 O   0  0  0  0  0  0  0  0  0  0  0  0
   11.7815  -15.6171   30.6254 O   0  0  0  0  0  0  0  0  0  0  0  0
   11.4763  -15.4719   29.2676 C   0  0  0  0  0  0  0  0  0  0  0  0
   12.0488  -16.2924   28.3172 C   0  0  0  0  0  0  0  0  0  0  0  0
   11.7648  -16.1685   26.9761 C   0  0  0  0  0  0  0  0  0  0  0  0
   10.8735  -15.1974   26.5149 C   0  0  0  0  0  0  0  0  0  0  0  0
   10.5664  -15.0660   25.0734 C   0  0  0  0  0  0  0  0  0  0  0  0
   11.4687  -15.9654   24.2619 C   0  0  2  0  0  0  0  0  0  0  0  0
   10.6217  -16.4605   23.1698 N   0  0  0  0  0  0  0  0  0  0  0  0
   11.9759  -17.1283   25.0026 C   0  0  0  0  0  0  0  0  0  0  0  0
   11.3684  -18.3585   24.8946 O   0  0  0  0  0  0  0  0  0  0  0  0
   10.3071  -14.3835   27.4765 C   0  0  0  0  0  0  0  0  0  0  0  0
   10.5954  -14.5107   28.8186 C   0  0  0  0  0  0  0  0  0  0  0  0
   12.9754  -17.0012   25.7437 O   0  0  0  0  0  0  0  0  0  0  0  0
  2  1  1  1
  2  3  1  0
  4  5  1  0
  4  2  1  0
  5  6  1  1
  7  5  1  0
  7  8  2  0
  9  7  1  0
 10  9  1  0
 11 12  1  0
 11 10  1  0
 12 13  1  0
 13  9  1  0
 14 23  1  0
 13 14  1  1
 15 14  2  0
 16 17  1  0
 17 18  2  0
 18 19  1  0
 20 19  2  0
 20 21  1  0
 22 21  1  1
 22 23  1  0
 22 24  1  0
 24 25  1  0
 26 20  1  0
 27 17  1  0
 27 26  2  0
 28 24  2  0
M  END
$$$$
