LPY.pdb
     RDKit          3D

 28 29  0  0  1  0  0  0  0  0999 V2000
    5.7033  -16.2177   20.7824 C   0  0  0  0  0  0  0  0  0  0  0  0
    6.9156  -15.3204   20.9240 C   0  0  1  0  0  0  0  0  0  0  0  0
    6.5637  -13.9361   20.4269 C   0  0  0  0  0  0  0  0  0  0  0  0
    7.3879  -15.2637   22.3596 C   0  0  0  0  0  0  0  0  0  0  0  0
    8.6487  -14.4802   22.5152 C   0  0  2  0  0  0  0  0  0  0  0  0
    9.6410  -14.8736   21.5096 N   0  0  0  0  0  0  0  0  0  0  0  0
    9.2562  -14.5319   23.8683 C   0  0  0  0  0  0  0  0  0  0  0  0
   10.4711  -14.9676   23.9917 O   0  0  0  0  0  0  0  0  0  0  0  0
    8.6541  -14.1483   25.0776 N   0  0  0  0  0  0  0  0  0  0  0  0
    7.3200  -13.6131   25.2416 C   0  0  0  0  0  0  0  0  0  0  0  0
    7.3379  -12.8708   26.5764 C   0  0  0  0  0  0  0  0  0  0  0  0
    8.8038  -12.8014   26.8826 C   0  0  0  0  0  0  0  0  0  0  0  0
    9.2763  -14.1791   26.4224 C   0  0  1  0  0  0  0  0  0  0  0  0
    8.6395  -15.2856   27.1559 C   0  0  0  0  0  0  0  0  0  0  0  0
    7.3903  -15.5164   27.1138 O   0  0  0  0  0  0  0  0  0  0  0  0
   14.8572  -18.9889   25.4207 O   0  0  0  0  0  0  0  0  0  0  0  0
   13.5073  -18.7471   25.6985 C   0  0  0  0  0  0  0  0  0  0  0  0
   12.5330  -18.9725   24.7476 C   0  0  0  0  0  0  0  0  0  0  0  0
   11.1992  -18.7416   24.9971 C   0  0  0  0  0  0  0  0  0  0  0  0
   10.7699  -18.2659   26.2378 C   0  0  0  0  0  0  0  0  0  0  0  0
    9.3357  -18.0202   26.5066 C   0  0  0  0  0  0  0  0  0  0  0  0
    9.1369  -17.6018   27.9443 C   0  0  2  0  0  0  0  0  0  0  0  0
    9.4135  -16.1600   27.9575 N   0  0  0  0  0  0  0  0  0  0  0  0
   10.0599  -18.2472   28.8875 C   0  0  0  0  0  0  0  0  0  0  0  0
   11.0317  -17.5217   29.5382 O   0  0  0  0  0  0  0  0  0  0  0  0
   11.7551  -18.0454   27.1806 C   0  0  0  0  0  0  0  0  0  0  0  0
   13.0899  -18.2772   26.9258 C   0  0  0  0  0  0  0  0  0  0  0  0
    9.9632  -19.4752   29.1046 O   0  0  0  0  0  0  0  0  0  0  0  0
  2  1  1  1
  2  3  1  0
  4  5  1  0
  4  2  1  0
  5  6  1  6
  7  5  1  0
  7  8  2  0
  9  7  1  0
 10  9  1  0
 11 12  1  0
 11 10  1  0
 12 13  1  0
 13  9  1  0
 14 23  1  0
 13 14  1  1
 15 14  2  0
 16 17  1  0
 17 18  2  0
 18 19  1  0
 20 19  2  0
 20 21  1  0
 22 21  1  6
 22 23  1  0
 22 24  1  0
 24 25  1  0
 26 20  1  0
 27 17  1  0
 27 26  2  0
 28 24  2  0
M  END
$$$$
