LPY.pdb
     RDKit          3D

 28 29  0  0  1  0  0  0  0  0999 V2000
    7.2245  -12.0873   19.6018 C   0  0  0  0  0  0  0  0  0  0  0  0
    7.5477  -13.4407   19.0030 C   0  0  1  0  0  0  0  0  0  0  0  0
    8.6399  -13.2735   17.9704 C   0  0  0  0  0  0  0  0  0  0  0  0
    7.9742  -14.4224   20.0714 C   0  0  0  0  0  0  0  0  0  0  0  0
    7.9404  -15.8361   19.5938 C   0  0  2  0  0  0  0  0  0  0  0  0
    6.6071  -16.1933   19.0988 N   0  0  0  0  0  0  0  0  0  0  0  0
    8.3960  -16.8435   20.5839 C   0  0  0  0  0  0  0  0  0  0  0  0
    7.5068  -17.5027   21.2592 O   0  0  0  0  0  0  0  0  0  0  0  0
    9.7236  -17.1859   20.8879 N   0  0  0  0  0  0  0  0  0  0  0  0
   10.9148  -16.6205   20.2927 C   0  0  0  0  0  0  0  0  0  0  0  0
   12.0179  -17.6509   20.5262 C   0  0  0  0  0  0  0  0  0  0  0  0
   11.2407  -18.8552   20.9655 C   0  0  0  0  0  0  0  0  0  0  0  0
   10.1702  -18.2203   21.8508 C   0  0  1  0  0  0  0  0  0  0  0  0
   10.7266  -17.5040   23.0106 C   0  0  0  0  0  0  0  0  0  0  0  0
   11.5066  -16.5065   22.8998 O   0  0  0  0  0  0  0  0  0  0  0  0
   10.7531  -13.9165   31.0115 O   0  0  0  0  0  0  0  0  0  0  0  0
   10.4716  -14.5627   29.8029 C   0  0  0  0  0  0  0  0  0  0  0  0
   10.3130  -13.8480   28.6331 C   0  0  0  0  0  0  0  0  0  0  0  0
   10.0352  -14.4611   27.4325 C   0  0  0  0  0  0  0  0  0  0  0  0
    9.9026  -15.8485   27.3455 C   0  0  0  0  0  0  0  0  0  0  0  0
    9.6064  -16.5076   26.0541 C   0  0  0  0  0  0  0  0  0  0  0  0
   10.8648  -17.1067   25.4717 C   0  0  2  0  0  0  0  0  0  0  0  0
   10.4059  -17.9074   24.3299 N   0  0  0  0  0  0  0  0  0  0  0  0
   11.5819  -18.0005   26.3909 C   0  0  0  0  0  0  0  0  0  0  0  0
   12.6795  -17.5615   27.0956 O   0  0  0  0  0  0  0  0  0  0  0  0
   10.0645  -16.5518   28.5233 C   0  0  0  0  0  0  0  0  0  0  0  0
   10.3417  -15.9332   29.7236 C   0  0  0  0  0  0  0  0  0  0  0  0
   11.1909  -19.1795   26.5374 O   0  0  0  0  0  0  0  0  0  0  0  0
  2  1  1  1
  2  3  1  0
  4  5  1  0
  4  2  1  0
  5  6  1  1
  7  5  1  0
  7  8  2  0
  9  7  1  0
 10  9  1  0
 11 12  1  0
 11 10  1  0
 12 13  1  0
 13  9  1  0
 14 23  1  0
 13 14  1  1
 15 14  2  0
 16 17  1  0
 17 18  2  0
 18 19  1  0
 20 19  2  0
 20 21  1  0
 22 21  1  1
 22 23  1  0
 22 24  1  0
 24 25  1  0
 26 20  1  0
 27 17  1  0
 27 26  2  0
 28 24  2  0
M  END
$$$$
