LPY.pdb
     RDKit          3D

 28 29  0  0  1  0  0  0  0  0999 V2000
    8.2383  -12.2614   26.1950 C   0  0  0  0  0  0  0  0  0  0  0  0
    7.2756  -13.4191   26.3611 C   0  0  1  0  0  0  0  0  0  0  0  0
    6.3011  -13.0931   27.4706 C   0  0  0  0  0  0  0  0  0  0  0  0
    6.5362  -13.7032   25.0727 C   0  0  0  0  0  0  0  0  0  0  0  0
    6.1339  -15.1353   24.9494 C   0  0  2  0  0  0  0  0  0  0  0  0
    5.9882  -15.7571   26.2695 N   0  0  0  0  0  0  0  0  0  0  0  0
    7.0221  -15.9650   24.0977 C   0  0  0  0  0  0  0  0  0  0  0  0
    7.0984  -17.2386   24.3291 O   0  0  0  0  0  0  0  0  0  0  0  0
    7.8177  -15.5230   23.0284 N   0  0  0  0  0  0  0  0  0  0  0  0
    7.8708  -14.1794   22.4946 C   0  0  0  0  0  0  0  0  0  0  0  0
    8.4167  -14.3239   21.0754 C   0  0  0  0  0  0  0  0  0  0  0  0
    8.3178  -15.8020   20.8452 C   0  0  0  0  0  0  0  0  0  0  0  0
    8.7338  -16.3509   22.2085 C   0  0  1  0  0  0  0  0  0  0  0  0
   10.1032  -15.9710   22.5934 C   0  0  0  0  0  0  0  0  0  0  0  0
   10.6942  -14.9458   22.1291 O   0  0  0  0  0  0  0  0  0  0  0  0
    9.3121  -15.6581   29.8034 O   0  0  0  0  0  0  0  0  0  0  0  0
    9.8923  -15.4707   28.5441 C   0  0  0  0  0  0  0  0  0  0  0  0
   11.2611  -15.5195   28.3761 C   0  0  0  0  0  0  0  0  0  0  0  0
   11.8549  -15.3377   27.1478 C   0  0  0  0  0  0  0  0  0  0  0  0
   11.0889  -15.0953   26.0057 C   0  0  0  0  0  0  0  0  0  0  0  0
   11.7274  -14.9024   24.6848 C   0  0  0  0  0  0  0  0  0  0  0  0
   12.0916  -16.2376   24.0796 C   0  0  2  0  0  0  0  0  0  0  0  0
   10.8352  -16.7520   23.5210 N   0  0  0  0  0  0  0  0  0  0  0  0
   12.5883  -17.2193   25.0532 C   0  0  0  0  0  0  0  0  0  0  0  0
   11.8778  -18.3647   25.3313 O   0  0  0  0  0  0  0  0  0  0  0  0
    9.7203  -15.0498   26.1876 C   0  0  0  0  0  0  0  0  0  0  0  0
    9.1301  -15.2315   27.4201 C   0  0  0  0  0  0  0  0  0  0  0  0
   13.6735  -17.0135   25.6398 O   0  0  0  0  0  0  0  0  0  0  0  0
  2  1  1  6
  2  3  1  0
  4  5  1  0
  4  2  1  0
  5  6  1  1
  7  5  1  0
  7  8  2  0
  9  7  1  0
 10  9  1  0
 11 12  1  0
 11 10  1  0
 12 13  1  0
 13  9  1  0
 14 23  1  0
 13 14  1  1
 15 14  2  0
 16 17  1  0
 17 18  2  0
 18 19  1  0
 20 19  2  0
 20 21  1  0
 22 21  1  1
 22 23  1  0
 22 24  1  0
 24 25  1  0
 26 20  1  0
 27 17  1  0
 27 26  2  0
 28 24  2  0
M  END
$$$$
