RFH.pdb
     RDKit          3D

 33 34  0  0  1  0  0  0  0  0999 V2000
    7.0649  -14.4063   16.5825 N   0  0  0  0  0  0  0  0  0  0  0  0
    8.0909  -13.4424   16.6321 C   0  0  0  0  0  0  0  0  0  0  0  0
    8.8032  -13.2421   15.5709 N   0  0  0  0  0  0  0  0  0  0  0  0
    8.2997  -12.7360   17.8391 N   0  0  0  0  0  0  0  0  0  0  0  0
    7.4121  -12.9253   18.9393 C   0  0  0  0  0  0  0  0  0  0  0  0
    7.3759  -14.3782   19.4251 C   0  0  0  0  0  0  0  0  0  0  0  0
    8.2800  -14.4311   20.6407 C   0  0  0  0  0  0  0  0  0  0  0  0
    8.4070  -15.8399   21.1793 C   0  0  2  0  0  0  0  0  0  0  0  0
    7.1520  -16.5239   21.1388 N   0  0  0  0  0  0  0  0  0  0  0  0
    8.8401  -15.7083   22.6040 C   0  0  0  0  0  0  0  0  0  0  0  0
    9.9426  -15.1692   22.8702 O   0  0  0  0  0  0  0  0  0  0  0  0
    9.5564  -12.5502   15.5620 N   0  0  0  0  0  0  0  0  0  0  0  0
    8.0326  -16.1804   23.6816 C   0  0  1  0  0  0  0  0  0  0  0  0
    8.3924  -16.1422   25.0625 C   0  0  0  0  0  0  0  0  0  0  0  0
    7.2916  -15.6888   26.0049 C   0  0  0  0  0  0  0  0  0  0  0  0
    7.1486  -14.2147   26.0608 C   0  0  0  0  0  0  0  0  0  0  0  0
    8.1920  -13.4652   26.6341 C   0  0  0  0  0  0  0  0  0  0  0  0
    8.1575  -12.0996   26.7422 C   0  0  0  0  0  0  0  0  0  0  0  0
    7.0618  -11.4169   26.2746 C   0  0  0  0  0  0  0  0  0  0  0  0
    6.0295  -12.1005   25.7131 C   0  0  0  0  0  0  0  0  0  0  0  0
    6.0815  -13.4821   25.6121 C   0  0  0  0  0  0  0  0  0  0  0  0
    9.1635  -17.2940   25.5386 O   0  0  0  0  0  0  0  0  0  0  0  0
    8.6347  -18.4631   25.5547 N   0  0  0  0  0  0  0  0  0  0  0  0
   10.4933  -17.2442   26.0033 C   0  0  1  0  0  0  0  0  0  0  0  0
   11.2051  -18.4702   26.4374 C   0  0  0  0  0  0  0  0  0  0  0  0
   12.5961  -18.3110   25.8904 C   0  0  0  0  0  0  0  0  0  0  0  0
   13.5362  -19.3720   26.2395 C   0  0  0  0  0  0  0  0  0  0  0  0
   13.1292  -20.7088   26.2772 N   0  0  0  0  0  0  0  0  0  0  0  0
   14.1810  -21.4554   26.6236 C   0  0  0  0  0  0  0  0  0  0  0  0
   15.2068  -20.5998   26.7941 N   0  0  0  0  0  0  0  0  0  0  0  0
   14.8216  -19.3489   26.5639 C   0  0  0  0  0  0  0  0  0  0  0  0
   11.1406  -18.5899   27.9052 O   0  0  0  0  0  0  0  0  0  0  0  0
   11.4093  -19.8159   28.5447 O   0  0  0  0  0  0  0  0  0  0  0  0
  2  4  1  0
  2  1  1  0
  3  2  2  0
  5  4  1  0
  6  5  1  0
  7  6  1  0
  8  7  1  0
  8  9  1  1
 10  8  1  0
 10 12  1  0
 11 10  2  0
 13 12  1  0
 13 14  1  1
 15 14  1  0
 15 16  2  0
 17 16  1  0
 18 17  2  0
 19 20  2  0
 19 18  1  0
 20 15  1  0
 21 13  1  0
 21 22  2  0
 23 24  1  0
 23 21  1  0
 24 25  1  1
 25 26  1  0
 26 30  1  0
 27 28  1  0
 27 26  2  0
 28 29  1  0
 29 30  2  0
 31 24  1  0
 32 31  1  0
 33 31  2  0
M  END
$$$$
