RFH.pdb
     RDKit          3D

 33 34  0  0  1  0  0  0  0  0999 V2000
   10.5166  -15.4395   14.4627 N   0  0  0  0  0  0  0  0  0  0  0  0
    9.1298  -15.2527   14.3004 C   0  0  0  0  0  0  0  0  0  0  0  0
    8.6864  -14.8871   13.1414 N   0  0  0  0  0  0  0  0  0  0  0  0
    8.2819  -15.4713   15.4107 N   0  0  0  0  0  0  0  0  0  0  0  0
    8.8236  -15.9562   16.6377 C   0  0  0  0  0  0  0  0  0  0  0  0
    7.7516  -16.1742   17.7108 C   0  0  0  0  0  0  0  0  0  0  0  0
    8.3921  -15.7706   19.0240 C   0  0  0  0  0  0  0  0  0  0  0  0
    7.8540  -14.4466   19.5224 C   0  0  2  0  0  0  0  0  0  0  0  0
    8.3954  -13.3544   18.7750 N   0  0  0  0  0  0  0  0  0  0  0  0
    8.2928  -14.3229   20.9459 C   0  0  0  0  0  0  0  0  0  0  0  0
    9.4894  -14.0426   21.2044 O   0  0  0  0  0  0  0  0  0  0  0  0
    7.6843  -14.7768   12.9690 N   0  0  0  0  0  0  0  0  0  0  0  0
    7.3864  -14.5150   22.0311 C   0  0  1  0  0  0  0  0  0  0  0  0
    7.7056  -14.3537   23.4132 C   0  0  0  0  0  0  0  0  0  0  0  0
    6.6843  -13.5779   24.2260 C   0  0  0  0  0  0  0  0  0  0  0  0
    7.1010  -13.3714   25.6332 C   0  0  0  0  0  0  0  0  0  0  0  0
    7.8952  -12.2501   25.9353 C   0  0  0  0  0  0  0  0  0  0  0  0
    8.3404  -11.9704   27.2007 C   0  0  0  0  0  0  0  0  0  0  0  0
    8.0052  -12.8132   28.2316 C   0  0  0  0  0  0  0  0  0  0  0  0
    7.2396  -13.9094   27.9857 C   0  0  0  0  0  0  0  0  0  0  0  0
    6.7980  -14.1767   26.6992 C   0  0  0  0  0  0  0  0  0  0  0  0
    8.2273  -15.5516   24.0772 O   0  0  0  0  0  0  0  0  0  0  0  0
    7.4658  -16.5662   24.2707 N   0  0  0  0  0  0  0  0  0  0  0  0
    9.5467  -15.7089   24.5476 C   0  0  1  0  0  0  0  0  0  0  0  0
    9.9599  -16.9214   25.2942 C   0  0  0  0  0  0  0  0  0  0  0  0
   11.3387  -17.2279   24.7801 C   0  0  0  0  0  0  0  0  0  0  0  0
   11.4174  -17.6033   23.3715 C   0  0  0  0  0  0  0  0  0  0  0  0
   10.2652  -17.6841   22.5841 N   0  0  0  0  0  0  0  0  0  0  0  0
   10.6275  -18.0466   21.3508 C   0  0  0  0  0  0  0  0  0  0  0  0
   11.9666  -18.1845   21.3799 N   0  0  0  0  0  0  0  0  0  0  0  0
   12.4424  -17.9188   22.5920 C   0  0  0  0  0  0  0  0  0  0  0  0
    9.8975  -16.6589   26.7434 O   0  0  0  0  0  0  0  0  0  0  0  0
   10.1427  -17.6851   27.6768 O   0  0  0  0  0  0  0  0  0  0  0  0
  2  4  1  0
  2  1  1  0
  3  2  2  0
  5  4  1  0
  6  5  1  0
  7  6  1  0
  8  7  1  0
  8  9  1  6
 10  8  1  0
 10 12  1  0
 11 10  2  0
 13 12  1  0
 13 14  1  6
 15 14  1  0
 15 16  2  0
 17 16  1  0
 18 17  2  0
 19 20  2  0
 19 18  1  0
 20 15  1  0
 21 13  1  0
 21 22  2  0
 23 24  1  0
 23 21  1  0
 24 25  1  1
 25 26  1  0
 26 30  1  0
 27 28  1  0
 27 26  2  0
 28 29  1  0
 29 30  2  0
 31 24  1  0
 32 31  1  0
 33 31  2  0
M  END
$$$$
