RFH.pdb
     RDKit          3D

 33 34  0  0  1  0  0  0  0  0999 V2000
    7.1744  -14.8101   15.3822 N   0  0  0  0  0  0  0  0  0  0  0  0
    8.2077  -13.8534   15.3469 C   0  0  0  0  0  0  0  0  0  0  0  0
    8.8625  -13.6906   14.2432 N   0  0  0  0  0  0  0  0  0  0  0  0
    8.4863  -13.1130   16.5189 N   0  0  0  0  0  0  0  0  0  0  0  0
    7.6552  -13.2579   17.6689 C   0  0  0  0  0  0  0  0  0  0  0  0
    7.7791  -14.6414   18.3160 C   0  0  0  0  0  0  0  0  0  0  0  0
    8.4396  -14.4119   19.6609 C   0  0  0  0  0  0  0  0  0  0  0  0
    8.8073  -15.7184   20.3310 C   0  0  2  0  0  0  0  0  0  0  0  0
    7.7798  -16.6970   20.1544 N   0  0  0  0  0  0  0  0  0  0  0  0
    8.9448  -15.4195   21.7891 C   0  0  0  0  0  0  0  0  0  0  0  0
    9.8022  -14.5864   22.1737 O   0  0  0  0  0  0  0  0  0  0  0  0
    9.5526  -12.9424   14.1427 N   0  0  0  0  0  0  0  0  0  0  0  0
    8.1247  -16.0568   22.7675 C   0  0  1  0  0  0  0  0  0  0  0  0
    8.1743  -15.8135   24.1733 C   0  0  0  0  0  0  0  0  0  0  0  0
    6.8530  -15.4171   24.8077 C   0  0  0  0  0  0  0  0  0  0  0  0
    6.9250  -14.1294   25.5378 C   0  0  0  0  0  0  0  0  0  0  0  0
    7.2125  -12.9631   24.8054 C   0  0  0  0  0  0  0  0  0  0  0  0
    7.3093  -11.7244   25.3830 C   0  0  0  0  0  0  0  0  0  0  0  0
    7.1201  -11.5988   26.7372 C   0  0  0  0  0  0  0  0  0  0  0  0
    6.8405  -12.6993   27.4847 C   0  0  0  0  0  0  0  0  0  0  0  0
    6.7463  -13.9447   26.8834 C   0  0  0  0  0  0  0  0  0  0  0  0
    8.9530  -16.7841   24.9476 O   0  0  0  0  0  0  0  0  0  0  0  0
    8.5608  -18.0027   25.0368 N   0  0  0  0  0  0  0  0  0  0  0  0
   10.1486  -16.4996   25.6378 C   0  0  1  0  0  0  0  0  0  0  0  0
   10.8566  -17.5437   26.4170 C   0  0  0  0  0  0  0  0  0  0  0  0
   12.3082  -17.3427   26.0826 C   0  0  0  0  0  0  0  0  0  0  0  0
   12.6983  -17.7055   24.7234 C   0  0  0  0  0  0  0  0  0  0  0  0
   11.8342  -18.4300   23.8972 N   0  0  0  0  0  0  0  0  0  0  0  0
   12.4423  -18.6215   22.7236 C   0  0  0  0  0  0  0  0  0  0  0  0
   13.6477  -18.0302   22.8263 N   0  0  0  0  0  0  0  0  0  0  0  0
   13.8031  -17.4799   24.0260 C   0  0  0  0  0  0  0  0  0  0  0  0
   10.5382  -17.3979   27.8488 O   0  0  0  0  0  0  0  0  0  0  0  0
    9.6554  -16.3954   28.2963 O   0  0  0  0  0  0  0  0  0  0  0  0
  2  4  1  0
  2  1  1  0
  3  2  2  0
  5  4  1  0
  6  5  1  0
  7  6  1  0
  8  7  1  0
  8  9  1  1
 10  8  1  0
 10 12  1  0
 11 10  2  0
 13 12  1  0
 13 14  1  1
 15 14  1  0
 15 16  2  0
 17 16  1  0
 18 17  2  0
 19 20  2  0
 19 18  1  0
 20 15  1  0
 21 13  1  0
 21 22  2  0
 23 24  1  0
 23 21  1  0
 24 25  1  1
 25 26  1  0
 26 30  1  0
 27 28  1  0
 27 26  2  0
 28 29  1  0
 29 30  2  0
 31 24  1  0
 32 31  1  0
 33 31  2  0
M  END
$$$$
