RFH.pdb
     RDKit          3D

 33 34  0  0  1  0  0  0  0  0999 V2000
    8.0951  -12.4524   17.7001 N   0  0  0  0  0  0  0  0  0  0  0  0
    8.6506  -12.6290   18.9825 C   0  0  0  0  0  0  0  0  0  0  0  0
    8.8938  -11.5811   19.7009 N   0  0  0  0  0  0  0  0  0  0  0  0
    8.9200  -13.9432   19.4294 N   0  0  0  0  0  0  0  0  0  0  0  0
    7.9753  -14.9852   19.1923 C   0  0  0  0  0  0  0  0  0  0  0  0
    8.5038  -16.3648   19.5995 C   0  0  0  0  0  0  0  0  0  0  0  0
    9.0883  -16.1913   20.9873 C   0  0  0  0  0  0  0  0  0  0  0  0
    8.7143  -17.3418   21.8969 C   0  0  2  0  0  0  0  0  0  0  0  0
    7.3237  -17.6563   21.7874 N   0  0  0  0  0  0  0  0  0  0  0  0
    8.9982  -16.8851   23.2916 C   0  0  0  0  0  0  0  0  0  0  0  0
   10.1500  -16.4841   23.5910 O   0  0  0  0  0  0  0  0  0  0  0  0
    9.3694  -11.6568   20.6033 N   0  0  0  0  0  0  0  0  0  0  0  0
    7.9922  -16.8901   24.3035 C   0  0  1  0  0  0  0  0  0  0  0  0
    8.2092  -16.6101   25.6864 C   0  0  0  0  0  0  0  0  0  0  0  0
    7.0791  -15.8718   26.3815 C   0  0  0  0  0  0  0  0  0  0  0  0
    7.0222  -14.4342   26.0256 C   0  0  0  0  0  0  0  0  0  0  0  0
    7.7384  -13.5217   26.8216 C   0  0  0  0  0  0  0  0  0  0  0  0
    7.7473  -12.1721   26.5849 C   0  0  0  0  0  0  0  0  0  0  0  0
    7.0294  -11.6716   25.5268 C   0  0  0  0  0  0  0  0  0  0  0  0
    6.3219  -12.5168   24.7310 C   0  0  0  0  0  0  0  0  0  0  0  0
    6.3244  -13.8795   24.9854 C   0  0  0  0  0  0  0  0  0  0  0  0
    8.7836  -17.7120   26.4636 O   0  0  0  0  0  0  0  0  0  0  0  0
    8.3830  -18.9158   26.2708 N   0  0  0  0  0  0  0  0  0  0  0  0
    9.7811  -17.5755   27.4501 C   0  0  1  0  0  0  0  0  0  0  0  0
   10.6435  -18.7176   27.8381 C   0  0  0  0  0  0  0  0  0  0  0  0
   11.5745  -18.8988   26.6721 C   0  0  0  0  0  0  0  0  0  0  0  0
   12.6053  -19.9187   26.8409 C   0  0  0  0  0  0  0  0  0  0  0  0
   12.6702  -20.6887   28.0058 N   0  0  0  0  0  0  0  0  0  0  0  0
   13.6999  -21.5316   27.8917 C   0  0  0  0  0  0  0  0  0  0  0  0
   14.2526  -21.2860   26.6887 N   0  0  0  0  0  0  0  0  0  0  0  0
   13.5968  -20.3182   26.0565 C   0  0  0  0  0  0  0  0  0  0  0  0
   11.3197  -18.4197   29.1137 O   0  0  0  0  0  0  0  0  0  0  0  0
   11.9269  -19.4429   29.8679 O   0  0  0  0  0  0  0  0  0  0  0  0
  2  4  1  0
  2  1  1  0
  3  2  2  0
  5  4  1  0
  6  5  1  0
  7  6  1  0
  8  7  1  0
  8  9  1  1
 10  8  1  0
 10 12  1  0
 11 10  2  0
 13 12  1  0
 13 14  1  1
 15 14  1  0
 15 16  2  0
 17 16  1  0
 18 17  2  0
 19 20  2  0
 19 18  1  0
 20 15  1  0
 21 13  1  0
 21 22  2  0
 23 24  1  0
 23 21  1  0
 24 25  1  1
 25 26  1  0
 26 30  1  0
 27 28  1  0
 27 26  2  0
 28 29  1  0
 29 30  2  0
 31 24  1  0
 32 31  1  0
 33 31  2  0
M  END
$$$$
