RFH.pdb
     RDKit          3D

 33 34  0  0  1  0  0  0  0  0999 V2000
    8.4687  -12.3683   17.8703 N   0  0  0  0  0  0  0  0  0  0  0  0
    8.6246  -13.4745   17.0123 C   0  0  0  0  0  0  0  0  0  0  0  0
    8.1409  -13.4013   15.8147 N   0  0  0  0  0  0  0  0  0  0  0  0
    9.3015  -14.6178   17.4962 N   0  0  0  0  0  0  0  0  0  0  0  0
    9.8051  -14.6372   18.8305 C   0  0  0  0  0  0  0  0  0  0  0  0
    8.6954  -14.7748   19.8782 C   0  0  0  0  0  0  0  0  0  0  0  0
    8.8989  -16.1323   20.5213 C   0  0  0  0  0  0  0  0  0  0  0  0
    7.7767  -16.4684   21.4797 C   0  0  2  0  0  0  0  0  0  0  0  0
    6.6424  -15.6249   21.2637 N   0  0  0  0  0  0  0  0  0  0  0  0
    8.3088  -16.2202   22.8544 C   0  0  0  0  0  0  0  0  0  0  0  0
    9.4714  -15.7674   22.9975 O   0  0  0  0  0  0  0  0  0  0  0  0
    8.2865  -14.1546   15.1383 N   0  0  0  0  0  0  0  0  0  0  0  0
    7.5301  -16.4840   24.0206 C   0  0  1  0  0  0  0  0  0  0  0  0
    7.9413  -16.2305   25.3640 C   0  0  0  0  0  0  0  0  0  0  0  0
    6.8902  -15.5875   26.2512 C   0  0  0  0  0  0  0  0  0  0  0  0
    6.8658  -14.1097   26.1413 C   0  0  0  0  0  0  0  0  0  0  0  0
    8.0259  -13.3959   26.4931 C   0  0  0  0  0  0  0  0  0  0  0  0
    8.1072  -12.0293   26.4353 C   0  0  0  0  0  0  0  0  0  0  0  0
    7.0154  -11.3092   26.0173 C   0  0  0  0  0  0  0  0  0  0  0  0
    5.8727  -11.9574   25.6677 C   0  0  0  0  0  0  0  0  0  0  0  0
    5.8084  -13.3406   25.7324 C   0  0  0  0  0  0  0  0  0  0  0  0
    8.6937  -17.3148   26.0014 O   0  0  0  0  0  0  0  0  0  0  0  0
    8.1828  -18.4884   26.0931 N   0  0  0  0  0  0  0  0  0  0  0  0
    9.9860  -17.1919   26.5507 C   0  0  1  0  0  0  0  0  0  0  0  0
   10.6833  -18.3553   27.1497 C   0  0  0  0  0  0  0  0  0  0  0  0
   12.1344  -18.1297   26.8293 C   0  0  0  0  0  0  0  0  0  0  0  0
   12.4761  -18.1418   25.4101 C   0  0  0  0  0  0  0  0  0  0  0  0
   11.5862  -18.6535   24.4612 N   0  0  0  0  0  0  0  0  0  0  0  0
   12.1517  -18.5420   23.2564 C   0  0  0  0  0  0  0  0  0  0  0  0
   13.3568  -17.9767   23.4599 N   0  0  0  0  0  0  0  0  0  0  0  0
   13.5531  -17.7357   24.7521 C   0  0  0  0  0  0  0  0  0  0  0  0
   10.3844  -18.4265   28.5914 O   0  0  0  0  0  0  0  0  0  0  0  0
   10.8577  -19.4954   29.3775 O   0  0  0  0  0  0  0  0  0  0  0  0
  2  4  1  0
  2  1  1  0
  3  2  2  0
  5  4  1  0
  6  5  1  0
  7  6  1  0
  8  7  1  0
  8  9  1  6
 10  8  1  0
 10 12  1  0
 11 10  2  0
 13 12  1  0
 13 14  1  1
 15 14  1  0
 15 16  2  0
 17 16  1  0
 18 17  2  0
 19 20  2  0
 19 18  1  0
 20 15  1  0
 21 13  1  0
 21 22  2  0
 23 24  1  0
 23 21  1  0
 24 25  1  1
 25 26  1  0
 26 30  1  0
 27 28  1  0
 27 26  2  0
 28 29  1  0
 29 30  2  0
 31 24  1  0
 32 31  1  0
 33 31  2  0
M  END
$$$$
