RFH.pdb
     RDKit          3D

 33 34  0  0  1  0  0  0  0  0999 V2000
    6.4406  -18.5710   17.5549 N   0  0  0  0  0  0  0  0  0  0  0  0
    6.9701  -19.8142   17.1568 C   0  0  0  0  0  0  0  0  0  0  0  0
    6.6586  -20.2735   15.9883 N   0  0  0  0  0  0  0  0  0  0  0  0
    7.8181  -20.5075   18.0511 N   0  0  0  0  0  0  0  0  0  0  0  0
    8.0897  -19.9654   19.3420 C   0  0  0  0  0  0  0  0  0  0  0  0
    8.9985  -18.7329   19.2853 C   0  0  0  0  0  0  0  0  0  0  0  0
    8.2136  -17.6094   19.9329 C   0  0  0  0  0  0  0  0  0  0  0  0
    8.9446  -16.2880   19.8299 C   0  0  2  0  0  0  0  0  0  0  0  0
   10.2310  -16.4544   19.2281 N   0  0  0  0  0  0  0  0  0  0  0  0
    9.1258  -15.7970   21.2301 C   0  0  0  0  0  0  0  0  0  0  0  0
   10.1817  -16.0713   21.8522 O   0  0  0  0  0  0  0  0  0  0  0  0
    6.9990  -21.1838   15.6695 N   0  0  0  0  0  0  0  0  0  0  0  0
    8.1273  -15.0190   21.8888 C   0  0  2  0  0  0  0  0  0  0  0  0
    8.2102  -14.5299   23.2274 C   0  0  0  0  0  0  0  0  0  0  0  0
    7.1838  -13.4727   23.5938 C   0  0  0  0  0  0  0  0  0  0  0  0
    7.2712  -13.0482   25.0111 C   0  0  0  0  0  0  0  0  0  0  0  0
    8.2172  -12.0654   25.3553 C   0  0  0  0  0  0  0  0  0  0  0  0
    8.3851  -11.6077   26.6359 C   0  0  0  0  0  0  0  0  0  0  0  0
    7.6026  -12.1217   27.6402 C   0  0  0  0  0  0  0  0  0  0  0  0
    6.6754  -13.0737   27.3536 C   0  0  0  0  0  0  0  0  0  0  0  0
    6.5192  -13.5249   26.0522 C   0  0  0  0  0  0  0  0  0  0  0  0
    8.4203  -15.5543   24.2543 O   0  0  0  0  0  0  0  0  0  0  0  0
    7.5442  -16.4738   24.4381 N   0  0  0  0  0  0  0  0  0  0  0  0
    9.5437  -15.6351   25.1019 C   0  0  1  0  0  0  0  0  0  0  0  0
    9.7784  -16.8210   25.9604 C   0  0  0  0  0  0  0  0  0  0  0  0
   11.0813  -17.3880   25.4702 C   0  0  0  0  0  0  0  0  0  0  0  0
   11.6118  -18.5077   26.2422 C   0  0  0  0  0  0  0  0  0  0  0  0
   10.9334  -18.9922   27.3644 N   0  0  0  0  0  0  0  0  0  0  0  0
   11.6385  -20.0064   27.8723 C   0  0  0  0  0  0  0  0  0  0  0  0
   12.7212  -20.1413   27.0830 N   0  0  0  0  0  0  0  0  0  0  0  0
   12.7068  -19.2425   26.1041 C   0  0  0  0  0  0  0  0  0  0  0  0
    9.7883  -16.4153   27.3775 O   0  0  0  0  0  0  0  0  0  0  0  0
    9.3315  -17.2885   28.3842 O   0  0  0  0  0  0  0  0  0  0  0  0
  2  4  1  0
  2  1  1  0
  3  2  2  0
  5  4  1  0
  6  5  1  0
  7  6  1  0
  8  7  1  0
  8  9  1  1
 10  8  1  0
 10 12  1  0
 11 10  2  0
 13 12  1  0
 13 14  1  6
 15 14  1  0
 15 16  2  0
 17 16  1  0
 18 17  2  0
 19 20  2  0
 19 18  1  0
 20 15  1  0
 21 13  1  0
 21 22  2  0
 23 24  1  0
 23 21  1  0
 24 25  1  1
 25 26  1  0
 26 30  1  0
 27 28  1  0
 27 26  2  0
 28 29  1  0
 29 30  2  0
 31 24  1  0
 32 31  1  0
 33 31  2  0
M  END
$$$$
