RFH.pdb
     RDKit          3D

 33 34  0  0  1  0  0  0  0  0999 V2000
    7.1725  -12.5038   15.3355 N   0  0  0  0  0  0  0  0  0  0  0  0
    7.8857  -13.6733   15.6642 C   0  0  0  0  0  0  0  0  0  0  0  0
    7.7487  -14.7143   14.9085 N   0  0  0  0  0  0  0  0  0  0  0  0
    8.7194  -13.6604   16.8062 N   0  0  0  0  0  0  0  0  0  0  0  0
    9.4724  -14.8209   17.1531 C   0  0  0  0  0  0  0  0  0  0  0  0
    8.8227  -15.6310   18.2799 C   0  0  0  0  0  0  0  0  0  0  0  0
    9.9603  -16.0837   19.1736 C   0  0  0  0  0  0  0  0  0  0  0  0
    9.4708  -16.9915   20.2814 C   0  0  2  0  0  0  0  0  0  0  0  0
    8.1397  -17.4472   20.0261 N   0  0  0  0  0  0  0  0  0  0  0  0
    9.4691  -16.1691   21.5297 C   0  0  0  0  0  0  0  0  0  0  0  0
   10.5269  -15.6034   21.9016 O   0  0  0  0  0  0  0  0  0  0  0  0
    8.2607  -15.5786   15.1006 N   0  0  0  0  0  0  0  0  0  0  0  0
    8.2923  -16.0046   22.3197 C   0  0  1  0  0  0  0  0  0  0  0  0
    8.2348  -15.3625   23.5934 C   0  0  0  0  0  0  0  0  0  0  0  0
    6.9850  -14.5380   23.8457 C   0  0  0  0  0  0  0  0  0  0  0  0
    7.0202  -13.8151   25.1390 C   0  0  0  0  0  0  0  0  0  0  0  0
    7.6422  -12.5539   25.1808 C   0  0  0  0  0  0  0  0  0  0  0  0
    7.7362  -11.8061   26.3251 C   0  0  0  0  0  0  0  0  0  0  0  0
    7.2043  -12.2959   27.4924 C   0  0  0  0  0  0  0  0  0  0  0  0
    6.5941  -13.5107   27.4988 C   0  0  0  0  0  0  0  0  0  0  0  0
    6.5082  -14.2535   26.3316 C   0  0  0  0  0  0  0  0  0  0  0  0
    8.6572  -16.1883   24.7282 O   0  0  0  0  0  0  0  0  0  0  0  0
    7.9546  -17.2003   25.0873 N   0  0  0  0  0  0  0  0  0  0  0  0
    9.8148  -15.9719   25.5028 C   0  0  1  0  0  0  0  0  0  0  0  0
   10.1767  -16.8786   26.6188 C   0  0  0  0  0  0  0  0  0  0  0  0
   11.6233  -17.2098   26.3801 C   0  0  0  0  0  0  0  0  0  0  0  0
   11.9004  -17.9986   25.1834 C   0  0  0  0  0  0  0  0  0  0  0  0
   11.5065  -19.3372   25.0981 N   0  0  0  0  0  0  0  0  0  0  0  0
   11.8858  -19.8085   23.9074 C   0  0  0  0  0  0  0  0  0  0  0  0
   12.4963  -18.7865   23.2780 N   0  0  0  0  0  0  0  0  0  0  0  0
   12.5060  -17.6994   24.0424 C   0  0  0  0  0  0  0  0  0  0  0  0
    9.9114  -16.2129   27.9069 O   0  0  0  0  0  0  0  0  0  0  0  0
   10.0713  -16.9021   29.1250 O   0  0  0  0  0  0  0  0  0  0  0  0
  2  4  1  0
  2  1  1  0
  3  2  2  0
  5  4  1  0
  6  5  1  0
  7  6  1  0
  8  7  1  0
  8  9  1  6
 10  8  1  0
 10 12  1  0
 11 10  2  0
 13 12  1  0
 13 14  1  1
 15 14  1  0
 15 16  2  0
 17 16  1  0
 18 17  2  0
 19 20  2  0
 19 18  1  0
 20 15  1  0
 21 13  1  0
 21 22  2  0
 23 24  1  0
 23 21  1  0
 24 25  1  1
 25 26  1  0
 26 30  1  0
 27 28  1  0
 27 26  2  0
 28 29  1  0
 29 30  2  0
 31 24  1  0
 32 31  1  0
 33 31  2  0
M  END
$$$$
