RFH.pdb
     RDKit          3D

 33 34  0  0  1  0  0  0  0  0999 V2000
    7.6267  -21.0549   18.1943 N   0  0  0  0  0  0  0  0  0  0  0  0
    8.8589  -21.7247   18.0620 C   0  0  0  0  0  0  0  0  0  0  0  0
    9.0144  -22.5440   17.0730 N   0  0  0  0  0  0  0  0  0  0  0  0
    9.8724  -21.4744   19.0156 N   0  0  0  0  0  0  0  0  0  0  0  0
    9.6556  -20.5206   20.0537 C   0  0  0  0  0  0  0  0  0  0  0  0
    9.5914  -19.0821   19.5294 C   0  0  0  0  0  0  0  0  0  0  0  0
    9.4272  -18.2024   20.7529 C   0  0  0  0  0  0  0  0  0  0  0  0
    9.3102  -16.7410   20.3764 C   0  0  2  0  0  0  0  0  0  0  0  0
   10.3702  -16.3462   19.5017 N   0  0  0  0  0  0  0  0  0  0  0  0
    9.4217  -15.9678   21.6508 C   0  0  0  0  0  0  0  0  0  0  0  0
   10.5547  -15.6326   22.0764 O   0  0  0  0  0  0  0  0  0  0  0  0
    9.8957  -23.0440   16.9336 N   0  0  0  0  0  0  0  0  0  0  0  0
    8.2703  -15.5947   22.4067 C   0  0  2  0  0  0  0  0  0  0  0  0
    8.2908  -14.9578   23.6841 C   0  0  0  0  0  0  0  0  0  0  0  0
    7.0615  -14.1295   24.0130 C   0  0  0  0  0  0  0  0  0  0  0  0
    7.1109  -13.5343   25.3695 C   0  0  0  0  0  0  0  0  0  0  0  0
    7.8445  -12.3476   25.5503 C   0  0  0  0  0  0  0  0  0  0  0  0
    7.9607  -11.7198   26.7627 C   0  0  0  0  0  0  0  0  0  0  0  0
    7.3391  -12.2610   27.8609 C   0  0  0  0  0  0  0  0  0  0  0  0
    6.6196  -13.4074   27.7328 C   0  0  0  0  0  0  0  0  0  0  0  0
    6.5128  -14.0289   26.4983 C   0  0  0  0  0  0  0  0  0  0  0  0
    8.7759  -15.7900   24.7887 O   0  0  0  0  0  0  0  0  0  0  0  0
    8.0485  -16.7424   25.2475 N   0  0  0  0  0  0  0  0  0  0  0  0
   10.0229  -15.6422   25.4290 C   0  0  1  0  0  0  0  0  0  0  0  0
   10.4161  -16.5137   26.5623 C   0  0  0  0  0  0  0  0  0  0  0  0
   11.8402  -16.8939   26.2677 C   0  0  0  0  0  0  0  0  0  0  0  0
   12.0181  -17.9598   25.2861 C   0  0  0  0  0  0  0  0  0  0  0  0
   10.9244  -18.6907   24.8131 N   0  0  0  0  0  0  0  0  0  0  0  0
   11.3733  -19.5926   23.9362 C   0  0  0  0  0  0  0  0  0  0  0  0
   12.7073  -19.4200   23.8723 N   0  0  0  0  0  0  0  0  0  0  0  0
   13.0960  -18.4404   24.6819 C   0  0  0  0  0  0  0  0  0  0  0  0
   10.2320  -15.7904   27.8335 O   0  0  0  0  0  0  0  0  0  0  0  0
   10.4129  -16.4409   29.0699 O   0  0  0  0  0  0  0  0  0  0  0  0
  2  4  1  0
  2  1  1  0
  3  2  2  0
  5  4  1  0
  6  5  1  0
  7  6  1  0
  8  7  1  0
  8  9  1  6
 10  8  1  0
 10 12  1  0
 11 10  2  0
 13 12  1  0
 13 14  1  6
 15 14  1  0
 15 16  2  0
 17 16  1  0
 18 17  2  0
 19 20  2  0
 19 18  1  0
 20 15  1  0
 21 13  1  0
 21 22  2  0
 23 24  1  0
 23 21  1  0
 24 25  1  1
 25 26  1  0
 26 30  1  0
 27 28  1  0
 27 26  2  0
 28 29  1  0
 29 30  2  0
 31 24  1  0
 32 31  1  0
 33 31  2  0
M  END
$$$$
