RFH.pdb
     RDKit          3D

 33 34  0  0  1  0  0  0  0  0999 V2000
    9.6049  -14.4840   15.6493 N   0  0  0  0  0  0  0  0  0  0  0  0
    8.4983  -13.8170   16.2104 C   0  0  0  0  0  0  0  0  0  0  0  0
    8.4474  -12.5269   16.1291 N   0  0  0  0  0  0  0  0  0  0  0  0
    7.4915  -14.5850   16.8396 N   0  0  0  0  0  0  0  0  0  0  0  0
    7.2703  -14.4592   18.2429 C   0  0  0  0  0  0  0  0  0  0  0  0
    8.5429  -14.0838   19.0096 C   0  0  0  0  0  0  0  0  0  0  0  0
    8.1555  -14.0726   20.4750 C   0  0  0  0  0  0  0  0  0  0  0  0
    8.0307  -15.4758   21.0288 C   0  0  2  0  0  0  0  0  0  0  0  0
    6.6605  -15.8725   21.1278 N   0  0  0  0  0  0  0  0  0  0  0  0
    8.6244  -15.4414   22.4002 C   0  0  0  0  0  0  0  0  0  0  0  0
    9.8329  -15.1325   22.5458 O   0  0  0  0  0  0  0  0  0  0  0  0
    7.6821  -11.9996   16.5562 N   0  0  0  0  0  0  0  0  0  0  0  0
    7.8540  -15.7513   23.5606 C   0  0  1  0  0  0  0  0  0  0  0  0
    8.3652  -15.8523   24.8896 C   0  0  0  0  0  0  0  0  0  0  0  0
    7.4156  -15.3977   25.9837 C   0  0  0  0  0  0  0  0  0  0  0  0
    7.1936  -13.9323   25.9851 C   0  0  0  0  0  0  0  0  0  0  0  0
    5.9013  -13.4538   25.7016 C   0  0  0  0  0  0  0  0  0  0  0  0
    5.5902  -12.1198   25.6698 C   0  0  0  0  0  0  0  0  0  0  0  0
    6.5731  -11.1952   25.9236 C   0  0  0  0  0  0  0  0  0  0  0  0
    7.8367  -11.6124   26.2019 C   0  0  0  0  0  0  0  0  0  0  0  0
    8.1334  -12.9662   26.2298 C   0  0  0  0  0  0  0  0  0  0  0  0
    9.0868  -17.0925   25.1881 O   0  0  0  0  0  0  0  0  0  0  0  0
    9.1474  -18.0307   24.3146 N   0  0  0  0  0  0  0  0  0  0  0  0
    9.7541  -17.3720   26.3979 C   0  0  1  0  0  0  0  0  0  0  0  0
   11.0467  -18.0982   26.4158 C   0  0  0  0  0  0  0  0  0  0  0  0
   11.9891  -17.2071   25.6562 C   0  0  0  0  0  0  0  0  0  0  0  0
   12.2519  -17.5990   24.2747 C   0  0  0  0  0  0  0  0  0  0  0  0
   11.4577  -18.5557   23.6358 N   0  0  0  0  0  0  0  0  0  0  0  0
   11.9202  -18.7195   22.3937 C   0  0  0  0  0  0  0  0  0  0  0  0
   12.9705  -17.8855   22.2728 N   0  0  0  0  0  0  0  0  0  0  0  0
   13.1710  -17.2122   23.4009 C   0  0  0  0  0  0  0  0  0  0  0  0
   11.4506  -18.3609   27.8089 O   0  0  0  0  0  0  0  0  0  0  0  0
   12.3300  -19.4161   28.1215 O   0  0  0  0  0  0  0  0  0  0  0  0
  2  4  1  0
  2  1  1  0
  3  2  2  0
  5  4  1  0
  6  5  1  0
  7  6  1  0
  8  7  1  0
  8  9  1  1
 10  8  1  0
 10 12  1  0
 11 10  2  0
 13 12  1  0
 13 14  1  6
 15 14  1  0
 15 16  2  0
 17 16  1  0
 18 17  2  0
 19 20  2  0
 19 18  1  0
 20 15  1  0
 21 13  1  0
 21 22  2  0
 23 24  1  0
 23 21  1  0
 24 25  1  1
 25 26  1  0
 26 30  1  0
 27 28  1  0
 27 26  2  0
 28 29  1  0
 29 30  2  0
 31 24  1  0
 32 31  1  0
 33 31  2  0
M  END
$$$$
