RFH.pdb
     RDKit          3D

 33 34  0  0  1  0  0  0  0  0999 V2000
    7.8709  -13.3389   16.4388 N   0  0  0  0  0  0  0  0  0  0  0  0
    7.3354  -13.9655   17.5812 C   0  0  0  0  0  0  0  0  0  0  0  0
    6.9611  -13.2256   18.5742 N   0  0  0  0  0  0  0  0  0  0  0  0
    7.2310  -15.3755   17.5948 N   0  0  0  0  0  0  0  0  0  0  0  0
    8.3887  -16.1789   17.3747 C   0  0  0  0  0  0  0  0  0  0  0  0
    8.4111  -17.4349   18.2523 C   0  0  0  0  0  0  0  0  0  0  0  0
    8.4738  -16.9390   19.6834 C   0  0  0  0  0  0  0  0  0  0  0  0
    9.7701  -16.2096   19.9637 C   0  0  2  0  0  0  0  0  0  0  0  0
   10.8997  -17.0546   19.7298 N   0  0  0  0  0  0  0  0  0  0  0  0
    9.7379  -15.8350   21.4104 C   0  0  0  0  0  0  0  0  0  0  0  0
   10.4674  -16.4498   22.2271 O   0  0  0  0  0  0  0  0  0  0  0  0
    6.6345  -13.6410   19.4499 N   0  0  0  0  0  0  0  0  0  0  0  0
    8.8965  -14.7907   21.8978 C   0  0  2  0  0  0  0  0  0  0  0  0
    8.7324  -14.4339   23.2702 C   0  0  0  0  0  0  0  0  0  0  0  0
    7.7000  -13.3532   23.5381 C   0  0  0  0  0  0  0  0  0  0  0  0
    7.5980  -12.9932   24.9722 C   0  0  0  0  0  0  0  0  0  0  0  0
    6.4281  -13.3498   25.6673 C   0  0  0  0  0  0  0  0  0  0  0  0
    6.2289  -13.0586   26.9913 C   0  0  0  0  0  0  0  0  0  0  0  0
    7.2060  -12.3885   27.6853 C   0  0  0  0  0  0  0  0  0  0  0  0
    8.3532  -12.0238   27.0537 C   0  0  0  0  0  0  0  0  0  0  0  0
    8.5376  -12.3267   25.7136 C   0  0  0  0  0  0  0  0  0  0  0  0
    8.6899  -15.5602   24.2071 O   0  0  0  0  0  0  0  0  0  0  0  0
    7.6498  -16.3091   24.2700 N   0  0  0  0  0  0  0  0  0  0  0  0
    9.7282  -15.9213   25.0894 C   0  0  1  0  0  0  0  0  0  0  0  0
    9.5938  -17.0789   26.0061 C   0  0  0  0  0  0  0  0  0  0  0  0
   10.7055  -18.0075   25.6047 C   0  0  0  0  0  0  0  0  0  0  0  0
   10.8712  -19.1918   26.4421 C   0  0  0  0  0  0  0  0  0  0  0  0
    9.9340  -19.5106   27.4292 N   0  0  0  0  0  0  0  0  0  0  0  0
   10.3329  -20.6311   28.0366 C   0  0  0  0  0  0  0  0  0  0  0  0
   11.4844  -20.9911   27.4384 N   0  0  0  0  0  0  0  0  0  0  0  0
   11.8090  -20.1282   26.4810 C   0  0  0  0  0  0  0  0  0  0  0  0
    9.6640  -16.6173   27.4043 O   0  0  0  0  0  0  0  0  0  0  0  0
    9.1882  -17.4225   28.4577 O   0  0  0  0  0  0  0  0  0  0  0  0
  2  4  1  0
  2  1  1  0
  3  2  2  0
  5  4  1  0
  6  5  1  0
  7  6  1  0
  8  7  1  0
  8  9  1  1
 10  8  1  0
 10 12  1  0
 11 10  2  0
 13 12  1  0
 13 14  1  6
 15 14  1  0
 15 16  2  0
 17 16  1  0
 18 17  2  0
 19 20  2  0
 19 18  1  0
 20 15  1  0
 21 13  1  0
 21 22  2  0
 23 24  1  0
 23 21  1  0
 24 25  1  1
 25 26  1  0
 26 30  1  0
 27 28  1  0
 27 26  2  0
 28 29  1  0
 29 30  2  0
 31 24  1  0
 32 31  1  0
 33 31  2  0
M  END
$$$$
