RFH.pdb
     RDKit          3D

 33 34  0  0  1  0  0  0  0  0999 V2000
   10.0607  -13.2540   19.0271 N   0  0  0  0  0  0  0  0  0  0  0  0
    8.8899  -13.2282   18.2444 C   0  0  0  0  0  0  0  0  0  0  0  0
    8.2208  -12.1236   18.1685 N   0  0  0  0  0  0  0  0  0  0  0  0
    8.4949  -14.4101   17.5763 N   0  0  0  0  0  0  0  0  0  0  0  0
    9.2220  -15.6205   17.7775 C   0  0  0  0  0  0  0  0  0  0  0  0
    8.7134  -16.4214   18.9808 C   0  0  0  0  0  0  0  0  0  0  0  0
    9.9491  -16.8361   19.7546 C   0  0  0  0  0  0  0  0  0  0  0  0
    9.5895  -17.6029   21.0091 C   0  0  2  0  0  0  0  0  0  0  0  0
    8.2875  -18.1846   20.9039 N   0  0  0  0  0  0  0  0  0  0  0  0
    9.5856  -16.6074   22.1242 C   0  0  0  0  0  0  0  0  0  0  0  0
   10.6511  -16.0201   22.4356 O   0  0  0  0  0  0  0  0  0  0  0  0
    7.4152  -12.0347   17.5446 N   0  0  0  0  0  0  0  0  0  0  0  0
    8.3981  -16.3003   22.8533 C   0  0  1  0  0  0  0  0  0  0  0  0
    8.3320  -15.4739   24.0154 C   0  0  0  0  0  0  0  0  0  0  0  0
    7.0635  -14.6505   24.1517 C   0  0  0  0  0  0  0  0  0  0  0  0
    7.1038  -13.7113   25.2975 C   0  0  0  0  0  0  0  0  0  0  0  0
    6.3573  -14.0296   26.4467 C   0  0  0  0  0  0  0  0  0  0  0  0
    6.3190  -13.2277   27.5571 C   0  0  0  0  0  0  0  0  0  0  0  0
    7.0362  -12.0568   27.5643 C   0  0  0  0  0  0  0  0  0  0  0  0
    7.7716  -11.7089   26.4752 C   0  0  0  0  0  0  0  0  0  0  0  0
    7.7986  -12.5324   25.3604 C   0  0  0  0  0  0  0  0  0  0  0  0
    8.7813  -16.1076   25.2582 O   0  0  0  0  0  0  0  0  0  0  0  0
    8.1031  -17.0659   25.7764 N   0  0  0  0  0  0  0  0  0  0  0  0
    9.9410  -15.7529   25.9767 C   0  0  1  0  0  0  0  0  0  0  0  0
   10.3854  -16.5322   27.1572 C   0  0  0  0  0  0  0  0  0  0  0  0
   11.8728  -16.6623   26.9836 C   0  0  0  0  0  0  0  0  0  0  0  0
   12.3090  -17.6512   26.0023 C   0  0  0  0  0  0  0  0  0  0  0  0
   11.3819  -18.4489   25.3252 N   0  0  0  0  0  0  0  0  0  0  0  0
   12.0515  -19.2564   24.4986 C   0  0  0  0  0  0  0  0  0  0  0  0
   13.3552  -18.9625   24.6635 N   0  0  0  0  0  0  0  0  0  0  0  0
   13.5116  -17.9992   25.5657 C   0  0  0  0  0  0  0  0  0  0  0  0
    9.9773  -15.8400   28.3930 O   0  0  0  0  0  0  0  0  0  0  0  0
    9.2919  -14.6103   28.3419 O   0  0  0  0  0  0  0  0  0  0  0  0
  2  4  1  0
  2  1  1  0
  3  2  2  0
  5  4  1  0
  6  5  1  0
  7  6  1  0
  8  7  1  0
  8  9  1  6
 10  8  1  0
 10 12  1  0
 11 10  2  0
 13 12  1  0
 13 14  1  6
 15 14  1  0
 15 16  2  0
 17 16  1  0
 18 17  2  0
 19 20  2  0
 19 18  1  0
 20 15  1  0
 21 13  1  0
 21 22  2  0
 23 24  1  0
 23 21  1  0
 24 25  1  1
 25 26  1  0
 26 30  1  0
 27 28  1  0
 27 26  2  0
 28 29  1  0
 29 30  2  0
 31 24  1  0
 32 31  1  0
 33 31  2  0
M  END
$$$$
