RFH.pdb
     RDKit          3D

 33 34  0  0  1  0  0  0  0  0999 V2000
   10.2186  -21.3329   17.3698 N   0  0  0  0  0  0  0  0  0  0  0  0
    9.4207  -20.4134   16.6610 C   0  0  0  0  0  0  0  0  0  0  0  0
    9.1949  -20.6295   15.4057 N   0  0  0  0  0  0  0  0  0  0  0  0
    8.9019  -19.2934   17.3507 N   0  0  0  0  0  0  0  0  0  0  0  0
    9.4105  -18.9499   18.6382 C   0  0  0  0  0  0  0  0  0  0  0  0
    8.7341  -19.7334   19.7682 C   0  0  0  0  0  0  0  0  0  0  0  0
    8.6645  -18.7831   20.9471 C   0  0  0  0  0  0  0  0  0  0  0  0
    8.5726  -17.3413   20.4955 C   0  0  2  0  0  0  0  0  0  0  0  0
    9.5232  -17.0610   19.4647 N   0  0  0  0  0  0  0  0  0  0  0  0
    8.8952  -16.5044   21.6912 C   0  0  0  0  0  0  0  0  0  0  0  0
   10.0915  -16.3669   22.0481 O   0  0  0  0  0  0  0  0  0  0  0  0
    8.6451  -19.9730   14.8463 N   0  0  0  0  0  0  0  0  0  0  0  0
    7.8773  -15.8502   22.4475 C   0  0  1  0  0  0  0  0  0  0  0  0
    8.0928  -15.0742   23.6261 C   0  0  0  0  0  0  0  0  0  0  0  0
    7.0449  -14.0101   23.9000 C   0  0  0  0  0  0  0  0  0  0  0  0
    7.2503  -13.3150   25.1927 C   0  0  0  0  0  0  0  0  0  0  0  0
    6.4078  -13.6472   26.2693 C   0  0  0  0  0  0  0  0  0  0  0  0
    6.5073  -13.0599   27.5032 C   0  0  0  0  0  0  0  0  0  0  0  0
    7.4676  -12.1016   27.7148 C   0  0  0  0  0  0  0  0  0  0  0  0
    8.3037  -11.7487   26.7026 C   0  0  0  0  0  0  0  0  0  0  0  0
    8.1886  -12.3535   25.4606 C   0  0  0  0  0  0  0  0  0  0  0  0
    8.5084  -15.8358   24.8074 O   0  0  0  0  0  0  0  0  0  0  0  0
    7.6512  -16.5310   25.4621 N   0  0  0  0  0  0  0  0  0  0  0  0
    9.8199  -15.8838   25.3218 C   0  0  1  0  0  0  0  0  0  0  0  0
   10.1888  -16.8245   26.4069 C   0  0  0  0  0  0  0  0  0  0  0  0
   11.6260  -17.1691   26.1333 C   0  0  0  0  0  0  0  0  0  0  0  0
   12.2593  -18.0521   27.1082 C   0  0  0  0  0  0  0  0  0  0  0  0
   11.5906  -19.1771   27.5994 N   0  0  0  0  0  0  0  0  0  0  0  0
   12.3956  -19.7945   28.4681 C   0  0  0  0  0  0  0  0  0  0  0  0
   13.5287  -19.0681   28.5092 N   0  0  0  0  0  0  0  0  0  0  0  0
   13.4486  -18.0218   27.6935 C   0  0  0  0  0  0  0  0  0  0  0  0
    9.9560  -16.1894   27.7166 O   0  0  0  0  0  0  0  0  0  0  0  0
    9.5823  -16.9564   28.8375 O   0  0  0  0  0  0  0  0  0  0  0  0
  2  4  1  0
  2  1  1  0
  3  2  2  0
  5  4  1  0
  6  5  1  0
  7  6  1  0
  8  7  1  0
  8  9  1  6
 10  8  1  0
 10 12  1  0
 11 10  2  0
 13 12  1  0
 13 14  1  1
 15 14  1  0
 15 16  2  0
 17 16  1  0
 18 17  2  0
 19 20  2  0
 19 18  1  0
 20 15  1  0
 21 13  1  0
 21 22  2  0
 23 24  1  0
 23 21  1  0
 24 25  1  1
 25 26  1  0
 26 30  1  0
 27 28  1  0
 27 26  2  0
 28 29  1  0
 29 30  2  0
 31 24  1  0
 32 31  1  0
 33 31  2  0
M  END
$$$$
