RFH.pdb
     RDKit          3D

 33 34  0  0  1  0  0  0  0  0999 V2000
   10.6570  -19.4412   18.6769 N   0  0  0  0  0  0  0  0  0  0  0  0
   10.5991  -20.6074   19.4649 C   0  0  0  0  0  0  0  0  0  0  0  0
   11.4095  -21.5784   19.1930 N   0  0  0  0  0  0  0  0  0  0  0  0
    9.6574  -20.6679   20.5180 N   0  0  0  0  0  0  0  0  0  0  0  0
    8.7230  -19.6061   20.7015 C   0  0  0  0  0  0  0  0  0  0  0  0
    8.7288  -18.6074   19.5393 C   0  0  0  0  0  0  0  0  0  0  0  0
    7.6864  -17.5628   19.8856 C   0  0  0  0  0  0  0  0  0  0  0  0
    8.2235  -16.1591   19.7063 C   0  0  2  0  0  0  0  0  0  0  0  0
    9.3869  -16.1532   18.8751 N   0  0  0  0  0  0  0  0  0  0  0  0
    8.6008  -15.6755   21.0695 C   0  0  0  0  0  0  0  0  0  0  0  0
    9.6990  -16.0234   21.5695 O   0  0  0  0  0  0  0  0  0  0  0  0
   11.4335  -22.4242   19.7677 N   0  0  0  0  0  0  0  0  0  0  0  0
    7.7444  -14.8227   21.8280 C   0  0  1  0  0  0  0  0  0  0  0  0
    7.9804  -14.3960   23.1697 C   0  0  0  0  0  0  0  0  0  0  0  0
    6.9874  -13.3821   23.7095 C   0  0  0  0  0  0  0  0  0  0  0  0
    7.3222  -12.9151   25.0757 C   0  0  0  0  0  0  0  0  0  0  0  0
    6.3807  -13.1222   26.1003 C   0  0  0  0  0  0  0  0  0  0  0  0
    6.5869  -12.7231   27.3947 C   0  0  0  0  0  0  0  0  0  0  0  0
    7.7607  -12.0907   27.7231 C   0  0  0  0  0  0  0  0  0  0  0  0
    8.6992  -11.8692   26.7647 C   0  0  0  0  0  0  0  0  0  0  0  0
    8.4735  -12.2799   25.4601 C   0  0  0  0  0  0  0  0  0  0  0  0
    8.3319  -15.4627   24.1112 O   0  0  0  0  0  0  0  0  0  0  0  0
    7.5401  -16.4576   24.2850 N   0  0  0  0  0  0  0  0  0  0  0  0
    9.5106  -15.5081   24.8828 C   0  0  1  0  0  0  0  0  0  0  0  0
    9.8229  -16.6722   25.7464 C   0  0  0  0  0  0  0  0  0  0  0  0
   10.8743  -17.4322   24.9873 C   0  0  0  0  0  0  0  0  0  0  0  0
   11.4712  -18.5607   25.6954 C   0  0  0  0  0  0  0  0  0  0  0  0
   12.4517  -18.3592   26.6712 N   0  0  0  0  0  0  0  0  0  0  0  0
   12.8173  -19.5521   27.1476 C   0  0  0  0  0  0  0  0  0  0  0  0
   12.0809  -20.4621   26.4822 N   0  0  0  0  0  0  0  0  0  0  0  0
   11.2723  -19.8688   25.6101 C   0  0  0  0  0  0  0  0  0  0  0  0
   10.2541  -16.2041   27.0760 O   0  0  0  0  0  0  0  0  0  0  0  0
   10.3026  -17.0856   28.1738 O   0  0  0  0  0  0  0  0  0  0  0  0
  2  4  1  0
  2  1  1  0
  3  2  2  0
  5  4  1  0
  6  5  1  0
  7  6  1  0
  8  7  1  0
  8  9  1  6
 10  8  1  0
 10 12  1  0
 11 10  2  0
 13 12  1  0
 13 14  1  1
 15 14  1  0
 15 16  2  0
 17 16  1  0
 18 17  2  0
 19 20  2  0
 19 18  1  0
 20 15  1  0
 21 13  1  0
 21 22  2  0
 23 24  1  0
 23 21  1  0
 24 25  1  1
 25 26  1  0
 26 30  1  0
 27 28  1  0
 27 26  2  0
 28 29  1  0
 29 30  2  0
 31 24  1  0
 32 31  1  0
 33 31  2  0
M  END
$$$$
