RFH.pdb
     RDKit          3D

 33 34  0  0  1  0  0  0  0  0999 V2000
    9.3955  -13.0855   16.7851 N   0  0  0  0  0  0  0  0  0  0  0  0
    8.3562  -13.1699   17.7323 C   0  0  0  0  0  0  0  0  0  0  0  0
    7.7854  -12.0769   18.1233 N   0  0  0  0  0  0  0  0  0  0  0  0
    7.9821  -14.4448   18.2162 N   0  0  0  0  0  0  0  0  0  0  0  0
    8.7872  -15.5845   17.9211 C   0  0  0  0  0  0  0  0  0  0  0  0
    8.4252  -16.8011   18.7797 C   0  0  0  0  0  0  0  0  0  0  0  0
    9.6491  -17.0895   19.6263 C   0  0  0  0  0  0  0  0  0  0  0  0
    9.2821  -17.7975   20.9128 C   0  0  2  0  0  0  0  0  0  0  0  0
    7.9521  -18.3194   20.8543 N   0  0  0  0  0  0  0  0  0  0  0  0
    9.3503  -16.7678   21.9942 C   0  0  0  0  0  0  0  0  0  0  0  0
   10.4428  -16.2007   22.2431 O   0  0  0  0  0  0  0  0  0  0  0  0
    7.0360  -12.0910   18.8192 N   0  0  0  0  0  0  0  0  0  0  0  0
    8.2023  -16.4051   22.7600 C   0  0  2  0  0  0  0  0  0  0  0  0
    8.2034  -15.5284   23.8866 C   0  0  0  0  0  0  0  0  0  0  0  0
    7.1132  -14.4715   23.8841 C   0  0  0  0  0  0  0  0  0  0  0  0
    7.1987  -13.5494   25.0413 C   0  0  0  0  0  0  0  0  0  0  0  0
    6.1912  -13.6144   26.0211 C   0  0  0  0  0  0  0  0  0  0  0  0
    6.1710  -12.8033   27.1253 C   0  0  0  0  0  0  0  0  0  0  0  0
    7.1722  -11.8797   27.2978 C   0  0  0  0  0  0  0  0  0  0  0  0
    8.1663  -11.7815   26.3757 C   0  0  0  0  0  0  0  0  0  0  0  0
    8.1707  -12.6104   25.2646 C   0  0  0  0  0  0  0  0  0  0  0  0
    8.4166  -16.1782   25.1829 O   0  0  0  0  0  0  0  0  0  0  0  0
    7.5535  -17.0122   25.6370 N   0  0  0  0  0  0  0  0  0  0  0  0
    9.5296  -15.9689   26.0221 C   0  0  1  0  0  0  0  0  0  0  0  0
   10.0103  -17.0262   26.9438 C   0  0  0  0  0  0  0  0  0  0  0  0
   10.6316  -18.0565   26.0427 C   0  0  0  0  0  0  0  0  0  0  0  0
    9.7389  -19.1194   25.5907 C   0  0  0  0  0  0  0  0  0  0  0  0
    8.4394  -19.2290   26.0943 N   0  0  0  0  0  0  0  0  0  0  0  0
    7.8546  -20.2803   25.5142 C   0  0  0  0  0  0  0  0  0  0  0  0
    8.7704  -20.8025   24.6765 N   0  0  0  0  0  0  0  0  0  0  0  0
    9.9021  -20.1069   24.7211 C   0  0  0  0  0  0  0  0  0  0  0  0
   10.9388  -16.4432   27.9291 O   0  0  0  0  0  0  0  0  0  0  0  0
   11.6507  -15.2618   27.6430 O   0  0  0  0  0  0  0  0  0  0  0  0
  2  4  1  0
  2  1  1  0
  3  2  2  0
  5  4  1  0
  6  5  1  0
  7  6  1  0
  8  7  1  0
  8  9  1  6
 10  8  1  0
 10 12  1  0
 11 10  2  0
 13 12  1  0
 13 14  1  6
 15 14  1  0
 15 16  2  0
 17 16  1  0
 18 17  2  0
 19 20  2  0
 19 18  1  0
 20 15  1  0
 21 13  1  0
 21 22  2  0
 23 24  1  0
 23 21  1  0
 24 25  1  1
 25 26  1  0
 26 30  1  0
 27 28  1  0
 27 26  2  0
 28 29  1  0
 29 30  2  0
 31 24  1  0
 32 31  1  0
 33 31  2  0
M  END
$$$$
