GHA.pdb
     RDKit          3D

 20 20  0  0  1  0  0  0  0  0999 V2000
   18.2869   -9.4522  -12.8281 N   0  0  0  0  0  0  0  0  0  0  0  0
   18.4221   -8.8415  -11.5199 C   0  0  0  0  0  0  0  0  0  0  0  0
   17.1694   -8.0787  -11.2178 C   0  0  0  0  0  0  0  0  0  0  0  0
   16.3616   -7.7837  -12.1432 O   0  0  0  0  0  0  0  0  0  0  0  0
   16.8353   -7.6602   -9.9139 N   0  0  0  0  0  0  0  0  0  0  0  0
   15.6991   -6.8152   -9.5852 C   0  0  1  0  0  0  0  0  0  0  0  0
   15.0528   -7.4337   -8.3816 C   0  0  0  0  0  0  0  0  0  0  0  0
   14.1975   -8.5897   -8.6744 C   0  0  0  0  0  0  0  0  0  0  0  0
   13.9528   -8.9846   -9.9925 C   0  0  0  0  0  0  0  0  0  0  0  0
   13.1522  -10.0511   -9.9647 N   0  0  0  0  0  0  0  0  0  0  0  0
   12.8782  -10.3499   -8.6835 C   0  0  0  0  0  0  0  0  0  0  0  0
   13.5249   -9.4478   -7.9245 N   0  0  0  0  0  0  0  0  0  0  0  0
   16.2340   -5.4536   -9.3270 C   0  0  0  0  0  0  0  0  0  0  0  0
   17.1959   -5.2241   -8.5461 O   0  0  0  0  0  0  0  0  0  0  0  0
   15.8031   -1.9881  -10.7593 C   0  0  0  0  0  0  0  0  0  0  0  0
   16.1158   -2.9790   -9.6549 C   0  0  2  0  0  0  0  0  0  0  0  0
   15.6691   -4.3094   -9.9683 N   0  0  0  0  0  0  0  0  0  0  0  0
   15.5759   -2.5009   -8.3533 C   0  0  0  0  0  0  0  0  0  0  0  0
   14.6593   -3.2021   -7.8375 O   0  0  0  0  0  0  0  0  0  0  0  0
   16.0160   -1.3691   -7.7110 O   0  0  0  0  0  0  0  0  0  0  0  0
  2  1  1  0
  2  3  1  0
  3  4  2  0
  5  3  1  0
  5  6  1  0
  6 13  1  0
  6  7  1  1
  8  9  2  0
  8  7  1  0
 10  9  1  0
 11 12  2  0
 11 10  1  0
 12  8  1  0
 13 14  2  0
 16 15  1  6
 16 18  1  0
 17 16  1  0
 17 13  1  0
 18 20  1  0
 19 18  2  0
M  END
$$$$
