GHA.pdb
     RDKit          3D

 20 20  0  0  1  0  0  0  0  0999 V2000
   21.7071  -11.2034  -19.4966 N   0  0  0  0  0  0  0  0  0  0  0  0
   22.1858  -10.8910  -18.1640 C   0  0  0  0  0  0  0  0  0  0  0  0
   21.2196   -9.9460  -17.5193 C   0  0  0  0  0  0  0  0  0  0  0  0
   20.2064   -9.5365  -18.1532 O   0  0  0  0  0  0  0  0  0  0  0  0
   21.3877   -9.4756  -16.2013 N   0  0  0  0  0  0  0  0  0  0  0  0
   20.5214   -8.5025  -15.5565 C   0  0  1  0  0  0  0  0  0  0  0  0
   19.8087   -9.2385  -14.4614 C   0  0  0  0  0  0  0  0  0  0  0  0
   18.6719  -10.0503  -14.9111 C   0  0  0  0  0  0  0  0  0  0  0  0
   18.1923   -9.9494  -16.2199 C   0  0  0  0  0  0  0  0  0  0  0  0
   17.1659  -10.7909  -16.3522 N   0  0  0  0  0  0  0  0  0  0  0  0
   16.9737  -11.4222  -15.1815 C   0  0  0  0  0  0  0  0  0  0  0  0
   17.9004  -10.9534  -14.3275 N   0  0  0  0  0  0  0  0  0  0  0  0
   21.3958   -7.4113  -15.0550 C   0  0  0  0  0  0  0  0  0  0  0  0
   22.4216   -7.6138  -14.3518 O   0  0  0  0  0  0  0  0  0  0  0  0
   21.6552   -3.6593  -15.5610 C   0  0  0  0  0  0  0  0  0  0  0  0
   21.9536   -4.9815  -14.8814 C   0  0  2  0  0  0  0  0  0  0  0  0
   21.1083   -6.0446  -15.3536 N   0  0  0  0  0  0  0  0  0  0  0  0
   21.8933   -4.8357  -13.4018 C   0  0  0  0  0  0  0  0  0  0  0  0
   20.8464   -5.2675  -12.8402 O   0  0  0  0  0  0  0  0  0  0  0  0
   22.8925   -4.2714  -12.6465 O   0  0  0  0  0  0  0  0  0  0  0  0
  2  1  1  0
  2  3  1  0
  3  4  2  0
  5  3  1  0
  5  6  1  0
  6 13  1  0
  6  7  1  1
  8  9  2  0
  8  7  1  0
 10  9  1  0
 11 12  2  0
 11 10  1  0
 12  8  1  0
 13 14  2  0
 16 15  1  6
 16 18  1  0
 17 16  1  0
 17 13  1  0
 18 20  1  0
 19 18  2  0
M  END
$$$$
