GHA.pdb
     RDKit          3D

 20 20  0  0  1  0  0  0  0  0999 V2000
   15.7249   -9.6228  -10.2643 N   0  0  0  0  0  0  0  0  0  0  0  0
   15.7168   -8.6893  -11.3738 C   0  0  0  0  0  0  0  0  0  0  0  0
   17.0876   -8.6512  -11.9752 C   0  0  0  0  0  0  0  0  0  0  0  0
   18.0855   -9.0622  -11.3185 O   0  0  0  0  0  0  0  0  0  0  0  0
   17.3289   -8.1654  -13.2762 N   0  0  0  0  0  0  0  0  0  0  0  0
   18.6318   -8.1466  -13.9206 C   0  0  1  0  0  0  0  0  0  0  0  0
   18.4262   -8.7099  -15.2951 C   0  0  0  0  0  0  0  0  0  0  0  0
   18.1634  -10.1533  -15.3302 C   0  0  0  0  0  0  0  0  0  0  0  0
   19.2139  -11.0713  -15.4126 C   0  0  0  0  0  0  0  0  0  0  0  0
   18.6925  -12.2989  -15.4277 N   0  0  0  0  0  0  0  0  0  0  0  0
   17.3541  -12.1986  -15.3582 C   0  0  0  0  0  0  0  0  0  0  0  0
   17.0626  -10.8873  -15.3001 N   0  0  0  0  0  0  0  0  0  0  0  0
   19.0886   -6.7331  -13.9301 C   0  0  0  0  0  0  0  0  0  0  0  0
   18.3011   -5.7513  -13.9928 O   0  0  0  0  0  0  0  0  0  0  0  0
   22.3872   -4.9390  -13.3949 C   0  0  0  0  0  0  0  0  0  0  0  0
   20.9274   -5.0466  -13.7907 C   0  0  2  0  0  0  0  0  0  0  0  0
   20.4783   -6.4104  -13.8669 N   0  0  0  0  0  0  0  0  0  0  0  0
   20.6705   -4.3029  -15.0537 C   0  0  0  0  0  0  0  0  0  0  0  0
   20.5984   -4.9985  -16.1066 O   0  0  0  0  0  0  0  0  0  0  0  0
   20.5140   -2.9397  -15.1213 O   0  0  0  0  0  0  0  0  0  0  0  0
  2  1  1  0
  2  3  1  0
  3  4  2  0
  5  3  1  0
  5  6  1  0
  6 13  1  0
  6  7  1  6
  8  9  2  0
  8  7  1  0
 10  9  1  0
 11 12  2  0
 11 10  1  0
 12  8  1  0
 13 14  2  0
 16 15  1  6
 16 18  1  0
 17 16  1  0
 17 13  1  0
 18 20  1  0
 19 18  2  0
M  END
$$$$
