GHA.pdb
     RDKit          3D

 20 20  0  0  1  0  0  0  0  0999 V2000
   26.7090  -24.4983  -17.9568 N   0  0  0  0  0  0  0  0  0  0  0  0
   25.7700  -23.5031  -18.4367 C   0  0  0  0  0  0  0  0  0  0  0  0
   25.0882  -22.8823  -17.2569 C   0  0  0  0  0  0  0  0  0  0  0  0
   24.9737  -23.5235  -16.1743 O   0  0  0  0  0  0  0  0  0  0  0  0
   24.5513  -21.5795  -17.2933 N   0  0  0  0  0  0  0  0  0  0  0  0
   24.0546  -20.8599  -16.1321 C   0  0  1  0  0  0  0  0  0  0  0  0
   24.9234  -19.6459  -15.9898 C   0  0  0  0  0  0  0  0  0  0  0  0
   26.3471  -19.9351  -15.7820 C   0  0  0  0  0  0  0  0  0  0  0  0
   26.8071  -20.4274  -14.5576 C   0  0  0  0  0  0  0  0  0  0  0  0
   28.1269  -20.5980  -14.6480 N   0  0  0  0  0  0  0  0  0  0  0  0
   28.5242  -20.2344  -15.8792 C   0  0  0  0  0  0  0  0  0  0  0  0
   27.4248  -19.8373  -16.5437 N   0  0  0  0  0  0  0  0  0  0  0  0
   22.6314  -20.5321  -16.4033 C   0  0  0  0  0  0  0  0  0  0  0  0
   22.2207  -20.0941  -17.5112 O   0  0  0  0  0  0  0  0  0  0  0  0
   19.3020  -21.0942  -14.7323 C   0  0  0  0  0  0  0  0  0  0  0  0
   20.2626  -20.3397  -15.6307 C   0  0  2  0  0  0  0  0  0  0  0  0
   21.6340  -20.7021  -15.3954 N   0  0  0  0  0  0  0  0  0  0  0  0
   20.0453  -18.8721  -15.5151 C   0  0  0  0  0  0  0  0  0  0  0  0
   20.8161  -18.2537  -14.7269 O   0  0  0  0  0  0  0  0  0  0  0  0
   19.0763  -18.1848  -16.2049 O   0  0  0  0  0  0  0  0  0  0  0  0
  2  1  1  0
  2  3  1  0
  3  4  2  0
  5  3  1  0
  5  6  1  0
  6 13  1  0
  6  7  1  6
  8  9  2  0
  8  7  1  0
 10  9  1  0
 11 12  2  0
 11 10  1  0
 12  8  1  0
 13 14  2  0
 16 15  1  1
 16 18  1  0
 17 16  1  0
 17 13  1  0
 18 20  1  0
 19 18  2  0
M  END
$$$$
