GHA.pdb
     RDKit          3D

 20 20  0  0  1  0  0  0  0  0999 V2000
   26.3538  -19.6970  -20.0520 N   0  0  0  0  0  0  0  0  0  0  0  0
   25.7397  -18.8152  -19.0784 C   0  0  0  0  0  0  0  0  0  0  0  0
   25.1361  -19.6504  -17.9921 C   0  0  0  0  0  0  0  0  0  0  0  0
   24.7037  -20.8106  -18.2432 O   0  0  0  0  0  0  0  0  0  0  0  0
   25.0220  -19.1946  -16.6632 N   0  0  0  0  0  0  0  0  0  0  0  0
   24.3478  -19.9188  -15.5983 C   0  0  1  0  0  0  0  0  0  0  0  0
   25.3079  -19.9584  -14.4470 C   0  0  0  0  0  0  0  0  0  0  0  0
   26.5617  -20.6695  -14.7221 C   0  0  0  0  0  0  0  0  0  0  0  0
   26.8367  -21.1703  -15.9975 C   0  0  0  0  0  0  0  0  0  0  0  0
   28.0310  -21.7633  -15.9623 N   0  0  0  0  0  0  0  0  0  0  0  0
   28.5260  -21.6599  -14.7172 C   0  0  0  0  0  0  0  0  0  0  0  0
   27.6144  -20.9927  -13.9880 N   0  0  0  0  0  0  0  0  0  0  0  0
   23.0990  -19.1743  -15.2932 C   0  0  0  0  0  0  0  0  0  0  0  0
   22.9356  -17.9549  -15.5657 O   0  0  0  0  0  0  0  0  0  0  0  0
   20.3498  -18.6316  -16.0419 C   0  0  0  0  0  0  0  0  0  0  0  0
   20.6731  -19.2564  -14.6986 C   0  0  2  0  0  0  0  0  0  0  0  0
   21.9947  -19.8216  -14.6598 N   0  0  0  0  0  0  0  0  0  0  0  0
   19.6308  -20.2473  -14.3168 C   0  0  0  0  0  0  0  0  0  0  0  0
   19.9661  -21.4643  -14.3832 O   0  0  0  0  0  0  0  0  0  0  0  0
   18.3635  -19.9074  -13.9096 O   0  0  0  0  0  0  0  0  0  0  0  0
  2  1  1  0
  2  3  1  0
  3  4  2  0
  5  3  1  0
  5  6  1  0
  6 13  1  0
  6  7  1  1
  8  9  2  0
  8  7  1  0
 10  9  1  0
 11 12  2  0
 11 10  1  0
 12  8  1  0
 13 14  2  0
 16 15  1  6
 16 18  1  0
 17 16  1  0
 17 13  1  0
 18 20  1  0
 19 18  2  0
M  END
$$$$
