GHA.pdb
     RDKit          3D

 20 20  0  0  1  0  0  0  0  0999 V2000
   21.2007   -9.8429    7.5290 N   0  0  0  0  0  0  0  0  0  0  0  0
   21.8391  -11.1342    7.3627 C   0  0  0  0  0  0  0  0  0  0  0  0
   20.9001  -12.1963    7.8445 C   0  0  0  0  0  0  0  0  0  0  0  0
   19.8223  -11.8819    8.4240 O   0  0  0  0  0  0  0  0  0  0  0  0
   21.1650  -13.5709    7.6795 N   0  0  0  0  0  0  0  0  0  0  0  0
   20.2365  -14.6361    8.0207 C   0  0  1  0  0  0  0  0  0  0  0  0
   19.6823  -15.1394    6.7213 C   0  0  0  0  0  0  0  0  0  0  0  0
   18.7327  -14.2299    6.0696 C   0  0  0  0  0  0  0  0  0  0  0  0
   19.1481  -13.3723    5.0473 C   0  0  0  0  0  0  0  0  0  0  0  0
   18.0911  -12.6671    4.6416 N   0  0  0  0  0  0  0  0  0  0  0  0
   17.0215  -13.0413    5.3640 C   0  0  0  0  0  0  0  0  0  0  0  0
   17.4403  -13.9891    6.2209 N   0  0  0  0  0  0  0  0  0  0  0  0
   21.0115  -15.6631    8.7631 C   0  0  0  0  0  0  0  0  0  0  0  0
   22.1549  -16.0575    8.4094 O   0  0  0  0  0  0  0  0  0  0  0  0
   21.1243  -16.9614   12.2119 C   0  0  0  0  0  0  0  0  0  0  0  0
   21.2617  -17.1968   10.7203 C   0  0  2  0  0  0  0  0  0  0  0  0
   20.4844  -16.2689    9.9441 N   0  0  0  0  0  0  0  0  0  0  0  0
   20.9449  -18.6107   10.3814 C   0  0  0  0  0  0  0  0  0  0  0  0
   19.8832  -18.8027    9.7227 O   0  0  0  0  0  0  0  0  0  0  0  0
   21.7301  -19.6789   10.7415 O   0  0  0  0  0  0  0  0  0  0  0  0
  2  1  1  0
  2  3  1  0
  3  4  2  0
  5  3  1  0
  5  6  1  0
  6 13  1  0
  6  7  1  6
  8  9  2  0
  8  7  1  0
 10  9  1  0
 11 12  2  0
 11 10  1  0
 12  8  1  0
 13 14  2  0
 16 15  1  1
 16 18  1  0
 17 16  1  0
 17 13  1  0
 18 20  1  0
 19 18  2  0
M  END
$$$$
