GHA.pdb
     RDKit          3D

 20 20  0  0  1  0  0  0  0  0999 V2000
   19.8479  -12.2513  -17.0517 N   0  0  0  0  0  0  0  0  0  0  0  0
   20.6676  -11.1098  -16.6944 C   0  0  0  0  0  0  0  0  0  0  0  0
   19.7700  -10.0039  -16.2322 C   0  0  0  0  0  0  0  0  0  0  0  0
   18.5359  -10.0273  -16.5016 O   0  0  0  0  0  0  0  0  0  0  0  0
   20.2460   -8.9047  -15.4893 N   0  0  0  0  0  0  0  0  0  0  0  0
   19.4233   -7.7915  -15.0452 C   0  0  1  0  0  0  0  0  0  0  0  0
   19.7028   -7.6233  -13.5816 C   0  0  0  0  0  0  0  0  0  0  0  0
   18.8612   -8.4422  -12.7014 C   0  0  0  0  0  0  0  0  0  0  0  0
   17.9331   -9.3426  -13.2315 C   0  0  0  0  0  0  0  0  0  0  0  0
   17.3135   -9.9463  -12.2163 N   0  0  0  0  0  0  0  0  0  0  0  0
   17.8096   -9.4666  -11.0632 C   0  0  0  0  0  0  0  0  0  0  0  0
   18.7453   -8.5573  -11.3881 N   0  0  0  0  0  0  0  0  0  0  0  0
   19.8195   -6.6115  -15.8558 C   0  0  0  0  0  0  0  0  0  0  0  0
   21.0134   -6.2299  -15.9858 O   0  0  0  0  0  0  0  0  0  0  0  0
   18.1054   -4.3090  -18.3255 C   0  0  0  0  0  0  0  0  0  0  0  0
   19.2192   -4.7293  -17.3863 C   0  0  2  0  0  0  0  0  0  0  0  0
   18.8409   -5.8323  -16.5449 N   0  0  0  0  0  0  0  0  0  0  0  0
   19.7056   -3.5658  -16.5963 C   0  0  0  0  0  0  0  0  0  0  0  0
   19.3091   -3.4994  -15.3979 O   0  0  0  0  0  0  0  0  0  0  0  0
   20.5384   -2.5947  -17.0969 O   0  0  0  0  0  0  0  0  0  0  0  0
  2  1  1  0
  2  3  1  0
  3  4  2  0
  5  3  1  0
  5  6  1  0
  6 13  1  0
  6  7  1  1
  8  9  2  0
  8  7  1  0
 10  9  1  0
 11 12  2  0
 11 10  1  0
 12  8  1  0
 13 14  2  0
 16 15  1  1
 16 18  1  0
 17 16  1  0
 17 13  1  0
 18 20  1  0
 19 18  2  0
M  END
$$$$
