GHA.pdb
     RDKit          3D

 20 20  0  0  1  0  0  0  0  0999 V2000
   26.9606  -19.4514  -15.1740 N   0  0  0  0  0  0  0  0  0  0  0  0
   26.6181  -18.2008  -14.5249 C   0  0  0  0  0  0  0  0  0  0  0  0
   26.2045  -17.2161  -15.5744 C   0  0  0  0  0  0  0  0  0  0  0  0
   26.3402  -17.4929  -16.7996 O   0  0  0  0  0  0  0  0  0  0  0  0
   25.6547  -15.9580  -15.2557 N   0  0  0  0  0  0  0  0  0  0  0  0
   25.2298  -14.9719  -16.2356 C   0  0  1  0  0  0  0  0  0  0  0  0
   23.7365  -14.8899  -16.1253 C   0  0  0  0  0  0  0  0  0  0  0  0
   23.1103  -13.9167  -17.0277 C   0  0  0  0  0  0  0  0  0  0  0  0
   22.7791  -14.2657  -18.3397 C   0  0  0  0  0  0  0  0  0  0  0  0
   22.2300  -13.2011  -18.9267 N   0  0  0  0  0  0  0  0  0  0  0  0
   22.1989  -12.1904  -18.0416 C   0  0  0  0  0  0  0  0  0  0  0  0
   22.7386  -12.6530  -16.9003 N   0  0  0  0  0  0  0  0  0  0  0  0
   25.9125  -13.6985  -15.8909 C   0  0  0  0  0  0  0  0  0  0  0  0
   26.0526  -13.2859  -14.7085 O   0  0  0  0  0  0  0  0  0  0  0  0
   28.6267  -11.8324  -16.3874 C   0  0  0  0  0  0  0  0  0  0  0  0
   27.1366  -11.6334  -16.5854 C   0  0  2  0  0  0  0  0  0  0  0  0
   26.4574  -12.8587  -16.9094 N   0  0  0  0  0  0  0  0  0  0  0  0
   26.8792  -10.5691  -17.5930 C   0  0  0  0  0  0  0  0  0  0  0  0
   26.3218  -10.9386  -18.6657 O   0  0  0  0  0  0  0  0  0  0  0  0
   27.2102   -9.2480  -17.4131 O   0  0  0  0  0  0  0  0  0  0  0  0
  2  1  1  0
  2  3  1  0
  3  4  2  0
  5  3  1  0
  5  6  1  0
  6 13  1  0
  6  7  1  1
  8  9  2  0
  8  7  1  0
 10  9  1  0
 11 12  2  0
 11 10  1  0
 12  8  1  0
 13 14  2  0
 16 15  1  6
 16 18  1  0
 17 16  1  0
 17 13  1  0
 18 20  1  0
 19 18  2  0
M  END
$$$$
