GHA.pdb
     RDKit          3D

 20 20  0  0  1  0  0  0  0  0999 V2000
   17.1859  -21.4957  -13.9819 N   0  0  0  0  0  0  0  0  0  0  0  0
   18.3346  -22.3238  -14.2939 C   0  0  0  0  0  0  0  0  0  0  0  0
   19.0066  -22.7099  -13.0127 C   0  0  0  0  0  0  0  0  0  0  0  0
   19.8243  -23.6726  -12.9845 O   0  0  0  0  0  0  0  0  0  0  0  0
   18.7662  -22.0337  -11.7995 N   0  0  0  0  0  0  0  0  0  0  0  0
   19.5525  -22.2072  -10.5893 C   0  0  1  0  0  0  0  0  0  0  0  0
   20.1875  -20.8778  -10.3095 C   0  0  0  0  0  0  0  0  0  0  0  0
   21.3282  -20.5524  -11.1736 C   0  0  0  0  0  0  0  0  0  0  0  0
   21.1800  -19.6862  -12.2603 C   0  0  0  0  0  0  0  0  0  0  0  0
   22.3639  -19.5706  -12.8638 N   0  0  0  0  0  0  0  0  0  0  0  0
   23.2580  -20.3276  -12.2053 C   0  0  0  0  0  0  0  0  0  0  0  0
   22.6022  -20.9103  -11.1863 N   0  0  0  0  0  0  0  0  0  0  0  0
   18.6141  -22.6430   -9.5234 C   0  0  0  0  0  0  0  0  0  0  0  0
   17.5209  -22.0639   -9.2839 O   0  0  0  0  0  0  0  0  0  0  0  0
   17.4379  -25.5488   -7.8689 C   0  0  0  0  0  0  0  0  0  0  0  0
   18.0324  -24.1735   -7.6354 C   0  0  2  0  0  0  0  0  0  0  0  0
   18.9136  -23.7688   -8.6971 N   0  0  0  0  0  0  0  0  0  0  0  0
   18.6949  -24.1080   -6.3046 C   0  0  0  0  0  0  0  0  0  0  0  0
   17.9358  -24.1975   -5.2978 O   0  0  0  0  0  0  0  0  0  0  0  0
   20.0494  -23.9595   -6.1299 O   0  0  0  0  0  0  0  0  0  0  0  0
  2  1  1  0
  2  3  1  0
  3  4  2  0
  5  3  1  0
  5  6  1  0
  6 13  1  0
  6  7  1  1
  8  9  2  0
  8  7  1  0
 10  9  1  0
 11 12  2  0
 11 10  1  0
 12  8  1  0
 13 14  2  0
 16 15  1  6
 16 18  1  0
 17 16  1  0
 17 13  1  0
 18 20  1  0
 19 18  2  0
M  END
$$$$
