GHA.pdb
     RDKit          3D

 20 20  0  0  1  0  0  0  0  0999 V2000
   20.0951  -15.4532  -15.1025 N   0  0  0  0  0  0  0  0  0  0  0  0
   20.4907  -16.3918  -14.0706 C   0  0  0  0  0  0  0  0  0  0  0  0
   20.4882  -17.7710  -14.6538 C   0  0  0  0  0  0  0  0  0  0  0  0
   19.8775  -18.0071  -15.7343 O   0  0  0  0  0  0  0  0  0  0  0  0
   21.1524  -18.8523  -14.0402 N   0  0  0  0  0  0  0  0  0  0  0  0
   21.1809  -20.2074  -14.5655 C   0  0  1  0  0  0  0  0  0  0  0  0
   22.6158  -20.6412  -14.5246 C   0  0  0  0  0  0  0  0  0  0  0  0
   23.4687  -20.0265  -15.5485 C   0  0  0  0  0  0  0  0  0  0  0  0
   22.9272  -19.1758  -16.5161 C   0  0  0  0  0  0  0  0  0  0  0  0
   23.9177  -18.7654  -17.3095 N   0  0  0  0  0  0  0  0  0  0  0  0
   25.0660  -19.3203  -16.8860 C   0  0  0  0  0  0  0  0  0  0  0  0
   24.7633  -20.0790  -15.8180 N   0  0  0  0  0  0  0  0  0  0  0  0
   20.2974  -21.0262  -13.6962 C   0  0  0  0  0  0  0  0  0  0  0  0
   20.0155  -20.7166  -12.5077 O   0  0  0  0  0  0  0  0  0  0  0  0
   19.5149  -23.3431  -11.9951 C   0  0  0  0  0  0  0  0  0  0  0  0
   18.8735  -23.0483  -13.3371 C   0  0  2  0  0  0  0  0  0  0  0  0
   19.7094  -22.2351  -14.1783 N   0  0  0  0  0  0  0  0  0  0  0  0
   17.5215  -22.4548  -13.1527 C   0  0  0  0  0  0  0  0  0  0  0  0
   17.4167  -21.2183  -13.3934 O   0  0  0  0  0  0  0  0  0  0  0  0
   16.4206  -23.1689  -12.7461 O   0  0  0  0  0  0  0  0  0  0  0  0
  2  1  1  0
  2  3  1  0
  3  4  2  0
  5  3  1  0
  5  6  1  0
  6 13  1  0
  6  7  1  1
  8  9  2  0
  8  7  1  0
 10  9  1  0
 11 12  2  0
 11 10  1  0
 12  8  1  0
 13 14  2  0
 16 15  1  1
 16 18  1  0
 17 16  1  0
 17 13  1  0
 18 20  1  0
 19 18  2  0
M  END
$$$$
