GHA.pdb
     RDKit          3D

 20 20  0  0  1  0  0  0  0  0999 V2000
   19.5255  -11.3814  -17.8442 N   0  0  0  0  0  0  0  0  0  0  0  0
   18.6222  -11.1632  -16.7311 C   0  0  0  0  0  0  0  0  0  0  0  0
   19.0356   -9.9122  -16.0194 C   0  0  0  0  0  0  0  0  0  0  0  0
   18.8040   -9.7725  -14.7853 O   0  0  0  0  0  0  0  0  0  0  0  0
   19.6899   -8.8503  -16.6759 N   0  0  0  0  0  0  0  0  0  0  0  0
   20.1960   -7.6590  -16.0143 C   0  0  1  0  0  0  0  0  0  0  0  0
   21.6876   -7.7000  -16.1634 C   0  0  0  0  0  0  0  0  0  0  0  0
   22.3430   -8.7981  -15.4436 C   0  0  0  0  0  0  0  0  0  0  0  0
   23.0083   -9.8131  -16.1367 C   0  0  0  0  0  0  0  0  0  0  0  0
   23.5051  -10.6696  -15.2430 N   0  0  0  0  0  0  0  0  0  0  0  0
   23.1827  -10.2407  -14.0109 C   0  0  0  0  0  0  0  0  0  0  0  0
   22.4790   -9.1052  -14.1636 N   0  0  0  0  0  0  0  0  0  0  0  0
   19.5725   -6.4921  -16.6897 C   0  0  0  0  0  0  0  0  0  0  0  0
   19.5256   -6.3604  -17.9420 O   0  0  0  0  0  0  0  0  0  0  0  0
   17.4271   -3.5552  -15.6454 C   0  0  0  0  0  0  0  0  0  0  0  0
   18.3528   -4.3137  -16.5765 C   0  0  2  0  0  0  0  0  0  0  0  0
   18.9807   -5.4356  -15.9324 N   0  0  0  0  0  0  0  0  0  0  0  0
   19.3482   -3.3935  -17.1902 C   0  0  0  0  0  0  0  0  0  0  0  0
   18.8807   -2.4591  -17.9016 O   0  0  0  0  0  0  0  0  0  0  0  0
   20.7065   -3.5124  -17.0222 O   0  0  0  0  0  0  0  0  0  0  0  0
  2  1  1  0
  2  3  1  0
  3  4  2  0
  5  3  1  0
  5  6  1  0
  6 13  1  0
  6  7  1  6
  8  9  2  0
  8  7  1  0
 10  9  1  0
 11 12  2  0
 11 10  1  0
 12  8  1  0
 13 14  2  0
 16 15  1  1
 16 18  1  0
 17 16  1  0
 17 13  1  0
 18 20  1  0
 19 18  2  0
M  END
$$$$
