GHA.pdb
     RDKit          3D

 20 20  0  0  1  0  0  0  0  0999 V2000
   21.6890   -9.9749  -19.4743 N   0  0  0  0  0  0  0  0  0  0  0  0
   20.4296   -9.8150  -18.7736 C   0  0  0  0  0  0  0  0  0  0  0  0
   20.6278   -8.8434  -17.6517 C   0  0  0  0  0  0  0  0  0  0  0  0
   20.0768   -9.0389  -16.5317 O   0  0  0  0  0  0  0  0  0  0  0  0
   21.4219   -7.6865  -17.7852 N   0  0  0  0  0  0  0  0  0  0  0  0
   21.5977   -6.6831  -16.7481 C   0  0  1  0  0  0  0  0  0  0  0  0
   23.0654   -6.6512  -16.4422 C   0  0  0  0  0  0  0  0  0  0  0  0
   23.5647   -7.8287  -15.7226 C   0  0  0  0  0  0  0  0  0  0  0  0
   22.6944   -8.8461  -15.3220 C   0  0  0  0  0  0  0  0  0  0  0  0
   23.4097   -9.7819  -14.6960 N   0  0  0  0  0  0  0  0  0  0  0  0
   24.6984   -9.4010  -14.6826 C   0  0  0  0  0  0  0  0  0  0  0  0
   24.7621   -8.2142  -15.3115 N   0  0  0  0  0  0  0  0  0  0  0  0
   21.0864   -5.4009  -17.2967 C   0  0  0  0  0  0  0  0  0  0  0  0
   21.2211   -5.0608  -18.5026 O   0  0  0  0  0  0  0  0  0  0  0  0
   18.7508   -2.6796  -16.1198 C   0  0  0  0  0  0  0  0  0  0  0  0
   19.8497   -3.2503  -16.9951 C   0  0  2  0  0  0  0  0  0  0  0  0
   20.3997   -4.4673  -16.4621 N   0  0  0  0  0  0  0  0  0  0  0  0
   20.9002   -2.2280  -17.2509 C   0  0  0  0  0  0  0  0  0  0  0  0
   21.9820   -2.3667  -16.6120 O   0  0  0  0  0  0  0  0  0  0  0  0
   20.7493   -1.1763  -18.1218 O   0  0  0  0  0  0  0  0  0  0  0  0
  2  1  1  0
  2  3  1  0
  3  4  2  0
  5  3  1  0
  5  6  1  0
  6 13  1  0
  6  7  1  6
  8  9  2  0
  8  7  1  0
 10  9  1  0
 11 12  2  0
 11 10  1  0
 12  8  1  0
 13 14  2  0
 16 15  1  1
 16 18  1  0
 17 16  1  0
 17 13  1  0
 18 20  1  0
 19 18  2  0
M  END
$$$$
