GHA.pdb
     RDKit          3D

 20 20  0  0  1  0  0  0  0  0999 V2000
   16.7029  -10.6709  -16.1352 N   0  0  0  0  0  0  0  0  0  0  0  0
   18.1295  -10.9306  -16.1276 C   0  0  0  0  0  0  0  0  0  0  0  0
   18.8275   -9.7434  -15.5399 C   0  0  0  0  0  0  0  0  0  0  0  0
   18.8605   -9.5761  -14.2880 O   0  0  0  0  0  0  0  0  0  0  0  0
   19.4691   -8.7733  -16.3361 N   0  0  0  0  0  0  0  0  0  0  0  0
   20.0695   -7.5524  -15.8241 C   0  0  1  0  0  0  0  0  0  0  0  0
   21.5057   -7.5806  -16.2548 C   0  0  0  0  0  0  0  0  0  0  0  0
   22.3059   -8.6471  -15.6418 C   0  0  0  0  0  0  0  0  0  0  0  0
   21.7461   -9.5092  -14.6950 C   0  0  0  0  0  0  0  0  0  0  0  0
   22.6882  -10.3713  -14.3099 N   0  0  0  0  0  0  0  0  0  0  0  0
   23.8233  -10.0925  -14.9730 C   0  0  0  0  0  0  0  0  0  0  0  0
   23.5618   -9.0435  -15.7724 N   0  0  0  0  0  0  0  0  0  0  0  0
   19.3064   -6.4188  -16.4063 C   0  0  0  0  0  0  0  0  0  0  0  0
   18.8991   -6.3979  -17.5986 O   0  0  0  0  0  0  0  0  0  0  0  0
   17.3143   -3.5625  -15.0581 C   0  0  0  0  0  0  0  0  0  0  0  0
   18.1527   -4.2182  -16.1381 C   0  0  2  0  0  0  0  0  0  0  0  0
   18.9892   -5.2679  -15.6223 N   0  0  0  0  0  0  0  0  0  0  0  0
   18.9354   -3.1974  -16.8862 C   0  0  0  0  0  0  0  0  0  0  0  0
   20.1870   -3.2136  -16.7099 O   0  0  0  0  0  0  0  0  0  0  0  0
   18.3748   -2.2704  -17.7309 O   0  0  0  0  0  0  0  0  0  0  0  0
  2  1  1  0
  2  3  1  0
  3  4  2  0
  5  3  1  0
  5  6  1  0
  6 13  1  0
  6  7  1  6
  8  9  2  0
  8  7  1  0
 10  9  1  0
 11 12  2  0
 11 10  1  0
 12  8  1  0
 13 14  2  0
 16 15  1  1
 16 18  1  0
 17 16  1  0
 17 13  1  0
 18 20  1  0
 19 18  2  0
M  END
$$$$
