ARL.pdb
     RDKit          3D

 25 24  0  0  1  0  0  0  0  0999 V2000
    8.0910  -11.9994   19.5580 C   0  0  0  0  0  0  0  0  0  0  0  0
    8.0266  -13.4158   19.0282 C   0  0  2  0  0  0  0  0  0  0  0  0
    6.8723  -13.6411   18.2044 N   0  0  0  0  0  0  0  0  0  0  0  0
    8.0265  -14.4146   20.1388 C   0  0  0  0  0  0  0  0  0  0  0  0
    6.9275  -14.7865   20.6729 O   0  0  0  0  0  0  0  0  0  0  0  0
   11.7949  -19.2149   24.8000 N   0  0  0  0  0  0  0  0  0  0  0  0
   12.1544  -20.1915   23.8359 C   0  0  0  0  0  0  0  0  0  0  0  0
   13.0649  -21.0781   24.1116 N   0  0  0  0  0  0  0  0  0  0  0  0
   11.5598  -20.2592   22.5483 N   0  0  0  0  0  0  0  0  0  0  0  0
   11.4171  -19.0587   21.7112 C   0  0  0  0  0  0  0  0  0  0  0  0
   10.3957  -18.1188   22.3273 C   0  0  0  0  0  0  0  0  0  0  0  0
   10.1908  -16.9971   21.3814 C   0  0  0  0  0  0  0  0  0  0  0  0
    9.1880  -15.9579   21.7654 C   0  0  2  0  0  0  0  0  0  0  0  0
    9.1998  -14.9934   20.6538 N   0  0  0  0  0  0  0  0  0  0  0  0
    9.4189  -15.2877   23.0456 C   0  0  0  0  0  0  0  0  0  0  0  0
    9.9099  -14.1173   23.0317 O   0  0  0  0  0  0  0  0  0  0  0  0
   13.3736  -21.7886   23.4165 C   0  0  0  0  0  0  0  0  0  0  0  0
    8.4808  -11.9813   26.7233 C   0  0  2  0  0  0  0  0  0  0  0  0
    7.5163  -13.0738   26.3580 C   0  0  0  0  0  0  0  0  0  0  0  0
    6.2057  -12.3747   25.9689 C   0  0  0  0  0  0  0  0  0  0  0  0
    7.9108  -13.9059   25.1894 C   0  0  1  0  0  0  0  0  0  0  0  0
    8.8825  -15.0171   25.4907 N   0  0  0  0  0  0  0  0  0  0  0  0
    9.1390  -15.8310   24.3161 C   0  0  0  0  0  0  0  0  0  0  0  0
    8.5117  -15.8419   26.6594 O   0  0  0  0  0  0  0  0  0  0  0  0
    9.0793  -15.6826   27.9133 O   0  0  0  0  0  0  0  0  0  0  0  0
  2  1  1  1
  3  2  1  0
  4  5  2  0
  4  2  1  0
  6  7  1  0
  7  8  2  0
  9  7  1  0
  9 10  1  0
 10 11  1  0
 11 12  1  0
 13 12  1  6
 13 14  1  0
 14  4  1  0
 15 22  1  0
 15 13  1  0
 16 15  2  0
 18 17  1  1
 19 18  1  0
 20 18  1  0
 21 20  1  6
 21 22  1  0
 21 23  1  0
 23 24  1  0
 25 23  2  0
M  END
$$$$
