ARL.pdb
     RDKit          3D

 25 24  0  0  1  0  0  0  0  0999 V2000
    5.9060  -18.5230   25.0447 C   0  0  0  0  0  0  0  0  0  0  0  0
    6.3774  -18.5749   23.6073 C   0  0  2  0  0  0  0  0  0  0  0  0
    6.2781  -19.8922   23.0447 N   0  0  0  0  0  0  0  0  0  0  0  0
    7.7887  -18.1027   23.4783 C   0  0  0  0  0  0  0  0  0  0  0  0
    8.7577  -18.9288   23.5768 O   0  0  0  0  0  0  0  0  0  0  0  0
    7.4743  -12.5162   19.2417 N   0  0  0  0  0  0  0  0  0  0  0  0
    7.9104  -13.5330   18.3537 C   0  0  0  0  0  0  0  0  0  0  0  0
    7.8107  -13.3651   17.0680 N   0  0  0  0  0  0  0  0  0  0  0  0
    8.4662  -14.7608   18.8008 N   0  0  0  0  0  0  0  0  0  0  0  0
    9.3590  -14.8124   19.9681 C   0  0  0  0  0  0  0  0  0  0  0  0
    8.5437  -15.0226   21.2319 C   0  0  0  0  0  0  0  0  0  0  0  0
    9.4864  -15.0466   22.3747 C   0  0  0  0  0  0  0  0  0  0  0  0
    9.5283  -16.2943   23.1959 C   0  0  2  0  0  0  0  0  0  0  0  0
    8.1329  -16.7592   23.2470 N   0  0  0  0  0  0  0  0  0  0  0  0
   10.0862  -16.1562   24.5418 C   0  0  0  0  0  0  0  0  0  0  0  0
   11.3297  -15.9290   24.6568 O   0  0  0  0  0  0  0  0  0  0  0  0
    8.1506  -14.0770   16.3892 C   0  0  0  0  0  0  0  0  0  0  0  0
    7.2479  -13.4197   28.0309 C   0  0  1  0  0  0  0  0  0  0  0  0
    8.4555  -13.9856   27.3390 C   0  0  0  0  0  0  0  0  0  0  0  0
    9.5564  -12.9223   27.4621 C   0  0  0  0  0  0  0  0  0  0  0  0
    9.0063  -15.2310   27.9382 C   0  0  2  0  0  0  0  0  0  0  0  0
    9.9410  -16.0118   27.0513 N   0  0  0  0  0  0  0  0  0  0  0  0
    9.3562  -16.2514   25.7441 C   0  0  0  0  0  0  0  0  0  0  0  0
   10.4508  -17.2575   27.6610 O   0  0  0  0  0  0  0  0  0  0  0  0
   11.2653  -17.2776   28.7816 O   0  0  0  0  0  0  0  0  0  0  0  0
  2  1  1  1
  3  2  1  0
  4  5  2  0
  4  2  1  0
  6  7  1  0
  7  8  2  0
  9  7  1  0
  9 10  1  0
 10 11  1  0
 11 12  1  0
 13 12  1  1
 13 14  1  0
 14  4  1  0
 15 22  1  0
 15 13  1  0
 16 15  2  0
 18 17  1  6
 19 18  1  0
 20 18  1  0
 21 20  1  6
 21 22  1  0
 21 23  1  0
 23 24  1  0
 25 23  2  0
M  END
$$$$
