ARL.pdb
     RDKit          3D

 25 24  0  0  1  0  0  0  0  0999 V2000
    7.2633  -12.5080   18.9934 C   0  0  0  0  0  0  0  0  0  0  0  0
    8.5191  -12.9403   19.7195 C   0  0  2  0  0  0  0  0  0  0  0  0
    9.4449  -13.6194   18.8573 N   0  0  0  0  0  0  0  0  0  0  0  0
    8.2015  -13.8283   20.8779 C   0  0  0  0  0  0  0  0  0  0  0  0
    7.3513  -13.4627   21.7580 O   0  0  0  0  0  0  0  0  0  0  0  0
    7.2619  -20.4764   19.3746 N   0  0  0  0  0  0  0  0  0  0  0  0
    8.4183  -20.2904   18.5741 C   0  0  0  0  0  0  0  0  0  0  0  0
    8.4677  -20.7844   17.3722 N   0  0  0  0  0  0  0  0  0  0  0  0
    9.5595  -19.5743   19.0226 N   0  0  0  0  0  0  0  0  0  0  0  0
    9.6519  -19.0760   20.4029 C   0  0  0  0  0  0  0  0  0  0  0  0
    8.9316  -17.7442   20.5198 C   0  0  0  0  0  0  0  0  0  0  0  0
    9.1056  -17.2608   21.9093 C   0  0  0  0  0  0  0  0  0  0  0  0
    8.5190  -15.9279   22.2444 C   0  0  2  0  0  0  0  0  0  0  0  0
    8.7990  -15.0865   21.0699 N   0  0  0  0  0  0  0  0  0  0  0  0
    9.0138  -15.3008   23.4706 C   0  0  0  0  0  0  0  0  0  0  0  0
    9.4549  -14.1126   23.4025 O   0  0  0  0  0  0  0  0  0  0  0  0
    9.3190  -20.7100   16.7781 C   0  0  0  0  0  0  0  0  0  0  0  0
    6.0629  -12.3716   25.8443 C   0  0  1  0  0  0  0  0  0  0  0  0
    7.3836  -13.0663   25.6701 C   0  0  0  0  0  0  0  0  0  0  0  0
    8.3127  -12.4961   26.7515 C   0  0  0  0  0  0  0  0  0  0  0  0
    7.3586  -14.5399   25.8730 C   0  0  2  0  0  0  0  0  0  0  0  0
    8.7104  -15.1983   25.9680 N   0  0  0  0  0  0  0  0  0  0  0  0
    9.0440  -15.9048   24.7441 C   0  0  0  0  0  0  0  0  0  0  0  0
    8.8815  -16.0549   27.1599 O   0  0  0  0  0  0  0  0  0  0  0  0
    8.6264  -17.4167   27.1604 O   0  0  0  0  0  0  0  0  0  0  0  0
  2  1  1  6
  3  2  1  0
  4  5  2  0
  4  2  1  0
  6  7  1  0
  7  8  2  0
  9  7  1  0
  9 10  1  0
 10 11  1  0
 11 12  1  0
 13 12  1  6
 13 14  1  0
 14  4  1  0
 15 22  1  0
 15 13  1  0
 16 15  2  0
 18 17  1  6
 19 18  1  0
 20 18  1  0
 21 20  1  6
 21 22  1  0
 21 23  1  0
 23 24  1  0
 25 23  2  0
M  END
$$$$
