ARL.pdb
     RDKit          3D

 25 24  0  0  1  0  0  0  0  0999 V2000
    9.4775  -21.5472   22.1528 C   0  0  0  0  0  0  0  0  0  0  0  0
    9.1168  -20.4733   23.1566 C   0  0  2  0  0  0  0  0  0  0  0  0
    7.7540  -20.0395   23.0297 N   0  0  0  0  0  0  0  0  0  0  0  0
   10.0129  -19.2849   23.0303 C   0  0  0  0  0  0  0  0  0  0  0  0
   11.2592  -19.3851   23.2910 O   0  0  0  0  0  0  0  0  0  0  0  0
    7.9437  -12.3000   20.2764 N   0  0  0  0  0  0  0  0  0  0  0  0
    8.1105  -13.3568   19.3447 C   0  0  0  0  0  0  0  0  0  0  0  0
    8.3793  -13.0943   18.0997 N   0  0  0  0  0  0  0  0  0  0  0  0
    7.9976  -14.7260   19.7035 N   0  0  0  0  0  0  0  0  0  0  0  0
    7.6117  -15.1274   21.0644 C   0  0  0  0  0  0  0  0  0  0  0  0
    8.7981  -14.9815   22.0011 C   0  0  0  0  0  0  0  0  0  0  0  0
    9.8375  -15.9411   21.5609 C   0  0  0  0  0  0  0  0  0  0  0  0
   10.4286  -16.8306   22.6061 C   0  0  2  0  0  0  0  0  0  0  0  0
    9.5577  -18.0167   22.6285 N   0  0  0  0  0  0  0  0  0  0  0  0
   10.5592  -16.2487   23.9425 C   0  0  0  0  0  0  0  0  0  0  0  0
   11.4683  -15.3842   24.1357 O   0  0  0  0  0  0  0  0  0  0  0  0
    8.4615  -13.8433   17.3818 C   0  0  0  0  0  0  0  0  0  0  0  0
   10.5713  -13.5661   28.2596 C   0  0  2  0  0  0  0  0  0  0  0  0
    9.2915  -14.3354   28.0937 C   0  0  0  0  0  0  0  0  0  0  0  0
    8.1548  -13.3245   28.3023 C   0  0  0  0  0  0  0  0  0  0  0  0
    9.0791  -14.9337   26.7482 C   0  0  1  0  0  0  0  0  0  0  0  0
   10.0108  -16.0630   26.3928 N   0  0  0  0  0  0  0  0  0  0  0  0
    9.7521  -16.5636   25.0547 C   0  0  0  0  0  0  0  0  0  0  0  0
   10.0441  -17.1535   27.3895 O   0  0  0  0  0  0  0  0  0  0  0  0
   11.0058  -17.2467   28.3826 O   0  0  0  0  0  0  0  0  0  0  0  0
  2  1  1  6
  3  2  1  0
  4  5  2  0
  4  2  1  0
  6  7  1  0
  7  8  2  0
  9  7  1  0
  9 10  1  0
 10 11  1  0
 11 12  1  0
 13 12  1  6
 13 14  1  0
 14  4  1  0
 15 22  1  0
 15 13  1  0
 16 15  2  0
 18 17  1  1
 19 18  1  0
 20 18  1  0
 21 20  1  6
 21 22  1  0
 21 23  1  0
 23 24  1  0
 25 23  2  0
M  END
$$$$
