ARL.pdb
     RDKit          3D

 25 24  0  0  1  0  0  0  0  0999 V2000
    8.3942  -12.0109   19.4103 C   0  0  0  0  0  0  0  0  0  0  0  0
    8.3486  -13.4578   18.9683 C   0  0  2  0  0  0  0  0  0  0  0  0
    7.2908  -13.7119   18.0312 N   0  0  0  0  0  0  0  0  0  0  0  0
    8.1904  -14.3796   20.1329 C   0  0  0  0  0  0  0  0  0  0  0  0
    7.0329  -14.6116   20.6204 O   0  0  0  0  0  0  0  0  0  0  0  0
   12.1269  -17.6301   17.7007 N   0  0  0  0  0  0  0  0  0  0  0  0
   11.2541  -18.7482   17.7268 C   0  0  0  0  0  0  0  0  0  0  0  0
   10.6735  -19.1501   16.6348 N   0  0  0  0  0  0  0  0  0  0  0  0
   10.9690  -19.4762   18.9121 N   0  0  0  0  0  0  0  0  0  0  0  0
   10.9934  -18.8250   20.2303 C   0  0  0  0  0  0  0  0  0  0  0  0
    9.9963  -17.6799   20.2583 C   0  0  0  0  0  0  0  0  0  0  0  0
   10.0401  -17.0803   21.6124 C   0  0  0  0  0  0  0  0  0  0  0  0
    9.1004  -15.9514   21.8873 C   0  0  2  0  0  0  0  0  0  0  0  0
    9.2716  -15.0328   20.7503 N   0  0  0  0  0  0  0  0  0  0  0  0
    9.2919  -15.2546   23.1598 C   0  0  0  0  0  0  0  0  0  0  0  0
    9.6694  -14.0431   23.1311 O   0  0  0  0  0  0  0  0  0  0  0  0
   10.0415  -19.9767   16.6163 C   0  0  0  0  0  0  0  0  0  0  0  0
    7.7612  -11.9807   26.5790 C   0  0  2  0  0  0  0  0  0  0  0  0
    7.1395  -13.3484   26.5660 C   0  0  0  0  0  0  0  0  0  0  0  0
    5.6241  -13.1282   26.4530 C   0  0  0  0  0  0  0  0  0  0  0  0
    7.5248  -14.2112   25.4168 C   0  0  1  0  0  0  0  0  0  0  0  0
    8.7796  -15.0213   25.6140 N   0  0  0  0  0  0  0  0  0  0  0  0
    9.0898  -15.8143   24.4379 C   0  0  0  0  0  0  0  0  0  0  0  0
    8.7816  -15.8401   26.8440 O   0  0  0  0  0  0  0  0  0  0  0  0
    9.4448  -15.4699   28.0028 O   0  0  0  0  0  0  0  0  0  0  0  0
  2  1  1  1
  3  2  1  0
  4  5  2  0
  4  2  1  0
  6  7  1  0
  7  8  2  0
  9  7  1  0
  9 10  1  0
 10 11  1  0
 11 12  1  0
 13 12  1  6
 13 14  1  0
 14  4  1  0
 15 22  1  0
 15 13  1  0
 16 15  2  0
 18 17  1  1
 19 18  1  0
 20 18  1  0
 21 20  1  6
 21 22  1  0
 21 23  1  0
 23 24  1  0
 25 23  2  0
M  END
$$$$
