ARL.pdb
     RDKit          3D

 25 24  0  0  1  0  0  0  0  0999 V2000
   12.1867  -19.2791   22.7135 C   0  0  0  0  0  0  0  0  0  0  0  0
   12.0879  -18.3363   21.5335 C   0  0  2  0  0  0  0  0  0  0  0  0
   13.3706  -18.0373   20.9615 N   0  0  0  0  0  0  0  0  0  0  0  0
   11.4207  -17.0549   21.9129 C   0  0  0  0  0  0  0  0  0  0  0  0
   12.0707  -16.1472   22.5332 O   0  0  0  0  0  0  0  0  0  0  0  0
    8.2200  -12.5642   17.9602 N   0  0  0  0  0  0  0  0  0  0  0  0
    7.9614  -13.9373   17.7147 C   0  0  0  0  0  0  0  0  0  0  0  0
    8.4059  -14.5028   16.6313 N   0  0  0  0  0  0  0  0  0  0  0  0
    7.2229  -14.7550   18.6104 N   0  0  0  0  0  0  0  0  0  0  0  0
    6.5449  -14.1813   19.7824 C   0  0  0  0  0  0  0  0  0  0  0  0
    7.4988  -14.1449   20.9635 C   0  0  0  0  0  0  0  0  0  0  0  0
    8.4028  -15.3128   20.8459 C   0  0  0  0  0  0  0  0  0  0  0  0
    9.4626  -15.4606   21.8888 C   0  0  2  0  0  0  0  0  0  0  0  0
   10.0746  -16.7721   21.6214 N   0  0  0  0  0  0  0  0  0  0  0  0
    9.0117  -15.3641   23.2777 C   0  0  0  0  0  0  0  0  0  0  0  0
    8.5774  -16.4141   23.8433 O   0  0  0  0  0  0  0  0  0  0  0  0
    8.3168  -15.5263   16.4650 C   0  0  0  0  0  0  0  0  0  0  0  0
    7.8342  -11.8702   27.9629 C   0  0  2  0  0  0  0  0  0  0  0  0
    7.0736  -12.6726   26.9457 C   0  0  0  0  0  0  0  0  0  0  0  0
    5.7628  -11.9131   26.6951 C   0  0  0  0  0  0  0  0  0  0  0  0
    7.7367  -12.8129   25.6212 C   0  0  1  0  0  0  0  0  0  0  0  0
    8.4469  -14.1219   25.3938 N   0  0  0  0  0  0  0  0  0  0  0  0
    9.0177  -14.1916   24.0605 C   0  0  0  0  0  0  0  0  0  0  0  0
    7.6294  -15.3132   25.7035 O   0  0  0  0  0  0  0  0  0  0  0  0
    6.5328  -15.6997   24.9500 O   0  0  0  0  0  0  0  0  0  0  0  0
  2  1  1  1
  3  2  1  0
  4  5  2  0
  4  2  1  0
  6  7  1  0
  7  8  2  0
  9  7  1  0
  9 10  1  0
 10 11  1  0
 11 12  1  0
 13 12  1  6
 13 14  1  0
 14  4  1  0
 15 22  1  0
 15 13  1  0
 16 15  2  0
 18 17  1  1
 19 18  1  0
 20 18  1  0
 21 20  1  1
 21 22  1  0
 21 23  1  0
 23 24  1  0
 25 23  2  0
M  END
$$$$
