ARL.pdb
     RDKit          3D

 25 24  0  0  1  0  0  0  0  0999 V2000
   10.8758  -18.3009   19.1718 C   0  0  0  0  0  0  0  0  0  0  0  0
   10.4397  -18.3621   20.6200 C   0  0  2  0  0  0  0  0  0  0  0  0
    9.2951  -19.2073   20.8128 N   0  0  0  0  0  0  0  0  0  0  0  0
   10.1281  -17.0024   21.1541 C   0  0  0  0  0  0  0  0  0  0  0  0
   11.0681  -16.2302   21.5433 O   0  0  0  0  0  0  0  0  0  0  0  0
    9.2676  -15.3706   17.0168 N   0  0  0  0  0  0  0  0  0  0  0  0
    8.4615  -14.2358   16.7431 C   0  0  0  0  0  0  0  0  0  0  0  0
    7.7412  -14.1910   15.6613 N   0  0  0  0  0  0  0  0  0  0  0  0
    8.3936  -13.1117   17.6080 N   0  0  0  0  0  0  0  0  0  0  0  0
    8.2328  -13.2768   19.0603 C   0  0  0  0  0  0  0  0  0  0  0  0
    7.5965  -14.6229   19.3590 C   0  0  0  0  0  0  0  0  0  0  0  0
    7.3726  -14.6985   20.8215 C   0  0  0  0  0  0  0  0  0  0  0  0
    8.5330  -15.1131   21.6669 C   0  0  2  0  0  0  0  0  0  0  0  0
    8.8199  -16.4982   21.2604 N   0  0  0  0  0  0  0  0  0  0  0  0
    8.3364  -15.0196   23.1140 C   0  0  0  0  0  0  0  0  0  0  0  0
    7.3435  -15.6222   23.6260 O   0  0  0  0  0  0  0  0  0  0  0  0
    7.1590  -13.3633   15.4183 C   0  0  0  0  0  0  0  0  0  0  0  0
    7.7209  -11.7547   27.5376 C   0  0  2  0  0  0  0  0  0  0  0  0
    7.0380  -12.8741   26.8043 C   0  0  0  0  0  0  0  0  0  0  0  0
    5.5743  -12.4431   26.6332 C   0  0  0  0  0  0  0  0  0  0  0  0
    7.5569  -13.1486   25.4372 C   0  0  1  0  0  0  0  0  0  0  0  0
    8.7869  -14.0167   25.3791 N   0  0  0  0  0  0  0  0  0  0  0  0
    9.1645  -14.3113   24.0084 C   0  0  0  0  0  0  0  0  0  0  0  0
    8.6989  -15.2425   26.1995 O   0  0  0  0  0  0  0  0  0  0  0  0
    9.5349  -15.5000   27.2740 O   0  0  0  0  0  0  0  0  0  0  0  0
  2  1  1  6
  3  2  1  0
  4  5  2  0
  4  2  1  0
  6  7  1  0
  7  8  2  0
  9  7  1  0
  9 10  1  0
 10 11  1  0
 11 12  1  0
 13 12  1  6
 13 14  1  0
 14  4  1  0
 15 22  1  0
 15 13  1  0
 16 15  2  0
 18 17  1  1
 19 18  1  0
 20 18  1  0
 21 20  1  6
 21 22  1  0
 21 23  1  0
 23 24  1  0
 25 23  2  0
M  END
$$$$
