ARL.pdb
     RDKit          3D

 25 24  0  0  1  0  0  0  0  0999 V2000
    7.1681  -12.8281   18.9725 C   0  0  0  0  0  0  0  0  0  0  0  0
    8.4253  -13.1400   19.7557 C   0  0  2  0  0  0  0  0  0  0  0  0
    9.4248  -13.7874   18.9535 N   0  0  0  0  0  0  0  0  0  0  0  0
    8.1305  -13.9992   20.9415 C   0  0  0  0  0  0  0  0  0  0  0  0
    7.1817  -13.6942   21.7403 O   0  0  0  0  0  0  0  0  0  0  0  0
    6.6079  -20.6110   20.4573 N   0  0  0  0  0  0  0  0  0  0  0  0
    7.4667  -20.5976   19.3282 C   0  0  0  0  0  0  0  0  0  0  0  0
    7.0878  -21.1470   18.2121 N   0  0  0  0  0  0  0  0  0  0  0  0
    8.7551  -20.0010   19.3465 N   0  0  0  0  0  0  0  0  0  0  0  0
    9.2658  -19.3282   20.5502 C   0  0  0  0  0  0  0  0  0  0  0  0
    8.4291  -18.0959   20.8463 C   0  0  0  0  0  0  0  0  0  0  0  0
    9.0613  -17.3874   21.9835 C   0  0  0  0  0  0  0  0  0  0  0  0
    8.4913  -16.0580   22.3585 C   0  0  2  0  0  0  0  0  0  0  0  0
    8.8556  -15.1644   21.2473 N   0  0  0  0  0  0  0  0  0  0  0  0
    8.9348  -15.5102   23.6410 C   0  0  0  0  0  0  0  0  0  0  0  0
   10.1719  -15.2736   23.7982 O   0  0  0  0  0  0  0  0  0  0  0  0
    7.7285  -21.2435   17.3976 C   0  0  0  0  0  0  0  0  0  0  0  0
    6.0834  -11.8599   26.3882 C   0  0  1  0  0  0  0  0  0  0  0  0
    7.2360  -12.6594   25.8501 C   0  0  0  0  0  0  0  0  0  0  0  0
    8.4338  -11.7003   25.7967 C   0  0  0  0  0  0  0  0  0  0  0  0
    7.6584  -13.8116   26.6912 C   0  0  2  0  0  0  0  0  0  0  0  0
    8.6036  -14.7791   26.0275 N   0  0  0  0  0  0  0  0  0  0  0  0
    8.0992  -15.2131   24.7370 C   0  0  0  0  0  0  0  0  0  0  0  0
    8.9907  -15.9235   26.8784 O   0  0  0  0  0  0  0  0  0  0  0  0
    8.7926  -17.2449   26.5117 O   0  0  0  0  0  0  0  0  0  0  0  0
  2  1  1  6
  3  2  1  0
  4  5  2  0
  4  2  1  0
  6  7  1  0
  7  8  2  0
  9  7  1  0
  9 10  1  0
 10 11  1  0
 11 12  1  0
 13 12  1  6
 13 14  1  0
 14  4  1  0
 15 22  1  0
 15 13  1  0
 16 15  2  0
 18 17  1  6
 19 18  1  0
 20 18  1  0
 21 20  1  6
 21 22  1  0
 21 23  1  0
 23 24  1  0
 25 23  2  0
M  END
$$$$
