ARL.pdb
     RDKit          3D

 25 24  0  0  1  0  0  0  0  0999 V2000
    7.8453  -21.4585   22.4552 C   0  0  0  0  0  0  0  0  0  0  0  0
    7.9495  -20.3930   23.5253 C   0  0  2  0  0  0  0  0  0  0  0  0
    6.6658  -19.9998   24.0345 N   0  0  0  0  0  0  0  0  0  0  0  0
    8.6580  -19.1791   23.0197 C   0  0  0  0  0  0  0  0  0  0  0  0
    9.8630  -19.2607   22.6041 O   0  0  0  0  0  0  0  0  0  0  0  0
    8.8171  -13.9456   17.7660 N   0  0  0  0  0  0  0  0  0  0  0  0
    8.3178  -12.8550   18.5235 C   0  0  0  0  0  0  0  0  0  0  0  0
    8.8089  -11.6627   18.3551 N   0  0  0  0  0  0  0  0  0  0  0  0
    7.2814  -12.9939   19.4841 N   0  0  0  0  0  0  0  0  0  0  0  0
    6.9675  -14.3000   20.0824 C   0  0  0  0  0  0  0  0  0  0  0  0
    8.1373  -14.7753   20.9261 C   0  0  0  0  0  0  0  0  0  0  0  0
    7.7589  -16.0767   21.5246 C   0  0  0  0  0  0  0  0  0  0  0  0
    8.7572  -16.7265   22.4268 C   0  0  2  0  0  0  0  0  0  0  0  0
    8.0637  -17.9059   22.9693 N   0  0  0  0  0  0  0  0  0  0  0  0
    9.2890  -15.8883   23.5021 C   0  0  0  0  0  0  0  0  0  0  0  0
    9.7665  -14.7521   23.1986 O   0  0  0  0  0  0  0  0  0  0  0  0
    8.5397  -10.8626   18.9637 C   0  0  0  0  0  0  0  0  0  0  0  0
    8.5112  -12.2752   26.7330 C   0  0  2  0  0  0  0  0  0  0  0  0
    7.5451  -13.4256   26.7112 C   0  0  0  0  0  0  0  0  0  0  0  0
    6.1787  -12.8297   26.3430 C   0  0  0  0  0  0  0  0  0  0  0  0
    7.8309  -14.4769   25.6979 C   0  0  1  0  0  0  0  0  0  0  0  0
    9.0875  -15.2734   25.9354 N   0  0  0  0  0  0  0  0  0  0  0  0
    9.3181  -16.2316   24.8692 C   0  0  0  0  0  0  0  0  0  0  0  0
    9.1561  -15.9083   27.2679 O   0  0  0  0  0  0  0  0  0  0  0  0
    9.2959  -17.2743   27.4531 O   0  0  0  0  0  0  0  0  0  0  0  0
  2  1  1  6
  3  2  1  0
  4  5  2  0
  4  2  1  0
  6  7  1  0
  7  8  2  0
  9  7  1  0
  9 10  1  0
 10 11  1  0
 11 12  1  0
 13 12  1  1
 13 14  1  0
 14  4  1  0
 15 22  1  0
 15 13  1  0
 16 15  2  0
 18 17  1  1
 19 18  1  0
 20 18  1  0
 21 20  1  6
 21 22  1  0
 21 23  1  0
 23 24  1  0
 25 23  2  0
M  END
$$$$
