ARL.pdb
     RDKit          3D

 25 24  0  0  1  0  0  0  0  0999 V2000
    8.5480  -11.9791   20.3664 C   0  0  0  0  0  0  0  0  0  0  0  0
    8.4720  -13.3556   19.7416 C   0  0  2  0  0  0  0  0  0  0  0  0
    7.4100  -13.4642   18.7814 N   0  0  0  0  0  0  0  0  0  0  0  0
    8.2929  -14.4163   20.7779 C   0  0  0  0  0  0  0  0  0  0  0  0
    7.1714  -14.5548   21.3733 O   0  0  0  0  0  0  0  0  0  0  0  0
   10.2535  -17.7621   17.1803 N   0  0  0  0  0  0  0  0  0  0  0  0
    9.1684  -18.6659   17.3159 C   0  0  0  0  0  0  0  0  0  0  0  0
    8.2295  -18.6998   16.4167 N   0  0  0  0  0  0  0  0  0  0  0  0
    9.0441  -19.5628   18.4097 N   0  0  0  0  0  0  0  0  0  0  0  0
    9.5752  -19.2224   19.7379 C   0  0  0  0  0  0  0  0  0  0  0  0
    8.9857  -17.9037   20.2066 C   0  0  0  0  0  0  0  0  0  0  0  0
    9.5493  -17.6112   21.5452 C   0  0  0  0  0  0  0  0  0  0  0  0
    9.1326  -16.3312   22.1938 C   0  0  2  0  0  0  0  0  0  0  0  0
    9.3152  -15.3049   21.1549 N   0  0  0  0  0  0  0  0  0  0  0  0
    9.8477  -15.9722   23.4191 C   0  0  0  0  0  0  0  0  0  0  0  0
   11.0284  -15.5180   23.3151 O   0  0  0  0  0  0  0  0  0  0  0  0
    7.4024  -19.3254   16.5040 C   0  0  0  0  0  0  0  0  0  0  0  0
    9.3623  -12.8160   28.4696 C   0  0  2  0  0  0  0  0  0  0  0  0
   10.0317  -13.9935   27.8194 C   0  0  0  0  0  0  0  0  0  0  0  0
   10.0426  -15.1131   28.8702 C   0  0  0  0  0  0  0  0  0  0  0  0
    9.3325  -14.5441   26.6272 C   0  0  1  0  0  0  0  0  0  0  0  0
   10.0630  -15.6473   25.9066 N   0  0  0  0  0  0  0  0  0  0  0  0
    9.3360  -16.0838   24.7280 C   0  0  0  0  0  0  0  0  0  0  0  0
   10.4408  -16.7849   26.7707 O   0  0  0  0  0  0  0  0  0  0  0  0
   11.7081  -16.9437   27.3077 O   0  0  0  0  0  0  0  0  0  0  0  0
  2  1  1  1
  3  2  1  0
  4  5  2  0
  4  2  1  0
  6  7  1  0
  7  8  2  0
  9  7  1  0
  9 10  1  0
 10 11  1  0
 11 12  1  0
 13 12  1  6
 13 14  1  0
 14  4  1  0
 15 22  1  0
 15 13  1  0
 16 15  2  0
 18 17  1  1
 19 18  1  0
 20 18  1  0
 21 20  1  6
 21 22  1  0
 21 23  1  0
 23 24  1  0
 25 23  2  0
M  END
$$$$
