ARL.pdb
     RDKit          3D

 25 24  0  0  1  0  0  0  0  0999 V2000
    8.0015  -12.2685   19.6785 C   0  0  0  0  0  0  0  0  0  0  0  0
    8.3976  -13.6802   19.3027 C   0  0  2  0  0  0  0  0  0  0  0  0
    7.6916  -14.1588   18.1475 N   0  0  0  0  0  0  0  0  0  0  0  0
    8.1695  -14.6302   20.4326 C   0  0  0  0  0  0  0  0  0  0  0  0
    7.2959  -15.5564   20.3315 O   0  0  0  0  0  0  0  0  0  0  0  0
   12.0180  -19.0195   19.4491 N   0  0  0  0  0  0  0  0  0  0  0  0
   10.9745  -18.8747   18.4990 C   0  0  0  0  0  0  0  0  0  0  0  0
   11.0131  -19.5357   17.3797 N   0  0  0  0  0  0  0  0  0  0  0  0
    9.8565  -18.0240   18.7053 N   0  0  0  0  0  0  0  0  0  0  0  0
    9.1697  -17.9706   20.0044 C   0  0  0  0  0  0  0  0  0  0  0  0
    9.7470  -16.8469   20.8471 C   0  0  0  0  0  0  0  0  0  0  0  0
    9.0452  -16.8589   22.1518 C   0  0  0  0  0  0  0  0  0  0  0  0
    8.6722  -15.5350   22.7359 C   0  0  2  0  0  0  0  0  0  0  0  0
    8.8795  -14.5694   21.6447 N   0  0  0  0  0  0  0  0  0  0  0  0
    9.4059  -15.1360   23.9376 C   0  0  0  0  0  0  0  0  0  0  0  0
   10.0998  -14.0741   23.8936 O   0  0  0  0  0  0  0  0  0  0  0  0
   10.2576  -19.4624   16.6677 C   0  0  0  0  0  0  0  0  0  0  0  0
    6.0295  -12.7184   26.0955 C   0  0  1  0  0  0  0  0  0  0  0  0
    7.3928  -13.3176   25.8969 C   0  0  0  0  0  0  0  0  0  0  0  0
    8.3386  -12.5471   26.8293 C   0  0  0  0  0  0  0  0  0  0  0  0
    7.5165  -14.7533   26.2672 C   0  0  2  0  0  0  0  0  0  0  0  0
    8.9280  -15.2615   26.4065 N   0  0  0  0  0  0  0  0  0  0  0  0
    9.4113  -15.8337   25.1627 C   0  0  0  0  0  0  0  0  0  0  0  0
    9.1285  -16.1793   27.5471 O   0  0  0  0  0  0  0  0  0  0  0  0
    9.8719  -15.8477   28.6683 O   0  0  0  0  0  0  0  0  0  0  0  0
  2  1  1  1
  3  2  1  0
  4  5  2  0
  4  2  1  0
  6  7  1  0
  7  8  2  0
  9  7  1  0
  9 10  1  0
 10 11  1  0
 11 12  1  0
 13 12  1  6
 13 14  1  0
 14  4  1  0
 15 22  1  0
 15 13  1  0
 16 15  2  0
 18 17  1  6
 19 18  1  0
 20 18  1  0
 21 20  1  6
 21 22  1  0
 21 23  1  0
 23 24  1  0
 25 23  2  0
M  END
$$$$
