ARL.pdb
     RDKit          3D

 25 24  0  0  1  0  0  0  0  0999 V2000
    8.2343  -11.9075   19.7399 C   0  0  0  0  0  0  0  0  0  0  0  0
    8.4773  -13.2781   19.1453 C   0  0  2  0  0  0  0  0  0  0  0  0
    7.7325  -13.4914   17.9364 N   0  0  0  0  0  0  0  0  0  0  0  0
    8.1385  -14.3620   20.1157 C   0  0  0  0  0  0  0  0  0  0  0  0
    6.9389  -14.7894   20.2137 O   0  0  0  0  0  0  0  0  0  0  0  0
    8.9518  -21.5017   21.4324 N   0  0  0  0  0  0  0  0  0  0  0  0
    9.9981  -21.5598   22.3888 C   0  0  0  0  0  0  0  0  0  0  0  0
   10.1130  -22.5931   23.1700 N   0  0  0  0  0  0  0  0  0  0  0  0
   10.9562  -20.5239   22.5473 N   0  0  0  0  0  0  0  0  0  0  0  0
   10.8839  -19.2910   21.7493 C   0  0  0  0  0  0  0  0  0  0  0  0
    9.8086  -18.3765   22.3093 C   0  0  0  0  0  0  0  0  0  0  0  0
    9.8033  -17.1392   21.4944 C   0  0  0  0  0  0  0  0  0  0  0  0
    8.7685  -16.1125   21.8232 C   0  0  2  0  0  0  0  0  0  0  0  0
    9.0883  -14.9647   20.9593 N   0  0  0  0  0  0  0  0  0  0  0  0
    8.6915  -15.7083   23.2275 C   0  0  0  0  0  0  0  0  0  0  0  0
    8.4175  -16.5944   24.0941 O   0  0  0  0  0  0  0  0  0  0  0  0
   10.8481  -22.6523   23.9043 C   0  0  0  0  0  0  0  0  0  0  0  0
    7.6346  -11.8678   27.2205 C   0  0  1  0  0  0  0  0  0  0  0  0
    6.8643  -12.9953   26.5940 C   0  0  0  0  0  0  0  0  0  0  0  0
    5.4066  -12.5207   26.5065 C   0  0  0  0  0  0  0  0  0  0  0  0
    7.2729  -13.3521   25.2086 C   0  0  1  0  0  0  0  0  0  0  0  0
    8.6220  -14.0115   25.0865 N   0  0  0  0  0  0  0  0  0  0  0  0
    8.8997  -14.4023   23.7160 C   0  0  0  0  0  0  0  0  0  0  0  0
    8.8345  -15.1291   26.0295 O   0  0  0  0  0  0  0  0  0  0  0  0
    7.9805  -16.2159   26.1253 O   0  0  0  0  0  0  0  0  0  0  0  0
  2  1  1  1
  3  2  1  0
  4  5  2  0
  4  2  1  0
  6  7  1  0
  7  8  2  0
  9  7  1  0
  9 10  1  0
 10 11  1  0
 11 12  1  0
 13 12  1  1
 13 14  1  0
 14  4  1  0
 15 22  1  0
 15 13  1  0
 16 15  2  0
 18 17  1  1
 19 18  1  0
 20 18  1  0
 21 20  1  6
 21 22  1  0
 21 23  1  0
 23 24  1  0
 25 23  2  0
M  END
$$$$
