ARL.pdb
     RDKit          3D

 25 24  0  0  1  0  0  0  0  0999 V2000
    8.1516  -12.0363   19.9075 C   0  0  0  0  0  0  0  0  0  0  0  0
    8.3920  -13.4474   19.4155 C   0  0  2  0  0  0  0  0  0  0  0  0
    7.6384  -13.7514   18.2318 N   0  0  0  0  0  0  0  0  0  0  0  0
    8.0622  -14.4557   20.4671 C   0  0  0  0  0  0  0  0  0  0  0  0
    6.8525  -14.8190   20.6568 O   0  0  0  0  0  0  0  0  0  0  0  0
    7.5982  -19.0867   18.9347 N   0  0  0  0  0  0  0  0  0  0  0  0
    8.8486  -19.5116   18.4166 C   0  0  0  0  0  0  0  0  0  0  0  0
    8.9436  -19.9092   17.1820 N   0  0  0  0  0  0  0  0  0  0  0  0
   10.0386  -19.5285   19.1911 N   0  0  0  0  0  0  0  0  0  0  0  0
   10.0525  -19.0362   20.5766 C   0  0  0  0  0  0  0  0  0  0  0  0
    9.2699  -17.7382   20.6706 C   0  0  0  0  0  0  0  0  0  0  0  0
    9.3841  -17.2456   22.0632 C   0  0  0  0  0  0  0  0  0  0  0  0
    8.6843  -15.9669   22.3921 C   0  0  2  0  0  0  0  0  0  0  0  0
    9.0315  -15.0531   21.2920 N   0  0  0  0  0  0  0  0  0  0  0  0
    9.0097  -15.3748   23.6902 C   0  0  0  0  0  0  0  0  0  0  0  0
   10.2099  -15.0234   23.9069 O   0  0  0  0  0  0  0  0  0  0  0  0
    9.8550  -20.1732   16.7546 C   0  0  0  0  0  0  0  0  0  0  0  0
    5.6714  -12.0782   26.4915 C   0  0  1  0  0  0  0  0  0  0  0  0
    6.8662  -12.7770   25.9075 C   0  0  0  0  0  0  0  0  0  0  0  0
    7.9796  -11.7229   25.8238 C   0  0  0  0  0  0  0  0  0  0  0  0
    7.4094  -13.8968   26.7229 C   0  0  2  0  0  0  0  0  0  0  0  0
    8.4963  -14.7042   26.0622 N   0  0  0  0  0  0  0  0  0  0  0  0
    8.0958  -15.1523   24.7405 C   0  0  0  0  0  0  0  0  0  0  0  0
    9.0062  -15.8184   26.8881 O   0  0  0  0  0  0  0  0  0  0  0  0
    8.9783  -17.1422   26.4799 O   0  0  0  0  0  0  0  0  0  0  0  0
  2  1  1  1
  3  2  1  0
  4  5  2  0
  4  2  1  0
  6  7  1  0
  7  8  2  0
  9  7  1  0
  9 10  1  0
 10 11  1  0
 11 12  1  0
 13 12  1  6
 13 14  1  0
 14  4  1  0
 15 22  1  0
 15 13  1  0
 16 15  2  0
 18 17  1  6
 19 18  1  0
 20 18  1  0
 21 20  1  6
 21 22  1  0
 21 23  1  0
 23 24  1  0
 25 23  2  0
M  END
$$$$
