TIL.pdb
     RDKit          3D

 24 23  0  0  1  0  0  0  0  0999 V2000
    5.8912  -18.7292   23.6411 C   0  0  0  0  0  0  0  0  0  0  0  0
    6.6255  -19.4823   22.5823 C   0  0  1  0  0  0  0  0  0  0  0  0
    5.9554  -20.6503   22.2452 O   0  0  0  0  0  0  0  0  0  0  0  0
    6.8270  -18.6734   21.3195 C   0  0  2  0  0  0  0  0  0  0  0  0
    7.4764  -19.5041   20.2900 N   0  0  0  0  0  0  0  0  0  0  0  0
    7.6373  -17.4525   21.5332 C   0  0  0  0  0  0  0  0  0  0  0  0
    8.8931  -17.5722   21.7147 O   0  0  0  0  0  0  0  0  0  0  0  0
    7.4606  -12.5504   19.1277 C   0  0  0  0  0  0  0  0  0  0  0  0
    7.8531  -13.7696   19.8876 C   0  0  0  0  0  0  0  0  0  0  0  0
    7.6074  -13.7335   21.3549 C   0  0  2  0  0  0  0  0  0  0  0  0
    8.5281  -12.6463   21.9281 C   0  0  0  0  0  0  0  0  0  0  0  0
    7.8831  -15.0086   22.0799 C   0  0  2  0  0  0  0  0  0  0  0  0
    7.1316  -16.1302   21.5542 N   0  0  0  0  0  0  0  0  0  0  0  0
    7.7582  -14.9051   23.5551 C   0  0  0  0  0  0  0  0  0  0  0  0
    6.6472  -14.8913   24.1418 O   0  0  0  0  0  0  0  0  0  0  0  0
    8.0184  -12.3141   27.1017 C   0  0  0  0  0  0  0  0  0  0  0  0
    7.0277  -12.9254   26.1018 C   0  0  2  0  0  0  0  0  0  0  0  0
    5.6287  -12.5818   26.4935 C   0  0  0  0  0  0  0  0  0  0  0  0
    7.3019  -14.3958   26.0860 C   0  0  0  0  0  0  0  0  0  0  0  0
    8.7386  -14.7527   25.8531 C   0  0  2  0  0  0  0  0  0  0  0  0
    8.9170  -14.8143   24.3949 N   0  0  0  0  0  0  0  0  0  0  0  0
    9.1734  -16.0298   26.4097 C   0  0  0  0  0  0  0  0  0  0  0  0
    9.0192  -17.0859   25.7628 O   0  0  0  0  0  0  0  0  0  0  0  0
    9.7584  -16.0871   27.6538 O   0  0  0  0  0  0  0  0  0  0  0  0
  2  1  1  1
  3  2  1  0
  4  6  1  0
  4  2  1  0
  4  5  1  6
  6  7  2  0
  8  9  1  0
  9 10  1  0
 10 11  1  1
 12 10  1  0
 12 13  1  6
 13  6  1  0
 14 15  2  0
 14 12  1  0
 17 16  1  1
 17 18  1  0
 17 19  1  0
 20 19  1  6
 20 22  1  0
 20 21  1  0
 21 14  1  0
 22 24  1  0
 23 22  2  0
M  END
$$$$
