TIL.pdb
     RDKit          3D

 24 23  0  0  1  0  0  0  0  0999 V2000
   14.0107  -17.1455   19.9117 C   0  0  0  0  0  0  0  0  0  0  0  0
   12.7028  -17.6203   19.3722 C   0  0  1  0  0  0  0  0  0  0  0  0
   12.8867  -18.6165   18.4233 O   0  0  0  0  0  0  0  0  0  0  0  0
   11.7844  -18.1578   20.4480 C   0  0  2  0  0  0  0  0  0  0  0  0
   10.6575  -18.8796   19.8308 N   0  0  0  0  0  0  0  0  0  0  0  0
   11.2493  -17.1019   21.3376 C   0  0  0  0  0  0  0  0  0  0  0  0
   12.0527  -16.2361   21.8165 O   0  0  0  0  0  0  0  0  0  0  0  0
    6.4192  -14.5115   20.5722 C   0  0  0  0  0  0  0  0  0  0  0  0
    7.8248  -14.8357   20.9423 C   0  0  0  0  0  0  0  0  0  0  0  0
    8.0204  -15.4788   22.2700 C   0  0  2  0  0  0  0  0  0  0  0  0
    7.5848  -14.4511   23.3246 C   0  0  0  0  0  0  0  0  0  0  0  0
    9.4196  -15.8978   22.5764 C   0  0  2  0  0  0  0  0  0  0  0  0
    9.8915  -16.9621   21.7140 N   0  0  0  0  0  0  0  0  0  0  0  0
    9.6601  -16.2025   24.0089 C   0  0  0  0  0  0  0  0  0  0  0  0
    9.6195  -17.3708   24.4692 O   0  0  0  0  0  0  0  0  0  0  0  0
    9.7358  -13.1238   29.2712 C   0  0  0  0  0  0  0  0  0  0  0  0
   10.1076  -14.4693   28.6338 C   0  0  2  0  0  0  0  0  0  0  0  0
   11.4658  -14.8917   29.0873 C   0  0  0  0  0  0  0  0  0  0  0  0
   10.0029  -14.2752   27.1543 C   0  0  0  0  0  0  0  0  0  0  0  0
   10.2194  -15.5222   26.3519 C   0  0  2  0  0  0  0  0  0  0  0  0
    9.9545  -15.1623   24.9511 N   0  0  0  0  0  0  0  0  0  0  0  0
    9.3609  -16.6524   26.6918 C   0  0  0  0  0  0  0  0  0  0  0  0
    9.8393  -17.6661   27.2406 O   0  0  0  0  0  0  0  0  0  0  0  0
    8.0142  -16.6160   26.4125 O   0  0  0  0  0  0  0  0  0  0  0  0
  2  1  1  1
  3  2  1  0
  4  6  1  0
  4  2  1  0
  4  5  1  6
  6  7  2  0
  8  9  1  0
  9 10  1  0
 10 11  1  1
 12 10  1  0
 12 13  1  6
 13  6  1  0
 14 15  2  0
 14 12  1  0
 17 16  1  1
 17 18  1  0
 17 19  1  0
 20 19  1  1
 20 22  1  0
 20 21  1  0
 21 14  1  0
 22 24  1  0
 23 22  2  0
M  END
$$$$
