TIL.pdb
     RDKit          3D

 24 23  0  0  1  0  0  0  0  0999 V2000
    6.0545  -10.5082   26.7773 C   0  0  0  0  0  0  0  0  0  0  0  0
    6.8953  -11.6375   26.2821 C   0  0  1  0  0  0  0  0  0  0  0  0
    7.7106  -12.1320   27.2908 O   0  0  0  0  0  0  0  0  0  0  0  0
    6.0741  -12.7846   25.7350 C   0  0  2  0  0  0  0  0  0  0  0  0
    5.2539  -13.3715   26.8094 N   0  0  0  0  0  0  0  0  0  0  0  0
    6.8989  -13.8512   25.1230 C   0  0  0  0  0  0  0  0  0  0  0  0
    6.9980  -14.9718   25.7220 O   0  0  0  0  0  0  0  0  0  0  0  0
    7.7225  -13.2307   19.9391 C   0  0  0  0  0  0  0  0  0  0  0  0
    7.3954  -14.1273   21.0824 C   0  0  0  0  0  0  0  0  0  0  0  0
    8.5548  -14.6690   21.8418 C   0  0  2  0  0  0  0  0  0  0  0  0
    8.8701  -16.0459   21.2394 C   0  0  0  0  0  0  0  0  0  0  0  0
    8.3339  -14.8403   23.3078 C   0  0  2  0  0  0  0  0  0  0  0  0
    7.6054  -13.7374   23.9012 N   0  0  0  0  0  0  0  0  0  0  0  0
    9.5651  -15.1613   24.0719 C   0  0  0  0  0  0  0  0  0  0  0  0
   10.6719  -14.6166   23.8335 O   0  0  0  0  0  0  0  0  0  0  0  0
   10.3386  -15.1356   29.3784 C   0  0  0  0  0  0  0  0  0  0  0  0
   10.6659  -14.9985   27.8853 C   0  0  2  0  0  0  0  0  0  0  0  0
    9.7807  -13.9716   27.2602 C   0  0  0  0  0  0  0  0  0  0  0  0
   10.5098  -16.3640   27.2951 C   0  0  0  0  0  0  0  0  0  0  0  0
   10.8081  -16.4398   25.8285 C   0  0  2  0  0  0  0  0  0  0  0  0
    9.5507  -16.1235   25.1350 N   0  0  0  0  0  0  0  0  0  0  0  0
   11.2723  -17.7349   25.3415 C   0  0  0  0  0  0  0  0  0  0  0  0
   10.4780  -18.5236   24.7895 O   0  0  0  0  0  0  0  0  0  0  0  0
   12.5902  -18.1037   25.4840 O   0  0  0  0  0  0  0  0  0  0  0  0
  2  1  1  1
  3  2  1  0
  4  6  1  0
  4  2  1  0
  4  5  1  1
  6  7  2  0
  8  9  1  0
  9 10  1  0
 10 11  1  6
 12 10  1  0
 12 13  1  1
 13  6  1  0
 14 15  2  0
 14 12  1  0
 17 16  1  1
 17 18  1  0
 17 19  1  0
 20 19  1  1
 20 22  1  0
 20 21  1  0
 21 14  1  0
 22 24  1  0
 23 22  2  0
M  END
$$$$
