TIL.pdb
     RDKit          3D

 24 23  0  0  1  0  0  0  0  0999 V2000
    4.9030  -19.8898   23.1019 C   0  0  0  0  0  0  0  0  0  0  0  0
    5.9060  -18.7848   23.1153 C   0  0  1  0  0  0  0  0  0  0  0  0
    6.9200  -19.0425   24.0275 O   0  0  0  0  0  0  0  0  0  0  0  0
    6.5388  -18.5501   21.7610 C   0  0  2  0  0  0  0  0  0  0  0  0
    7.1946  -19.7842   21.2932 N   0  0  0  0  0  0  0  0  0  0  0  0
    7.5306  -17.4506   21.7645 C   0  0  0  0  0  0  0  0  0  0  0  0
    8.7701  -17.7406   21.7018 O   0  0  0  0  0  0  0  0  0  0  0  0
    6.8803  -12.4640   19.3904 C   0  0  0  0  0  0  0  0  0  0  0  0
    7.5252  -13.6977   19.9194 C   0  0  0  0  0  0  0  0  0  0  0  0
    7.7796  -13.7262   21.3853 C   0  0  2  0  0  0  0  0  0  0  0  0
    8.8764  -12.6875   21.6613 C   0  0  0  0  0  0  0  0  0  0  0  0
    8.2332  -15.0399   21.9291 C   0  0  2  0  0  0  0  0  0  0  0  0
    7.2199  -16.0708   21.8320 N   0  0  0  0  0  0  0  0  0  0  0  0
    8.8111  -14.9628   23.2939 C   0  0  0  0  0  0  0  0  0  0  0  0
    9.9849  -14.5714   23.5117 O   0  0  0  0  0  0  0  0  0  0  0  0
    8.0881  -12.0946   26.4520 C   0  0  0  0  0  0  0  0  0  0  0  0
    7.0082  -13.1074   26.0481 C   0  0  2  0  0  0  0  0  0  0  0  0
    5.6812  -12.6798   26.5820 C   0  0  0  0  0  0  0  0  0  0  0  0
    7.4636  -14.4345   26.5664 C   0  0  0  0  0  0  0  0  0  0  0  0
    8.5846  -15.0500   25.7852 C   0  0  2  0  0  0  0  0  0  0  0  0
    8.0460  -15.3373   24.4475 N   0  0  0  0  0  0  0  0  0  0  0  0
    9.1258  -16.2935   26.3244 C   0  0  0  0  0  0  0  0  0  0  0  0
    8.9697  -17.3688   25.7104 O   0  0  0  0  0  0  0  0  0  0  0  0
    9.8145  -16.2975   27.5155 O   0  0  0  0  0  0  0  0  0  0  0  0
  2  1  1  6
  3  2  1  0
  4  6  1  0
  4  2  1  0
  4  5  1  1
  6  7  2  0
  8  9  1  0
  9 10  1  0
 10 11  1  6
 12 10  1  0
 12 13  1  1
 13  6  1  0
 14 15  2  0
 14 12  1  0
 17 16  1  1
 17 18  1  0
 17 19  1  0
 20 19  1  1
 20 22  1  0
 20 21  1  0
 21 14  1  0
 22 24  1  0
 23 22  2  0
M  END
$$$$
