TIL.pdb
     RDKit          3D

 24 23  0  0  1  0  0  0  0  0999 V2000
   10.8443  -14.8580   28.8836 C   0  0  0  0  0  0  0  0  0  0  0  0
   10.5373  -16.3154   28.9781 C   0  0  1  0  0  0  0  0  0  0  0  0
   10.9131  -16.8252   30.2133 O   0  0  0  0  0  0  0  0  0  0  0  0
    9.0702  -16.6209   28.7687 C   0  0  2  0  0  0  0  0  0  0  0  0
    8.8195  -18.0555   28.9942 N   0  0  0  0  0  0  0  0  0  0  0  0
    8.5864  -16.2551   27.4179 C   0  0  0  0  0  0  0  0  0  0  0  0
    8.4385  -17.1748   26.5479 O   0  0  0  0  0  0  0  0  0  0  0  0
    6.0431  -11.5758   26.6576 C   0  0  0  0  0  0  0  0  0  0  0  0
    6.2273  -12.9561   26.1296 C   0  0  0  0  0  0  0  0  0  0  0  0
    7.5092  -13.2202   25.4214 C   0  0  2  0  0  0  0  0  0  0  0  0
    7.2373  -13.0048   23.9254 C   0  0  0  0  0  0  0  0  0  0  0  0
    8.0670  -14.5927   25.6016 C   0  0  2  0  0  0  0  0  0  0  0  0
    8.2639  -14.9433   26.9935 N   0  0  0  0  0  0  0  0  0  0  0  0
    9.2784  -14.8651   24.7886 C   0  0  0  0  0  0  0  0  0  0  0  0
   10.3413  -14.2072   24.9150 O   0  0  0  0  0  0  0  0  0  0  0  0
   13.0593  -18.5880   25.0007 C   0  0  0  0  0  0  0  0  0  0  0  0
   12.6047  -17.6701   23.8580 C   0  0  2  0  0  0  0  0  0  0  0  0
   13.6672  -16.6658   23.5557 C   0  0  0  0  0  0  0  0  0  0  0  0
   11.3118  -17.0608   24.2991 C   0  0  0  0  0  0  0  0  0  0  0  0
   10.5800  -16.3197   23.2216 C   0  0  2  0  0  0  0  0  0  0  0  0
    9.2944  -15.9080   23.8045 N   0  0  0  0  0  0  0  0  0  0  0  0
   10.2965  -17.0802   22.0087 C   0  0  0  0  0  0  0  0  0  0  0  0
    9.3376  -17.8782   21.9734 O   0  0  0  0  0  0  0  0  0  0  0  0
   11.0814  -16.9280   20.8890 O   0  0  0  0  0  0  0  0  0  0  0  0
  2  1  1  1
  3  2  1  0
  4  6  1  0
  4  2  1  0
  4  5  1  6
  6  7  2  0
  8  9  1  0
  9 10  1  0
 10 11  1  6
 12 10  1  0
 12 13  1  1
 13  6  1  0
 14 15  2  0
 14 12  1  0
 17 16  1  1
 17 18  1  0
 17 19  1  0
 20 19  1  1
 20 22  1  0
 20 21  1  0
 21 14  1  0
 22 24  1  0
 23 22  2  0
M  END
$$$$
