TIL.pdb
     RDKit          3D

 24 23  0  0  1  0  0  0  0  0999 V2000
   10.9978  -19.5868   21.7002 C   0  0  0  0  0  0  0  0  0  0  0  0
   11.9872  -19.0155   20.7400 C   0  0  1  0  0  0  0  0  0  0  0  0
   12.4020  -19.9716   19.8232 O   0  0  0  0  0  0  0  0  0  0  0  0
   11.4431  -17.8308   19.9720 C   0  0  2  0  0  0  0  0  0  0  0  0
   12.4629  -17.3303   19.0333 N   0  0  0  0  0  0  0  0  0  0  0  0
   11.0092  -16.7186   20.8479 C   0  0  0  0  0  0  0  0  0  0  0  0
   11.8941  -15.9539   21.3545 O   0  0  0  0  0  0  0  0  0  0  0  0
    6.6884  -13.3118   20.1709 C   0  0  0  0  0  0  0  0  0  0  0  0
    8.0034  -13.8827   20.5744 C   0  0  0  0  0  0  0  0  0  0  0  0
    8.0019  -14.7277   21.7993 C   0  0  2  0  0  0  0  0  0  0  0  0
    7.6197  -13.8074   22.9677 C   0  0  0  0  0  0  0  0  0  0  0  0
    9.3035  -15.3808   22.1259 C   0  0  2  0  0  0  0  0  0  0  0  0
    9.6664  -16.4185   21.1823 N   0  0  0  0  0  0  0  0  0  0  0  0
    9.4090  -15.8515   23.5294 C   0  0  0  0  0  0  0  0  0  0  0  0
    9.0327  -16.9945   23.8909 O   0  0  0  0  0  0  0  0  0  0  0  0
    9.1919  -15.1547   28.7210 C   0  0  0  0  0  0  0  0  0  0  0  0
   10.5754  -14.6936   28.2433 C   0  0  2  0  0  0  0  0  0  0  0  0
   11.0464  -13.5457   29.0737 C   0  0  0  0  0  0  0  0  0  0  0  0
   10.4290  -14.3633   26.7918 C   0  0  0  0  0  0  0  0  0  0  0  0
   10.0259  -15.5233   25.9330 C   0  0  2  0  0  0  0  0  0  0  0  0
    9.9535  -15.0118   24.5564 N   0  0  0  0  0  0  0  0  0  0  0  0
    8.7377  -16.1309   26.2511 C   0  0  0  0  0  0  0  0  0  0  0  0
    7.6745  -15.5432   25.9650 O   0  0  0  0  0  0  0  0  0  0  0  0
    8.6776  -17.3582   26.8701 O   0  0  0  0  0  0  0  0  0  0  0  0
  2  1  1  1
  3  2  1  0
  4  6  1  0
  4  2  1  0
  4  5  1  6
  6  7  2  0
  8  9  1  0
  9 10  1  0
 10 11  1  1
 12 10  1  0
 12 13  1  6
 13  6  1  0
 14 15  2  0
 14 12  1  0
 17 16  1  1
 17 18  1  0
 17 19  1  0
 20 19  1  1
 20 22  1  0
 20 21  1  0
 21 14  1  0
 22 24  1  0
 23 22  2  0
M  END
$$$$
