TIL.pdb
     RDKit          3D

 24 23  0  0  1  0  0  0  0  0999 V2000
    9.1431  -19.1434   19.8711 C   0  0  0  0  0  0  0  0  0  0  0  0
    9.3276  -18.2011   21.0136 C   0  0  1  0  0  0  0  0  0  0  0  0
   10.5813  -18.3547   21.5893 O   0  0  0  0  0  0  0  0  0  0  0  0
    9.1685  -16.7514   20.6104 C   0  0  2  0  0  0  0  0  0  0  0  0
   10.1740  -16.4009   19.5917 N   0  0  0  0  0  0  0  0  0  0  0  0
    9.2913  -15.8134   21.7496 C   0  0  0  0  0  0  0  0  0  0  0  0
   10.3544  -15.1195   21.8626 O   0  0  0  0  0  0  0  0  0  0  0  0
    6.3682  -12.2473   25.8582 C   0  0  0  0  0  0  0  0  0  0  0  0
    7.5460  -13.0703   25.4664 C   0  0  0  0  0  0  0  0  0  0  0  0
    7.3352  -14.0204   24.3407 C   0  0  2  0  0  0  0  0  0  0  0  0
    6.2599  -15.0154   24.8007 C   0  0  0  0  0  0  0  0  0  0  0  0
    8.5411  -14.7953   23.9251 C   0  0  2  0  0  0  0  0  0  0  0  0
    8.3102  -15.6111   22.7502 N   0  0  0  0  0  0  0  0  0  0  0  0
    9.1673  -15.5746   25.0220 C   0  0  0  0  0  0  0  0  0  0  0  0
    8.8920  -16.7812   25.2388 O   0  0  0  0  0  0  0  0  0  0  0  0
   10.3542  -14.1994   30.6179 C   0  0  0  0  0  0  0  0  0  0  0  0
   10.6157  -15.3220   29.6048 C   0  0  2  0  0  0  0  0  0  0  0  0
   12.0030  -15.8477   29.7713 C   0  0  0  0  0  0  0  0  0  0  0  0
   10.3546  -14.7361   28.2536 C   0  0  0  0  0  0  0  0  0  0  0  0
   10.5276  -15.7002   27.1194 C   0  0  2  0  0  0  0  0  0  0  0  0
   10.1312  -14.9790   25.9010 N   0  0  0  0  0  0  0  0  0  0  0  0
    9.7290  -16.9193   27.1956 C   0  0  0  0  0  0  0  0  0  0  0  0
    8.4846  -16.8556   27.2663 O   0  0  0  0  0  0  0  0  0  0  0  0
   10.3361  -18.1540   27.1907 O   0  0  0  0  0  0  0  0  0  0  0  0
  2  1  1  6
  3  2  1  0
  4  6  1  0
  4  2  1  0
  4  5  1  6
  6  7  2  0
  8  9  1  0
  9 10  1  0
 10 11  1  1
 12 10  1  0
 12 13  1  6
 13  6  1  0
 14 15  2  0
 14 12  1  0
 17 16  1  1
 17 18  1  0
 17 19  1  0
 20 19  1  1
 20 22  1  0
 20 21  1  0
 21 14  1  0
 22 24  1  0
 23 22  2  0
M  END
$$$$
