TIL.pdb
     RDKit          3D

 24 23  0  0  1  0  0  0  0  0999 V2000
    6.3195  -18.8970   23.8784 C   0  0  0  0  0  0  0  0  0  0  0  0
    6.8630  -19.5719   22.6632 C   0  0  1  0  0  0  0  0  0  0  0  0
    6.1606  -20.7358   22.3828 O   0  0  0  0  0  0  0  0  0  0  0  0
    6.8230  -18.6896   21.4346 C   0  0  2  0  0  0  0  0  0  0  0  0
    7.1982  -19.4716   20.2432 N   0  0  0  0  0  0  0  0  0  0  0  0
    7.7130  -17.5105   21.5353 C   0  0  0  0  0  0  0  0  0  0  0  0
    8.9637  -17.6664   21.3462 O   0  0  0  0  0  0  0  0  0  0  0  0
    6.8793  -12.5801   19.3261 C   0  0  0  0  0  0  0  0  0  0  0  0
    7.5481  -13.7793   19.9028 C   0  0  0  0  0  0  0  0  0  0  0  0
    7.6711  -13.8105   21.3855 C   0  0  2  0  0  0  0  0  0  0  0  0
    8.6214  -12.6678   21.7719 C   0  0  0  0  0  0  0  0  0  0  0  0
    8.2115  -15.0799   21.9547 C   0  0  2  0  0  0  0  0  0  0  0  0
    7.2907  -16.1914   21.8293 N   0  0  0  0  0  0  0  0  0  0  0  0
    8.7317  -14.9494   23.3385 C   0  0  0  0  0  0  0  0  0  0  0  0
    9.8395  -14.4167   23.5986 O   0  0  0  0  0  0  0  0  0  0  0  0
    8.5045  -12.2053   26.4983 C   0  0  0  0  0  0  0  0  0  0  0  0
    7.2700  -12.9739   26.0082 C   0  0  2  0  0  0  0  0  0  0  0  0
    6.0259  -12.2976   26.4811 C   0  0  0  0  0  0  0  0  0  0  0  0
    7.4203  -14.3738   26.5133 C   0  0  0  0  0  0  0  0  0  0  0  0
    8.4847  -15.1687   25.8196 C   0  0  2  0  0  0  0  0  0  0  0  0
    7.9839  -15.4325   24.4626 N   0  0  0  0  0  0  0  0  0  0  0  0
    8.8169  -16.4522   26.4296 C   0  0  0  0  0  0  0  0  0  0  0  0
    8.3851  -17.5153   25.9387 O   0  0  0  0  0  0  0  0  0  0  0  0
    9.6097  -16.5079   27.5528 O   0  0  0  0  0  0  0  0  0  0  0  0
  2  1  1  1
  3  2  1  0
  4  6  1  0
  4  2  1  0
  4  5  1  6
  6  7  2  0
  8  9  1  0
  9 10  1  0
 10 11  1  6
 12 10  1  0
 12 13  1  1
 13  6  1  0
 14 15  2  0
 14 12  1  0
 17 16  1  1
 17 18  1  0
 17 19  1  0
 20 19  1  1
 20 22  1  0
 20 21  1  0
 21 14  1  0
 22 24  1  0
 23 22  2  0
M  END
$$$$
