TIL.pdb
     RDKit          3D

 24 23  0  0  1  0  0  0  0  0999 V2000
    6.3120  -18.1390   25.2118 C   0  0  0  0  0  0  0  0  0  0  0  0
    6.2949  -19.0668   24.0429 C   0  0  1  0  0  0  0  0  0  0  0  0
    5.3222  -20.0451   24.1968 O   0  0  0  0  0  0  0  0  0  0  0  0
    6.0435  -18.3544   22.7319 C   0  0  2  0  0  0  0  0  0  0  0  0
    5.9505  -19.3365   21.6371 N   0  0  0  0  0  0  0  0  0  0  0  0
    7.0903  -17.3614   22.3988 C   0  0  0  0  0  0  0  0  0  0  0  0
    8.2381  -17.7774   22.0328 O   0  0  0  0  0  0  0  0  0  0  0  0
    6.7679  -12.8221   19.4345 C   0  0  0  0  0  0  0  0  0  0  0  0
    7.2629  -14.0209   20.1665 C   0  0  0  0  0  0  0  0  0  0  0  0
    7.6923  -13.7975   21.5736 C   0  0  2  0  0  0  0  0  0  0  0  0
    8.9389  -12.9026   21.5159 C   0  0  0  0  0  0  0  0  0  0  0  0
    8.0383  -15.0312   22.3390 C   0  0  2  0  0  0  0  0  0  0  0  0
    6.9284  -15.9557   22.4504 N   0  0  0  0  0  0  0  0  0  0  0  0
    8.6706  -14.7689   23.6558 C   0  0  0  0  0  0  0  0  0  0  0  0
    8.5077  -13.6929   24.2835 O   0  0  0  0  0  0  0  0  0  0  0  0
    8.1792  -14.5216   28.7131 C   0  0  0  0  0  0  0  0  0  0  0  0
    9.4586  -14.8071   27.9152 C   0  0  2  0  0  0  0  0  0  0  0  0
   10.4163  -13.6712   28.0614 C   0  0  0  0  0  0  0  0  0  0  0  0
    9.0268  -15.0494   26.5037 C   0  0  0  0  0  0  0  0  0  0  0  0
   10.1409  -15.4222   25.5733 C   0  0  2  0  0  0  0  0  0  0  0  0
    9.5111  -15.7459   24.2847 N   0  0  0  0  0  0  0  0  0  0  0  0
   10.9470  -16.5701   25.9765 C   0  0  0  0  0  0  0  0  0  0  0  0
   10.4565  -17.7177   25.9754 O   0  0  0  0  0  0  0  0  0  0  0  0
   12.2569  -16.4031   26.3628 O   0  0  0  0  0  0  0  0  0  0  0  0
  2  1  1  1
  3  2  1  0
  4  6  1  0
  4  2  1  0
  4  5  1  6
  6  7  2  0
  8  9  1  0
  9 10  1  0
 10 11  1  6
 12 10  1  0
 12 13  1  1
 13  6  1  0
 14 15  2  0
 14 12  1  0
 17 16  1  1
 17 18  1  0
 17 19  1  0
 20 19  1  1
 20 22  1  0
 20 21  1  0
 21 14  1  0
 22 24  1  0
 23 22  2  0
M  END
$$$$
