TIL.pdb
     RDKit          3D

 24 23  0  0  1  0  0  0  0  0999 V2000
   11.6971  -19.3935   22.2555 C   0  0  0  0  0  0  0  0  0  0  0  0
   12.7517  -18.5485   21.6223 C   0  0  1  0  0  0  0  0  0  0  0  0
   13.4797  -19.2748   20.6899 O   0  0  0  0  0  0  0  0  0  0  0  0
   12.1879  -17.3260   20.9315 C   0  0  2  0  0  0  0  0  0  0  0  0
   13.2828  -16.5279   20.3518 N   0  0  0  0  0  0  0  0  0  0  0  0
   11.3902  -16.4638   21.8331 C   0  0  0  0  0  0  0  0  0  0  0  0
   11.9986  -15.7278   22.6773 O   0  0  0  0  0  0  0  0  0  0  0  0
    6.8738  -13.7329   20.2927 C   0  0  0  0  0  0  0  0  0  0  0  0
    8.1295  -14.1137   20.9972 C   0  0  0  0  0  0  0  0  0  0  0  0
    7.9729  -15.0072   22.1769 C   0  0  2  0  0  0  0  0  0  0  0  0
    7.2512  -14.1877   23.2564 C   0  0  0  0  0  0  0  0  0  0  0  0
    9.2458  -15.5264   22.7579 C   0  0  2  0  0  0  0  0  0  0  0  0
    9.9768  -16.3796   21.8431 N   0  0  0  0  0  0  0  0  0  0  0  0
    9.0892  -16.1566   24.0924 C   0  0  0  0  0  0  0  0  0  0  0  0
    9.0143  -17.4008   24.2496 O   0  0  0  0  0  0  0  0  0  0  0  0
   11.1638  -15.1761   28.3454 C   0  0  0  0  0  0  0  0  0  0  0  0
   10.1491  -14.2058   27.7257 C   0  0  2  0  0  0  0  0  0  0  0  0
   10.0535  -12.9680   28.5549 C   0  0  0  0  0  0  0  0  0  0  0  0
    8.8604  -14.9580   27.6206 C   0  0  0  0  0  0  0  0  0  0  0  0
    8.8600  -16.0384   26.5821 C   0  0  2  0  0  0  0  0  0  0  0  0
    9.0144  -15.3637   25.2849 N   0  0  0  0  0  0  0  0  0  0  0  0
    7.6531  -16.8565   26.5183 C   0  0  0  0  0  0  0  0  0  0  0  0
    6.6682  -16.4781   25.8516 O   0  0  0  0  0  0  0  0  0  0  0  0
    7.5846  -18.0547   27.1913 O   0  0  0  0  0  0  0  0  0  0  0  0
  2  1  1  6
  3  2  1  0
  4  6  1  0
  4  2  1  0
  4  5  1  1
  6  7  2  0
  8  9  1  0
  9 10  1  0
 10 11  1  1
 12 10  1  0
 12 13  1  6
 13  6  1  0
 14 15  2  0
 14 12  1  0
 17 16  1  1
 17 18  1  0
 17 19  1  0
 20 19  1  1
 20 22  1  0
 20 21  1  0
 21 14  1  0
 22 24  1  0
 23 22  2  0
M  END
$$$$
