TIL.pdb
     RDKit          3D

 24 23  0  0  1  0  0  0  0  0999 V2000
    8.4318  -13.3274   20.7626 C   0  0  0  0  0  0  0  0  0  0  0  0
    7.6492  -14.0478   19.7158 C   0  0  1  0  0  0  0  0  0  0  0  0
    8.1726  -13.8131   18.4518 O   0  0  0  0  0  0  0  0  0  0  0  0
    7.6089  -15.5439   19.9389 C   0  0  2  0  0  0  0  0  0  0  0  0
    6.7260  -16.1759   18.9425 N   0  0  0  0  0  0  0  0  0  0  0  0
    7.1479  -15.9181   21.2954 C   0  0  0  0  0  0  0  0  0  0  0  0
    5.9703  -15.5906   21.6565 O   0  0  0  0  0  0  0  0  0  0  0  0
    6.7335  -20.0586   25.6568 C   0  0  0  0  0  0  0  0  0  0  0  0
    6.9035  -18.6166   25.3255 C   0  0  0  0  0  0  0  0  0  0  0  0
    7.3638  -18.3125   23.9434 C   0  0  2  0  0  0  0  0  0  0  0  0
    8.7614  -18.9322   23.7993 C   0  0  0  0  0  0  0  0  0  0  0  0
    7.4595  -16.8615   23.6073 C   0  0  2  0  0  0  0  0  0  0  0  0
    7.9152  -16.6252   22.2524 N   0  0  0  0  0  0  0  0  0  0  0  0
    8.2271  -16.0612   24.5937 C   0  0  0  0  0  0  0  0  0  0  0  0
    9.4670  -15.8803   24.5018 O   0  0  0  0  0  0  0  0  0  0  0  0
    7.8279  -11.8104   25.5826 C   0  0  0  0  0  0  0  0  0  0  0  0
    6.7095  -12.6746   26.1803 C   0  0  2  0  0  0  0  0  0  0  0  0
    5.6523  -11.8034   26.7738 C   0  0  0  0  0  0  0  0  0  0  0  0
    7.3657  -13.5816   27.1724 C   0  0  0  0  0  0  0  0  0  0  0  0
    8.3537  -14.5370   26.5751 C   0  0  2  0  0  0  0  0  0  0  0  0
    7.5807  -15.4466   25.7166 N   0  0  0  0  0  0  0  0  0  0  0  0
    9.1035  -15.3513   27.5263 C   0  0  0  0  0  0  0  0  0  0  0  0
   10.0500  -14.8569   28.1723 O   0  0  0  0  0  0  0  0  0  0  0  0
    8.7777  -16.6734   27.7236 O   0  0  0  0  0  0  0  0  0  0  0  0
  2  1  1  1
  3  2  1  0
  4  6  1  0
  4  2  1  0
  4  5  1  6
  6  7  2  0
  8  9  1  0
  9 10  1  0
 10 11  1  1
 12 10  1  0
 12 13  1  6
 13  6  1  0
 14 15  2  0
 14 12  1  0
 17 16  1  1
 17 18  1  0
 17 19  1  0
 20 19  1  1
 20 22  1  0
 20 21  1  0
 21 14  1  0
 22 24  1  0
 23 22  2  0
M  END
$$$$
