TIL.pdb
     RDKit          3D

 24 23  0  0  1  0  0  0  0  0999 V2000
    7.3133  -21.1680   22.5947 C   0  0  0  0  0  0  0  0  0  0  0  0
    7.8786  -19.7925   22.7208 C   0  0  1  0  0  0  0  0  0  0  0  0
    9.0299  -19.7955   23.4962 O   0  0  0  0  0  0  0  0  0  0  0  0
    8.2134  -19.1707   21.3826 C   0  0  2  0  0  0  0  0  0  0  0  0
    9.1848  -20.0158   20.6657 N   0  0  0  0  0  0  0  0  0  0  0  0
    8.7622  -17.8003   21.4984 C   0  0  0  0  0  0  0  0  0  0  0  0
   10.0241  -17.6355   21.4290 O   0  0  0  0  0  0  0  0  0  0  0  0
    7.5847  -11.8701   20.2711 C   0  0  0  0  0  0  0  0  0  0  0  0
    8.3656  -12.9069   21.0013 C   0  0  0  0  0  0  0  0  0  0  0  0
    7.8087  -14.2866   20.9727 C   0  0  2  0  0  0  0  0  0  0  0  0
    6.3952  -14.2024   21.5669 C   0  0  0  0  0  0  0  0  0  0  0  0
    8.5806  -15.3027   21.7466 C   0  0  2  0  0  0  0  0  0  0  0  0
    7.9934  -16.6257   21.6831 N   0  0  0  0  0  0  0  0  0  0  0  0
    8.8807  -14.9000   23.1431 C   0  0  0  0  0  0  0  0  0  0  0  0
    9.5512  -13.8752   23.4237 O   0  0  0  0  0  0  0  0  0  0  0  0
    8.1243  -12.3735   26.3563 C   0  0  0  0  0  0  0  0  0  0  0  0
    7.0349  -13.2294   25.6964 C   0  0  2  0  0  0  0  0  0  0  0  0
    5.6845  -12.7468   26.1116 C   0  0  0  0  0  0  0  0  0  0  0  0
    7.3147  -14.6438   26.0947 C   0  0  0  0  0  0  0  0  0  0  0  0
    8.6356  -15.1684   25.6196 C   0  0  2  0  0  0  0  0  0  0  0  0
    8.4129  -15.6730   24.2567 N   0  0  0  0  0  0  0  0  0  0  0  0
    9.2080  -16.2542   26.4091 C   0  0  0  0  0  0  0  0  0  0  0  0
    9.2130  -17.4215   25.9674 O   0  0  0  0  0  0  0  0  0  0  0  0
    9.7494  -16.0063   27.6495 O   0  0  0  0  0  0  0  0  0  0  0  0
  2  1  1  6
  3  2  1  0
  4  6  1  0
  4  2  1  0
  4  5  1  1
  6  7  2  0
  8  9  1  0
  9 10  1  0
 10 11  1  1
 12 10  1  0
 12 13  1  1
 13  6  1  0
 14 15  2  0
 14 12  1  0
 17 16  1  1
 17 18  1  0
 17 19  1  0
 20 19  1  1
 20 22  1  0
 20 21  1  0
 21 14  1  0
 22 24  1  0
 23 22  2  0
M  END
$$$$
