TIL.pdb
     RDKit          3D

 24 23  0  0  1  0  0  0  0  0999 V2000
   10.8303  -19.6688   21.7708 C   0  0  0  0  0  0  0  0  0  0  0  0
   11.8341  -19.1155   20.8151 C   0  0  1  0  0  0  0  0  0  0  0  0
   12.2277  -20.0761   19.8935 O   0  0  0  0  0  0  0  0  0  0  0  0
   11.3189  -17.9143   20.0529 C   0  0  2  0  0  0  0  0  0  0  0  0
   12.3623  -17.4140   19.1403 N   0  0  0  0  0  0  0  0  0  0  0  0
   10.8819  -16.8084   20.9353 C   0  0  0  0  0  0  0  0  0  0  0  0
   11.7568  -15.9967   21.3829 O   0  0  0  0  0  0  0  0  0  0  0  0
    6.6925  -13.2416   20.4846 C   0  0  0  0  0  0  0  0  0  0  0  0
    7.9767  -13.8928   20.8653 C   0  0  0  0  0  0  0  0  0  0  0  0
    7.9106  -14.8599   21.9944 C   0  0  2  0  0  0  0  0  0  0  0  0
    7.4742  -14.0618   23.2317 C   0  0  0  0  0  0  0  0  0  0  0  0
    9.1916  -15.5551   22.3153 C   0  0  2  0  0  0  0  0  0  0  0  0
    9.5466  -16.5634   21.3373 N   0  0  0  0  0  0  0  0  0  0  0  0
    9.2633  -16.0826   23.7007 C   0  0  0  0  0  0  0  0  0  0  0  0
    8.9278  -17.2565   23.9970 O   0  0  0  0  0  0  0  0  0  0  0  0
    9.7416  -12.9680   28.0170 C   0  0  0  0  0  0  0  0  0  0  0  0
    9.9970  -14.4791   28.0963 C   0  0  2  0  0  0  0  0  0  0  0  0
   10.6985  -14.8126   29.3712 C   0  0  0  0  0  0  0  0  0  0  0  0
   10.7771  -14.8371   26.8713 C   0  0  0  0  0  0  0  0  0  0  0  0
   10.1522  -15.9117   26.0343 C   0  0  2  0  0  0  0  0  0  0  0  0
    9.7259  -15.2652   24.7844 N   0  0  0  0  0  0  0  0  0  0  0  0
    8.9871  -16.5712   26.6151 C   0  0  0  0  0  0  0  0  0  0  0  0
    9.1309  -17.5236   27.4088 O   0  0  0  0  0  0  0  0  0  0  0  0
    7.7158  -16.1528   26.2961 O   0  0  0  0  0  0  0  0  0  0  0  0
  2  1  1  1
  3  2  1  0
  4  6  1  0
  4  2  1  0
  4  5  1  6
  6  7  2  0
  8  9  1  0
  9 10  1  0
 10 11  1  1
 12 10  1  0
 12 13  1  6
 13  6  1  0
 14 15  2  0
 14 12  1  0
 17 16  1  1
 17 18  1  0
 17 19  1  0
 20 19  1  1
 20 22  1  0
 20 21  1  0
 21 14  1  0
 22 24  1  0
 23 22  2  0
M  END
$$$$
