RAW.pdb
     RDKit          3D

 31 32  0  0  1  0  0  0  0  0999 V2000
    7.5067  -15.3053   16.6953 N   0  0  0  0  0  0  0  0  0  0  0  0
    7.6560  -13.9388   16.2617 C   0  0  0  0  0  0  0  0  0  0  0  0
    8.0155  -13.6731   15.0596 N   0  0  0  0  0  0  0  0  0  0  0  0
    7.4090  -12.8641   17.1564 N   0  0  0  0  0  0  0  0  0  0  0  0
    7.1725  -13.0472   18.5698 C   0  0  0  0  0  0  0  0  0  0  0  0
    6.8623  -14.5253   18.7952 C   0  0  0  0  0  0  0  0  0  0  0  0
    6.5064  -14.7660   20.2599 C   0  0  0  0  0  0  0  0  0  0  0  0
    7.6313  -15.5763   20.8614 C   0  0  2  0  0  0  0  0  0  0  0  0
    7.7502  -16.8067   20.1669 N   0  0  0  0  0  0  0  0  0  0  0  0
    7.5156  -15.7027   22.3228 C   0  0  0  0  0  0  0  0  0  0  0  0
    7.3866  -14.6802   23.0224 O   0  0  0  0  0  0  0  0  0  0  0  0
    8.2002  -12.6998   14.7784 C   0  0  0  0  0  0  0  0  0  0  0  0
    7.0199  -18.4513   24.8890 C   0  0  2  0  0  0  0  0  0  0  0  0
    7.5521  -17.0874   24.4241 N   0  0  0  0  0  0  0  0  0  0  0  0
    7.5434  -16.9783   22.9980 C   0  0  0  0  0  0  0  0  0  0  0  0
    8.9093  -16.9690   25.0185 O   0  0  0  0  0  0  0  0  0  0  0  0
    9.0964  -16.7038   26.2444 N   0  0  0  0  0  0  0  0  0  0  0  0
   10.0890  -17.1471   24.2482 C   0  0  1  0  0  0  0  0  0  0  0  0
   11.2935  -16.3097   24.4357 C   0  0  0  0  0  0  0  0  0  0  0  0
   11.9908  -16.9305   25.6194 C   0  0  0  0  0  0  0  0  0  0  0  0
   11.4520  -16.6348   26.9356 C   0  0  0  0  0  0  0  0  0  0  0  0
   11.2831  -17.5415   27.9633 N   0  0  0  0  0  0  0  0  0  0  0  0
   10.7207  -16.8968   28.9979 C   0  0  0  0  0  0  0  0  0  0  0  0
   10.5163  -15.5986   28.6825 C   0  0  0  0  0  0  0  0  0  0  0  0
    9.9875  -14.5581   29.4184 C   0  0  0  0  0  0  0  0  0  0  0  0
    9.9121  -13.3078   28.8516 C   0  0  0  0  0  0  0  0  0  0  0  0
   10.3511  -13.0774   27.5734 C   0  0  0  0  0  0  0  0  0  0  0  0
   10.8693  -14.1338   26.8720 C   0  0  0  0  0  0  0  0  0  0  0  0
   10.9671  -15.4216   27.4015 C   0  0  0  0  0  0  0  0  0  0  0  0
   12.1611  -16.2951   23.2644 O   0  0  0  0  0  0  0  0  0  0  0  0
   13.2114  -15.6161   23.2350 O   0  0  0  0  0  0  0  0  0  0  0  0
  1  2  1  0
  2  4  1  0
  2  3  2  0
  4  5  1  0
  5  6  1  0
  7  6  1  0
  7  8  1  0
  8 10  1  0
  8  9  1  6
 10 11  2  0
 13 12  1  1
 14 13  1  0
 14 10  1  0
 15 17  1  0
 15 13  1  0
 16 15  2  0
 18 19  1  6
 18 17  1  0
 19 20  1  0
 20 28  1  0
 20 21  2  0
 21 22  1  0
 23 22  1  0
 23 24  2  0
 25 24  1  0
 26 25  2  0
 27 26  1  0
 27 28  2  0
 28 23  1  0
 29 18  1  0
 29 31  1  0
 30 29  2  0
M  END
$$$$
