RAW.pdb
     RDKit          3D

 31 32  0  0  1  0  0  0  0  0999 V2000
   10.0158  -16.7762   14.3185 N   0  0  0  0  0  0  0  0  0  0  0  0
    9.7221  -15.3729   14.4668 C   0  0  0  0  0  0  0  0  0  0  0  0
   10.6714  -14.5146   14.5510 N   0  0  0  0  0  0  0  0  0  0  0  0
    8.3787  -14.9163   14.5232 N   0  0  0  0  0  0  0  0  0  0  0  0
    7.4915  -15.1964   15.6284 C   0  0  0  0  0  0  0  0  0  0  0  0
    8.2373  -14.8486   16.9147 C   0  0  0  0  0  0  0  0  0  0  0  0
    7.3307  -15.0771   18.1212 C   0  0  0  0  0  0  0  0  0  0  0  0
    7.4674  -16.5314   18.5086 C   0  0  2  0  0  0  0  0  0  0  0  0
    6.5477  -17.3077   17.7591 N   0  0  0  0  0  0  0  0  0  0  0  0
    7.4026  -16.7352   19.9643 C   0  0  0  0  0  0  0  0  0  0  0  0
    6.5083  -16.1755   20.6267 O   0  0  0  0  0  0  0  0  0  0  0  0
   10.4563  -13.5189   14.7013 C   0  0  0  0  0  0  0  0  0  0  0  0
    8.1710  -19.2704   22.4354 C   0  0  1  0  0  0  0  0  0  0  0  0
    8.2610  -17.7766   22.0886 N   0  0  0  0  0  0  0  0  0  0  0  0
    8.3417  -17.5692   20.6757 C   0  0  0  0  0  0  0  0  0  0  0  0
    9.4451  -17.2692   22.8300 O   0  0  0  0  0  0  0  0  0  0  0  0
   10.6304  -17.4126   22.4026 N   0  0  0  0  0  0  0  0  0  0  0  0
    9.3243  -16.5873   24.0698 C   0  0  1  0  0  0  0  0  0  0  0  0
   10.4990  -16.2010   24.8811 C   0  0  0  0  0  0  0  0  0  0  0  0
    9.9527  -15.1935   25.8605 C   0  0  0  0  0  0  0  0  0  0  0  0
    8.5142  -14.9918   25.8703 C   0  0  0  0  0  0  0  0  0  0  0  0
    7.5574  -15.9821   25.7660 N   0  0  0  0  0  0  0  0  0  0  0  0
    6.3499  -15.3953   25.7714 C   0  0  0  0  0  0  0  0  0  0  0  0
    6.4838  -14.0545   25.8763 C   0  0  0  0  0  0  0  0  0  0  0  0
    5.5398  -13.0501   25.9374 C   0  0  0  0  0  0  0  0  0  0  0  0
    5.9569  -11.7464   26.0666 C   0  0  0  0  0  0  0  0  0  0  0  0
    7.2886  -11.4279   26.1353 C   0  0  0  0  0  0  0  0  0  0  0  0
    8.1978  -12.4505   26.0706 C   0  0  0  0  0  0  0  0  0  0  0  0
    7.8260  -13.7895   25.9389 C   0  0  0  0  0  0  0  0  0  0  0  0
   11.1048  -17.3312   25.5743 O   0  0  0  0  0  0  0  0  0  0  0  0
   10.5358  -18.4437   25.6363 O   0  0  0  0  0  0  0  0  0  0  0  0
  1  2  1  0
  2  4  1  0
  2  3  2  0
  4  5  1  0
  5  6  1  0
  7  6  1  0
  7  8  1  0
  8 10  1  0
  8  9  1  6
 10 11  2  0
 13 12  1  6
 14 13  1  0
 14 10  1  0
 15 17  1  0
 15 13  1  0
 16 15  2  0
 18 19  1  1
 18 17  1  0
 19 20  1  0
 20 28  1  0
 20 21  2  0
 21 22  1  0
 23 22  1  0
 23 24  2  0
 25 24  1  0
 26 25  2  0
 27 26  1  0
 27 28  2  0
 28 23  1  0
 29 18  1  0
 29 31  1  0
 30 29  2  0
M  END
$$$$
