RAW.pdb
     RDKit          3D

 31 32  0  0  1  0  0  0  0  0999 V2000
    8.8644  -20.0135   25.6347 N   0  0  0  0  0  0  0  0  0  0  0  0
    9.4018  -20.9888   24.7194 C   0  0  0  0  0  0  0  0  0  0  0  0
   10.5623  -21.4974   24.9179 N   0  0  0  0  0  0  0  0  0  0  0  0
    8.6575  -21.4026   23.5831 N   0  0  0  0  0  0  0  0  0  0  0  0
    7.5686  -20.6343   23.0253 C   0  0  0  0  0  0  0  0  0  0  0  0
    8.1054  -19.9027   21.7971 C   0  0  0  0  0  0  0  0  0  0  0  0
    6.9949  -19.0738   21.1571 C   0  0  0  0  0  0  0  0  0  0  0  0
    7.6100  -18.3343   19.9916 C   0  0  2  0  0  0  0  0  0  0  0  0
    8.4800  -19.2044   19.2870 N   0  0  0  0  0  0  0  0  0  0  0  0
    8.2120  -17.0528   20.3919 C   0  0  0  0  0  0  0  0  0  0  0  0
    9.4513  -16.9275   20.3955 O   0  0  0  0  0  0  0  0  0  0  0  0
   10.9184  -22.2328   24.2912 C   0  0  0  0  0  0  0  0  0  0  0  0
    6.9469  -13.5753   21.3674 C   0  0  1  0  0  0  0  0  0  0  0  0
    8.0128  -14.6574   21.1378 N   0  0  0  0  0  0  0  0  0  0  0  0
    7.4213  -15.9114   20.7867 C   0  0  0  0  0  0  0  0  0  0  0  0
    8.8031  -14.7072   22.3957 O   0  0  0  0  0  0  0  0  0  0  0  0
    9.5250  -13.7406   22.7865 N   0  0  0  0  0  0  0  0  0  0  0  0
    8.7996  -15.8455   23.2449 C   0  0  1  0  0  0  0  0  0  0  0  0
    9.6358  -15.9307   24.4617 C   0  0  0  0  0  0  0  0  0  0  0  0
    8.6542  -16.2541   25.5592 C   0  0  0  0  0  0  0  0  0  0  0  0
    7.5686  -15.3133   25.7753 C   0  0  0  0  0  0  0  0  0  0  0  0
    6.2232  -15.5792   25.6142 N   0  0  0  0  0  0  0  0  0  0  0  0
    5.5433  -14.4492   25.8659 C   0  0  0  0  0  0  0  0  0  0  0  0
    6.3981  -13.4528   26.1869 C   0  0  0  0  0  0  0  0  0  0  0  0
    6.1692  -12.1374   26.5347 C   0  0  0  0  0  0  0  0  0  0  0  0
    7.2392  -11.3295   26.8394 C   0  0  0  0  0  0  0  0  0  0  0  0
    8.5243  -11.8058   26.8036 C   0  0  0  0  0  0  0  0  0  0  0  0
    8.7142  -13.1164   26.4532 C   0  0  0  0  0  0  0  0  0  0  0  0
    7.6623  -13.9769   26.1346 C   0  0  0  0  0  0  0  0  0  0  0  0
   10.6715  -16.9521   24.3667 O   0  0  0  0  0  0  0  0  0  0  0  0
   11.4928  -17.1408   25.2914 O   0  0  0  0  0  0  0  0  0  0  0  0
  1  2  1  0
  2  4  1  0
  2  3  2  0
  4  5  1  0
  5  6  1  0
  7  6  1  0
  7  8  1  0
  8 10  1  0
  8  9  1  1
 10 11  2  0
 13 12  1  6
 14 13  1  0
 14 10  1  0
 15 17  1  0
 15 13  1  0
 16 15  2  0
 18 19  1  1
 18 17  1  0
 19 20  1  0
 20 28  1  0
 20 21  2  0
 21 22  1  0
 23 22  1  0
 23 24  2  0
 25 24  1  0
 26 25  2  0
 27 26  1  0
 27 28  2  0
 28 23  1  0
 29 18  1  0
 29 31  1  0
 30 29  2  0
M  END
$$$$
