RAW.pdb
     RDKit          3D

 31 32  0  0  1  0  0  0  0  0999 V2000
    8.2907  -12.4519   19.3170 N   0  0  0  0  0  0  0  0  0  0  0  0
    7.6776  -13.4228   18.4456 C   0  0  0  0  0  0  0  0  0  0  0  0
    7.6830  -13.2516   17.1746 N   0  0  0  0  0  0  0  0  0  0  0  0
    7.0570  -14.5837   18.9781 N   0  0  0  0  0  0  0  0  0  0  0  0
    7.6664  -15.4155   19.9900 C   0  0  0  0  0  0  0  0  0  0  0  0
    6.6597  -16.5038   20.3562 C   0  0  0  0  0  0  0  0  0  0  0  0
    7.2282  -17.3891   21.4622 C   0  0  0  0  0  0  0  0  0  0  0  0
    8.4423  -18.0852   20.8919 C   0  0  2  0  0  0  0  0  0  0  0  0
    8.0881  -19.3979   20.4899 N   0  0  0  0  0  0  0  0  0  0  0  0
    9.6077  -18.0085   21.7868 C   0  0  0  0  0  0  0  0  0  0  0  0
    9.9550  -19.0136   22.4355 O   0  0  0  0  0  0  0  0  0  0  0  0
    7.3063  -13.9812   16.5531 C   0  0  0  0  0  0  0  0  0  0  0  0
   12.3680  -15.4833   22.5374 C   0  0  2  0  0  0  0  0  0  0  0  0
   11.5311  -16.7435   22.8041 N   0  0  0  0  0  0  0  0  0  0  0  0
   10.3842  -16.8027   21.9515 C   0  0  0  0  0  0  0  0  0  0  0  0
   11.1915  -16.6939   24.2503 O   0  0  0  0  0  0  0  0  0  0  0  0
   12.0704  -16.5479   25.1528 N   0  0  0  0  0  0  0  0  0  0  0  0
    9.8547  -16.8066   24.7162 C   0  0  1  0  0  0  0  0  0  0  0  0
    9.4907  -16.6184   26.1373 C   0  0  0  0  0  0  0  0  0  0  0  0
    8.0651  -16.1307   26.0891 C   0  0  0  0  0  0  0  0  0  0  0  0
    7.7856  -14.9837   25.2425 C   0  0  0  0  0  0  0  0  0  0  0  0
    7.9321  -14.9359   23.8703 N   0  0  0  0  0  0  0  0  0  0  0  0
    7.6166  -13.6966   23.4618 C   0  0  0  0  0  0  0  0  0  0  0  0
    7.2680  -12.9317   24.5200 C   0  0  0  0  0  0  0  0  0  0  0  0
    6.8571  -11.6166   24.5933 C   0  0  0  0  0  0  0  0  0  0  0  0
    6.5376  -11.0823   25.8191 C   0  0  0  0  0  0  0  0  0  0  0  0
    6.6199  -11.8300   26.9654 C   0  0  0  0  0  0  0  0  0  0  0  0
    7.0325  -13.1316   26.8551 C   0  0  0  0  0  0  0  0  0  0  0  0
    7.3686  -13.7204   25.6351 C   0  0  0  0  0  0  0  0  0  0  0  0
    9.5992  -17.8454   26.9169 O   0  0  0  0  0  0  0  0  0  0  0  0
    9.9165  -18.9331   26.3865 O   0  0  0  0  0  0  0  0  0  0  0  0
  1  2  1  0
  2  4  1  0
  2  3  2  0
  4  5  1  0
  5  6  1  0
  7  6  1  0
  7  8  1  0
  8 10  1  0
  8  9  1  1
 10 11  2  0
 13 12  1  6
 14 13  1  0
 14 10  1  0
 15 17  1  0
 15 13  1  0
 16 15  2  0
 18 19  1  1
 18 17  1  0
 19 20  1  0
 20 28  1  0
 20 21  2  0
 21 22  1  0
 23 22  1  0
 23 24  2  0
 25 24  1  0
 26 25  2  0
 27 26  1  0
 27 28  2  0
 28 23  1  0
 29 18  1  0
 29 31  1  0
 30 29  2  0
M  END
$$$$
