RAW.pdb
     RDKit          3D

 31 32  0  0  1  0  0  0  0  0999 V2000
   15.5680  -15.0054   17.9084 N   0  0  0  0  0  0  0  0  0  0  0  0
   14.4688  -14.3499   18.5716 C   0  0  0  0  0  0  0  0  0  0  0  0
   14.4426  -14.2566   19.8505 N   0  0  0  0  0  0  0  0  0  0  0  0
   13.3967  -13.7973   17.8222 N   0  0  0  0  0  0  0  0  0  0  0  0
   12.2885  -13.0927   18.4241 C   0  0  0  0  0  0  0  0  0  0  0  0
   11.3910  -14.1332   19.0903 C   0  0  0  0  0  0  0  0  0  0  0  0
   10.1766  -13.4512   19.7149 C   0  0  0  0  0  0  0  0  0  0  0  0
    8.9563  -14.2196   19.2632 C   0  0  2  0  0  0  0  0  0  0  0  0
    8.1306  -13.3750   18.4789 N   0  0  0  0  0  0  0  0  0  0  0  0
    8.2689  -14.8908   20.3776 C   0  0  0  0  0  0  0  0  0  0  0  0
    7.6964  -14.2099   21.2495 O   0  0  0  0  0  0  0  0  0  0  0  0
   13.6661  -13.7672   20.3173 C   0  0  0  0  0  0  0  0  0  0  0  0
    7.8375  -18.4938   21.5966 C   0  0  1  0  0  0  0  0  0  0  0  0
    7.9422  -16.9697   21.7580 N   0  0  0  0  0  0  0  0  0  0  0  0
    8.2232  -16.3274   20.5113 C   0  0  0  0  0  0  0  0  0  0  0  0
    8.9934  -16.7523   22.7861 O   0  0  0  0  0  0  0  0  0  0  0  0
   10.2230  -16.6500   22.4934 N   0  0  0  0  0  0  0  0  0  0  0  0
    8.6865  -16.6437   24.1684 C   0  0  1  0  0  0  0  0  0  0  0  0
    9.7324  -16.6090   25.2135 C   0  0  0  0  0  0  0  0  0  0  0  0
    9.5961  -15.2370   25.8230 C   0  0  0  0  0  0  0  0  0  0  0  0
    8.2512  -14.7084   25.9710 C   0  0  0  0  0  0  0  0  0  0  0  0
    7.0878  -15.4519   25.9967 N   0  0  0  0  0  0  0  0  0  0  0  0
    6.0540  -14.6021   26.1042 C   0  0  0  0  0  0  0  0  0  0  0  0
    6.5013  -13.3276   26.1502 C   0  0  0  0  0  0  0  0  0  0  0  0
    5.8239  -12.1318   26.2726 C   0  0  0  0  0  0  0  0  0  0  0  0
    6.5393  -10.9585   26.3156 C   0  0  0  0  0  0  0  0  0  0  0  0
    7.9082  -10.9556   26.2391 C   0  0  0  0  0  0  0  0  0  0  0  0
    8.5473  -12.1611   26.1172 C   0  0  0  0  0  0  0  0  0  0  0  0
    7.8674  -13.3791   26.0685 C   0  0  0  0  0  0  0  0  0  0  0  0
    9.5617  -17.6494   26.2202 O   0  0  0  0  0  0  0  0  0  0  0  0
    8.5321  -18.3588   26.2617 O   0  0  0  0  0  0  0  0  0  0  0  0
  1  2  1  0
  2  4  1  0
  2  3  2  0
  4  5  1  0
  5  6  1  0
  7  6  1  0
  7  8  1  0
  8 10  1  0
  8  9  1  1
 10 11  2  0
 13 12  1  6
 14 13  1  0
 14 10  1  0
 15 17  1  0
 15 13  1  0
 16 15  2  0
 18 19  1  1
 18 17  1  0
 19 20  1  0
 20 28  1  0
 20 21  2  0
 21 22  1  0
 23 22  1  0
 23 24  2  0
 25 24  1  0
 26 25  2  0
 27 26  1  0
 27 28  2  0
 28 23  1  0
 29 18  1  0
 29 31  1  0
 30 29  2  0
M  END
$$$$
