RAW.pdb
     RDKit          3D

 31 32  0  0  1  0  0  0  0  0999 V2000
    7.4680  -11.7758   20.1045 N   0  0  0  0  0  0  0  0  0  0  0  0
    7.7077  -12.5798   18.9324 C   0  0  0  0  0  0  0  0  0  0  0  0
    7.7075  -12.0464   17.7660 N   0  0  0  0  0  0  0  0  0  0  0  0
    7.9473  -13.9747   19.0479 N   0  0  0  0  0  0  0  0  0  0  0  0
    8.4990  -14.5893   20.2333 C   0  0  0  0  0  0  0  0  0  0  0  0
    8.1809  -16.0814   20.1666 C   0  0  0  0  0  0  0  0  0  0  0  0
    7.3228  -16.4856   21.3626 C   0  0  0  0  0  0  0  0  0  0  0  0
    7.5456  -17.9631   21.5881 C   0  0  2  0  0  0  0  0  0  0  0  0
    6.3883  -18.6805   21.1929 N   0  0  0  0  0  0  0  0  0  0  0  0
    8.0195  -18.2602   22.9490 C   0  0  0  0  0  0  0  0  0  0  0  0
    7.2223  -18.2104   23.9048 O   0  0  0  0  0  0  0  0  0  0  0  0
    8.0356  -12.5844   16.9516 C   0  0  0  0  0  0  0  0  0  0  0  0
   11.2247  -19.5104   24.5953 C   0  0  1  0  0  0  0  0  0  0  0  0
    9.8693  -18.7878   24.5720 N   0  0  0  0  0  0  0  0  0  0  0  0
    9.3891  -18.6147   23.2358 C   0  0  0  0  0  0  0  0  0  0  0  0
   10.0920  -17.5064   25.2915 O   0  0  0  0  0  0  0  0  0  0  0  0
   10.5991  -16.4883   24.7307 N   0  0  0  0  0  0  0  0  0  0  0  0
    9.7487  -17.3391   26.6594 C   0  0  1  0  0  0  0  0  0  0  0  0
   10.1688  -16.1584   27.4447 C   0  0  0  0  0  0  0  0  0  0  0  0
    8.8711  -15.5357   27.8929 C   0  0  0  0  0  0  0  0  0  0  0  0
    8.0248  -14.9555   26.8647 C   0  0  0  0  0  0  0  0  0  0  0  0
    7.0531  -15.6223   26.1449 N   0  0  0  0  0  0  0  0  0  0  0  0
    6.5224  -14.7589   25.2644 C   0  0  0  0  0  0  0  0  0  0  0  0
    7.1134  -13.5493   25.3838 C   0  0  0  0  0  0  0  0  0  0  0  0
    6.8949  -12.3624   24.7151 C   0  0  0  0  0  0  0  0  0  0  0  0
    7.6369  -11.2560   25.0551 C   0  0  0  0  0  0  0  0  0  0  0  0
    8.5863  -11.3110   26.0427 C   0  0  0  0  0  0  0  0  0  0  0  0
    8.7769  -12.5059   26.6847 C   0  0  0  0  0  0  0  0  0  0  0  0
    8.0506  -13.6574   26.3766 C   0  0  0  0  0  0  0  0  0  0  0  0
   11.0055  -16.5063   28.5865 O   0  0  0  0  0  0  0  0  0  0  0  0
   11.4676  -15.6307   29.3515 O   0  0  0  0  0  0  0  0  0  0  0  0
  1  2  1  0
  2  4  1  0
  2  3  2  0
  4  5  1  0
  5  6  1  0
  7  6  1  0
  7  8  1  0
  8 10  1  0
  8  9  1  1
 10 11  2  0
 13 12  1  1
 14 13  1  0
 14 10  1  0
 15 17  1  0
 15 13  1  0
 16 15  2  0
 18 19  1  1
 18 17  1  0
 19 20  1  0
 20 28  1  0
 20 21  2  0
 21 22  1  0
 23 22  1  0
 23 24  2  0
 25 24  1  0
 26 25  2  0
 27 26  1  0
 27 28  2  0
 28 23  1  0
 29 18  1  0
 29 31  1  0
 30 29  2  0
M  END
$$$$
