RAW.pdb
     RDKit          3D

 31 32  0  0  1  0  0  0  0  0999 V2000
    8.3341  -14.5195   16.4394 N   0  0  0  0  0  0  0  0  0  0  0  0
    7.8241  -14.0184   17.6910 C   0  0  0  0  0  0  0  0  0  0  0  0
    6.8227  -13.2173   17.7117 N   0  0  0  0  0  0  0  0  0  0  0  0
    8.4208  -14.4013   18.9213 N   0  0  0  0  0  0  0  0  0  0  0  0
    8.9924  -15.7077   19.1529 C   0  0  0  0  0  0  0  0  0  0  0  0
    7.8491  -16.7197   19.1266 C   0  0  0  0  0  0  0  0  0  0  0  0
    8.4080  -18.1393   19.1753 C   0  0  0  0  0  0  0  0  0  0  0  0
    8.4658  -18.5426   20.6305 C   0  0  2  0  0  0  0  0  0  0  0  0
    7.3451  -18.0064   21.3137 N   0  0  0  0  0  0  0  0  0  0  0  0
    9.7665  -18.2393   21.2480 C   0  0  0  0  0  0  0  0  0  0  0  0
   10.8081  -18.3353   20.5717 O   0  0  0  0  0  0  0  0  0  0  0  0
    6.4722  -12.8510   18.6080 C   0  0  0  0  0  0  0  0  0  0  0  0
   10.1973  -15.4123   22.3068 C   0  0  1  0  0  0  0  0  0  0  0  0
   10.6756  -16.6908   23.0115 N   0  0  0  0  0  0  0  0  0  0  0  0
    9.8966  -17.8265   22.6251 C   0  0  0  0  0  0  0  0  0  0  0  0
   10.6042  -16.3912   24.4656 O   0  0  0  0  0  0  0  0  0  0  0  0
   11.2963  -15.4778   25.0086 N   0  0  0  0  0  0  0  0  0  0  0  0
    9.7518  -17.1114   25.3439 C   0  0  1  0  0  0  0  0  0  0  0  0
    9.8471  -16.9953   26.8152 C   0  0  0  0  0  0  0  0  0  0  0  0
    8.4301  -16.7266   27.2542 C   0  0  0  0  0  0  0  0  0  0  0  0
    7.6438  -15.8196   26.4360 C   0  0  0  0  0  0  0  0  0  0  0  0
    6.7715  -16.1868   25.4304 N   0  0  0  0  0  0  0  0  0  0  0  0
    6.2724  -15.0667   24.8840 C   0  0  0  0  0  0  0  0  0  0  0  0
    6.7880  -13.9788   25.4981 C   0  0  0  0  0  0  0  0  0  0  0  0
    6.5651  -12.6321   25.2970 C   0  0  0  0  0  0  0  0  0  0  0  0
    7.2178  -11.7195   26.0916 C   0  0  0  0  0  0  0  0  0  0  0  0
    8.0828  -12.1222   27.0761 C   0  0  0  0  0  0  0  0  0  0  0  0
    8.2807  -13.4669   27.2468 C   0  0  0  0  0  0  0  0  0  0  0  0
    7.6432  -14.4329   26.4666 C   0  0  0  0  0  0  0  0  0  0  0  0
   10.3718  -18.2004   27.4456 O   0  0  0  0  0  0  0  0  0  0  0  0
   10.6154  -19.2336   26.7835 O   0  0  0  0  0  0  0  0  0  0  0  0
  1  2  1  0
  2  4  1  0
  2  3  2  0
  4  5  1  0
  5  6  1  0
  7  6  1  0
  7  8  1  0
  8 10  1  0
  8  9  1  1
 10 11  2  0
 13 12  1  6
 14 13  1  0
 14 10  1  0
 15 17  1  0
 15 13  1  0
 16 15  2  0
 18 19  1  1
 18 17  1  0
 19 20  1  0
 20 28  1  0
 20 21  2  0
 21 22  1  0
 23 22  1  0
 23 24  2  0
 25 24  1  0
 26 25  2  0
 27 26  1  0
 27 28  2  0
 28 23  1  0
 29 18  1  0
 29 31  1  0
 30 29  2  0
M  END
$$$$
