RAW.pdb
     RDKit          3D

 31 32  0  0  1  0  0  0  0  0999 V2000
    6.8227  -20.9575   16.6412 N   0  0  0  0  0  0  0  0  0  0  0  0
    6.8444  -19.9362   15.6243 C   0  0  0  0  0  0  0  0  0  0  0  0
    5.7642  -19.5915   15.0250 N   0  0  0  0  0  0  0  0  0  0  0  0
    8.0603  -19.2951   15.2678 N   0  0  0  0  0  0  0  0  0  0  0  0
    9.2852  -19.4434   16.0193 C   0  0  0  0  0  0  0  0  0  0  0  0
    8.9190  -19.4232   17.5017 C   0  0  0  0  0  0  0  0  0  0  0  0
    9.4783  -18.1646   18.1599 C   0  0  0  0  0  0  0  0  0  0  0  0
    9.0053  -18.1681   19.5951 C   0  0  2  0  0  0  0  0  0  0  0  0
    7.7338  -18.7908   19.6714 N   0  0  0  0  0  0  0  0  0  0  0  0
    9.0767  -16.8356   20.2150 C   0  0  0  0  0  0  0  0  0  0  0  0
   10.1674  -16.2361   20.2656 O   0  0  0  0  0  0  0  0  0  0  0  0
    5.7988  -18.9288   14.2376 C   0  0  0  0  0  0  0  0  0  0  0  0
    6.5818  -14.2704   21.5462 C   0  0  2  0  0  0  0  0  0  0  0  0
    7.9846  -14.8507   21.3112 N   0  0  0  0  0  0  0  0  0  0  0  0
    7.9222  -16.1760   20.7768 C   0  0  0  0  0  0  0  0  0  0  0  0
    8.6695  -14.7753   22.6282 O   0  0  0  0  0  0  0  0  0  0  0  0
    8.9482  -13.6731   23.1901 N   0  0  0  0  0  0  0  0  0  0  0  0
    9.0566  -15.9382   23.3456 C   0  0  1  0  0  0  0  0  0  0  0  0
    9.8925  -15.8778   24.5642 C   0  0  0  0  0  0  0  0  0  0  0  0
    8.9328  -16.1941   25.6829 C   0  0  0  0  0  0  0  0  0  0  0  0
    7.8553  -15.2488   25.9186 C   0  0  0  0  0  0  0  0  0  0  0  0
    6.5056  -15.5405   25.9053 N   0  0  0  0  0  0  0  0  0  0  0  0
    5.8319  -14.3997   26.1228 C   0  0  0  0  0  0  0  0  0  0  0  0
    6.6949  -13.3713   26.2786 C   0  0  0  0  0  0  0  0  0  0  0  0
    6.4758  -12.0333   26.5342 C   0  0  0  0  0  0  0  0  0  0  0  0
    7.5548  -11.1921   26.6697 C   0  0  0  0  0  0  0  0  0  0  0  0
    8.8395  -11.6573   26.5556 C   0  0  0  0  0  0  0  0  0  0  0  0
    9.0194  -12.9911   26.3006 C   0  0  0  0  0  0  0  0  0  0  0  0
    7.9580  -13.8858   26.1540 C   0  0  0  0  0  0  0  0  0  0  0  0
   10.9996  -16.8257   24.5391 O   0  0  0  0  0  0  0  0  0  0  0  0
   11.1591  -17.6223   23.5877 O   0  0  0  0  0  0  0  0  0  0  0  0
  1  2  1  0
  2  4  1  0
  2  3  2  0
  4  5  1  0
  5  6  1  0
  7  6  1  0
  7  8  1  0
  8 10  1  0
  8  9  1  6
 10 11  2  0
 13 12  1  6
 14 13  1  0
 14 10  1  0
 15 17  1  0
 15 13  1  0
 16 15  2  0
 18 19  1  1
 18 17  1  0
 19 20  1  0
 20 28  1  0
 20 21  2  0
 21 22  1  0
 23 22  1  0
 23 24  2  0
 25 24  1  0
 26 25  2  0
 27 26  1  0
 27 28  2  0
 28 23  1  0
 29 18  1  0
 29 31  1  0
 30 29  2  0
M  END
$$$$
