RAW.pdb
     RDKit          3D

 31 32  0  0  1  0  0  0  0  0999 V2000
    9.6162  -15.3258   15.8662 N   0  0  0  0  0  0  0  0  0  0  0  0
    8.4411  -14.5154   15.6660 C   0  0  0  0  0  0  0  0  0  0  0  0
    8.4765  -13.4997   14.8836 N   0  0  0  0  0  0  0  0  0  0  0  0
    7.2254  -14.8260   16.3309 N   0  0  0  0  0  0  0  0  0  0  0  0
    6.7156  -14.0651   17.4481 C   0  0  0  0  0  0  0  0  0  0  0  0
    7.9121  -13.4370   18.1593 C   0  0  0  0  0  0  0  0  0  0  0  0
    7.8077  -13.6738   19.6636 C   0  0  0  0  0  0  0  0  0  0  0  0
    9.1234  -14.2679   20.1106 C   0  0  2  0  0  0  0  0  0  0  0  0
    9.8010  -14.8106   18.9897 N   0  0  0  0  0  0  0  0  0  0  0  0
    8.9675  -15.1937   21.2436 C   0  0  0  0  0  0  0  0  0  0  0  0
    8.0453  -15.0175   22.0622 O   0  0  0  0  0  0  0  0  0  0  0  0
    7.6631  -12.8722   14.8141 C   0  0  0  0  0  0  0  0  0  0  0  0
   10.5607  -18.4657   22.4045 C   0  0  2  0  0  0  0  0  0  0  0  0
    9.6974  -17.2056   22.5678 N   0  0  0  0  0  0  0  0  0  0  0  0
    9.8470  -16.3184   21.4559 C   0  0  0  0  0  0  0  0  0  0  0  0
   10.1130  -16.6066   23.8631 O   0  0  0  0  0  0  0  0  0  0  0  0
   11.0260  -15.7306   23.9478 N   0  0  0  0  0  0  0  0  0  0  0  0
    9.5108  -16.9781   25.0944 C   0  0  1  0  0  0  0  0  0  0  0  0
    9.9659  -16.4403   26.3948 C   0  0  0  0  0  0  0  0  0  0  0  0
    8.6960  -16.2865   27.1925 C   0  0  0  0  0  0  0  0  0  0  0  0
    7.6780  -15.4016   26.6532 C   0  0  0  0  0  0  0  0  0  0  0  0
    6.4931  -15.7956   26.0637 N   0  0  0  0  0  0  0  0  0  0  0  0
    5.8447  -14.6927   25.6567 C   0  0  0  0  0  0  0  0  0  0  0  0
    6.5649  -13.5900   25.9604 C   0  0  0  0  0  0  0  0  0  0  0  0
    6.3033  -12.2507   25.7571 C   0  0  0  0  0  0  0  0  0  0  0  0
    7.2146  -11.3171   26.1911 C   0  0  0  0  0  0  0  0  0  0  0  0
    8.3740  -11.6920   26.8195 C   0  0  0  0  0  0  0  0  0  0  0  0
    8.6012  -13.0303   27.0036 C   0  0  0  0  0  0  0  0  0  0  0  0
    7.7085  -14.0168   26.5813 C   0  0  0  0  0  0  0  0  0  0  0  0
   10.9081  -17.3216   27.0735 O   0  0  0  0  0  0  0  0  0  0  0  0
   11.1998  -18.4480   26.6139 O   0  0  0  0  0  0  0  0  0  0  0  0
  1  2  1  0
  2  4  1  0
  2  3  2  0
  4  5  1  0
  5  6  1  0
  7  6  1  0
  7  8  1  0
  8 10  1  0
  8  9  1  6
 10 11  2  0
 13 12  1  6
 14 13  1  0
 14 10  1  0
 15 17  1  0
 15 13  1  0
 16 15  2  0
 18 19  1  1
 18 17  1  0
 19 20  1  0
 20 28  1  0
 20 21  2  0
 21 22  1  0
 23 22  1  0
 23 24  2  0
 25 24  1  0
 26 25  2  0
 27 26  1  0
 27 28  2  0
 28 23  1  0
 29 18  1  0
 29 31  1  0
 30 29  2  0
M  END
$$$$
