RAW.pdb
     RDKit          3D

 31 32  0  0  1  0  0  0  0  0999 V2000
    8.8195  -12.8429   18.5816 N   0  0  0  0  0  0  0  0  0  0  0  0
    7.5296  -13.1724   19.1342 C   0  0  0  0  0  0  0  0  0  0  0  0
    6.4775  -12.5492   18.7475 N   0  0  0  0  0  0  0  0  0  0  0  0
    7.4011  -14.1907   20.1156 N   0  0  0  0  0  0  0  0  0  0  0  0
    7.5152  -13.9439   21.5344 C   0  0  0  0  0  0  0  0  0  0  0  0
    8.6871  -14.7752   22.0517 C   0  0  0  0  0  0  0  0  0  0  0  0
    8.1688  -15.9502   22.8767 C   0  0  0  0  0  0  0  0  0  0  0  0
    8.9939  -17.1573   22.4948 C   0  0  2  0  0  0  0  0  0  0  0  0
    8.1385  -18.1801   22.0126 N   0  0  0  0  0  0  0  0  0  0  0  0
    9.9102  -17.5756   23.5674 C   0  0  0  0  0  0  0  0  0  0  0  0
    9.5420  -18.4302   24.3954 O   0  0  0  0  0  0  0  0  0  0  0  0
    5.5545  -12.8118   19.1212 C   0  0  0  0  0  0  0  0  0  0  0  0
   13.6480  -17.2169   24.1483 C   0  0  1  0  0  0  0  0  0  0  0  0
   12.2270  -17.6418   24.5483 N   0  0  0  0  0  0  0  0  0  0  0  0
   11.2411  -17.0347   23.7086 C   0  0  0  0  0  0  0  0  0  0  0  0
   12.0925  -17.2722   25.9817 O   0  0  0  0  0  0  0  0  0  0  0  0
   12.8804  -17.7071   26.8751 N   0  0  0  0  0  0  0  0  0  0  0  0
   11.0688  -16.4036   26.4445 C   0  0  1  0  0  0  0  0  0  0  0  0
   10.9644  -15.9819   27.8582 C   0  0  0  0  0  0  0  0  0  0  0  0
   10.0210  -14.8066   27.8215 C   0  0  0  0  0  0  0  0  0  0  0  0
    8.7690  -14.9842   27.1065 C   0  0  0  0  0  0  0  0  0  0  0  0
    7.8382  -15.9775   27.3389 N   0  0  0  0  0  0  0  0  0  0  0  0
    6.8433  -15.8308   26.4495 C   0  0  0  0  0  0  0  0  0  0  0  0
    7.0910  -14.7748   25.6431 C   0  0  0  0  0  0  0  0  0  0  0  0
    6.3594  -14.2334   24.6062 C   0  0  0  0  0  0  0  0  0  0  0  0
    6.8422  -13.1232   23.9545 C   0  0  0  0  0  0  0  0  0  0  0  0
    8.0329  -12.5471   24.3152 C   0  0  0  0  0  0  0  0  0  0  0  0
    8.7328  -13.1118   25.3484 C   0  0  0  0  0  0  0  0  0  0  0  0
    8.2866  -14.2384   26.0412 C   0  0  0  0  0  0  0  0  0  0  0  0
   10.4556  -17.0358   28.7273 O   0  0  0  0  0  0  0  0  0  0  0  0
    9.9750  -18.0935   28.2630 O   0  0  0  0  0  0  0  0  0  0  0  0
  1  2  1  0
  2  4  1  0
  2  3  2  0
  4  5  1  0
  5  6  1  0
  7  6  1  0
  7  8  1  0
  8 10  1  0
  8  9  1  1
 10 11  2  0
 13 12  1  6
 14 13  1  0
 14 10  1  0
 15 17  1  0
 15 13  1  0
 16 15  2  0
 18 19  1  1
 18 17  1  0
 19 20  1  0
 20 28  1  0
 20 21  2  0
 21 22  1  0
 23 22  1  0
 23 24  2  0
 25 24  1  0
 26 25  2  0
 27 26  1  0
 27 28  2  0
 28 23  1  0
 29 18  1  0
 29 31  1  0
 30 29  2  0
M  END
$$$$
