RAW.pdb
     RDKit          3D

 31 32  0  0  1  0  0  0  0  0999 V2000
    7.6449  -14.2272   17.4601 N   0  0  0  0  0  0  0  0  0  0  0  0
    7.9482  -13.3183   18.5370 C   0  0  0  0  0  0  0  0  0  0  0  0
    8.6357  -12.2578   18.3194 N   0  0  0  0  0  0  0  0  0  0  0  0
    7.4925  -13.5809   19.8560 N   0  0  0  0  0  0  0  0  0  0  0  0
    7.9785  -14.6790   20.6592 C   0  0  0  0  0  0  0  0  0  0  0  0
    7.3344  -15.9570   20.1265 C   0  0  0  0  0  0  0  0  0  0  0  0
    7.7719  -17.1520   20.9695 C   0  0  0  0  0  0  0  0  0  0  0  0
    8.9577  -17.7761   20.2710 C   0  0  2  0  0  0  0  0  0  0  0  0
    8.5138  -18.8436   19.4503 N   0  0  0  0  0  0  0  0  0  0  0  0
   10.0410  -18.1255   21.2034 C   0  0  0  0  0  0  0  0  0  0  0  0
    9.8490  -18.9945   22.0749 O   0  0  0  0  0  0  0  0  0  0  0  0
    8.8731  -11.6268   19.0978 C   0  0  0  0  0  0  0  0  0  0  0  0
   13.6928  -17.1139   21.7382 C   0  0  1  0  0  0  0  0  0  0  0  0
   12.3667  -17.7959   22.1071 N   0  0  0  0  0  0  0  0  0  0  0  0
   11.3409  -17.4994   21.1556 C   0  0  0  0  0  0  0  0  0  0  0  0
   12.0512  -17.3290   23.4825 O   0  0  0  0  0  0  0  0  0  0  0  0
   12.8346  -17.5144   24.4624 N   0  0  0  0  0  0  0  0  0  0  0  0
   10.8470  -16.6413   23.7886 C   0  0  1  0  0  0  0  0  0  0  0  0
   10.5387  -16.1469   25.1480 C   0  0  0  0  0  0  0  0  0  0  0  0
    9.5093  -15.0691   24.9213 C   0  0  0  0  0  0  0  0  0  0  0  0
    8.8739  -14.5019   26.0981 C   0  0  0  0  0  0  0  0  0  0  0  0
    9.1447  -14.8441   27.4082 N   0  0  0  0  0  0  0  0  0  0  0  0
    8.3257  -14.1345   28.2007 C   0  0  0  0  0  0  0  0  0  0  0  0
    7.5283  -13.3390   27.4538 C   0  0  0  0  0  0  0  0  0  0  0  0
    6.5535  -12.4328   27.8173 C   0  0  0  0  0  0  0  0  0  0  0  0
    5.8962  -11.7273   26.8372 C   0  0  0  0  0  0  0  0  0  0  0  0
    6.1909  -11.9077   25.5104 C   0  0  0  0  0  0  0  0  0  0  0  0
    7.1636  -12.8162   25.1862 C   0  0  0  0  0  0  0  0  0  0  0  0
    7.8590  -13.5575   26.1429 C   0  0  0  0  0  0  0  0  0  0  0  0
   10.0218  -17.1894   26.0260 O   0  0  0  0  0  0  0  0  0  0  0  0
   10.1340  -17.1141   27.2698 O   0  0  0  0  0  0  0  0  0  0  0  0
  1  2  1  0
  2  4  1  0
  2  3  2  0
  4  5  1  0
  5  6  1  0
  7  6  1  0
  7  8  1  0
  8 10  1  0
  8  9  1  1
 10 11  2  0
 13 12  1  6
 14 13  1  0
 14 10  1  0
 15 17  1  0
 15 13  1  0
 16 15  2  0
 18 19  1  1
 18 17  1  0
 19 20  1  0
 20 28  1  0
 20 21  2  0
 21 22  1  0
 23 22  1  0
 23 24  2  0
 25 24  1  0
 26 25  2  0
 27 26  1  0
 27 28  2  0
 28 23  1  0
 29 18  1  0
 29 31  1  0
 30 29  2  0
M  END
$$$$
