RAW.pdb
     RDKit          3D

 31 32  0  0  1  0  0  0  0  0999 V2000
    9.3557  -14.8010   14.9015 N   0  0  0  0  0  0  0  0  0  0  0  0
    8.0929  -14.4208   15.4834 C   0  0  0  0  0  0  0  0  0  0  0  0
    7.5555  -13.2932   15.1925 N   0  0  0  0  0  0  0  0  0  0  0  0
    7.4228  -15.2862   16.3882 N   0  0  0  0  0  0  0  0  0  0  0  0
    8.1071  -16.2540   17.2140 C   0  0  0  0  0  0  0  0  0  0  0  0
    9.1579  -15.5016   18.0274 C   0  0  0  0  0  0  0  0  0  0  0  0
    9.8942  -16.4692   18.9502 C   0  0  0  0  0  0  0  0  0  0  0  0
   10.8953  -15.6554   19.7371 C   0  0  2  0  0  0  0  0  0  0  0  0
   12.2076  -16.0926   19.4258 N   0  0  0  0  0  0  0  0  0  0  0  0
   10.5839  -15.6162   21.1746 C   0  0  0  0  0  0  0  0  0  0  0  0
   11.4754  -15.8711   22.0064 O   0  0  0  0  0  0  0  0  0  0  0  0
    6.6541  -13.0264   15.6129 C   0  0  0  0  0  0  0  0  0  0  0  0
    7.4222  -15.2642   23.2903 C   0  0  2  0  0  0  0  0  0  0  0  0
    8.9358  -15.3966   23.0639 N   0  0  0  0  0  0  0  0  0  0  0  0
    9.2711  -15.2888   21.6777 C   0  0  0  0  0  0  0  0  0  0  0  0
    9.3126  -16.7031   23.6642 O   0  0  0  0  0  0  0  0  0  0  0  0
    9.2338  -17.7955   23.0250 N   0  0  0  0  0  0  0  0  0  0  0  0
    9.7880  -16.8120   24.9979 C   0  0  2  0  0  0  0  0  0  0  0  0
   10.2664  -18.0900   25.5683 C   0  0  0  0  0  0  0  0  0  0  0  0
   11.4721  -17.6987   26.3843 C   0  0  0  0  0  0  0  0  0  0  0  0
   11.2264  -17.0306   27.6507 C   0  0  0  0  0  0  0  0  0  0  0  0
   11.4708  -17.5566   28.9038 N   0  0  0  0  0  0  0  0  0  0  0  0
   11.0743  -16.6559   29.8170 C   0  0  0  0  0  0  0  0  0  0  0  0
   10.5792  -15.5578   29.2040 C   0  0  0  0  0  0  0  0  0  0  0  0
   10.0741  -14.3813   29.7182 C   0  0  0  0  0  0  0  0  0  0  0  0
    9.6494  -13.4005   28.8534 C   0  0  0  0  0  0  0  0  0  0  0  0
    9.7184  -13.5702   27.4946 C   0  0  0  0  0  0  0  0  0  0  0  0
   10.2245  -14.7511   27.0196 C   0  0  0  0  0  0  0  0  0  0  0  0
   10.6680  -15.7775   27.8551 C   0  0  0  0  0  0  0  0  0  0  0  0
    9.2649  -18.7508   26.3961 O   0  0  0  0  0  0  0  0  0  0  0  0
    8.1481  -18.2309   26.6143 O   0  0  0  0  0  0  0  0  0  0  0  0
  1  2  1  0
  2  4  1  0
  2  3  2  0
  4  5  1  0
  5  6  1  0
  7  6  1  0
  7  8  1  0
  8 10  1  0
  8  9  1  1
 10 11  2  0
 13 12  1  1
 14 13  1  0
 14 10  1  0
 15 17  1  0
 15 13  1  0
 16 15  2  0
 18 19  1  1
 18 17  1  0
 19 20  1  0
 20 28  1  0
 20 21  2  0
 21 22  1  0
 23 22  1  0
 23 24  2  0
 25 24  1  0
 26 25  2  0
 27 26  1  0
 27 28  2  0
 28 23  1  0
 29 18  1  0
 29 31  1  0
 30 29  2  0
M  END
$$$$
