RAW.pdb
     RDKit          3D

 31 32  0  0  1  0  0  0  0  0999 V2000
    7.3245  -12.6647   15.2738 N   0  0  0  0  0  0  0  0  0  0  0  0
    8.3468  -13.5192   15.8237 C   0  0  0  0  0  0  0  0  0  0  0  0
    8.8708  -14.4483   15.1116 N   0  0  0  0  0  0  0  0  0  0  0  0
    8.7908  -13.3483   17.1617 N   0  0  0  0  0  0  0  0  0  0  0  0
    8.4614  -14.2637   18.2296 C   0  0  0  0  0  0  0  0  0  0  0  0
    7.4683  -13.5569   19.1495 C   0  0  0  0  0  0  0  0  0  0  0  0
    7.5871  -14.1089   20.5676 C   0  0  0  0  0  0  0  0  0  0  0  0
    7.2024  -15.5690   20.5080 C   0  0  2  0  0  0  0  0  0  0  0  0
    5.8759  -15.6880   20.0218 N   0  0  0  0  0  0  0  0  0  0  0  0
    7.4593  -16.2715   21.7751 C   0  0  0  0  0  0  0  0  0  0  0  0
    6.9100  -15.8777   22.8214 O   0  0  0  0  0  0  0  0  0  0  0  0
    9.5837  -15.0708   15.5174 C   0  0  0  0  0  0  0  0  0  0  0  0
    9.0250  -19.5369   22.8901 C   0  0  1  0  0  0  0  0  0  0  0  0
    8.6001  -18.0767   23.1070 N   0  0  0  0  0  0  0  0  0  0  0  0
    8.3322  -17.4176   21.8662 C   0  0  0  0  0  0  0  0  0  0  0  0
    9.7055  -17.4541   23.8813 O   0  0  0  0  0  0  0  0  0  0  0  0
   10.7924  -17.0849   23.3423 N   0  0  0  0  0  0  0  0  0  0  0  0
    9.6145  -17.2309   25.2809 C   0  0  1  0  0  0  0  0  0  0  0  0
   10.7866  -16.8612   26.1036 C   0  0  0  0  0  0  0  0  0  0  0  0
   10.4235  -15.5139   26.6742 C   0  0  0  0  0  0  0  0  0  0  0  0
    9.0140  -15.1633   26.6998 C   0  0  0  0  0  0  0  0  0  0  0  0
    8.0340  -15.8039   27.4319 N   0  0  0  0  0  0  0  0  0  0  0  0
    6.8589  -15.2156   27.1571 C   0  0  0  0  0  0  0  0  0  0  0  0
    7.0366  -14.2113   26.2704 C   0  0  0  0  0  0  0  0  0  0  0  0
    6.1392  -13.3253   25.7107 C   0  0  0  0  0  0  0  0  0  0  0  0
    6.5991  -12.3699   24.8354 C   0  0  0  0  0  0  0  0  0  0  0  0
    7.9281  -12.2825   24.5100 C   0  0  0  0  0  0  0  0  0  0  0  0
    8.7902  -13.1791   25.0839 C   0  0  0  0  0  0  0  0  0  0  0  0
    8.3737  -14.1674   25.9772 C   0  0  0  0  0  0  0  0  0  0  0  0
   11.0603  -17.8233   27.1640 O   0  0  0  0  0  0  0  0  0  0  0  0
   12.0944  -17.7504   27.8644 O   0  0  0  0  0  0  0  0  0  0  0  0
  1  2  1  0
  2  4  1  0
  2  3  2  0
  4  5  1  0
  5  6  1  0
  7  6  1  0
  7  8  1  0
  8 10  1  0
  8  9  1  1
 10 11  2  0
 13 12  1  1
 14 13  1  0
 14 10  1  0
 15 17  1  0
 15 13  1  0
 16 15  2  0
 18 19  1  1
 18 17  1  0
 19 20  1  0
 20 28  1  0
 20 21  2  0
 21 22  1  0
 23 22  1  0
 23 24  2  0
 25 24  1  0
 26 25  2  0
 27 26  1  0
 27 28  2  0
 28 23  1  0
 29 18  1  0
 29 31  1  0
 30 29  2  0
M  END
$$$$
