RAW.pdb
     RDKit          3D

 31 32  0  0  1  0  0  0  0  0999 V2000
    7.8331  -13.1762   16.6536 N   0  0  0  0  0  0  0  0  0  0  0  0
    8.4721  -13.7414   17.8155 C   0  0  0  0  0  0  0  0  0  0  0  0
    8.6548  -13.0314   18.8678 N   0  0  0  0  0  0  0  0  0  0  0  0
    8.9109  -15.0920   17.8154 N   0  0  0  0  0  0  0  0  0  0  0  0
    8.1808  -16.1631   17.1775 C   0  0  0  0  0  0  0  0  0  0  0  0
    7.0553  -16.5774   18.1227 C   0  0  0  0  0  0  0  0  0  0  0  0
    7.3968  -17.9077   18.7887 C   0  0  0  0  0  0  0  0  0  0  0  0
    7.6065  -17.6260   20.2585 C   0  0  2  0  0  0  0  0  0  0  0  0
    7.4587  -16.2365   20.4984 N   0  0  0  0  0  0  0  0  0  0  0  0
    8.8557  -18.2102   20.7715 C   0  0  0  0  0  0  0  0  0  0  0  0
    9.4447  -19.0861   20.1101 O   0  0  0  0  0  0  0  0  0  0  0  0
    9.2229  -13.3963   19.6454 C   0  0  0  0  0  0  0  0  0  0  0  0
   10.3837  -15.6327   21.3939 C   0  0  2  0  0  0  0  0  0  0  0  0
   10.6084  -16.9810   22.0948 N   0  0  0  0  0  0  0  0  0  0  0  0
    9.4441  -17.8089   22.0272 C   0  0  0  0  0  0  0  0  0  0  0  0
   11.0135  -16.6417   23.4841 O   0  0  0  0  0  0  0  0  0  0  0  0
   12.0247  -15.9215   23.7432 N   0  0  0  0  0  0  0  0  0  0  0  0
   10.2902  -17.1037   24.6155 C   0  0  1  0  0  0  0  0  0  0  0  0
   10.3145  -16.3986   25.9154 C   0  0  0  0  0  0  0  0  0  0  0  0
    9.8493  -15.0034   25.5843 C   0  0  0  0  0  0  0  0  0  0  0  0
    8.4187  -14.7548   25.6254 C   0  0  0  0  0  0  0  0  0  0  0  0
    7.4277  -15.7007   25.4518 N   0  0  0  0  0  0  0  0  0  0  0  0
    6.2412  -15.0760   25.5171 C   0  0  0  0  0  0  0  0  0  0  0  0
    6.4218  -13.7533   25.7281 C   0  0  0  0  0  0  0  0  0  0  0  0
    5.5134  -12.7260   25.8798 C   0  0  0  0  0  0  0  0  0  0  0  0
    5.9760  -11.4517   26.1092 C   0  0  0  0  0  0  0  0  0  0  0  0
    7.3184  -11.1848   26.1894 C   0  0  0  0  0  0  0  0  0  0  0  0
    8.1914  -12.2288   26.0330 C   0  0  0  0  0  0  0  0  0  0  0  0
    7.7728  -13.5395   25.7978 C   0  0  0  0  0  0  0  0  0  0  0  0
    9.4487  -17.0175   26.9116 O   0  0  0  0  0  0  0  0  0  0  0  0
    9.4187  -16.6139   28.0954 O   0  0  0  0  0  0  0  0  0  0  0  0
  1  2  1  0
  2  4  1  0
  2  3  2  0
  4  5  1  0
  5  6  1  0
  7  6  1  0
  7  8  1  0
  8 10  1  0
  8  9  1  6
 10 11  2  0
 13 12  1  6
 14 13  1  0
 14 10  1  0
 15 17  1  0
 15 13  1  0
 16 15  2  0
 18 19  1  1
 18 17  1  0
 19 20  1  0
 20 28  1  0
 20 21  2  0
 21 22  1  0
 23 22  1  0
 23 24  2  0
 25 24  1  0
 26 25  2  0
 27 26  1  0
 27 28  2  0
 28 23  1  0
 29 18  1  0
 29 31  1  0
 30 29  2  0
M  END
$$$$
