RAW.pdb
     RDKit          3D

 31 32  0  0  1  0  0  0  0  0999 V2000
    8.4355  -13.3351   16.6951 N   0  0  0  0  0  0  0  0  0  0  0  0
    8.5280  -12.9328   18.0761 C   0  0  0  0  0  0  0  0  0  0  0  0
    8.9711  -11.7701   18.3870 N   0  0  0  0  0  0  0  0  0  0  0  0
    8.1316  -13.8155   19.1155 N   0  0  0  0  0  0  0  0  0  0  0  0
    8.1305  -15.2535   18.9775 C   0  0  0  0  0  0  0  0  0  0  0  0
    6.7325  -15.7481   19.3423 C   0  0  0  0  0  0  0  0  0  0  0  0
    6.5412  -15.7009   20.8559 C   0  0  0  0  0  0  0  0  0  0  0  0
    7.5725  -16.6246   21.4615 C   0  0  2  0  0  0  0  0  0  0  0  0
    7.5251  -17.8801   20.8045 N   0  0  0  0  0  0  0  0  0  0  0  0
    7.4756  -16.6929   22.9281 C   0  0  0  0  0  0  0  0  0  0  0  0
    7.4526  -15.6409   23.5948 O   0  0  0  0  0  0  0  0  0  0  0  0
    9.0112  -11.4790   19.3739 C   0  0  0  0  0  0  0  0  0  0  0  0
    7.2559  -19.4412   25.5833 C   0  0  1  0  0  0  0  0  0  0  0  0
    7.4881  -18.0114   25.0718 N   0  0  0  0  0  0  0  0  0  0  0  0
    7.4029  -17.9433   23.6457 C   0  0  0  0  0  0  0  0  0  0  0  0
    8.8166  -17.6115   25.6052 O   0  0  0  0  0  0  0  0  0  0  0  0
    9.9051  -17.9550   25.0525 N   0  0  0  0  0  0  0  0  0  0  0  0
    8.9526  -16.8146   26.7728 C   0  0  1  0  0  0  0  0  0  0  0  0
   10.2706  -16.4516   27.3370 C   0  0  0  0  0  0  0  0  0  0  0  0
   10.1657  -14.9689   27.5888 C   0  0  0  0  0  0  0  0  0  0  0  0
    8.8420  -14.3758   27.5107 C   0  0  0  0  0  0  0  0  0  0  0  0
    7.8277  -14.5359   28.4341 N   0  0  0  0  0  0  0  0  0  0  0  0
    6.7511  -13.8692   27.9883 C   0  0  0  0  0  0  0  0  0  0  0  0
    7.0264  -13.2774   26.8048 C   0  0  0  0  0  0  0  0  0  0  0  0
    6.2508  -12.4843   25.9844 C   0  0  0  0  0  0  0  0  0  0  0  0
    6.7959  -11.9861   24.8248 C   0  0  0  0  0  0  0  0  0  0  0  0
    8.0912  -12.2625   24.4704 C   0  0  0  0  0  0  0  0  0  0  0  0
    8.8315  -13.0540   25.3082 C   0  0  0  0  0  0  0  0  0  0  0  0
    8.3248  -13.5844   26.4958 C   0  0  0  0  0  0  0  0  0  0  0  0
   10.5780  -17.1718   28.5665 O   0  0  0  0  0  0  0  0  0  0  0  0
    9.7272  -17.8918   29.1348 O   0  0  0  0  0  0  0  0  0  0  0  0
  1  2  1  0
  2  4  1  0
  2  3  2  0
  4  5  1  0
  5  6  1  0
  7  6  1  0
  7  8  1  0
  8 10  1  0
  8  9  1  6
 10 11  2  0
 13 12  1  1
 14 13  1  0
 14 10  1  0
 15 17  1  0
 15 13  1  0
 16 15  2  0
 18 19  1  1
 18 17  1  0
 19 20  1  0
 20 28  1  0
 20 21  2  0
 21 22  1  0
 23 22  1  0
 23 24  2  0
 25 24  1  0
 26 25  2  0
 27 26  1  0
 27 28  2  0
 28 23  1  0
 29 18  1  0
 29 31  1  0
 30 29  2  0
M  END
$$$$
