QRE.pdb
     RDKit          3D

 30 29  0  0  1  0  0  0  0  0999 V2000
    7.2062  -12.1513   18.1114 N   0  0  0  0  0  0  0  0  0  0  0  0
    7.3873  -13.4839   17.6504 C   0  0  0  0  0  0  0  0  0  0  0  0
    6.7108  -13.8268   16.6576 O   0  0  0  0  0  0  0  0  0  0  0  0
    8.3321  -14.3949   18.3242 C   0  0  0  0  0  0  0  0  0  0  0  0
    8.9855  -13.7915   19.5352 C   0  0  0  0  0  0  0  0  0  0  0  0
    9.8216  -14.8178   20.2136 C   0  0  2  0  0  0  0  0  0  0  0  0
   10.1894  -15.9115   19.3333 N   0  0  0  0  0  0  0  0  0  0  0  0
    9.1365  -15.3685   21.4414 C   0  0  0  0  0  0  0  0  0  0  0  0
    8.7940  -14.5768   22.3324 O   0  0  0  0  0  0  0  0  0  0  0  0
    5.0657  -23.1397   23.5008 N   0  0  0  0  0  0  0  0  0  0  0  0
    5.3404  -22.5059   24.7407 C   0  0  0  0  0  0  0  0  0  0  0  0
    4.8641  -22.9481   25.8762 N   0  0  0  0  0  0  0  0  0  0  0  0
    6.1552  -21.3569   24.7613 N   0  0  0  0  0  0  0  0  0  0  0  0
    6.4615  -20.6181   23.5333 C   0  0  0  0  0  0  0  0  0  0  0  0
    7.4569  -19.5299   23.8053 C   0  0  0  0  0  0  0  0  0  0  0  0
    7.8517  -18.7135   22.6473 C   0  0  0  0  0  0  0  0  0  0  0  0
    8.3425  -17.3358   22.8249 C   0  0  2  0  0  0  0  0  0  0  0  0
    8.8737  -16.7426   21.6084 N   0  0  0  0  0  0  0  0  0  0  0  0
    9.2882  -17.1839   23.9097 C   0  0  0  0  0  0  0  0  0  0  0  0
   10.5031  -17.5117   23.6593 O   0  0  0  0  0  0  0  0  0  0  0  0
    5.0526  -22.3437   26.7218 N   0  0  0  0  0  0  0  0  0  0  0  0
    8.9710  -16.7066   25.2180 C   0  0  2  0  0  0  0  0  0  0  0  0
   10.0661  -16.5916   26.1948 C   0  0  0  0  0  0  0  0  0  0  0  0
    9.7040  -15.5807   27.2212 C   0  0  0  0  0  0  0  0  0  0  0  0
   10.7564  -15.4637   28.2815 C   0  0  0  0  0  0  0  0  0  0  0  0
   10.4140  -14.3901   29.2723 O   0  0  0  0  0  0  0  0  0  0  0  0
    9.8935  -13.2975   28.9643 C   0  0  0  0  0  0  0  0  0  0  0  0
   10.2630  -17.9170   26.8305 O   0  0  0  0  0  0  0  0  0  0  0  0
    9.4076  -18.8082   26.9254 O   0  0  0  0  0  0  0  0  0  0  0  0
   10.6861  -14.6115   30.6142 O   0  0  0  0  0  0  0  0  0  0  0  0
  2  3  2  0
  2  1  1  0
  4  2  1  0
  5  4  1  0
  5  6  1  0
  6  7  1  6
  6  8  1  0
  8 18  1  0
  9  8  2  0
 10 11  1  0
 11 12  2  0
 11 13  1  0
 13 14  1  0
 15 14  1  0
 16 15  1  0
 17 19  1  0
 17 16  1  6
 18 17  1  0
 19 20  2  0
 21 19  1  0
 21 22  1  0
 22 23  1  6
 23 24  1  0
 25 26  2  0
 25 24  1  0
 27 30  1  0
 27 22  1  0
 28 27  2  0
 29 25  1  0
M  END
$$$$
