QRE.pdb
     RDKit          3D

 30 29  0  0  1  0  0  0  0  0999 V2000
    9.2566  -11.3146   19.3096 N   0  0  0  0  0  0  0  0  0  0  0  0
    8.4832  -12.0141   20.2758 C   0  0  0  0  0  0  0  0  0  0  0  0
    8.4873  -11.5491   21.4355 O   0  0  0  0  0  0  0  0  0  0  0  0
    7.7223  -13.2222   19.9042 C   0  0  0  0  0  0  0  0  0  0  0  0
    7.8576  -13.5927   18.4544 C   0  0  0  0  0  0  0  0  0  0  0  0
    9.1758  -14.2434   18.2274 C   0  0  2  0  0  0  0  0  0  0  0  0
    9.3815  -14.6233   16.8419 N   0  0  0  0  0  0  0  0  0  0  0  0
    9.3576  -15.4526   19.1133 C   0  0  0  0  0  0  0  0  0  0  0  0
    8.3466  -16.0246   19.5477 O   0  0  0  0  0  0  0  0  0  0  0  0
    8.6849  -22.5052   15.9642 N   0  0  0  0  0  0  0  0  0  0  0  0
    9.4506  -22.9176   17.0859 C   0  0  0  0  0  0  0  0  0  0  0  0
    9.5881  -24.1756   17.4181 N   0  0  0  0  0  0  0  0  0  0  0  0
   10.0907  -21.9446   17.8783 N   0  0  0  0  0  0  0  0  0  0  0  0
    9.8021  -20.5174   17.7132 C   0  0  0  0  0  0  0  0  0  0  0  0
   10.5465  -19.7061   18.7314 C   0  0  0  0  0  0  0  0  0  0  0  0
   10.3793  -18.2476   18.6408 C   0  0  0  0  0  0  0  0  0  0  0  0
   10.9288  -17.3572   19.6779 C   0  0  2  0  0  0  0  0  0  0  0  0
   10.6288  -15.9512   19.4607 N   0  0  0  0  0  0  0  0  0  0  0  0
   12.3451  -17.5355   19.9157 C   0  0  0  0  0  0  0  0  0  0  0  0
   13.0732  -17.7673   18.8851 O   0  0  0  0  0  0  0  0  0  0  0  0
   10.1567  -24.3631   18.2884 N   0  0  0  0  0  0  0  0  0  0  0  0
   12.9794  -17.4763   21.1941 C   0  0  1  0  0  0  0  0  0  0  0  0
   14.4174  -17.7823   21.2656 C   0  0  0  0  0  0  0  0  0  0  0  0
   15.1362  -16.6257   21.8589 C   0  0  0  0  0  0  0  0  0  0  0  0
   15.2295  -15.4780   20.8999 C   0  0  0  0  0  0  0  0  0  0  0  0
   16.0481  -14.3572   21.4701 O   0  0  0  0  0  0  0  0  0  0  0  0
   16.2043  -14.1603   22.6934 C   0  0  0  0  0  0  0  0  0  0  0  0
   14.5950  -18.9846   22.1157 O   0  0  0  0  0  0  0  0  0  0  0  0
   13.7170  -19.5167   22.8090 O   0  0  0  0  0  0  0  0  0  0  0  0
   16.6749  -13.4800   20.5975 O   0  0  0  0  0  0  0  0  0  0  0  0
  2  3  2  0
  2  1  1  0
  4  2  1  0
  5  4  1  0
  5  6  1  0
  6  7  1  6
  6  8  1  0
  8 18  1  0
  9  8  2  0
 10 11  1  0
 11 12  2  0
 11 13  1  0
 13 14  1  0
 15 14  1  0
 16 15  1  0
 17 19  1  0
 17 16  1  6
 18 17  1  0
 19 20  2  0
 21 19  1  0
 21 22  1  0
 22 23  1  1
 23 24  1  0
 25 26  2  0
 25 24  1  0
 27 30  1  0
 27 22  1  0
 28 27  2  0
 29 25  1  0
M  END
$$$$
