QRE.pdb
     RDKit          3D

 30 29  0  0  1  0  0  0  0  0999 V2000
   11.2992  -21.4054   19.9951 N   0  0  0  0  0  0  0  0  0  0  0  0
   10.8492  -21.3186   18.6495 C   0  0  0  0  0  0  0  0  0  0  0  0
   11.2478  -22.2101   17.8701 O   0  0  0  0  0  0  0  0  0  0  0  0
    9.9567  -20.2252   18.2199 C   0  0  0  0  0  0  0  0  0  0  0  0
    9.4295  -19.3999   19.3593 C   0  0  0  0  0  0  0  0  0  0  0  0
    9.5023  -17.9571   19.0048 C   0  0  2  0  0  0  0  0  0  0  0  0
   10.4546  -17.6887   17.9431 N   0  0  0  0  0  0  0  0  0  0  0  0
    9.8358  -17.1065   20.2071 C   0  0  0  0  0  0  0  0  0  0  0  0
   11.0220  -16.8051   20.4074 O   0  0  0  0  0  0  0  0  0  0  0  0
    8.3086  -12.9969   27.1976 N   0  0  0  0  0  0  0  0  0  0  0  0
    7.1863  -12.3931   26.5729 C   0  0  0  0  0  0  0  0  0  0  0  0
    6.2222  -11.8293   27.2544 N   0  0  0  0  0  0  0  0  0  0  0  0
    7.0967  -12.3950   25.1670 N   0  0  0  0  0  0  0  0  0  0  0  0
    6.7601  -13.6142   24.4268 C   0  0  0  0  0  0  0  0  0  0  0  0
    8.0029  -14.3636   24.0491 C   0  0  0  0  0  0  0  0  0  0  0  0
    7.9575  -15.0824   22.7667 C   0  0  0  0  0  0  0  0  0  0  0  0
    9.1258  -15.8367   22.2803 C   0  0  2  0  0  0  0  0  0  0  0  0
    8.8515  -16.6452   21.1035 N   0  0  0  0  0  0  0  0  0  0  0  0
    9.7738  -16.6370   23.2971 C   0  0  0  0  0  0  0  0  0  0  0  0
    9.1668  -17.7098   23.6534 O   0  0  0  0  0  0  0  0  0  0  0  0
    5.4117  -11.4594   26.6868 N   0  0  0  0  0  0  0  0  0  0  0  0
   11.0177  -16.3220   23.9244 C   0  0  2  0  0  0  0  0  0  0  0  0
   11.6070  -17.3224   24.8291 C   0  0  0  0  0  0  0  0  0  0  0  0
   13.0587  -17.0486   24.9846 C   0  0  0  0  0  0  0  0  0  0  0  0
   13.7681  -17.0451   23.6647 C   0  0  0  0  0  0  0  0  0  0  0  0
   15.2164  -16.6877   23.8259 O   0  0  0  0  0  0  0  0  0  0  0  0
   15.6340  -15.8033   24.6025 C   0  0  0  0  0  0  0  0  0  0  0  0
   10.9247  -17.2208   26.1420 O   0  0  0  0  0  0  0  0  0  0  0  0
   11.1546  -17.9269   27.1336 O   0  0  0  0  0  0  0  0  0  0  0  0
   16.1588  -17.3731   23.0737 O   0  0  0  0  0  0  0  0  0  0  0  0
  2  3  2  0
  2  1  1  0
  4  2  1  0
  5  4  1  0
  5  6  1  0
  6  7  1  6
  6  8  1  0
  8 18  1  0
  9  8  2  0
 10 11  1  0
 11 12  2  0
 11 13  1  0
 13 14  1  0
 15 14  1  0
 16 15  1  0
 17 19  1  0
 17 16  1  1
 18 17  1  0
 19 20  2  0
 21 19  1  0
 21 22  1  0
 22 23  1  6
 23 24  1  0
 25 26  2  0
 25 24  1  0
 27 30  1  0
 27 22  1  0
 28 27  2  0
 29 25  1  0
M  END
$$$$
