QRE.pdb
     RDKit          3D

 30 29  0  0  1  0  0  0  0  0999 V2000
   10.8982  -17.4976   27.6373 N   0  0  0  0  0  0  0  0  0  0  0  0
   10.0046  -18.1391   28.5377 C   0  0  0  0  0  0  0  0  0  0  0  0
   10.1541  -17.8794   29.7507 O   0  0  0  0  0  0  0  0  0  0  0  0
    8.9620  -19.0576   28.0419 C   0  0  0  0  0  0  0  0  0  0  0  0
    8.9995  -19.2586   26.5534 C   0  0  0  0  0  0  0  0  0  0  0  0
    7.8125  -18.6114   25.9333 C   0  0  2  0  0  0  0  0  0  0  0  0
    6.6654  -19.4977   25.8608 N   0  0  0  0  0  0  0  0  0  0  0  0
    8.1266  -18.0809   24.5549 C   0  0  0  0  0  0  0  0  0  0  0  0
    8.4934  -18.8822   23.6824 O   0  0  0  0  0  0  0  0  0  0  0  0
    6.4673  -12.5880   18.6324 N   0  0  0  0  0  0  0  0  0  0  0  0
    7.7797  -12.9944   18.2762 C   0  0  0  0  0  0  0  0  0  0  0  0
    8.4621  -12.4098   17.3253 N   0  0  0  0  0  0  0  0  0  0  0  0
    8.3799  -14.0662   18.9658 N   0  0  0  0  0  0  0  0  0  0  0  0
    7.7066  -14.7207   20.0910 C   0  0  0  0  0  0  0  0  0  0  0  0
    8.1773  -14.1480   21.3945 C   0  0  0  0  0  0  0  0  0  0  0  0
    7.7922  -14.8934   22.6025 C   0  0  0  0  0  0  0  0  0  0  0  0
    8.5018  -16.1251   22.9899 C   0  0  2  0  0  0  0  0  0  0  0  0
    8.0170  -16.7148   24.2273 N   0  0  0  0  0  0  0  0  0  0  0  0
    9.9415  -15.9854   23.0328 C   0  0  0  0  0  0  0  0  0  0  0  0
   10.4249  -15.3526   24.0388 O   0  0  0  0  0  0  0  0  0  0  0  0
    9.4609  -12.7335   17.2088 N   0  0  0  0  0  0  0  0  0  0  0  0
   10.8475  -16.4898   22.0505 C   0  0  2  0  0  0  0  0  0  0  0  0
   12.2771  -16.1747   22.2040 C   0  0  0  0  0  0  0  0  0  0  0  0
   13.0676  -17.4296   22.1223 C   0  0  0  0  0  0  0  0  0  0  0  0
   12.8862  -18.2812   23.3418 C   0  0  0  0  0  0  0  0  0  0  0  0
   13.7252  -19.5231   23.2686 O   0  0  0  0  0  0  0  0  0  0  0  0
   14.9066  -19.5907   23.6675 C   0  0  0  0  0  0  0  0  0  0  0  0
   12.6695  -15.2519   21.1113 O   0  0  0  0  0  0  0  0  0  0  0  0
   13.7588  -14.6702   21.0116 O   0  0  0  0  0  0  0  0  0  0  0  0
   13.1674  -20.6722   22.7281 O   0  0  0  0  0  0  0  0  0  0  0  0
  2  3  2  0
  2  1  1  0
  4  2  1  0
  5  4  1  0
  5  6  1  0
  6  7  1  6
  6  8  1  0
  8 18  1  0
  9  8  2  0
 10 11  1  0
 11 12  2  0
 11 13  1  0
 13 14  1  0
 15 14  1  0
 16 15  1  0
 17 19  1  0
 17 16  1  1
 18 17  1  0
 19 20  2  0
 21 19  1  0
 21 22  1  0
 22 23  1  6
 23 24  1  0
 25 26  2  0
 25 24  1  0
 27 30  1  0
 27 22  1  0
 28 27  2  0
 29 25  1  0
M  END
$$$$
