QRE.pdb
     RDKit          3D

 30 29  0  0  1  0  0  0  0  0999 V2000
    9.4493  -11.8556   19.1579 N   0  0  0  0  0  0  0  0  0  0  0  0
    8.5442  -12.9353   18.9687 C   0  0  0  0  0  0  0  0  0  0  0  0
    8.8426  -13.7638   18.0823 O   0  0  0  0  0  0  0  0  0  0  0  0
    7.3240  -13.0515   19.7898 C   0  0  0  0  0  0  0  0  0  0  0  0
    7.5615  -13.6920   21.1280 C   0  0  0  0  0  0  0  0  0  0  0  0
    7.7771  -15.1530   20.9499 C   0  0  2  0  0  0  0  0  0  0  0  0
    6.6250  -15.8230   20.3753 N   0  0  0  0  0  0  0  0  0  0  0  0
    8.1511  -15.8214   22.2512 C   0  0  0  0  0  0  0  0  0  0  0  0
    7.2452  -16.1241   23.0421 O   0  0  0  0  0  0  0  0  0  0  0  0
   14.7889  -20.4797   22.5181 N   0  0  0  0  0  0  0  0  0  0  0  0
   13.4363  -20.3060   22.1244 C   0  0  0  0  0  0  0  0  0  0  0  0
   13.0721  -20.2499   20.8691 N   0  0  0  0  0  0  0  0  0  0  0  0
   12.4405  -20.1885   23.1139 N   0  0  0  0  0  0  0  0  0  0  0  0
   12.6887  -19.4616   24.3620 C   0  0  0  0  0  0  0  0  0  0  0  0
   11.5291  -18.5709   24.6946 C   0  0  0  0  0  0  0  0  0  0  0  0
   11.0606  -17.6916   23.6126 C   0  0  0  0  0  0  0  0  0  0  0  0
    9.8886  -16.8189   23.8007 C   0  0  2  0  0  0  0  0  0  0  0  0
    9.4861  -16.1122   22.5955 N   0  0  0  0  0  0  0  0  0  0  0  0
   10.0169  -15.8921   24.9047 C   0  0  0  0  0  0  0  0  0  0  0  0
   11.0139  -15.0857   24.8615 O   0  0  0  0  0  0  0  0  0  0  0  0
   12.0496  -20.0498   20.6943 N   0  0  0  0  0  0  0  0  0  0  0  0
    9.1303  -15.8143   26.0219 C   0  0  1  0  0  0  0  0  0  0  0  0
    9.4286  -14.8269   27.0719 C   0  0  0  0  0  0  0  0  0  0  0  0
    8.1886  -14.0835   27.4130 C   0  0  0  0  0  0  0  0  0  0  0  0
    7.7737  -13.1588   26.3093 C   0  0  0  0  0  0  0  0  0  0  0  0
    6.5374  -12.3922   26.6771 O   0  0  0  0  0  0  0  0  0  0  0  0
    5.8686  -12.6021   27.7107 C   0  0  0  0  0  0  0  0  0  0  0  0
    9.9327  -15.5529   28.2629 O   0  0  0  0  0  0  0  0  0  0  0  0
    9.9189  -16.7816   28.4208 O   0  0  0  0  0  0  0  0  0  0  0  0
    6.1001  -11.3869   25.8275 O   0  0  0  0  0  0  0  0  0  0  0  0
  2  3  2  0
  2  1  1  0
  4  2  1  0
  5  4  1  0
  5  6  1  0
  6  7  1  1
  6  8  1  0
  8 18  1  0
  9  8  2  0
 10 11  1  0
 11 12  2  0
 11 13  1  0
 13 14  1  0
 15 14  1  0
 16 15  1  0
 17 19  1  0
 17 16  1  6
 18 17  1  0
 19 20  2  0
 21 19  1  0
 21 22  1  0
 22 23  1  6
 23 24  1  0
 25 26  2  0
 25 24  1  0
 27 30  1  0
 27 22  1  0
 28 27  2  0
 29 25  1  0
M  END
$$$$
