QRE.pdb
     RDKit          3D

 30 29  0  0  1  0  0  0  0  0999 V2000
   17.4242  -13.4606   16.4478 N   0  0  0  0  0  0  0  0  0  0  0  0
   16.1106  -12.9432   16.6142 C   0  0  0  0  0  0  0  0  0  0  0  0
   15.7562  -12.0538   15.8114 O   0  0  0  0  0  0  0  0  0  0  0  0
   15.2296  -13.4475   17.6848 C   0  0  0  0  0  0  0  0  0  0  0  0
   15.8967  -14.4445   18.5894 C   0  0  0  0  0  0  0  0  0  0  0  0
   15.0506  -15.6631   18.6977 C   0  0  2  0  0  0  0  0  0  0  0  0
   14.2442  -15.8920   17.5129 N   0  0  0  0  0  0  0  0  0  0  0  0
   14.1560  -15.6112   19.9131 C   0  0  0  0  0  0  0  0  0  0  0  0
   14.6661  -15.3450   21.0117 O   0  0  0  0  0  0  0  0  0  0  0  0
    7.7114  -12.5836   20.2703 N   0  0  0  0  0  0  0  0  0  0  0  0
    7.8119  -12.9161   18.8941 C   0  0  0  0  0  0  0  0  0  0  0  0
    7.8461  -12.0078   17.9530 N   0  0  0  0  0  0  0  0  0  0  0  0
    7.8781  -14.2715   18.5160 N   0  0  0  0  0  0  0  0  0  0  0  0
    8.3736  -15.2965   19.4387 C   0  0  0  0  0  0  0  0  0  0  0  0
    9.7733  -14.9824   19.8759 C   0  0  0  0  0  0  0  0  0  0  0  0
   10.4599  -16.0328   20.6429 C   0  0  0  0  0  0  0  0  0  0  0  0
   11.8847  -15.9039   20.9949 C   0  0  2  0  0  0  0  0  0  0  0  0
   12.7696  -15.8525   19.8425 N   0  0  0  0  0  0  0  0  0  0  0  0
   12.3494  -16.8978   21.9385 C   0  0  0  0  0  0  0  0  0  0  0  0
   12.5602  -18.0745   21.4722 O   0  0  0  0  0  0  0  0  0  0  0  0
    7.9188  -12.3715   16.9638 N   0  0  0  0  0  0  0  0  0  0  0  0
   12.5832  -16.6679   23.3286 C   0  0  1  0  0  0  0  0  0  0  0  0
   13.2183  -17.7427   24.1085 C   0  0  0  0  0  0  0  0  0  0  0  0
   14.6587  -17.4299   24.2927 C   0  0  0  0  0  0  0  0  0  0  0  0
   15.3231  -18.3984   25.2234 C   0  0  0  0  0  0  0  0  0  0  0  0
   16.7781  -18.0756   25.3972 O   0  0  0  0  0  0  0  0  0  0  0  0
   17.3778  -18.1274   26.4914 C   0  0  0  0  0  0  0  0  0  0  0  0
   12.5409  -17.8239   25.4253 O   0  0  0  0  0  0  0  0  0  0  0  0
   12.7717  -18.6628   26.3073 O   0  0  0  0  0  0  0  0  0  0  0  0
   17.5132  -17.6961   24.2840 O   0  0  0  0  0  0  0  0  0  0  0  0
  2  3  2  0
  2  1  1  0
  4  2  1  0
  5  4  1  0
  5  6  1  0
  6  7  1  6
  6  8  1  0
  8 18  1  0
  9  8  2  0
 10 11  1  0
 11 12  2  0
 11 13  1  0
 13 14  1  0
 15 14  1  0
 16 15  1  0
 17 19  1  0
 17 16  1  6
 18 17  1  0
 19 20  2  0
 21 19  1  0
 21 22  1  0
 22 23  1  6
 23 24  1  0
 25 26  2  0
 25 24  1  0
 27 30  1  0
 27 22  1  0
 28 27  2  0
 29 25  1  0
M  END
$$$$
