QRE.pdb
     RDKit          3D

 30 29  0  0  1  0  0  0  0  0999 V2000
   13.3505  -17.3932   15.3511 N   0  0  0  0  0  0  0  0  0  0  0  0
   12.2481  -18.1301   14.8389 C   0  0  0  0  0  0  0  0  0  0  0  0
   12.4746  -18.8535   13.8457 O   0  0  0  0  0  0  0  0  0  0  0  0
   10.9162  -18.0314   15.4657 C   0  0  0  0  0  0  0  0  0  0  0  0
   10.9012  -17.1906   16.7108 C   0  0  0  0  0  0  0  0  0  0  0  0
   10.9393  -18.0726   17.9080 C   0  0  2  0  0  0  0  0  0  0  0  0
    9.8633  -19.0465   17.9204 N   0  0  0  0  0  0  0  0  0  0  0  0
   10.9086  -17.2722   19.1880 C   0  0  0  0  0  0  0  0  0  0  0  0
   11.7193  -16.3437   19.3244 O   0  0  0  0  0  0  0  0  0  0  0  0
    7.8820  -12.8461   18.1788 N   0  0  0  0  0  0  0  0  0  0  0  0
    7.9752  -12.5021   19.5527 C   0  0  0  0  0  0  0  0  0  0  0  0
    8.0140  -11.2610   19.9648 N   0  0  0  0  0  0  0  0  0  0  0  0
    8.0286  -13.5274   20.5173 N   0  0  0  0  0  0  0  0  0  0  0  0
    8.1544  -14.9344   20.1274 C   0  0  0  0  0  0  0  0  0  0  0  0
    7.5883  -15.8299   21.1888 C   0  0  0  0  0  0  0  0  0  0  0  0
    8.5674  -16.5924   21.9783 C   0  0  0  0  0  0  0  0  0  0  0  0
    9.9372  -16.8081   21.4806 C   0  0  2  0  0  0  0  0  0  0  0  0
    9.9953  -17.5415   20.2266 N   0  0  0  0  0  0  0  0  0  0  0  0
   10.8281  -17.4063   22.4517 C   0  0  0  0  0  0  0  0  0  0  0  0
   10.6406  -18.6490   22.7103 O   0  0  0  0  0  0  0  0  0  0  0  0
    8.1721  -11.1238   21.0002 N   0  0  0  0  0  0  0  0  0  0  0  0
   11.8810  -16.7235   23.1337 C   0  0  2  0  0  0  0  0  0  0  0  0
   12.6617  -17.4774   24.1281 C   0  0  0  0  0  0  0  0  0  0  0  0
   14.0123  -16.8718   24.2532 C   0  0  0  0  0  0  0  0  0  0  0  0
   14.6816  -16.7262   22.9204 C   0  0  0  0  0  0  0  0  0  0  0  0
   16.0748  -16.1883   23.0666 O   0  0  0  0  0  0  0  0  0  0  0  0
   16.3372  -15.0166   23.4094 C   0  0  0  0  0  0  0  0  0  0  0  0
   11.9492  -17.4093   25.4271 O   0  0  0  0  0  0  0  0  0  0  0  0
   10.9219  -16.7555   25.6555 O   0  0  0  0  0  0  0  0  0  0  0  0
   17.1446  -17.0327   22.8093 O   0  0  0  0  0  0  0  0  0  0  0  0
  2  3  2  0
  2  1  1  0
  4  2  1  0
  5  4  1  0
  5  6  1  0
  6  7  1  1
  6  8  1  0
  8 18  1  0
  9  8  2  0
 10 11  1  0
 11 12  2  0
 11 13  1  0
 13 14  1  0
 15 14  1  0
 16 15  1  0
 17 19  1  0
 17 16  1  1
 18 17  1  0
 19 20  2  0
 21 19  1  0
 21 22  1  0
 22 23  1  6
 23 24  1  0
 25 26  2  0
 25 24  1  0
 27 30  1  0
 27 22  1  0
 28 27  2  0
 29 25  1  0
M  END
$$$$
