QRE.pdb
     RDKit          3D

 30 29  0  0  1  0  0  0  0  0999 V2000
    5.7573  -23.1978   24.4680 N   0  0  0  0  0  0  0  0  0  0  0  0
    5.1349  -21.9265   24.3366 C   0  0  0  0  0  0  0  0  0  0  0  0
    3.9725  -21.9199   23.8784 O   0  0  0  0  0  0  0  0  0  0  0  0
    5.8437  -20.6937   24.7296 C   0  0  0  0  0  0  0  0  0  0  0  0
    7.2080  -20.9452   25.3064 C   0  0  0  0  0  0  0  0  0  0  0  0
    7.8689  -19.6470   25.6070 C   0  0  2  0  0  0  0  0  0  0  0  0
    6.9982  -18.7259   26.3139 N   0  0  0  0  0  0  0  0  0  0  0  0
    8.3895  -18.9860   24.3532 C   0  0  0  0  0  0  0  0  0  0  0  0
    9.2031  -19.6060   23.6521 O   0  0  0  0  0  0  0  0  0  0  0  0
    9.0381  -12.3060   20.6808 N   0  0  0  0  0  0  0  0  0  0  0  0
    8.4170  -12.5722   19.4326 C   0  0  0  0  0  0  0  0  0  0  0  0
    8.7548  -11.9487   18.3331 N   0  0  0  0  0  0  0  0  0  0  0  0
    7.3977  -13.5421   19.3633 N   0  0  0  0  0  0  0  0  0  0  0  0
    6.9196  -14.2319   20.5647 C   0  0  0  0  0  0  0  0  0  0  0  0
    7.9883  -15.1236   21.1230 C   0  0  0  0  0  0  0  0  0  0  0  0
    7.5924  -15.9714   22.2577 C   0  0  0  0  0  0  0  0  0  0  0  0
    8.5082  -16.9931   22.7946 C   0  0  2  0  0  0  0  0  0  0  0  0
    7.9845  -17.6968   23.9541 N   0  0  0  0  0  0  0  0  0  0  0  0
    9.8417  -16.5020   23.0677 C   0  0  0  0  0  0  0  0  0  0  0  0
    9.9605  -15.6863   24.0510 O   0  0  0  0  0  0  0  0  0  0  0  0
    8.1560  -12.1501   17.4864 N   0  0  0  0  0  0  0  0  0  0  0  0
   11.0149  -16.8515   22.3317 C   0  0  2  0  0  0  0  0  0  0  0  0
   12.2956  -16.2615   22.7540 C   0  0  0  0  0  0  0  0  0  0  0  0
   13.1472  -17.3182   23.3578 C   0  0  0  0  0  0  0  0  0  0  0  0
   14.4714  -16.7771   23.8043 C   0  0  0  0  0  0  0  0  0  0  0  0
   15.3163  -17.8500   24.4260 O   0  0  0  0  0  0  0  0  0  0  0  0
   15.7592  -17.8002   25.5926 C   0  0  0  0  0  0  0  0  0  0  0  0
   12.9612  -15.6907   21.5578 O   0  0  0  0  0  0  0  0  0  0  0  0
   12.6210  -15.8790   20.3816 O   0  0  0  0  0  0  0  0  0  0  0  0
   15.6316  -18.9700   23.6711 O   0  0  0  0  0  0  0  0  0  0  0  0
  2  3  2  0
  2  1  1  0
  4  2  1  0
  5  4  1  0
  5  6  1  0
  6  7  1  6
  6  8  1  0
  8 18  1  0
  9  8  2  0
 10 11  1  0
 11 12  2  0
 11 13  1  0
 13 14  1  0
 15 14  1  0
 16 15  1  0
 17 19  1  0
 17 16  1  1
 18 17  1  0
 19 20  2  0
 21 19  1  0
 21 22  1  0
 22 23  1  6
 23 24  1  0
 25 26  2  0
 25 24  1  0
 27 30  1  0
 27 22  1  0
 28 27  2  0
 29 25  1  0
M  END
$$$$
