QRE.pdb
     RDKit          3D

 30 29  0  0  1  0  0  0  0  0999 V2000
    5.6643  -20.0682   25.0430 N   0  0  0  0  0  0  0  0  0  0  0  0
    5.5933  -21.4336   24.6540 C   0  0  0  0  0  0  0  0  0  0  0  0
    4.7152  -22.1266   25.2105 O   0  0  0  0  0  0  0  0  0  0  0  0
    6.5174  -21.9803   23.6422 C   0  0  0  0  0  0  0  0  0  0  0  0
    7.5285  -20.9823   23.1531 C   0  0  0  0  0  0  0  0  0  0  0  0
    7.0562  -20.3787   21.8783 C   0  0  2  0  0  0  0  0  0  0  0  0
    7.1225  -21.3041   20.7623 N   0  0  0  0  0  0  0  0  0  0  0  0
    7.8266  -19.1250   21.5391 C   0  0  0  0  0  0  0  0  0  0  0  0
    8.9142  -19.2394   20.9544 O   0  0  0  0  0  0  0  0  0  0  0  0
    7.3134  -11.8581   17.9901 N   0  0  0  0  0  0  0  0  0  0  0  0
    7.7336  -13.2138   18.0041 C   0  0  0  0  0  0  0  0  0  0  0  0
    8.0280  -13.8690   16.9106 N   0  0  0  0  0  0  0  0  0  0  0  0
    7.8414  -13.8889   19.2358 N   0  0  0  0  0  0  0  0  0  0  0  0
    7.6045  -13.1981   20.5064 C   0  0  0  0  0  0  0  0  0  0  0  0
    7.9937  -14.0700   21.6628 C   0  0  0  0  0  0  0  0  0  0  0  0
    7.3477  -15.3900   21.7208 C   0  0  0  0  0  0  0  0  0  0  0  0
    8.1510  -16.6240   21.7721 C   0  0  2  0  0  0  0  0  0  0  0  0
    7.3546  -17.8371   21.8614 N   0  0  0  0  0  0  0  0  0  0  0  0
    9.1714  -16.6189   22.7982 C   0  0  0  0  0  0  0  0  0  0  0  0
    8.7832  -16.8839   23.9921 O   0  0  0  0  0  0  0  0  0  0  0  0
    8.3608  -14.8627   17.0441 N   0  0  0  0  0  0  0  0  0  0  0  0
   10.5557  -16.3414   22.5817 C   0  0  2  0  0  0  0  0  0  0  0  0
   11.4770  -16.4989   23.7188 C   0  0  0  0  0  0  0  0  0  0  0  0
   11.5050  -17.9249   24.1339 C   0  0  0  0  0  0  0  0  0  0  0  0
   12.5480  -18.1791   25.1793 C   0  0  0  0  0  0  0  0  0  0  0  0
   12.5965  -19.6301   25.5585 O   0  0  0  0  0  0  0  0  0  0  0  0
   12.4293  -20.5676   24.7508 C   0  0  0  0  0  0  0  0  0  0  0  0
   12.8279  -16.0665   23.2857 O   0  0  0  0  0  0  0  0  0  0  0  0
   13.1601  -15.7837   22.1262 O   0  0  0  0  0  0  0  0  0  0  0  0
   12.8415  -19.9642   26.8822 O   0  0  0  0  0  0  0  0  0  0  0  0
  2  3  2  0
  2  1  1  0
  4  2  1  0
  5  4  1  0
  5  6  1  0
  6  7  1  6
  6  8  1  0
  8 18  1  0
  9  8  2  0
 10 11  1  0
 11 12  2  0
 11 13  1  0
 13 14  1  0
 15 14  1  0
 16 15  1  0
 17 19  1  0
 17 16  1  1
 18 17  1  0
 19 20  2  0
 21 19  1  0
 21 22  1  0
 22 23  1  1
 23 24  1  0
 25 26  2  0
 25 24  1  0
 27 30  1  0
 27 22  1  0
 28 27  2  0
 29 25  1  0
M  END
$$$$
