QRE.pdb
     RDKit          3D

 30 29  0  0  1  0  0  0  0  0999 V2000
    8.8255  -12.5246   19.4142 N   0  0  0  0  0  0  0  0  0  0  0  0
    8.0697  -12.9906   18.3040 C   0  0  0  0  0  0  0  0  0  0  0  0
    7.1714  -12.2309   17.8832 O   0  0  0  0  0  0  0  0  0  0  0  0
    8.3513  -14.3050   17.6961 C   0  0  0  0  0  0  0  0  0  0  0  0
    9.4726  -15.0471   18.3666 C   0  0  0  0  0  0  0  0  0  0  0  0
    9.7949  -16.2726   17.5877 C   0  0  2  0  0  0  0  0  0  0  0  0
    8.6667  -17.1788   17.4774 N   0  0  0  0  0  0  0  0  0  0  0  0
   10.9761  -17.0081   18.1741 C   0  0  0  0  0  0  0  0  0  0  0  0
   10.9908  -17.2248   19.3951 O   0  0  0  0  0  0  0  0  0  0  0  0
   16.9166  -19.8635   14.3142 N   0  0  0  0  0  0  0  0  0  0  0  0
   16.6494  -20.9443   15.1945 C   0  0  0  0  0  0  0  0  0  0  0  0
   17.5946  -21.7166   15.6654 N   0  0  0  0  0  0  0  0  0  0  0  0
   15.3203  -21.2044   15.5823 N   0  0  0  0  0  0  0  0  0  0  0  0
   14.1943  -20.4992   14.9638 C   0  0  0  0  0  0  0  0  0  0  0  0
   13.3275  -19.8660   16.0109 C   0  0  0  0  0  0  0  0  0  0  0  0
   13.9850  -18.8801   16.8820 C   0  0  0  0  0  0  0  0  0  0  0  0
   13.2217  -18.1490   17.9084 C   0  0  2  0  0  0  0  0  0  0  0  0
   12.0555  -17.4551   17.3865 N   0  0  0  0  0  0  0  0  0  0  0  0
   14.0241  -17.2477   18.7071 C   0  0  0  0  0  0  0  0  0  0  0  0
   14.0914  -16.0317   18.3034 O   0  0  0  0  0  0  0  0  0  0  0  0
   17.2802  -22.4817   16.3225 N   0  0  0  0  0  0  0  0  0  0  0  0
   14.7372  -17.6092   19.8907 C   0  0  2  0  0  0  0  0  0  0  0  0
   15.4199  -16.5407   20.6383 C   0  0  0  0  0  0  0  0  0  0  0  0
   15.5576  -16.9477   22.0603 C   0  0  0  0  0  0  0  0  0  0  0  0
   16.3722  -15.9637   22.8436 C   0  0  0  0  0  0  0  0  0  0  0  0
   16.5326  -16.4024   24.2695 O   0  0  0  0  0  0  0  0  0  0  0  0
   17.1040  -17.4581   24.6141 C   0  0  0  0  0  0  0  0  0  0  0  0
   16.7585  -16.3333   20.0345 O   0  0  0  0  0  0  0  0  0  0  0  0
   17.4391  -17.1999   19.4683 O   0  0  0  0  0  0  0  0  0  0  0  0
   16.0207  -15.5963   25.2755 O   0  0  0  0  0  0  0  0  0  0  0  0
  2  3  2  0
  2  1  1  0
  4  2  1  0
  5  4  1  0
  5  6  1  0
  6  7  1  1
  6  8  1  0
  8 18  1  0
  9  8  2  0
 10 11  1  0
 11 12  2  0
 11 13  1  0
 13 14  1  0
 15 14  1  0
 16 15  1  0
 17 19  1  0
 17 16  1  6
 18 17  1  0
 19 20  2  0
 21 19  1  0
 21 22  1  0
 22 23  1  1
 23 24  1  0
 25 26  2  0
 25 24  1  0
 27 30  1  0
 27 22  1  0
 28 27  2  0
 29 25  1  0
M  END
$$$$
