QRE.pdb
     RDKit          3D

 30 29  0  0  1  0  0  0  0  0999 V2000
   17.0008  -13.0696   17.7040 N   0  0  0  0  0  0  0  0  0  0  0  0
   16.1656  -13.9779   16.9981 C   0  0  0  0  0  0  0  0  0  0  0  0
   16.4396  -14.1657   15.7936 O   0  0  0  0  0  0  0  0  0  0  0  0
   15.0418  -14.6532   17.6744 C   0  0  0  0  0  0  0  0  0  0  0  0
   15.1750  -14.6847   19.1706 C   0  0  0  0  0  0  0  0  0  0  0  0
   14.6308  -15.9669   19.6924 C   0  0  2  0  0  0  0  0  0  0  0  0
   13.9923  -16.7648   18.6619 N   0  0  0  0  0  0  0  0  0  0  0  0
   13.6593  -15.7373   20.8254 C   0  0  0  0  0  0  0  0  0  0  0  0
   14.0187  -15.0291   21.7779 O   0  0  0  0  0  0  0  0  0  0  0  0
    6.8296  -12.4939   18.9650 N   0  0  0  0  0  0  0  0  0  0  0  0
    6.8303  -12.6244   20.3783 C   0  0  0  0  0  0  0  0  0  0  0  0
    6.9374  -11.5949   21.1785 N   0  0  0  0  0  0  0  0  0  0  0  0
    6.7118  -13.9057   20.9518 N   0  0  0  0  0  0  0  0  0  0  0  0
    7.6287  -14.9901   20.5900 C   0  0  0  0  0  0  0  0  0  0  0  0
    8.9302  -14.8483   21.3214 C   0  0  0  0  0  0  0  0  0  0  0  0
    9.9617  -15.8465   21.0008 C   0  0  0  0  0  0  0  0  0  0  0  0
   11.2734  -15.8211   21.6712 C   0  0  2  0  0  0  0  0  0  0  0  0
   12.3658  -16.2957   20.8373 N   0  0  0  0  0  0  0  0  0  0  0  0
   11.2924  -16.4950   22.9517 C   0  0  0  0  0  0  0  0  0  0  0  0
   11.6348  -17.7315   22.9421 O   0  0  0  0  0  0  0  0  0  0  0  0
    6.9939  -11.8166   22.2099 N   0  0  0  0  0  0  0  0  0  0  0  0
   10.9596  -15.8937   24.2038 C   0  0  2  0  0  0  0  0  0  0  0  0
   11.0323  -16.7310   25.4123 C   0  0  0  0  0  0  0  0  0  0  0  0
   10.8111  -15.8824   26.6112 C   0  0  0  0  0  0  0  0  0  0  0  0
   10.8589  -16.6843   27.8762 C   0  0  0  0  0  0  0  0  0  0  0  0
   10.6476  -15.8145   29.0805 O   0  0  0  0  0  0  0  0  0  0  0  0
   11.4412  -14.9211   29.4431 C   0  0  0  0  0  0  0  0  0  0  0  0
    9.9789  -17.7710   25.3212 O   0  0  0  0  0  0  0  0  0  0  0  0
    8.8653  -17.6290   24.7972 O   0  0  0  0  0  0  0  0  0  0  0  0
    9.5061  -16.0030   29.8456 O   0  0  0  0  0  0  0  0  0  0  0  0
  2  3  2  0
  2  1  1  0
  4  2  1  0
  5  4  1  0
  5  6  1  0
  6  7  1  6
  6  8  1  0
  8 18  1  0
  9  8  2  0
 10 11  1  0
 11 12  2  0
 11 13  1  0
 13 14  1  0
 15 14  1  0
 16 15  1  0
 17 19  1  0
 17 16  1  6
 18 17  1  0
 19 20  2  0
 21 19  1  0
 21 22  1  0
 22 23  1  6
 23 24  1  0
 25 26  2  0
 25 24  1  0
 27 30  1  0
 27 22  1  0
 28 27  2  0
 29 25  1  0
M  END
$$$$
