QRE.pdb
     RDKit          3D

 30 29  0  0  1  0  0  0  0  0999 V2000
   13.5306  -22.1940   20.5692 N   0  0  0  0  0  0  0  0  0  0  0  0
   13.3543  -21.2562   19.5155 C   0  0  0  0  0  0  0  0  0  0  0  0
   14.1066  -20.2587   19.5257 O   0  0  0  0  0  0  0  0  0  0  0  0
   12.3315  -21.4724   18.4745 C   0  0  0  0  0  0  0  0  0  0  0  0
   10.9232  -21.3726   18.9887 C   0  0  0  0  0  0  0  0  0  0  0  0
   10.2656  -20.1704   18.4100 C   0  0  2  0  0  0  0  0  0  0  0  0
   10.6138  -19.9577   17.0171 N   0  0  0  0  0  0  0  0  0  0  0  0
   10.5851  -18.9267   19.2043 C   0  0  0  0  0  0  0  0  0  0  0  0
   11.4845  -18.1779   18.7940 O   0  0  0  0  0  0  0  0  0  0  0  0
    6.9238  -12.1377   20.1000 N   0  0  0  0  0  0  0  0  0  0  0  0
    7.9982  -12.9028   19.5757 C   0  0  0  0  0  0  0  0  0  0  0  0
    8.4941  -12.6921   18.3835 N   0  0  0  0  0  0  0  0  0  0  0  0
    8.5593  -13.9298   20.3598 N   0  0  0  0  0  0  0  0  0  0  0  0
    7.9615  -14.3256   21.6379 C   0  0  0  0  0  0  0  0  0  0  0  0
    8.7272  -15.4600   22.2510 C   0  0  0  0  0  0  0  0  0  0  0  0
    8.7631  -16.7080   21.4735 C   0  0  0  0  0  0  0  0  0  0  0  0
   10.0454  -17.3234   21.0893 C   0  0  2  0  0  0  0  0  0  0  0  0
    9.9000  -18.5889   20.3884 N   0  0  0  0  0  0  0  0  0  0  0  0
   10.9820  -17.4626   22.1837 C   0  0  0  0  0  0  0  0  0  0  0  0
   10.7847  -18.4462   22.9836 O   0  0  0  0  0  0  0  0  0  0  0  0
    9.2664  -13.3473   18.0831 N   0  0  0  0  0  0  0  0  0  0  0  0
   12.0894  -16.5963   22.4351 C   0  0  2  0  0  0  0  0  0  0  0  0
   12.9273  -16.8717   23.6136 C   0  0  0  0  0  0  0  0  0  0  0  0
   14.1530  -16.0350   23.5505 C   0  0  0  0  0  0  0  0  0  0  0  0
   15.0477  -16.4442   22.4203 C   0  0  0  0  0  0  0  0  0  0  0  0
   16.2922  -15.6068   22.3803 O   0  0  0  0  0  0  0  0  0  0  0  0
   16.2921  -14.3627   22.2720 C   0  0  0  0  0  0  0  0  0  0  0  0
   12.1441  -16.5396   24.8284 O   0  0  0  0  0  0  0  0  0  0  0  0
   10.9945  -16.0781   24.8446 O   0  0  0  0  0  0  0  0  0  0  0  0
   17.5233  -16.2395   22.4686 O   0  0  0  0  0  0  0  0  0  0  0  0
  2  3  2  0
  2  1  1  0
  4  2  1  0
  5  4  1  0
  5  6  1  0
  6  7  1  6
  6  8  1  0
  8 18  1  0
  9  8  2  0
 10 11  1  0
 11 12  2  0
 11 13  1  0
 13 14  1  0
 15 14  1  0
 16 15  1  0
 17 19  1  0
 17 16  1  1
 18 17  1  0
 19 20  2  0
 21 19  1  0
 21 22  1  0
 22 23  1  6
 23 24  1  0
 25 26  2  0
 25 24  1  0
 27 30  1  0
 27 22  1  0
 28 27  2  0
 29 25  1  0
M  END
$$$$
