QRE.pdb
     RDKit          3D

 30 29  0  0  1  0  0  0  0  0999 V2000
   14.1978  -18.8790   15.7916 N   0  0  0  0  0  0  0  0  0  0  0  0
   14.8567  -17.6200   15.7484 C   0  0  0  0  0  0  0  0  0  0  0  0
   15.3978  -17.3112   14.6654 O   0  0  0  0  0  0  0  0  0  0  0  0
   14.8847  -16.7406   16.9326 C   0  0  0  0  0  0  0  0  0  0  0  0
   13.5252  -16.4784   17.5161 C   0  0  0  0  0  0  0  0  0  0  0  0
   13.3462  -15.0166   17.7248 C   0  0  2  0  0  0  0  0  0  0  0  0
   14.6070  -14.2996   17.7753 N   0  0  0  0  0  0  0  0  0  0  0  0
   12.5525  -14.7279   18.9766 C   0  0  0  0  0  0  0  0  0  0  0  0
   13.1662  -14.5708   20.0427 O   0  0  0  0  0  0  0  0  0  0  0  0
    7.2754  -12.8851   15.2042 N   0  0  0  0  0  0  0  0  0  0  0  0
    7.5738  -14.1492   15.7766 C   0  0  0  0  0  0  0  0  0  0  0  0
    7.8788  -15.1942   15.0509 N   0  0  0  0  0  0  0  0  0  0  0  0
    7.5437  -14.2955   17.1773 N   0  0  0  0  0  0  0  0  0  0  0  0
    7.4412  -13.1322   18.0627 C   0  0  0  0  0  0  0  0  0  0  0  0
    8.7006  -12.9609   18.8586 C   0  0  0  0  0  0  0  0  0  0  0  0
    8.9620  -13.9863   19.8802 C   0  0  0  0  0  0  0  0  0  0  0  0
   10.3352  -14.4372   20.1657 C   0  0  2  0  0  0  0  0  0  0  0  0
   11.1468  -14.6305   18.9750 N   0  0  0  0  0  0  0  0  0  0  0  0
   10.4053  -15.6073   21.0142 C   0  0  0  0  0  0  0  0  0  0  0  0
   10.6608  -16.7216   20.4317 O   0  0  0  0  0  0  0  0  0  0  0  0
    8.1658  -16.0589   15.5856 N   0  0  0  0  0  0  0  0  0  0  0  0
   10.2104  -15.6114   22.4292 C   0  0  1  0  0  0  0  0  0  0  0  0
   10.8766  -16.6632   23.2144 C   0  0  0  0  0  0  0  0  0  0  0  0
   12.3488  -16.5069   23.0944 C   0  0  0  0  0  0  0  0  0  0  0  0
   13.0840  -17.5878   23.8271 C   0  0  0  0  0  0  0  0  0  0  0  0
   14.5680  -17.4526   23.6512 O   0  0  0  0  0  0  0  0  0  0  0  0
   15.1218  -17.2184   22.5566 C   0  0  0  0  0  0  0  0  0  0  0  0
   10.4614  -16.5191   24.6309 O   0  0  0  0  0  0  0  0  0  0  0  0
   10.6957  -17.3280   25.5395 O   0  0  0  0  0  0  0  0  0  0  0  0
   15.3855  -17.5933   24.7627 O   0  0  0  0  0  0  0  0  0  0  0  0
  2  3  2  0
  2  1  1  0
  4  2  1  0
  5  4  1  0
  5  6  1  0
  6  7  1  1
  6  8  1  0
  8 18  1  0
  9  8  2  0
 10 11  1  0
 11 12  2  0
 11 13  1  0
 13 14  1  0
 15 14  1  0
 16 15  1  0
 17 19  1  0
 17 16  1  6
 18 17  1  0
 19 20  2  0
 21 19  1  0
 21 22  1  0
 22 23  1  1
 23 24  1  0
 25 26  2  0
 25 24  1  0
 27 30  1  0
 27 22  1  0
 28 27  2  0
 29 25  1  0
M  END
$$$$
