QRE.pdb
     RDKit          3D

 30 29  0  0  1  0  0  0  0  0999 V2000
    9.5375  -14.6123   13.7423 N   0  0  0  0  0  0  0  0  0  0  0  0
    9.7895  -15.9480   13.3261 C   0  0  0  0  0  0  0  0  0  0  0  0
    9.7772  -16.1597   12.0948 O   0  0  0  0  0  0  0  0  0  0  0  0
   10.0514  -17.0111   14.3149 C   0  0  0  0  0  0  0  0  0  0  0  0
    9.7460  -16.6029   15.7283 C   0  0  0  0  0  0  0  0  0  0  0  0
   10.1675  -17.6824   16.6608 C   0  0  2  0  0  0  0  0  0  0  0  0
    9.4623  -18.9295   16.4290 N   0  0  0  0  0  0  0  0  0  0  0  0
    9.9968  -17.2679   18.1027 C   0  0  0  0  0  0  0  0  0  0  0  0
   10.6673  -16.3151   18.5274 O   0  0  0  0  0  0  0  0  0  0  0  0
    4.4077  -22.0482   22.3129 N   0  0  0  0  0  0  0  0  0  0  0  0
    5.6164  -22.1886   23.0435 C   0  0  0  0  0  0  0  0  0  0  0  0
    5.8206  -23.1731   23.8807 N   0  0  0  0  0  0  0  0  0  0  0  0
    6.6414  -21.2382   22.8686 N   0  0  0  0  0  0  0  0  0  0  0  0
    6.4647  -20.0808   21.9873 C   0  0  0  0  0  0  0  0  0  0  0  0
    7.7551  -19.3325   21.8322 C   0  0  0  0  0  0  0  0  0  0  0  0
    7.7074  -18.1357   20.9785 C   0  0  0  0  0  0  0  0  0  0  0  0
    8.9355  -17.5834   20.3807 C   0  0  2  0  0  0  0  0  0  0  0  0
    9.1063  -17.9221   18.9771 N   0  0  0  0  0  0  0  0  0  0  0  0
   10.1402  -17.8932   21.1202 C   0  0  0  0  0  0  0  0  0  0  0  0
   10.6158  -19.0753   20.9691 O   0  0  0  0  0  0  0  0  0  0  0  0
    6.7211  -23.1307   24.4313 N   0  0  0  0  0  0  0  0  0  0  0  0
   10.8243  -16.9942   21.9941 C   0  0  1  0  0  0  0  0  0  0  0  0
   12.0528  -17.4706   22.6502 C   0  0  0  0  0  0  0  0  0  0  0  0
   13.1549  -16.5109   22.3841 C   0  0  0  0  0  0  0  0  0  0  0  0
   14.3993  -16.8709   23.1374 C   0  0  0  0  0  0  0  0  0  0  0  0
   15.5171  -15.9184   22.8292 O   0  0  0  0  0  0  0  0  0  0  0  0
   15.4649  -15.0483   21.9350 C   0  0  0  0  0  0  0  0  0  0  0  0
   11.7958  -17.5616   24.1080 O   0  0  0  0  0  0  0  0  0  0  0  0
   12.4532  -18.2295   24.9183 O   0  0  0  0  0  0  0  0  0  0  0  0
   16.6838  -15.9979   23.5749 O   0  0  0  0  0  0  0  0  0  0  0  0
  2  3  2  0
  2  1  1  0
  4  2  1  0
  5  4  1  0
  5  6  1  0
  6  7  1  6
  6  8  1  0
  8 18  1  0
  9  8  2  0
 10 11  1  0
 11 12  2  0
 11 13  1  0
 13 14  1  0
 15 14  1  0
 16 15  1  0
 17 19  1  0
 17 16  1  1
 18 17  1  0
 19 20  2  0
 21 19  1  0
 21 22  1  0
 22 23  1  1
 23 24  1  0
 25 26  2  0
 25 24  1  0
 27 30  1  0
 27 22  1  0
 28 27  2  0
 29 25  1  0
M  END
$$$$
