QRE.pdb
     RDKit          3D

 30 29  0  0  1  0  0  0  0  0999 V2000
    8.4785  -12.7322   15.3482 N   0  0  0  0  0  0  0  0  0  0  0  0
    8.3219  -14.0651   14.8796 C   0  0  0  0  0  0  0  0  0  0  0  0
    8.0456  -14.2012   13.6688 O   0  0  0  0  0  0  0  0  0  0  0  0
    8.4844  -15.2117   15.7937 C   0  0  0  0  0  0  0  0  0  0  0  0
    8.7723  -14.8102   17.2127 C   0  0  0  0  0  0  0  0  0  0  0  0
    9.0226  -16.0253   18.0332 C   0  0  2  0  0  0  0  0  0  0  0  0
    7.9423  -16.9908   17.9480 N   0  0  0  0  0  0  0  0  0  0  0  0
    9.2721  -15.6756   19.4808 C   0  0  0  0  0  0  0  0  0  0  0  0
   10.3757  -15.2040   19.7934 O   0  0  0  0  0  0  0  0  0  0  0  0
    5.4947  -12.1182   26.5294 N   0  0  0  0  0  0  0  0  0  0  0  0
    6.8513  -12.5201   26.6417 C   0  0  0  0  0  0  0  0  0  0  0  0
    7.6935  -11.9309   27.4513 N   0  0  0  0  0  0  0  0  0  0  0  0
    7.3193  -13.5923   25.8570 N   0  0  0  0  0  0  0  0  0  0  0  0
    6.5980  -14.0316   24.6593 C   0  0  0  0  0  0  0  0  0  0  0  0
    7.2164  -15.2764   24.0964 C   0  0  0  0  0  0  0  0  0  0  0  0
    7.2170  -15.3892   22.6299 C   0  0  0  0  0  0  0  0  0  0  0  0
    8.4800  -15.5074   21.8806 C   0  0  2  0  0  0  0  0  0  0  0  0
    8.2997  -15.8646   20.4829 N   0  0  0  0  0  0  0  0  0  0  0  0
    9.4509  -16.3840   22.4997 C   0  0  0  0  0  0  0  0  0  0  0  0
    9.2764  -17.6433   22.3270 O   0  0  0  0  0  0  0  0  0  0  0  0
    8.6867  -12.2896   27.4241 N   0  0  0  0  0  0  0  0  0  0  0  0
   10.5687  -15.9554   23.2786 C   0  0  2  0  0  0  0  0  0  0  0  0
   11.4740  -16.9862   23.8119 C   0  0  0  0  0  0  0  0  0  0  0  0
   12.8772  -16.5113   23.7025 C   0  0  0  0  0  0  0  0  0  0  0  0
   13.8211  -17.6331   23.3923 C   0  0  0  0  0  0  0  0  0  0  0  0
   15.2277  -17.1341   23.2378 O   0  0  0  0  0  0  0  0  0  0  0  0
   16.2070  -17.8720   23.0012 C   0  0  0  0  0  0  0  0  0  0  0  0
   11.1240  -17.2216   25.2338 O   0  0  0  0  0  0  0  0  0  0  0  0
   10.3707  -16.5168   25.9198 O   0  0  0  0  0  0  0  0  0  0  0  0
   15.4689  -15.7740   23.3624 O   0  0  0  0  0  0  0  0  0  0  0  0
  2  3  2  0
  2  1  1  0
  4  2  1  0
  5  4  1  0
  5  6  1  0
  6  7  1  1
  6  8  1  0
  8 18  1  0
  9  8  2  0
 10 11  1  0
 11 12  2  0
 11 13  1  0
 13 14  1  0
 15 14  1  0
 16 15  1  0
 17 19  1  0
 17 16  1  1
 18 17  1  0
 19 20  2  0
 21 19  1  0
 21 22  1  0
 22 23  1  6
 23 24  1  0
 25 26  2  0
 25 24  1  0
 27 30  1  0
 27 22  1  0
 28 27  2  0
 29 25  1  0
M  END
$$$$
