NRM.pdb
     RDKit          3D

 28 27  0  0  1  0  0  0  0  0999 V2000
    9.1871  -14.1089   14.7987 N   0  0  0  0  0  0  0  0  0  0  0  0
    8.0650  -14.2939   15.6413 C   0  0  0  0  0  0  0  0  0  0  0  0
    7.0353  -13.6272   15.3836 O   0  0  0  0  0  0  0  0  0  0  0  0
    8.0661  -15.2186   16.7801 C   0  0  0  0  0  0  0  0  0  0  0  0
    8.5257  -14.4911   18.0126 C   0  0  2  0  0  0  0  0  0  0  0  0
    9.9375  -14.1726   17.8694 N   0  0  0  0  0  0  0  0  0  0  0  0
    8.3790  -15.3093   19.2417 C   0  0  0  0  0  0  0  0  0  0  0  0
    7.2435  -15.6428   19.6645 O   0  0  0  0  0  0  0  0  0  0  0  0
   10.3478  -21.8744   22.2490 N   0  0  0  0  0  0  0  0  0  0  0  0
   11.4176  -21.4782   23.1305 C   0  0  0  0  0  0  0  0  0  0  0  0
   11.6935  -22.1812   24.1799 N   0  0  0  0  0  0  0  0  0  0  0  0
   12.1791  -20.3217   22.8647 N   0  0  0  0  0  0  0  0  0  0  0  0
   11.9063  -19.6373   21.5657 C   0  0  0  0  0  0  0  0  0  0  0  0
   10.8831  -18.6208   21.8726 C   0  0  0  0  0  0  0  0  0  0  0  0
   10.4605  -17.6136   20.9088 C   0  0  0  0  0  0  0  0  0  0  0  0
    9.4063  -16.6130   21.1681 C   0  0  2  0  0  0  0  0  0  0  0  0
    9.5092  -15.7189   19.9446 N   0  0  0  0  0  0  0  0  0  0  0  0
    9.5514  -15.6938   22.2923 C   0  0  0  0  0  0  0  0  0  0  0  0
   10.4924  -14.8907   22.3961 O   0  0  0  0  0  0  0  0  0  0  0  0
   12.4389  -21.8729   24.8360 C   0  0  0  0  0  0  0  0  0  0  0  0
    6.3526  -10.6463   27.1360 S   0  0  0  0  0  0  0  0  0  0  0  0
    6.2737  -11.7446   25.7198 C   0  0  0  0  0  0  0  0  0  0  0  0
    7.6942  -12.8797   25.7494 C   0  0  0  0  0  0  0  0  0  0  0  0
    7.6531  -13.7958   24.5595 C   0  0  1  0  0  0  0  0  0  0  0  0
    8.8223  -14.7199   24.5140 N   0  0  0  0  0  0  0  0  0  0  0  0
    8.6100  -15.6438   23.3787 C   0  0  0  0  0  0  0  0  0  0  0  0
    8.8762  -15.5509   25.7259 O   0  0  0  0  0  0  0  0  0  0  0  0
    9.4330  -15.1332   26.9184 O   0  0  0  0  0  0  0  0  0  0  0  0
  1  2  1  0
  2  3  2  0
  4  2  1  0
  5  4  1  0
  5  6  1  6
  7  8  2  0
  7  5  1  0
  9 10  1  0
 10 12  1  0
 11 10  2  0
 12 13  1  0
 14 13  1  0
 15 14  1  0
 16 15  1  6
 16 17  1  0
 17  7  1  0
 18 19  2  0
 18 16  1  0
 20 21  1  0
 22 21  1  0
 24 23  1  6
 23 22  1  0
 24 25  1  0
 25 18  1  0
 26 24  1  0
 27 26  1  0
 28 26  2  0
M  END
$$$$
