NRM.pdb
     RDKit          3D

 28 27  0  0  1  0  0  0  0  0999 V2000
    8.2608  -12.2668   17.2852 N   0  0  0  0  0  0  0  0  0  0  0  0
    8.7863  -13.3458   18.0355 C   0  0  0  0  0  0  0  0  0  0  0  0
    9.7863  -13.9393   17.5677 O   0  0  0  0  0  0  0  0  0  0  0  0
    8.2134  -13.7832   19.3132 C   0  0  0  0  0  0  0  0  0  0  0  0
    8.3359  -15.2769   19.4292 C   0  0  2  0  0  0  0  0  0  0  0  0
    7.4457  -15.8966   18.4604 N   0  0  0  0  0  0  0  0  0  0  0  0
    7.9455  -15.7753   20.7711 C   0  0  0  0  0  0  0  0  0  0  0  0
    6.9127  -15.3465   21.3445 O   0  0  0  0  0  0  0  0  0  0  0  0
    4.7708  -21.0833   21.6201 N   0  0  0  0  0  0  0  0  0  0  0  0
    5.3906  -21.8329   22.6843 C   0  0  0  0  0  0  0  0  0  0  0  0
    4.6671  -22.5199   23.5066 N   0  0  0  0  0  0  0  0  0  0  0  0
    6.7913  -21.8304   22.8462 N   0  0  0  0  0  0  0  0  0  0  0  0
    7.5445  -20.8145   22.0519 C   0  0  0  0  0  0  0  0  0  0  0  0
    8.0782  -19.8655   23.0465 C   0  0  0  0  0  0  0  0  0  0  0  0
    8.8479  -18.6860   22.6747 C   0  0  0  0  0  0  0  0  0  0  0  0
    8.3370  -17.3037   22.7652 C   0  0  2  0  0  0  0  0  0  0  0  0
    8.7276  -16.7318   21.4133 N   0  0  0  0  0  0  0  0  0  0  0  0
    8.9325  -16.3809   23.7262 C   0  0  0  0  0  0  0  0  0  0  0  0
   10.1001  -15.9683   23.6383 O   0  0  0  0  0  0  0  0  0  0  0  0
    5.1183  -23.1256   24.2213 C   0  0  0  0  0  0  0  0  0  0  0  0
    5.5295  -12.0179   26.6003 S   0  0  0  0  0  0  0  0  0  0  0  0
    7.1052  -11.5110   27.2919 C   0  0  0  0  0  0  0  0  0  0  0  0
    8.3207  -12.8474   27.0819 C   0  0  0  0  0  0  0  0  0  0  0  0
    7.8490  -13.8205   26.0391 C   0  0  1  0  0  0  0  0  0  0  0  0
    8.8435  -14.9008   25.7798 N   0  0  0  0  0  0  0  0  0  0  0  0
    8.2102  -15.8716   24.8610 C   0  0  0  0  0  0  0  0  0  0  0  0
    9.1503  -15.6335   27.0171 O   0  0  0  0  0  0  0  0  0  0  0  0
   10.0345  -15.1823   27.9768 O   0  0  0  0  0  0  0  0  0  0  0  0
  1  2  1  0
  2  3  2  0
  4  2  1  0
  5  4  1  0
  5  6  1  6
  7  8  2  0
  7  5  1  0
  9 10  1  0
 10 12  1  0
 11 10  2  0
 12 13  1  0
 14 13  1  0
 15 14  1  0
 16 15  1  1
 16 17  1  0
 17  7  1  0
 18 19  2  0
 18 16  1  0
 20 21  1  0
 22 21  1  0
 24 23  1  6
 23 22  1  0
 24 25  1  0
 25 18  1  0
 26 24  1  0
 27 26  1  0
 28 26  2  0
M  END
$$$$
