NRM.pdb
     RDKit          3D

 28 27  0  0  1  0  0  0  0  0999 V2000
    7.2422  -13.7665   15.5747 N   0  0  0  0  0  0  0  0  0  0  0  0
    7.9977  -13.7187   16.7707 C   0  0  0  0  0  0  0  0  0  0  0  0
    9.2245  -13.4835   16.6676 O   0  0  0  0  0  0  0  0  0  0  0  0
    7.4070  -13.9304   18.0967 C   0  0  0  0  0  0  0  0  0  0  0  0
    8.4552  -14.4706   19.0289 C   0  0  2  0  0  0  0  0  0  0  0  0
    9.1276  -15.5860   18.3819 N   0  0  0  0  0  0  0  0  0  0  0  0
    7.8780  -14.9777   20.2983 C   0  0  0  0  0  0  0  0  0  0  0  0
    7.1205  -14.2582   20.9968 O   0  0  0  0  0  0  0  0  0  0  0  0
    6.8016  -21.5553   25.0611 N   0  0  0  0  0  0  0  0  0  0  0  0
    6.3246  -21.8506   23.7330 C   0  0  0  0  0  0  0  0  0  0  0  0
    5.2517  -22.5523   23.5653 N   0  0  0  0  0  0  0  0  0  0  0  0
    7.0168  -21.3808   22.5979 N   0  0  0  0  0  0  0  0  0  0  0  0
    8.2773  -20.6246   22.8611 C   0  0  0  0  0  0  0  0  0  0  0  0
    7.8617  -19.2158   22.9924 C   0  0  0  0  0  0  0  0  0  0  0  0
    7.9051  -18.2757   21.8805 C   0  0  0  0  0  0  0  0  0  0  0  0
    7.5583  -16.8451   21.9943 C   0  0  2  0  0  0  0  0  0  0  0  0
    8.1733  -16.2679   20.7311 N   0  0  0  0  0  0  0  0  0  0  0  0
    8.1428  -16.0492   23.0689 C   0  0  0  0  0  0  0  0  0  0  0  0
    9.3517  -15.7738   23.1302 O   0  0  0  0  0  0  0  0  0  0  0  0
    4.9139  -22.7721   22.6069 C   0  0  0  0  0  0  0  0  0  0  0  0
    6.8499   -9.8547   26.1222 S   0  0  0  0  0  0  0  0  0  0  0  0
    6.2486  -11.3528   26.9048 C   0  0  0  0  0  0  0  0  0  0  0  0
    7.4393  -12.7008   26.6355 C   0  0  0  0  0  0  0  0  0  0  0  0
    6.9634  -13.6026   25.5323 C   0  0  1  0  0  0  0  0  0  0  0  0
    7.9796  -14.6280   25.1593 N   0  0  0  0  0  0  0  0  0  0  0  0
    7.3602  -15.5163   24.1518 C   0  0  0  0  0  0  0  0  0  0  0  0
    8.3138  -15.4738   26.3146 O   0  0  0  0  0  0  0  0  0  0  0  0
    9.3237  -15.1845   27.2106 O   0  0  0  0  0  0  0  0  0  0  0  0
  1  2  1  0
  2  3  2  0
  4  2  1  0
  5  4  1  0
  5  6  1  6
  7  8  2  0
  7  5  1  0
  9 10  1  0
 10 12  1  0
 11 10  2  0
 12 13  1  0
 14 13  1  0
 15 14  1  0
 16 15  1  1
 16 17  1  0
 17  7  1  0
 18 19  2  0
 18 16  1  0
 20 21  1  0
 22 21  1  0
 24 23  1  6
 23 22  1  0
 24 25  1  0
 25 18  1  0
 26 24  1  0
 27 26  1  0
 28 26  2  0
M  END
$$$$
