NRM.pdb
     RDKit          3D

 28 27  0  0  1  0  0  0  0  0999 V2000
   13.2373  -18.1938   17.2786 N   0  0  0  0  0  0  0  0  0  0  0  0
   12.2111  -17.2612   16.9951 C   0  0  0  0  0  0  0  0  0  0  0  0
   12.1052  -16.8638   15.8110 O   0  0  0  0  0  0  0  0  0  0  0  0
   11.2879  -16.7552   18.0168 C   0  0  0  0  0  0  0  0  0  0  0  0
   11.6966  -17.2835   19.3635 C   0  0  2  0  0  0  0  0  0  0  0  0
   11.2299  -18.6551   19.4900 N   0  0  0  0  0  0  0  0  0  0  0  0
   11.1020  -16.5088   20.4806 C   0  0  0  0  0  0  0  0  0  0  0  0
   11.7238  -15.5514   21.0061 O   0  0  0  0  0  0  0  0  0  0  0  0
    7.9165  -12.9301   18.1691 N   0  0  0  0  0  0  0  0  0  0  0  0
    7.9149  -12.8219   19.6068 C   0  0  0  0  0  0  0  0  0  0  0  0
    8.2179  -11.7022   20.1778 N   0  0  0  0  0  0  0  0  0  0  0  0
    7.5838  -13.9307   20.4123 N   0  0  0  0  0  0  0  0  0  0  0  0
    7.1921  -15.1771   19.6889 C   0  0  0  0  0  0  0  0  0  0  0  0
    6.8377  -16.1417   20.7464 C   0  0  0  0  0  0  0  0  0  0  0  0
    7.7246  -16.4493   21.8604 C   0  0  0  0  0  0  0  0  0  0  0  0
    9.1141  -15.9622   21.9689 C   0  0  2  0  0  0  0  0  0  0  0  0
    9.8375  -16.8389   20.9614 N   0  0  0  0  0  0  0  0  0  0  0  0
    9.8507  -16.1682   23.2118 C   0  0  0  0  0  0  0  0  0  0  0  0
   10.7444  -17.0204   23.3387 O   0  0  0  0  0  0  0  0  0  0  0  0
    8.3480  -11.6580   21.2085 C   0  0  0  0  0  0  0  0  0  0  0  0
   10.4223  -14.1096   30.8447 S   0  0  0  0  0  0  0  0  0  0  0  0
    9.9996  -13.6168   29.1723 C   0  0  0  0  0  0  0  0  0  0  0  0
   10.5254  -14.9088   28.0054 C   0  0  0  0  0  0  0  0  0  0  0  0
    9.9532  -14.6428   26.6422 C   0  0  1  0  0  0  0  0  0  0  0  0
   10.2950  -15.7150   25.6640 N   0  0  0  0  0  0  0  0  0  0  0  0
    9.5989  -15.3955   24.3987 C   0  0  0  0  0  0  0  0  0  0  0  0
    9.7732  -17.0143   26.1128 O   0  0  0  0  0  0  0  0  0  0  0  0
   10.5292  -17.9539   26.7851 O   0  0  0  0  0  0  0  0  0  0  0  0
  1  2  1  0
  2  3  2  0
  4  2  1  0
  5  4  1  0
  5  6  1  1
  7  8  2  0
  7  5  1  0
  9 10  1  0
 10 12  1  0
 11 10  2  0
 12 13  1  0
 14 13  1  0
 15 14  1  0
 16 15  1  1
 16 17  1  0
 17  7  1  0
 18 19  2  0
 18 16  1  0
 20 21  1  0
 22 21  1  0
 24 23  1  6
 23 22  1  0
 24 25  1  0
 25 18  1  0
 26 24  1  0
 27 26  1  0
 28 26  2  0
M  END
$$$$
