NRM.pdb
     RDKit          3D

 28 27  0  0  1  0  0  0  0  0999 V2000
    8.2180  -12.9450   16.7381 N   0  0  0  0  0  0  0  0  0  0  0  0
    8.9492  -13.6387   17.7317 C   0  0  0  0  0  0  0  0  0  0  0  0
   10.1733  -13.8152   17.5279 O   0  0  0  0  0  0  0  0  0  0  0  0
    8.3370  -14.1467   18.9643 C   0  0  0  0  0  0  0  0  0  0  0  0
    8.3906  -15.6489   18.9653 C   0  0  2  0  0  0  0  0  0  0  0  0
    7.5304  -16.1491   17.9047 N   0  0  0  0  0  0  0  0  0  0  0  0
    7.9062  -16.2327   20.2405 C   0  0  0  0  0  0  0  0  0  0  0  0
    6.7257  -16.6485   20.3538 O   0  0  0  0  0  0  0  0  0  0  0  0
    6.7294  -22.0476   25.2434 N   0  0  0  0  0  0  0  0  0  0  0  0
    6.2381  -21.5193   23.9952 C   0  0  0  0  0  0  0  0  0  0  0  0
    5.0523  -21.8232   23.5789 N   0  0  0  0  0  0  0  0  0  0  0  0
    7.0387  -20.6649   23.2096 N   0  0  0  0  0  0  0  0  0  0  0  0
    8.5007  -20.6673   23.5144 C   0  0  0  0  0  0  0  0  0  0  0  0
    8.8643  -19.2468   23.6711 C   0  0  0  0  0  0  0  0  0  0  0  0
    8.8482  -18.3033   22.5614 C   0  0  0  0  0  0  0  0  0  0  0  0
    8.3118  -16.9307   22.6517 C   0  0  2  0  0  0  0  0  0  0  0  0
    8.7637  -16.3259   21.3338 N   0  0  0  0  0  0  0  0  0  0  0  0
    8.8417  -16.0190   23.6606 C   0  0  0  0  0  0  0  0  0  0  0  0
    9.9791  -15.5254   23.5999 O   0  0  0  0  0  0  0  0  0  0  0  0
    4.7086  -21.4613   22.6668 C   0  0  0  0  0  0  0  0  0  0  0  0
    5.1197  -12.0990   27.1838 S   0  0  0  0  0  0  0  0  0  0  0  0
    6.7570  -11.3894   27.3685 C   0  0  0  0  0  0  0  0  0  0  0  0
    8.0112  -12.6904   27.1642 C   0  0  0  0  0  0  0  0  0  0  0  0
    7.6148  -13.6261   26.0579 C   0  0  1  0  0  0  0  0  0  0  0  0
    8.6537  -14.6619   25.7911 N   0  0  0  0  0  0  0  0  0  0  0  0
    8.0841  -15.6162   24.8151 C   0  0  0  0  0  0  0  0  0  0  0  0
    8.9453  -15.4322   27.0090 O   0  0  0  0  0  0  0  0  0  0  0  0
    9.6871  -14.9441   28.0663 O   0  0  0  0  0  0  0  0  0  0  0  0
  1  2  1  0
  2  3  2  0
  4  2  1  0
  5  4  1  0
  5  6  1  6
  7  8  2  0
  7  5  1  0
  9 10  1  0
 10 12  1  0
 11 10  2  0
 12 13  1  0
 14 13  1  0
 15 14  1  0
 16 15  1  1
 16 17  1  0
 17  7  1  0
 18 19  2  0
 18 16  1  0
 20 21  1  0
 22 21  1  0
 24 23  1  6
 23 22  1  0
 24 25  1  0
 25 18  1  0
 26 24  1  0
 27 26  1  0
 28 26  2  0
M  END
$$$$
