NRM.pdb
     RDKit          3D

 28 27  0  0  1  0  0  0  0  0999 V2000
   15.7025  -14.2633   18.5089 N   0  0  0  0  0  0  0  0  0  0  0  0
   14.4297  -14.7564   18.1346 C   0  0  0  0  0  0  0  0  0  0  0  0
   14.3732  -15.4967   17.1248 O   0  0  0  0  0  0  0  0  0  0  0  0
   13.2020  -14.4378   18.8718 C   0  0  0  0  0  0  0  0  0  0  0  0
   12.8732  -15.5692   19.8053 C   0  0  2  0  0  0  0  0  0  0  0  0
   12.1409  -16.5869   19.0683 N   0  0  0  0  0  0  0  0  0  0  0  0
   12.0156  -15.1393   20.9372 C   0  0  0  0  0  0  0  0  0  0  0  0
   12.4758  -14.4217   21.8606 O   0  0  0  0  0  0  0  0  0  0  0  0
    8.5569  -14.5076   16.0874 N   0  0  0  0  0  0  0  0  0  0  0  0
    8.0144  -13.9131   17.2836 C   0  0  0  0  0  0  0  0  0  0  0  0
    8.1874  -12.6544   17.5237 N   0  0  0  0  0  0  0  0  0  0  0  0
    7.2882  -14.6905   18.2090 N   0  0  0  0  0  0  0  0  0  0  0  0
    6.8231  -13.9852   19.4404 C   0  0  0  0  0  0  0  0  0  0  0  0
    8.0194  -13.8719   20.2952 C   0  0  0  0  0  0  0  0  0  0  0  0
    8.4405  -14.9299   21.2037 C   0  0  0  0  0  0  0  0  0  0  0  0
    9.7030  -14.9078   21.9688 C   0  0  2  0  0  0  0  0  0  0  0  0
   10.6802  -15.5309   20.9870 N   0  0  0  0  0  0  0  0  0  0  0  0
    9.8297  -15.7320   23.1666 C   0  0  0  0  0  0  0  0  0  0  0  0
   10.3416  -16.8629   23.1621 O   0  0  0  0  0  0  0  0  0  0  0  0
    7.7926  -12.2263   18.3851 C   0  0  0  0  0  0  0  0  0  0  0  0
   11.2692  -14.1690   30.7267 S   0  0  0  0  0  0  0  0  0  0  0  0
   10.5316  -13.6820   29.1656 C   0  0  0  0  0  0  0  0  0  0  0  0
   10.5780  -15.0828   28.0067 C   0  0  0  0  0  0  0  0  0  0  0  0
   10.0298  -14.6707   26.6702 C   0  0  1  0  0  0  0  0  0  0  0  0
   10.0134  -15.7960   25.6921 N   0  0  0  0  0  0  0  0  0  0  0  0
    9.3681  -15.2979   24.4579 C   0  0  0  0  0  0  0  0  0  0  0  0
    9.1783  -16.9014   26.1846 O   0  0  0  0  0  0  0  0  0  0  0  0
    9.6576  -17.9386   26.9598 O   0  0  0  0  0  0  0  0  0  0  0  0
  1  2  1  0
  2  3  2  0
  4  2  1  0
  5  4  1  0
  5  6  1  6
  7  8  2  0
  7  5  1  0
  9 10  1  0
 10 12  1  0
 11 10  2  0
 12 13  1  0
 14 13  1  0
 15 14  1  0
 16 15  1  6
 16 17  1  0
 17  7  1  0
 18 19  2  0
 18 16  1  0
 20 21  1  0
 22 21  1  0
 24 23  1  6
 23 22  1  0
 24 25  1  0
 25 18  1  0
 26 24  1  0
 27 26  1  0
 28 26  2  0
M  END
$$$$
