NRM.pdb
     RDKit          3D

 28 27  0  0  1  0  0  0  0  0999 V2000
   15.1821  -21.5899   20.5375 N   0  0  0  0  0  0  0  0  0  0  0  0
   13.9521  -20.9085   20.3761 C   0  0  0  0  0  0  0  0  0  0  0  0
   13.1927  -21.3005   19.4592 O   0  0  0  0  0  0  0  0  0  0  0  0
   13.5449  -19.7845   21.2265 C   0  0  0  0  0  0  0  0  0  0  0  0
   13.0405  -18.6628   20.3623 C   0  0  2  0  0  0  0  0  0  0  0  0
   14.1572  -18.1117   19.6111 N   0  0  0  0  0  0  0  0  0  0  0  0
   12.4519  -17.5561   21.1563 C   0  0  0  0  0  0  0  0  0  0  0  0
   13.1183  -16.5234   21.4188 O   0  0  0  0  0  0  0  0  0  0  0  0
    8.2261  -14.1884   18.8523 N   0  0  0  0  0  0  0  0  0  0  0  0
    7.6540  -13.3013   19.8342 C   0  0  0  0  0  0  0  0  0  0  0  0
    7.8969  -12.0322   19.7882 N   0  0  0  0  0  0  0  0  0  0  0  0
    6.8226  -13.7999   20.8580 N   0  0  0  0  0  0  0  0  0  0  0  0
    6.9248  -15.2637   21.1355 C   0  0  0  0  0  0  0  0  0  0  0  0
    8.1493  -15.4187   21.9425 C   0  0  0  0  0  0  0  0  0  0  0  0
    9.1880  -16.3873   21.6185 C   0  0  0  0  0  0  0  0  0  0  0  0
   10.4678  -16.5007   22.3459 C   0  0  2  0  0  0  0  0  0  0  0  0
   11.1433  -17.6527   21.6222 N   0  0  0  0  0  0  0  0  0  0  0  0
   10.4626  -16.9150   23.7452 C   0  0  0  0  0  0  0  0  0  0  0  0
   10.5068  -18.1032   24.1021 O   0  0  0  0  0  0  0  0  0  0  0  0
    7.5191  -11.3995   20.5217 C   0  0  0  0  0  0  0  0  0  0  0  0
   10.3219  -12.6212   28.4947 S   0  0  0  0  0  0  0  0  0  0  0  0
   10.5876  -14.0396   29.5605 C   0  0  0  0  0  0  0  0  0  0  0  0
   10.7521  -15.5406   28.5470 C   0  0  0  0  0  0  0  0  0  0  0  0
   10.4876  -15.2245   27.1024 C   0  0  2  0  0  0  0  0  0  0  0  0
   10.6613  -16.4140   26.2202 N   0  0  0  0  0  0  0  0  0  0  0  0
   10.4050  -15.9739   24.8315 C   0  0  0  0  0  0  0  0  0  0  0  0
    9.6545  -17.4407   26.5269 O   0  0  0  0  0  0  0  0  0  0  0  0
    9.8895  -18.5240   27.3501 O   0  0  0  0  0  0  0  0  0  0  0  0
  1  2  1  0
  2  3  2  0
  4  2  1  0
  5  4  1  0
  5  6  1  1
  7  8  2  0
  7  5  1  0
  9 10  1  0
 10 12  1  0
 11 10  2  0
 12 13  1  0
 14 13  1  0
 15 14  1  0
 16 15  1  6
 16 17  1  0
 17  7  1  0
 18 19  2  0
 18 16  1  0
 20 21  1  0
 22 21  1  0
 24 23  1  6
 23 22  1  0
 24 25  1  0
 25 18  1  0
 26 24  1  0
 27 26  1  0
 28 26  2  0
M  END
$$$$
