NRM.pdb
     RDKit          3D

 28 27  0  0  1  0  0  0  0  0999 V2000
    2.9183  -18.0184   20.8963 N   0  0  0  0  0  0  0  0  0  0  0  0
    3.4846  -19.2496   21.3043 C   0  0  0  0  0  0  0  0  0  0  0  0
    2.7586  -20.2689   21.2332 O   0  0  0  0  0  0  0  0  0  0  0  0
    4.8612  -19.3707   21.7965 C   0  0  0  0  0  0  0  0  0  0  0  0
    5.4618  -18.0002   21.9400 C   0  0  2  0  0  0  0  0  0  0  0  0
    5.6001  -17.4087   20.6186 N   0  0  0  0  0  0  0  0  0  0  0  0
    6.8125  -18.0344   22.5531 C   0  0  0  0  0  0  0  0  0  0  0  0
    6.9763  -18.4314   23.7342 O   0  0  0  0  0  0  0  0  0  0  0  0
   12.2534  -13.8625   18.3434 N   0  0  0  0  0  0  0  0  0  0  0  0
   13.0979  -14.6720   19.1860 C   0  0  0  0  0  0  0  0  0  0  0  0
   14.2683  -14.2490   19.5368 N   0  0  0  0  0  0  0  0  0  0  0  0
   12.6642  -15.9342   19.6407 N   0  0  0  0  0  0  0  0  0  0  0  0
   11.2813  -16.3371   19.2464 C   0  0  0  0  0  0  0  0  0  0  0  0
   10.5110  -16.3535   20.5037 C   0  0  0  0  0  0  0  0  0  0  0  0
   10.1665  -17.5860   21.1995 C   0  0  0  0  0  0  0  0  0  0  0  0
    9.3209  -17.6437   22.4084 C   0  0  2  0  0  0  0  0  0  0  0  0
    7.9215  -17.6230   21.8183 N   0  0  0  0  0  0  0  0  0  0  0  0
    9.3285  -16.5224   23.3425 C   0  0  0  0  0  0  0  0  0  0  0  0
    9.2660  -15.3365   22.9809 O   0  0  0  0  0  0  0  0  0  0  0  0
   14.8667  -14.8235   20.1637 C   0  0  0  0  0  0  0  0  0  0  0  0
    6.9932  -11.0113   27.2021 S   0  0  0  0  0  0  0  0  0  0  0  0
    6.9565  -12.4196   26.0914 C   0  0  0  0  0  0  0  0  0  0  0  0
    8.3893  -13.4907   26.4182 C   0  0  0  0  0  0  0  0  0  0  0  0
    8.4260  -14.6252   25.4342 C   0  0  1  0  0  0  0  0  0  0  0  0
    9.5839  -15.5367   25.6618 N   0  0  0  0  0  0  0  0  0  0  0  0
    9.4101  -16.7018   24.7673 C   0  0  0  0  0  0  0  0  0  0  0  0
    9.5730  -16.0584   27.0364 O   0  0  0  0  0  0  0  0  0  0  0  0
   10.0224  -15.3466   28.1308 O   0  0  0  0  0  0  0  0  0  0  0  0
  1  2  1  0
  2  3  2  0
  4  2  1  0
  5  4  1  0
  5  6  1  6
  7  8  2  0
  7  5  1  0
  9 10  1  0
 10 12  1  0
 11 10  2  0
 12 13  1  0
 14 13  1  0
 15 14  1  0
 16 15  1  6
 16 17  1  0
 17  7  1  0
 18 19  2  0
 18 16  1  0
 20 21  1  0
 22 21  1  0
 24 23  1  6
 23 22  1  0
 24 25  1  0
 25 18  1  0
 26 24  1  0
 27 26  1  0
 28 26  2  0
M  END
$$$$
