NRM.pdb
     RDKit          3D

 28 27  0  0  1  0  0  0  0  0999 V2000
    9.0759  -12.1433   18.2951 N   0  0  0  0  0  0  0  0  0  0  0  0
    8.3790  -13.3676   18.1580 C   0  0  0  0  0  0  0  0  0  0  0  0
    8.5214  -13.9937   17.0815 O   0  0  0  0  0  0  0  0  0  0  0  0
    7.5154  -13.9163   19.2093 C   0  0  0  0  0  0  0  0  0  0  0  0
    8.1743  -15.1233   19.8163 C   0  0  2  0  0  0  0  0  0  0  0  0
    8.0739  -16.2321   18.8805 N   0  0  0  0  0  0  0  0  0  0  0  0
    7.5229  -15.5497   21.0794 C   0  0  0  0  0  0  0  0  0  0  0  0
    6.2713  -15.6173   21.1704 O   0  0  0  0  0  0  0  0  0  0  0  0
    8.7040  -20.4012   27.7753 N   0  0  0  0  0  0  0  0  0  0  0  0
    7.4856  -20.8852   27.1756 C   0  0  0  0  0  0  0  0  0  0  0  0
    6.7901  -21.8048   27.7606 N   0  0  0  0  0  0  0  0  0  0  0  0
    7.0325  -20.3661   25.9454 N   0  0  0  0  0  0  0  0  0  0  0  0
    7.7762  -19.1847   25.4148 C   0  0  0  0  0  0  0  0  0  0  0  0
    7.1270  -18.8657   24.1297 C   0  0  0  0  0  0  0  0  0  0  0  0
    7.6616  -17.8783   23.2018 C   0  0  0  0  0  0  0  0  0  0  0  0
    7.6797  -16.4250   23.4616 C   0  0  2  0  0  0  0  0  0  0  0  0
    8.3002  -15.8820   22.1860 N   0  0  0  0  0  0  0  0  0  0  0  0
    8.5313  -15.8972   24.5228 C   0  0  0  0  0  0  0  0  0  0  0  0
    9.7642  -16.0412   24.5394 O   0  0  0  0  0  0  0  0  0  0  0  0
    5.9697  -22.2263   27.2806 C   0  0  0  0  0  0  0  0  0  0  0  0
    5.6291  -11.2495   26.8438 S   0  0  0  0  0  0  0  0  0  0  0  0
    7.3559  -10.8241   26.6086 C   0  0  0  0  0  0  0  0  0  0  0  0
    8.2728  -12.2896   26.0439 C   0  0  0  0  0  0  0  0  0  0  0  0
    8.3296  -13.3203   27.1353 C   0  0  2  0  0  0  0  0  0  0  0  0
    8.9175  -14.6088   26.6692 N   0  0  0  0  0  0  0  0  0  0  0  0
    8.0074  -15.1629   25.6432 C   0  0  0  0  0  0  0  0  0  0  0  0
    8.9594  -15.5882   27.7650 O   0  0  0  0  0  0  0  0  0  0  0  0
    8.1973  -16.7393   27.7948 O   0  0  0  0  0  0  0  0  0  0  0  0
  1  2  1  0
  2  3  2  0
  4  2  1  0
  5  4  1  0
  5  6  1  6
  7  8  2  0
  7  5  1  0
  9 10  1  0
 10 12  1  0
 11 10  2  0
 12 13  1  0
 14 13  1  0
 15 14  1  0
 16 15  1  6
 16 17  1  0
 17  7  1  0
 18 19  2  0
 18 16  1  0
 20 21  1  0
 22 21  1  0
 24 23  1  6
 23 22  1  0
 24 25  1  0
 25 18  1  0
 26 24  1  0
 27 26  1  0
 28 26  2  0
M  END
$$$$
