NRM.pdb
     RDKit          3D

 28 27  0  0  1  0  0  0  0  0999 V2000
   14.6124  -15.3912   19.5366 N   0  0  0  0  0  0  0  0  0  0  0  0
   13.6131  -14.4089   19.3376 C   0  0  0  0  0  0  0  0  0  0  0  0
   13.7986  -13.5765   18.4190 O   0  0  0  0  0  0  0  0  0  0  0  0
   12.3949  -14.3334   20.1516 C   0  0  0  0  0  0  0  0  0  0  0  0
   11.4308  -15.3971   19.7059 C   0  0  2  0  0  0  0  0  0  0  0  0
   10.8348  -14.9900   18.4434 N   0  0  0  0  0  0  0  0  0  0  0  0
   10.3239  -15.6002   20.6729 C   0  0  0  0  0  0  0  0  0  0  0  0
    9.3080  -14.8605   20.6570 O   0  0  0  0  0  0  0  0  0  0  0  0
    7.7037  -23.2502   24.2114 N   0  0  0  0  0  0  0  0  0  0  0  0
    6.6958  -22.2496   24.4600 C   0  0  0  0  0  0  0  0  0  0  0  0
    5.5043  -22.5984   24.8211 N   0  0  0  0  0  0  0  0  0  0  0  0
    6.9906  -20.8785   24.3145 N   0  0  0  0  0  0  0  0  0  0  0  0
    8.0458  -20.5338   23.3155 C   0  0  0  0  0  0  0  0  0  0  0  0
    8.2211  -19.0740   23.4278 C   0  0  0  0  0  0  0  0  0  0  0  0
    9.1270  -18.3219   22.5701 C   0  0  0  0  0  0  0  0  0  0  0  0
    9.2954  -16.8563   22.6299 C   0  0  2  0  0  0  0  0  0  0  0  0
   10.4015  -16.6221   21.6156 N   0  0  0  0  0  0  0  0  0  0  0  0
    9.8006  -16.2423   23.8537 C   0  0  0  0  0  0  0  0  0  0  0  0
   10.7802  -15.4801   23.8771 O   0  0  0  0  0  0  0  0  0  0  0  0
    4.7556  -21.8834   24.9171 C   0  0  0  0  0  0  0  0  0  0  0  0
    6.9080  -10.5421   25.7298 S   0  0  0  0  0  0  0  0  0  0  0  0
    7.0244  -12.0981   26.6150 C   0  0  0  0  0  0  0  0  0  0  0  0
    8.3883  -13.0874   25.9308 C   0  0  0  0  0  0  0  0  0  0  0  0
    8.0326  -14.5468   25.9492 C   0  0  2  0  0  0  0  0  0  0  0  0
    9.2211  -15.4178   26.1776 N   0  0  0  0  0  0  0  0  0  0  0  0
    9.2006  -16.4723   25.1406 C   0  0  0  0  0  0  0  0  0  0  0  0
    9.1221  -16.1036   27.4744 O   0  0  0  0  0  0  0  0  0  0  0  0
    8.9256  -17.4636   27.6101 O   0  0  0  0  0  0  0  0  0  0  0  0
  1  2  1  0
  2  3  2  0
  4  2  1  0
  5  4  1  0
  5  6  1  6
  7  8  2  0
  7  5  1  0
  9 10  1  0
 10 12  1  0
 11 10  2  0
 12 13  1  0
 14 13  1  0
 15 14  1  0
 16 15  1  1
 16 17  1  0
 17  7  1  0
 18 19  2  0
 18 16  1  0
 20 21  1  0
 22 21  1  0
 24 23  1  6
 23 22  1  0
 24 25  1  0
 25 18  1  0
 26 24  1  0
 27 26  1  0
 28 26  2  0
M  END
$$$$
