NRM.pdb
     RDKit          3D

 28 27  0  0  1  0  0  0  0  0999 V2000
    8.3199  -21.6004   19.0964 N   0  0  0  0  0  0  0  0  0  0  0  0
    7.6762  -20.5606   19.8090 C   0  0  0  0  0  0  0  0  0  0  0  0
    6.5338  -20.7980   20.2670 O   0  0  0  0  0  0  0  0  0  0  0  0
    8.2867  -19.2443   20.0248 C   0  0  0  0  0  0  0  0  0  0  0  0
    9.0712  -19.2628   21.3069 C   0  0  2  0  0  0  0  0  0  0  0  0
    8.1895  -19.6687   22.3898 N   0  0  0  0  0  0  0  0  0  0  0  0
    9.6169  -17.9282   21.6570 C   0  0  0  0  0  0  0  0  0  0  0  0
   10.8568  -17.7312   21.7128 O   0  0  0  0  0  0  0  0  0  0  0  0
    7.7356  -14.2476   14.7113 N   0  0  0  0  0  0  0  0  0  0  0  0
    7.9537  -13.7454   16.0450 C   0  0  0  0  0  0  0  0  0  0  0  0
    8.1536  -12.4835   16.2431 N   0  0  0  0  0  0  0  0  0  0  0  0
    7.9525  -14.6180   17.1525 N   0  0  0  0  0  0  0  0  0  0  0  0
    8.1886  -13.9898   18.4866 C   0  0  0  0  0  0  0  0  0  0  0  0
    8.0605  -15.0906   19.4594 C   0  0  0  0  0  0  0  0  0  0  0  0
    8.1234  -14.8796   20.8994 C   0  0  0  0  0  0  0  0  0  0  0  0
    9.1849  -15.4248   21.7687 C   0  0  2  0  0  0  0  0  0  0  0  0
    8.7516  -16.8717   21.9295 N   0  0  0  0  0  0  0  0  0  0  0  0
    9.3101  -14.9377   23.1386 C   0  0  0  0  0  0  0  0  0  0  0  0
    9.3620  -13.7318   23.4289 O   0  0  0  0  0  0  0  0  0  0  0  0
    8.3303  -12.1255   17.2032 C   0  0  0  0  0  0  0  0  0  0  0  0
    6.5213  -10.8388   27.0415 S   0  0  0  0  0  0  0  0  0  0  0  0
    6.4459  -12.6164   26.8126 C   0  0  0  0  0  0  0  0  0  0  0  0
    7.9682  -13.1911   26.0004 C   0  0  0  0  0  0  0  0  0  0  0  0
    7.8992  -14.6713   25.7535 C   0  0  2  0  0  0  0  0  0  0  0  0
    9.2506  -15.2923   25.6460 N   0  0  0  0  0  0  0  0  0  0  0  0
    9.3844  -15.8213   24.2712 C   0  0  0  0  0  0  0  0  0  0  0  0
    9.3671  -16.4448   26.5515 O   0  0  0  0  0  0  0  0  0  0  0  0
    9.7180  -16.3419   27.8830 O   0  0  0  0  0  0  0  0  0  0  0  0
  1  2  1  0
  2  3  2  0
  4  2  1  0
  5  4  1  0
  5  6  1  1
  7  8  2  0
  7  5  1  0
  9 10  1  0
 10 12  1  0
 11 10  2  0
 12 13  1  0
 14 13  1  0
 15 14  1  0
 16 15  1  6
 16 17  1  0
 17  7  1  0
 18 19  2  0
 18 16  1  0
 20 21  1  0
 22 21  1  0
 24 23  1  6
 23 22  1  0
 24 25  1  0
 25 18  1  0
 26 24  1  0
 27 26  1  0
 28 26  2  0
M  END
$$$$
