NRM.pdb
     RDKit          3D

 28 27  0  0  1  0  0  0  0  0999 V2000
   15.0753  -18.1816   20.0986 N   0  0  0  0  0  0  0  0  0  0  0  0
   14.1016  -17.5728   19.2712 C   0  0  0  0  0  0  0  0  0  0  0  0
   14.1859  -17.7763   18.0372 O   0  0  0  0  0  0  0  0  0  0  0  0
   13.0214  -16.7308   19.7968 C   0  0  0  0  0  0  0  0  0  0  0  0
   12.4308  -17.3812   21.0164 C   0  0  2  0  0  0  0  0  0  0  0  0
   11.5092  -18.4230   20.5919 N   0  0  0  0  0  0  0  0  0  0  0  0
   11.6636  -16.4257   21.8532 C   0  0  0  0  0  0  0  0  0  0  0  0
   12.2082  -15.3939   22.3203 O   0  0  0  0  0  0  0  0  0  0  0  0
    8.3586  -14.5164   17.7387 N   0  0  0  0  0  0  0  0  0  0  0  0
    8.1629  -13.4738   18.7150 C   0  0  0  0  0  0  0  0  0  0  0  0
    8.7630  -12.3360   18.5847 N   0  0  0  0  0  0  0  0  0  0  0  0
    7.3167  -13.6756   19.8246 N   0  0  0  0  0  0  0  0  0  0  0  0
    7.9769  -13.6823   21.1641 C   0  0  0  0  0  0  0  0  0  0  0  0
    7.3641  -14.8098   21.8905 C   0  0  0  0  0  0  0  0  0  0  0  0
    8.1480  -15.8954   22.4642 C   0  0  0  0  0  0  0  0  0  0  0  0
    9.5092  -15.7317   23.0119 C   0  0  2  0  0  0  0  0  0  0  0  0
   10.3205  -16.6660   22.1310 N   0  0  0  0  0  0  0  0  0  0  0  0
    9.7952  -16.1861   24.3689 C   0  0  0  0  0  0  0  0  0  0  0  0
    9.3334  -17.2353   24.8456 O   0  0  0  0  0  0  0  0  0  0  0  0
    8.7060  -11.6241   19.3404 C   0  0  0  0  0  0  0  0  0  0  0  0
    6.0297  -12.2450   26.9512 S   0  0  0  0  0  0  0  0  0  0  0  0
    7.5926  -12.3531   27.8252 C   0  0  0  0  0  0  0  0  0  0  0  0
    8.2062  -14.0640   27.7663 C   0  0  0  0  0  0  0  0  0  0  0  0
    8.8925  -14.3258   26.4559 C   0  0  1  0  0  0  0  0  0  0  0  0
   10.1620  -15.0898   26.6227 N   0  0  0  0  0  0  0  0  0  0  0  0
   10.6406  -15.4501   25.2703 C   0  0  0  0  0  0  0  0  0  0  0  0
    9.9188  -16.3546   27.3318 O   0  0  0  0  0  0  0  0  0  0  0  0
   10.0687  -16.5108   28.6955 O   0  0  0  0  0  0  0  0  0  0  0  0
  1  2  1  0
  2  3  2  0
  4  2  1  0
  5  4  1  0
  5  6  1  6
  7  8  2  0
  7  5  1  0
  9 10  1  0
 10 12  1  0
 11 10  2  0
 12 13  1  0
 14 13  1  0
 15 14  1  0
 16 15  1  6
 16 17  1  0
 17  7  1  0
 18 19  2  0
 18 16  1  0
 20 21  1  0
 22 21  1  0
 24 23  1  6
 23 22  1  0
 24 25  1  0
 25 18  1  0
 26 24  1  0
 27 26  1  0
 28 26  2  0
M  END
$$$$
