NRM.pdb
     RDKit          3D

 28 27  0  0  1  0  0  0  0  0999 V2000
   15.2055  -13.3763   18.5632 N   0  0  0  0  0  0  0  0  0  0  0  0
   14.5090  -14.5440   18.1697 C   0  0  0  0  0  0  0  0  0  0  0  0
   15.1523  -15.4109   17.5327 O   0  0  0  0  0  0  0  0  0  0  0  0
   13.0919  -14.7691   18.4752 C   0  0  0  0  0  0  0  0  0  0  0  0
   12.9770  -15.6172   19.7110 C   0  0  2  0  0  0  0  0  0  0  0  0
   12.3884  -16.8965   19.3480 N   0  0  0  0  0  0  0  0  0  0  0  0
   12.1020  -15.0036   20.7403 C   0  0  0  0  0  0  0  0  0  0  0  0
   12.4267  -13.9306   21.3083 O   0  0  0  0  0  0  0  0  0  0  0  0
    9.3185  -13.1547   18.4424 N   0  0  0  0  0  0  0  0  0  0  0  0
    8.0367  -13.4925   17.8754 C   0  0  0  0  0  0  0  0  0  0  0  0
    7.6429  -12.9392   16.7751 N   0  0  0  0  0  0  0  0  0  0  0  0
    7.1933  -14.4286   18.5081 N   0  0  0  0  0  0  0  0  0  0  0  0
    6.8019  -14.1174   19.9152 C   0  0  0  0  0  0  0  0  0  0  0  0
    8.0739  -13.9862   20.6495 C   0  0  0  0  0  0  0  0  0  0  0  0
    8.6585  -15.0806   21.4127 C   0  0  0  0  0  0  0  0  0  0  0  0
    9.9585  -15.0008   22.1081 C   0  0  2  0  0  0  0  0  0  0  0  0
   10.9018  -15.6172   21.0896 N   0  0  0  0  0  0  0  0  0  0  0  0
   10.1749  -15.7911   23.3158 C   0  0  0  0  0  0  0  0  0  0  0  0
   10.8570  -16.8282   23.3359 O   0  0  0  0  0  0  0  0  0  0  0  0
    6.7134  -13.1753   16.3735 C   0  0  0  0  0  0  0  0  0  0  0  0
   10.8085  -14.5840   31.0726 S   0  0  0  0  0  0  0  0  0  0  0  0
   10.1444  -14.0694   29.4876 C   0  0  0  0  0  0  0  0  0  0  0  0
   10.4545  -15.3635   28.2481 C   0  0  0  0  0  0  0  0  0  0  0  0
    9.9826  -14.9119   26.8953 C   0  0  1  0  0  0  0  0  0  0  0  0
   10.2000  -15.9466   25.8439 N   0  0  0  0  0  0  0  0  0  0  0  0
    9.6113  -15.4304   24.5890 C   0  0  0  0  0  0  0  0  0  0  0  0
    9.4724  -17.1817   26.1709 O   0  0  0  0  0  0  0  0  0  0  0  0
    9.9497  -18.1475   27.0345 O   0  0  0  0  0  0  0  0  0  0  0  0
  1  2  1  0
  2  3  2  0
  4  2  1  0
  5  4  1  0
  5  6  1  6
  7  8  2  0
  7  5  1  0
  9 10  1  0
 10 12  1  0
 11 10  2  0
 12 13  1  0
 14 13  1  0
 15 14  1  0
 16 15  1  6
 16 17  1  0
 17  7  1  0
 18 19  2  0
 18 16  1  0
 20 21  1  0
 22 21  1  0
 24 23  1  6
 23 22  1  0
 24 25  1  0
 25 18  1  0
 26 24  1  0
 27 26  1  0
 28 26  2  0
M  END
$$$$
