NRM.pdb
     RDKit          3D

 28 27  0  0  1  0  0  0  0  0999 V2000
    9.3849  -13.3152   16.6623 N   0  0  0  0  0  0  0  0  0  0  0  0
    7.9939  -13.5574   16.7619 C   0  0  0  0  0  0  0  0  0  0  0  0
    7.2819  -13.2362   15.7815 O   0  0  0  0  0  0  0  0  0  0  0  0
    7.3712  -14.1581   17.9466 C   0  0  0  0  0  0  0  0  0  0  0  0
    8.4201  -14.3887   18.9983 C   0  0  2  0  0  0  0  0  0  0  0  0
    9.3773  -15.3634   18.4995 N   0  0  0  0  0  0  0  0  0  0  0  0
    7.8514  -14.9309   20.2569 C   0  0  0  0  0  0  0  0  0  0  0  0
    7.0082  -14.2760   20.9200 O   0  0  0  0  0  0  0  0  0  0  0  0
    8.8419  -20.7500   18.3184 N   0  0  0  0  0  0  0  0  0  0  0  0
    9.1088  -21.3575   19.5983 C   0  0  0  0  0  0  0  0  0  0  0  0
    9.5997  -22.5518   19.6647 N   0  0  0  0  0  0  0  0  0  0  0  0
    8.8404  -20.6628   20.7955 N   0  0  0  0  0  0  0  0  0  0  0  0
    7.4238  -20.6863   21.2677 C   0  0  0  0  0  0  0  0  0  0  0  0
    7.0405  -19.2694   21.4084 C   0  0  0  0  0  0  0  0  0  0  0  0
    7.9883  -18.2322   21.7931 C   0  0  0  0  0  0  0  0  0  0  0  0
    7.6333  -16.8086   21.9576 C   0  0  2  0  0  0  0  0  0  0  0  0
    8.2506  -16.1822   20.7192 N   0  0  0  0  0  0  0  0  0  0  0  0
    8.2088  -16.0496   23.0634 C   0  0  0  0  0  0  0  0  0  0  0  0
    9.3959  -15.6878   23.0939 O   0  0  0  0  0  0  0  0  0  0  0  0
    9.7743  -22.9958   20.5885 C   0  0  0  0  0  0  0  0  0  0  0  0
    6.8524  -10.2724   26.9517 S   0  0  0  0  0  0  0  0  0  0  0  0
    6.1863  -11.8725   27.4148 C   0  0  0  0  0  0  0  0  0  0  0  0
    7.3978  -13.1720   27.0266 C   0  0  0  0  0  0  0  0  0  0  0  0
    6.9494  -13.9605   25.8291 C   0  0  1  0  0  0  0  0  0  0  0  0
    8.0427  -14.7995   25.2601 N   0  0  0  0  0  0  0  0  0  0  0  0
    7.4421  -15.6570   24.2153 C   0  0  0  0  0  0  0  0  0  0  0  0
    8.5894  -15.7046   26.2817 O   0  0  0  0  0  0  0  0  0  0  0  0
    8.3540  -17.0649   26.3067 O   0  0  0  0  0  0  0  0  0  0  0  0
  1  2  1  0
  2  3  2  0
  4  2  1  0
  5  4  1  0
  5  6  1  6
  7  8  2  0
  7  5  1  0
  9 10  1  0
 10 12  1  0
 11 10  2  0
 12 13  1  0
 14 13  1  0
 15 14  1  0
 16 15  1  1
 16 17  1  0
 17  7  1  0
 18 19  2  0
 18 16  1  0
 20 21  1  0
 22 21  1  0
 24 23  1  6
 23 22  1  0
 24 25  1  0
 25 18  1  0
 26 24  1  0
 27 26  1  0
 28 26  2  0
M  END
$$$$
