IEW.pdb
     RDKit          3D

 32 33  0  0  1  0  0  0  0  0999 V2000
    7.1857  -12.5029   18.1699 C   0  0  0  0  0  0  0  0  0  0  0  0
    8.4982  -12.9433   18.7817 C   0  0  0  0  0  0  0  0  0  0  0  0
    8.1992  -13.8692   19.9344 C   0  0  2  0  0  0  0  0  0  0  0  0
    7.4352  -13.0661   20.9663 C   0  0  0  0  0  0  0  0  0  0  0  0
    9.4459  -14.3764   20.5687 C   0  0  2  0  0  0  0  0  0  0  0  0
   10.3314  -14.9798   19.6297 N   0  0  0  0  0  0  0  0  0  0  0  0
    9.1983  -15.3245   21.6829 C   0  0  0  0  0  0  0  0  0  0  0  0
    8.4038  -15.0521   22.6261 O   0  0  0  0  0  0  0  0  0  0  0  0
    9.8562  -16.5787   21.7192 N   0  0  0  0  0  0  0  0  0  0  0  0
    9.7864  -17.5192   22.8125 C   0  0  1  0  0  0  0  0  0  0  0  0
   10.4241  -18.8336   22.5586 C   0  0  0  0  0  0  0  0  0  0  0  0
   11.9020  -18.8445   22.4061 C   0  0  0  0  0  0  0  0  0  0  0  0
   12.2342  -19.9851   21.4785 C   0  0  0  0  0  0  0  0  0  0  0  0
   11.5540  -20.1803   20.4388 O   0  0  0  0  0  0  0  0  0  0  0  0
   10.1256  -16.9000   24.1188 C   0  0  0  0  0  0  0  0  0  0  0  0
   10.9686  -15.9826   24.1501 O   0  0  0  0  0  0  0  0  0  0  0  0
   13.2863  -20.8565   21.7240 O   0  0  0  0  0  0  0  0  0  0  0  0
    9.5250  -17.3190   25.3148 N   0  0  0  0  0  0  0  0  0  0  0  0
    9.9039  -16.7767   26.6284 C   0  0  1  0  0  0  0  0  0  0  0  0
    8.6285  -16.5616   27.3795 C   0  0  0  0  0  0  0  0  0  0  0  0
    7.6227  -15.7685   26.6402 C   0  0  0  0  0  0  0  0  0  0  0  0
    6.5972  -16.2434   25.8553 C   0  0  0  0  0  0  0  0  0  0  0  0
    5.9241  -15.1842   25.3749 N   0  0  0  0  0  0  0  0  0  0  0  0
    6.4688  -14.0477   25.8145 C   0  0  0  0  0  0  0  0  0  0  0  0
    6.1569  -12.6966   25.6131 C   0  0  0  0  0  0  0  0  0  0  0  0
    6.9000  -11.6953   26.1979 C   0  0  0  0  0  0  0  0  0  0  0  0
    7.9604  -12.0706   26.9875 C   0  0  0  0  0  0  0  0  0  0  0  0
    8.2845  -13.3824   27.1991 C   0  0  0  0  0  0  0  0  0  0  0  0
    7.5342  -14.3981   26.6085 C   0  0  0  0  0  0  0  0  0  0  0  0
   10.8302  -17.6972   27.3270 C   0  0  0  0  0  0  0  0  0  0  0  0
   11.1132  -18.8519   26.9327 O   0  0  0  0  0  0  0  0  0  0  0  0
   11.4255  -17.2527   28.4970 O   0  0  0  0  0  0  0  0  0  0  0  0
  1  2  1  0
  3  2  1  0
  3  5  1  0
  3  4  1  1
  5  6  1  6
  7  5  1  0
  7  8  2  0
  9  7  1  0
 10  9  1  0
 10 15  1  0
 10 11  1  6
 12 11  1  0
 13 12  1  0
 13 14  2  0
 15 16  2  0
 15 18  1  0
 17 13  1  0
 18 19  1  0
 19 30  1  0
 19 20  1  1
 21 29  1  0
 21 20  1  0
 22 21  2  0
 23 22  1  0
 23 24  1  0
 24 25  1  0
 24 29  2  0
 25 26  2  0
 26 27  1  0
 28 27  2  0
 29 28  1  0
 30 31  2  0
 30 32  1  0
M  END
$$$$
