IEW.pdb
     RDKit          3D

 32 33  0  0  1  0  0  0  0  0999 V2000
    7.0402  -12.0029   20.0890 C   0  0  0  0  0  0  0  0  0  0  0  0
    7.5524  -13.3355   19.5864 C   0  0  0  0  0  0  0  0  0  0  0  0
    8.1128  -14.1027   20.7581 C   0  0  2  0  0  0  0  0  0  0  0  0
    9.2631  -13.2905   21.3152 C   0  0  0  0  0  0  0  0  0  0  0  0
    8.6388  -15.4313   20.3432 C   0  0  2  0  0  0  0  0  0  0  0  0
    7.7325  -16.1410   19.5038 N   0  0  0  0  0  0  0  0  0  0  0  0
    9.0240  -16.2969   21.4852 C   0  0  0  0  0  0  0  0  0  0  0  0
    8.2133  -17.1134   22.0061 O   0  0  0  0  0  0  0  0  0  0  0  0
   10.3302  -16.2297   22.0297 N   0  0  0  0  0  0  0  0  0  0  0  0
   10.8319  -17.0769   23.0857 C   0  0  1  0  0  0  0  0  0  0  0  0
   12.1082  -17.7705   22.7885 C   0  0  0  0  0  0  0  0  0  0  0  0
   12.1891  -18.5042   21.4989 C   0  0  0  0  0  0  0  0  0  0  0  0
   13.6121  -18.9811   21.3594 C   0  0  0  0  0  0  0  0  0  0  0  0
   14.2851  -18.6896   20.3377 O   0  0  0  0  0  0  0  0  0  0  0  0
   10.7689  -16.4240   24.4179 C   0  0  0  0  0  0  0  0  0  0  0  0
   11.4882  -15.4300   24.6365 O   0  0  0  0  0  0  0  0  0  0  0  0
   14.2342  -19.7495   22.3337 O   0  0  0  0  0  0  0  0  0  0  0  0
    9.9246  -16.8948   25.4338 N   0  0  0  0  0  0  0  0  0  0  0  0
   10.0431  -16.4584   26.8334 C   0  0  1  0  0  0  0  0  0  0  0  0
    8.6637  -16.5101   27.4093 C   0  0  0  0  0  0  0  0  0  0  0  0
    7.6337  -15.8749   26.5590 C   0  0  0  0  0  0  0  0  0  0  0  0
    6.7429  -16.5010   25.7179 C   0  0  0  0  0  0  0  0  0  0  0  0
    5.9879  -15.5516   25.1398 N   0  0  0  0  0  0  0  0  0  0  0  0
    6.3514  -14.3414   25.5698 C   0  0  0  0  0  0  0  0  0  0  0  0
    5.8949  -13.0477   25.2849 C   0  0  0  0  0  0  0  0  0  0  0  0
    6.4590  -11.9418   25.8811 C   0  0  0  0  0  0  0  0  0  0  0  0
    7.4878  -12.1541   26.7673 C   0  0  0  0  0  0  0  0  0  0  0  0
    7.9507  -13.4069   27.0617 C   0  0  0  0  0  0  0  0  0  0  0  0
    7.3817  -14.5283   26.4597 C   0  0  0  0  0  0  0  0  0  0  0  0
   11.0019  -17.3145   27.5690 C   0  0  0  0  0  0  0  0  0  0  0  0
   11.3260  -17.1479   28.7674 O   0  0  0  0  0  0  0  0  0  0  0  0
   11.5812  -18.3726   26.8868 O   0  0  0  0  0  0  0  0  0  0  0  0
  1  2  1  0
  3  2  1  0
  3  5  1  0
  3  4  1  6
  5  6  1  1
  7  5  1  0
  7  8  2  0
  9  7  1  0
 10  9  1  0
 10 15  1  0
 10 11  1  6
 12 11  1  0
 13 12  1  0
 13 14  2  0
 15 16  2  0
 15 18  1  0
 17 13  1  0
 18 19  1  0
 19 30  1  0
 19 20  1  1
 21 29  1  0
 21 20  1  0
 22 21  2  0
 23 22  1  0
 23 24  1  0
 24 25  1  0
 24 29  2  0
 25 26  2  0
 26 27  1  0
 28 27  2  0
 29 28  1  0
 30 31  2  0
 30 32  1  0
M  END
$$$$
