IEW.pdb
     RDKit          3D

 32 33  0  0  1  0  0  0  0  0999 V2000
    6.7036  -12.1788   19.3214 C   0  0  0  0  0  0  0  0  0  0  0  0
    7.8827  -13.0215   18.8851 C   0  0  0  0  0  0  0  0  0  0  0  0
    7.9828  -14.2127   19.8052 C   0  0  2  0  0  0  0  0  0  0  0  0
    8.1905  -13.6786   21.2070 C   0  0  0  0  0  0  0  0  0  0  0  0
    9.1435  -15.0772   19.4595 C   0  0  2  0  0  0  0  0  0  0  0  0
    9.1095  -15.5240   18.1071 N   0  0  0  0  0  0  0  0  0  0  0  0
    9.2942  -16.2500   20.3560 C   0  0  0  0  0  0  0  0  0  0  0  0
    9.0543  -17.4257   19.9618 O   0  0  0  0  0  0  0  0  0  0  0  0
    9.7171  -16.0799   21.6973 N   0  0  0  0  0  0  0  0  0  0  0  0
   10.0184  -17.1545   22.6133 C   0  0  1  0  0  0  0  0  0  0  0  0
   10.9134  -18.2093   22.0794 C   0  0  0  0  0  0  0  0  0  0  0  0
   12.1025  -17.7560   21.3125 C   0  0  0  0  0  0  0  0  0  0  0  0
   12.8905  -18.9922   20.9627 C   0  0  0  0  0  0  0  0  0  0  0  0
   13.7105  -19.4790   21.7826 O   0  0  0  0  0  0  0  0  0  0  0  0
   10.3676  -16.6645   23.9708 C   0  0  0  0  0  0  0  0  0  0  0  0
   11.3216  -15.8728   24.0989 O   0  0  0  0  0  0  0  0  0  0  0  0
   12.7503  -19.6388   19.7424 O   0  0  0  0  0  0  0  0  0  0  0  0
    9.6550  -17.0677   25.1094 N   0  0  0  0  0  0  0  0  0  0  0  0
   10.0111  -16.6302   26.4677 C   0  0  1  0  0  0  0  0  0  0  0  0
    8.7318  -16.5699   27.2402 C   0  0  0  0  0  0  0  0  0  0  0  0
    7.7018  -15.7018   26.6294 C   0  0  0  0  0  0  0  0  0  0  0  0
    6.5348  -16.0953   26.0159 C   0  0  0  0  0  0  0  0  0  0  0  0
    5.8939  -14.9880   25.6049 N   0  0  0  0  0  0  0  0  0  0  0  0
    6.5947  -13.8982   25.9255 C   0  0  0  0  0  0  0  0  0  0  0  0
    6.3763  -12.5282   25.7291 C   0  0  0  0  0  0  0  0  0  0  0  0
    7.2819  -11.5884   26.1689 C   0  0  0  0  0  0  0  0  0  0  0  0
    8.4096  -12.0445   26.8085 C   0  0  0  0  0  0  0  0  0  0  0  0
    8.6450  -13.3763   27.0121 C   0  0  0  0  0  0  0  0  0  0  0  0
    7.7301  -14.3299   26.5680 C   0  0  0  0  0  0  0  0  0  0  0  0
   11.0004  -17.5520   27.0718 C   0  0  0  0  0  0  0  0  0  0  0  0
   11.3922  -18.6174   26.5421 O   0  0  0  0  0  0  0  0  0  0  0  0
   11.5300  -17.2149   28.3073 O   0  0  0  0  0  0  0  0  0  0  0  0
  1  2  1  0
  3  2  1  0
  3  5  1  0
  3  4  1  1
  5  6  1  6
  7  5  1  0
  7  8  2  0
  9  7  1  0
 10  9  1  0
 10 15  1  0
 10 11  1  6
 12 11  1  0
 13 12  1  0
 13 14  2  0
 15 16  2  0
 15 18  1  0
 17 13  1  0
 18 19  1  0
 19 30  1  0
 19 20  1  1
 21 29  1  0
 21 20  1  0
 22 21  2  0
 23 22  1  0
 23 24  1  0
 24 25  1  0
 24 29  2  0
 25 26  2  0
 26 27  1  0
 28 27  2  0
 29 28  1  0
 30 31  2  0
 30 32  1  0
M  END
$$$$
