IEW.pdb
     RDKit          3D

 32 33  0  0  1  0  0  0  0  0999 V2000
    6.7539  -12.2358   18.2553 C   0  0  0  0  0  0  0  0  0  0  0  0
    7.5666  -13.3430   17.6194 C   0  0  0  0  0  0  0  0  0  0  0  0
    8.3841  -14.0121   18.6962 C   0  0  2  0  0  0  0  0  0  0  0  0
    9.3318  -12.9693   19.2509 C   0  0  0  0  0  0  0  0  0  0  0  0
    9.1943  -15.1352   18.1520 C   0  0  2  0  0  0  0  0  0  0  0  0
    8.4154  -16.0530   17.3899 N   0  0  0  0  0  0  0  0  0  0  0  0
    9.9446  -15.8807   19.1927 C   0  0  0  0  0  0  0  0  0  0  0  0
    9.5403  -16.9905   19.6399 O   0  0  0  0  0  0  0  0  0  0  0  0
   11.1519  -15.3599   19.7203 N   0  0  0  0  0  0  0  0  0  0  0  0
   11.9745  -16.0157   20.7092 C   0  0  1  0  0  0  0  0  0  0  0  0
   13.4319  -15.7735   20.5819 C   0  0  0  0  0  0  0  0  0  0  0  0
   13.8728  -14.3566   20.5062 C   0  0  0  0  0  0  0  0  0  0  0  0
   15.2711  -14.3667   19.9437 C   0  0  0  0  0  0  0  0  0  0  0  0
   15.4742  -14.0859   18.7347 O   0  0  0  0  0  0  0  0  0  0  0  0
   11.4335  -15.8738   22.0847 C   0  0  0  0  0  0  0  0  0  0  0  0
   11.9897  -16.4856   23.0172 O   0  0  0  0  0  0  0  0  0  0  0  0
   16.3787  -14.6805   20.7191 O   0  0  0  0  0  0  0  0  0  0  0  0
   10.3164  -15.0725   22.3618 N   0  0  0  0  0  0  0  0  0  0  0  0
    9.6416  -15.0718   23.6687 C   0  0  1  0  0  0  0  0  0  0  0  0
    8.2166  -14.7003   23.4072 C   0  0  0  0  0  0  0  0  0  0  0  0
    7.4069  -14.5262   24.6326 C   0  0  0  0  0  0  0  0  0  0  0  0
    6.5153  -15.4207   25.1784 C   0  0  0  0  0  0  0  0  0  0  0  0
    6.0022  -14.8630   26.2881 N   0  0  0  0  0  0  0  0  0  0  0  0
    6.5224  -13.6494   26.4828 C   0  0  0  0  0  0  0  0  0  0  0  0
    6.3293  -12.6723   27.4683 C   0  0  0  0  0  0  0  0  0  0  0  0
    7.0092  -11.4752   27.4329 C   0  0  0  0  0  0  0  0  0  0  0  0
    7.8856  -11.2737   26.3935 C   0  0  0  0  0  0  0  0  0  0  0  0
    8.0912  -12.2120   25.4199 C   0  0  0  0  0  0  0  0  0  0  0  0
    7.4044  -13.4247   25.4532 C   0  0  0  0  0  0  0  0  0  0  0  0
    9.7765  -16.3912   24.3278 C   0  0  0  0  0  0  0  0  0  0  0  0
    9.6776  -17.4917   23.7377 O   0  0  0  0  0  0  0  0  0  0  0  0
   10.0291  -16.4120   25.6903 O   0  0  0  0  0  0  0  0  0  0  0  0
  1  2  1  0
  3  2  1  0
  3  5  1  0
  3  4  1  6
  5  6  1  1
  7  5  1  0
  7  8  2  0
  9  7  1  0
 10  9  1  0
 10 15  1  0
 10 11  1  1
 12 11  1  0
 13 12  1  0
 13 14  2  0
 15 16  2  0
 15 18  1  0
 17 13  1  0
 18 19  1  0
 19 30  1  0
 19 20  1  6
 21 29  1  0
 21 20  1  0
 22 21  2  0
 23 22  1  0
 23 24  1  0
 24 25  1  0
 24 29  2  0
 25 26  2  0
 26 27  1  0
 28 27  2  0
 29 28  1  0
 30 31  2  0
 30 32  1  0
M  END
$$$$
