IEW.pdb
     RDKit          3D

 32 33  0  0  1  0  0  0  0  0999 V2000
    7.6505  -12.6968   20.9580 C   0  0  0  0  0  0  0  0  0  0  0  0
    7.6625  -14.1788   20.6513 C   0  0  0  0  0  0  0  0  0  0  0  0
    8.4637  -14.3979   19.3921 C   0  0  2  0  0  0  0  0  0  0  0  0
    7.6949  -13.7565   18.2559 C   0  0  0  0  0  0  0  0  0  0  0  0
    8.6229  -15.8456   19.0878 C   0  0  2  0  0  0  0  0  0  0  0  0
    7.3962  -16.4636   18.7096 N   0  0  0  0  0  0  0  0  0  0  0  0
    9.2356  -16.6184   20.1966 C   0  0  0  0  0  0  0  0  0  0  0  0
    8.5586  -17.4091   20.9119 O   0  0  0  0  0  0  0  0  0  0  0  0
   10.6161  -16.4880   20.4867 N   0  0  0  0  0  0  0  0  0  0  0  0
   11.2823  -17.0757   21.6248 C   0  0  1  0  0  0  0  0  0  0  0  0
   12.6727  -17.5291   21.3800 C   0  0  0  0  0  0  0  0  0  0  0  0
   12.8824  -18.4715   20.2506 C   0  0  0  0  0  0  0  0  0  0  0  0
   14.3673  -18.7126   20.1565 C   0  0  0  0  0  0  0  0  0  0  0  0
   15.0904  -17.9686   19.4457 O   0  0  0  0  0  0  0  0  0  0  0  0
   11.0905  -16.2858   22.8674 C   0  0  0  0  0  0  0  0  0  0  0  0
   11.3264  -15.0622   22.8462 O   0  0  0  0  0  0  0  0  0  0  0  0
   14.9938  -19.7474   20.8371 O   0  0  0  0  0  0  0  0  0  0  0  0
   10.6526  -16.8780   24.0609 N   0  0  0  0  0  0  0  0  0  0  0  0
    9.7715  -16.1881   25.0154 C   0  0  1  0  0  0  0  0  0  0  0  0
    8.6103  -15.6767   24.2234 C   0  0  0  0  0  0  0  0  0  0  0  0
    7.5986  -14.9637   25.0331 C   0  0  0  0  0  0  0  0  0  0  0  0
    6.3156  -15.3727   25.3155 C   0  0  0  0  0  0  0  0  0  0  0  0
    5.7434  -14.4285   26.0816 N   0  0  0  0  0  0  0  0  0  0  0  0
    6.5992  -13.4291   26.3061 C   0  0  0  0  0  0  0  0  0  0  0  0
    6.5030  -12.2304   27.0251 C   0  0  0  0  0  0  0  0  0  0  0  0
    7.5615  -11.3524   27.0985 C   0  0  0  0  0  0  0  0  0  0  0  0
    8.7176  -11.6958   26.4394 C   0  0  0  0  0  0  0  0  0  0  0  0
    8.8358  -12.8599   25.7314 C   0  0  0  0  0  0  0  0  0  0  0  0
    7.7660  -13.7506   25.6553 C   0  0  0  0  0  0  0  0  0  0  0  0
    9.3613  -17.1037   26.1047 C   0  0  0  0  0  0  0  0  0  0  0  0
    9.0673  -16.7370   27.2658 O   0  0  0  0  0  0  0  0  0  0  0  0
    9.2979  -18.4591   25.8225 O   0  0  0  0  0  0  0  0  0  0  0  0
  1  2  1  0
  3  2  1  0
  3  5  1  0
  3  4  1  6
  5  6  1  1
  7  5  1  0
  7  8  2  0
  9  7  1  0
 10  9  1  0
 10 15  1  0
 10 11  1  6
 12 11  1  0
 13 12  1  0
 13 14  2  0
 15 16  2  0
 15 18  1  0
 17 13  1  0
 18 19  1  0
 19 30  1  0
 19 20  1  6
 21 29  1  0
 21 20  1  0
 22 21  2  0
 23 22  1  0
 23 24  1  0
 24 25  1  0
 24 29  2  0
 25 26  2  0
 26 27  1  0
 28 27  2  0
 29 28  1  0
 30 31  2  0
 30 32  1  0
M  END
$$$$
