IEW.pdb
     RDKit          3D

 32 33  0  0  1  0  0  0  0  0999 V2000
    7.5621  -11.6641   19.6322 C   0  0  0  0  0  0  0  0  0  0  0  0
    7.3776  -13.1462   19.3870 C   0  0  0  0  0  0  0  0  0  0  0  0
    7.9807  -13.8992   20.5466 C   0  0  2  0  0  0  0  0  0  0  0  0
    9.4655  -13.6013   20.5494 C   0  0  0  0  0  0  0  0  0  0  0  0
    7.8008  -15.3689   20.3998 C   0  0  2  0  0  0  0  0  0  0  0  0
    6.4415  -15.7347   20.1799 N   0  0  0  0  0  0  0  0  0  0  0  0
    8.3350  -16.1468   21.5449 C   0  0  0  0  0  0  0  0  0  0  0  0
    7.5983  -16.5147   22.5026 O   0  0  0  0  0  0  0  0  0  0  0  0
    9.7053  -16.5025   21.5955 N   0  0  0  0  0  0  0  0  0  0  0  0
   10.3188  -17.2890   22.6394 C   0  0  1  0  0  0  0  0  0  0  0  0
   11.4804  -18.1076   22.2158 C   0  0  0  0  0  0  0  0  0  0  0  0
   11.2964  -18.9632   21.0150 C   0  0  0  0  0  0  0  0  0  0  0  0
   12.6468  -19.0829   20.3564 C   0  0  0  0  0  0  0  0  0  0  0  0
   13.6985  -19.0337   21.0444 O   0  0  0  0  0  0  0  0  0  0  0  0
   10.5202  -16.5160   23.8911 C   0  0  0  0  0  0  0  0  0  0  0  0
   11.3283  -15.5672   23.8900 O   0  0  0  0  0  0  0  0  0  0  0  0
   12.7899  -19.2498   18.9859 O   0  0  0  0  0  0  0  0  0  0  0  0
    9.8278  -16.8242   25.0710 N   0  0  0  0  0  0  0  0  0  0  0  0
   10.4240  -16.6716   26.4069 C   0  0  1  0  0  0  0  0  0  0  0  0
    9.7938  -15.4586   27.0138 C   0  0  0  0  0  0  0  0  0  0  0  0
    8.3799  -15.2595   26.6278 C   0  0  0  0  0  0  0  0  0  0  0  0
    7.4594  -16.2283   26.3005 C   0  0  0  0  0  0  0  0  0  0  0  0
    6.2993  -15.6124   26.0163 N   0  0  0  0  0  0  0  0  0  0  0  0
    6.4299  -14.2904   26.1455 C   0  0  0  0  0  0  0  0  0  0  0  0
    5.5436  -13.2196   25.9697 C   0  0  0  0  0  0  0  0  0  0  0  0
    5.9441  -11.9176   26.1728 C   0  0  0  0  0  0  0  0  0  0  0  0
    7.2473  -11.7070   26.5551 C   0  0  0  0  0  0  0  0  0  0  0  0
    8.1310  -12.7355   26.7332 C   0  0  0  0  0  0  0  0  0  0  0  0
    7.7285  -14.0544   26.5282 C   0  0  0  0  0  0  0  0  0  0  0  0
   10.2107  -17.8925   27.2175 C   0  0  0  0  0  0  0  0  0  0  0  0
    9.5300  -18.8776   26.8497 O   0  0  0  0  0  0  0  0  0  0  0  0
   10.8036  -17.9512   28.4688 O   0  0  0  0  0  0  0  0  0  0  0  0
  1  2  1  0
  3  2  1  0
  3  5  1  0
  3  4  1  6
  5  6  1  1
  7  5  1  0
  7  8  2  0
  9  7  1  0
 10  9  1  0
 10 15  1  0
 10 11  1  6
 12 11  1  0
 13 12  1  0
 13 14  2  0
 15 16  2  0
 15 18  1  0
 17 13  1  0
 18 19  1  0
 19 30  1  0
 19 20  1  1
 21 29  1  0
 21 20  1  0
 22 21  2  0
 23 22  1  0
 23 24  1  0
 24 25  1  0
 24 29  2  0
 25 26  2  0
 26 27  1  0
 28 27  2  0
 29 28  1  0
 30 31  2  0
 30 32  1  0
M  END
$$$$
