IEW.pdb
     RDKit          3D

 32 33  0  0  1  0  0  0  0  0999 V2000
    8.3937  -11.8872   21.2059 C   0  0  0  0  0  0  0  0  0  0  0  0
    7.8436  -13.2971   21.1835 C   0  0  0  0  0  0  0  0  0  0  0  0
    8.3691  -13.9935   19.9529 C   0  0  2  0  0  0  0  0  0  0  0  0
    7.7891  -13.2767   18.7516 C   0  0  0  0  0  0  0  0  0  0  0  0
    7.9359  -15.4161   19.9002 C   0  0  2  0  0  0  0  0  0  0  0  0
    6.5181  -15.5563   19.8838 N   0  0  0  0  0  0  0  0  0  0  0  0
    8.4942  -16.2446   20.9974 C   0  0  0  0  0  0  0  0  0  0  0  0
    7.7675  -16.7014   21.9239 O   0  0  0  0  0  0  0  0  0  0  0  0
    9.8771  -16.5495   21.0357 N   0  0  0  0  0  0  0  0  0  0  0  0
   10.5179  -17.3651   22.0401 C   0  0  1  0  0  0  0  0  0  0  0  0
   11.6696  -18.1682   21.5633 C   0  0  0  0  0  0  0  0  0  0  0  0
   12.3503  -19.0272   22.5665 C   0  0  0  0  0  0  0  0  0  0  0  0
   13.3925  -19.8216   21.8219 C   0  0  0  0  0  0  0  0  0  0  0  0
   13.9544  -19.3408   20.8047 O   0  0  0  0  0  0  0  0  0  0  0  0
   10.7497  -16.6288   23.3085 C   0  0  0  0  0  0  0  0  0  0  0  0
   11.3553  -15.5401   23.2715 O   0  0  0  0  0  0  0  0  0  0  0  0
   13.7733  -21.0967   22.2168 O   0  0  0  0  0  0  0  0  0  0  0  0
   10.3073  -17.1244   24.5436 N   0  0  0  0  0  0  0  0  0  0  0  0
   10.6299  -16.4755   25.8235 C   0  0  1  0  0  0  0  0  0  0  0  0
   10.0413  -15.1020   25.7600 C   0  0  0  0  0  0  0  0  0  0  0  0
    8.5741  -15.0683   25.9433 C   0  0  0  0  0  0  0  0  0  0  0  0
    7.7001  -16.1291   25.8796 C   0  0  0  0  0  0  0  0  0  0  0  0
    6.4631  -15.6555   26.1066 N   0  0  0  0  0  0  0  0  0  0  0  0
    6.4997  -14.3375   26.3138 C   0  0  0  0  0  0  0  0  0  0  0  0
    5.5101  -13.3840   26.5870 C   0  0  0  0  0  0  0  0  0  0  0  0
    5.8251  -12.0546   26.7613 C   0  0  0  0  0  0  0  0  0  0  0  0
    7.1480  -11.6971   26.6573 C   0  0  0  0  0  0  0  0  0  0  0  0
    8.1318  -12.6092   26.3915 C   0  0  0  0  0  0  0  0  0  0  0  0
    7.8160  -13.9555   26.2145 C   0  0  0  0  0  0  0  0  0  0  0  0
   10.1069  -17.2693   26.9590 C   0  0  0  0  0  0  0  0  0  0  0  0
   10.1948  -16.9295   28.1615 O   0  0  0  0  0  0  0  0  0  0  0  0
    9.4772  -18.4706   26.6742 O   0  0  0  0  0  0  0  0  0  0  0  0
  1  2  1  0
  3  2  1  0
  3  5  1  0
  3  4  1  6
  5  6  1  1
  7  5  1  0
  7  8  2  0
  9  7  1  0
 10  9  1  0
 10 15  1  0
 10 11  1  6
 12 11  1  0
 13 12  1  0
 13 14  2  0
 15 16  2  0
 15 18  1  0
 17 13  1  0
 18 19  1  0
 19 30  1  0
 19 20  1  6
 21 29  1  0
 21 20  1  0
 22 21  2  0
 23 22  1  0
 23 24  1  0
 24 25  1  0
 24 29  2  0
 25 26  2  0
 26 27  1  0
 28 27  2  0
 29 28  1  0
 30 31  2  0
 30 32  1  0
M  END
$$$$
