IEW.pdb
     RDKit          3D

 32 33  0  0  1  0  0  0  0  0999 V2000
    7.7891  -11.5021   19.3195 C   0  0  0  0  0  0  0  0  0  0  0  0
    7.7936  -12.9479   18.8719 C   0  0  0  0  0  0  0  0  0  0  0  0
    8.1149  -13.8143   20.0642 C   0  0  2  0  0  0  0  0  0  0  0  0
    9.5431  -13.5104   20.4658 C   0  0  0  0  0  0  0  0  0  0  0  0
    8.0226  -15.2617   19.7318 C   0  0  2  0  0  0  0  0  0  0  0  0
    6.7637  -15.6140   19.1652 N   0  0  0  0  0  0  0  0  0  0  0  0
    8.3033  -16.1519   20.8853 C   0  0  0  0  0  0  0  0  0  0  0  0
    7.4311  -16.3987   21.7647 O   0  0  0  0  0  0  0  0  0  0  0  0
    9.5756  -16.7572   21.0333 N   0  0  0  0  0  0  0  0  0  0  0  0
    9.9601  -17.6206   22.1247 C   0  0  1  0  0  0  0  0  0  0  0  0
   10.9022  -18.7091   21.7694 C   0  0  0  0  0  0  0  0  0  0  0  0
   11.3455  -19.6001   22.8726 C   0  0  0  0  0  0  0  0  0  0  0  0
   12.2308  -20.6508   22.2528 C   0  0  0  0  0  0  0  0  0  0  0  0
   12.4717  -20.6344   21.0186 O   0  0  0  0  0  0  0  0  0  0  0  0
   10.3116  -16.8637   23.3529 C   0  0  0  0  0  0  0  0  0  0  0  0
   10.9428  -15.7948   23.2421 O   0  0  0  0  0  0  0  0  0  0  0  0
   12.8103  -21.6660   23.0012 O   0  0  0  0  0  0  0  0  0  0  0  0
    9.9538  -17.3182   24.6304 N   0  0  0  0  0  0  0  0  0  0  0  0
   10.4494  -16.6924   25.8658 C   0  0  1  0  0  0  0  0  0  0  0  0
    9.9418  -15.2855   25.8587 C   0  0  0  0  0  0  0  0  0  0  0  0
    8.4944  -15.1679   26.1392 C   0  0  0  0  0  0  0  0  0  0  0  0
    7.5517  -16.1692   26.0975 C   0  0  0  0  0  0  0  0  0  0  0  0
    6.3648  -15.6288   26.4213 N   0  0  0  0  0  0  0  0  0  0  0  0
    6.4992  -14.3244   26.6699 C   0  0  0  0  0  0  0  0  0  0  0  0
    5.5923  -13.3223   27.0397 C   0  0  0  0  0  0  0  0  0  0  0  0
    6.0026  -12.0226   27.2376 C   0  0  0  0  0  0  0  0  0  0  0  0
    7.3365  -11.7441   27.0588 C   0  0  0  0  0  0  0  0  0  0  0  0
    8.2407  -12.7048   26.6982 C   0  0  0  0  0  0  0  0  0  0  0  0
    7.8283  -14.0213   26.4971 C   0  0  0  0  0  0  0  0  0  0  0  0
   10.0029  -17.4550   27.0541 C   0  0  0  0  0  0  0  0  0  0  0  0
    9.2259  -18.4367   27.0154 O   0  0  0  0  0  0  0  0  0  0  0  0
   10.4756  -17.0570   28.2946 O   0  0  0  0  0  0  0  0  0  0  0  0
  1  2  1  0
  3  2  1  0
  3  5  1  0
  3  4  1  6
  5  6  1  1
  7  5  1  0
  7  8  2  0
  9  7  1  0
 10  9  1  0
 10 15  1  0
 10 11  1  6
 12 11  1  0
 13 12  1  0
 13 14  2  0
 15 16  2  0
 15 18  1  0
 17 13  1  0
 18 19  1  0
 19 30  1  0
 19 20  1  1
 21 29  1  0
 21 20  1  0
 22 21  2  0
 23 22  1  0
 23 24  1  0
 24 25  1  0
 24 29  2  0
 25 26  2  0
 26 27  1  0
 28 27  2  0
 29 28  1  0
 30 31  2  0
 30 32  1  0
M  END
$$$$
