IEW.pdb
     RDKit          3D

 32 33  0  0  1  0  0  0  0  0999 V2000
    6.8724  -12.2042   18.9357 C   0  0  0  0  0  0  0  0  0  0  0  0
    7.3467  -13.5621   18.4647 C   0  0  0  0  0  0  0  0  0  0  0  0
    8.0782  -14.2314   19.6015 C   0  0  2  0  0  0  0  0  0  0  0  0
    9.2722  -13.3629   19.9378 C   0  0  0  0  0  0  0  0  0  0  0  0
    8.5767  -15.5792   19.2154 C   0  0  2  0  0  0  0  0  0  0  0  0
    7.5609  -16.3934   18.6366 N   0  0  0  0  0  0  0  0  0  0  0  0
    9.2126  -16.3168   20.3350 C   0  0  0  0  0  0  0  0  0  0  0  0
    8.5319  -16.9677   21.1765 O   0  0  0  0  0  0  0  0  0  0  0  0
   10.6205  -16.3105   20.4922 N   0  0  0  0  0  0  0  0  0  0  0  0
   11.3372  -16.9616   21.5632 C   0  0  1  0  0  0  0  0  0  0  0  0
   12.7306  -17.3560   21.2445 C   0  0  0  0  0  0  0  0  0  0  0  0
   13.5267  -17.9571   22.3457 C   0  0  0  0  0  0  0  0  0  0  0  0
   14.8865  -18.2713   21.7766 C   0  0  0  0  0  0  0  0  0  0  0  0
   15.8453  -18.5596   22.5377 O   0  0  0  0  0  0  0  0  0  0  0  0
   11.1639  -16.2714   22.8664 C   0  0  0  0  0  0  0  0  0  0  0  0
   11.4047  -15.0507   22.9387 O   0  0  0  0  0  0  0  0  0  0  0  0
   15.1391  -18.2574   20.4118 O   0  0  0  0  0  0  0  0  0  0  0  0
   10.7381  -16.9543   24.0149 N   0  0  0  0  0  0  0  0  0  0  0  0
    9.8321  -16.3558   25.0070 C   0  0  1  0  0  0  0  0  0  0  0  0
    8.6790  -15.7922   24.2390 C   0  0  0  0  0  0  0  0  0  0  0  0
    7.6211  -15.2044   25.0891 C   0  0  0  0  0  0  0  0  0  0  0  0
    6.3812  -15.7334   25.3648 C   0  0  0  0  0  0  0  0  0  0  0  0
    5.7410  -14.8760   26.1777 N   0  0  0  0  0  0  0  0  0  0  0  0
    6.5117  -13.8180   26.4387 C   0  0  0  0  0  0  0  0  0  0  0  0
    6.3235  -12.6645   27.2115 C   0  0  0  0  0  0  0  0  0  0  0  0
    7.3045  -11.7034   27.3143 C   0  0  0  0  0  0  0  0  0  0  0  0
    8.4769  -11.9176   26.6298 C   0  0  0  0  0  0  0  0  0  0  0  0
    8.6842  -13.0353   25.8693 C   0  0  0  0  0  0  0  0  0  0  0  0
    7.6930  -14.0099   25.7634 C   0  0  0  0  0  0  0  0  0  0  0  0
    9.4137  -17.3634   26.0084 C   0  0  0  0  0  0  0  0  0  0  0  0
    9.2788  -18.5858   25.7703 O   0  0  0  0  0  0  0  0  0  0  0  0
    9.1530  -16.9263   27.2975 O   0  0  0  0  0  0  0  0  0  0  0  0
  1  2  1  0
  3  2  1  0
  3  5  1  0
  3  4  1  6
  5  6  1  1
  7  5  1  0
  7  8  2  0
  9  7  1  0
 10  9  1  0
 10 15  1  0
 10 11  1  6
 12 11  1  0
 13 12  1  0
 13 14  2  0
 15 16  2  0
 15 18  1  0
 17 13  1  0
 18 19  1  0
 19 30  1  0
 19 20  1  6
 21 29  1  0
 21 20  1  0
 22 21  2  0
 23 22  1  0
 23 24  1  0
 24 25  1  0
 24 29  2  0
 25 26  2  0
 26 27  1  0
 28 27  2  0
 29 28  1  0
 30 31  2  0
 30 32  1  0
M  END
$$$$
