IEW.pdb
     RDKit          3D

 32 33  0  0  1  0  0  0  0  0999 V2000
    6.8664  -11.6894   20.0278 C   0  0  0  0  0  0  0  0  0  0  0  0
    7.2597  -13.0063   19.3941 C   0  0  0  0  0  0  0  0  0  0  0  0
    7.8199  -13.9036   20.4695 C   0  0  2  0  0  0  0  0  0  0  0  0
    9.1264  -13.2902   20.9278 C   0  0  0  0  0  0  0  0  0  0  0  0
    8.1029  -15.2697   19.9521 C   0  0  2  0  0  0  0  0  0  0  0  0
    7.0223  -15.8016   19.1911 N   0  0  0  0  0  0  0  0  0  0  0  0
    8.4738  -16.2382   21.0134 C   0  0  0  0  0  0  0  0  0  0  0  0
    7.6104  -16.7506   21.7797 O   0  0  0  0  0  0  0  0  0  0  0  0
    9.8256  -16.6194   21.1982 N   0  0  0  0  0  0  0  0  0  0  0  0
   10.3119  -17.4520   22.2729 C   0  0  1  0  0  0  0  0  0  0  0  0
   11.4750  -18.3072   21.9347 C   0  0  0  0  0  0  0  0  0  0  0  0
   12.7331  -17.6116   21.5593 C   0  0  0  0  0  0  0  0  0  0  0  0
   13.6819  -18.6706   21.0592 C   0  0  0  0  0  0  0  0  0  0  0  0
   13.3453  -19.8824   21.0647 O   0  0  0  0  0  0  0  0  0  0  0  0
   10.4285  -16.7145   23.5564 C   0  0  0  0  0  0  0  0  0  0  0  0
   11.0697  -15.6461   23.5815 O   0  0  0  0  0  0  0  0  0  0  0  0
   14.9473  -18.3635   20.5784 O   0  0  0  0  0  0  0  0  0  0  0  0
    9.8386  -17.1868   24.7378 N   0  0  0  0  0  0  0  0  0  0  0  0
   10.3889  -16.9017   26.0716 C   0  0  1  0  0  0  0  0  0  0  0  0
   10.0417  -15.4790   26.3757 C   0  0  0  0  0  0  0  0  0  0  0  0
    8.5998  -15.1734   26.2530 C   0  0  0  0  0  0  0  0  0  0  0  0
    7.5805  -16.0540   25.9724 C   0  0  0  0  0  0  0  0  0  0  0  0
    6.4307  -15.3586   25.9557 N   0  0  0  0  0  0  0  0  0  0  0  0
    6.6623  -14.0695   26.2127 C   0  0  0  0  0  0  0  0  0  0  0  0
    5.8277  -12.9482   26.3094 C   0  0  0  0  0  0  0  0  0  0  0  0
    6.3356  -11.6996   26.5922 C   0  0  0  0  0  0  0  0  0  0  0  0
    7.6935  -11.5938   26.7765 C   0  0  0  0  0  0  0  0  0  0  0  0
    8.5284  -12.6734   26.6874 C   0  0  0  0  0  0  0  0  0  0  0  0
    8.0171  -13.9384   26.4012 C   0  0  0  0  0  0  0  0  0  0  0  0
    9.8485  -17.8486   27.0739 C   0  0  0  0  0  0  0  0  0  0  0  0
    9.0328  -18.7637   26.8168 O   0  0  0  0  0  0  0  0  0  0  0  0
   10.2727  -17.7147   28.3865 O   0  0  0  0  0  0  0  0  0  0  0  0
  1  2  1  0
  3  2  1  0
  3  5  1  0
  3  4  1  6
  5  6  1  1
  7  5  1  0
  7  8  2  0
  9  7  1  0
 10  9  1  0
 10 15  1  0
 10 11  1  6
 12 11  1  0
 13 12  1  0
 13 14  2  0
 15 16  2  0
 15 18  1  0
 17 13  1  0
 18 19  1  0
 19 30  1  0
 19 20  1  1
 21 29  1  0
 21 20  1  0
 22 21  2  0
 23 22  1  0
 23 24  1  0
 24 25  1  0
 24 29  2  0
 25 26  2  0
 26 27  1  0
 28 27  2  0
 29 28  1  0
 30 31  2  0
 30 32  1  0
M  END
$$$$
