IEW.pdb
     RDKit          3D

 32 33  0  0  1  0  0  0  0  0999 V2000
    7.8122  -11.5542   19.8068 C   0  0  0  0  0  0  0  0  0  0  0  0
    7.9571  -12.9782   19.3149 C   0  0  0  0  0  0  0  0  0  0  0  0
    8.2279  -13.8671   20.5032 C   0  0  2  0  0  0  0  0  0  0  0  0
    9.5296  -13.4021   21.1219 C   0  0  0  0  0  0  0  0  0  0  0  0
    8.3865  -15.2903   20.0992 C   0  0  2  0  0  0  0  0  0  0  0  0
    7.2924  -15.7629   19.3186 N   0  0  0  0  0  0  0  0  0  0  0  0
    8.6001  -16.2092   21.2445 C   0  0  0  0  0  0  0  0  0  0  0  0
    7.6362  -16.7664   21.8410 O   0  0  0  0  0  0  0  0  0  0  0  0
    9.9096  -16.4900   21.7065 N   0  0  0  0  0  0  0  0  0  0  0  0
   10.2315  -17.3976   22.7822 C   0  0  1  0  0  0  0  0  0  0  0  0
   11.2461  -18.4292   22.4579 C   0  0  0  0  0  0  0  0  0  0  0  0
   12.4526  -17.9753   21.7190 C   0  0  0  0  0  0  0  0  0  0  0  0
   13.4447  -19.1088   21.7700 C   0  0  0  0  0  0  0  0  0  0  0  0
   13.2270  -20.1756   21.1404 O   0  0  0  0  0  0  0  0  0  0  0  0
   10.4408  -16.6973   24.0747 C   0  0  0  0  0  0  0  0  0  0  0  0
   11.1372  -15.6639   24.0943 O   0  0  0  0  0  0  0  0  0  0  0  0
   14.6224  -19.0295   22.5003 O   0  0  0  0  0  0  0  0  0  0  0  0
    9.8779  -17.1664   25.2704 N   0  0  0  0  0  0  0  0  0  0  0  0
   10.1128  -16.5174   26.5693 C   0  0  1  0  0  0  0  0  0  0  0  0
    8.7968  -16.5074   27.2798 C   0  0  0  0  0  0  0  0  0  0  0  0
    7.7177  -15.8222   26.5357 C   0  0  0  0  0  0  0  0  0  0  0  0
    6.6764  -16.4042   25.8501 C   0  0  0  0  0  0  0  0  0  0  0  0
    5.9302  -15.4183   25.3236 N   0  0  0  0  0  0  0  0  0  0  0  0
    6.4430  -14.2270   25.6386 C   0  0  0  0  0  0  0  0  0  0  0  0
    6.0581  -12.9120   25.3460 C   0  0  0  0  0  0  0  0  0  0  0  0
    6.7827  -11.8346   25.8054 C   0  0  0  0  0  0  0  0  0  0  0  0
    7.8992  -12.0973   26.5627 C   0  0  0  0  0  0  0  0  0  0  0  0
    8.2950  -13.3718   26.8616 C   0  0  0  0  0  0  0  0  0  0  0  0
    7.5635  -14.4643   26.3980 C   0  0  0  0  0  0  0  0  0  0  0  0
   11.1662  -17.2305   27.3276 C   0  0  0  0  0  0  0  0  0  0  0  0
   11.7235  -18.2853   26.9456 O   0  0  0  0  0  0  0  0  0  0  0  0
   11.5638  -16.6964   28.5430 O   0  0  0  0  0  0  0  0  0  0  0  0
  1  2  1  0
  3  2  1  0
  3  5  1  0
  3  4  1  6
  5  6  1  1
  7  5  1  0
  7  8  2  0
  9  7  1  0
 10  9  1  0
 10 15  1  0
 10 11  1  6
 12 11  1  0
 13 12  1  0
 13 14  2  0
 15 16  2  0
 15 18  1  0
 17 13  1  0
 18 19  1  0
 19 30  1  0
 19 20  1  1
 21 29  1  0
 21 20  1  0
 22 21  2  0
 23 22  1  0
 23 24  1  0
 24 25  1  0
 24 29  2  0
 25 26  2  0
 26 27  1  0
 28 27  2  0
 29 28  1  0
 30 31  2  0
 30 32  1  0
M  END
$$$$
