IEW.pdb
     RDKit          3D

 32 33  0  0  1  0  0  0  0  0999 V2000
    7.5098  -11.7694   19.4532 C   0  0  0  0  0  0  0  0  0  0  0  0
    7.6212  -13.2221   19.0432 C   0  0  0  0  0  0  0  0  0  0  0  0
    8.2556  -13.9893   20.1765 C   0  0  2  0  0  0  0  0  0  0  0  0
    9.6743  -13.4801   20.3220 C   0  0  0  0  0  0  0  0  0  0  0  0
    8.3116  -15.4479   19.8882 C   0  0  2  0  0  0  0  0  0  0  0  0
    7.0428  -15.9826   19.5221 N   0  0  0  0  0  0  0  0  0  0  0  0
    8.8740  -16.2493   21.0033 C   0  0  0  0  0  0  0  0  0  0  0  0
    8.1617  -16.6360   21.9719 O   0  0  0  0  0  0  0  0  0  0  0  0
   10.2448  -16.6070   21.0114 N   0  0  0  0  0  0  0  0  0  0  0  0
   10.9030  -17.3407   22.0665 C   0  0  1  0  0  0  0  0  0  0  0  0
   12.1253  -18.0750   21.6597 C   0  0  0  0  0  0  0  0  0  0  0  0
   12.8444  -18.8229   22.7233 C   0  0  0  0  0  0  0  0  0  0  0  0
   14.0111  -19.5078   22.0591 C   0  0  0  0  0  0  0  0  0  0  0  0
   14.8019  -18.8565   21.3295 O   0  0  0  0  0  0  0  0  0  0  0  0
   11.0346  -16.5478   23.3150 C   0  0  0  0  0  0  0  0  0  0  0  0
   11.5626  -15.4201   23.2599 O   0  0  0  0  0  0  0  0  0  0  0  0
   14.2625  -20.8635   22.2187 O   0  0  0  0  0  0  0  0  0  0  0  0
   10.5826  -17.0324   24.5508 N   0  0  0  0  0  0  0  0  0  0  0  0
   10.6676  -16.2488   25.7926 C   0  0  1  0  0  0  0  0  0  0  0  0
    9.9447  -14.9657   25.5317 C   0  0  0  0  0  0  0  0  0  0  0  0
    8.5052  -15.0082   25.8686 C   0  0  0  0  0  0  0  0  0  0  0  0
    7.6926  -16.1173   25.9227 C   0  0  0  0  0  0  0  0  0  0  0  0
    6.4607  -15.7066   26.2684 N   0  0  0  0  0  0  0  0  0  0  0  0
    6.4418  -14.3831   26.4397 C   0  0  0  0  0  0  0  0  0  0  0  0
    5.4322  -13.4784   26.7939 C   0  0  0  0  0  0  0  0  0  0  0  0
    5.6856  -12.1291   26.9028 C   0  0  0  0  0  0  0  0  0  0  0  0
    6.9674  -11.7018   26.6508 C   0  0  0  0  0  0  0  0  0  0  0  0
    7.9695  -12.5653   26.3036 C   0  0  0  0  0  0  0  0  0  0  0  0
    7.7160  -13.9317   26.1926 C   0  0  0  0  0  0  0  0  0  0  0  0
   10.0954  -17.0061   26.9294 C   0  0  0  0  0  0  0  0  0  0  0  0
   10.0256  -16.5762   28.1039 O   0  0  0  0  0  0  0  0  0  0  0  0
    9.6033  -18.2772   26.6790 O   0  0  0  0  0  0  0  0  0  0  0  0
  1  2  1  0
  3  2  1  0
  3  5  1  0
  3  4  1  6
  5  6  1  1
  7  5  1  0
  7  8  2  0
  9  7  1  0
 10  9  1  0
 10 15  1  0
 10 11  1  6
 12 11  1  0
 13 12  1  0
 13 14  2  0
 15 16  2  0
 15 18  1  0
 17 13  1  0
 18 19  1  0
 19 30  1  0
 19 20  1  6
 21 29  1  0
 21 20  1  0
 22 21  2  0
 23 22  1  0
 23 24  1  0
 24 25  1  0
 24 29  2  0
 25 26  2  0
 26 27  1  0
 28 27  2  0
 29 28  1  0
 30 31  2  0
 30 32  1  0
M  END
$$$$
