IEW.pdb
     RDKit          3D

 32 33  0  0  1  0  0  0  0  0999 V2000
    7.3066  -11.6949   20.0192 C   0  0  0  0  0  0  0  0  0  0  0  0
    7.2197  -13.1485   19.6066 C   0  0  0  0  0  0  0  0  0  0  0  0
    7.9714  -13.9764   20.6190 C   0  0  2  0  0  0  0  0  0  0  0  0
    9.4352  -13.6069   20.5005 C   0  0  0  0  0  0  0  0  0  0  0  0
    7.8352  -15.4329   20.3468 C   0  0  2  0  0  0  0  0  0  0  0  0
    6.4774  -15.8370   20.1958 N   0  0  0  0  0  0  0  0  0  0  0  0
    8.4868  -16.2884   21.3692 C   0  0  0  0  0  0  0  0  0  0  0  0
    7.8660  -16.6972   22.3904 O   0  0  0  0  0  0  0  0  0  0  0  0
    9.8421  -16.6749   21.2254 N   0  0  0  0  0  0  0  0  0  0  0  0
   10.5836  -17.4654   22.1794 C   0  0  1  0  0  0  0  0  0  0  0  0
   11.8029  -18.1203   21.6473 C   0  0  0  0  0  0  0  0  0  0  0  0
   12.6837  -18.8004   22.6318 C   0  0  0  0  0  0  0  0  0  0  0  0
   13.8206  -19.4073   21.8503 C   0  0  0  0  0  0  0  0  0  0  0  0
   14.1183  -20.6205   21.9957 O   0  0  0  0  0  0  0  0  0  0  0  0
   10.7625  -16.7694   23.4788 C   0  0  0  0  0  0  0  0  0  0  0  0
   11.4231  -15.7130   23.5108 O   0  0  0  0  0  0  0  0  0  0  0  0
   14.5777  -18.6693   20.9510 O   0  0  0  0  0  0  0  0  0  0  0  0
   10.2101  -17.2676   24.6676 N   0  0  0  0  0  0  0  0  0  0  0  0
   10.4500  -16.6458   25.9788 C   0  0  1  0  0  0  0  0  0  0  0  0
    9.9955  -15.2258   25.8616 C   0  0  0  0  0  0  0  0  0  0  0  0
    8.5268  -15.0592   25.9131 C   0  0  0  0  0  0  0  0  0  0  0  0
    7.5695  -16.0339   25.7494 C   0  0  0  0  0  0  0  0  0  0  0  0
    6.3652  -15.4511   25.8743 N   0  0  0  0  0  0  0  0  0  0  0  0
    6.5022  -14.1447   26.1111 C   0  0  0  0  0  0  0  0  0  0  0  0
    5.5824  -13.1074   26.3142 C   0  0  0  0  0  0  0  0  0  0  0  0
    5.9995  -11.8150   26.5435 C   0  0  0  0  0  0  0  0  0  0  0  0
    7.3535  -11.5798   26.5659 C   0  0  0  0  0  0  0  0  0  0  0  0
    8.2705  -12.5754   26.3706 C   0  0  0  0  0  0  0  0  0  0  0  0
    7.8513  -13.8846   26.1383 C   0  0  0  0  0  0  0  0  0  0  0  0
    9.7404  -17.3867   27.0469 C   0  0  0  0  0  0  0  0  0  0  0  0
    8.9548  -18.3413   26.8455 O   0  0  0  0  0  0  0  0  0  0  0  0
    9.9587  -16.9988   28.3593 O   0  0  0  0  0  0  0  0  0  0  0  0
  1  2  1  0
  3  2  1  0
  3  5  1  0
  3  4  1  6
  5  6  1  1
  7  5  1  0
  7  8  2  0
  9  7  1  0
 10  9  1  0
 10 15  1  0
 10 11  1  6
 12 11  1  0
 13 12  1  0
 13 14  2  0
 15 16  2  0
 15 18  1  0
 17 13  1  0
 18 19  1  0
 19 30  1  0
 19 20  1  6
 21 29  1  0
 21 20  1  0
 22 21  2  0
 23 22  1  0
 23 24  1  0
 24 25  1  0
 24 29  2  0
 25 26  2  0
 26 27  1  0
 28 27  2  0
 29 28  1  0
 30 31  2  0
 30 32  1  0
M  END
$$$$
