IEW.pdb
     RDKit          3D

 32 33  0  0  1  0  0  0  0  0999 V2000
    7.3477  -11.6040   19.9659 C   0  0  0  0  0  0  0  0  0  0  0  0
    7.3453  -13.0715   19.5952 C   0  0  0  0  0  0  0  0  0  0  0  0
    7.8727  -13.8596   20.7683 C   0  0  2  0  0  0  0  0  0  0  0  0
    9.2903  -13.3905   21.0209 C   0  0  0  0  0  0  0  0  0  0  0  0
    7.9098  -15.3184   20.4773 C   0  0  2  0  0  0  0  0  0  0  0  0
    6.6419  -15.8286   20.0750 N   0  0  0  0  0  0  0  0  0  0  0  0
    8.4266  -16.1327   21.6049 C   0  0  0  0  0  0  0  0  0  0  0  0
    7.6905  -16.4747   22.5726 O   0  0  0  0  0  0  0  0  0  0  0  0
    9.7790  -16.5542   21.6267 N   0  0  0  0  0  0  0  0  0  0  0  0
   10.3787  -17.3603   22.6636 C   0  0  1  0  0  0  0  0  0  0  0  0
   11.6387  -18.0441   22.2849 C   0  0  0  0  0  0  0  0  0  0  0  0
   12.2315  -18.9641   23.2899 C   0  0  0  0  0  0  0  0  0  0  0  0
   13.5309  -19.4611   22.7100 C   0  0  0  0  0  0  0  0  0  0  0  0
   14.5464  -19.5919   23.4403 O   0  0  0  0  0  0  0  0  0  0  0  0
   10.4121  -16.6667   23.9762 C   0  0  0  0  0  0  0  0  0  0  0  0
   10.9011  -15.5222   24.0407 O   0  0  0  0  0  0  0  0  0  0  0  0
   13.6646  -19.7912   21.3685 O   0  0  0  0  0  0  0  0  0  0  0  0
    9.9102  -17.2635   25.1417 N   0  0  0  0  0  0  0  0  0  0  0  0
   10.0252  -16.6395   26.4686 C   0  0  1  0  0  0  0  0  0  0  0  0
    8.6595  -16.6867   27.0766 C   0  0  0  0  0  0  0  0  0  0  0  0
    7.6682  -15.8272   26.3939 C   0  0  0  0  0  0  0  0  0  0  0  0
    6.6208  -16.2304   25.5981 C   0  0  0  0  0  0  0  0  0  0  0  0
    5.9726  -15.1285   25.1840 N   0  0  0  0  0  0  0  0  0  0  0  0
    6.5544  -14.0330   25.6766 C   0  0  0  0  0  0  0  0  0  0  0  0
    6.2789  -12.6649   25.5519 C   0  0  0  0  0  0  0  0  0  0  0  0
    7.0569  -11.7175   26.1797 C   0  0  0  0  0  0  0  0  0  0  0  0
    8.1152  -12.1642   26.9343 C   0  0  0  0  0  0  0  0  0  0  0  0
    8.4041  -13.4940   27.0712 C   0  0  0  0  0  0  0  0  0  0  0  0
    7.6184  -14.4552   26.4368 C   0  0  0  0  0  0  0  0  0  0  0  0
   11.0406  -17.3386   27.2894 C   0  0  0  0  0  0  0  0  0  0  0  0
   11.3442  -17.0217   28.4625 O   0  0  0  0  0  0  0  0  0  0  0  0
   11.7010  -18.4172   26.7227 O   0  0  0  0  0  0  0  0  0  0  0  0
  1  2  1  0
  3  2  1  0
  3  5  1  0
  3  4  1  6
  5  6  1  1
  7  5  1  0
  7  8  2  0
  9  7  1  0
 10  9  1  0
 10 15  1  0
 10 11  1  6
 12 11  1  0
 13 12  1  0
 13 14  2  0
 15 16  2  0
 15 18  1  0
 17 13  1  0
 18 19  1  0
 19 30  1  0
 19 20  1  1
 21 29  1  0
 21 20  1  0
 22 21  2  0
 23 22  1  0
 23 24  1  0
 24 25  1  0
 24 29  2  0
 25 26  2  0
 26 27  1  0
 28 27  2  0
 29 28  1  0
 30 31  2  0
 30 32  1  0
M  END
$$$$
