KTR.pdb
     RDKit          3D

 28 27  0  0  1  0  0  0  0  0999 V2000
    8.3210  -17.8057   15.9942 N   0  0  0  0  0  0  0  0  0  0  0  0
    7.4720  -17.0790   16.9179 C   0  0  1  0  0  0  0  0  0  0  0  0
    6.4585  -18.0106   17.5399 C   0  0  0  0  0  0  0  0  0  0  0  0
    5.9263  -19.0241   16.5936 C   0  0  0  0  0  0  0  0  0  0  0  0
    4.8508  -19.8969   17.1153 C   0  0  0  0  0  0  0  0  0  0  0  0
    4.2428  -20.8228   16.1042 C   0  0  0  0  0  0  0  0  0  0  0  0
    3.2827  -21.7045   16.7501 N   0  0  0  0  0  0  0  0  0  0  0  0
    8.3211  -16.4140   17.9059 C   0  0  0  0  0  0  0  0  0  0  0  0
    9.4669  -16.8855   18.2276 O   0  0  0  0  0  0  0  0  0  0  0  0
    7.1148  -12.8719   19.6796 C   0  0  0  0  0  0  0  0  0  0  0  0
    8.5952  -13.0858   19.4339 C   0  0  1  0  0  0  0  0  0  0  0  0
    9.3881  -12.3073   20.2357 O   0  0  0  0  0  0  0  0  0  0  0  0
    8.8691  -14.5726   19.5518 C   0  0  2  0  0  0  0  0  0  0  0  0
    7.9698  -15.2101   18.5895 N   0  0  0  0  0  0  0  0  0  0  0  0
    8.6329  -15.0862   20.9224 C   0  0  0  0  0  0  0  0  0  0  0  0
    7.4754  -15.1675   21.4181 O   0  0  0  0  0  0  0  0  0  0  0  0
    6.6888  -19.9968   24.0376 N   0  0  0  0  0  0  0  0  0  0  0  0
    6.9474  -20.8233   22.9060 C   0  0  0  0  0  0  0  0  0  0  0  0
    6.1462  -21.8156   22.6759 N   0  0  0  0  0  0  0  0  0  0  0  0
    8.0384  -20.5986   22.0336 N   0  0  0  0  0  0  0  0  0  0  0  0
    9.1753  -19.7804   22.3941 C   0  0  0  0  0  0  0  0  0  0  0  0
    8.6759  -18.3633   22.6615 C   0  0  0  0  0  0  0  0  0  0  0  0
    9.8811  -17.5214   22.9618 C   0  0  0  0  0  0  0  0  0  0  0  0
    9.6156  -16.0492   23.0499 C   0  0  2  0  0  0  0  0  0  0  0  0
    9.7294  -15.4955   21.6941 N   0  0  0  0  0  0  0  0  0  0  0  0
   10.6584  -15.4099   23.8775 C   0  0  0  0  0  0  0  0  0  0  0  0
   10.5713  -15.4607   25.2804 O   0  0  0  0  0  0  0  0  0  0  0  0
   11.6600  -14.7979   23.4136 O   0  0  0  0  0  0  0  0  0  0  0  0
  2  1  1  6
  3  2  1  0
  4  3  1  0
  5  4  1  0
  6  5  1  0
  7  6  1  0
  8  9  2  0
  8  2  1  0
 11 10  1  1
 11 13  1  0
 12 11  1  0
 13 14  1  6
 14  8  1  0
 15 13  1  0
 16 15  2  0
 18 17  1  0
 19 18  2  0
 20 18  1  0
 21 20  1  0
 21 22  1  0
 22 23  1  0
 24 23  1  6
 24 26  1  0
 24 25  1  0
 25 15  1  0
 26 27  1  0
 28 26  2  0
M  END
$$$$
