KTR.pdb
     RDKit          3D

 28 27  0  0  1  0  0  0  0  0999 V2000
    8.5257  -15.8729   16.8354 N   0  0  0  0  0  0  0  0  0  0  0  0
    8.9785  -14.5115   17.0446 C   0  0  1  0  0  0  0  0  0  0  0  0
    8.1963  -13.5600   16.1701 C   0  0  0  0  0  0  0  0  0  0  0  0
    8.8053  -13.3487   14.8320 C   0  0  0  0  0  0  0  0  0  0  0  0
    8.8179  -14.5239   13.9323 C   0  0  0  0  0  0  0  0  0  0  0  0
    9.3633  -14.2624   12.5599 C   0  0  0  0  0  0  0  0  0  0  0  0
    9.3442  -15.4871   11.7747 N   0  0  0  0  0  0  0  0  0  0  0  0
    8.8718  -14.1991   18.4695 C   0  0  0  0  0  0  0  0  0  0  0  0
    9.3118  -13.0956   18.9464 O   0  0  0  0  0  0  0  0  0  0  0  0
    5.7668  -14.1749   20.3790 C   0  0  0  0  0  0  0  0  0  0  0  0
    6.6966  -15.0452   21.2010 C   0  0  1  0  0  0  0  0  0  0  0  0
    6.4278  -16.3829   21.0743 O   0  0  0  0  0  0  0  0  0  0  0  0
    8.1193  -14.6646   20.8396 C   0  0  2  0  0  0  0  0  0  0  0  0
    8.2848  -15.0651   19.4420 N   0  0  0  0  0  0  0  0  0  0  0  0
    9.1221  -15.3290   21.7063 C   0  0  0  0  0  0  0  0  0  0  0  0
    9.9705  -16.1429   21.2481 O   0  0  0  0  0  0  0  0  0  0  0  0
   10.1580  -14.1077   30.7506 N   0  0  0  0  0  0  0  0  0  0  0  0
   10.6271  -15.3475   30.2280 C   0  0  0  0  0  0  0  0  0  0  0  0
   10.7560  -16.3468   31.0431 N   0  0  0  0  0  0  0  0  0  0  0  0
   10.9531  -15.5224   28.8623 N   0  0  0  0  0  0  0  0  0  0  0  0
   10.0510  -15.1673   27.7890 C   0  0  0  0  0  0  0  0  0  0  0  0
   10.7435  -15.4741   26.4641 C   0  0  0  0  0  0  0  0  0  0  0  0
    9.8247  -15.0146   25.3705 C   0  0  0  0  0  0  0  0  0  0  0  0
   10.0675  -15.6493   24.0349 C   0  0  2  0  0  0  0  0  0  0  0  0
    9.1300  -15.0451   23.0790 N   0  0  0  0  0  0  0  0  0  0  0  0
    9.7538  -17.0905   24.1109 C   0  0  0  0  0  0  0  0  0  0  0  0
   10.7709  -18.0165   24.4050 O   0  0  0  0  0  0  0  0  0  0  0  0
    8.6051  -17.5800   23.9268 O   0  0  0  0  0  0  0  0  0  0  0  0
  2  1  1  1
  3  2  1  0
  4  3  1  0
  5  4  1  0
  6  5  1  0
  7  6  1  0
  8  9  2  0
  8  2  1  0
 11 10  1  6
 11 13  1  0
 12 11  1  0
 13 14  1  6
 14  8  1  0
 15 13  1  0
 16 15  2  0
 18 17  1  0
 19 18  2  0
 20 18  1  0
 21 20  1  0
 21 22  1  0
 22 23  1  0
 24 23  1  1
 24 26  1  0
 24 25  1  0
 25 15  1  0
 26 27  1  0
 28 26  2  0
M  END
$$$$
