KTR.pdb
     RDKit          3D

 28 27  0  0  1  0  0  0  0  0999 V2000
    9.7836  -17.7054   16.9509 N   0  0  0  0  0  0  0  0  0  0  0  0
    8.6008  -17.3482   17.7094 C   0  0  1  0  0  0  0  0  0  0  0  0
    7.9352  -18.5895   18.2555 C   0  0  0  0  0  0  0  0  0  0  0  0
    8.7687  -19.8124   18.1304 C   0  0  0  0  0  0  0  0  0  0  0  0
    8.5803  -20.8362   19.1827 C   0  0  0  0  0  0  0  0  0  0  0  0
    7.9114  -22.0976   18.7236 C   0  0  0  0  0  0  0  0  0  0  0  0
    8.8363  -23.2163   18.8229 N   0  0  0  0  0  0  0  0  0  0  0  0
    8.9860  -16.3985   18.7529 C   0  0  0  0  0  0  0  0  0  0  0  0
   10.2105  -16.2351   19.0885 O   0  0  0  0  0  0  0  0  0  0  0  0
    8.1456  -12.7391   19.1956 C   0  0  0  0  0  0  0  0  0  0  0  0
    7.6741  -13.4549   20.4458 C   0  0  1  0  0  0  0  0  0  0  0  0
    6.3194  -13.6607   20.4651 O   0  0  0  0  0  0  0  0  0  0  0  0
    8.4931  -14.7236   20.5837 C   0  0  2  0  0  0  0  0  0  0  0  0
    8.0654  -15.5833   19.4795 N   0  0  0  0  0  0  0  0  0  0  0  0
    8.2869  -15.3930   21.8905 C   0  0  0  0  0  0  0  0  0  0  0  0
    7.4802  -16.3528   22.0325 O   0  0  0  0  0  0  0  0  0  0  0  0
   11.0183  -16.4115   29.6597 N   0  0  0  0  0  0  0  0  0  0  0  0
   11.4282  -17.4604   28.7866 C   0  0  0  0  0  0  0  0  0  0  0  0
   11.1795  -18.6828   29.1382 N   0  0  0  0  0  0  0  0  0  0  0  0
   12.0904  -17.2144   27.5607 N   0  0  0  0  0  0  0  0  0  0  0  0
   11.7423  -16.1147   26.6882 C   0  0  0  0  0  0  0  0  0  0  0  0
   10.3969  -16.4290   26.0400 C   0  0  0  0  0  0  0  0  0  0  0  0
   10.0710  -15.2850   25.1255 C   0  0  0  0  0  0  0  0  0  0  0  0
    8.7815  -15.4254   24.3751 C   0  0  2  0  0  0  0  0  0  0  0  0
    9.0105  -14.9471   23.0052 N   0  0  0  0  0  0  0  0  0  0  0  0
    7.7601  -14.5498   24.9842 C   0  0  0  0  0  0  0  0  0  0  0  0
    6.9280  -15.0448   26.0044 O   0  0  0  0  0  0  0  0  0  0  0  0
    7.5632  -13.3478   24.6530 O   0  0  0  0  0  0  0  0  0  0  0  0
  2  1  1  1
  3  2  1  0
  4  3  1  0
  5  4  1  0
  6  5  1  0
  7  6  1  0
  8  9  2  0
  8  2  1  0
 11 10  1  6
 11 13  1  0
 12 11  1  0
 13 14  1  6
 14  8  1  0
 15 13  1  0
 16 15  2  0
 18 17  1  0
 19 18  2  0
 20 18  1  0
 21 20  1  0
 21 22  1  0
 22 23  1  0
 24 23  1  1
 24 26  1  0
 24 25  1  0
 25 15  1  0
 26 27  1  0
 28 26  2  0
M  END
$$$$
