KTR.pdb
     RDKit          3D

 28 27  0  0  1  0  0  0  0  0999 V2000
    4.1095  -22.0409   21.7750 N   0  0  0  0  0  0  0  0  0  0  0  0
    4.6756  -22.6883   22.9423 C   0  0  1  0  0  0  0  0  0  0  0  0
    4.6721  -24.1881   22.7618 C   0  0  0  0  0  0  0  0  0  0  0  0
    3.5051  -24.6894   21.9919 C   0  0  0  0  0  0  0  0  0  0  0  0
    3.3841  -26.1605   21.8818 C   0  0  0  0  0  0  0  0  0  0  0  0
    2.1549  -26.6413   21.1697 C   0  0  0  0  0  0  0  0  0  0  0  0
    2.1644  -28.0937   21.0852 N   0  0  0  0  0  0  0  0  0  0  0  0
    6.0123  -22.1423   23.1752 C   0  0  0  0  0  0  0  0  0  0  0  0
    7.0088  -22.4818   22.4468 O   0  0  0  0  0  0  0  0  0  0  0  0
    7.0054  -18.6581   23.0741 C   0  0  0  0  0  0  0  0  0  0  0  0
    7.4650  -19.1371   24.4369 C   0  0  1  0  0  0  0  0  0  0  0  0
    6.6290  -18.7474   25.4503 O   0  0  0  0  0  0  0  0  0  0  0  0
    7.6719  -20.6367   24.3496 C   0  0  2  0  0  0  0  0  0  0  0  0
    6.3314  -21.2053   24.2049 N   0  0  0  0  0  0  0  0  0  0  0  0
    8.3570  -21.1856   25.5444 C   0  0  0  0  0  0  0  0  0  0  0  0
    7.7232  -21.5503   26.5727 O   0  0  0  0  0  0  0  0  0  0  0  0
   16.6399  -24.5047   25.6880 N   0  0  0  0  0  0  0  0  0  0  0  0
   16.1826  -24.4506   27.0364 C   0  0  0  0  0  0  0  0  0  0  0  0
   16.8906  -25.0401   27.9479 N   0  0  0  0  0  0  0  0  0  0  0  0
   14.9934  -23.7809   27.4098 N   0  0  0  0  0  0  0  0  0  0  0  0
   14.0973  -23.1786   26.4475 C   0  0  0  0  0  0  0  0  0  0  0  0
   12.8160  -22.7804   27.1747 C   0  0  0  0  0  0  0  0  0  0  0  0
   11.8685  -22.2509   26.1387 C   0  0  0  0  0  0  0  0  0  0  0  0
   10.5428  -21.7972   26.6701 C   0  0  2  0  0  0  0  0  0  0  0  0
    9.7538  -21.3044   25.5333 N   0  0  0  0  0  0  0  0  0  0  0  0
   10.7451  -20.6622   27.5931 C   0  0  0  0  0  0  0  0  0  0  0  0
   11.0059  -20.9012   28.9544 O   0  0  0  0  0  0  0  0  0  0  0  0
   10.7018  -19.4484   27.2495 O   0  0  0  0  0  0  0  0  0  0  0  0
  2  1  1  6
  3  2  1  0
  4  3  1  0
  5  4  1  0
  6  5  1  0
  7  6  1  0
  8  9  2  0
  8  2  1  0
 11 10  1  6
 11 13  1  0
 12 11  1  0
 13 14  1  1
 14  8  1  0
 15 13  1  0
 16 15  2  0
 18 17  1  0
 19 18  2  0
 20 18  1  0
 21 20  1  0
 21 22  1  0
 22 23  1  0
 24 23  1  6
 24 26  1  0
 24 25  1  0
 25 15  1  0
 26 27  1  0
 28 26  2  0
M  END
$$$$
