KTR.pdb
     RDKit          3D

 28 27  0  0  1  0  0  0  0  0999 V2000
    9.0966  -17.8332   18.2763 N   0  0  0  0  0  0  0  0  0  0  0  0
    9.7623  -16.9403   19.2047 C   0  0  1  0  0  0  0  0  0  0  0  0
    8.8918  -15.7392   19.4902 C   0  0  0  0  0  0  0  0  0  0  0  0
    8.5687  -14.9406   18.2804 C   0  0  0  0  0  0  0  0  0  0  0  0
    7.7299  -13.7410   18.4999 C   0  0  0  0  0  0  0  0  0  0  0  0
    7.5035  -12.8972   17.2809 C   0  0  0  0  0  0  0  0  0  0  0  0
    6.6068  -11.7960   17.5969 N   0  0  0  0  0  0  0  0  0  0  0  0
   10.1101  -17.6950   20.4083 C   0  0  0  0  0  0  0  0  0  0  0  0
    9.3882  -18.6698   20.8175 O   0  0  0  0  0  0  0  0  0  0  0  0
   13.1048  -19.4501   21.2702 C   0  0  0  0  0  0  0  0  0  0  0  0
   12.9198  -18.5536   22.4783 C   0  0  1  0  0  0  0  0  0  0  0  0
   13.8208  -17.5220   22.5213 O   0  0  0  0  0  0  0  0  0  0  0  0
   11.4704  -18.1084   22.5008 C   0  0  2  0  0  0  0  0  0  0  0  0
   11.2532  -17.4300   21.2227 N   0  0  0  0  0  0  0  0  0  0  0  0
   11.1710  -17.2075   23.6396 C   0  0  0  0  0  0  0  0  0  0  0  0
   11.6571  -16.0459   23.7217 O   0  0  0  0  0  0  0  0  0  0  0  0
    6.8506  -19.9617   24.9127 N   0  0  0  0  0  0  0  0  0  0  0  0
    5.9699  -19.2426   24.0537 C   0  0  0  0  0  0  0  0  0  0  0  0
    5.4950  -19.8523   23.0134 N   0  0  0  0  0  0  0  0  0  0  0  0
    5.6000  -17.8986   24.2966 N   0  0  0  0  0  0  0  0  0  0  0  0
    6.2000  -17.0964   25.3398 C   0  0  0  0  0  0  0  0  0  0  0  0
    7.6288  -16.7621   24.9208 C   0  0  0  0  0  0  0  0  0  0  0  0
    8.5109  -17.0434   26.1014 C   0  0  0  0  0  0  0  0  0  0  0  0
    9.9776  -16.8681   25.8485 C   0  0  2  0  0  0  0  0  0  0  0  0
   10.3207  -17.6584   24.6588 N   0  0  0  0  0  0  0  0  0  0  0  0
   10.7422  -17.4231   26.9836 C   0  0  0  0  0  0  0  0  0  0  0  0
   10.7574  -16.7484   28.2176 O   0  0  0  0  0  0  0  0  0  0  0  0
   11.4093  -18.4936   26.9374 O   0  0  0  0  0  0  0  0  0  0  0  0
  2  1  1  6
  3  2  1  0
  4  3  1  0
  5  4  1  0
  6  5  1  0
  7  6  1  0
  8  9  2  0
  8  2  1  0
 11 10  1  6
 11 13  1  0
 12 11  1  0
 13 14  1  6
 14  8  1  0
 15 13  1  0
 16 15  2  0
 18 17  1  0
 19 18  2  0
 20 18  1  0
 21 20  1  0
 21 22  1  0
 22 23  1  0
 24 23  1  1
 24 26  1  0
 24 25  1  0
 25 15  1  0
 26 27  1  0
 28 26  2  0
M  END
$$$$
