KTR.pdb
     RDKit          3D

 28 27  0  0  1  0  0  0  0  0999 V2000
    8.8668  -14.9971   16.3489 N   0  0  0  0  0  0  0  0  0  0  0  0
    8.8713  -16.0652   17.3294 C   0  0  1  0  0  0  0  0  0  0  0  0
    9.8432  -17.1467   16.9200 C   0  0  0  0  0  0  0  0  0  0  0  0
    9.9472  -17.3240   15.4491 C   0  0  0  0  0  0  0  0  0  0  0  0
   10.8976  -18.3600   14.9862 C   0  0  0  0  0  0  0  0  0  0  0  0
   11.0623  -18.4459   13.4980 C   0  0  0  0  0  0  0  0  0  0  0  0
   12.0326  -19.4769   13.1630 N   0  0  0  0  0  0  0  0  0  0  0  0
    9.1713  -15.4918   18.6411 C   0  0  0  0  0  0  0  0  0  0  0  0
   10.2727  -14.8795   18.8664 O   0  0  0  0  0  0  0  0  0  0  0  0
    7.5562  -12.8859   20.2397 C   0  0  0  0  0  0  0  0  0  0  0  0
    7.5080  -13.9472   21.3208 C   0  0  1  0  0  0  0  0  0  0  0  0
    6.2734  -14.5288   21.4441 O   0  0  0  0  0  0  0  0  0  0  0  0
    8.6292  -14.9308   21.0477 C   0  0  2  0  0  0  0  0  0  0  0  0
    8.2945  -15.5544   19.7669 N   0  0  0  0  0  0  0  0  0  0  0  0
    8.7639  -15.9492   22.1167 C   0  0  0  0  0  0  0  0  0  0  0  0
    8.0496  -16.9890   22.1464 O   0  0  0  0  0  0  0  0  0  0  0  0
   15.9887  -15.2830   23.1734 N   0  0  0  0  0  0  0  0  0  0  0  0
   15.6380  -16.4948   22.5108 C   0  0  0  0  0  0  0  0  0  0  0  0
   16.3038  -16.8282   21.4501 N   0  0  0  0  0  0  0  0  0  0  0  0
   14.5980  -17.3381   22.9681 N   0  0  0  0  0  0  0  0  0  0  0  0
   13.6939  -16.9618   24.0325 C   0  0  0  0  0  0  0  0  0  0  0  0
   12.2650  -17.1072   23.5169 C   0  0  0  0  0  0  0  0  0  0  0  0
   11.3514  -16.6623   24.6208 C   0  0  0  0  0  0  0  0  0  0  0  0
    9.8944  -16.6585   24.2703 C   0  0  2  0  0  0  0  0  0  0  0  0
    9.7147  -15.7528   23.1278 N   0  0  0  0  0  0  0  0  0  0  0  0
    9.1184  -16.1059   25.3988 C   0  0  0  0  0  0  0  0  0  0  0  0
    8.8717  -16.8963   26.5358 O   0  0  0  0  0  0  0  0  0  0  0  0
    8.6392  -14.9386   25.4298 O   0  0  0  0  0  0  0  0  0  0  0  0
  2  1  1  6
  3  2  1  0
  4  3  1  0
  5  4  1  0
  6  5  1  0
  7  6  1  0
  8  9  2  0
  8  2  1  0
 11 10  1  6
 11 13  1  0
 12 11  1  0
 13 14  1  6
 14  8  1  0
 15 13  1  0
 16 15  2  0
 18 17  1  0
 19 18  2  0
 20 18  1  0
 21 20  1  0
 21 22  1  0
 22 23  1  0
 24 23  1  1
 24 26  1  0
 24 25  1  0
 25 15  1  0
 26 27  1  0
 28 26  2  0
M  END
$$$$
