KTR.pdb
     RDKit          3D

 28 27  0  0  1  0  0  0  0  0999 V2000
    9.3687  -16.8239   16.5853 N   0  0  0  0  0  0  0  0  0  0  0  0
    8.6145  -17.0765   17.7976 C   0  0  1  0  0  0  0  0  0  0  0  0
    8.7056  -18.5362   18.1755 C   0  0  0  0  0  0  0  0  0  0  0  0
    7.8540  -19.4192   17.3384 C   0  0  0  0  0  0  0  0  0  0  0  0
    6.4262  -19.4958   17.7210 C   0  0  0  0  0  0  0  0  0  0  0  0
    5.6102  -20.4691   16.9234 C   0  0  0  0  0  0  0  0  0  0  0  0
    4.1999  -20.3200   17.2478 N   0  0  0  0  0  0  0  0  0  0  0  0
    9.1043  -16.1816   18.8457 C   0  0  0  0  0  0  0  0  0  0  0  0
    9.9303  -15.2385   18.5867 O   0  0  0  0  0  0  0  0  0  0  0  0
    8.3358  -13.6856   19.1971 C   0  0  0  0  0  0  0  0  0  0  0  0
    7.8396  -14.0948   20.5696 C   0  0  1  0  0  0  0  0  0  0  0  0
    6.5346  -14.5128   20.5635 O   0  0  0  0  0  0  0  0  0  0  0  0
    8.8128  -15.1178   21.1225 C   0  0  2  0  0  0  0  0  0  0  0  0
    8.7230  -16.2658   20.2196 N   0  0  0  0  0  0  0  0  0  0  0  0
    8.4932  -15.5100   22.5161 C   0  0  0  0  0  0  0  0  0  0  0  0
    7.3693  -15.9844   22.8384 O   0  0  0  0  0  0  0  0  0  0  0  0
   12.0525  -18.4879   21.3086 N   0  0  0  0  0  0  0  0  0  0  0  0
   12.2247  -19.6901   22.0538 C   0  0  0  0  0  0  0  0  0  0  0  0
   12.0912  -20.8202   21.4335 N   0  0  0  0  0  0  0  0  0  0  0  0
   12.5342  -19.6914   23.4345 N   0  0  0  0  0  0  0  0  0  0  0  0
   12.3484  -18.5334   24.2808 C   0  0  0  0  0  0  0  0  0  0  0  0
   10.9660  -17.9528   23.9964 C   0  0  0  0  0  0  0  0  0  0  0  0
   10.7859  -16.7770   24.9108 C   0  0  0  0  0  0  0  0  0  0  0  0
    9.4668  -16.0771   24.7853 C   0  0  2  0  0  0  0  0  0  0  0  0
    9.4696  -15.3498   23.5091 N   0  0  0  0  0  0  0  0  0  0  0  0
    9.3361  -15.0768   25.8639 C   0  0  0  0  0  0  0  0  0  0  0  0
    8.8982  -15.4729   27.1405 O   0  0  0  0  0  0  0  0  0  0  0  0
    9.5943  -13.8484   25.7312 O   0  0  0  0  0  0  0  0  0  0  0  0
  2  1  1  6
  3  2  1  0
  4  3  1  0
  5  4  1  0
  6  5  1  0
  7  6  1  0
  8  9  2  0
  8  2  1  0
 11 10  1  6
 11 13  1  0
 12 11  1  0
 13 14  1  6
 14  8  1  0
 15 13  1  0
 16 15  2  0
 18 17  1  0
 19 18  2  0
 20 18  1  0
 21 20  1  0
 21 22  1  0
 22 23  1  0
 24 23  1  1
 24 26  1  0
 24 25  1  0
 25 15  1  0
 26 27  1  0
 28 26  2  0
M  END
$$$$
