KTR.pdb
     RDKit          3D

 28 27  0  0  1  0  0  0  0  0999 V2000
    9.1911  -17.9718   19.3194 N   0  0  0  0  0  0  0  0  0  0  0  0
   10.4420  -17.2866   19.5800 C   0  0  1  0  0  0  0  0  0  0  0  0
   11.0993  -16.8857   18.2803 C   0  0  0  0  0  0  0  0  0  0  0  0
   10.5381  -17.5805   17.0936 C   0  0  0  0  0  0  0  0  0  0  0  0
    9.5253  -16.8277   16.3201 C   0  0  0  0  0  0  0  0  0  0  0  0
    9.1526  -17.4410   15.0032 C   0  0  0  0  0  0  0  0  0  0  0  0
    8.1658  -16.6114   14.3289 N   0  0  0  0  0  0  0  0  0  0  0  0
   10.1756  -16.1504   20.4617 C   0  0  0  0  0  0  0  0  0  0  0  0
   11.1129  -15.3662   20.8425 O   0  0  0  0  0  0  0  0  0  0  0  0
    7.7759  -13.3155   19.8403 C   0  0  0  0  0  0  0  0  0  0  0  0
    7.3925  -13.9787   21.1483 C   0  0  1  0  0  0  0  0  0  0  0  0
    6.3536  -14.8622   21.0153 O   0  0  0  0  0  0  0  0  0  0  0  0
    8.6493  -14.5882   21.7385 C   0  0  2  0  0  0  0  0  0  0  0  0
    8.8847  -15.8112   20.9704 N   0  0  0  0  0  0  0  0  0  0  0  0
    8.5109  -14.8858   23.1843 C   0  0  0  0  0  0  0  0  0  0  0  0
    8.1846  -14.0012   24.0229 O   0  0  0  0  0  0  0  0  0  0  0  0
    5.0055  -20.9810   23.2887 N   0  0  0  0  0  0  0  0  0  0  0  0
    5.7780  -21.3076   24.4407 C   0  0  0  0  0  0  0  0  0  0  0  0
    6.0109  -22.5582   24.6881 N   0  0  0  0  0  0  0  0  0  0  0  0
    6.2946  -20.3218   25.3144 N   0  0  0  0  0  0  0  0  0  0  0  0
    5.8412  -18.9484   25.3030 C   0  0  0  0  0  0  0  0  0  0  0  0
    6.7445  -18.1569   24.3615 C   0  0  0  0  0  0  0  0  0  0  0  0
    8.0682  -17.9997   25.0504 C   0  0  0  0  0  0  0  0  0  0  0  0
    8.6233  -16.6078   25.0393 C   0  0  2  0  0  0  0  0  0  0  0  0
    8.7494  -16.1911   23.6363 N   0  0  0  0  0  0  0  0  0  0  0  0
    9.9802  -16.6147   25.6221 C   0  0  0  0  0  0  0  0  0  0  0  0
   10.1573  -16.9037   26.9872 O   0  0  0  0  0  0  0  0  0  0  0  0
   11.0354  -16.3735   24.9729 O   0  0  0  0  0  0  0  0  0  0  0  0
  2  1  1  6
  3  2  1  0
  4  3  1  0
  5  4  1  0
  6  5  1  0
  7  6  1  0
  8  9  2  0
  8  2  1  0
 11 10  1  6
 11 13  1  0
 12 11  1  0
 13 14  1  6
 14  8  1  0
 15 13  1  0
 16 15  2  0
 18 17  1  0
 19 18  2  0
 20 18  1  0
 21 20  1  0
 21 22  1  0
 22 23  1  0
 24 23  1  6
 24 26  1  0
 24 25  1  0
 25 15  1  0
 26 27  1  0
 28 26  2  0
M  END
$$$$
