KTR.pdb
     RDKit          3D

 28 27  0  0  1  0  0  0  0  0999 V2000
   10.2435  -16.0043   16.0711 N   0  0  0  0  0  0  0  0  0  0  0  0
    9.2785  -16.5902   16.9810 C   0  0  1  0  0  0  0  0  0  0  0  0
    9.5462  -18.0676   17.1469 C   0  0  0  0  0  0  0  0  0  0  0  0
   10.8973  -18.4800   16.6880 C   0  0  0  0  0  0  0  0  0  0  0  0
   11.1903  -19.9294   16.7541 C   0  0  0  0  0  0  0  0  0  0  0  0
   10.0618  -20.8216   16.3302 C   0  0  0  0  0  0  0  0  0  0  0  0
   10.4653  -22.2159   16.4288 N   0  0  0  0  0  0  0  0  0  0  0  0
    9.3232  -15.8544   18.2442 C   0  0  0  0  0  0  0  0  0  0  0  0
   10.3906  -15.2678   18.6382 O   0  0  0  0  0  0  0  0  0  0  0  0
    7.0145  -13.1514   19.3992 C   0  0  0  0  0  0  0  0  0  0  0  0
    7.0181  -14.1945   20.4990 C   0  0  1  0  0  0  0  0  0  0  0  0
    5.8961  -14.9811   20.4933 O   0  0  0  0  0  0  0  0  0  0  0  0
    8.3164  -14.9704   20.3902 C   0  0  2  0  0  0  0  0  0  0  0  0
    8.2166  -15.7196   19.1372 N   0  0  0  0  0  0  0  0  0  0  0  0
    8.5311  -15.8816   21.5398 C   0  0  0  0  0  0  0  0  0  0  0  0
    8.4425  -17.1353   21.4277 O   0  0  0  0  0  0  0  0  0  0  0  0
   10.7133  -13.1781   29.8492 N   0  0  0  0  0  0  0  0  0  0  0  0
   10.7347  -14.6027   29.8327 C   0  0  0  0  0  0  0  0  0  0  0  0
   11.0922  -15.2229   30.9131 N   0  0  0  0  0  0  0  0  0  0  0  0
   10.3815  -15.3554   28.6878 N   0  0  0  0  0  0  0  0  0  0  0  0
   10.1184  -14.7493   27.4013 C   0  0  0  0  0  0  0  0  0  0  0  0
    9.7463  -15.8575   26.4203 C   0  0  0  0  0  0  0  0  0  0  0  0
    9.4900  -15.2037   25.0943 C   0  0  0  0  0  0  0  0  0  0  0  0
    9.0462  -16.1351   24.0075 C   0  0  2  0  0  0  0  0  0  0  0  0
    8.8428  -15.3350   22.7925 N   0  0  0  0  0  0  0  0  0  0  0  0
    7.7430  -16.7281   24.3697 C   0  0  0  0  0  0  0  0  0  0  0  0
    7.6960  -17.9403   25.0814 O   0  0  0  0  0  0  0  0  0  0  0  0
    6.6244  -16.2187   24.0827 O   0  0  0  0  0  0  0  0  0  0  0  0
  2  1  1  6
  3  2  1  0
  4  3  1  0
  5  4  1  0
  6  5  1  0
  7  6  1  0
  8  9  2  0
  8  2  1  0
 11 10  1  6
 11 13  1  0
 12 11  1  0
 13 14  1  6
 14  8  1  0
 15 13  1  0
 16 15  2  0
 18 17  1  0
 19 18  2  0
 20 18  1  0
 21 20  1  0
 21 22  1  0
 22 23  1  0
 24 23  1  1
 24 26  1  0
 24 25  1  0
 25 15  1  0
 26 27  1  0
 28 26  2  0
M  END
$$$$
