KTR.pdb
     RDKit          3D

 28 27  0  0  1  0  0  0  0  0999 V2000
   11.3313  -16.0602   16.6494 N   0  0  0  0  0  0  0  0  0  0  0  0
   10.0490  -16.4013   17.2337 C   0  0  1  0  0  0  0  0  0  0  0  0
    9.8486  -17.8985   17.2176 C   0  0  0  0  0  0  0  0  0  0  0  0
   11.0893  -18.6652   17.4985 C   0  0  0  0  0  0  0  0  0  0  0  0
   10.9635  -20.1395   17.4590 C   0  0  0  0  0  0  0  0  0  0  0  0
   12.2313  -20.8890   17.7420 C   0  0  0  0  0  0  0  0  0  0  0  0
   11.9563  -22.3143   17.8389 N   0  0  0  0  0  0  0  0  0  0  0  0
    9.9828  -15.8287   18.5780 C   0  0  0  0  0  0  0  0  0  0  0  0
   11.0428  -15.5799   19.2511 O   0  0  0  0  0  0  0  0  0  0  0  0
    7.4347  -13.0745   19.8248 C   0  0  0  0  0  0  0  0  0  0  0  0
    7.4259  -14.2629   20.7657 C   0  0  1  0  0  0  0  0  0  0  0  0
    6.3376  -15.0765   20.5890 O   0  0  0  0  0  0  0  0  0  0  0  0
    8.7577  -14.9730   20.6194 C   0  0  2  0  0  0  0  0  0  0  0  0
    8.7684  -15.4995   19.2541 N   0  0  0  0  0  0  0  0  0  0  0  0
    8.9328  -16.0610   21.6111 C   0  0  0  0  0  0  0  0  0  0  0  0
    8.7760  -17.2760   21.3086 O   0  0  0  0  0  0  0  0  0  0  0  0
   11.5436  -14.0983   29.6450 N   0  0  0  0  0  0  0  0  0  0  0  0
   10.5058  -13.8815   28.6930 C   0  0  0  0  0  0  0  0  0  0  0  0
    9.8710  -12.7521   28.7248 N   0  0  0  0  0  0  0  0  0  0  0  0
   10.1490  -14.8483   27.7234 N   0  0  0  0  0  0  0  0  0  0  0  0
   10.9664  -16.0054   27.4320 C   0  0  0  0  0  0  0  0  0  0  0  0
   10.2338  -16.8579   26.3998 C   0  0  0  0  0  0  0  0  0  0  0  0
   10.1311  -16.0397   25.1463 C   0  0  0  0  0  0  0  0  0  0  0  0
    9.4334  -16.7175   24.0064 C   0  0  2  0  0  0  0  0  0  0  0  0
    9.2841  -15.7317   22.9277 N   0  0  0  0  0  0  0  0  0  0  0  0
    8.0766  -17.1192   24.4291 C   0  0  0  0  0  0  0  0  0  0  0  0
    7.8700  -18.3749   25.0282 O   0  0  0  0  0  0  0  0  0  0  0  0
    7.0466  -16.4025   24.2925 O   0  0  0  0  0  0  0  0  0  0  0  0
  2  1  1  1
  3  2  1  0
  4  3  1  0
  5  4  1  0
  6  5  1  0
  7  6  1  0
  8  9  2  0
  8  2  1  0
 11 10  1  6
 11 13  1  0
 12 11  1  0
 13 14  1  6
 14  8  1  0
 15 13  1  0
 16 15  2  0
 18 17  1  0
 19 18  2  0
 20 18  1  0
 21 20  1  0
 21 22  1  0
 22 23  1  0
 24 23  1  1
 24 26  1  0
 24 25  1  0
 25 15  1  0
 26 27  1  0
 28 26  2  0
M  END
$$$$
