KTR.pdb
     RDKit          3D

 28 27  0  0  1  0  0  0  0  0999 V2000
    7.9281  -17.5363   17.5538 N   0  0  0  0  0  0  0  0  0  0  0  0
    8.5339  -16.6379   18.5173 C   0  0  1  0  0  0  0  0  0  0  0  0
    7.5691  -15.5339   18.8813 C   0  0  0  0  0  0  0  0  0  0  0  0
    7.5653  -14.4075   17.9133 C   0  0  0  0  0  0  0  0  0  0  0  0
    8.6710  -13.4327   18.0481 C   0  0  0  0  0  0  0  0  0  0  0  0
    8.4423  -12.3555   19.0662 C   0  0  0  0  0  0  0  0  0  0  0  0
    9.5742  -11.4417   19.0872 N   0  0  0  0  0  0  0  0  0  0  0  0
    8.9713  -17.4207   19.6728 C   0  0  0  0  0  0  0  0  0  0  0  0
    8.2588  -18.3754   20.1414 O   0  0  0  0  0  0  0  0  0  0  0  0
   12.0591  -19.2136   20.4678 C   0  0  0  0  0  0  0  0  0  0  0  0
   11.9117  -18.2533   21.6313 C   0  0  1  0  0  0  0  0  0  0  0  0
   12.8097  -17.2191   21.5879 O   0  0  0  0  0  0  0  0  0  0  0  0
   10.4622  -17.8105   21.6791 C   0  0  2  0  0  0  0  0  0  0  0  0
   10.1979  -17.2068   20.3727 N   0  0  0  0  0  0  0  0  0  0  0  0
   10.1991  -16.8464   22.7743 C   0  0  0  0  0  0  0  0  0  0  0  0
   10.1046  -15.6053   22.5672 O   0  0  0  0  0  0  0  0  0  0  0  0
    6.4315  -11.2564   25.7170 N   0  0  0  0  0  0  0  0  0  0  0  0
    6.1762  -12.0915   26.8429 C   0  0  0  0  0  0  0  0  0  0  0  0
    5.4955  -11.5989   27.8296 N   0  0  0  0  0  0  0  0  0  0  0  0
    6.6359  -13.4276   26.9186 N   0  0  0  0  0  0  0  0  0  0  0  0
    7.1792  -14.1356   25.7805 C   0  0  0  0  0  0  0  0  0  0  0  0
    7.4833  -15.5676   26.2117 C   0  0  0  0  0  0  0  0  0  0  0  0
    8.1427  -16.2470   25.0478 C   0  0  0  0  0  0  0  0  0  0  0  0
    9.6105  -16.4993   25.2140 C   0  0  2  0  0  0  0  0  0  0  0  0
   10.0498  -17.3270   24.0827 N   0  0  0  0  0  0  0  0  0  0  0  0
    9.8390  -17.2790   26.4473 C   0  0  0  0  0  0  0  0  0  0  0  0
    9.9081  -16.6241   27.6901 O   0  0  0  0  0  0  0  0  0  0  0  0
    9.9834  -18.5325   26.4809 O   0  0  0  0  0  0  0  0  0  0  0  0
  2  1  1  6
  3  2  1  0
  4  3  1  0
  5  4  1  0
  6  5  1  0
  7  6  1  0
  8  9  2  0
  8  2  1  0
 11 10  1  6
 11 13  1  0
 12 11  1  0
 13 14  1  6
 14  8  1  0
 15 13  1  0
 16 15  2  0
 18 17  1  0
 19 18  2  0
 20 18  1  0
 21 20  1  0
 21 22  1  0
 22 23  1  0
 24 23  1  6
 24 26  1  0
 24 25  1  0
 25 15  1  0
 26 27  1  0
 28 26  2  0
M  END
$$$$
