KTR.pdb
     RDKit          3D

 28 27  0  0  1  0  0  0  0  0999 V2000
    5.5079  -20.0144   20.1500 N   0  0  0  0  0  0  0  0  0  0  0  0
    6.6908  -20.7977   19.8509 C   0  0  1  0  0  0  0  0  0  0  0  0
    6.6366  -21.3046   18.4289 C   0  0  0  0  0  0  0  0  0  0  0  0
    5.5021  -20.7518   17.6459 C   0  0  0  0  0  0  0  0  0  0  0  0
    5.3363  -21.2891   16.2767 C   0  0  0  0  0  0  0  0  0  0  0  0
    4.1659  -20.7364   15.5191 C   0  0  0  0  0  0  0  0  0  0  0  0
    4.1476  -21.2757   14.1680 N   0  0  0  0  0  0  0  0  0  0  0  0
    7.8722  -19.9793   20.1229 C   0  0  0  0  0  0  0  0  0  0  0  0
    9.0546  -20.4226   19.9133 O   0  0  0  0  0  0  0  0  0  0  0  0
    8.4299  -16.5302   18.9242 C   0  0  0  0  0  0  0  0  0  0  0  0
    8.7212  -16.4620   20.4102 C   0  0  1  0  0  0  0  0  0  0  0  0
    7.7231  -15.8509   21.1230 O   0  0  0  0  0  0  0  0  0  0  0  0
    9.0426  -17.8678   20.8790 C   0  0  2  0  0  0  0  0  0  0  0  0
    7.8280  -18.6459   20.6329 N   0  0  0  0  0  0  0  0  0  0  0  0
    9.4243  -17.9152   22.3109 C   0  0  0  0  0  0  0  0  0  0  0  0
    8.5807  -17.7563   23.2356 O   0  0  0  0  0  0  0  0  0  0  0  0
   13.7706  -23.7406   26.8560 N   0  0  0  0  0  0  0  0  0  0  0  0
   13.6066  -22.6116   27.7097 C   0  0  0  0  0  0  0  0  0  0  0  0
   13.8395  -22.7615   28.9757 N   0  0  0  0  0  0  0  0  0  0  0  0
   13.2028  -21.3447   27.2260 N   0  0  0  0  0  0  0  0  0  0  0  0
   12.7395  -21.1334   25.8722 C   0  0  0  0  0  0  0  0  0  0  0  0
   12.2539  -19.6914   25.7551 C   0  0  0  0  0  0  0  0  0  0  0  0
   11.7274  -19.5162   24.3611 C   0  0  0  0  0  0  0  0  0  0  0  0
   11.2753  -18.1268   24.0278 C   0  0  2  0  0  0  0  0  0  0  0  0
   10.7650  -18.1442   22.6505 N   0  0  0  0  0  0  0  0  0  0  0  0
   12.4342  -17.2119   24.0585 C   0  0  0  0  0  0  0  0  0  0  0  0
   12.9691  -16.7962   25.2912 O   0  0  0  0  0  0  0  0  0  0  0  0
   13.0072  -16.7536   23.0314 O   0  0  0  0  0  0  0  0  0  0  0  0
  2  1  1  6
  3  2  1  0
  4  3  1  0
  5  4  1  0
  6  5  1  0
  7  6  1  0
  8  9  2  0
  8  2  1  0
 11 10  1  6
 11 13  1  0
 12 11  1  0
 13 14  1  1
 14  8  1  0
 15 13  1  0
 16 15  2  0
 18 17  1  0
 19 18  2  0
 20 18  1  0
 21 20  1  0
 21 22  1  0
 22 23  1  0
 24 23  1  6
 24 26  1  0
 24 25  1  0
 25 15  1  0
 26 27  1  0
 28 26  2  0
M  END
$$$$
