KTR.pdb
     RDKit          3D

 28 27  0  0  1  0  0  0  0  0999 V2000
    9.9290  -16.4172   15.7497 N   0  0  0  0  0  0  0  0  0  0  0  0
    8.8504  -16.5496   16.7095 C   0  0  1  0  0  0  0  0  0  0  0  0
    8.4997  -18.0060   16.9044 C   0  0  0  0  0  0  0  0  0  0  0  0
    8.2761  -18.7370   15.6310 C   0  0  0  0  0  0  0  0  0  0  0  0
    7.9184  -20.1676   15.7586 C   0  0  0  0  0  0  0  0  0  0  0  0
    7.6308  -20.8645   14.4621 C   0  0  0  0  0  0  0  0  0  0  0  0
    7.3839  -22.2783   14.7006 N   0  0  0  0  0  0  0  0  0  0  0  0
    9.2471  -15.8848   17.9504 C   0  0  0  0  0  0  0  0  0  0  0  0
   10.4747  -15.8108   18.3057 O   0  0  0  0  0  0  0  0  0  0  0  0
    7.4191  -12.7706   19.6891 C   0  0  0  0  0  0  0  0  0  0  0  0
    7.6084  -13.9148   20.6650 C   0  0  1  0  0  0  0  0  0  0  0  0
    6.4569  -14.6233   20.8879 O   0  0  0  0  0  0  0  0  0  0  0  0
    8.7646  -14.7581   20.1636 C   0  0  2  0  0  0  0  0  0  0  0  0
    8.3351  -15.2704   18.8619 N   0  0  0  0  0  0  0  0  0  0  0  0
    9.1008  -15.8675   21.0879 C   0  0  0  0  0  0  0  0  0  0  0  0
    8.9139  -17.0769   20.7802 O   0  0  0  0  0  0  0  0  0  0  0  0
   14.3196  -19.4739   20.6557 N   0  0  0  0  0  0  0  0  0  0  0  0
   14.0487  -20.2187   21.8399 C   0  0  0  0  0  0  0  0  0  0  0  0
   14.0827  -21.5125   21.7715 N   0  0  0  0  0  0  0  0  0  0  0  0
   13.7475  -19.5991   23.0758 N   0  0  0  0  0  0  0  0  0  0  0  0
   13.6037  -18.1673   23.2208 C   0  0  0  0  0  0  0  0  0  0  0  0
   12.2291  -17.8853   23.8208 C   0  0  0  0  0  0  0  0  0  0  0  0
   11.5427  -16.9108   22.9096 C   0  0  0  0  0  0  0  0  0  0  0  0
   10.1321  -16.5777   23.2903 C   0  0  2  0  0  0  0  0  0  0  0  0
    9.6439  -15.5655   22.3444 N   0  0  0  0  0  0  0  0  0  0  0  0
   10.1164  -15.9695   24.6360 C   0  0  0  0  0  0  0  0  0  0  0  0
   10.4204  -16.7519   25.7645 O   0  0  0  0  0  0  0  0  0  0  0  0
    9.8422  -14.7593   24.8674 O   0  0  0  0  0  0  0  0  0  0  0  0
  2  1  1  6
  3  2  1  0
  4  3  1  0
  5  4  1  0
  6  5  1  0
  7  6  1  0
  8  9  2  0
  8  2  1  0
 11 10  1  6
 11 13  1  0
 12 11  1  0
 13 14  1  6
 14  8  1  0
 15 13  1  0
 16 15  2  0
 18 17  1  0
 19 18  2  0
 20 18  1  0
 21 20  1  0
 21 22  1  0
 22 23  1  0
 24 23  1  6
 24 26  1  0
 24 25  1  0
 25 15  1  0
 26 27  1  0
 28 26  2  0
M  END
$$$$
