KTR.pdb
     RDKit          3D

 28 27  0  0  1  0  0  0  0  0999 V2000
    7.6311  -17.0951   17.4487 N   0  0  0  0  0  0  0  0  0  0  0  0
    9.0738  -16.9502   17.4544 C   0  0  1  0  0  0  0  0  0  0  0  0
    9.5335  -16.2465   16.1993 C   0  0  0  0  0  0  0  0  0  0  0  0
    8.6307  -15.1473   15.7719 C   0  0  0  0  0  0  0  0  0  0  0  0
    9.0356  -14.4125   14.5524 C   0  0  0  0  0  0  0  0  0  0  0  0
    8.0674  -13.3612   14.0982 C   0  0  0  0  0  0  0  0  0  0  0  0
    8.5749  -12.6980   12.9069 N   0  0  0  0  0  0  0  0  0  0  0  0
    9.4669  -16.2534   18.6787 C   0  0  0  0  0  0  0  0  0  0  0  0
   10.6905  -15.9641   18.9193 O   0  0  0  0  0  0  0  0  0  0  0  0
    7.5383  -13.3879   20.5348 C   0  0  0  0  0  0  0  0  0  0  0  0
    7.8386  -14.5016   21.5182 C   0  0  1  0  0  0  0  0  0  0  0  0
    6.7406  -15.2681   21.8093 O   0  0  0  0  0  0  0  0  0  0  0  0
    9.0143  -15.2892   20.9735 C   0  0  2  0  0  0  0  0  0  0  0  0
    8.5554  -15.8380   19.6970 N   0  0  0  0  0  0  0  0  0  0  0  0
    9.4486  -16.3690   21.8920 C   0  0  0  0  0  0  0  0  0  0  0  0
    9.1560  -17.5796   21.6898 O   0  0  0  0  0  0  0  0  0  0  0  0
   15.7539  -18.9305   26.6043 N   0  0  0  0  0  0  0  0  0  0  0  0
   15.5235  -19.8980   25.5839 C   0  0  0  0  0  0  0  0  0  0  0  0
   15.9442  -21.1080   25.7803 N   0  0  0  0  0  0  0  0  0  0  0  0
   14.8568  -19.5851   24.3758 N   0  0  0  0  0  0  0  0  0  0  0  0
   14.3477  -18.2639   24.0805 C   0  0  0  0  0  0  0  0  0  0  0  0
   12.8992  -18.1948   24.5561 C   0  0  0  0  0  0  0  0  0  0  0  0
   12.1965  -17.1972   23.6831 C   0  0  0  0  0  0  0  0  0  0  0  0
   10.7366  -17.0235   23.9732 C   0  0  2  0  0  0  0  0  0  0  0  0
   10.2090  -16.0365   23.0217 N   0  0  0  0  0  0  0  0  0  0  0  0
   10.5678  -16.4642   25.3296 C   0  0  0  0  0  0  0  0  0  0  0  0
   10.7860  -17.2765   26.4569 O   0  0  0  0  0  0  0  0  0  0  0  0
   10.2307  -15.2721   25.5715 O   0  0  0  0  0  0  0  0  0  0  0  0
  2  1  1  6
  3  2  1  0
  4  3  1  0
  5  4  1  0
  6  5  1  0
  7  6  1  0
  8  9  2  0
  8  2  1  0
 11 10  1  6
 11 13  1  0
 12 11  1  0
 13 14  1  6
 14  8  1  0
 15 13  1  0
 16 15  2  0
 18 17  1  0
 19 18  2  0
 20 18  1  0
 21 20  1  0
 21 22  1  0
 22 23  1  0
 24 23  1  6
 24 26  1  0
 24 25  1  0
 25 15  1  0
 26 27  1  0
 28 26  2  0
M  END
$$$$
