KTR.pdb
     RDKit          3D

 28 27  0  0  1  0  0  0  0  0999 V2000
    7.8455  -16.7284   16.7855 N   0  0  0  0  0  0  0  0  0  0  0  0
    9.2763  -16.5922   16.9766 C   0  0  1  0  0  0  0  0  0  0  0  0
    9.9159  -16.0085   15.7388 C   0  0  0  0  0  0  0  0  0  0  0  0
    9.0403  -16.0576   14.5402 C   0  0  0  0  0  0  0  0  0  0  0  0
    8.5687  -14.7516   14.0275 C   0  0  0  0  0  0  0  0  0  0  0  0
    7.8633  -14.8099   12.7053 C   0  0  0  0  0  0  0  0  0  0  0  0
    8.6137  -15.6413   11.7767 N   0  0  0  0  0  0  0  0  0  0  0  0
    9.5114  -15.7891   18.1762 C   0  0  0  0  0  0  0  0  0  0  0  0
   10.6796  -15.3575   18.4728 O   0  0  0  0  0  0  0  0  0  0  0  0
    7.7762  -12.7466   19.5328 C   0  0  0  0  0  0  0  0  0  0  0  0
    7.7000  -13.7862   20.6333 C   0  0  1  0  0  0  0  0  0  0  0  0
    6.4559  -14.3480   20.7527 O   0  0  0  0  0  0  0  0  0  0  0  0
    8.8103  -14.7905   20.3924 C   0  0  2  0  0  0  0  0  0  0  0  0
    8.4949  -15.4164   19.1078 N   0  0  0  0  0  0  0  0  0  0  0  0
    8.9024  -15.8042   21.4703 C   0  0  0  0  0  0  0  0  0  0  0  0
    8.3990  -16.9554   21.3534 O   0  0  0  0  0  0  0  0  0  0  0  0
   13.8498  -21.5178   23.9444 N   0  0  0  0  0  0  0  0  0  0  0  0
   12.6781  -21.4419   24.7517 C   0  0  0  0  0  0  0  0  0  0  0  0
   12.1950  -22.5428   25.2358 N   0  0  0  0  0  0  0  0  0  0  0  0
   12.0312  -20.2170   25.0400 N   0  0  0  0  0  0  0  0  0  0  0  0
   12.3301  -18.9882   24.3381 C   0  0  0  0  0  0  0  0  0  0  0  0
   11.4211  -17.8927   24.8884 C   0  0  0  0  0  0  0  0  0  0  0  0
   11.0770  -16.9889   23.7412 C   0  0  0  0  0  0  0  0  0  0  0  0
    9.7053  -16.3884   23.8012 C   0  0  2  0  0  0  0  0  0  0  0  0
    9.5698  -15.4755   22.6584 N   0  0  0  0  0  0  0  0  0  0  0  0
    9.5755  -15.5804   25.0305 C   0  0  0  0  0  0  0  0  0  0  0  0
    9.3447  -16.2122   26.2657 O   0  0  0  0  0  0  0  0  0  0  0  0
    9.6571  -14.3213   25.0671 O   0  0  0  0  0  0  0  0  0  0  0  0
  2  1  1  6
  3  2  1  0
  4  3  1  0
  5  4  1  0
  6  5  1  0
  7  6  1  0
  8  9  2  0
  8  2  1  0
 11 10  1  6
 11 13  1  0
 12 11  1  0
 13 14  1  6
 14  8  1  0
 15 13  1  0
 16 15  2  0
 18 17  1  0
 19 18  2  0
 20 18  1  0
 21 20  1  0
 21 22  1  0
 22 23  1  0
 24 23  1  1
 24 26  1  0
 24 25  1  0
 25 15  1  0
 26 27  1  0
 28 26  2  0
M  END
$$$$
