HIF.pdb
     RDKit          3D

 30 31  0  0  1  0  0  0  0  0999 V2000
   25.7062  -20.9136  -13.9218 N   0  0  0  0  0  0  0  0  0  0  0  0
   24.8732  -20.0809  -13.0821 C   0  0  1  0  0  0  0  0  0  0  0  0
   23.5312  -19.8844  -13.7545 C   0  0  0  0  0  0  0  0  0  0  0  0
   23.7166  -19.0791  -14.9791 C   0  0  0  0  0  0  0  0  0  0  0  0
   23.4827  -19.4133  -16.3073 C   0  0  0  0  0  0  0  0  0  0  0  0
   23.8098  -18.3292  -17.0413 N   0  0  0  0  0  0  0  0  0  0  0  0
   24.2309  -17.3510  -16.2320 C   0  0  0  0  0  0  0  0  0  0  0  0
   24.1769  -17.8007  -14.9730 N   0  0  0  0  0  0  0  0  0  0  0  0
   24.7215  -20.7736  -11.7760 C   0  0  0  0  0  0  0  0  0  0  0  0
   24.5452  -22.0381  -11.7739 O   0  0  0  0  0  0  0  0  0  0  0  0
   27.4036  -19.0669   -7.3269 C   0  0  0  0  0  0  0  0  0  0  0  0
   26.7534  -19.9941   -8.3391 C   0  0  0  0  0  0  0  0  0  0  0  0
   25.2596  -20.0372   -8.1699 C   0  0  2  0  0  0  0  0  0  0  0  0
   24.8605  -20.4137   -6.7617 C   0  0  0  0  0  0  0  0  0  0  0  0
   24.5216  -20.7627   -9.2419 C   0  0  2  0  0  0  0  0  0  0  0  0
   24.7658  -20.0815  -10.5450 N   0  0  0  0  0  0  0  0  0  0  0  0
   23.0515  -20.8426   -9.0689 C   0  0  0  0  0  0  0  0  0  0  0  0
   22.3232  -19.8261   -9.3670 O   0  0  0  0  0  0  0  0  0  0  0  0
   22.3322  -21.9533   -8.5982 N   0  0  0  0  0  0  0  0  0  0  0  0
   20.8554  -22.0007   -8.6258 C   0  0  1  0  0  0  0  0  0  0  0  0
   20.3832  -22.5284   -9.9555 C   0  0  0  0  0  0  0  0  0  0  0  0
   18.9485  -22.7483  -10.0570 C   0  0  0  0  0  0  0  0  0  0  0  0
   18.0708  -21.7123  -10.3133 C   0  0  0  0  0  0  0  0  0  0  0  0
   16.7086  -21.9236  -10.4174 C   0  0  0  0  0  0  0  0  0  0  0  0
   16.2084  -23.1952  -10.2628 C   0  0  0  0  0  0  0  0  0  0  0  0
   17.0552  -24.2528  -10.0061 C   0  0  0  0  0  0  0  0  0  0  0  0
   18.4198  -24.0081   -9.9073 C   0  0  0  0  0  0  0  0  0  0  0  0
   20.3449  -22.7650   -7.4722 C   0  0  0  0  0  0  0  0  0  0  0  0
   21.1690  -23.6602   -6.8329 O   0  0  0  0  0  0  0  0  0  0  0  0
   19.1779  -22.6014   -7.0805 O   0  0  0  0  0  0  0  0  0  0  0  0
  2  3  1  0
  2  1  1  6
  3  4  1  0
  4  8  1  0
  4  5  2  0
  5  6  1  0
  7  6  1  0
  8  7  2  0
  9  2  1  0
 10  9  2  0
 12 13  1  0
 12 11  1  0
 13 14  1  1
 13 15  1  0
 15 16  1  6
 16  9  1  0
 17 15  1  0
 17 18  2  0
 19 17  1  0
 20 19  1  0
 20 21  1  6
 22 21  1  0
 22 27  1  0
 23 22  2  0
 24 23  1  0
 24 25  2  0
 25 26  1  0
 26 27  2  0
 28 20  1  0
 29 28  1  0
 30 28  2  0
M  END
$$$$
