HIF.pdb
     RDKit          3D

 30 31  0  0  1  0  0  0  0  0999 V2000
   35.2025   -3.9139  -15.4845 N   0  0  0  0  0  0  0  0  0  0  0  0
   34.0113   -4.6845  -15.2027 C   0  0  1  0  0  0  0  0  0  0  0  0
   32.8082   -3.7662  -15.2334 C   0  0  0  0  0  0  0  0  0  0  0  0
   32.8250   -2.9058  -14.0325 C   0  0  0  0  0  0  0  0  0  0  0  0
   33.6961   -2.9063  -12.9501 C   0  0  0  0  0  0  0  0  0  0  0  0
   33.2819   -1.9254  -12.1210 N   0  0  0  0  0  0  0  0  0  0  0  0
   32.2043   -1.3262  -12.6397 C   0  0  0  0  0  0  0  0  0  0  0  0
   31.9197   -1.9185  -13.8052 N   0  0  0  0  0  0  0  0  0  0  0  0
   33.9057   -5.7405  -16.2431 C   0  0  0  0  0  0  0  0  0  0  0  0
   34.2848   -5.4655  -17.4309 O   0  0  0  0  0  0  0  0  0  0  0  0
   35.0203  -11.5795  -16.9022 C   0  0  0  0  0  0  0  0  0  0  0  0
   34.1841  -10.4420  -17.4624 C   0  0  0  0  0  0  0  0  0  0  0  0
   34.1950   -9.2462  -16.5502 C   0  0  2  0  0  0  0  0  0  0  0  0
   34.0200   -9.6387  -15.1012 C   0  0  0  0  0  0  0  0  0  0  0  0
   33.3469   -8.1041  -16.9934 C   0  0  2  0  0  0  0  0  0  0  0  0
   33.4021   -7.0301  -15.9611 N   0  0  0  0  0  0  0  0  0  0  0  0
   31.9140   -8.4147  -17.2124 C   0  0  0  0  0  0  0  0  0  0  0  0
   31.1090   -8.4267  -16.2103 O   0  0  0  0  0  0  0  0  0  0  0  0
   31.3093   -8.7072  -18.4458 N   0  0  0  0  0  0  0  0  0  0  0  0
   29.8683   -9.0147  -18.5596 C   0  0  1  0  0  0  0  0  0  0  0  0
   29.2198   -8.0787  -19.5460 C   0  0  0  0  0  0  0  0  0  0  0  0
   27.8373   -8.3911  -19.8749 C   0  0  0  0  0  0  0  0  0  0  0  0
   26.7831   -7.8884  -19.1365 C   0  0  0  0  0  0  0  0  0  0  0  0
   25.4697   -8.1795  -19.4546 C   0  0  0  0  0  0  0  0  0  0  0  0
   25.1992   -8.9897  -20.5324 C   0  0  0  0  0  0  0  0  0  0  0  0
   26.2266   -9.5089  -21.2915 C   0  0  0  0  0  0  0  0  0  0  0  0
   27.5364   -9.1977  -20.9464 C   0  0  0  0  0  0  0  0  0  0  0  0
   29.6717  -10.4406  -18.8816 C   0  0  0  0  0  0  0  0  0  0  0  0
   28.5511  -11.0915  -18.4234 O   0  0  0  0  0  0  0  0  0  0  0  0
   30.5128  -11.0499  -19.5622 O   0  0  0  0  0  0  0  0  0  0  0  0
  2  3  1  0
  2  1  1  6
  3  4  1  0
  4  8  1  0
  4  5  2  0
  5  6  1  0
  7  6  1  0
  8  7  2  0
  9  2  1  0
 10  9  2  0
 12 13  1  0
 12 11  1  0
 13 14  1  1
 13 15  1  0
 15 16  1  1
 16  9  1  0
 17 15  1  0
 17 18  2  0
 19 17  1  0
 20 19  1  0
 20 21  1  6
 22 21  1  0
 22 27  1  0
 23 22  2  0
 24 23  1  0
 24 25  2  0
 25 26  1  0
 26 27  2  0
 28 20  1  0
 29 28  1  0
 30 28  2  0
M  END
$$$$
