HIF.pdb
     RDKit          3D

 30 31  0  0  1  0  0  0  0  0999 V2000
   20.3355  -11.8974  -20.1644 N   0  0  0  0  0  0  0  0  0  0  0  0
   20.6621  -11.6810  -18.7720 C   0  0  1  0  0  0  0  0  0  0  0  0
   22.1027  -12.0801  -18.5330 C   0  0  0  0  0  0  0  0  0  0  0  0
   22.2228  -13.5486  -18.6421 C   0  0  0  0  0  0  0  0  0  0  0  0
   21.9914  -14.5331  -17.6894 C   0  0  0  0  0  0  0  0  0  0  0  0
   22.2429  -15.7161  -18.2882 N   0  0  0  0  0  0  0  0  0  0  0  0
   22.6155  -15.5060  -19.5556 C   0  0  0  0  0  0  0  0  0  0  0  0
   22.6056  -14.1868  -19.7789 N   0  0  0  0  0  0  0  0  0  0  0  0
   20.4509  -10.2387  -18.4824 C   0  0  0  0  0  0  0  0  0  0  0  0
   20.8093   -9.3825  -19.3591 O   0  0  0  0  0  0  0  0  0  0  0  0
   16.0822   -9.0786  -17.5801 C   0  0  0  0  0  0  0  0  0  0  0  0
   17.2940   -8.2139  -17.8818 C   0  0  0  0  0  0  0  0  0  0  0  0
   18.2121   -8.1150  -16.6947 C   0  0  2  0  0  0  0  0  0  0  0  0
   17.9227   -6.8913  -15.8562 C   0  0  0  0  0  0  0  0  0  0  0  0
   19.6550   -8.3414  -16.9896 C   0  0  2  0  0  0  0  0  0  0  0  0
   19.8702   -9.7884  -17.2756 N   0  0  0  0  0  0  0  0  0  0  0  0
   20.5977   -7.9739  -15.9061 C   0  0  0  0  0  0  0  0  0  0  0  0
   20.6212   -8.6693  -14.8252 O   0  0  0  0  0  0  0  0  0  0  0  0
   21.5105   -6.9068  -15.9292 N   0  0  0  0  0  0  0  0  0  0  0  0
   22.4139   -6.6225  -14.7948 C   0  0  1  0  0  0  0  0  0  0  0  0
   23.8329   -6.9606  -15.1710 C   0  0  0  0  0  0  0  0  0  0  0  0
   24.3445   -6.2601  -16.3392 C   0  0  0  0  0  0  0  0  0  0  0  0
   24.2456   -6.7958  -17.6090 C   0  0  0  0  0  0  0  0  0  0  0  0
   24.7249   -6.1260  -18.7192 C   0  0  0  0  0  0  0  0  0  0  0  0
   25.3165   -4.8945  -18.5620 C   0  0  0  0  0  0  0  0  0  0  0  0
   25.4322   -4.3297  -17.3094 C   0  0  0  0  0  0  0  0  0  0  0  0
   24.9404   -5.0279  -16.2129 C   0  0  0  0  0  0  0  0  0  0  0  0
   22.2400   -5.2313  -14.3364 C   0  0  0  0  0  0  0  0  0  0  0  0
   22.7711   -4.8431  -13.1296 O   0  0  0  0  0  0  0  0  0  0  0  0
   21.6178   -4.4155  -15.0359 O   0  0  0  0  0  0  0  0  0  0  0  0
  2  3  1  0
  2  1  1  6
  3  4  1  0
  4  8  1  0
  4  5  2  0
  5  6  1  0
  7  6  1  0
  8  7  2  0
  9  2  1  0
 10  9  2  0
 12 13  1  0
 12 11  1  0
 13 14  1  6
 13 15  1  0
 15 16  1  1
 16  9  1  0
 17 15  1  0
 17 18  2  0
 19 17  1  0
 20 19  1  0
 20 21  1  6
 22 21  1  0
 22 27  1  0
 23 22  2  0
 24 23  1  0
 24 25  2  0
 25 26  1  0
 26 27  2  0
 28 20  1  0
 29 28  1  0
 30 28  2  0
M  END
$$$$
