HIF.pdb
     RDKit          3D

 30 31  0  0  1  0  0  0  0  0999 V2000
   21.8840   36.9751  -83.9144 N   0  0  0  0  0  0  0  0  0  0  0  0
   22.7481   38.1188  -83.7198 C   0  0  1  0  0  0  0  0  0  0  0  0
   23.0955   38.7126  -85.0683 C   0  0  0  0  0  0  0  0  0  0  0  0
   22.0773   38.2999  -86.0560 C   0  0  0  0  0  0  0  0  0  0  0  0
   22.0634   37.2088  -86.9161 C   0  0  0  0  0  0  0  0  0  0  0  0
   20.9099   37.2814  -87.6128 N   0  0  0  0  0  0  0  0  0  0  0  0
   20.2190   38.3587  -87.2238 C   0  0  0  0  0  0  0  0  0  0  0  0
   20.9244   38.9847  -86.2747 N   0  0  0  0  0  0  0  0  0  0  0  0
   22.0117   39.0969  -82.8775 C   0  0  0  0  0  0  0  0  0  0  0  0
   21.8711   40.2897  -83.3107 O   0  0  0  0  0  0  0  0  0  0  0  0
   19.7379   40.6126  -77.4264 C   0  0  0  0  0  0  0  0  0  0  0  0
   19.4923   39.6639  -78.5870 C   0  0  0  0  0  0  0  0  0  0  0  0
   20.7231   39.4974  -79.4352 C   0  0  2  0  0  0  0  0  0  0  0  0
   21.8935   40.2861  -78.8945 C   0  0  0  0  0  0  0  0  0  0  0  0
   20.5041   39.6341  -80.9026 C   0  0  2  0  0  0  0  0  0  0  0  0
   21.4663   38.7509  -81.6209 N   0  0  0  0  0  0  0  0  0  0  0  0
   20.6808   40.9987  -81.4543 C   0  0  0  0  0  0  0  0  0  0  0  0
   21.8653   41.4832  -81.5762 O   0  0  0  0  0  0  0  0  0  0  0  0
   19.6556   41.8588  -81.8805 N   0  0  0  0  0  0  0  0  0  0  0  0
   18.5512   42.2662  -80.9870 C   0  0  1  0  0  0  0  0  0  0  0  0
   17.6322   43.2179  -81.7074 C   0  0  0  0  0  0  0  0  0  0  0  0
   17.5998   43.0672  -83.1542 C   0  0  0  0  0  0  0  0  0  0  0  0
   16.7775   43.8441  -83.9477 C   0  0  0  0  0  0  0  0  0  0  0  0
   16.7531   43.7055  -85.3229 C   0  0  0  0  0  0  0  0  0  0  0  0
   17.5660   42.7722  -85.9223 C   0  0  0  0  0  0  0  0  0  0  0  0
   18.3994   41.9797  -85.1615 C   0  0  0  0  0  0  0  0  0  0  0  0
   18.4010   42.1431  -83.7812 C   0  0  0  0  0  0  0  0  0  0  0  0
   17.8645   41.0783  -80.4455 C   0  0  0  0  0  0  0  0  0  0  0  0
   17.4434   41.0756  -79.1371 O   0  0  0  0  0  0  0  0  0  0  0  0
   17.6678   40.0867  -81.1665 O   0  0  0  0  0  0  0  0  0  0  0  0
  2  3  1  0
  2  1  1  6
  3  4  1  0
  4  8  1  0
  4  5  2  0
  5  6  1  0
  7  6  1  0
  8  7  2  0
  9  2  1  0
 10  9  2  0
 12 13  1  0
 12 11  1  0
 13 14  1  1
 13 15  1  0
 15 16  1  6
 16  9  1  0
 17 15  1  0
 17 18  2  0
 19 17  1  0
 20 19  1  0
 20 21  1  6
 22 21  1  0
 22 27  1  0
 23 22  2  0
 24 23  1  0
 24 25  2  0
 25 26  1  0
 26 27  2  0
 28 20  1  0
 29 28  1  0
 30 28  2  0
M  END
$$$$
