HIF.pdb
     RDKit          3D

 30 31  0  0  1  0  0  0  0  0999 V2000
   41.8847  -24.8380    4.2891 N   0  0  0  0  0  0  0  0  0  0  0  0
   40.9518  -24.6119    5.3712 C   0  0  1  0  0  0  0  0  0  0  0  0
   41.0382  -23.1643    5.8057 C   0  0  0  0  0  0  0  0  0  0  0  0
   42.1808  -23.0031    6.7283 C   0  0  0  0  0  0  0  0  0  0  0  0
   43.0946  -23.9447    7.1855 C   0  0  0  0  0  0  0  0  0  0  0  0
   43.9418  -23.2921    8.0085 N   0  0  0  0  0  0  0  0  0  0  0  0
   43.5939  -22.0024    8.0781 C   0  0  0  0  0  0  0  0  0  0  0  0
   42.5210  -21.8185    7.3001 N   0  0  0  0  0  0  0  0  0  0  0  0
   39.5932  -24.9391    4.8655 C   0  0  0  0  0  0  0  0  0  0  0  0
   39.3127  -24.6639    3.6507 O   0  0  0  0  0  0  0  0  0  0  0  0
   37.9598  -29.7565    5.2569 C   0  0  0  0  0  0  0  0  0  0  0  0
   38.1337  -28.3174    4.8031 C   0  0  0  0  0  0  0  0  0  0  0  0
   37.0939  -27.4164    5.4105 C   0  0  2  0  0  0  0  0  0  0  0  0
   35.6920  -27.9260    5.1669 C   0  0  0  0  0  0  0  0  0  0  0  0
   37.2832  -25.9624    5.1459 C   0  0  2  0  0  0  0  0  0  0  0  0
   38.6089  -25.5407    5.6813 N   0  0  0  0  0  0  0  0  0  0  0  0
   36.2714  -25.0624    5.7491 C   0  0  0  0  0  0  0  0  0  0  0  0
   36.4746  -24.5783    6.9224 O   0  0  0  0  0  0  0  0  0  0  0  0
   35.0640  -24.6585    5.1561 N   0  0  0  0  0  0  0  0  0  0  0  0
   34.1380  -23.7197    5.8232 C   0  0  1  0  0  0  0  0  0  0  0  0
   33.1489  -23.1773    4.8247 C   0  0  0  0  0  0  0  0  0  0  0  0
   32.8954  -21.7479    4.9223 C   0  0  0  0  0  0  0  0  0  0  0  0
   32.2025  -21.2036    5.9867 C   0  0  0  0  0  0  0  0  0  0  0  0
   31.9689  -19.8444    6.0824 C   0  0  0  0  0  0  0  0  0  0  0  0
   32.4358  -19.0076    5.0960 C   0  0  0  0  0  0  0  0  0  0  0  0
   33.1312  -19.5163    4.0194 C   0  0  0  0  0  0  0  0  0  0  0  0
   33.3499  -20.8871    3.9519 C   0  0  0  0  0  0  0  0  0  0  0  0
   33.5061  -24.3641    6.9899 C   0  0  0  0  0  0  0  0  0  0  0  0
   33.1882  -23.6084    8.0931 O   0  0  0  0  0  0  0  0  0  0  0  0
   33.2627  -25.5817    6.9762 O   0  0  0  0  0  0  0  0  0  0  0  0
  2  3  1  0
  2  1  1  6
  3  4  1  0
  4  8  1  0
  4  5  2  0
  5  6  1  0
  7  6  1  0
  8  7  2  0
  9  2  1  0
 10  9  2  0
 12 13  1  0
 12 11  1  0
 13 14  1  6
 13 15  1  0
 15 16  1  1
 16  9  1  0
 17 15  1  0
 17 18  2  0
 19 17  1  0
 20 19  1  0
 20 21  1  6
 22 21  1  0
 22 27  1  0
 23 22  2  0
 24 23  1  0
 24 25  2  0
 25 26  1  0
 26 27  2  0
 28 20  1  0
 29 28  1  0
 30 28  2  0
M  END
$$$$
