HIF.pdb
     RDKit          3D

 30 31  0  0  1  0  0  0  0  0999 V2000
   26.3228  -20.7945  -16.5812 N   0  0  0  0  0  0  0  0  0  0  0  0
   27.0465  -21.1629  -15.3841 C   0  0  1  0  0  0  0  0  0  0  0  0
   28.4819  -20.6987  -15.5102 C   0  0  0  0  0  0  0  0  0  0  0  0
   29.1751  -21.5349  -16.5117 C   0  0  0  0  0  0  0  0  0  0  0  0
   29.6273  -22.8452  -16.4167 C   0  0  0  0  0  0  0  0  0  0  0  0
   30.1914  -23.1458  -17.6052 N   0  0  0  0  0  0  0  0  0  0  0  0
   30.1077  -22.0887  -18.4206 C   0  0  0  0  0  0  0  0  0  0  0  0
   29.4891  -21.1026  -17.7609 N   0  0  0  0  0  0  0  0  0  0  0  0
   26.3708  -20.5078  -14.2340 C   0  0  0  0  0  0  0  0  0  0  0  0
   26.1811  -19.2459  -14.2770 O   0  0  0  0  0  0  0  0  0  0  0  0
   21.5918  -21.2311  -13.4047 C   0  0  0  0  0  0  0  0  0  0  0  0
   23.0268  -20.7332  -13.4003 C   0  0  0  0  0  0  0  0  0  0  0  0
   23.7256  -21.0716  -12.1122 C   0  0  2  0  0  0  0  0  0  0  0  0
   22.8699  -20.7608  -10.9059 C   0  0  0  0  0  0  0  0  0  0  0  0
   25.1357  -20.6003  -12.0142 C   0  0  2  0  0  0  0  0  0  0  0  0
   25.9350  -21.2324  -13.1021 N   0  0  0  0  0  0  0  0  0  0  0  0
   25.8285  -20.9069  -10.7399 C   0  0  0  0  0  0  0  0  0  0  0  0
   26.1272  -22.1254  -10.4595 O   0  0  0  0  0  0  0  0  0  0  0  0
   26.2154  -19.9753   -9.7627 N   0  0  0  0  0  0  0  0  0  0  0  0
   26.7830  -20.3913   -8.4633 C   0  0  1  0  0  0  0  0  0  0  0  0
   27.8193  -19.3950   -8.0128 C   0  0  0  0  0  0  0  0  0  0  0  0
   28.2834  -19.5645   -6.6443 C   0  0  0  0  0  0  0  0  0  0  0  0
   27.7548  -18.8284   -5.6011 C   0  0  0  0  0  0  0  0  0  0  0  0
   28.1910  -18.9957   -4.3001 C   0  0  0  0  0  0  0  0  0  0  0  0
   29.1761  -19.9168   -4.0310 C   0  0  0  0  0  0  0  0  0  0  0  0
   29.7262  -20.6687   -5.0475 C   0  0  0  0  0  0  0  0  0  0  0  0
   29.2663  -20.4774   -6.3450 C   0  0  0  0  0  0  0  0  0  0  0  0
   25.7061  -20.6090   -7.4790 C   0  0  0  0  0  0  0  0  0  0  0  0
   25.8820  -21.5290   -6.4730 O   0  0  0  0  0  0  0  0  0  0  0  0
   24.6470  -19.9656   -7.5581 O   0  0  0  0  0  0  0  0  0  0  0  0
  2  3  1  0
  2  1  1  6
  3  4  1  0
  4  8  1  0
  4  5  2  0
  5  6  1  0
  7  6  1  0
  8  7  2  0
  9  2  1  0
 10  9  2  0
 12 13  1  0
 12 11  1  0
 13 14  1  1
 13 15  1  0
 15 16  1  6
 16  9  1  0
 17 15  1  0
 17 18  2  0
 19 17  1  0
 20 19  1  0
 20 21  1  1
 22 21  1  0
 22 27  1  0
 23 22  2  0
 24 23  1  0
 24 25  2  0
 25 26  1  0
 26 27  2  0
 28 20  1  0
 29 28  1  0
 30 28  2  0
M  END
$$$$
