DSF.pdb
     RDKit          3D

 26 26  0  0  1  0  0  0  0  0999 V2000
   18.9264   -5.2155  -17.0439 N   0  0  0  0  0  0  0  0  0  0  0  0
   18.3703   -5.5396  -15.7287 C   0  0  1  0  0  0  0  0  0  0  0  0
   17.4069   -4.4560  -15.2939 C   0  0  0  0  0  0  0  0  0  0  0  0
   18.1261   -3.2254  -14.9609 C   0  0  0  0  0  0  0  0  0  0  0  0
   19.1570   -3.2916  -14.2447 O   0  0  0  0  0  0  0  0  0  0  0  0
   17.5839   -6.7940  -15.8512 C   0  0  0  0  0  0  0  0  0  0  0  0
   16.8602   -6.9906  -16.8591 O   0  0  0  0  0  0  0  0  0  0  0  0
   17.6800   -2.0067  -15.4263 O   0  0  0  0  0  0  0  0  0  0  0  0
   19.0098   -9.9409  -14.1313 O   0  0  0  0  0  0  0  0  0  0  0  0
   18.0390  -10.1918  -15.1135 C   0  0  0  0  0  0  0  0  0  0  0  0
   16.9790   -9.0868  -14.9994 C   0  0  2  0  0  0  0  0  0  0  0  0
   17.6288   -7.8020  -14.8352 N   0  0  0  0  0  0  0  0  0  0  0  0
   16.2145   -9.3806  -13.7691 C   0  0  0  0  0  0  0  0  0  0  0  0
   16.6142   -8.9187  -12.6801 O   0  0  0  0  0  0  0  0  0  0  0  0
   15.0409  -10.1713  -13.7903 N   0  0  0  0  0  0  0  0  0  0  0  0
   14.3924  -10.4625  -12.4949 C   0  0  1  0  0  0  0  0  0  0  0  0
   12.9044  -10.4425  -12.7623 C   0  0  0  0  0  0  0  0  0  0  0  0
   12.1731  -10.7469  -11.5283 C   0  0  0  0  0  0  0  0  0  0  0  0
   11.7726  -12.0407  -11.2837 C   0  0  0  0  0  0  0  0  0  0  0  0
   11.1009  -12.3812  -10.1202 C   0  0  0  0  0  0  0  0  0  0  0  0
   10.8406  -11.3852   -9.2052 C   0  0  0  0  0  0  0  0  0  0  0  0
   11.2228  -10.0828   -9.4103 C   0  0  0  0  0  0  0  0  0  0  0  0
   11.8996   -9.7780  -10.5981 C   0  0  0  0  0  0  0  0  0  0  0  0
   14.7874  -11.8025  -12.0482 C   0  0  0  0  0  0  0  0  0  0  0  0
   15.1290  -12.0070  -10.7310 O   0  0  0  0  0  0  0  0  0  0  0  0
   14.8174  -12.7550  -12.8438 O   0  0  0  0  0  0  0  0  0  0  0  0
  2  1  1  6
  2  3  1  0
  3  4  1  0
  4  8  1  0
  5  4  2  0
  6  2  1  0
  7  6  2  0
  9 10  1  0
 11 10  1  1
 11 13  1  0
 11 12  1  0
 12  6  1  0
 13 14  2  0
 15 16  1  0
 15 13  1  0
 16 17  1  6
 16 24  1  0
 17 18  1  0
 18 23  2  0
 19 20  2  0
 19 18  1  0
 20 21  1  0
 21 22  2  0
 23 22  1  0
 24 26  2  0
 24 25  1  0
M  END
$$$$
