DSF.pdb
     RDKit          3D

 26 26  0  0  1  0  0  0  0  0999 V2000
   17.8090   -1.1659  -17.4151 N   0  0  0  0  0  0  0  0  0  0  0  0
   18.8545   -2.1745  -17.2312 C   0  0  1  0  0  0  0  0  0  0  0  0
   19.9703   -1.6120  -16.3769 C   0  0  0  0  0  0  0  0  0  0  0  0
   21.0770   -2.5648  -16.2759 C   0  0  0  0  0  0  0  0  0  0  0  0
   21.1802   -3.4788  -17.1327 O   0  0  0  0  0  0  0  0  0  0  0  0
   18.2722   -3.3188  -16.4838 C   0  0  0  0  0  0  0  0  0  0  0  0
   17.8971   -3.1716  -15.2940 O   0  0  0  0  0  0  0  0  0  0  0  0
   21.9967   -2.4628  -15.2538 O   0  0  0  0  0  0  0  0  0  0  0  0
   15.2119   -5.4154  -16.9581 O   0  0  0  0  0  0  0  0  0  0  0  0
   16.3149   -6.2385  -17.2339 C   0  0  0  0  0  0  0  0  0  0  0  0
   17.4942   -5.7139  -16.4023 C   0  0  2  0  0  0  0  0  0  0  0  0
   18.1242   -4.6064  -17.0926 N   0  0  0  0  0  0  0  0  0  0  0  0
   18.4653   -6.8254  -16.3254 C   0  0  0  0  0  0  0  0  0  0  0  0
   19.1883   -7.0704  -17.3136 O   0  0  0  0  0  0  0  0  0  0  0  0
   18.5993   -7.6208  -15.1625 N   0  0  0  0  0  0  0  0  0  0  0  0
   19.5604   -8.7420  -15.2113 C   0  0  1  0  0  0  0  0  0  0  0  0
   20.4839   -8.5484  -14.0300 C   0  0  0  0  0  0  0  0  0  0  0  0
   21.3458   -7.3841  -14.2578 C   0  0  0  0  0  0  0  0  0  0  0  0
   22.4634   -7.5173  -15.0498 C   0  0  0  0  0  0  0  0  0  0  0  0
   23.2941   -6.4397  -15.3139 C   0  0  0  0  0  0  0  0  0  0  0  0
   22.9723   -5.2204  -14.7602 C   0  0  0  0  0  0  0  0  0  0  0  0
   21.8672   -5.0448  -13.9652 C   0  0  0  0  0  0  0  0  0  0  0  0
   21.0521   -6.1573  -13.7213 C   0  0  0  0  0  0  0  0  0  0  0  0
   18.8341  -10.0069  -15.0574 C   0  0  0  0  0  0  0  0  0  0  0  0
   17.4927   -9.9879  -14.7507 O   0  0  0  0  0  0  0  0  0  0  0  0
   19.4143  -11.0950  -15.2005 O   0  0  0  0  0  0  0  0  0  0  0  0
  2  1  1  1
  2  3  1  0
  3  4  1  0
  4  8  1  0
  5  4  2  0
  6  2  1  0
  7  6  2  0
  9 10  1  0
 11 10  1  6
 11 13  1  0
 11 12  1  0
 12  6  1  0
 13 14  2  0
 15 16  1  0
 15 13  1  0
 16 17  1  1
 16 24  1  0
 17 18  1  0
 18 23  2  0
 19 20  2  0
 19 18  1  0
 20 21  1  0
 21 22  2  0
 23 22  1  0
 24 26  2  0
 24 25  1  0
M  END
$$$$
