DSF.pdb
     RDKit          3D

 26 26  0  0  1  0  0  0  0  0999 V2000
   18.7260  -12.0051  -15.5328 N   0  0  0  0  0  0  0  0  0  0  0  0
   18.8068  -10.9536  -16.5485 C   0  0  1  0  0  0  0  0  0  0  0  0
   17.4500  -10.7466  -17.1869 C   0  0  0  0  0  0  0  0  0  0  0  0
   17.0642  -11.9171  -17.9766 C   0  0  0  0  0  0  0  0  0  0  0  0
   16.0539  -12.5823  -17.6345 O   0  0  0  0  0  0  0  0  0  0  0  0
   19.1661   -9.6799  -15.8735 C   0  0  0  0  0  0  0  0  0  0  0  0
   18.4960   -9.2738  -14.8915 O   0  0  0  0  0  0  0  0  0  0  0  0
   17.7986  -12.2877  -19.0830 O   0  0  0  0  0  0  0  0  0  0  0  0
   22.7603   -8.2015  -16.5864 O   0  0  0  0  0  0  0  0  0  0  0  0
   22.1725   -7.6258  -15.4492 C   0  0  0  0  0  0  0  0  0  0  0  0
   20.6516   -7.6561  -15.6575 C   0  0  2  0  0  0  0  0  0  0  0  0
   20.2738   -8.8891  -16.3187 N   0  0  0  0  0  0  0  0  0  0  0  0
   20.3414   -6.5301  -16.5632 C   0  0  0  0  0  0  0  0  0  0  0  0
   20.4181   -6.7038  -17.7973 O   0  0  0  0  0  0  0  0  0  0  0  0
   19.9595   -5.2594  -16.0709 N   0  0  0  0  0  0  0  0  0  0  0  0
   19.7476   -4.1817  -17.0593 C   0  0  1  0  0  0  0  0  0  0  0  0
   18.3159   -3.7302  -16.8801 C   0  0  0  0  0  0  0  0  0  0  0  0
   18.0060   -2.6659  -17.8401 C   0  0  0  0  0  0  0  0  0  0  0  0
   17.5873   -3.0019  -19.1074 C   0  0  0  0  0  0  0  0  0  0  0  0
   17.2593   -2.0314  -20.0408 C   0  0  0  0  0  0  0  0  0  0  0  0
   17.3629   -0.7097  -19.6675 C   0  0  0  0  0  0  0  0  0  0  0  0
   17.7761   -0.3319  -18.4142 C   0  0  0  0  0  0  0  0  0  0  0  0
   18.0986   -1.3416  -17.4987 C   0  0  0  0  0  0  0  0  0  0  0  0
   20.6500   -3.0657  -16.7569 C   0  0  0  0  0  0  0  0  0  0  0  0
   21.0751   -2.2404  -17.7728 O   0  0  0  0  0  0  0  0  0  0  0  0
   21.0354   -2.8561  -15.5956 O   0  0  0  0  0  0  0  0  0  0  0  0
  2  1  1  1
  2  3  1  0
  3  4  1  0
  4  8  1  0
  5  4  2  0
  6  2  1  0
  7  6  2  0
  9 10  1  0
 11 10  1  6
 11 13  1  0
 11 12  1  0
 12  6  1  0
 13 14  2  0
 15 16  1  0
 15 13  1  0
 16 17  1  1
 16 24  1  0
 17 18  1  0
 18 23  2  0
 19 20  2  0
 19 18  1  0
 20 21  1  0
 21 22  2  0
 23 22  1  0
 24 26  2  0
 24 25  1  0
M  END
$$$$
