DSF.pdb
     RDKit          3D

 26 26  0  0  1  0  0  0  0  0999 V2000
   29.2774  -20.8689  -18.1932 N   0  0  0  0  0  0  0  0  0  0  0  0
   28.0365  -21.2579  -17.5201 C   0  0  1  0  0  0  0  0  0  0  0  0
   27.8679  -22.7611  -17.5760 C   0  0  0  0  0  0  0  0  0  0  0  0
   27.3523  -23.1772  -18.8813 C   0  0  0  0  0  0  0  0  0  0  0  0
   26.2671  -22.6956  -19.2945 O   0  0  0  0  0  0  0  0  0  0  0  0
   28.1485  -20.8881  -16.0857 C   0  0  0  0  0  0  0  0  0  0  0  0
   29.0343  -21.4118  -15.3650 O   0  0  0  0  0  0  0  0  0  0  0  0
   28.0470  -24.0865  -19.6503 O   0  0  0  0  0  0  0  0  0  0  0  0
   25.7635  -17.9093  -14.7184 O   0  0  0  0  0  0  0  0  0  0  0  0
   26.9438  -18.0517  -13.9722 C   0  0  0  0  0  0  0  0  0  0  0  0
   27.3988  -19.5113  -14.1130 C   0  0  2  0  0  0  0  0  0  0  0  0
   27.2597  -19.9353  -15.4918 N   0  0  0  0  0  0  0  0  0  0  0  0
   26.4697  -20.3097  -13.2862 C   0  0  0  0  0  0  0  0  0  0  0  0
   25.4194  -20.7463  -13.8013 O   0  0  0  0  0  0  0  0  0  0  0  0
   26.7370  -20.5938  -11.9257 N   0  0  0  0  0  0  0  0  0  0  0  0
   25.7371  -21.3933  -11.1878 C   0  0  1  0  0  0  0  0  0  0  0  0
   26.5012  -22.1085  -10.0968 C   0  0  0  0  0  0  0  0  0  0  0  0
   26.8985  -21.1521   -9.0586 C   0  0  0  0  0  0  0  0  0  0  0  0
   28.1387  -21.2687   -8.4734 C   0  0  0  0  0  0  0  0  0  0  0  0
   28.5680  -20.3739   -7.5061 C   0  0  0  0  0  0  0  0  0  0  0  0
   27.7166  -19.3550   -7.1400 C   0  0  0  0  0  0  0  0  0  0  0  0
   26.4721  -19.2029   -7.6989 C   0  0  0  0  0  0  0  0  0  0  0  0
   26.0741  -20.1270   -8.6732 C   0  0  0  0  0  0  0  0  0  0  0  0
   24.7523  -20.4921  -10.5801 C   0  0  0  0  0  0  0  0  0  0  0  0
   25.0118  -19.1420  -10.5204 O   0  0  0  0  0  0  0  0  0  0  0  0
   23.6872  -20.9321  -10.1186 O   0  0  0  0  0  0  0  0  0  0  0  0
  2  1  1  6
  2  3  1  0
  3  4  1  0
  4  8  1  0
  5  4  2  0
  6  2  1  0
  7  6  2  0
  9 10  1  0
 11 10  1  6
 11 13  1  0
 11 12  1  0
 12  6  1  0
 13 14  2  0
 15 16  1  0
 15 13  1  0
 16 17  1  1
 16 24  1  0
 17 18  1  0
 18 23  2  0
 19 20  2  0
 19 18  1  0
 20 21  1  0
 21 22  2  0
 23 22  1  0
 24 26  2  0
 24 25  1  0
M  END
$$$$
