DSF.pdb
     RDKit          3D

 26 26  0  0  1  0  0  0  0  0999 V2000
   25.5621  -19.1146  -15.6019 N   0  0  0  0  0  0  0  0  0  0  0  0
   26.6924  -19.2885  -14.6875 C   0  0  1  0  0  0  0  0  0  0  0  0
   27.7250  -18.2089  -14.9316 C   0  0  0  0  0  0  0  0  0  0  0  0
   28.4031  -18.4193  -16.2117 C   0  0  0  0  0  0  0  0  0  0  0  0
   29.6596  -18.4218  -16.2475 O   0  0  0  0  0  0  0  0  0  0  0  0
   26.1997  -19.1095  -13.2975 C   0  0  0  0  0  0  0  0  0  0  0  0
   26.0808  -17.9569  -12.8124 O   0  0  0  0  0  0  0  0  0  0  0  0
   27.6742  -18.6126  -17.3659 O   0  0  0  0  0  0  0  0  0  0  0  0
   23.6279  -21.4077  -12.3821 O   0  0  0  0  0  0  0  0  0  0  0  0
   24.0486  -21.0961  -11.0797 C   0  0  0  0  0  0  0  0  0  0  0  0
   25.1906  -20.0770  -11.2012 C   0  0  2  0  0  0  0  0  0  0  0  0
   25.8506  -20.2335  -12.4819 N   0  0  0  0  0  0  0  0  0  0  0  0
   26.1571  -20.4187  -10.1365 C   0  0  0  0  0  0  0  0  0  0  0  0
   26.8519  -21.4495  -10.2542 O   0  0  0  0  0  0  0  0  0  0  0  0
   26.3176  -19.6100   -8.9863 N   0  0  0  0  0  0  0  0  0  0  0  0
   27.0587  -20.1874   -7.8458 C   0  0  1  0  0  0  0  0  0  0  0  0
   27.5131  -19.0129   -7.0091 C   0  0  0  0  0  0  0  0  0  0  0  0
   28.2646  -19.4925   -5.8448 C   0  0  0  0  0  0  0  0  0  0  0  0
   28.0156  -18.9422   -4.6082 C   0  0  0  0  0  0  0  0  0  0  0  0
   28.6828  -19.3801   -3.4751 C   0  0  0  0  0  0  0  0  0  0  0  0
   29.6099  -20.3888   -3.6163 C   0  0  0  0  0  0  0  0  0  0  0  0
   29.8878  -20.9646   -4.8309 C   0  0  0  0  0  0  0  0  0  0  0  0
   29.1930  -20.4952   -5.9528 C   0  0  0  0  0  0  0  0  0  0  0  0
   26.1507  -21.0246   -7.0546 C   0  0  0  0  0  0  0  0  0  0  0  0
   26.6644  -22.0318   -6.2702 O   0  0  0  0  0  0  0  0  0  0  0  0
   24.9241  -20.8359   -7.0838 O   0  0  0  0  0  0  0  0  0  0  0  0
  2  1  1  6
  2  3  1  0
  3  4  1  0
  4  8  1  0
  5  4  2  0
  6  2  1  0
  7  6  2  0
  9 10  1  0
 11 10  1  6
 11 13  1  0
 11 12  1  0
 12  6  1  0
 13 14  2  0
 15 16  1  0
 15 13  1  0
 16 17  1  1
 16 24  1  0
 17 18  1  0
 18 23  2  0
 19 20  2  0
 19 18  1  0
 20 21  1  0
 21 22  2  0
 23 22  1  0
 24 26  2  0
 24 25  1  0
M  END
$$$$
