DSF.pdb
     RDKit          3D

 26 26  0  0  1  0  0  0  0  0999 V2000
   21.5523  -21.0512  -13.7842 N   0  0  0  0  0  0  0  0  0  0  0  0
   22.0203  -20.0635  -12.8099 C   0  0  1  0  0  0  0  0  0  0  0  0
   20.8748  -19.6345  -11.9182 C   0  0  0  0  0  0  0  0  0  0  0  0
   19.7949  -19.0427  -12.7096 C   0  0  0  0  0  0  0  0  0  0  0  0
   19.9487  -17.8936  -13.1954 O   0  0  0  0  0  0  0  0  0  0  0  0
   23.0296  -20.7137  -11.9348 C   0  0  0  0  0  0  0  0  0  0  0  0
   22.6635  -21.4745  -11.0046 O   0  0  0  0  0  0  0  0  0  0  0  0
   18.6218  -19.7356  -12.9210 O   0  0  0  0  0  0  0  0  0  0  0  0
   26.2411  -22.4136  -13.2650 O   0  0  0  0  0  0  0  0  0  0  0  0
   26.6484  -21.5031  -12.2775 C   0  0  0  0  0  0  0  0  0  0  0  0
   25.4327  -21.2297  -11.3803 C   0  0  2  0  0  0  0  0  0  0  0  0
   24.4315  -20.4933  -12.1257 N   0  0  0  0  0  0  0  0  0  0  0  0
   25.9210  -20.3681  -10.2832 C   0  0  0  0  0  0  0  0  0  0  0  0
   26.1591  -19.1646  -10.5154 O   0  0  0  0  0  0  0  0  0  0  0  0
   26.1267  -20.8690   -8.9757 N   0  0  0  0  0  0  0  0  0  0  0  0
   27.0380  -20.1125   -8.0921 C   0  0  1  0  0  0  0  0  0  0  0  0
   26.7917  -20.6368   -6.6956 C   0  0  0  0  0  0  0  0  0  0  0  0
   27.7172  -19.9986   -5.7541 C   0  0  0  0  0  0  0  0  0  0  0  0
   28.6780  -20.7621   -5.1309 C   0  0  0  0  0  0  0  0  0  0  0  0
   29.5903  -20.1991   -4.2526 C   0  0  0  0  0  0  0  0  0  0  0  0
   29.5128  -18.8446   -4.0152 C   0  0  0  0  0  0  0  0  0  0  0  0
   28.5704  -18.0476   -4.6159 C   0  0  0  0  0  0  0  0  0  0  0  0
   27.6659  -18.6531   -5.4973 C   0  0  0  0  0  0  0  0  0  0  0  0
   28.4254  -20.3915   -8.4776 C   0  0  0  0  0  0  0  0  0  0  0  0
   29.3990  -19.4475   -8.2437 O   0  0  0  0  0  0  0  0  0  0  0  0
   28.7325  -21.4687   -9.0125 O   0  0  0  0  0  0  0  0  0  0  0  0
  2  1  1  6
  2  3  1  0
  3  4  1  0
  4  8  1  0
  5  4  2  0
  6  2  1  0
  7  6  2  0
  9 10  1  0
 11 10  1  6
 11 13  1  0
 11 12  1  0
 12  6  1  0
 13 14  2  0
 15 16  1  0
 15 13  1  0
 16 17  1  1
 16 24  1  0
 17 18  1  0
 18 23  2  0
 19 20  2  0
 19 18  1  0
 20 21  1  0
 21 22  2  0
 23 22  1  0
 24 26  2  0
 24 25  1  0
M  END
$$$$
