DSF.pdb
     RDKit          3D

 26 26  0  0  1  0  0  0  0  0999 V2000
   20.8470  -21.1437  -13.7741 N   0  0  0  0  0  0  0  0  0  0  0  0
   21.7995  -20.1630  -13.2497 C   0  0  1  0  0  0  0  0  0  0  0  0
   21.1699  -19.3887  -12.1116 C   0  0  0  0  0  0  0  0  0  0  0  0
   20.0708  -18.5531  -12.5981 C   0  0  0  0  0  0  0  0  0  0  0  0
   18.9796  -18.5499  -11.9740 O   0  0  0  0  0  0  0  0  0  0  0  0
   22.9603  -20.8971  -12.6834 C   0  0  0  0  0  0  0  0  0  0  0  0
   22.7769  -21.8786  -11.9211 O   0  0  0  0  0  0  0  0  0  0  0  0
   20.2283  -17.7779  -13.7273 O   0  0  0  0  0  0  0  0  0  0  0  0
   27.5842  -22.0898  -13.1335 O   0  0  0  0  0  0  0  0  0  0  0  0
   26.5281  -21.2997  -13.6138 C   0  0  0  0  0  0  0  0  0  0  0  0
   25.4467  -21.2730  -12.5241 C   0  0  2  0  0  0  0  0  0  0  0  0
   24.3050  -20.5103  -12.9877 N   0  0  0  0  0  0  0  0  0  0  0  0
   26.0439  -20.5617  -11.3744 C   0  0  0  0  0  0  0  0  0  0  0  0
   26.2113  -19.3263  -11.4442 O   0  0  0  0  0  0  0  0  0  0  0  0
   26.4317  -21.2417  -10.1954 N   0  0  0  0  0  0  0  0  0  0  0  0
   27.3128  -20.5219   -9.2525 C   0  0  1  0  0  0  0  0  0  0  0  0
   26.8094  -20.8663   -7.8691 C   0  0  0  0  0  0  0  0  0  0  0  0
   27.5416  -20.0877   -6.8651 C   0  0  0  0  0  0  0  0  0  0  0  0
   27.0719  -18.8465   -6.5004 C   0  0  0  0  0  0  0  0  0  0  0  0
   27.7158  -18.0847   -5.5382 C   0  0  0  0  0  0  0  0  0  0  0  0
   28.8477  -18.6032   -4.9494 C   0  0  0  0  0  0  0  0  0  0  0  0
   29.3491  -19.8365   -5.2841 C   0  0  0  0  0  0  0  0  0  0  0  0
   28.6706  -20.5765   -6.2606 C   0  0  0  0  0  0  0  0  0  0  0  0
   28.6865  -21.0128   -9.4055 C   0  0  0  0  0  0  0  0  0  0  0  0
   29.7403  -20.1385   -9.2683 O   0  0  0  0  0  0  0  0  0  0  0  0
   28.9105  -22.2075   -9.6573 O   0  0  0  0  0  0  0  0  0  0  0  0
  2  1  1  1
  2  3  1  0
  3  4  1  0
  4  8  1  0
  5  4  2  0
  6  2  1  0
  7  6  2  0
  9 10  1  0
 11 10  1  6
 11 13  1  0
 11 12  1  0
 12  6  1  0
 13 14  2  0
 15 16  1  0
 15 13  1  0
 16 17  1  1
 16 24  1  0
 17 18  1  0
 18 23  2  0
 19 20  2  0
 19 18  1  0
 20 21  1  0
 21 22  2  0
 23 22  1  0
 24 26  2  0
 24 25  1  0
M  END
$$$$
