DSF.pdb
     RDKit          3D

 26 26  0  0  1  0  0  0  0  0999 V2000
   15.7673  -13.7039  -15.2028 N   0  0  0  0  0  0  0  0  0  0  0  0
   15.8392  -12.2838  -15.5521 C   0  0  1  0  0  0  0  0  0  0  0  0
   14.7429  -11.5206  -14.8401 C   0  0  0  0  0  0  0  0  0  0  0  0
   13.4327  -11.8454  -15.4061 C   0  0  0  0  0  0  0  0  0  0  0  0
   12.5019  -12.1962  -14.6375 O   0  0  0  0  0  0  0  0  0  0  0  0
   17.1325  -11.7466  -15.0564 C   0  0  0  0  0  0  0  0  0  0  0  0
   17.4446  -11.8668  -13.8455 O   0  0  0  0  0  0  0  0  0  0  0  0
   13.2195  -11.7681  -16.7660 O   0  0  0  0  0  0  0  0  0  0  0  0
   20.7022  -12.6059  -16.2100 O   0  0  0  0  0  0  0  0  0  0  0  0
   20.3985  -11.2822  -16.5645 C   0  0  0  0  0  0  0  0  0  0  0  0
   19.3985  -10.7506  -15.5278 C   0  0  2  0  0  0  0  0  0  0  0  0
   18.0486  -11.0844  -15.9356 N   0  0  0  0  0  0  0  0  0  0  0  0
   19.5376   -9.2793  -15.5440 C   0  0  0  0  0  0  0  0  0  0  0  0
   18.9120   -8.6189  -16.3994 O   0  0  0  0  0  0  0  0  0  0  0  0
   20.3605   -8.5969  -14.6167 N   0  0  0  0  0  0  0  0  0  0  0  0
   20.5122   -7.1369  -14.7863 C   0  0  1  0  0  0  0  0  0  0  0  0
   21.3550   -6.6693  -13.6215 C   0  0  0  0  0  0  0  0  0  0  0  0
   21.6013   -5.2280  -13.7325 C   0  0  0  0  0  0  0  0  0  0  0  0
   22.7659   -4.7861  -14.3179 C   0  0  0  0  0  0  0  0  0  0  0  0
   23.0313   -3.4341  -14.4674 C   0  0  0  0  0  0  0  0  0  0  0  0
   22.0937   -2.5337  -14.0123 C   0  0  0  0  0  0  0  0  0  0  0  0
   20.9198   -2.9324  -13.4229 C   0  0  0  0  0  0  0  0  0  0  0  0
   20.6875   -4.3072  -13.2897 C   0  0  0  0  0  0  0  0  0  0  0  0
   21.2248   -6.8684  -16.0399 C   0  0  0  0  0  0  0  0  0  0  0  0
   22.3292   -7.6207  -16.3688 O   0  0  0  0  0  0  0  0  0  0  0  0
   20.8442   -5.9707  -16.8081 O   0  0  0  0  0  0  0  0  0  0  0  0
  2  1  1  1
  2  3  1  0
  3  4  1  0
  4  8  1  0
  5  4  2  0
  6  2  1  0
  7  6  2  0
  9 10  1  0
 11 10  1  6
 11 13  1  0
 11 12  1  0
 12  6  1  0
 13 14  2  0
 15 16  1  0
 15 13  1  0
 16 17  1  1
 16 24  1  0
 17 18  1  0
 18 23  2  0
 19 20  2  0
 19 18  1  0
 20 21  1  0
 21 22  2  0
 23 22  1  0
 24 26  2  0
 24 25  1  0
M  END
$$$$
