DSF.pdb
     RDKit          3D

 26 26  0  0  1  0  0  0  0  0999 V2000
   20.2520  -14.9730  -17.7090 N   0  0  0  0  0  0  0  0  0  0  0  0
   20.3216  -13.6372  -18.3047 C   0  0  1  0  0  0  0  0  0  0  0  0
   18.9264  -13.1302  -18.6006 C   0  0  0  0  0  0  0  0  0  0  0  0
   18.2863  -13.9456  -19.6341 C   0  0  0  0  0  0  0  0  0  0  0  0
   18.8444  -14.0662  -20.7540 O   0  0  0  0  0  0  0  0  0  0  0  0
   20.9155  -12.7116  -17.3060 C   0  0  0  0  0  0  0  0  0  0  0  0
   20.3716  -12.5586  -16.1840 O   0  0  0  0  0  0  0  0  0  0  0  0
   17.0853  -14.5750  -19.3845 O   0  0  0  0  0  0  0  0  0  0  0  0
   24.8880  -11.8238  -16.6052 O   0  0  0  0  0  0  0  0  0  0  0  0
   24.1252  -10.7218  -17.0221 C   0  0  0  0  0  0  0  0  0  0  0  0
   22.6628  -11.0158  -16.6580 C   0  0  2  0  0  0  0  0  0  0  0  0
   22.1108  -11.9767  -17.5918 N   0  0  0  0  0  0  0  0  0  0  0  0
   21.9369   -9.7390  -16.8229 C   0  0  0  0  0  0  0  0  0  0  0  0
   21.5596   -9.3971  -17.9630 O   0  0  0  0  0  0  0  0  0  0  0  0
   21.6570   -8.8920  -15.7242 N   0  0  0  0  0  0  0  0  0  0  0  0
   20.9303   -7.6355  -16.0008 C   0  0  1  0  0  0  0  0  0  0  0  0
   19.4959   -8.0350  -16.2627 C   0  0  0  0  0  0  0  0  0  0  0  0
   18.9258   -8.6572  -15.0635 C   0  0  0  0  0  0  0  0  0  0  0  0
   18.4990   -7.8581  -14.0274 C   0  0  0  0  0  0  0  0  0  0  0  0
   17.9309   -8.3990  -12.8847 C   0  0  0  0  0  0  0  0  0  0  0  0
   17.8019   -9.7681  -12.8090 C   0  0  0  0  0  0  0  0  0  0  0  0
   18.2144  -10.6005  -13.8196 C   0  0  0  0  0  0  0  0  0  0  0  0
   18.7835  -10.0165  -14.9583 C   0  0  0  0  0  0  0  0  0  0  0  0
   20.9856   -6.7751  -14.8142 C   0  0  0  0  0  0  0  0  0  0  0  0
   21.6174   -7.2245  -13.6772 O   0  0  0  0  0  0  0  0  0  0  0  0
   20.4695   -5.6462  -14.8226 O   0  0  0  0  0  0  0  0  0  0  0  0
  2  1  1  1
  2  3  1  0
  3  4  1  0
  4  8  1  0
  5  4  2  0
  6  2  1  0
  7  6  2  0
  9 10  1  0
 11 10  1  6
 11 13  1  0
 11 12  1  0
 12  6  1  0
 13 14  2  0
 15 16  1  0
 15 13  1  0
 16 17  1  1
 16 24  1  0
 17 18  1  0
 18 23  2  0
 19 20  2  0
 19 18  1  0
 20 21  1  0
 21 22  2  0
 23 22  1  0
 24 26  2  0
 24 25  1  0
M  END
$$$$
