DSF.pdb
     RDKit          3D

 26 26  0  0  1  0  0  0  0  0999 V2000
   15.7852  -13.8700  -17.7255 N   0  0  0  0  0  0  0  0  0  0  0  0
   15.2657  -12.6325  -17.1404 C   0  0  1  0  0  0  0  0  0  0  0  0
   15.1589  -12.7768  -15.6373 C   0  0  0  0  0  0  0  0  0  0  0  0
   14.2191  -13.8419  -15.2838 C   0  0  0  0  0  0  0  0  0  0  0  0
   12.9879  -13.6568  -15.4575 O   0  0  0  0  0  0  0  0  0  0  0  0
   16.2445  -11.5461  -17.4021 C   0  0  0  0  0  0  0  0  0  0  0  0
   17.4455  -11.8224  -17.6462 O   0  0  0  0  0  0  0  0  0  0  0  0
   14.6765  -15.0352  -14.7664 O   0  0  0  0  0  0  0  0  0  0  0  0
   14.9725   -7.7157  -17.0250 O   0  0  0  0  0  0  0  0  0  0  0  0
   16.0211   -7.8026  -17.9540 C   0  0  0  0  0  0  0  0  0  0  0  0
   16.7881   -9.0988  -17.6556 C   0  0  2  0  0  0  0  0  0  0  0  0
   15.8503  -10.1696  -17.3836 N   0  0  0  0  0  0  0  0  0  0  0  0
   17.5651   -8.8390  -16.4255 C   0  0  0  0  0  0  0  0  0  0  0  0
   17.1100   -9.2204  -15.3271 O   0  0  0  0  0  0  0  0  0  0  0  0
   18.8115   -8.1694  -16.4572 N   0  0  0  0  0  0  0  0  0  0  0  0
   19.4812   -7.9155  -15.1647 C   0  0  1  0  0  0  0  0  0  0  0  0
   20.9451   -7.7194  -15.4876 C   0  0  0  0  0  0  0  0  0  0  0  0
   21.7028   -7.5031  -14.2509 C   0  0  0  0  0  0  0  0  0  0  0  0
   21.9853   -6.2173  -13.8493 C   0  0  0  0  0  0  0  0  0  0  0  0
   22.6766   -5.9627  -12.6755 C   0  0  0  0  0  0  0  0  0  0  0  0
   23.0786   -7.0364  -11.9123 C   0  0  0  0  0  0  0  0  0  0  0  0
   22.8172   -8.3337  -12.2765 C   0  0  0  0  0  0  0  0  0  0  0  0
   22.1161   -8.5507  -13.4695 C   0  0  0  0  0  0  0  0  0  0  0  0
   18.9444   -6.6835  -14.5772 C   0  0  0  0  0  0  0  0  0  0  0  0
   18.8476   -6.5684  -13.2093 O   0  0  0  0  0  0  0  0  0  0  0  0
   18.5762   -5.7428  -15.2986 O   0  0  0  0  0  0  0  0  0  0  0  0
  2  1  1  6
  2  3  1  0
  3  4  1  0
  4  8  1  0
  5  4  2  0
  6  2  1  0
  7  6  2  0
  9 10  1  0
 11 10  1  1
 11 13  1  0
 11 12  1  0
 12  6  1  0
 13 14  2  0
 15 16  1  0
 15 13  1  0
 16 17  1  6
 16 24  1  0
 17 18  1  0
 18 23  2  0
 19 20  2  0
 19 18  1  0
 20 21  1  0
 21 22  2  0
 23 22  1  0
 24 26  2  0
 24 25  1  0
M  END
$$$$
