DSF.pdb
     RDKit          3D

 26 26  0  0  1  0  0  0  0  0999 V2000
   13.2456   -8.6845   -9.0716 N   0  0  0  0  0  0  0  0  0  0  0  0
   14.5721   -9.0305   -9.5860 C   0  0  1  0  0  0  0  0  0  0  0  0
   14.4419  -10.0073  -10.7351 C   0  0  0  0  0  0  0  0  0  0  0  0
   14.0086  -11.3200  -10.2536 C   0  0  0  0  0  0  0  0  0  0  0  0
   13.9016  -12.2689  -11.0712 O   0  0  0  0  0  0  0  0  0  0  0  0
   15.1957   -7.7986  -10.1340 C   0  0  0  0  0  0  0  0  0  0  0  0
   14.5386   -7.0395  -10.8892 O   0  0  0  0  0  0  0  0  0  0  0  0
   13.7208  -11.5158   -8.9196 O   0  0  0  0  0  0  0  0  0  0  0  0
   17.7368   -4.0131   -9.6325 O   0  0  0  0  0  0  0  0  0  0  0  0
   16.9898   -5.1245   -9.2119 C   0  0  0  0  0  0  0  0  0  0  0  0
   17.1471   -6.2117  -10.2846 C   0  0  2  0  0  0  0  0  0  0  0  0
   16.5477   -7.4465   -9.8199 N   0  0  0  0  0  0  0  0  0  0  0  0
   18.6012   -6.4296  -10.4344 C   0  0  0  0  0  0  0  0  0  0  0  0
   19.2457   -6.9094   -9.4786 O   0  0  0  0  0  0  0  0  0  0  0  0
   19.2846   -6.1095  -11.6317 N   0  0  0  0  0  0  0  0  0  0  0  0
   20.7608   -6.1714  -11.6106 C   0  0  1  0  0  0  0  0  0  0  0  0
   21.1357   -7.4015  -12.4057 C   0  0  0  0  0  0  0  0  0  0  0  0
   20.6641   -7.2637  -13.7873 C   0  0  0  0  0  0  0  0  0  0  0  0
   19.4474   -7.8009  -14.1412 C   0  0  0  0  0  0  0  0  0  0  0  0
   18.9488   -7.6745  -15.4281 C   0  0  0  0  0  0  0  0  0  0  0  0
   19.7063   -6.9921  -16.3542 C   0  0  0  0  0  0  0  0  0  0  0  0
   20.9243   -6.4412  -16.0425 C   0  0  0  0  0  0  0  0  0  0  0  0
   21.3944   -6.5898  -14.7315 C   0  0  0  0  0  0  0  0  0  0  0  0
   21.3030   -4.9808  -12.2737 C   0  0  0  0  0  0  0  0  0  0  0  0
   22.6571   -4.7385  -12.2355 O   0  0  0  0  0  0  0  0  0  0  0  0
   20.5555   -4.1887  -12.8693 O   0  0  0  0  0  0  0  0  0  0  0  0
  2  1  1  6
  2  3  1  0
  3  4  1  0
  4  8  1  0
  5  4  2  0
  6  2  1  0
  7  6  2  0
  9 10  1  0
 11 10  1  1
 11 13  1  0
 11 12  1  0
 12  6  1  0
 13 14  2  0
 15 16  1  0
 15 13  1  0
 16 17  1  6
 16 24  1  0
 17 18  1  0
 18 23  2  0
 19 20  2  0
 19 18  1  0
 20 21  1  0
 21 22  2  0
 23 22  1  0
 24 26  2  0
 24 25  1  0
M  END
$$$$
