DSF.pdb
     RDKit          3D

 26 26  0  0  1  0  0  0  0  0999 V2000
   36.2643    1.5594   -5.7093 N   0  0  0  0  0  0  0  0  0  0  0  0
   36.8043    1.8382   -4.3771 C   0  0  1  0  0  0  0  0  0  0  0  0
   35.8531    2.7324   -3.6110 C   0  0  0  0  0  0  0  0  0  0  0  0
   35.7886    4.0627   -4.2185 C   0  0  0  0  0  0  0  0  0  0  0  0
   36.8496    4.7189   -4.3730 O   0  0  0  0  0  0  0  0  0  0  0  0
   36.8891    0.5566   -3.6307 C   0  0  0  0  0  0  0  0  0  0  0  0
   35.9174   -0.2396   -3.6291 O   0  0  0  0  0  0  0  0  0  0  0  0
   34.5795    4.5917   -4.6172 O   0  0  0  0  0  0  0  0  0  0  0  0
   39.9682   -2.4411   -2.7942 O   0  0  0  0  0  0  0  0  0  0  0  0
   39.6403   -1.3914   -1.9220 C   0  0  0  0  0  0  0  0  0  0  0  0
   38.1638   -1.0446   -2.1610 C   0  0  2  0  0  0  0  0  0  0  0  0
   38.0676    0.1978   -2.9007 N   0  0  0  0  0  0  0  0  0  0  0  0
   37.5724   -0.8347   -0.8228 C   0  0  0  0  0  0  0  0  0  0  0  0
   37.6003    0.3071   -0.3181 O   0  0  0  0  0  0  0  0  0  0  0  0
   36.9748   -1.8921   -0.0965 N   0  0  0  0  0  0  0  0  0  0  0  0
   36.4335   -1.5782    1.2421 C   0  0  1  0  0  0  0  0  0  0  0  0
   35.1138   -2.3096    1.3378 C   0  0  0  0  0  0  0  0  0  0  0  0
   34.0690   -1.5428    0.6516 C   0  0  0  0  0  0  0  0  0  0  0  0
   33.7450   -1.8581   -0.6483 C   0  0  0  0  0  0  0  0  0  0  0  0
   32.7477   -1.1781   -1.3294 C   0  0  0  0  0  0  0  0  0  0  0  0
   32.0816   -0.1695   -0.6690 C   0  0  0  0  0  0  0  0  0  0  0  0
   32.3736    0.1762    0.6269 C   0  0  0  0  0  0  0  0  0  0  0  0
   33.3877   -0.5340    1.2818 C   0  0  0  0  0  0  0  0  0  0  0  0
   37.3492   -2.0931    2.2656 C   0  0  0  0  0  0  0  0  0  0  0  0
   37.0983   -1.8359    3.5940 O   0  0  0  0  0  0  0  0  0  0  0  0
   38.3482   -2.7582    1.9486 O   0  0  0  0  0  0  0  0  0  0  0  0
  2  1  1  6
  2  3  1  0
  3  4  1  0
  4  8  1  0
  5  4  2  0
  6  2  1  0
  7  6  2  0
  9 10  1  0
 11 10  1  1
 11 13  1  0
 11 12  1  0
 12  6  1  0
 13 14  2  0
 15 16  1  0
 15 13  1  0
 16 17  1  1
 16 24  1  0
 17 18  1  0
 18 23  2  0
 19 20  2  0
 19 18  1  0
 20 21  1  0
 21 22  2  0
 23 22  1  0
 24 26  2  0
 24 25  1  0
M  END
$$$$
