DSF.pdb
     RDKit          3D

 26 26  0  0  1  0  0  0  0  0999 V2000
   21.1153  -13.2225  -18.2663 N   0  0  0  0  0  0  0  0  0  0  0  0
   20.4170  -11.9405  -18.3795 C   0  0  1  0  0  0  0  0  0  0  0  0
   19.1264  -11.9837  -17.5897 C   0  0  0  0  0  0  0  0  0  0  0  0
   18.1851  -12.9332  -18.1854 C   0  0  0  0  0  0  0  0  0  0  0  0
   17.9604  -12.8814  -19.4211 O   0  0  0  0  0  0  0  0  0  0  0  0
   21.2672  -10.8904  -17.7619 C   0  0  0  0  0  0  0  0  0  0  0  0
   21.9230  -11.1397  -16.7198 O   0  0  0  0  0  0  0  0  0  0  0  0
   17.5512  -13.8744  -17.4024 O   0  0  0  0  0  0  0  0  0  0  0  0
   21.0445   -7.1385  -19.2781 O   0  0  0  0  0  0  0  0  0  0  0  0
   22.3041   -7.3589  -18.6994 C   0  0  0  0  0  0  0  0  0  0  0  0
   22.1574   -8.5335  -17.7215 C   0  0  2  0  0  0  0  0  0  0  0  0
   21.3614   -9.5798  -18.3312 N   0  0  0  0  0  0  0  0  0  0  0  0
   21.4156   -8.0049  -16.5576 C   0  0  0  0  0  0  0  0  0  0  0  0
   20.2015   -8.2713  -16.4384 O   0  0  0  0  0  0  0  0  0  0  0  0
   22.0429   -7.2046  -15.5733 N   0  0  0  0  0  0  0  0  0  0  0  0
   21.1929   -6.6631  -14.4927 C   0  0  1  0  0  0  0  0  0  0  0  0
   21.8762   -7.0418  -13.1983 C   0  0  0  0  0  0  0  0  0  0  0  0
   21.0744   -6.5826  -12.0596 C   0  0  0  0  0  0  0  0  0  0  0  0
   20.8811   -5.2330  -11.8717 C   0  0  0  0  0  0  0  0  0  0  0  0
   20.1107   -4.7525  -10.8246 C   0  0  0  0  0  0  0  0  0  0  0  0
   19.5373   -5.6656   -9.9676 C   0  0  0  0  0  0  0  0  0  0  0  0
   19.7050   -7.0195  -10.1195 C   0  0  0  0  0  0  0  0  0  0  0  0
   20.4903   -7.4664  -11.1898 C   0  0  0  0  0  0  0  0  0  0  0  0
   21.1423   -5.2015  -14.6053 C   0  0  0  0  0  0  0  0  0  0  0  0
   22.2810   -4.5056  -14.9412 O   0  0  0  0  0  0  0  0  0  0  0  0
   20.0849   -4.5842  -14.4014 O   0  0  0  0  0  0  0  0  0  0  0  0
  2  1  1  1
  2  3  1  0
  3  4  1  0
  4  8  1  0
  5  4  2  0
  6  2  1  0
  7  6  2  0
  9 10  1  0
 11 10  1  6
 11 13  1  0
 11 12  1  0
 12  6  1  0
 13 14  2  0
 15 16  1  0
 15 13  1  0
 16 17  1  1
 16 24  1  0
 17 18  1  0
 18 23  2  0
 19 20  2  0
 19 18  1  0
 20 21  1  0
 21 22  2  0
 23 22  1  0
 24 26  2  0
 24 25  1  0
M  END
$$$$
