DSF.pdb
     RDKit          3D

 26 26  0  0  1  0  0  0  0  0999 V2000
   18.8356  -28.6156  -10.4479 N   0  0  0  0  0  0  0  0  0  0  0  0
   19.7235  -27.4550  -10.3561 C   0  0  1  0  0  0  0  0  0  0  0  0
   21.1502  -27.9119  -10.1393 C   0  0  0  0  0  0  0  0  0  0  0  0
   21.2944  -29.3328  -10.4604 C   0  0  0  0  0  0  0  0  0  0  0  0
   20.3041  -29.9644  -10.9083 O   0  0  0  0  0  0  0  0  0  0  0  0
   19.6915  -26.7393  -11.6575 C   0  0  0  0  0  0  0  0  0  0  0  0
   19.4803  -27.3721  -12.7220 O   0  0  0  0  0  0  0  0  0  0  0  0
   22.5012  -29.9730  -10.2745 O   0  0  0  0  0  0  0  0  0  0  0  0
   18.5886  -22.5828  -12.7000 O   0  0  0  0  0  0  0  0  0  0  0  0
   19.8969  -23.0909  -12.7175 C   0  0  0  0  0  0  0  0  0  0  0  0
   19.7964  -24.5996  -12.9841 C   0  0  2  0  0  0  0  0  0  0  0  0
   19.8983  -25.3244  -11.7333 N   0  0  0  0  0  0  0  0  0  0  0  0
   20.9671  -24.9454  -13.8174 C   0  0  0  0  0  0  0  0  0  0  0  0
   22.1011  -24.9632  -13.2950 O   0  0  0  0  0  0  0  0  0  0  0  0
   20.8392  -25.2573  -15.1919 N   0  0  0  0  0  0  0  0  0  0  0  0
   22.0774  -25.5588  -15.9399 C   0  0  1  0  0  0  0  0  0  0  0  0
   22.2910  -27.0494  -15.8047 C   0  0  0  0  0  0  0  0  0  0  0  0
   21.2517  -27.7703  -16.5466 C   0  0  0  0  0  0  0  0  0  0  0  0
   20.0675  -28.0814  -15.9180 C   0  0  0  0  0  0  0  0  0  0  0  0
   19.0466  -28.7395  -16.5855 C   0  0  0  0  0  0  0  0  0  0  0  0
   19.2462  -29.0785  -17.9054 C   0  0  0  0  0  0  0  0  0  0  0  0
   20.4117  -28.7868  -18.5692 C   0  0  0  0  0  0  0  0  0  0  0  0
   21.4200  -28.1208  -17.8610 C   0  0  0  0  0  0  0  0  0  0  0  0
   21.8805  -25.2228  -17.3540 C   0  0  0  0  0  0  0  0  0  0  0  0
   20.6842  -24.6799  -17.7638 O   0  0  0  0  0  0  0  0  0  0  0  0
   22.7798  -25.4222  -18.1861 O   0  0  0  0  0  0  0  0  0  0  0  0
  2  1  1  6
  2  3  1  0
  3  4  1  0
  4  8  1  0
  5  4  2  0
  6  2  1  0
  7  6  2  0
  9 10  1  0
 11 10  1  1
 11 13  1  0
 11 12  1  0
 12  6  1  0
 13 14  2  0
 15 16  1  0
 15 13  1  0
 16 17  1  6
 16 24  1  0
 17 18  1  0
 18 23  2  0
 19 20  2  0
 19 18  1  0
 20 21  1  0
 21 22  2  0
 23 22  1  0
 24 26  2  0
 24 25  1  0
M  END
$$$$
