DSF.pdb
     RDKit          3D

 26 26  0  0  1  0  0  0  0  0999 V2000
   29.4032  -21.6367  -17.5825 N   0  0  0  0  0  0  0  0  0  0  0  0
   28.1471  -21.9493  -16.8981 C   0  0  1  0  0  0  0  0  0  0  0  0
   27.9895  -23.4491  -16.7673 C   0  0  0  0  0  0  0  0  0  0  0  0
   27.2651  -23.9966  -17.9154 C   0  0  0  0  0  0  0  0  0  0  0  0
   26.8925  -23.2217  -18.8325 O   0  0  0  0  0  0  0  0  0  0  0  0
   28.2180  -21.4000  -15.5196 C   0  0  0  0  0  0  0  0  0  0  0  0
   29.0033  -21.9033  -14.6780 O   0  0  0  0  0  0  0  0  0  0  0  0
   26.9934  -25.3461  -17.9924 O   0  0  0  0  0  0  0  0  0  0  0  0
   25.7393  -18.3155  -14.5564 O   0  0  0  0  0  0  0  0  0  0  0  0
   26.8962  -18.3283  -13.7618 C   0  0  0  0  0  0  0  0  0  0  0  0
   27.4378  -19.7650  -13.7683 C   0  0  2  0  0  0  0  0  0  0  0  0
   27.4022  -20.2942  -15.1169 N   0  0  0  0  0  0  0  0  0  0  0  0
   26.5074  -20.5553  -12.9352 C   0  0  0  0  0  0  0  0  0  0  0  0
   25.6288  -21.2456  -13.4927 O   0  0  0  0  0  0  0  0  0  0  0  0
   26.5840  -20.5519  -11.5220 N   0  0  0  0  0  0  0  0  0  0  0  0
   25.5933  -21.3630  -10.7843 C   0  0  1  0  0  0  0  0  0  0  0  0
   26.3649  -22.0669   -9.6912 C   0  0  0  0  0  0  0  0  0  0  0  0
   26.8990  -21.0815   -8.7456 C   0  0  0  0  0  0  0  0  0  0  0  0
   28.2591  -20.8833   -8.6747 C   0  0  0  0  0  0  0  0  0  0  0  0
   28.8085  -19.9457   -7.8145 C   0  0  0  0  0  0  0  0  0  0  0  0
   27.9538  -19.2095   -7.0243 C   0  0  0  0  0  0  0  0  0  0  0  0
   26.5918  -19.3759   -7.0644 C   0  0  0  0  0  0  0  0  0  0  0  0
   26.0744  -20.3329   -7.9464 C   0  0  0  0  0  0  0  0  0  0  0  0
   24.5962  -20.4736  -10.1792 C   0  0  0  0  0  0  0  0  0  0  0  0
   23.4511  -21.0072   -9.6336 O   0  0  0  0  0  0  0  0  0  0  0  0
   24.7724  -19.2451  -10.1532 O   0  0  0  0  0  0  0  0  0  0  0  0
  2  1  1  6
  2  3  1  0
  3  4  1  0
  4  8  1  0
  5  4  2  0
  6  2  1  0
  7  6  2  0
  9 10  1  0
 11 10  1  6
 11 13  1  0
 11 12  1  0
 12  6  1  0
 13 14  2  0
 15 16  1  0
 15 13  1  0
 16 17  1  1
 16 24  1  0
 17 18  1  0
 18 23  2  0
 19 20  2  0
 19 18  1  0
 20 21  1  0
 21 22  2  0
 23 22  1  0
 24 26  2  0
 24 25  1  0
M  END
$$$$
