YNC.pdb
     RDKit          3D

 27 27  0  0  1  0  0  0  0  0999 V2000
    5.9198  -13.4991   19.0511 O   0  0  0  0  0  0  0  0  0  0  0  0
    7.3002  -13.6071   18.8711 C   0  0  0  0  0  0  0  0  0  0  0  0
    7.8231  -14.4807   17.9494 C   0  0  0  0  0  0  0  0  0  0  0  0
    9.1907  -14.5671   17.7921 C   0  0  0  0  0  0  0  0  0  0  0  0
   10.0668  -13.8045   18.5296 C   0  0  0  0  0  0  0  0  0  0  0  0
   11.5328  -13.8804   18.3768 C   0  0  0  0  0  0  0  0  0  0  0  0
   12.0320  -15.0464   19.2037 C   0  0  2  0  0  0  0  0  0  0  0  0
   11.8407  -14.7225   20.6038 N   0  0  0  0  0  0  0  0  0  0  0  0
   13.4806  -15.2867   18.9912 C   0  0  0  0  0  0  0  0  0  0  0  0
   13.9105  -15.7817   17.8948 O   0  0  0  0  0  0  0  0  0  0  0  0
    9.5424  -12.9337   19.4485 C   0  0  0  0  0  0  0  0  0  0  0  0
    8.1590  -12.8426   19.6115 C   0  0  0  0  0  0  0  0  0  0  0  0
   17.6792  -15.2687   17.1592 N   0  0  0  0  0  0  0  0  0  0  0  0
   16.6720  -14.3258   17.4964 C   0  0  0  0  0  0  0  0  0  0  0  0
   16.0810  -13.7474   16.5632 O   0  0  0  0  0  0  0  0  0  0  0  0
   16.3529  -14.0553   18.8837 C   0  0  0  0  0  0  0  0  0  0  0  0
   15.9079  -15.1894   19.7306 C   0  0  2  0  0  0  0  0  0  0  0  0
   14.4673  -14.9974   19.9515 N   0  0  0  0  0  0  0  0  0  0  0  0
   16.5265  -15.3397   21.0357 C   0  0  0  0  0  0  0  0  0  0  0  0
   16.4999  -14.4211   21.8808 O   0  0  0  0  0  0  0  0  0  0  0  0
   17.2014  -16.5365   21.4386 N   0  0  0  0  0  0  0  0  0  0  0  0
   17.0173  -17.1231   22.7407 C   0  0  1  0  0  0  0  0  0  0  0  0
   15.5279  -17.2220   23.0008 C   0  0  0  0  0  0  0  0  0  0  0  0
   15.1949  -17.8684   24.6650 S   0  0  0  0  0  0  0  0  0  0  0  0
   17.6773  -18.4325   22.8779 C   0  0  0  0  0  0  0  0  0  0  0  0
   17.5593  -19.3301   22.0154 O   0  0  0  0  0  0  0  0  0  0  0  0
   18.4526  -18.6841   23.9916 O   0  0  0  0  0  0  0  0  0  0  0  0
  1  2  1  0
  2 12  2  0
  3  4  2  0
  3  2  1  0
  4  5  1  0
  5  6  1  0
  5 11  2  0
  6  7  1  0
  7  8  1  1
  7  9  1  0
  9 10  2  0
 12 11  1  0
 13 14  1  0
 14 15  2  0
 16 14  1  0
 17 16  1  1
 17 19  1  0
 18  9  1  0
 18 17  1  0
 19 21  1  0
 20 19  2  0
 21 22  1  0
 22 25  1  0
 23 24  1  0
 22 23  1  6
 25 26  2  0
 25 27  1  0
M  END
$$$$
