YNC.pdb
     RDKit          3D

 27 27  0  0  1  0  0  0  0  0999 V2000
   12.3727  -20.5959   29.7330 O   0  0  0  0  0  0  0  0  0  0  0  0
   12.3066  -20.5775   28.3384 C   0  0  0  0  0  0  0  0  0  0  0  0
   13.4279  -20.8029   27.5781 C   0  0  0  0  0  0  0  0  0  0  0  0
   13.3342  -20.7790   26.2022 C   0  0  0  0  0  0  0  0  0  0  0  0
   12.1482  -20.5356   25.5486 C   0  0  0  0  0  0  0  0  0  0  0  0
   12.0253  -20.5063   24.0781 C   0  0  0  0  0  0  0  0  0  0  0  0
   11.4395  -21.8283   23.6288 C   0  0  2  0  0  0  0  0  0  0  0  0
   12.2714  -22.8932   24.1541 N   0  0  0  0  0  0  0  0  0  0  0  0
   11.4340  -21.9493   22.1501 C   0  0  0  0  0  0  0  0  0  0  0  0
   12.4440  -22.4203   21.5257 O   0  0  0  0  0  0  0  0  0  0  0  0
   11.0310  -20.3110   26.3096 C   0  0  0  0  0  0  0  0  0  0  0  0
   11.1207  -20.3341   27.7024 C   0  0  0  0  0  0  0  0  0  0  0  0
    6.9898  -20.7552   18.9503 N   0  0  0  0  0  0  0  0  0  0  0  0
    7.8746  -21.3574   19.8838 C   0  0  0  0  0  0  0  0  0  0  0  0
    7.5995  -21.2548   21.0956 O   0  0  0  0  0  0  0  0  0  0  0  0
    9.0544  -22.0647   19.4280 C   0  0  0  0  0  0  0  0  0  0  0  0
   10.3801  -21.5675   19.8716 C   0  0  2  0  0  0  0  0  0  0  0  0
   10.3483  -21.5664   21.3412 N   0  0  0  0  0  0  0  0  0  0  0  0
   10.7768  -20.2360   19.4492 C   0  0  0  0  0  0  0  0  0  0  0  0
   10.0791  -19.5664   18.6596 O   0  0  0  0  0  0  0  0  0  0  0  0
   11.9801  -19.6069   19.9033 N   0  0  0  0  0  0  0  0  0  0  0  0
   12.0433  -18.2034   20.2190 C   0  0  1  0  0  0  0  0  0  0  0  0
   10.9685  -17.9077   21.2452 C   0  0  0  0  0  0  0  0  0  0  0  0
   11.0922  -16.1998   21.8501 S   0  0  0  0  0  0  0  0  0  0  0  0
   13.3726  -17.7817   20.6928 C   0  0  0  0  0  0  0  0  0  0  0  0
   14.0126  -18.4354   21.5451 O   0  0  0  0  0  0  0  0  0  0  0  0
   13.9361  -16.6292   20.1840 O   0  0  0  0  0  0  0  0  0  0  0  0
  1  2  1  0
  2 12  2  0
  3  4  2  0
  3  2  1  0
  4  5  1  0
  5  6  1  0
  5 11  2  0
  6  7  1  0
  7  8  1  1
  7  9  1  0
  9 10  2  0
 12 11  1  0
 13 14  1  0
 14 15  2  0
 16 14  1  0
 17 16  1  6
 17 19  1  0
 18  9  1  0
 18 17  1  0
 19 21  1  0
 20 19  2  0
 21 22  1  0
 22 25  1  0
 23 24  1  0
 22 23  1  1
 25 26  2  0
 25 27  1  0
M  END
$$$$
