YNC.pdb
     RDKit          3D

 27 27  0  0  1  0  0  0  0  0999 V2000
    6.8612  -11.7324   18.8164 O   0  0  0  0  0  0  0  0  0  0  0  0
    7.5223  -12.7306   19.5348 C   0  0  0  0  0  0  0  0  0  0  0  0
    6.8439  -13.5171   20.4334 C   0  0  0  0  0  0  0  0  0  0  0  0
    7.5218  -14.4960   21.1296 C   0  0  0  0  0  0  0  0  0  0  0  0
    8.8683  -14.7221   20.9603 C   0  0  0  0  0  0  0  0  0  0  0  0
    9.6128  -15.7642   21.6939 C   0  0  0  0  0  0  0  0  0  0  0  0
    9.7335  -16.9767   20.7950 C   0  0  2  0  0  0  0  0  0  0  0  0
    8.4270  -17.5972   20.6951 N   0  0  0  0  0  0  0  0  0  0  0  0
   10.6679  -17.9829   21.3571 C   0  0  0  0  0  0  0  0  0  0  0  0
   10.2708  -18.8396   22.2175 O   0  0  0  0  0  0  0  0  0  0  0  0
    9.5428  -13.9361   20.0632 C   0  0  0  0  0  0  0  0  0  0  0  0
    8.8612  -12.9440   19.3561 C   0  0  0  0  0  0  0  0  0  0  0  0
   14.3346  -18.8992   18.1370 N   0  0  0  0  0  0  0  0  0  0  0  0
   13.9087  -19.6355   19.2744 C   0  0  0  0  0  0  0  0  0  0  0  0
   13.3601  -20.7384   19.0813 O   0  0  0  0  0  0  0  0  0  0  0  0
   14.1120  -19.1094   20.6091 C   0  0  0  0  0  0  0  0  0  0  0  0
   12.9505  -19.0815   21.5319 C   0  0  2  0  0  0  0  0  0  0  0  0
   12.0254  -18.0714   20.9983 N   0  0  0  0  0  0  0  0  0  0  0  0
   13.2013  -18.7433   22.9216 C   0  0  0  0  0  0  0  0  0  0  0  0
   12.7198  -17.7150   23.4407 O   0  0  0  0  0  0  0  0  0  0  0  0
   14.0080  -19.5552   23.7819 N   0  0  0  0  0  0  0  0  0  0  0  0
   14.0448  -19.3647   25.2087 C   0  0  1  0  0  0  0  0  0  0  0  0
   12.6459  -19.5907   25.7452 C   0  0  0  0  0  0  0  0  0  0  0  0
   12.6141  -19.4833   27.5579 S   0  0  0  0  0  0  0  0  0  0  0  0
   15.0267  -20.2347   25.8780 C   0  0  0  0  0  0  0  0  0  0  0  0
   15.3114  -21.3724   25.4443 O   0  0  0  0  0  0  0  0  0  0  0  0
   15.6570  -19.7865   27.0211 O   0  0  0  0  0  0  0  0  0  0  0  0
  1  2  1  0
  2 12  2  0
  3  4  2  0
  3  2  1  0
  4  5  1  0
  5  6  1  0
  5 11  2  0
  6  7  1  0
  7  8  1  1
  7  9  1  0
  9 10  2  0
 12 11  1  0
 13 14  1  0
 14 15  2  0
 16 14  1  0
 17 16  1  6
 17 19  1  0
 18  9  1  0
 18 17  1  0
 19 21  1  0
 20 19  2  0
 21 22  1  0
 22 25  1  0
 23 24  1  0
 22 23  1  1
 25 26  2  0
 25 27  1  0
M  END
$$$$
