YNC.pdb
     RDKit          3D

 27 27  0  0  1  0  0  0  0  0999 V2000
    7.5859  -12.3512   17.3120 O   0  0  0  0  0  0  0  0  0  0  0  0
    7.8657  -12.9623   18.5359 C   0  0  0  0  0  0  0  0  0  0  0  0
    6.8797  -13.1388   19.4756 C   0  0  0  0  0  0  0  0  0  0  0  0
    7.1838  -13.7456   20.6763 C   0  0  0  0  0  0  0  0  0  0  0  0
    8.4511  -14.1885   20.9780 C   0  0  0  0  0  0  0  0  0  0  0  0
    8.7980  -14.8408   22.2556 C   0  0  0  0  0  0  0  0  0  0  0  0
    9.3061  -16.2339   21.9495 C   0  0  2  0  0  0  0  0  0  0  0  0
    8.2184  -16.9935   21.3648 N   0  0  0  0  0  0  0  0  0  0  0  0
    9.7381  -16.9409   23.1803 C   0  0  0  0  0  0  0  0  0  0  0  0
    8.8830  -17.4689   23.9690 O   0  0  0  0  0  0  0  0  0  0  0  0
    9.4329  -14.0111   20.0387 C   0  0  0  0  0  0  0  0  0  0  0  0
    9.1302  -13.3975   18.8219 C   0  0  0  0  0  0  0  0  0  0  0  0
   12.1855  -20.8502   23.9497 N   0  0  0  0  0  0  0  0  0  0  0  0
   12.6640  -19.5807   23.5295 C   0  0  0  0  0  0  0  0  0  0  0  0
   12.9953  -19.4503   22.3346 O   0  0  0  0  0  0  0  0  0  0  0  0
   12.7584  -18.4824   24.4701 C   0  0  0  0  0  0  0  0  0  0  0  0
   11.5164  -17.7431   24.8056 C   0  0  2  0  0  0  0  0  0  0  0  0
   11.0837  -17.0821   23.5661 N   0  0  0  0  0  0  0  0  0  0  0  0
   11.5975  -16.7199   25.8327 C   0  0  0  0  0  0  0  0  0  0  0  0
   11.9305  -15.5476   25.5620 O   0  0  0  0  0  0  0  0  0  0  0  0
   11.3047  -16.9813   27.2097 N   0  0  0  0  0  0  0  0  0  0  0  0
   11.1127  -15.9255   28.1699 C   0  0  1  0  0  0  0  0  0  0  0  0
   10.0221  -15.0128   27.6470 C   0  0  0  0  0  0  0  0  0  0  0  0
    9.9506  -13.4664   28.5967 S   0  0  0  0  0  0  0  0  0  0  0  0
   10.7963  -16.4273   29.5180 C   0  0  0  0  0  0  0  0  0  0  0  0
   10.1348  -17.4726   29.6999 O   0  0  0  0  0  0  0  0  0  0  0  0
   11.2411  -15.7264   30.6205 O   0  0  0  0  0  0  0  0  0  0  0  0
  1  2  1  0
  2 12  2  0
  3  4  2  0
  3  2  1  0
  4  5  1  0
  5  6  1  0
  5 11  2  0
  6  7  1  0
  7  8  1  1
  7  9  1  0
  9 10  2  0
 12 11  1  0
 13 14  1  0
 14 15  2  0
 16 14  1  0
 17 16  1  6
 17 19  1  0
 18  9  1  0
 18 17  1  0
 19 21  1  0
 20 19  2  0
 21 22  1  0
 22 25  1  0
 23 24  1  0
 22 23  1  6
 25 26  2  0
 25 27  1  0
M  END
$$$$
