YNC.pdb
     RDKit          3D

 27 27  0  0  1  0  0  0  0  0999 V2000
    7.4583  -12.6708   17.0904 O   0  0  0  0  0  0  0  0  0  0  0  0
    7.7301  -13.2072   18.3506 C   0  0  0  0  0  0  0  0  0  0  0  0
    8.9951  -13.6308   18.6768 C   0  0  0  0  0  0  0  0  0  0  0  0
    9.2357  -14.1567   19.9290 C   0  0  0  0  0  0  0  0  0  0  0  0
    8.2485  -14.2771   20.8797 C   0  0  0  0  0  0  0  0  0  0  0  0
    8.4841  -14.8358   22.2252 C   0  0  0  0  0  0  0  0  0  0  0  0
    8.7218  -16.3242   22.0814 C   0  0  2  0  0  0  0  0  0  0  0  0
    7.4691  -16.9474   21.7015 N   0  0  0  0  0  0  0  0  0  0  0  0
    9.1580  -16.9343   23.3616 C   0  0  0  0  0  0  0  0  0  0  0  0
    8.3660  -17.6703   24.0420 O   0  0  0  0  0  0  0  0  0  0  0  0
    6.9872  -13.8537   20.5516 C   0  0  0  0  0  0  0  0  0  0  0  0
    6.7386  -13.3208   19.2856 C   0  0  0  0  0  0  0  0  0  0  0  0
   12.2291  -20.2733   26.1882 N   0  0  0  0  0  0  0  0  0  0  0  0
   12.7871  -19.1220   25.5715 C   0  0  0  0  0  0  0  0  0  0  0  0
   13.9427  -18.7886   25.9001 O   0  0  0  0  0  0  0  0  0  0  0  0
   12.0263  -18.3698   24.5941 C   0  0  0  0  0  0  0  0  0  0  0  0
   10.9379  -17.4892   25.0855 C   0  0  2  0  0  0  0  0  0  0  0  0
   10.4403  -16.7565   23.9123 N   0  0  0  0  0  0  0  0  0  0  0  0
   11.2731  -16.5035   26.0976 C   0  0  0  0  0  0  0  0  0  0  0  0
   11.8555  -16.8244   27.1543 O   0  0  0  0  0  0  0  0  0  0  0  0
   10.9630  -15.1128   25.9557 N   0  0  0  0  0  0  0  0  0  0  0  0
   10.2829  -14.3670   26.9827 C   0  0  1  0  0  0  0  0  0  0  0  0
    8.8804  -14.0705   26.4919 C   0  0  0  0  0  0  0  0  0  0  0  0
    7.8955  -13.2507   27.7788 S   0  0  0  0  0  0  0  0  0  0  0  0
   10.2648  -15.0635   28.2802 C   0  0  0  0  0  0  0  0  0  0  0  0
   10.6002  -14.4973   29.3434 O   0  0  0  0  0  0  0  0  0  0  0  0
    9.8657  -16.3837   28.3320 O   0  0  0  0  0  0  0  0  0  0  0  0
  1  2  1  0
  2 12  2  0
  3  4  2  0
  3  2  1  0
  4  5  1  0
  5  6  1  0
  5 11  2  0
  6  7  1  0
  7  8  1  1
  7  9  1  0
  9 10  2  0
 12 11  1  0
 13 14  1  0
 14 15  2  0
 16 14  1  0
 17 16  1  6
 17 19  1  0
 18  9  1  0
 18 17  1  0
 19 21  1  0
 20 19  2  0
 21 22  1  0
 22 25  1  0
 23 24  1  0
 22 23  1  6
 25 26  2  0
 25 27  1  0
M  END
$$$$
