YNC.pdb
     RDKit          3D

 27 27  0  0  1  0  0  0  0  0999 V2000
    7.2504  -12.4093   16.9012 O   0  0  0  0  0  0  0  0  0  0  0  0
    7.5985  -12.9919   18.1215 C   0  0  0  0  0  0  0  0  0  0  0  0
    8.9154  -13.1982   18.4522 C   0  0  0  0  0  0  0  0  0  0  0  0
    9.2310  -13.7756   19.6645 C   0  0  0  0  0  0  0  0  0  0  0  0
    8.2692  -14.1595   20.5703 C   0  0  0  0  0  0  0  0  0  0  0  0
    8.5846  -14.7780   21.8727 C   0  0  0  0  0  0  0  0  0  0  0  0
    9.2127  -16.1306   21.6112 C   0  0  2  0  0  0  0  0  0  0  0  0
    8.2045  -16.9911   21.0238 N   0  0  0  0  0  0  0  0  0  0  0  0
    9.6744  -16.7710   22.8674 C   0  0  0  0  0  0  0  0  0  0  0  0
    8.8584  -17.4000   23.6226 O   0  0  0  0  0  0  0  0  0  0  0  0
    6.9561  -13.9525   20.2379 C   0  0  0  0  0  0  0  0  0  0  0  0
    6.6315  -13.3685   19.0122 C   0  0  0  0  0  0  0  0  0  0  0  0
   12.6296  -20.5850   24.0278 N   0  0  0  0  0  0  0  0  0  0  0  0
   12.6397  -19.3166   23.3889 C   0  0  0  0  0  0  0  0  0  0  0  0
   12.5617  -19.2914   22.1448 O   0  0  0  0  0  0  0  0  0  0  0  0
   12.7380  -18.1004   24.1706 C   0  0  0  0  0  0  0  0  0  0  0  0
   11.4803  -17.4035   24.5368 C   0  0  2  0  0  0  0  0  0  0  0  0
   11.0081  -16.7376   23.3143 N   0  0  0  0  0  0  0  0  0  0  0  0
   11.5477  -16.3934   25.5778 C   0  0  0  0  0  0  0  0  0  0  0  0
   11.8511  -15.2100   25.3209 O   0  0  0  0  0  0  0  0  0  0  0  0
   11.2742  -16.6811   26.9535 N   0  0  0  0  0  0  0  0  0  0  0  0
   11.1019  -15.6439   27.9375 C   0  0  1  0  0  0  0  0  0  0  0  0
    9.9680  -14.7498   27.4784 C   0  0  0  0  0  0  0  0  0  0  0  0
    9.6051  -13.4666   28.7113 S   0  0  0  0  0  0  0  0  0  0  0  0
   10.8587  -16.1723   29.2906 C   0  0  0  0  0  0  0  0  0  0  0  0
   10.4754  -17.3461   29.4869 O   0  0  0  0  0  0  0  0  0  0  0  0
   11.0584  -15.3510   30.3817 O   0  0  0  0  0  0  0  0  0  0  0  0
  1  2  1  0
  2 12  2  0
  3  4  2  0
  3  2  1  0
  4  5  1  0
  5  6  1  0
  5 11  2  0
  6  7  1  0
  7  8  1  1
  7  9  1  0
  9 10  2  0
 12 11  1  0
 13 14  1  0
 14 15  2  0
 16 14  1  0
 17 16  1  6
 17 19  1  0
 18  9  1  0
 18 17  1  0
 19 21  1  0
 20 19  2  0
 21 22  1  0
 22 25  1  0
 23 24  1  0
 22 23  1  6
 25 26  2  0
 25 27  1  0
M  END
$$$$
