YNC.pdb
     RDKit          3D

 27 27  0  0  1  0  0  0  0  0999 V2000
   -1.5833  -19.4202   19.5128 O   0  0  0  0  0  0  0  0  0  0  0  0
   -0.3970  -19.4354   20.2491 C   0  0  0  0  0  0  0  0  0  0  0  0
   -0.4129  -19.6599   21.6039 C   0  0  0  0  0  0  0  0  0  0  0  0
    0.7738  -19.6696   22.3068 C   0  0  0  0  0  0  0  0  0  0  0  0
    1.9911  -19.4611   21.7004 C   0  0  0  0  0  0  0  0  0  0  0  0
    3.2723  -19.4682   22.4329 C   0  0  0  0  0  0  0  0  0  0  0  0
    4.1252  -20.5893   21.8778 C   0  0  2  0  0  0  0  0  0  0  0  0
    3.4325  -21.8416   22.1096 N   0  0  0  0  0  0  0  0  0  0  0  0
    5.4386  -20.6679   22.5634 C   0  0  0  0  0  0  0  0  0  0  0  0
    5.5545  -21.2456   23.6969 O   0  0  0  0  0  0  0  0  0  0  0  0
    2.0041  -19.2374   20.3485 C   0  0  0  0  0  0  0  0  0  0  0  0
    0.8058  -19.2266   19.6327 C   0  0  0  0  0  0  0  0  0  0  0  0
   11.3383  -19.9618   20.9691 N   0  0  0  0  0  0  0  0  0  0  0  0
   10.3400  -20.3728   21.8919 C   0  0  0  0  0  0  0  0  0  0  0  0
   10.7153  -20.8274   22.9906 O   0  0  0  0  0  0  0  0  0  0  0  0
    8.9354  -20.2616   21.5535 C   0  0  0  0  0  0  0  0  0  0  0  0
    7.9475  -20.2881   22.6602 C   0  0  2  0  0  0  0  0  0  0  0  0
    6.6262  -20.1285   22.0361 N   0  0  0  0  0  0  0  0  0  0  0  0
    8.0618  -19.2715   23.6906 C   0  0  0  0  0  0  0  0  0  0  0  0
    7.8398  -18.0672   23.4475 O   0  0  0  0  0  0  0  0  0  0  0  0
    8.4324  -19.5757   25.0398 N   0  0  0  0  0  0  0  0  0  0  0  0
    8.8449  -18.5594   25.9728 C   0  0  1  0  0  0  0  0  0  0  0  0
    7.5975  -17.9493   26.5788 C   0  0  0  0  0  0  0  0  0  0  0  0
    6.6763  -19.1738   27.5536 S   0  0  0  0  0  0  0  0  0  0  0  0
    9.7553  -19.0705   27.0116 C   0  0  0  0  0  0  0  0  0  0  0  0
   10.1790  -18.3466   27.9389 O   0  0  0  0  0  0  0  0  0  0  0  0
   10.1577  -20.3899   26.9667 O   0  0  0  0  0  0  0  0  0  0  0  0
  1  2  1  0
  2 12  2  0
  3  4  2  0
  3  2  1  0
  4  5  1  0
  5  6  1  0
  5 11  2  0
  6  7  1  0
  7  8  1  1
  7  9  1  0
  9 10  2  0
 12 11  1  0
 13 14  1  0
 14 15  2  0
 16 14  1  0
 17 16  1  6
 17 19  1  0
 18  9  1  0
 18 17  1  0
 19 21  1  0
 20 19  2  0
 21 22  1  0
 22 25  1  0
 23 24  1  0
 22 23  1  1
 25 26  2  0
 25 27  1  0
M  END
$$$$
