YNC.pdb
     RDKit          3D

 27 27  0  0  1  0  0  0  0  0999 V2000
    7.3243  -12.3763   16.9975 O   0  0  0  0  0  0  0  0  0  0  0  0
    7.6516  -13.0138   18.1958 C   0  0  0  0  0  0  0  0  0  0  0  0
    6.6794  -13.5990   18.9696 C   0  0  0  0  0  0  0  0  0  0  0  0
    7.0307  -14.2221   20.1489 C   0  0  0  0  0  0  0  0  0  0  0  0
    8.3323  -14.2839   20.5902 C   0  0  0  0  0  0  0  0  0  0  0  0
    8.7302  -14.9461   21.8478 C   0  0  0  0  0  0  0  0  0  0  0  0
    9.2165  -16.3400   21.5118 C   0  0  2  0  0  0  0  0  0  0  0  0
    8.0755  -17.1264   21.0856 N   0  0  0  0  0  0  0  0  0  0  0  0
    9.8096  -17.0119   22.6943 C   0  0  0  0  0  0  0  0  0  0  0  0
    9.0827  -17.6858   23.5003 O   0  0  0  0  0  0  0  0  0  0  0  0
    9.3004  -13.6993   19.8164 C   0  0  0  0  0  0  0  0  0  0  0  0
    8.9499  -13.0674   18.6220 C   0  0  0  0  0  0  0  0  0  0  0  0
   13.3422  -19.0349   26.1115 N   0  0  0  0  0  0  0  0  0  0  0  0
   13.8462  -18.8531   24.7962 C   0  0  0  0  0  0  0  0  0  0  0  0
   14.9660  -19.3330   24.5310 O   0  0  0  0  0  0  0  0  0  0  0  0
   13.0730  -18.1315   23.8057 C   0  0  0  0  0  0  0  0  0  0  0  0
   11.7631  -17.5695   24.2177 C   0  0  2  0  0  0  0  0  0  0  0  0
   11.1789  -16.9620   23.0134 N   0  0  0  0  0  0  0  0  0  0  0  0
   11.7615  -16.5539   25.2555 C   0  0  0  0  0  0  0  0  0  0  0  0
   11.9179  -15.3449   24.9864 O   0  0  0  0  0  0  0  0  0  0  0  0
   11.5827  -16.8647   26.6417 N   0  0  0  0  0  0  0  0  0  0  0  0
   11.2597  -15.8594   27.6207 C   0  0  1  0  0  0  0  0  0  0  0  0
   10.0198  -15.1287   27.1467 C   0  0  0  0  0  0  0  0  0  0  0  0
    9.4999  -13.8717   28.3499 S   0  0  0  0  0  0  0  0  0  0  0  0
   11.0756  -16.4141   28.9726 C   0  0  0  0  0  0  0  0  0  0  0  0
   11.5641  -15.8697   29.9867 O   0  0  0  0  0  0  0  0  0  0  0  0
   10.3413  -17.5716   29.1329 O   0  0  0  0  0  0  0  0  0  0  0  0
  1  2  1  0
  2 12  2  0
  3  4  2  0
  3  2  1  0
  4  5  1  0
  5  6  1  0
  5 11  2  0
  6  7  1  0
  7  8  1  1
  7  9  1  0
  9 10  2  0
 12 11  1  0
 13 14  1  0
 14 15  2  0
 16 14  1  0
 17 16  1  6
 17 19  1  0
 18  9  1  0
 18 17  1  0
 19 21  1  0
 20 19  2  0
 21 22  1  0
 22 25  1  0
 23 24  1  0
 22 23  1  6
 25 26  2  0
 25 27  1  0
M  END
$$$$
