YNC.pdb
     RDKit          3D

 27 27  0  0  1  0  0  0  0  0999 V2000
   12.3385  -17.2111   31.5817 O   0  0  0  0  0  0  0  0  0  0  0  0
   11.5570  -16.9310   30.4590 C   0  0  0  0  0  0  0  0  0  0  0  0
   11.4265  -15.6445   29.9961 C   0  0  0  0  0  0  0  0  0  0  0  0
   10.6482  -15.3962   28.8848 C   0  0  0  0  0  0  0  0  0  0  0  0
    9.9871  -16.3963   28.2098 C   0  0  0  0  0  0  0  0  0  0  0  0
    9.1503  -16.1530   27.0186 C   0  0  0  0  0  0  0  0  0  0  0  0
    9.5785  -17.1222   25.9371 C   0  0  2  0  0  0  0  0  0  0  0  0
   10.9835  -17.4233   26.1304 N   0  0  0  0  0  0  0  0  0  0  0  0
    9.4264  -16.5333   24.5838 C   0  0  0  0  0  0  0  0  0  0  0  0
   10.4148  -15.9795   23.9936 O   0  0  0  0  0  0  0  0  0  0  0  0
   10.1190  -17.6789   28.6738 C   0  0  0  0  0  0  0  0  0  0  0  0
   10.9055  -17.9354   29.7981 C   0  0  0  0  0  0  0  0  0  0  0  0
    7.3026  -14.7981   20.0320 N   0  0  0  0  0  0  0  0  0  0  0  0
    6.5582  -15.8663   20.5994 C   0  0  0  0  0  0  0  0  0  0  0  0
    5.5898  -16.3093   19.9508 O   0  0  0  0  0  0  0  0  0  0  0  0
    6.9240  -16.4130   21.8905 C   0  0  0  0  0  0  0  0  0  0  0  0
    7.9686  -15.7095   22.6749 C   0  0  2  0  0  0  0  0  0  0  0  0
    8.2177  -16.5373   23.8638 N   0  0  0  0  0  0  0  0  0  0  0  0
    7.6721  -14.3665   23.1406 C   0  0  0  0  0  0  0  0  0  0  0  0
    7.1263  -13.5236   22.3988 O   0  0  0  0  0  0  0  0  0  0  0  0
    7.9812  -13.9215   24.4660 N   0  0  0  0  0  0  0  0  0  0  0  0
    7.5482  -12.6440   24.9698 C   0  0  1  0  0  0  0  0  0  0  0  0
    6.0342  -12.6113   24.9176 C   0  0  0  0  0  0  0  0  0  0  0  0
    5.3128  -13.1188   26.5052 S   0  0  0  0  0  0  0  0  0  0  0  0
    8.0476  -12.3638   26.3267 C   0  0  0  0  0  0  0  0  0  0  0  0
    8.6626  -13.2202   26.9988 O   0  0  0  0  0  0  0  0  0  0  0  0
    7.8338  -11.1179   26.8807 O   0  0  0  0  0  0  0  0  0  0  0  0
  1  2  1  0
  2 12  2  0
  3  4  2  0
  3  2  1  0
  4  5  1  0
  5  6  1  0
  5 11  2  0
  6  7  1  0
  7  8  1  1
  7  9  1  0
  9 10  2  0
 12 11  1  0
 13 14  1  0
 14 15  2  0
 16 14  1  0
 17 16  1  1
 17 19  1  0
 18  9  1  0
 18 17  1  0
 19 21  1  0
 20 19  2  0
 21 22  1  0
 22 25  1  0
 23 24  1  0
 22 23  1  1
 25 26  2  0
 25 27  1  0
M  END
$$$$
