YNC.pdb
     RDKit          3D

 27 27  0  0  1  0  0  0  0  0999 V2000
    7.9331  -12.0593   17.4330 O   0  0  0  0  0  0  0  0  0  0  0  0
    7.8808  -12.7508   18.6449 C   0  0  0  0  0  0  0  0  0  0  0  0
    8.9679  -12.7834   19.4835 C   0  0  0  0  0  0  0  0  0  0  0  0
    8.8888  -13.4740   20.6748 C   0  0  0  0  0  0  0  0  0  0  0  0
    7.7509  -14.1416   21.0653 C   0  0  0  0  0  0  0  0  0  0  0  0
    7.6444  -14.8857   22.3354 C   0  0  0  0  0  0  0  0  0  0  0  0
    8.0038  -16.3315   22.0650 C   0  0  2  0  0  0  0  0  0  0  0  0
    6.7790  -17.0588   21.7949 N   0  0  0  0  0  0  0  0  0  0  0  0
    8.6521  -16.9627   23.2409 C   0  0  0  0  0  0  0  0  0  0  0  0
    7.9550  -17.5200   24.1549 O   0  0  0  0  0  0  0  0  0  0  0  0
    6.6677  -14.1075   20.2267 C   0  0  0  0  0  0  0  0  0  0  0  0
    6.7428  -13.4099   19.0199 C   0  0  0  0  0  0  0  0  0  0  0  0
   14.1297  -19.2035   24.7608 N   0  0  0  0  0  0  0  0  0  0  0  0
   12.7643  -18.9555   25.0627 C   0  0  0  0  0  0  0  0  0  0  0  0
   12.3368  -19.3296   26.1726 O   0  0  0  0  0  0  0  0  0  0  0  0
   11.9083  -18.2885   24.1024 C   0  0  0  0  0  0  0  0  0  0  0  0
   10.6928  -17.6048   24.6087 C   0  0  2  0  0  0  0  0  0  0  0  0
   10.0447  -16.9971   23.4376 N   0  0  0  0  0  0  0  0  0  0  0  0
   10.8716  -16.5539   25.5947 C   0  0  0  0  0  0  0  0  0  0  0  0
   11.3056  -15.4272   25.2770 O   0  0  0  0  0  0  0  0  0  0  0  0
   10.5666  -16.7346   26.9819 N   0  0  0  0  0  0  0  0  0  0  0  0
   10.8236  -15.7153   27.9659 C   0  0  1  0  0  0  0  0  0  0  0  0
    9.7871  -14.6244   27.7884 C   0  0  0  0  0  0  0  0  0  0  0  0
    9.9286  -13.3678   29.0920 S   0  0  0  0  0  0  0  0  0  0  0  0
   10.8281  -16.2365   29.3434 C   0  0  0  0  0  0  0  0  0  0  0  0
   10.1834  -17.2567   29.6702 O   0  0  0  0  0  0  0  0  0  0  0  0
   11.5655  -15.5830   30.3098 O   0  0  0  0  0  0  0  0  0  0  0  0
  1  2  1  0
  2 12  2  0
  3  4  2  0
  3  2  1  0
  4  5  1  0
  5  6  1  0
  5 11  2  0
  6  7  1  0
  7  8  1  1
  7  9  1  0
  9 10  2  0
 12 11  1  0
 13 14  1  0
 14 15  2  0
 16 14  1  0
 17 16  1  6
 17 19  1  0
 18  9  1  0
 18 17  1  0
 19 21  1  0
 20 19  2  0
 21 22  1  0
 22 25  1  0
 23 24  1  0
 22 23  1  1
 25 26  2  0
 25 27  1  0
M  END
$$$$
