YNC.pdb
     RDKit          3D

 27 27  0  0  1  0  0  0  0  0999 V2000
    9.5448  -22.0737   21.3341 O   0  0  0  0  0  0  0  0  0  0  0  0
    9.2220  -21.9060   19.9861 C   0  0  0  0  0  0  0  0  0  0  0  0
   10.1350  -22.1983   19.0026 C   0  0  0  0  0  0  0  0  0  0  0  0
    9.7897  -22.0234   17.6787 C   0  0  0  0  0  0  0  0  0  0  0  0
    8.5516  -21.5620   17.2950 C   0  0  0  0  0  0  0  0  0  0  0  0
    8.1611  -21.3685   15.8849 C   0  0  0  0  0  0  0  0  0  0  0  0
    8.3509  -19.9063   15.5408 C   0  0  2  0  0  0  0  0  0  0  0  0
    8.0378  -19.7281   14.1365 N   0  0  0  0  0  0  0  0  0  0  0  0
    9.7551  -19.4740   15.7473 C   0  0  0  0  0  0  0  0  0  0  0  0
   10.7189  -20.0673   15.1549 O   0  0  0  0  0  0  0  0  0  0  0  0
    7.6426  -21.2712   18.2782 C   0  0  0  0  0  0  0  0  0  0  0  0
    7.9873  -21.4465   19.6196 C   0  0  0  0  0  0  0  0  0  0  0  0
   14.2428  -17.1631   16.5004 N   0  0  0  0  0  0  0  0  0  0  0  0
   13.2068  -16.4636   15.8262 C   0  0  0  0  0  0  0  0  0  0  0  0
   13.5178  -15.4410   15.1843 O   0  0  0  0  0  0  0  0  0  0  0  0
   11.8381  -16.9351   15.8913 C   0  0  0  0  0  0  0  0  0  0  0  0
   11.5194  -18.0199   16.8521 C   0  0  2  0  0  0  0  0  0  0  0  0
   10.1266  -18.4080   16.5870 N   0  0  0  0  0  0  0  0  0  0  0  0
   11.6190  -17.7167   18.2686 C   0  0  0  0  0  0  0  0  0  0  0  0
   10.8752  -16.8725   18.8098 O   0  0  0  0  0  0  0  0  0  0  0  0
   12.5650  -18.3568   19.1320 N   0  0  0  0  0  0  0  0  0  0  0  0
   12.9003  -17.8322   20.4304 C   0  0  1  0  0  0  0  0  0  0  0  0
   12.2786  -18.7382   21.4737 C   0  0  0  0  0  0  0  0  0  0  0  0
   11.5258  -17.7726   22.8152 S   0  0  0  0  0  0  0  0  0  0  0  0
   14.3520  -17.6911   20.6342 C   0  0  0  0  0  0  0  0  0  0  0  0
   15.1848  -18.1410   19.8173 O   0  0  0  0  0  0  0  0  0  0  0  0
   14.8155  -17.0425   21.7609 O   0  0  0  0  0  0  0  0  0  0  0  0
  1  2  1  0
  2 12  2  0
  3  4  2  0
  3  2  1  0
  4  5  1  0
  5  6  1  0
  5 11  2  0
  6  7  1  0
  7  8  1  6
  7  9  1  0
  9 10  2  0
 12 11  1  0
 13 14  1  0
 14 15  2  0
 16 14  1  0
 17 16  1  6
 17 19  1  0
 18  9  1  0
 18 17  1  0
 19 21  1  0
 20 19  2  0
 21 22  1  0
 22 25  1  0
 23 24  1  0
 22 23  1  1
 25 26  2  0
 25 27  1  0
M  END
$$$$
