YNC.pdb
     RDKit          3D

 27 27  0  0  1  0  0  0  0  0999 V2000
    7.7144  -11.5087   17.4231 O   0  0  0  0  0  0  0  0  0  0  0  0
    7.7553  -12.4221   18.4783 C   0  0  0  0  0  0  0  0  0  0  0  0
    8.9396  -12.7162   19.1085 C   0  0  0  0  0  0  0  0  0  0  0  0
    8.9513  -13.6224   20.1483 C   0  0  0  0  0  0  0  0  0  0  0  0
    7.8108  -14.2539   20.5881 C   0  0  0  0  0  0  0  0  0  0  0  0
    7.8006  -15.2257   21.6989 C   0  0  0  0  0  0  0  0  0  0  0  0
    8.2215  -16.5723   21.1494 C   0  0  2  0  0  0  0  0  0  0  0  0
    7.0248  -17.3102   20.7954 N   0  0  0  0  0  0  0  0  0  0  0  0
    8.9589  -17.3691   22.1608 C   0  0  0  0  0  0  0  0  0  0  0  0
    8.3390  -18.1397   22.9693 O   0  0  0  0  0  0  0  0  0  0  0  0
    6.6306  -13.9587   19.9577 C   0  0  0  0  0  0  0  0  0  0  0  0
    6.6135  -13.0422   18.9048 C   0  0  0  0  0  0  0  0  0  0  0  0
   14.8165  -19.0153   23.2172 N   0  0  0  0  0  0  0  0  0  0  0  0
   13.4313  -19.0524   23.5286 C   0  0  0  0  0  0  0  0  0  0  0  0
   13.0650  -19.7915   24.4635 O   0  0  0  0  0  0  0  0  0  0  0  0
   12.4868  -18.2521   22.7755 C   0  0  0  0  0  0  0  0  0  0  0  0
   11.0974  -18.1493   23.2859 C   0  0  2  0  0  0  0  0  0  0  0  0
   10.3580  -17.3406   22.3061 N   0  0  0  0  0  0  0  0  0  0  0  0
   10.9006  -17.5346   24.5867 C   0  0  0  0  0  0  0  0  0  0  0  0
   11.0692  -16.3102   24.7626 O   0  0  0  0  0  0  0  0  0  0  0  0
   10.5047  -18.2806   25.7429 N   0  0  0  0  0  0  0  0  0  0  0  0
   10.2781  -17.6572   27.0209 C   0  0  1  0  0  0  0  0  0  0  0  0
    9.1127  -16.7004   26.8726 C   0  0  0  0  0  0  0  0  0  0  0  0
    7.5734  -17.5936   26.5105 S   0  0  0  0  0  0  0  0  0  0  0  0
   10.0425  -18.6315   28.1001 C   0  0  0  0  0  0  0  0  0  0  0  0
    9.9528  -19.8589   27.8796 O   0  0  0  0  0  0  0  0  0  0  0  0
    9.9159  -18.1823   29.3989 O   0  0  0  0  0  0  0  0  0  0  0  0
  1  2  1  0
  2 12  2  0
  3  4  2  0
  3  2  1  0
  4  5  1  0
  5  6  1  0
  5 11  2  0
  6  7  1  0
  7  8  1  1
  7  9  1  0
  9 10  2  0
 12 11  1  0
 13 14  1  0
 14 15  2  0
 16 14  1  0
 17 16  1  6
 17 19  1  0
 18  9  1  0
 18 17  1  0
 19 21  1  0
 20 19  2  0
 21 22  1  0
 22 25  1  0
 23 24  1  0
 22 23  1  6
 25 26  2  0
 25 27  1  0
M  END
$$$$
