YNC.pdb
     RDKit          3D

 27 27  0  0  1  0  0  0  0  0999 V2000
    7.5664  -12.4102   18.0034 O   0  0  0  0  0  0  0  0  0  0  0  0
    7.7144  -13.0049   19.2580 C   0  0  0  0  0  0  0  0  0  0  0  0
    8.9565  -13.3540   19.7287 C   0  0  0  0  0  0  0  0  0  0  0  0
    9.0740  -13.9401   20.9718 C   0  0  0  0  0  0  0  0  0  0  0  0
    7.9843  -14.1940   21.7726 C   0  0  0  0  0  0  0  0  0  0  0  0
    8.0874  -14.8191   23.1055 C   0  0  0  0  0  0  0  0  0  0  0  0
    8.4681  -16.2722   22.9153 C   0  0  2  0  0  0  0  0  0  0  0  0
    7.2595  -17.0696   22.9893 N   0  0  0  0  0  0  0  0  0  0  0  0
    9.3833  -16.7420   23.9844 C   0  0  0  0  0  0  0  0  0  0  0  0
    8.9492  -17.4443   24.9592 O   0  0  0  0  0  0  0  0  0  0  0  0
    6.7462  -13.8448   21.3005 C   0  0  0  0  0  0  0  0  0  0  0  0
    6.6221  -13.2513   20.0431 C   0  0  0  0  0  0  0  0  0  0  0  0
   12.5701  -19.1438   22.8188 N   0  0  0  0  0  0  0  0  0  0  0  0
   13.0308  -17.8081   22.9630 C   0  0  0  0  0  0  0  0  0  0  0  0
   13.4526  -17.2252   21.9447 O   0  0  0  0  0  0  0  0  0  0  0  0
   13.0054  -17.1573   24.2574 C   0  0  0  0  0  0  0  0  0  0  0  0
   11.7042  -17.0611   24.9639 C   0  0  2  0  0  0  0  0  0  0  0  0
   10.7615  -16.4599   24.0097 N   0  0  0  0  0  0  0  0  0  0  0  0
   11.6532  -16.2655   26.1776 C   0  0  0  0  0  0  0  0  0  0  0  0
   12.4902  -16.4147   27.0920 O   0  0  0  0  0  0  0  0  0  0  0  0
   10.6523  -15.2677   26.4070 N   0  0  0  0  0  0  0  0  0  0  0  0
   10.5837  -14.5132   27.6316 C   0  0  1  0  0  0  0  0  0  0  0  0
    9.6812  -13.3197   27.3936 C   0  0  0  0  0  0  0  0  0  0  0  0
    7.9799  -13.8455   27.0364 S   0  0  0  0  0  0  0  0  0  0  0  0
   10.1235  -15.3183   28.7758 C   0  0  0  0  0  0  0  0  0  0  0  0
   10.1140  -14.8700   29.9430 O   0  0  0  0  0  0  0  0  0  0  0  0
    9.6872  -16.6098   28.5603 O   0  0  0  0  0  0  0  0  0  0  0  0
  1  2  1  0
  2 12  2  0
  3  4  2  0
  3  2  1  0
  4  5  1  0
  5  6  1  0
  5 11  2  0
  6  7  1  0
  7  8  1  1
  7  9  1  0
  9 10  2  0
 12 11  1  0
 13 14  1  0
 14 15  2  0
 16 14  1  0
 17 16  1  6
 17 19  1  0
 18  9  1  0
 18 17  1  0
 19 21  1  0
 20 19  2  0
 21 22  1  0
 22 25  1  0
 23 24  1  0
 22 23  1  6
 25 26  2  0
 25 27  1  0
M  END
$$$$
