YNC.pdb
     RDKit          3D

 27 27  0  0  1  0  0  0  0  0999 V2000
    7.6894  -12.3800   17.0880 O   0  0  0  0  0  0  0  0  0  0  0  0
    7.8265  -13.0046   18.3292 C   0  0  0  0  0  0  0  0  0  0  0  0
    6.7231  -13.4252   19.0307 C   0  0  0  0  0  0  0  0  0  0  0  0
    6.8874  -14.0395   20.2546 C   0  0  0  0  0  0  0  0  0  0  0  0
    8.1273  -14.2526   20.8115 C   0  0  0  0  0  0  0  0  0  0  0  0
    8.3258  -14.9084   22.1187 C   0  0  0  0  0  0  0  0  0  0  0  0
    8.8218  -16.3168   21.8677 C   0  0  2  0  0  0  0  0  0  0  0  0
    7.7586  -17.0623   21.2229 N   0  0  0  0  0  0  0  0  0  0  0  0
    9.1552  -17.0129   23.1348 C   0  0  0  0  0  0  0  0  0  0  0  0
    8.2358  -17.4727   23.8933 O   0  0  0  0  0  0  0  0  0  0  0  0
    9.2265  -13.8321   20.1096 C   0  0  0  0  0  0  0  0  0  0  0  0
    9.0655  -13.2097   18.8705 C   0  0  0  0  0  0  0  0  0  0  0  0
   13.2897  -18.8595   22.5819 N   0  0  0  0  0  0  0  0  0  0  0  0
   13.0352  -18.5614   23.9470 C   0  0  0  0  0  0  0  0  0  0  0  0
   13.9280  -17.9755   24.5906 O   0  0  0  0  0  0  0  0  0  0  0  0
   11.7747  -18.9323   24.5580 C   0  0  0  0  0  0  0  0  0  0  0  0
   10.8071  -17.8519   24.8712 C   0  0  2  0  0  0  0  0  0  0  0  0
   10.4711  -17.2162   23.5891 N   0  0  0  0  0  0  0  0  0  0  0  0
   11.2405  -16.7992   25.7725 C   0  0  0  0  0  0  0  0  0  0  0  0
   11.6988  -15.7199   25.3437 O   0  0  0  0  0  0  0  0  0  0  0  0
   11.1732  -16.9243   27.1973 N   0  0  0  0  0  0  0  0  0  0  0  0
   11.1159  -15.7795   28.0688 C   0  0  1  0  0  0  0  0  0  0  0  0
    9.9402  -14.9255   27.6396 C   0  0  0  0  0  0  0  0  0  0  0  0
    9.8124  -13.4272   28.6579 S   0  0  0  0  0  0  0  0  0  0  0  0
   11.0250  -16.1468   29.4922 C   0  0  0  0  0  0  0  0  0  0  0  0
   10.5540  -17.2427   29.8672 O   0  0  0  0  0  0  0  0  0  0  0  0
   11.4723  -15.2578   30.4485 O   0  0  0  0  0  0  0  0  0  0  0  0
  1  2  1  0
  2 12  2  0
  3  4  2  0
  3  2  1  0
  4  5  1  0
  5  6  1  0
  5 11  2  0
  6  7  1  0
  7  8  1  1
  7  9  1  0
  9 10  2  0
 12 11  1  0
 13 14  1  0
 14 15  2  0
 16 14  1  0
 17 16  1  6
 17 19  1  0
 18  9  1  0
 18 17  1  0
 19 21  1  0
 20 19  2  0
 21 22  1  0
 22 25  1  0
 23 24  1  0
 22 23  1  6
 25 26  2  0
 25 27  1  0
M  END
$$$$
