YNC.pdb
     RDKit          3D

 27 27  0  0  1  0  0  0  0  0999 V2000
    5.6030  -14.3525   20.8636 O   0  0  0  0  0  0  0  0  0  0  0  0
    6.8867  -14.0170   20.4286 C   0  0  0  0  0  0  0  0  0  0  0  0
    7.1023  -13.5790   19.1449 C   0  0  0  0  0  0  0  0  0  0  0  0
    8.3807  -13.2542   18.7417 C   0  0  0  0  0  0  0  0  0  0  0  0
    9.4655  -13.3514   19.5823 C   0  0  0  0  0  0  0  0  0  0  0  0
   10.8411  -13.0084   19.1719 C   0  0  0  0  0  0  0  0  0  0  0  0
   11.3801  -14.1488   18.3344 C   0  0  2  0  0  0  0  0  0  0  0  0
   10.5019  -14.3271   17.1947 N   0  0  0  0  0  0  0  0  0  0  0  0
   11.3972  -15.4237   19.0933 C   0  0  0  0  0  0  0  0  0  0  0  0
   10.4876  -16.3037   18.9197 O   0  0  0  0  0  0  0  0  0  0  0  0
    9.2476  -13.7886   20.8626 C   0  0  0  0  0  0  0  0  0  0  0  0
    7.9556  -14.1186   21.2755 C   0  0  0  0  0  0  0  0  0  0  0  0
   13.5736  -19.1739   18.3522 N   0  0  0  0  0  0  0  0  0  0  0  0
   13.8693  -17.9261   18.9627 C   0  0  0  0  0  0  0  0  0  0  0  0
   14.3273  -17.0191   18.2401 O   0  0  0  0  0  0  0  0  0  0  0  0
   13.6409  -17.7285   20.3800 C   0  0  0  0  0  0  0  0  0  0  0  0
   12.4079  -17.0148   20.7946 C   0  0  2  0  0  0  0  0  0  0  0  0
   12.3869  -15.7556   20.0366 N   0  0  0  0  0  0  0  0  0  0  0  0
   12.2662  -16.6736   22.1989 C   0  0  0  0  0  0  0  0  0  0  0  0
   13.0568  -15.8895   22.7635 O   0  0  0  0  0  0  0  0  0  0  0  0
   11.2234  -17.2061   23.0229 N   0  0  0  0  0  0  0  0  0  0  0  0
   11.1733  -16.9792   24.4440 C   0  0  1  0  0  0  0  0  0  0  0  0
    9.7198  -17.0136   24.8704 C   0  0  0  0  0  0  0  0  0  0  0  0
    8.7882  -15.6393   24.1341 S   0  0  0  0  0  0  0  0  0  0  0  0
   11.9827  -17.9443   25.2074 C   0  0  0  0  0  0  0  0  0  0  0  0
   12.5148  -18.9390   24.6682 O   0  0  0  0  0  0  0  0  0  0  0  0
   12.1640  -17.7508   26.5618 O   0  0  0  0  0  0  0  0  0  0  0  0
  1  2  1  0
  2 12  2  0
  3  4  2  0
  3  2  1  0
  4  5  1  0
  5  6  1  0
  5 11  2  0
  6  7  1  0
  7  8  1  6
  7  9  1  0
  9 10  2  0
 12 11  1  0
 13 14  1  0
 14 15  2  0
 16 14  1  0
 17 16  1  1
 17 19  1  0
 18  9  1  0
 18 17  1  0
 19 21  1  0
 20 19  2  0
 21 22  1  0
 22 25  1  0
 23 24  1  0
 22 23  1  1
 25 26  2  0
 25 27  1  0
M  END
$$$$
