YNC.pdb
     RDKit          3D

 27 27  0  0  1  0  0  0  0  0999 V2000
    6.2556  -10.7857   27.3780 O   0  0  0  0  0  0  0  0  0  0  0  0
    6.6289  -12.0317   26.8703 C   0  0  0  0  0  0  0  0  0  0  0  0
    6.2663  -12.4115   25.6013 C   0  0  0  0  0  0  0  0  0  0  0  0
    6.6486  -13.6481   25.1249 C   0  0  0  0  0  0  0  0  0  0  0  0
    7.3887  -14.5309   25.8772 C   0  0  0  0  0  0  0  0  0  0  0  0
    7.8090  -15.8580   25.3870 C   0  0  0  0  0  0  0  0  0  0  0  0
    9.2668  -15.7716   24.9873 C   0  0  2  0  0  0  0  0  0  0  0  0
    9.4402  -14.5921   24.1623 N   0  0  0  0  0  0  0  0  0  0  0  0
    9.6842  -16.9476   24.1846 C   0  0  0  0  0  0  0  0  0  0  0  0
    9.5870  -18.1315   24.6543 O   0  0  0  0  0  0  0  0  0  0  0  0
    7.7492  -14.1495   27.1430 C   0  0  0  0  0  0  0  0  0  0  0  0
    7.3647  -12.8989   27.6298 C   0  0  0  0  0  0  0  0  0  0  0  0
   10.2601  -18.9670   18.6548 N   0  0  0  0  0  0  0  0  0  0  0  0
    9.9690  -19.2291   20.0201 C   0  0  0  0  0  0  0  0  0  0  0  0
    9.9081  -20.4202   20.3835 O   0  0  0  0  0  0  0  0  0  0  0  0
    9.7524  -18.1376   20.9483 C   0  0  0  0  0  0  0  0  0  0  0  0
   10.6759  -18.0104   22.1026 C   0  0  2  0  0  0  0  0  0  0  0  0
   10.2049  -16.8557   22.8808 N   0  0  0  0  0  0  0  0  0  0  0  0
   12.0833  -17.7926   21.8192 C   0  0  0  0  0  0  0  0  0  0  0  0
   12.6253  -18.2670   20.7995 O   0  0  0  0  0  0  0  0  0  0  0  0
   12.9362  -17.0284   22.6788 N   0  0  0  0  0  0  0  0  0  0  0  0
   14.0753  -16.3001   22.1835 C   0  0  1  0  0  0  0  0  0  0  0  0
   13.5788  -15.2965   21.1627 C   0  0  0  0  0  0  0  0  0  0  0  0
   14.9479  -14.3044   20.4996 S   0  0  0  0  0  0  0  0  0  0  0  0
   14.8463  -15.6449   23.2537 C   0  0  0  0  0  0  0  0  0  0  0  0
   14.4023  -15.5280   24.4168 O   0  0  0  0  0  0  0  0  0  0  0  0
   16.0999  -15.1416   22.9713 O   0  0  0  0  0  0  0  0  0  0  0  0
  1  2  1  0
  2 12  2  0
  3  4  2  0
  3  2  1  0
  4  5  1  0
  5  6  1  0
  5 11  2  0
  6  7  1  0
  7  8  1  6
  7  9  1  0
  9 10  2  0
 12 11  1  0
 13 14  1  0
 14 15  2  0
 16 14  1  0
 17 16  1  6
 17 19  1  0
 18  9  1  0
 18 17  1  0
 19 21  1  0
 20 19  2  0
 21 22  1  0
 22 25  1  0
 23 24  1  0
 22 23  1  6
 25 26  2  0
 25 27  1  0
M  END
$$$$
