NDV.pdb
     RDKit          3D

 24 23  0  0  1  0  0  0  0  0999 V2000
   18.0102  -21.0461  -14.0339 N   0  0  0  0  0  0  0  0  0  0  0  0
   17.9840  -21.5408  -12.7146 C   0  0  0  0  0  0  0  0  0  0  0  0
   17.0079  -22.1978  -12.3197 O   0  0  0  0  0  0  0  0  0  0  0  0
   19.1235  -21.2717  -11.8104 C   0  0  0  0  0  0  0  0  0  0  0  0
   20.2269  -20.5106  -12.5173 C   0  0  2  0  0  0  0  0  0  0  0  0
   19.8496  -20.4215  -13.9132 N   0  0  0  0  0  0  0  0  0  0  0  0
   21.5258  -21.1682  -12.4146 C   0  0  0  0  0  0  0  0  0  0  0  0
   22.0379  -21.3920  -11.2922 O   0  0  0  0  0  0  0  0  0  0  0  0
   22.2888  -21.5940  -13.5622 N   0  0  0  0  0  0  0  0  0  0  0  0
   23.6378  -22.0668  -13.4502 C   0  0  1  0  0  0  0  0  0  0  0  0
   24.0112  -22.8331  -14.6906 C   0  0  0  0  0  0  0  0  0  0  0  0
   24.0264  -24.2959  -14.5155 C   0  0  0  0  0  0  0  0  0  0  0  0
   23.8027  -24.7808  -13.3876 O   0  0  0  0  0  0  0  0  0  0  0  0
   24.6102  -21.0182  -13.1125 C   0  0  0  0  0  0  0  0  0  0  0  0
   24.3718  -19.8537  -13.5276 O   0  0  0  0  0  0  0  0  0  0  0  0
   24.2834  -25.1376  -15.5738 O   0  0  0  0  0  0  0  0  0  0  0  0
   26.9179  -20.7398   -9.7060 C   0  0  0  0  0  0  0  0  0  0  0  0
   27.6707  -20.4181  -10.9820 C   0  0  1  0  0  0  0  0  0  0  0  0
   28.4717  -21.6559  -11.3289 C   0  0  0  0  0  0  0  0  0  0  0  0
   26.7179  -20.1593  -12.0971 C   0  0  2  0  0  0  0  0  0  0  0  0
   25.7819  -21.1976  -12.3681 N   0  0  0  0  0  0  0  0  0  0  0  0
   27.4910  -19.8869  -13.3350 C   0  0  0  0  0  0  0  0  0  0  0  0
   27.6240  -20.7892  -14.2313 O   0  0  0  0  0  0  0  0  0  0  0  0
   28.1121  -18.6824  -13.6209 O   0  0  0  0  0  0  0  0  0  0  0  0
  2  1  1  0
  2  4  1  0
  3  2  2  0
  5  4  1  0
  5  7  1  0
  5  6  1  6
  7  9  1  0
  7  8  2  0
  9 10  1  0
 10 14  1  0
 10 11  1  6
 12 13  2  0
 12 11  1  0
 14 21  1  0
 14 15  2  0
 16 12  1  0
 18 20  1  0
 18 17  1  1
 19 18  1  0
 20 22  1  0
 20 21  1  6
 22 24  1  0
 23 22  2  0
M  END
$$$$
