NDV.pdb
     RDKit          3D

 24 23  0  0  1  0  0  0  0  0999 V2000
   26.2035  -11.0924  -19.3613 N   0  0  0  0  0  0  0  0  0  0  0  0
   24.9724  -11.3531  -19.9955 C   0  0  0  0  0  0  0  0  0  0  0  0
   24.8137  -12.4094  -20.6275 O   0  0  0  0  0  0  0  0  0  0  0  0
   23.8777  -10.3625  -19.9015 C   0  0  0  0  0  0  0  0  0  0  0  0
   22.6231  -10.9741  -19.3115 C   0  0  2  0  0  0  0  0  0  0  0  0
   21.8216  -11.4454  -20.4226 N   0  0  0  0  0  0  0  0  0  0  0  0
   21.8414  -10.0220  -18.5286 C   0  0  0  0  0  0  0  0  0  0  0  0
   21.1112   -9.1778  -19.0996 O   0  0  0  0  0  0  0  0  0  0  0  0
   21.8537   -9.9864  -17.0868 N   0  0  0  0  0  0  0  0  0  0  0  0
   21.0914   -9.0289  -16.3397 C   0  0  1  0  0  0  0  0  0  0  0  0
   20.2482   -9.7399  -15.3156 C   0  0  0  0  0  0  0  0  0  0  0  0
   19.0937  -10.4613  -15.8790 C   0  0  0  0  0  0  0  0  0  0  0  0
   19.1885  -11.6835  -16.1121 O   0  0  0  0  0  0  0  0  0  0  0  0
   21.8983   -7.9452  -15.7621 C   0  0  0  0  0  0  0  0  0  0  0  0
   22.9844   -8.2644  -15.2107 O   0  0  0  0  0  0  0  0  0  0  0  0
   17.9119   -9.8110  -16.1532 O   0  0  0  0  0  0  0  0  0  0  0  0
   21.4006   -3.8506  -16.8147 C   0  0  0  0  0  0  0  0  0  0  0  0
   22.7078   -4.4806  -16.3754 C   0  0  1  0  0  0  0  0  0  0  0  0
   23.5068   -3.3827  -15.7044 C   0  0  0  0  0  0  0  0  0  0  0  0
   22.4578   -5.5489  -15.3682 C   0  0  2  0  0  0  0  0  0  0  0  0
   21.5677   -6.5852  -15.7696 N   0  0  0  0  0  0  0  0  0  0  0  0
   21.9272   -4.9254  -14.1296 C   0  0  0  0  0  0  0  0  0  0  0  0
   20.6815   -4.9936  -13.8486 O   0  0  0  0  0  0  0  0  0  0  0  0
   22.6990   -4.2425  -13.2042 O   0  0  0  0  0  0  0  0  0  0  0  0
  2  1  1  0
  2  4  1  0
  3  2  2  0
  5  4  1  0
  5  7  1  0
  5  6  1  6
  7  9  1  0
  7  8  2  0
  9 10  1  0
 10 14  1  0
 10 11  1  1
 12 13  2  0
 12 11  1  0
 14 21  1  0
 14 15  2  0
 16 12  1  0
 18 20  1  0
 18 17  1  1
 19 18  1  0
 20 22  1  0
 20 21  1  6
 22 24  1  0
 23 22  2  0
M  END
$$$$
