NDV.pdb
     RDKit          3D

 24 23  0  0  1  0  0  0  0  0999 V2000
   27.8749  -17.8480  -15.2171 N   0  0  0  0  0  0  0  0  0  0  0  0
   27.9197  -19.1369  -15.7851 C   0  0  0  0  0  0  0  0  0  0  0  0
   29.0021  -19.7383  -15.8694 O   0  0  0  0  0  0  0  0  0  0  0  0
   26.6726  -19.7627  -16.2767 C   0  0  0  0  0  0  0  0  0  0  0  0
   25.4573  -18.9249  -15.9341 C   0  0  2  0  0  0  0  0  0  0  0  0
   25.7158  -17.5869  -16.4260 N   0  0  0  0  0  0  0  0  0  0  0  0
   25.1958  -18.8642  -14.4994 C   0  0  0  0  0  0  0  0  0  0  0  0
   24.9705  -17.7647  -13.9405 O   0  0  0  0  0  0  0  0  0  0  0  0
   25.1787  -20.0293  -13.6494 N   0  0  0  0  0  0  0  0  0  0  0  0
   24.5115  -20.0395  -12.3803 C   0  0  1  0  0  0  0  0  0  0  0  0
   23.2572  -20.8660  -12.4735 C   0  0  0  0  0  0  0  0  0  0  0  0
   22.0539  -20.1999  -11.9454 C   0  0  0  0  0  0  0  0  0  0  0  0
   22.1339  -19.0238  -11.5360 O   0  0  0  0  0  0  0  0  0  0  0  0
   25.3733  -20.4341  -11.2575 C   0  0  0  0  0  0  0  0  0  0  0  0
   26.2117  -21.3499  -11.4668 O   0  0  0  0  0  0  0  0  0  0  0  0
   20.8427  -20.8518  -11.8949 O   0  0  0  0  0  0  0  0  0  0  0  0
   27.3893  -19.8436   -6.7962 C   0  0  0  0  0  0  0  0  0  0  0  0
   26.3748  -19.3259   -7.7969 C   0  0  1  0  0  0  0  0  0  0  0  0
   26.9578  -18.0541   -8.3771 C   0  0  0  0  0  0  0  0  0  0  0  0
   26.1975  -20.3000   -8.9094 C   0  0  2  0  0  0  0  0  0  0  0  0
   25.3464  -19.8820   -9.9717 N   0  0  0  0  0  0  0  0  0  0  0  0
   25.6681  -21.5711   -8.3539 C   0  0  0  0  0  0  0  0  0  0  0  0
   24.4207  -21.8432   -8.4252 O   0  0  0  0  0  0  0  0  0  0  0  0
   26.4431  -22.5377   -7.7346 O   0  0  0  0  0  0  0  0  0  0  0  0
  2  1  1  0
  2  4  1  0
  3  2  2  0
  5  4  1  0
  5  7  1  0
  5  6  1  1
  7  9  1  0
  7  8  2  0
  9 10  1  0
 10 14  1  0
 10 11  1  6
 12 13  2  0
 12 11  1  0
 14 21  1  0
 14 15  2  0
 16 12  1  0
 18 20  1  0
 18 17  1  1
 19 18  1  0
 20 22  1  0
 20 21  1  6
 22 24  1  0
 23 22  2  0
M  END
$$$$
