NDV.pdb
     RDKit          3D

 24 23  0  0  1  0  0  0  0  0999 V2000
   14.1585  -14.6783  -14.2455 N   0  0  0  0  0  0  0  0  0  0  0  0
   14.8326  -15.0267  -15.4329 C   0  0  0  0  0  0  0  0  0  0  0  0
   14.6990  -16.1651  -15.9088 O   0  0  0  0  0  0  0  0  0  0  0  0
   15.6956  -14.0292  -16.1029 C   0  0  0  0  0  0  0  0  0  0  0  0
   15.7137  -12.7142  -15.3501 C   0  0  2  0  0  0  0  0  0  0  0  0
   14.4174  -12.0980  -15.5475 N   0  0  0  0  0  0  0  0  0  0  0  0
   16.7522  -11.8039  -15.8226 C   0  0  0  0  0  0  0  0  0  0  0  0
   17.7063  -12.2323  -16.5141 O   0  0  0  0  0  0  0  0  0  0  0  0
   16.7540  -10.3903  -15.5358 N   0  0  0  0  0  0  0  0  0  0  0  0
   17.7434   -9.5029  -16.0739 C   0  0  1  0  0  0  0  0  0  0  0  0
   17.0701   -8.3044  -16.6867 C   0  0  0  0  0  0  0  0  0  0  0  0
   18.0005   -7.3129  -17.2541 C   0  0  0  0  0  0  0  0  0  0  0  0
   18.9946   -7.7038  -17.8992 O   0  0  0  0  0  0  0  0  0  0  0  0
   18.7991   -9.1386  -15.1189 C   0  0  0  0  0  0  0  0  0  0  0  0
   18.4401   -8.8164  -13.9559 O   0  0  0  0  0  0  0  0  0  0  0  0
   17.7931   -5.9627  -17.0851 O   0  0  0  0  0  0  0  0  0  0  0  0
   22.0583  -11.0644  -14.2005 C   0  0  0  0  0  0  0  0  0  0  0  0
   22.3995   -9.6064  -14.4378 C   0  0  1  0  0  0  0  0  0  0  0  0
   23.0001   -9.5287  -15.8260 C   0  0  0  0  0  0  0  0  0  0  0  0
   21.1644   -8.7741  -14.4237 C   0  0  2  0  0  0  0  0  0  0  0  0
   20.1728   -9.1173  -15.3862 N   0  0  0  0  0  0  0  0  0  0  0  0
   21.5421   -7.3521  -14.6228 C   0  0  0  0  0  0  0  0  0  0  0  0
   22.2387   -6.7347  -13.7460 O   0  0  0  0  0  0  0  0  0  0  0  0
   21.1906   -6.5962  -15.7288 O   0  0  0  0  0  0  0  0  0  0  0  0
  2  1  1  0
  2  4  1  0
  3  2  2  0
  5  4  1  0
  5  7  1  0
  5  6  1  6
  7  9  1  0
  7  8  2  0
  9 10  1  0
 10 14  1  0
 10 11  1  1
 12 13  2  0
 12 11  1  0
 14 21  1  0
 14 15  2  0
 16 12  1  0
 18 20  1  0
 18 17  1  6
 19 18  1  0
 20 22  1  0
 20 21  1  6
 22 24  1  0
 23 22  2  0
M  END
$$$$
