NDV.pdb
     RDKit          3D

 24 23  0  0  1  0  0  0  0  0999 V2000
   15.3704  -13.7247  -14.9754 N   0  0  0  0  0  0  0  0  0  0  0  0
   15.2621  -12.3197  -14.9704 C   0  0  0  0  0  0  0  0  0  0  0  0
   14.1568  -11.7853  -14.7886 O   0  0  0  0  0  0  0  0  0  0  0  0
   16.4703  -11.4928  -15.1823 C   0  0  0  0  0  0  0  0  0  0  0  0
   16.3437  -10.6303  -16.4218 C   0  0  2  0  0  0  0  0  0  0  0  0
   16.5008  -11.5080  -17.5636 N   0  0  0  0  0  0  0  0  0  0  0  0
   17.3525   -9.5774  -16.4862 C   0  0  0  0  0  0  0  0  0  0  0  0
   18.5069   -9.8282  -16.9065 O   0  0  0  0  0  0  0  0  0  0  0  0
   17.1002   -8.2157  -16.0832 N   0  0  0  0  0  0  0  0  0  0  0  0
   18.0964   -7.1901  -16.1908 C   0  0  1  0  0  0  0  0  0  0  0  0
   17.4297   -5.8450  -16.2988 C   0  0  0  0  0  0  0  0  0  0  0  0
   18.3653   -4.7176  -16.4543 C   0  0  0  0  0  0  0  0  0  0  0  0
   18.5270   -3.9200  -15.5083 O   0  0  0  0  0  0  0  0  0  0  0  0
   19.1173   -7.2382  -15.1352 C   0  0  0  0  0  0  0  0  0  0  0  0
   18.7222   -7.4495  -13.9584 O   0  0  0  0  0  0  0  0  0  0  0  0
   19.0642   -4.5279  -17.6248 O   0  0  0  0  0  0  0  0  0  0  0  0
   23.3277   -8.6852  -13.4189 C   0  0  0  0  0  0  0  0  0  0  0  0
   22.4470   -8.4105  -14.6220 C   0  0  1  0  0  0  0  0  0  0  0  0
   21.6704   -9.6844  -14.8827 C   0  0  0  0  0  0  0  0  0  0  0  0
   21.4688   -7.3302  -14.3149 C   0  0  2  0  0  0  0  0  0  0  0  0
   20.4945   -7.0700  -15.3201 N   0  0  0  0  0  0  0  0  0  0  0  0
   22.2118   -6.0739  -14.0423 C   0  0  0  0  0  0  0  0  0  0  0  0
   22.2752   -5.1507  -14.9248 O   0  0  0  0  0  0  0  0  0  0  0  0
   22.8754   -5.7980  -12.8583 O   0  0  0  0  0  0  0  0  0  0  0  0
  2  1  1  0
  2  4  1  0
  3  2  2  0
  5  4  1  0
  5  7  1  0
  5  6  1  6
  7  9  1  0
  7  8  2  0
  9 10  1  0
 10 14  1  0
 10 11  1  1
 12 13  2  0
 12 11  1  0
 14 21  1  0
 14 15  2  0
 16 12  1  0
 18 20  1  0
 18 17  1  1
 19 18  1  0
 20 22  1  0
 20 21  1  6
 22 24  1  0
 23 22  2  0
M  END
$$$$
