NDV.pdb
     RDKit          3D

 24 23  0  0  1  0  0  0  0  0999 V2000
   20.5097  -14.0182  -19.7998 N   0  0  0  0  0  0  0  0  0  0  0  0
   20.8567  -13.3504  -18.6083 C   0  0  0  0  0  0  0  0  0  0  0  0
   21.5581  -13.9235  -17.7599 O   0  0  0  0  0  0  0  0  0  0  0  0
   20.3802  -11.9686  -18.3797 C   0  0  0  0  0  0  0  0  0  0  0  0
   20.0407  -11.7314  -16.9220 C   0  0  2  0  0  0  0  0  0  0  0  0
   18.8422  -12.4946  -16.6391 N   0  0  0  0  0  0  0  0  0  0  0  0
   19.7944  -10.3252  -16.6181 C   0  0  0  0  0  0  0  0  0  0  0  0
   19.5008   -9.5193  -17.5326 O   0  0  0  0  0  0  0  0  0  0  0  0
   19.8693   -9.7802  -15.2848 N   0  0  0  0  0  0  0  0  0  0  0  0
   19.5139   -8.4219  -14.9936 C   0  0  1  0  0  0  0  0  0  0  0  0
   18.3140   -8.3953  -14.0855 C   0  0  0  0  0  0  0  0  0  0  0  0
   17.0992   -8.9881  -14.6718 C   0  0  0  0  0  0  0  0  0  0  0  0
   16.6488   -8.5307  -15.7419 O   0  0  0  0  0  0  0  0  0  0  0  0
   20.6296   -7.6093  -14.4895 C   0  0  0  0  0  0  0  0  0  0  0  0
   21.3679   -8.1243  -13.6091 O   0  0  0  0  0  0  0  0  0  0  0  0
   16.4517  -10.0373  -14.0600 O   0  0  0  0  0  0  0  0  0  0  0  0
   23.3265   -5.6745  -16.5515 C   0  0  0  0  0  0  0  0  0  0  0  0
   22.8042   -4.7769  -15.4470 C   0  0  1  0  0  0  0  0  0  0  0  0
   21.8144   -3.8322  -16.0965 C   0  0  0  0  0  0  0  0  0  0  0  0
   22.0732   -5.5789  -14.4268 C   0  0  2  0  0  0  0  0  0  0  0  0
   20.9471   -6.3099  -14.9012 N   0  0  0  0  0  0  0  0  0  0  0  0
   21.6237   -4.6748  -13.3382 C   0  0  0  0  0  0  0  0  0  0  0  0
   20.3810   -4.4230  -13.1727 O   0  0  0  0  0  0  0  0  0  0  0  0
   22.4721   -4.0485  -12.4403 O   0  0  0  0  0  0  0  0  0  0  0  0
  2  1  1  0
  2  4  1  0
  3  2  2  0
  5  4  1  0
  5  7  1  0
  5  6  1  6
  7  9  1  0
  7  8  2  0
  9 10  1  0
 10 14  1  0
 10 11  1  1
 12 13  2  0
 12 11  1  0
 14 21  1  0
 14 15  2  0
 16 12  1  0
 18 20  1  0
 18 17  1  6
 19 18  1  0
 20 22  1  0
 20 21  1  6
 22 24  1  0
 23 22  2  0
M  END
$$$$
