NDV.pdb
     RDKit          3D

 24 23  0  0  1  0  0  0  0  0999 V2000
   19.4407  -19.4508  -15.1212 N   0  0  0  0  0  0  0  0  0  0  0  0
   20.3577  -20.2914  -15.7832 C   0  0  0  0  0  0  0  0  0  0  0  0
   20.2463  -20.4888  -17.0034 O   0  0  0  0  0  0  0  0  0  0  0  0
   21.4477  -20.9322  -15.0152 C   0  0  0  0  0  0  0  0  0  0  0  0
   22.4504  -19.9118  -14.5153 C   0  0  2  0  0  0  0  0  0  0  0  0
   23.1321  -19.3854  -15.6803 N   0  0  0  0  0  0  0  0  0  0  0  0
   23.4357  -20.4839  -13.6031 C   0  0  0  0  0  0  0  0  0  0  0  0
   23.0719  -21.2158  -12.6523 O   0  0  0  0  0  0  0  0  0  0  0  0
   24.8543  -20.2546  -13.7274 N   0  0  0  0  0  0  0  0  0  0  0  0
   25.8017  -20.8099  -12.8054 C   0  0  1  0  0  0  0  0  0  0  0  0
   27.1660  -20.8451  -13.4400 C   0  0  0  0  0  0  0  0  0  0  0  0
   27.2477  -21.6803  -14.6510 C   0  0  0  0  0  0  0  0  0  0  0  0
   26.4723  -22.6494  -14.7811 O   0  0  0  0  0  0  0  0  0  0  0  0
   25.8015  -20.1599  -11.4876 C   0  0  0  0  0  0  0  0  0  0  0  0
   25.5581  -18.9250  -11.4525 O   0  0  0  0  0  0  0  0  0  0  0  0
   28.1646  -21.4111  -15.6417 O   0  0  0  0  0  0  0  0  0  0  0  0
   25.7333  -22.0233   -7.4766 C   0  0  0  0  0  0  0  0  0  0  0  0
   25.1870  -20.6911   -7.9515 C   0  0  1  0  0  0  0  0  0  0  0  0
   25.2270  -19.7624   -6.7558 C   0  0  0  0  0  0  0  0  0  0  0  0
   26.0637  -20.1167   -9.0097 C   0  0  2  0  0  0  0  0  0  0  0  0
   26.0483  -20.7917  -10.2633 N   0  0  0  0  0  0  0  0  0  0  0  0
   27.4611  -20.0841   -8.5091 C   0  0  0  0  0  0  0  0  0  0  0  0
   28.3325  -20.9054   -8.9577 O   0  0  0  0  0  0  0  0  0  0  0  0
   27.9294  -19.1992   -7.5521 O   0  0  0  0  0  0  0  0  0  0  0  0
  2  1  1  0
  2  4  1  0
  3  2  2  0
  5  4  1  0
  5  7  1  0
  5  6  1  6
  7  9  1  0
  7  8  2  0
  9 10  1  0
 10 14  1  0
 10 11  1  6
 12 13  2  0
 12 11  1  0
 14 21  1  0
 14 15  2  0
 16 12  1  0
 18 20  1  0
 18 17  1  1
 19 18  1  0
 20 22  1  0
 20 21  1  6
 22 24  1  0
 23 22  2  0
M  END
$$$$
