NDV.pdb
     RDKit          3D

 24 23  0  0  1  0  0  0  0  0999 V2000
   18.8005  -17.0096  -16.1313 N   0  0  0  0  0  0  0  0  0  0  0  0
   18.8030  -15.7964  -16.8483 C   0  0  0  0  0  0  0  0  0  0  0  0
   17.9476  -15.5941  -17.7245 O   0  0  0  0  0  0  0  0  0  0  0  0
   19.8279  -14.7726  -16.5487 C   0  0  0  0  0  0  0  0  0  0  0  0
   20.4630  -14.2342  -17.8149 C   0  0  2  0  0  0  0  0  0  0  0  0
   21.3773  -15.2513  -18.2929 N   0  0  0  0  0  0  0  0  0  0  0  0
   21.2003  -12.9935  -17.5969 C   0  0  0  0  0  0  0  0  0  0  0  0
   22.2962  -13.0041  -16.9878 O   0  0  0  0  0  0  0  0  0  0  0  0
   20.7343  -11.7069  -18.0529 N   0  0  0  0  0  0  0  0  0  0  0  0
   21.4953  -10.5069  -17.8615 C   0  0  1  0  0  0  0  0  0  0  0  0
   22.0392  -10.0352  -19.1832 C   0  0  0  0  0  0  0  0  0  0  0  0
   22.8013   -8.7765  -19.1084 C   0  0  0  0  0  0  0  0  0  0  0  0
   23.5008   -8.5420  -18.1020 O   0  0  0  0  0  0  0  0  0  0  0  0
   20.7744   -9.4545  -17.1322 C   0  0  0  0  0  0  0  0  0  0  0  0
   19.6804   -9.0618  -17.6162 O   0  0  0  0  0  0  0  0  0  0  0  0
   22.7553   -7.8540  -20.1289 O   0  0  0  0  0  0  0  0  0  0  0  0
   19.0310   -9.5096  -14.0207 C   0  0  0  0  0  0  0  0  0  0  0  0
   19.9336   -8.2981  -13.8937 C   0  0  1  0  0  0  0  0  0  0  0  0
   21.1248   -8.7377  -13.0680 C   0  0  0  0  0  0  0  0  0  0  0  0
   20.4319   -7.8779  -15.2328 C   0  0  2  0  0  0  0  0  0  0  0  0
   21.1955   -8.8468  -15.9437 N   0  0  0  0  0  0  0  0  0  0  0  0
   21.2551   -6.6523  -15.0751 C   0  0  0  0  0  0  0  0  0  0  0  0
   20.7362   -5.5728  -14.6272 O   0  0  0  0  0  0  0  0  0  0  0  0
   22.6025   -6.5691  -15.3847 O   0  0  0  0  0  0  0  0  0  0  0  0
  2  1  1  0
  2  4  1  0
  3  2  2  0
  5  4  1  0
  5  7  1  0
  5  6  1  1
  7  9  1  0
  7  8  2  0
  9 10  1  0
 10 14  1  0
 10 11  1  6
 12 13  2  0
 12 11  1  0
 14 21  1  0
 14 15  2  0
 16 12  1  0
 18 20  1  0
 18 17  1  6
 19 18  1  0
 20 22  1  0
 20 21  1  1
 22 24  1  0
 23 22  2  0
M  END
$$$$
