NDV.pdb
     RDKit          3D

 24 23  0  0  1  0  0  0  0  0999 V2000
   13.6171  -11.5334  -14.4507 N   0  0  0  0  0  0  0  0  0  0  0  0
   14.8813  -11.7482  -13.8664 C   0  0  0  0  0  0  0  0  0  0  0  0
   15.0372  -12.6714  -13.0516 O   0  0  0  0  0  0  0  0  0  0  0  0
   16.0139  -10.8690  -14.2308 C   0  0  0  0  0  0  0  0  0  0  0  0
   15.5850   -9.7793  -15.1925 C   0  0  2  0  0  0  0  0  0  0  0  0
   15.3864  -10.4095  -16.4818 N   0  0  0  0  0  0  0  0  0  0  0  0
   16.5780   -8.7181  -15.3274 C   0  0  0  0  0  0  0  0  0  0  0  0
   17.5631   -8.8627  -16.0895 O   0  0  0  0  0  0  0  0  0  0  0  0
   16.4985   -7.4665  -14.6150 N   0  0  0  0  0  0  0  0  0  0  0  0
   17.4320   -6.4008  -14.8363 C   0  0  1  0  0  0  0  0  0  0  0  0
   16.7355   -5.0759  -14.6793 C   0  0  0  0  0  0  0  0  0  0  0  0
   15.7611   -4.7757  -15.7428 C   0  0  0  0  0  0  0  0  0  0  0  0
   14.5406   -4.8708  -15.5009 O   0  0  0  0  0  0  0  0  0  0  0  0
   18.6547   -6.5026  -14.0276 C   0  0  0  0  0  0  0  0  0  0  0  0
   18.5150   -6.6808  -12.7891 O   0  0  0  0  0  0  0  0  0  0  0  0
   16.1729   -4.3925  -16.9991 O   0  0  0  0  0  0  0  0  0  0  0  0
   23.1690   -7.8915  -13.1625 C   0  0  0  0  0  0  0  0  0  0  0  0
   22.0623   -7.6788  -14.1767 C   0  0  1  0  0  0  0  0  0  0  0  0
   21.2971   -8.9836  -14.2538 C   0  0  0  0  0  0  0  0  0  0  0  0
   21.1234   -6.6219  -13.7083 C   0  0  2  0  0  0  0  0  0  0  0  0
   19.9653   -6.4191  -14.5115 N   0  0  0  0  0  0  0  0  0  0  0  0
   21.8594   -5.3362  -13.6094 C   0  0  0  0  0  0  0  0  0  0  0  0
   21.6754   -4.4126  -14.4744 O   0  0  0  0  0  0  0  0  0  0  0  0
   22.7731   -5.0318  -12.6140 O   0  0  0  0  0  0  0  0  0  0  0  0
  2  1  1  0
  2  4  1  0
  3  2  2  0
  5  4  1  0
  5  7  1  0
  5  6  1  6
  7  9  1  0
  7  8  2  0
  9 10  1  0
 10 14  1  0
 10 11  1  1
 12 13  2  0
 12 11  1  0
 14 21  1  0
 14 15  2  0
 16 12  1  0
 18 20  1  0
 18 17  1  1
 19 18  1  0
 20 22  1  0
 20 21  1  6
 22 24  1  0
 23 22  2  0
M  END
$$$$
