NDV.pdb
     RDKit          3D

 24 23  0  0  1  0  0  0  0  0999 V2000
   16.2068  -12.9779  -17.2772 N   0  0  0  0  0  0  0  0  0  0  0  0
   16.0975  -11.7622  -16.5730 C   0  0  0  0  0  0  0  0  0  0  0  0
   15.0062  -11.1733  -16.5214 O   0  0  0  0  0  0  0  0  0  0  0  0
   17.2880  -11.1978  -15.9001 C   0  0  0  0  0  0  0  0  0  0  0  0
   17.0314   -9.7888  -15.4049 C   0  0  2  0  0  0  0  0  0  0  0  0
   16.6905   -8.9903  -16.5647 N   0  0  0  0  0  0  0  0  0  0  0  0
   18.1913   -9.1996  -14.7433 C   0  0  0  0  0  0  0  0  0  0  0  0
   18.8000   -9.8302  -13.8468 O   0  0  0  0  0  0  0  0  0  0  0  0
   18.7034   -7.8900  -15.0646 N   0  0  0  0  0  0  0  0  0  0  0  0
   19.9399   -7.4005  -14.5283 C   0  0  1  0  0  0  0  0  0  0  0  0
   21.0152   -8.4387  -14.7045 C   0  0  0  0  0  0  0  0  0  0  0  0
   21.7810   -8.7294  -13.4798 C   0  0  0  0  0  0  0  0  0  0  0  0
   21.5817   -8.0455  -12.4552 O   0  0  0  0  0  0  0  0  0  0  0  0
   20.3308   -6.0806  -15.0422 C   0  0  0  0  0  0  0  0  0  0  0  0
   20.4610   -5.9612  -16.2888 O   0  0  0  0  0  0  0  0  0  0  0  0
   22.7128   -9.7418  -13.4455 O   0  0  0  0  0  0  0  0  0  0  0  0
   19.0808   -2.5740  -13.3620 C   0  0  0  0  0  0  0  0  0  0  0  0
   19.5898   -2.7334  -14.7812 C   0  0  1  0  0  0  0  0  0  0  0  0
   20.0413   -1.3591  -15.2299 C   0  0  0  0  0  0  0  0  0  0  0  0
   20.7721   -3.6387  -14.8113 C   0  0  2  0  0  0  0  0  0  0  0  0
   20.5725   -4.9397  -14.2682 N   0  0  0  0  0  0  0  0  0  0  0  0
   21.8911   -2.9902  -14.0821 C   0  0  0  0  0  0  0  0  0  0  0  0
   22.0962   -3.2439  -12.8457 O   0  0  0  0  0  0  0  0  0  0  0  0
   22.7779   -2.0902  -14.6494 O   0  0  0  0  0  0  0  0  0  0  0  0
  2  1  1  0
  2  4  1  0
  3  2  2  0
  5  4  1  0
  5  7  1  0
  5  6  1  6
  7  9  1  0
  7  8  2  0
  9 10  1  0
 10 14  1  0
 10 11  1  6
 12 13  2  0
 12 11  1  0
 14 21  1  0
 14 15  2  0
 16 12  1  0
 18 20  1  0
 18 17  1  1
 19 18  1  0
 20 22  1  0
 20 21  1  1
 22 24  1  0
 23 22  2  0
M  END
$$$$
