NDV.pdb
     RDKit          3D

 24 23  0  0  1  0  0  0  0  0999 V2000
   22.8007  -14.7531  -17.4497 N   0  0  0  0  0  0  0  0  0  0  0  0
   23.1488  -13.8064  -18.4338 C   0  0  0  0  0  0  0  0  0  0  0  0
   24.1801  -13.9639  -19.1061 O   0  0  0  0  0  0  0  0  0  0  0  0
   22.2791  -12.6307  -18.6570 C   0  0  0  0  0  0  0  0  0  0  0  0
   21.0746  -12.6473  -17.7377 C   0  0  2  0  0  0  0  0  0  0  0  0
   20.1548  -13.6339  -18.2664 N   0  0  0  0  0  0  0  0  0  0  0  0
   20.3990  -11.3556  -17.6639 C   0  0  0  0  0  0  0  0  0  0  0  0
   19.8278  -10.8785  -18.6729 O   0  0  0  0  0  0  0  0  0  0  0  0
   20.3426  -10.5610  -16.4614 N   0  0  0  0  0  0  0  0  0  0  0  0
   19.6913   -9.2843  -16.4191 C   0  0  1  0  0  0  0  0  0  0  0  0
   18.2582   -9.4601  -15.9941 C   0  0  0  0  0  0  0  0  0  0  0  0
   17.5159   -8.1974  -15.8351 C   0  0  0  0  0  0  0  0  0  0  0  0
   17.5981   -7.3221  -16.7207 O   0  0  0  0  0  0  0  0  0  0  0  0
   20.4045   -8.2781  -15.6204 C   0  0  0  0  0  0  0  0  0  0  0  0
   20.7289   -8.5963  -14.4462 O   0  0  0  0  0  0  0  0  0  0  0  0
   16.7333   -7.9656  -14.7268 O   0  0  0  0  0  0  0  0  0  0  0  0
   23.2909   -5.9239  -17.1201 C   0  0  0  0  0  0  0  0  0  0  0  0
   22.4194   -5.1693  -16.1354 C   0  0  1  0  0  0  0  0  0  0  0  0
   21.4632   -4.3357  -16.9628 C   0  0  0  0  0  0  0  0  0  0  0  0
   21.6135   -6.1197  -15.3196 C   0  0  2  0  0  0  0  0  0  0  0  0
   20.7571   -6.9930  -16.0485 N   0  0  0  0  0  0  0  0  0  0  0  0
   20.7889   -5.3459  -14.3574 C   0  0  0  0  0  0  0  0  0  0  0  0
   19.5147   -5.3240  -14.4625 O   0  0  0  0  0  0  0  0  0  0  0  0
   21.3016   -4.6088  -13.3028 O   0  0  0  0  0  0  0  0  0  0  0  0
  2  1  1  0
  2  4  1  0
  3  2  2  0
  5  4  1  0
  5  7  1  0
  5  6  1  6
  7  9  1  0
  7  8  2  0
  9 10  1  0
 10 14  1  0
 10 11  1  1
 12 13  2  0
 12 11  1  0
 14 21  1  0
 14 15  2  0
 16 12  1  0
 18 20  1  0
 18 17  1  6
 19 18  1  0
 20 22  1  0
 20 21  1  6
 22 24  1  0
 23 22  2  0
M  END
$$$$
