NDV.pdb
     RDKit          3D

 24 23  0  0  1  0  0  0  0  0999 V2000
   28.9474  -17.6610  -17.3391 N   0  0  0  0  0  0  0  0  0  0  0  0
   28.5277  -18.7140  -16.5020 C   0  0  0  0  0  0  0  0  0  0  0  0
   28.8724  -19.8794  -16.7541 O   0  0  0  0  0  0  0  0  0  0  0  0
   27.6779  -18.4197  -15.3274 C   0  0  0  0  0  0  0  0  0  0  0  0
   26.7341  -19.5653  -15.0225 C   0  0  2  0  0  0  0  0  0  0  0  0
   25.7535  -19.5984  -16.0885 N   0  0  0  0  0  0  0  0  0  0  0  0
   26.0457  -19.4091  -13.7450 C   0  0  0  0  0  0  0  0  0  0  0  0
   25.8708  -18.2694  -13.2525 O   0  0  0  0  0  0  0  0  0  0  0  0
   25.5338  -20.5211  -12.9821 N   0  0  0  0  0  0  0  0  0  0  0  0
   24.8048  -20.3387  -11.7609 C   0  0  1  0  0  0  0  0  0  0  0  0
   23.4519  -20.9879  -11.8762 C   0  0  0  0  0  0  0  0  0  0  0  0
   22.5722  -20.3758  -12.8872 C   0  0  0  0  0  0  0  0  0  0  0  0
   22.2525  -19.1747  -12.7755 O   0  0  0  0  0  0  0  0  0  0  0  0
   25.5397  -20.7596  -10.5601 C   0  0  0  0  0  0  0  0  0  0  0  0
   26.0897  -21.8920  -10.5866 O   0  0  0  0  0  0  0  0  0  0  0  0
   22.0960  -21.1052  -13.9529 O   0  0  0  0  0  0  0  0  0  0  0  0
   27.4161  -20.1993   -6.0343 C   0  0  0  0  0  0  0  0  0  0  0  0
   26.7745  -19.5164   -7.2262 C   0  0  1  0  0  0  0  0  0  0  0  0
   27.8790  -18.7520   -7.9261 C   0  0  0  0  0  0  0  0  0  0  0  0
   26.2396  -20.5280   -8.1795 C   0  0  2  0  0  0  0  0  0  0  0  0
   25.6843  -20.0129   -9.3852 N   0  0  0  0  0  0  0  0  0  0  0  0
   25.2018  -21.3352   -7.4898 C   0  0  0  0  0  0  0  0  0  0  0  0
   23.9600  -21.1227   -7.7084 O   0  0  0  0  0  0  0  0  0  0  0  0
   25.4714  -22.3492   -6.5856 O   0  0  0  0  0  0  0  0  0  0  0  0
  2  1  1  0
  2  4  1  0
  3  2  2  0
  5  4  1  0
  5  7  1  0
  5  6  1  6
  7  9  1  0
  7  8  2  0
  9 10  1  0
 10 14  1  0
 10 11  1  6
 12 13  2  0
 12 11  1  0
 14 21  1  0
 14 15  2  0
 16 12  1  0
 18 20  1  0
 18 17  1  1
 19 18  1  0
 20 22  1  0
 20 21  1  6
 22 24  1  0
 23 22  2  0
M  END
$$$$
