NDV.pdb
     RDKit          3D

 24 23  0  0  1  0  0  0  0  0999 V2000
   19.7055  -13.8837  -17.7117 N   0  0  0  0  0  0  0  0  0  0  0  0
   18.9764  -13.0485  -18.5815 C   0  0  0  0  0  0  0  0  0  0  0  0
   18.5315  -13.5031  -19.6472 O   0  0  0  0  0  0  0  0  0  0  0  0
   18.7474  -11.6336  -18.2150 C   0  0  0  0  0  0  0  0  0  0  0  0
   19.3777  -11.2962  -16.8789 C   0  0  2  0  0  0  0  0  0  0  0  0
   18.7206  -12.1186  -15.8835 N   0  0  0  0  0  0  0  0  0  0  0  0
   19.2214   -9.8910  -16.5163 C   0  0  0  0  0  0  0  0  0  0  0  0
   19.1776   -9.0067  -17.4040 O   0  0  0  0  0  0  0  0  0  0  0  0
   19.1098   -9.4346  -15.1525 N   0  0  0  0  0  0  0  0  0  0  0  0
   18.9251   -8.0516  -14.8225 C   0  0  1  0  0  0  0  0  0  0  0  0
   17.7521   -7.9049  -13.8909 C   0  0  0  0  0  0  0  0  0  0  0  0
   16.4711   -8.3643  -14.4554 C   0  0  0  0  0  0  0  0  0  0  0  0
   16.1604   -8.0356  -15.6184 O   0  0  0  0  0  0  0  0  0  0  0  0
   20.1385   -7.3918  -14.3210 C   0  0  0  0  0  0  0  0  0  0  0  0
   20.7885   -7.9849  -13.4204 O   0  0  0  0  0  0  0  0  0  0  0  0
   15.6103   -9.1496  -13.7226 O   0  0  0  0  0  0  0  0  0  0  0  0
   23.0923   -6.2362  -16.4141 C   0  0  0  0  0  0  0  0  0  0  0  0
   22.7728   -5.1208  -15.4382 C   0  0  1  0  0  0  0  0  0  0  0  0
   22.0017   -4.0774  -16.2197 C   0  0  0  0  0  0  0  0  0  0  0  0
   21.8923   -5.6213  -14.3462 C   0  0  2  0  0  0  0  0  0  0  0  0
   20.6391   -6.1591  -14.7557 N   0  0  0  0  0  0  0  0  0  0  0  0
   21.6401   -4.5151  -13.3886 C   0  0  0  0  0  0  0  0  0  0  0  0
   20.4805   -3.9837  -13.2986 O   0  0  0  0  0  0  0  0  0  0  0  0
   22.5960   -3.9804  -12.5408 O   0  0  0  0  0  0  0  0  0  0  0  0
  2  1  1  0
  2  4  1  0
  3  2  2  0
  5  4  1  0
  5  7  1  0
  5  6  1  1
  7  9  1  0
  7  8  2  0
  9 10  1  0
 10 14  1  0
 10 11  1  1
 12 13  2  0
 12 11  1  0
 14 21  1  0
 14 15  2  0
 16 12  1  0
 18 20  1  0
 18 17  1  6
 19 18  1  0
 20 22  1  0
 20 21  1  6
 22 24  1  0
 23 22  2  0
M  END
$$$$
