NDV.pdb
     RDKit          3D

 24 23  0  0  1  0  0  0  0  0999 V2000
   27.0397  -21.3765  -19.8852 N   0  0  0  0  0  0  0  0  0  0  0  0
   27.2984  -20.1365  -19.2678 C   0  0  0  0  0  0  0  0  0  0  0  0
   26.5322  -19.1789  -19.4583 O   0  0  0  0  0  0  0  0  0  0  0  0
   28.4842  -19.9876  -18.3958 C   0  0  0  0  0  0  0  0  0  0  0  0
   28.3112  -20.7351  -17.0891 C   0  0  2  0  0  0  0  0  0  0  0  0
   28.0612  -22.1216  -17.4269 N   0  0  0  0  0  0  0  0  0  0  0  0
   27.1995  -20.2304  -16.2893 C   0  0  0  0  0  0  0  0  0  0  0  0
   27.1535  -19.0227  -15.9556 O   0  0  0  0  0  0  0  0  0  0  0  0
   26.1087  -21.0603  -15.8400 N   0  0  0  0  0  0  0  0  0  0  0  0
   25.0814  -20.5668  -14.9699 C   0  0  1  0  0  0  0  0  0  0  0  0
   23.7539  -20.6088  -15.6778 C   0  0  0  0  0  0  0  0  0  0  0  0
   22.6244  -20.1100  -14.8740 C   0  0  0  0  0  0  0  0  0  0  0  0
   22.8068  -19.1644  -14.0805 O   0  0  0  0  0  0  0  0  0  0  0  0
   25.0486  -21.2225  -13.6553 C   0  0  0  0  0  0  0  0  0  0  0  0
   24.9556  -22.4781  -13.6381 O   0  0  0  0  0  0  0  0  0  0  0  0
   21.3711  -20.6688  -14.9823 O   0  0  0  0  0  0  0  0  0  0  0  0
   27.5672  -21.0310  -10.9195 C   0  0  0  0  0  0  0  0  0  0  0  0
   26.2232  -20.8855  -10.2332 C   0  0  1  0  0  0  0  0  0  0  0  0
   26.0751  -19.4176   -9.8909 C   0  0  0  0  0  0  0  0  0  0  0  0
   25.1209  -21.2542  -11.1644 C   0  0  2  0  0  0  0  0  0  0  0  0
   25.1116  -20.5752  -12.4160 N   0  0  0  0  0  0  0  0  0  0  0  0
   23.8212  -21.0137  -10.4881 C   0  0  0  0  0  0  0  0  0  0  0  0
   23.0318  -20.0969  -10.9022 O   0  0  0  0  0  0  0  0  0  0  0  0
   23.3637  -21.7294   -9.3941 O   0  0  0  0  0  0  0  0  0  0  0  0
  2  1  1  0
  2  4  1  0
  3  2  2  0
  5  4  1  0
  5  7  1  0
  5  6  1  6
  7  9  1  0
  7  8  2  0
  9 10  1  0
 10 14  1  0
 10 11  1  6
 12 13  2  0
 12 11  1  0
 14 21  1  0
 14 15  2  0
 16 12  1  0
 18 20  1  0
 18 17  1  6
 19 18  1  0
 20 22  1  0
 20 21  1  6
 22 24  1  0
 23 22  2  0
M  END
$$$$
