NDV.pdb
     RDKit          3D

 24 23  0  0  1  0  0  0  0  0999 V2000
   16.7211  -12.9363  -19.8947 N   0  0  0  0  0  0  0  0  0  0  0  0
   17.6274  -11.8578  -19.8597 C   0  0  0  0  0  0  0  0  0  0  0  0
   18.3342  -11.6114  -20.8498 O   0  0  0  0  0  0  0  0  0  0  0  0
   17.7281  -11.0271  -18.6397 C   0  0  0  0  0  0  0  0  0  0  0  0
   19.1180  -10.4462  -18.4754 C   0  0  2  0  0  0  0  0  0  0  0  0
   19.9716  -11.5210  -18.0117 N   0  0  0  0  0  0  0  0  0  0  0  0
   19.1650   -9.3498  -17.5131 C   0  0  0  0  0  0  0  0  0  0  0  0
   19.0014   -9.5705  -16.2898 O   0  0  0  0  0  0  0  0  0  0  0  0
   19.3957   -7.9769  -17.8902 N   0  0  0  0  0  0  0  0  0  0  0  0
   19.4327   -6.9158  -16.9266 C   0  0  1  0  0  0  0  0  0  0  0  0
   20.5485   -7.1597  -15.9464 C   0  0  0  0  0  0  0  0  0  0  0  0
   20.7131   -6.0954  -14.9410 C   0  0  0  0  0  0  0  0  0  0  0  0
   19.7958   -5.8766  -14.1238 O   0  0  0  0  0  0  0  0  0  0  0  0
   19.4783   -5.5727  -17.5210 C   0  0  0  0  0  0  0  0  0  0  0  0
   20.3548   -5.3591  -18.3994 O   0  0  0  0  0  0  0  0  0  0  0  0
   21.8608   -5.3375  -14.8871 O   0  0  0  0  0  0  0  0  0  0  0  0
   16.0988   -3.1046  -17.7490 C   0  0  0  0  0  0  0  0  0  0  0  0
   17.2813   -3.0836  -18.6977 C   0  0  1  0  0  0  0  0  0  0  0  0
   17.3223   -1.6938  -19.2984 C   0  0  0  0  0  0  0  0  0  0  0  0
   18.5515   -3.2996  -17.9507 C   0  0  2  0  0  0  0  0  0  0  0  0
   18.6323   -4.5056  -17.1980 N   0  0  0  0  0  0  0  0  0  0  0  0
   18.7673   -2.1545  -17.0307 C   0  0  0  0  0  0  0  0  0  0  0  0
   18.4460   -2.2418  -15.7961 O   0  0  0  0  0  0  0  0  0  0  0  0
   19.3135   -0.9390  -17.4084 O   0  0  0  0  0  0  0  0  0  0  0  0
  2  1  1  0
  2  4  1  0
  3  2  2  0
  5  4  1  0
  5  7  1  0
  5  6  1  1
  7  9  1  0
  7  8  2  0
  9 10  1  0
 10 14  1  0
 10 11  1  6
 12 13  2  0
 12 11  1  0
 14 21  1  0
 14 15  2  0
 16 12  1  0
 18 20  1  0
 18 17  1  1
 19 18  1  0
 20 22  1  0
 20 21  1  1
 22 24  1  0
 23 22  2  0
M  END
$$$$
