VID.pdb
     RDKit          3D

 24 23  0  0  1  0  0  0  0  0999 V2000
    6.6919  -15.3759   18.7759 C   0  0  0  0  0  0  0  0  0  0  0  0
    7.3177  -15.3609   20.1358 C   0  0  2  0  0  0  0  0  0  0  0  0
    6.5118  -16.2817   21.0269 C   0  0  0  0  0  0  0  0  0  0  0  0
    7.2961  -13.9641   20.7646 C   0  0  2  0  0  0  0  0  0  0  0  0
    7.8797  -12.9735   19.9721 N   0  0  0  0  0  0  0  0  0  0  0  0
    7.9843  -14.0054   22.0998 C   0  0  0  0  0  0  0  0  0  0  0  0
    9.2357  -13.9750   22.1478 O   0  0  0  0  0  0  0  0  0  0  0  0
    5.6231  -11.4567   26.1833 C   0  0  0  0  0  0  0  0  0  0  0  0
    6.6450  -12.0080   25.2129 C   0  0  0  0  0  0  0  0  0  0  0  0
    7.0708  -13.4041   25.5418 C   0  0  2  0  0  0  0  0  0  0  0  0
    7.5098  -13.5449   26.9830 C   0  0  0  0  0  0  0  0  0  0  0  0
    7.9984  -14.0658   24.5794 C   0  0  2  0  0  0  0  0  0  0  0  0
    7.2790  -14.0773   23.3070 N   0  0  0  0  0  0  0  0  0  0  0  0
    8.4591  -15.4151   24.9370 C   0  0  0  0  0  0  0  0  0  0  0  0
    7.6263  -16.3700   25.1493 O   0  0  0  0  0  0  0  0  0  0  0  0
    9.8189  -15.7603   25.0687 N   0  0  0  0  0  0  0  0  0  0  0  0
   10.1978  -17.1570   25.3591 C   0  0  1  0  0  0  0  0  0  0  0  0
   11.4903  -17.5027   24.6649 C   0  0  0  0  0  0  0  0  0  0  0  0
   12.0059  -18.8451   24.9807 C   0  0  0  0  0  0  0  0  0  0  0  0
   11.3172  -19.8435   24.6607 O   0  0  0  0  0  0  0  0  0  0  0  0
   10.4391  -17.3300   26.8103 C   0  0  0  0  0  0  0  0  0  0  0  0
   10.4396  -16.2525   27.6625 O   0  0  0  0  0  0  0  0  0  0  0  0
   13.2111  -19.0488   25.6118 O   0  0  0  0  0  0  0  0  0  0  0  0
   10.6444  -18.4718   27.2618 O   0  0  0  0  0  0  0  0  0  0  0  0
  2  1  1  6
  2  4  1  0
  3  2  1  0
  4  6  1  0
  4  5  1  6
  6 13  1  0
  6  7  2  0
  8  9  1  0
  9 10  1  0
 10 12  1  0
 10 11  1  1
 12 14  1  0
 12 13  1  6
 14 15  2  0
 16 14  1  0
 16 17  1  0
 17 21  1  0
 17 18  1  6
 19 18  1  0
 19 20  2  0
 21 22  1  0
 23 19  1  0
 24 21  2  0
M  END
$$$$
