VID.pdb
     RDKit          3D

 24 23  0  0  1  0  0  0  0  0999 V2000
    7.8222  -17.4169   21.0733 C   0  0  0  0  0  0  0  0  0  0  0  0
    6.9111  -16.2441   20.8847 C   0  0  2  0  0  0  0  0  0  0  0  0
    6.2494  -16.3845   19.5305 C   0  0  0  0  0  0  0  0  0  0  0  0
    7.6728  -14.9150   20.8980 C   0  0  2  0  0  0  0  0  0  0  0  0
    8.6707  -14.8204   19.9258 N   0  0  0  0  0  0  0  0  0  0  0  0
    8.2769  -14.6976   22.2566 C   0  0  0  0  0  0  0  0  0  0  0  0
    9.4807  -14.9867   22.4477 O   0  0  0  0  0  0  0  0  0  0  0  0
    6.9205  -11.5269   27.3246 C   0  0  0  0  0  0  0  0  0  0  0  0
    7.8318  -12.5493   26.6811 C   0  0  0  0  0  0  0  0  0  0  0  0
    7.3076  -13.0619   25.3769 C   0  0  2  0  0  0  0  0  0  0  0  0
    5.8633  -13.5026   25.4731 C   0  0  0  0  0  0  0  0  0  0  0  0
    8.1692  -14.0341   24.6442 C   0  0  2  0  0  0  0  0  0  0  0  0
    7.5439  -14.1798   23.3311 N   0  0  0  0  0  0  0  0  0  0  0  0
    8.3672  -15.3434   25.2823 C   0  0  0  0  0  0  0  0  0  0  0  0
    7.5315  -16.3036   25.1084 O   0  0  0  0  0  0  0  0  0  0  0  0
    9.4655  -15.6427   26.1129 N   0  0  0  0  0  0  0  0  0  0  0  0
    9.9119  -17.0413   26.2654 C   0  0  1  0  0  0  0  0  0  0  0  0
   11.0129  -17.3483   25.2828 C   0  0  0  0  0  0  0  0  0  0  0  0
   11.5928  -18.6940   25.4255 C   0  0  0  0  0  0  0  0  0  0  0  0
   11.0498  -19.5009   26.2177 O   0  0  0  0  0  0  0  0  0  0  0  0
   10.4816  -17.2516   27.6165 C   0  0  0  0  0  0  0  0  0  0  0  0
   10.5851  -16.2147   28.5117 O   0  0  0  0  0  0  0  0  0  0  0  0
   12.7048  -19.1021   24.7261 O   0  0  0  0  0  0  0  0  0  0  0  0
   10.8720  -18.3878   27.9429 O   0  0  0  0  0  0  0  0  0  0  0  0
  2  1  1  6
  2  4  1  0
  3  2  1  0
  4  6  1  0
  4  5  1  6
  6 13  1  0
  6  7  2  0
  8  9  1  0
  9 10  1  0
 10 12  1  0
 10 11  1  1
 12 14  1  0
 12 13  1  6
 14 15  2  0
 16 14  1  0
 16 17  1  0
 17 21  1  0
 17 18  1  6
 19 18  1  0
 19 20  2  0
 21 22  1  0
 23 19  1  0
 24 21  2  0
M  END
$$$$
