VID.pdb
     RDKit          3D

 24 23  0  0  1  0  0  0  0  0999 V2000
    6.7153  -15.9846   19.1148 C   0  0  0  0  0  0  0  0  0  0  0  0
    7.3854  -15.8264   20.4441 C   0  0  2  0  0  0  0  0  0  0  0  0
    6.7591  -16.8193   21.3998 C   0  0  0  0  0  0  0  0  0  0  0  0
    7.1839  -14.4243   21.0276 C   0  0  2  0  0  0  0  0  0  0  0  0
    7.5529  -13.3899   20.1652 N   0  0  0  0  0  0  0  0  0  0  0  0
    7.9531  -14.3015   22.3127 C   0  0  0  0  0  0  0  0  0  0  0  0
    9.1913  -14.1159   22.2729 O   0  0  0  0  0  0  0  0  0  0  0  0
    5.8081  -11.4508   26.1782 C   0  0  0  0  0  0  0  0  0  0  0  0
    6.7709  -12.1191   25.2209 C   0  0  0  0  0  0  0  0  0  0  0  0
    7.2583  -13.4456   25.7122 C   0  0  2  0  0  0  0  0  0  0  0  0
    7.8065  -13.3692   27.1204 C   0  0  0  0  0  0  0  0  0  0  0  0
    8.1302  -14.2239   24.7856 C   0  0  2  0  0  0  0  0  0  0  0  0
    7.3385  -14.3867   23.5676 N   0  0  0  0  0  0  0  0  0  0  0  0
    8.6139  -15.5218   25.2775 C   0  0  0  0  0  0  0  0  0  0  0  0
    7.7981  -16.4685   25.5756 O   0  0  0  0  0  0  0  0  0  0  0  0
    9.9789  -15.8242   25.4536 N   0  0  0  0  0  0  0  0  0  0  0  0
   10.3844  -17.1863   25.8523 C   0  0  1  0  0  0  0  0  0  0  0  0
   11.7842  -17.4756   25.3738 C   0  0  0  0  0  0  0  0  0  0  0  0
   11.9748  -17.3051   23.9239 C   0  0  0  0  0  0  0  0  0  0  0  0
   12.5693  -16.2799   23.5128 O   0  0  0  0  0  0  0  0  0  0  0  0
   10.4116  -17.2998   27.3290 C   0  0  0  0  0  0  0  0  0  0  0  0
   10.6605  -18.5031   27.9432 O   0  0  0  0  0  0  0  0  0  0  0  0
   11.5278  -18.2235   23.0025 O   0  0  0  0  0  0  0  0  0  0  0  0
   10.2050  -16.2863   28.0217 O   0  0  0  0  0  0  0  0  0  0  0  0
  2  1  1  6
  2  4  1  0
  3  2  1  0
  4  6  1  0
  4  5  1  6
  6 13  1  0
  6  7  2  0
  8  9  1  0
  9 10  1  0
 10 12  1  0
 10 11  1  1
 12 14  1  0
 12 13  1  6
 14 15  2  0
 16 14  1  0
 16 17  1  0
 17 21  1  0
 17 18  1  1
 19 18  1  0
 19 20  2  0
 21 22  1  0
 23 19  1  0
 24 21  2  0
M  END
$$$$
