VID.pdb
     RDKit          3D

 24 23  0  0  1  0  0  0  0  0999 V2000
    7.1482  -17.0046   19.9179 C   0  0  0  0  0  0  0  0  0  0  0  0
    7.8072  -16.5831   21.1943 C   0  0  2  0  0  0  0  0  0  0  0  0
    7.3973  -17.5629   22.2730 C   0  0  0  0  0  0  0  0  0  0  0  0
    7.3629  -15.1857   21.6380 C   0  0  2  0  0  0  0  0  0  0  0  0
    7.4982  -14.2053   20.6529 N   0  0  0  0  0  0  0  0  0  0  0  0
    8.1386  -14.7777   22.8587 C   0  0  0  0  0  0  0  0  0  0  0  0
    9.3210  -14.3842   22.7327 O   0  0  0  0  0  0  0  0  0  0  0  0
    5.5394  -11.9784   26.4082 C   0  0  0  0  0  0  0  0  0  0  0  0
    6.6847  -12.4805   25.5561 C   0  0  0  0  0  0  0  0  0  0  0  0
    7.4006  -13.6447   26.1651 C   0  0  2  0  0  0  0  0  0  0  0  0
    7.9553  -13.3233   27.5357 C   0  0  0  0  0  0  0  0  0  0  0  0
    8.3738  -14.3633   25.2929 C   0  0  2  0  0  0  0  0  0  0  0  0
    7.5902  -14.8190   24.1461 N   0  0  0  0  0  0  0  0  0  0  0  0
    9.1048  -15.4797   25.9093 C   0  0  0  0  0  0  0  0  0  0  0  0
    8.4896  -16.5191   26.3474 O   0  0  0  0  0  0  0  0  0  0  0  0
   10.5055  -15.4991   26.0616 N   0  0  0  0  0  0  0  0  0  0  0  0
   11.1593  -16.6579   26.7007 C   0  0  1  0  0  0  0  0  0  0  0  0
   12.5904  -16.7694   26.2408 C   0  0  0  0  0  0  0  0  0  0  0  0
   12.7697  -16.6381   24.7854 C   0  0  0  0  0  0  0  0  0  0  0  0
   12.1775  -17.4474   24.0320 O   0  0  0  0  0  0  0  0  0  0  0  0
   11.2015  -16.4749   28.1701 C   0  0  0  0  0  0  0  0  0  0  0  0
   11.6709  -17.4678   28.9952 O   0  0  0  0  0  0  0  0  0  0  0  0
   13.5596  -15.6648   24.2188 O   0  0  0  0  0  0  0  0  0  0  0  0
   10.8042  -15.4024   28.6619 O   0  0  0  0  0  0  0  0  0  0  0  0
  2  1  1  6
  2  4  1  0
  3  2  1  0
  4  6  1  0
  4  5  1  6
  6 13  1  0
  6  7  2  0
  8  9  1  0
  9 10  1  0
 10 12  1  0
 10 11  1  1
 12 14  1  0
 12 13  1  6
 14 15  2  0
 16 14  1  0
 16 17  1  0
 17 21  1  0
 17 18  1  6
 19 18  1  0
 19 20  2  0
 21 22  1  0
 23 19  1  0
 24 21  2  0
M  END
$$$$
