VID.pdb
     RDKit          3D

 24 23  0  0  1  0  0  0  0  0999 V2000
    6.5214  -16.4730   19.3179 C   0  0  0  0  0  0  0  0  0  0  0  0
    7.2233  -16.1871   20.6089 C   0  0  2  0  0  0  0  0  0  0  0  0
    6.5952  -17.0535   21.6796 C   0  0  0  0  0  0  0  0  0  0  0  0
    7.0665  -14.7250   21.0384 C   0  0  2  0  0  0  0  0  0  0  0  0
    7.4461  -13.8007   20.0629 N   0  0  0  0  0  0  0  0  0  0  0  0
    7.8604  -14.4833   22.2912 C   0  0  0  0  0  0  0  0  0  0  0  0
    9.0955  -14.2915   22.2091 O   0  0  0  0  0  0  0  0  0  0  0  0
    5.7601  -11.4873   26.1063 C   0  0  0  0  0  0  0  0  0  0  0  0
    6.7152  -12.1672   25.1495 C   0  0  0  0  0  0  0  0  0  0  0  0
    7.2530  -13.4592   25.6788 C   0  0  2  0  0  0  0  0  0  0  0  0
    7.8621  -13.3055   27.0554 C   0  0  0  0  0  0  0  0  0  0  0  0
    8.0991  -14.2631   24.7503 C   0  0  2  0  0  0  0  0  0  0  0  0
    7.2723  -14.4629   23.5615 N   0  0  0  0  0  0  0  0  0  0  0  0
    8.6001  -15.5453   25.2658 C   0  0  0  0  0  0  0  0  0  0  0  0
    7.7957  -16.4635   25.6663 O   0  0  0  0  0  0  0  0  0  0  0  0
    9.9701  -15.8624   25.3558 N   0  0  0  0  0  0  0  0  0  0  0  0
   10.3862  -17.1920   25.8432 C   0  0  1  0  0  0  0  0  0  0  0  0
   11.8323  -17.4447   25.5010 C   0  0  0  0  0  0  0  0  0  0  0  0
   12.0843  -17.6684   24.0678 C   0  0  0  0  0  0  0  0  0  0  0  0
   11.1073  -17.6813   23.2812 O   0  0  0  0  0  0  0  0  0  0  0  0
   10.2860  -17.2496   27.3200 C   0  0  0  0  0  0  0  0  0  0  0  0
   10.1230  -16.1068   28.0647 O   0  0  0  0  0  0  0  0  0  0  0  0
   13.3464  -17.8637   23.5567 O   0  0  0  0  0  0  0  0  0  0  0  0
   10.3508  -18.3532   27.8923 O   0  0  0  0  0  0  0  0  0  0  0  0
  2  1  1  6
  2  4  1  0
  3  2  1  0
  4  6  1  0
  4  5  1  6
  6 13  1  0
  6  7  2  0
  8  9  1  0
  9 10  1  0
 10 12  1  0
 10 11  1  1
 12 14  1  0
 12 13  1  6
 14 15  2  0
 16 14  1  0
 16 17  1  0
 17 21  1  0
 17 18  1  1
 19 18  1  0
 19 20  2  0
 21 22  1  0
 23 19  1  0
 24 21  2  0
M  END
$$$$
