VID.pdb
     RDKit          3D

 24 23  0  0  1  0  0  0  0  0999 V2000
    7.6962  -17.3332   20.7258 C   0  0  0  0  0  0  0  0  0  0  0  0
    6.5439  -16.3799   20.7923 C   0  0  2  0  0  0  0  0  0  0  0  0
    5.6661  -16.6289   19.5845 C   0  0  0  0  0  0  0  0  0  0  0  0
    7.0016  -14.9187   20.7449 C   0  0  2  0  0  0  0  0  0  0  0  0
    7.7372  -14.5887   19.6048 N   0  0  0  0  0  0  0  0  0  0  0  0
    7.8140  -14.6085   21.9705 C   0  0  0  0  0  0  0  0  0  0  0  0
    9.0642  -14.6003   21.8937 O   0  0  0  0  0  0  0  0  0  0  0  0
    6.9539  -11.8564   27.3637 C   0  0  0  0  0  0  0  0  0  0  0  0
    7.8746  -12.7159   26.5249 C   0  0  0  0  0  0  0  0  0  0  0  0
    7.2186  -13.2407   25.2868 C   0  0  2  0  0  0  0  0  0  0  0  0
    5.8717  -13.8676   25.5735 C   0  0  0  0  0  0  0  0  0  0  0  0
    8.0665  -14.0643   24.3773 C   0  0  2  0  0  0  0  0  0  0  0  0
    7.2269  -14.3248   23.2094 N   0  0  0  0  0  0  0  0  0  0  0  0
    8.5987  -15.3163   24.9340 C   0  0  0  0  0  0  0  0  0  0  0  0
    7.8664  -16.3674   25.0320 O   0  0  0  0  0  0  0  0  0  0  0  0
    9.9241  -15.4601   25.3903 N   0  0  0  0  0  0  0  0  0  0  0  0
   10.4293  -16.7933   25.7725 C   0  0  1  0  0  0  0  0  0  0  0  0
   11.8838  -16.9271   25.4002 C   0  0  0  0  0  0  0  0  0  0  0  0
   12.2290  -18.2077   24.7612 C   0  0  0  0  0  0  0  0  0  0  0  0
   11.3254  -19.0635   24.6047 O   0  0  0  0  0  0  0  0  0  0  0  0
   10.3521  -16.9673   27.2415 C   0  0  0  0  0  0  0  0  0  0  0  0
    9.9926  -15.9251   28.0611 O   0  0  0  0  0  0  0  0  0  0  0  0
   13.5010  -18.5037   24.3291 O   0  0  0  0  0  0  0  0  0  0  0  0
   10.6181  -18.0774   27.7381 O   0  0  0  0  0  0  0  0  0  0  0  0
  2  1  1  6
  2  4  1  0
  3  2  1  0
  4  6  1  0
  4  5  1  6
  6 13  1  0
  6  7  2  0
  8  9  1  0
  9 10  1  0
 10 12  1  0
 10 11  1  1
 12 14  1  0
 12 13  1  6
 14 15  2  0
 16 14  1  0
 16 17  1  0
 17 21  1  0
 17 18  1  1
 19 18  1  0
 19 20  2  0
 21 22  1  0
 23 19  1  0
 24 21  2  0
M  END
$$$$
