VID.pdb
     RDKit          3D

 24 23  0  0  1  0  0  0  0  0999 V2000
    7.4271  -17.3044   21.0966 C   0  0  0  0  0  0  0  0  0  0  0  0
    6.1711  -16.5670   21.4428 C   0  0  2  0  0  0  0  0  0  0  0  0
    5.1422  -16.8782   20.3770 C   0  0  0  0  0  0  0  0  0  0  0  0
    6.3807  -15.0495   21.4620 C   0  0  2  0  0  0  0  0  0  0  0  0
    6.8220  -14.5198   20.2477 N   0  0  0  0  0  0  0  0  0  0  0  0
    7.3574  -14.6927   22.5469 C   0  0  0  0  0  0  0  0  0  0  0  0
    8.5507  -14.4579   22.2470 O   0  0  0  0  0  0  0  0  0  0  0  0
    5.8930  -11.5631   26.5885 C   0  0  0  0  0  0  0  0  0  0  0  0
    6.6948  -12.2521   25.5058 C   0  0  0  0  0  0  0  0  0  0  0  0
    7.2993  -13.5440   25.9575 C   0  0  2  0  0  0  0  0  0  0  0  0
    8.1035  -13.3868   27.2295 C   0  0  0  0  0  0  0  0  0  0  0  0
    7.9975  -14.3560   24.9195 C   0  0  2  0  0  0  0  0  0  0  0  0
    6.9870  -14.6104   23.8945 N   0  0  0  0  0  0  0  0  0  0  0  0
    8.6140  -15.6103   25.3751 C   0  0  0  0  0  0  0  0  0  0  0  0
    7.9002  -16.5811   25.8209 O   0  0  0  0  0  0  0  0  0  0  0  0
   10.0037  -15.8426   25.3560 N   0  0  0  0  0  0  0  0  0  0  0  0
   10.5366  -17.1484   25.7915 C   0  0  1  0  0  0  0  0  0  0  0  0
   11.9123  -17.3691   25.2165 C   0  0  0  0  0  0  0  0  0  0  0  0
   12.0152  -17.0969   23.7732 C   0  0  0  0  0  0  0  0  0  0  0  0
   11.2247  -17.6813   22.9941 O   0  0  0  0  0  0  0  0  0  0  0  0
   10.6862  -17.1738   27.2649 C   0  0  0  0  0  0  0  0  0  0  0  0
   11.0879  -18.3140   27.9174 O   0  0  0  0  0  0  0  0  0  0  0  0
   12.9421  -16.2285   23.2449 O   0  0  0  0  0  0  0  0  0  0  0  0
   10.4431  -16.1432   27.9197 O   0  0  0  0  0  0  0  0  0  0  0  0
  2  1  1  6
  2  4  1  0
  3  2  1  0
  4  6  1  0
  4  5  1  6
  6 13  1  0
  6  7  2  0
  8  9  1  0
  9 10  1  0
 10 12  1  0
 10 11  1  1
 12 14  1  0
 12 13  1  6
 14 15  2  0
 16 14  1  0
 16 17  1  0
 17 21  1  0
 17 18  1  6
 19 18  1  0
 19 20  2  0
 21 22  1  0
 23 19  1  0
 24 21  2  0
M  END
$$$$
