SLY.pdb
     RDKit          3D

 27 27  0  0  1  0  0  0  0  0999 V2000
   25.3679  -16.5181  -17.5265 O   0  0  0  0  0  0  0  0  0  0  0  0
   25.4940  -16.8786  -16.1851 C   0  0  0  0  0  0  0  0  0  0  0  0
   26.8678  -17.4119  -15.8729 C   0  0  2  0  0  0  0  0  0  0  0  0
   27.7005  -17.4917  -17.0590 N   0  0  0  0  0  0  0  0  0  0  0  0
   26.7291  -18.7446  -15.2516 C   0  0  0  0  0  0  0  0  0  0  0  0
   27.2118  -19.7862  -15.7669 O   0  0  0  0  0  0  0  0  0  0  0  0
   25.4945  -20.5038   -9.5198 C   0  0  0  0  0  0  0  0  0  0  0  0
   26.2706  -20.7121  -10.7737 C   0  0  1  0  0  0  0  0  0  0  0  0
   26.1624  -22.1697  -11.2456 C   0  0  0  0  0  0  0  0  0  0  0  0
   26.0778  -19.7569  -11.8719 C   0  0  0  0  0  0  0  0  0  0  0  0
   26.0531  -20.1769  -13.2837 C   0  0  2  0  0  0  0  0  0  0  0  0
   26.0367  -18.8765  -14.0405 N   0  0  0  0  0  0  0  0  0  0  0  0
   24.9013  -20.9008  -13.8039 C   0  0  0  0  0  0  0  0  0  0  0  0
   24.7674  -22.1259  -13.5965 O   0  0  0  0  0  0  0  0  0  0  0  0
   16.8281  -22.0060  -11.6652 O   0  0  0  0  0  0  0  0  0  0  0  0
   18.1395  -21.6320  -11.9876 C   0  0  0  0  0  0  0  0  0  0  0  0
   18.4437  -20.3564  -12.4243 C   0  0  0  0  0  0  0  0  0  0  0  0
   19.7254  -19.9640  -12.7476 C   0  0  0  0  0  0  0  0  0  0  0  0
   20.7512  -20.8745  -12.6336 C   0  0  0  0  0  0  0  0  0  0  0  0
   22.1147  -20.4522  -12.9804 C   0  0  0  0  0  0  0  0  0  0  0  0
   22.4632  -20.6368  -14.4374 C   0  0  2  0  0  0  0  0  0  0  0  0
   23.8606  -20.2633  -14.5772 N   0  0  0  0  0  0  0  0  0  0  0  0
   21.6298  -19.8641  -15.3589 C   0  0  0  0  0  0  0  0  0  0  0  0
   20.5162  -20.4265  -15.9666 O   0  0  0  0  0  0  0  0  0  0  0  0
   20.4978  -22.1522  -12.2044 C   0  0  0  0  0  0  0  0  0  0  0  0
   19.2021  -22.5054  -11.8908 C   0  0  0  0  0  0  0  0  0  0  0  0
   21.8938  -18.6661  -15.6311 O   0  0  0  0  0  0  0  0  0  0  0  0
  2  1  1  0
  3  2  1  0
  3  4  1  6
  5  3  1  0
  6  5  2  0
  8  7  1  1
  8  9  1  0
 10  8  1  0
 11 10  1  1
 11 12  1  0
 12  5  1  0
 13 11  1  0
 14 13  2  0
 16 17  2  0
 16 15  1  0
 18 17  1  0
 19 18  2  0
 21 20  1  1
 20 19  1  0
 21 22  1  0
 22 13  1  0
 23 21  1  0
 23 24  1  0
 25 19  1  0
 25 26  2  0
 26 16  1  0
 27 23  2  0
M  END
$$$$
