SLY.pdb
     RDKit          3D

 27 27  0  0  1  0  0  0  0  0999 V2000
   24.5688   -8.9218  -21.4999 O   0  0  0  0  0  0  0  0  0  0  0  0
   25.8760   -9.1085  -21.0513 C   0  0  0  0  0  0  0  0  0  0  0  0
   26.0933  -10.4993  -20.5151 C   0  0  2  0  0  0  0  0  0  0  0  0
   25.6679  -11.5165  -21.4589 N   0  0  0  0  0  0  0  0  0  0  0  0
   25.3557  -10.6377  -19.2431 C   0  0  0  0  0  0  0  0  0  0  0  0
   24.2115  -11.1572  -19.1761 O   0  0  0  0  0  0  0  0  0  0  0  0
   27.5160  -13.0659  -15.2795 C   0  0  0  0  0  0  0  0  0  0  0  0
   26.4514  -12.4450  -16.1156 C   0  0  1  0  0  0  0  0  0  0  0  0
   25.1990  -13.3335  -16.1511 C   0  0  0  0  0  0  0  0  0  0  0  0
   26.1243  -11.0330  -15.8809 C   0  0  0  0  0  0  0  0  0  0  0  0
   25.1945  -10.2873  -16.7465 C   0  0  2  0  0  0  0  0  0  0  0  0
   25.9346  -10.1792  -18.0522 N   0  0  0  0  0  0  0  0  0  0  0  0
   24.8502   -8.9097  -16.4226 C   0  0  0  0  0  0  0  0  0  0  0  0
   25.5891   -7.9650  -16.7740 O   0  0  0  0  0  0  0  0  0  0  0  0
   21.4134   -1.1392  -16.6447 O   0  0  0  0  0  0  0  0  0  0  0  0
   21.8512   -2.4696  -16.6890 C   0  0  0  0  0  0  0  0  0  0  0  0
   23.1112   -2.8337  -16.2528 C   0  0  0  0  0  0  0  0  0  0  0  0
   23.5655   -4.1352  -16.2860 C   0  0  0  0  0  0  0  0  0  0  0  0
   22.7357   -5.1197  -16.7724 C   0  0  0  0  0  0  0  0  0  0  0  0
   23.2245   -6.5044  -16.8071 C   0  0  0  0  0  0  0  0  0  0  0  0
   23.2883   -7.1676  -15.4526 C   0  0  2  0  0  0  0  0  0  0  0  0
   23.6575   -8.5530  -15.6893 N   0  0  0  0  0  0  0  0  0  0  0  0
   22.0451   -7.0907  -14.6848 C   0  0  0  0  0  0  0  0  0  0  0  0
   21.0777   -8.0810  -14.7800 O   0  0  0  0  0  0  0  0  0  0  0  0
   21.4766   -4.8064  -17.2166 C   0  0  0  0  0  0  0  0  0  0  0  0
   21.0598   -3.4927  -17.1667 C   0  0  0  0  0  0  0  0  0  0  0  0
   21.8115   -6.1263  -13.9139 O   0  0  0  0  0  0  0  0  0  0  0  0
  2  1  1  0
  3  2  1  0
  3  4  1  6
  5  3  1  0
  6  5  2  0
  8  7  1  1
  8  9  1  0
 10  8  1  0
 11 10  1  1
 11 12  1  0
 12  5  1  0
 13 11  1  0
 14 13  2  0
 16 17  2  0
 16 15  1  0
 18 17  1  0
 19 18  2  0
 21 20  1  6
 20 19  1  0
 21 22  1  0
 22 13  1  0
 23 21  1  0
 23 24  1  0
 25 19  1  0
 25 26  2  0
 26 16  1  0
 27 23  2  0
M  END
$$$$
