SLY.pdb
     RDKit          3D

 27 27  0  0  1  0  0  0  0  0999 V2000
   26.4285  -31.0578  -17.7928 O   0  0  0  0  0  0  0  0  0  0  0  0
   27.3315  -31.6561  -18.6712 C   0  0  0  0  0  0  0  0  0  0  0  0
   28.7548  -31.2710  -18.3632 C   0  0  2  0  0  0  0  0  0  0  0  0
   29.1300  -31.6236  -17.0062 N   0  0  0  0  0  0  0  0  0  0  0  0
   28.9100  -29.8181  -18.5783 C   0  0  0  0  0  0  0  0  0  0  0  0
   29.4179  -29.0556  -17.7156 O   0  0  0  0  0  0  0  0  0  0  0  0
   31.0469  -26.1276  -21.7486 C   0  0  0  0  0  0  0  0  0  0  0  0
   29.7565  -26.6957  -22.2285 C   0  0  1  0  0  0  0  0  0  0  0  0
   29.7804  -26.8914  -23.7517 C   0  0  0  0  0  0  0  0  0  0  0  0
   29.2132  -27.8653  -21.5266 C   0  0  0  0  0  0  0  0  0  0  0  0
   28.8055  -27.8135  -20.1119 C   0  0  2  0  0  0  0  0  0  0  0  0
   28.4815  -29.2457  -19.7834 N   0  0  0  0  0  0  0  0  0  0  0  0
   27.6033  -27.0849  -19.7309 C   0  0  0  0  0  0  0  0  0  0  0  0
   27.5891  -25.8353  -19.7161 O   0  0  0  0  0  0  0  0  0  0  0  0
   20.2111  -22.9546  -19.3563 O   0  0  0  0  0  0  0  0  0  0  0  0
   21.3700  -23.7190  -19.5461 C   0  0  0  0  0  0  0  0  0  0  0  0
   21.3090  -25.0648  -19.8552 C   0  0  0  0  0  0  0  0  0  0  0  0
   22.4341  -25.8385  -20.0468 C   0  0  0  0  0  0  0  0  0  0  0  0
   23.6745  -25.2541  -19.9271 C   0  0  0  0  0  0  0  0  0  0  0  0
   24.8702  -26.0826  -20.1307 C   0  0  0  0  0  0  0  0  0  0  0  0
   25.1880  -26.9980  -18.9733 C   0  0  2  0  0  0  0  0  0  0  0  0
   26.3751  -27.7452  -19.3530 N   0  0  0  0  0  0  0  0  0  0  0  0
   24.1019  -27.9083  -18.6092 C   0  0  0  0  0  0  0  0  0  0  0  0
   23.0955  -27.5163  -17.7379 O   0  0  0  0  0  0  0  0  0  0  0  0
   23.7850  -23.9217  -19.6216 C   0  0  0  0  0  0  0  0  0  0  0  0
   22.6355  -23.1823  -19.4377 C   0  0  0  0  0  0  0  0  0  0  0  0
   24.0436  -29.0748  -19.0727 O   0  0  0  0  0  0  0  0  0  0  0  0
  2  1  1  0
  3  2  1  0
  3  4  1  1
  5  3  1  0
  6  5  2  0
  8  7  1  1
  8  9  1  0
 10  8  1  0
 11 10  1  6
 11 12  1  0
 12  5  1  0
 13 11  1  0
 14 13  2  0
 16 17  2  0
 16 15  1  0
 18 17  1  0
 19 18  2  0
 21 20  1  6
 20 19  1  0
 21 22  1  0
 22 13  1  0
 23 21  1  0
 23 24  1  0
 25 19  1  0
 25 26  2  0
 26 16  1  0
 27 23  2  0
M  END
$$$$
