SLY.pdb
     RDKit          3D

 27 27  0  0  1  0  0  0  0  0999 V2000
   27.4067  -18.0959  -16.8149 O   0  0  0  0  0  0  0  0  0  0  0  0
   26.5018  -18.9833  -16.2331 C   0  0  0  0  0  0  0  0  0  0  0  0
   27.1839  -19.9543  -15.3052 C   0  0  2  0  0  0  0  0  0  0  0  0
   27.9880  -20.9218  -16.0291 N   0  0  0  0  0  0  0  0  0  0  0  0
   26.1553  -20.6417  -14.4985 C   0  0  0  0  0  0  0  0  0  0  0  0
   25.6646  -21.7522  -14.8295 O   0  0  0  0  0  0  0  0  0  0  0  0
   26.3609  -20.2569   -9.0214 C   0  0  0  0  0  0  0  0  0  0  0  0
   26.0757  -20.8255  -10.3680 C   0  0  1  0  0  0  0  0  0  0  0  0
   26.0749  -22.3608  -10.3221 C   0  0  0  0  0  0  0  0  0  0  0  0
   24.9300  -20.2914  -11.1147 C   0  0  0  0  0  0  0  0  0  0  0  0
   24.6228  -20.7152  -12.4917 C   0  0  2  0  0  0  0  0  0  0  0  0
   25.6937  -20.0515  -13.3144 N   0  0  0  0  0  0  0  0  0  0  0  0
   23.3808  -20.2877  -13.1210 C   0  0  0  0  0  0  0  0  0  0  0  0
   23.1848  -19.0855  -13.4006 O   0  0  0  0  0  0  0  0  0  0  0  0
   16.3859  -19.8463  -18.3516 O   0  0  0  0  0  0  0  0  0  0  0  0
   17.5616  -20.1425  -17.6489 C   0  0  0  0  0  0  0  0  0  0  0  0
   17.8059  -21.4052  -17.1428 C   0  0  0  0  0  0  0  0  0  0  0  0
   18.9542  -21.7218  -16.4483 C   0  0  0  0  0  0  0  0  0  0  0  0
   19.9026  -20.7451  -16.2459 C   0  0  0  0  0  0  0  0  0  0  0  0
   21.1237  -21.0867  -15.5042 C   0  0  0  0  0  0  0  0  0  0  0  0
   21.0639  -20.7506  -14.0339 C   0  0  2  0  0  0  0  0  0  0  0  0
   22.3169  -21.2062  -13.4560 N   0  0  0  0  0  0  0  0  0  0  0  0
   19.9269  -21.3403  -13.3267 C   0  0  0  0  0  0  0  0  0  0  0  0
   18.7403  -20.6402  -13.1609 O   0  0  0  0  0  0  0  0  0  0  0  0
   19.7043  -19.4771  -16.7294 C   0  0  0  0  0  0  0  0  0  0  0  0
   18.5423  -19.2009  -17.4190 C   0  0  0  0  0  0  0  0  0  0  0  0
   19.9862  -22.4998  -12.8458 O   0  0  0  0  0  0  0  0  0  0  0  0
  2  1  1  0
  3  2  1  0
  3  4  1  6
  5  3  1  0
  6  5  2  0
  8  7  1  1
  8  9  1  0
 10  8  1  0
 11 10  1  1
 11 12  1  0
 12  5  1  0
 13 11  1  0
 14 13  2  0
 16 17  2  0
 16 15  1  0
 18 17  1  0
 19 18  2  0
 21 20  1  6
 20 19  1  0
 21 22  1  0
 22 13  1  0
 23 21  1  0
 23 24  1  0
 25 19  1  0
 25 26  2  0
 26 16  1  0
 27 23  2  0
M  END
$$$$
