SLY.pdb
     RDKit          3D

 27 27  0  0  1  0  0  0  0  0999 V2000
   20.7862   -9.6375  -20.2179 O   0  0  0  0  0  0  0  0  0  0  0  0
   21.0937   -9.7619  -18.8633 C   0  0  0  0  0  0  0  0  0  0  0  0
   21.9876  -10.9446  -18.5959 C   0  0  2  0  0  0  0  0  0  0  0  0
   21.2867  -12.2036  -18.7693 N   0  0  0  0  0  0  0  0  0  0  0  0
   22.5183  -10.8367  -17.2219 C   0  0  0  0  0  0  0  0  0  0  0  0
   22.0010  -11.4399  -16.2461 O   0  0  0  0  0  0  0  0  0  0  0  0
   27.9101  -10.8652  -16.4776 C   0  0  0  0  0  0  0  0  0  0  0  0
   26.4564  -11.0475  -16.2103 C   0  0  1  0  0  0  0  0  0  0  0  0
   26.2206  -12.2384  -15.2694 C   0  0  0  0  0  0  0  0  0  0  0  0
   25.6725   -9.8685  -15.8214 C   0  0  0  0  0  0  0  0  0  0  0  0
   24.2195   -9.9330  -15.5877 C   0  0  2  0  0  0  0  0  0  0  0  0
   23.6416  -10.0367  -16.9731 N   0  0  0  0  0  0  0  0  0  0  0  0
   23.5285   -8.7918  -15.0032 C   0  0  0  0  0  0  0  0  0  0  0  0
   23.4592   -8.6510  -13.7634 O   0  0  0  0  0  0  0  0  0  0  0  0
   20.8378   -0.3278  -14.7001 O   0  0  0  0  0  0  0  0  0  0  0  0
   21.3974   -1.5842  -14.9684 C   0  0  0  0  0  0  0  0  0  0  0  0
   21.3295   -2.1554  -16.2252 C   0  0  0  0  0  0  0  0  0  0  0  0
   21.8719   -3.3896  -16.5146 C   0  0  0  0  0  0  0  0  0  0  0  0
   22.5097   -4.0893  -15.5156 C   0  0  0  0  0  0  0  0  0  0  0  0
   23.0848   -5.4043  -15.8283 C   0  0  0  0  0  0  0  0  0  0  0  0
   22.3429   -6.5629  -15.2071 C   0  0  2  0  0  0  0  0  0  0  0  0
   22.8918   -7.7698  -15.8018 N   0  0  0  0  0  0  0  0  0  0  0  0
   20.8917   -6.5151  -15.3871 C   0  0  0  0  0  0  0  0  0  0  0  0
   20.0912   -5.7238  -14.5755 O   0  0  0  0  0  0  0  0  0  0  0  0
   22.6021   -3.5630  -14.2525 C   0  0  0  0  0  0  0  0  0  0  0  0
   22.0465   -2.3255  -14.0038 C   0  0  0  0  0  0  0  0  0  0  0  0
   20.3214   -7.1884  -16.2818 O   0  0  0  0  0  0  0  0  0  0  0  0
  2  1  1  0
  3  2  1  0
  3  4  1  1
  5  3  1  0
  6  5  2  0
  8  7  1  1
  8  9  1  0
 10  8  1  0
 11 10  1  6
 11 12  1  0
 12  5  1  0
 13 11  1  0
 14 13  2  0
 16 17  2  0
 16 15  1  0
 18 17  1  0
 19 18  2  0
 21 20  1  6
 20 19  1  0
 21 22  1  0
 22 13  1  0
 23 21  1  0
 23 24  1  0
 25 19  1  0
 25 26  2  0
 26 16  1  0
 27 23  2  0
M  END
$$$$
