SLY.pdb
     RDKit          3D

 27 27  0  0  1  0  0  0  0  0999 V2000
   20.2403  -22.7122  -12.8386 O   0  0  0  0  0  0  0  0  0  0  0  0
   21.5391  -22.4632  -12.3956 C   0  0  0  0  0  0  0  0  0  0  0  0
   21.7302  -21.0238  -11.9946 C   0  0  2  0  0  0  0  0  0  0  0  0
   20.6032  -20.1978  -12.3871 N   0  0  0  0  0  0  0  0  0  0  0  0
   22.9750  -20.5213  -12.6105 C   0  0  0  0  0  0  0  0  0  0  0  0
   22.9790  -19.6402  -13.5089 O   0  0  0  0  0  0  0  0  0  0  0  0
   28.4225  -19.4935  -12.7945 C   0  0  0  0  0  0  0  0  0  0  0  0
   27.9549  -20.7439  -12.1344 C   0  0  1  0  0  0  0  0  0  0  0  0
   28.8253  -21.0733  -10.9125 C   0  0  0  0  0  0  0  0  0  0  0  0
   26.5213  -20.8792  -11.8479 C   0  0  0  0  0  0  0  0  0  0  0  0
   25.4878  -20.5963  -12.8588 C   0  0  2  0  0  0  0  0  0  0  0  0
   24.2110  -21.0322  -12.1924 N   0  0  0  0  0  0  0  0  0  0  0  0
   25.4912  -21.3230  -14.1211 C   0  0  0  0  0  0  0  0  0  0  0  0
   25.0892  -22.5048  -14.1811 O   0  0  0  0  0  0  0  0  0  0  0  0
   23.1458  -26.9086  -14.5454 O   0  0  0  0  0  0  0  0  0  0  0  0
   23.4726  -25.6661  -15.1047 C   0  0  0  0  0  0  0  0  0  0  0  0
   22.6724  -24.5543  -14.9202 C   0  0  0  0  0  0  0  0  0  0  0  0
   22.9719  -23.3212  -15.4596 C   0  0  0  0  0  0  0  0  0  0  0  0
   24.1140  -23.1825  -16.2150 C   0  0  0  0  0  0  0  0  0  0  0  0
   24.4283  -21.8673  -16.7887 C   0  0  0  0  0  0  0  0  0  0  0  0
   25.8701  -21.4528  -16.6220 C   0  0  2  0  0  0  0  0  0  0  0  0
   25.9497  -20.7373  -15.3597 N   0  0  0  0  0  0  0  0  0  0  0  0
   26.3903  -20.6290  -17.7137 C   0  0  0  0  0  0  0  0  0  0  0  0
   26.5257  -21.1373  -18.9978 O   0  0  0  0  0  0  0  0  0  0  0  0
   24.9391  -24.2576  -16.4256 C   0  0  0  0  0  0  0  0  0  0  0  0
   24.6042  -25.4741  -15.8687 C   0  0  0  0  0  0  0  0  0  0  0  0
   26.7318  -19.4344  -17.5257 O   0  0  0  0  0  0  0  0  0  0  0  0
  2  1  1  0
  3  2  1  0
  3  4  1  6
  5  3  1  0
  6  5  2  0
  8  7  1  1
  8  9  1  0
 10  8  1  0
 11 10  1  1
 11 12  1  0
 12  5  1  0
 13 11  1  0
 14 13  2  0
 16 17  2  0
 16 15  1  0
 18 17  1  0
 19 18  2  0
 21 20  1  6
 20 19  1  0
 21 22  1  0
 22 13  1  0
 23 21  1  0
 23 24  1  0
 25 19  1  0
 25 26  2  0
 26 16  1  0
 27 23  2  0
M  END
$$$$
