SLY.pdb
     RDKit          3D

 27 27  0  0  1  0  0  0  0  0999 V2000
   18.6560   -8.3157  -16.4598 O   0  0  0  0  0  0  0  0  0  0  0  0
   20.0299   -8.0766  -16.4744 C   0  0  0  0  0  0  0  0  0  0  0  0
   20.7082   -8.6190  -15.2437 C   0  0  2  0  0  0  0  0  0  0  0  0
   20.1796   -8.0273  -14.0284 N   0  0  0  0  0  0  0  0  0  0  0  0
   22.1591   -8.3641  -15.3506 C   0  0  0  0  0  0  0  0  0  0  0  0
   22.6968   -7.3141  -14.9126 O   0  0  0  0  0  0  0  0  0  0  0  0
   27.3755  -10.2152  -15.3012 C   0  0  0  0  0  0  0  0  0  0  0  0
   26.4680  -10.6686  -16.3916 C   0  0  1  0  0  0  0  0  0  0  0  0
   26.7767  -12.1197  -16.7893 C   0  0  0  0  0  0  0  0  0  0  0  0
   25.0278  -10.4297  -16.2357 C   0  0  0  0  0  0  0  0  0  0  0  0
   24.4669   -9.0752  -16.0919 C   0  0  2  0  0  0  0  0  0  0  0  0
   22.9874   -9.3160  -15.9599 N   0  0  0  0  0  0  0  0  0  0  0  0
   24.5718   -8.1272  -17.1927 C   0  0  0  0  0  0  0  0  0  0  0  0
   25.6265   -7.4859  -17.3876 O   0  0  0  0  0  0  0  0  0  0  0  0
   20.9721  -11.2001  -23.3049 O   0  0  0  0  0  0  0  0  0  0  0  0
   21.8047  -10.3430  -22.5730 C   0  0  0  0  0  0  0  0  0  0  0  0
   22.5921  -10.8070  -21.5361 C   0  0  0  0  0  0  0  0  0  0  0  0
   23.4194   -9.9844  -20.8011 C   0  0  0  0  0  0  0  0  0  0  0  0
   23.4694   -8.6432  -21.1061 C   0  0  0  0  0  0  0  0  0  0  0  0
   24.3511   -7.7706  -20.3195 C   0  0  0  0  0  0  0  0  0  0  0  0
   23.6381   -6.9806  -19.2490 C   0  0  2  0  0  0  0  0  0  0  0  0
   23.4864   -7.8720  -18.1115 N   0  0  0  0  0  0  0  0  0  0  0  0
   22.3398   -6.4450  -19.6594 C   0  0  0  0  0  0  0  0  0  0  0  0
   21.1749   -6.7866  -18.9871 O   0  0  0  0  0  0  0  0  0  0  0  0
   22.7060   -8.1367  -22.1267 C   0  0  0  0  0  0  0  0  0  0  0  0
   21.8914   -8.9926  -22.8380 C   0  0  0  0  0  0  0  0  0  0  0  0
   22.2355   -5.6583  -20.6337 O   0  0  0  0  0  0  0  0  0  0  0  0
  2  1  1  0
  3  2  1  0
  3  4  1  1
  5  3  1  0
  6  5  2  0
  8  7  1  1
  8  9  1  0
 10  8  1  0
 11 10  1  6
 11 12  1  0
 12  5  1  0
 13 11  1  0
 14 13  2  0
 16 17  2  0
 16 15  1  0
 18 17  1  0
 19 18  2  0
 21 20  1  6
 20 19  1  0
 21 22  1  0
 22 13  1  0
 23 21  1  0
 23 24  1  0
 25 19  1  0
 25 26  2  0
 26 16  1  0
 27 23  2  0
M  END
$$$$
