SLY.pdb
     RDKit          3D

 27 27  0  0  1  0  0  0  0  0999 V2000
   20.6534    2.3310  -16.1912 O   0  0  0  0  0  0  0  0  0  0  0  0
   20.9604    1.1536  -16.8727 C   0  0  0  0  0  0  0  0  0  0  0  0
   21.1821    1.3962  -18.3428 C   0  0  2  0  0  0  0  0  0  0  0  0
   19.9808    1.8778  -18.9996 N   0  0  0  0  0  0  0  0  0  0  0  0
   21.6404    0.1387  -18.9671 C   0  0  0  0  0  0  0  0  0  0  0  0
   20.8996   -0.5606  -19.7058 O   0  0  0  0  0  0  0  0  0  0  0  0
   27.2061   -0.4389  -20.0667 C   0  0  0  0  0  0  0  0  0  0  0  0
   25.7402   -0.5549  -20.3024 C   0  0  1  0  0  0  0  0  0  0  0  0
   25.4512   -0.9270  -21.7643 C   0  0  0  0  0  0  0  0  0  0  0  0
   24.9501   -1.3554  -19.3587 C   0  0  0  0  0  0  0  0  0  0  0  0
   23.4897   -1.5028  -19.4837 C   0  0  2  0  0  0  0  0  0  0  0  0
   22.9480   -0.3115  -18.7410 N   0  0  0  0  0  0  0  0  0  0  0  0
   22.8205   -2.6379  -18.8631 C   0  0  0  0  0  0  0  0  0  0  0  0
   22.8414   -2.7944  -17.6234 O   0  0  0  0  0  0  0  0  0  0  0  0
   16.3894   -8.2590  -17.0302 O   0  0  0  0  0  0  0  0  0  0  0  0
   17.2783   -7.2578  -17.4438 C   0  0  0  0  0  0  0  0  0  0  0  0
   17.6461   -7.1160  -18.7686 C   0  0  0  0  0  0  0  0  0  0  0  0
   18.5184   -6.1396  -19.2007 C   0  0  0  0  0  0  0  0  0  0  0  0
   19.0502   -5.2648  -18.2808 C   0  0  0  0  0  0  0  0  0  0  0  0
   19.9801   -4.2271  -18.7456 C   0  0  0  0  0  0  0  0  0  0  0  0
   21.3867   -4.7225  -18.9796 C   0  0  2  0  0  0  0  0  0  0  0  0
   22.1043   -3.6356  -19.6240 N   0  0  0  0  0  0  0  0  0  0  0  0
   21.4701   -5.9420  -19.7838 C   0  0  0  0  0  0  0  0  0  0  0  0
   21.3239   -7.1959  -19.2077 O   0  0  0  0  0  0  0  0  0  0  0  0
   18.7147   -5.3666  -16.9548 C   0  0  0  0  0  0  0  0  0  0  0  0
   17.8387   -6.3570  -16.5630 C   0  0  0  0  0  0  0  0  0  0  0  0
   21.6767   -5.8953  -21.0225 O   0  0  0  0  0  0  0  0  0  0  0  0
  2  1  1  0
  3  2  1  0
  3  4  1  6
  5  3  1  0
  6  5  2  0
  8  7  1  1
  8  9  1  0
 10  8  1  0
 11 10  1  1
 11 12  1  0
 12  5  1  0
 13 11  1  0
 14 13  2  0
 16 17  2  0
 16 15  1  0
 18 17  1  0
 19 18  2  0
 21 20  1  6
 20 19  1  0
 21 22  1  0
 22 13  1  0
 23 21  1  0
 23 24  1  0
 25 19  1  0
 25 26  2  0
 26 16  1  0
 27 23  2  0
M  END
$$$$
