SLY.pdb
     RDKit          3D

 27 27  0  0  1  0  0  0  0  0999 V2000
   24.9000   -5.7008  -20.5569 O   0  0  0  0  0  0  0  0  0  0  0  0
   24.1063   -6.4560  -19.6939 C   0  0  0  0  0  0  0  0  0  0  0  0
   24.3973   -7.9296  -19.8071 C   0  0  2  0  0  0  0  0  0  0  0  0
   24.1567   -8.4279  -21.1489 N   0  0  0  0  0  0  0  0  0  0  0  0
   23.5586   -8.6549  -18.8314 C   0  0  0  0  0  0  0  0  0  0  0  0
   22.4035   -9.0707  -19.1074 O   0  0  0  0  0  0  0  0  0  0  0  0
   25.5763  -12.6797  -15.7679 C   0  0  0  0  0  0  0  0  0  0  0  0
   24.6091  -11.8243  -16.5101 C   0  0  1  0  0  0  0  0  0  0  0  0
   23.4116  -12.6532  -16.9980 C   0  0  0  0  0  0  0  0  0  0  0  0
   24.1942  -10.5573  -15.8951 C   0  0  0  0  0  0  0  0  0  0  0  0
   23.2229   -9.6538  -16.5356 C   0  0  2  0  0  0  0  0  0  0  0  0
   24.0495   -8.9003  -17.5421 N   0  0  0  0  0  0  0  0  0  0  0  0
   22.5822   -8.6063  -15.7522 C   0  0  0  0  0  0  0  0  0  0  0  0
   23.2606   -7.8229  -15.0538 O   0  0  0  0  0  0  0  0  0  0  0  0
   23.8794   -2.7739  -17.6811 O   0  0  0  0  0  0  0  0  0  0  0  0
   22.9128   -3.6548  -17.1776 C   0  0  0  0  0  0  0  0  0  0  0  0
   22.2930   -4.5902  -17.9846 C   0  0  0  0  0  0  0  0  0  0  0  0
   21.3393   -5.4676  -17.5136 C   0  0  0  0  0  0  0  0  0  0  0  0
   20.9836   -5.4169  -16.1850 C   0  0  0  0  0  0  0  0  0  0  0  0
   19.9663   -6.3528  -15.6881 C   0  0  0  0  0  0  0  0  0  0  0  0
   20.5201   -7.4625  -14.8277 C   0  0  2  0  0  0  0  0  0  0  0  0
   21.1511   -8.4090  -15.7321 N   0  0  0  0  0  0  0  0  0  0  0  0
   19.5223   -8.1342  -13.9946 C   0  0  0  0  0  0  0  0  0  0  0  0
   18.8961   -7.4734  -12.9474 O   0  0  0  0  0  0  0  0  0  0  0  0
   21.5715   -4.5054  -15.3456 C   0  0  0  0  0  0  0  0  0  0  0  0
   22.5211   -3.6451  -15.8556 C   0  0  0  0  0  0  0  0  0  0  0  0
   19.1988   -9.3312  -14.1990 O   0  0  0  0  0  0  0  0  0  0  0  0
  2  1  1  0
  3  2  1  0
  3  4  1  6
  5  3  1  0
  6  5  2  0
  8  7  1  1
  8  9  1  0
 10  8  1  0
 11 10  1  1
 11 12  1  0
 12  5  1  0
 13 11  1  0
 14 13  2  0
 16 17  2  0
 16 15  1  0
 18 17  1  0
 19 18  2  0
 21 20  1  6
 20 19  1  0
 21 22  1  0
 22 13  1  0
 23 21  1  0
 23 24  1  0
 25 19  1  0
 25 26  2  0
 26 16  1  0
 27 23  2  0
M  END
$$$$
