SLY.pdb
     RDKit          3D

 27 27  0  0  1  0  0  0  0  0999 V2000
   18.9518  -12.8290  -18.9623 O   0  0  0  0  0  0  0  0  0  0  0  0
   19.7780  -12.1918  -18.0368 C   0  0  0  0  0  0  0  0  0  0  0  0
   20.7231  -13.1562  -17.3691 C   0  0  2  0  0  0  0  0  0  0  0  0
   20.0146  -14.1964  -16.6463 N   0  0  0  0  0  0  0  0  0  0  0  0
   21.6021  -12.4013  -16.4533 C   0  0  0  0  0  0  0  0  0  0  0  0
   21.2288  -12.0254  -15.3118 O   0  0  0  0  0  0  0  0  0  0  0  0
   27.6360  -11.6174  -15.8942 C   0  0  0  0  0  0  0  0  0  0  0  0
   26.2975  -11.0237  -15.6221 C   0  0  1  0  0  0  0  0  0  0  0  0
   26.3387   -9.4956  -15.7718 C   0  0  0  0  0  0  0  0  0  0  0  0
   25.1309  -11.6159  -16.2883 C   0  0  0  0  0  0  0  0  0  0  0  0
   23.7570  -11.1548  -16.0243 C   0  0  2  0  0  0  0  0  0  0  0  0
   22.9068  -12.0807  -16.8513 N   0  0  0  0  0  0  0  0  0  0  0  0
   23.3449   -9.8245  -16.4507 C   0  0  0  0  0  0  0  0  0  0  0  0
   23.3972   -9.4927  -17.6545 O   0  0  0  0  0  0  0  0  0  0  0  0
   19.3562   -1.9640  -16.7959 O   0  0  0  0  0  0  0  0  0  0  0  0
   19.7830   -3.2778  -16.5605 C   0  0  0  0  0  0  0  0  0  0  0  0
   20.1804   -3.6977  -15.3050 C   0  0  0  0  0  0  0  0  0  0  0  0
   20.6043   -4.9843  -15.0477 C   0  0  0  0  0  0  0  0  0  0  0  0
   20.6361   -5.8954  -16.0787 C   0  0  0  0  0  0  0  0  0  0  0  0
   21.0897   -7.2645  -15.8001 C   0  0  0  0  0  0  0  0  0  0  0  0
   22.5782   -7.4621  -15.9544 C   0  0  2  0  0  0  0  0  0  0  0  0
   22.8593   -8.8230  -15.5295 N   0  0  0  0  0  0  0  0  0  0  0  0
   23.3938   -6.5093  -15.2009 C   0  0  0  0  0  0  0  0  0  0  0  0
   23.8267   -5.3216  -15.7732 O   0  0  0  0  0  0  0  0  0  0  0  0
   20.2511   -5.5249  -17.3419 C   0  0  0  0  0  0  0  0  0  0  0  0
   19.8335   -4.2284  -17.5580 C   0  0  0  0  0  0  0  0  0  0  0  0
   23.7297   -6.7339  -14.0110 O   0  0  0  0  0  0  0  0  0  0  0  0
  2  1  1  0
  3  2  1  0
  3  4  1  1
  5  3  1  0
  6  5  2  0
  8  7  1  6
  8  9  1  0
 10  8  1  0
 11 10  1  6
 11 12  1  0
 12  5  1  0
 13 11  1  0
 14 13  2  0
 16 17  2  0
 16 15  1  0
 18 17  1  0
 19 18  2  0
 21 20  1  1
 20 19  1  0
 21 22  1  0
 22 13  1  0
 23 21  1  0
 23 24  1  0
 25 19  1  0
 25 26  2  0
 26 16  1  0
 27 23  2  0
M  END
$$$$
