SLY.pdb
     RDKit          3D

 27 27  0  0  1  0  0  0  0  0999 V2000
   23.6181  -23.8330  -18.5063 O   0  0  0  0  0  0  0  0  0  0  0  0
   24.9258  -24.2907  -18.3470 C   0  0  0  0  0  0  0  0  0  0  0  0
   25.2135  -24.6861  -16.9222 C   0  0  2  0  0  0  0  0  0  0  0  0
   24.4036  -25.8136  -16.4987 N   0  0  0  0  0  0  0  0  0  0  0  0
   24.9695  -23.5208  -16.0482 C   0  0  0  0  0  0  0  0  0  0  0  0
   24.0786  -23.5148  -15.1596 O   0  0  0  0  0  0  0  0  0  0  0  0
   26.6300  -18.1894  -14.2874 C   0  0  0  0  0  0  0  0  0  0  0  0
   26.9762  -19.0437  -15.4572 C   0  0  1  0  0  0  0  0  0  0  0  0
   28.3344  -18.6357  -16.0469 C   0  0  0  0  0  0  0  0  0  0  0  0
   26.8483  -20.4991  -15.3115 C   0  0  0  0  0  0  0  0  0  0  0  0
   25.5400  -21.1760  -15.3015 C   0  0  2  0  0  0  0  0  0  0  0  0
   25.7496  -22.3664  -16.1977 N   0  0  0  0  0  0  0  0  0  0  0  0
   24.3755  -20.5099  -15.8687 C   0  0  0  0  0  0  0  0  0  0  0  0
   24.3188  -20.2473  -17.0892 O   0  0  0  0  0  0  0  0  0  0  0  0
   18.2385  -24.4638  -15.1827 O   0  0  0  0  0  0  0  0  0  0  0  0
   19.0774  -23.4155  -15.5838 C   0  0  0  0  0  0  0  0  0  0  0  0
   18.7103  -22.0921  -15.4276 C   0  0  0  0  0  0  0  0  0  0  0  0
   19.5174  -21.0430  -15.8139 C   0  0  0  0  0  0  0  0  0  0  0  0
   20.7419  -21.3161  -16.3799 C   0  0  0  0  0  0  0  0  0  0  0  0
   21.5976  -20.1952  -16.7912 C   0  0  0  0  0  0  0  0  0  0  0  0
   22.1248  -19.3707  -15.6420 C   0  0  2  0  0  0  0  0  0  0  0  0
   23.2344  -20.1175  -15.0741 N   0  0  0  0  0  0  0  0  0  0  0  0
   21.1301  -19.0656  -14.6131 C   0  0  0  0  0  0  0  0  0  0  0  0
   19.9989  -18.3167  -14.9048 O   0  0  0  0  0  0  0  0  0  0  0  0
   21.1493  -22.6139  -16.5552 C   0  0  0  0  0  0  0  0  0  0  0  0
   20.3128  -23.6349  -16.1555 C   0  0  0  0  0  0  0  0  0  0  0  0
   21.2663  -19.4711  -13.4316 O   0  0  0  0  0  0  0  0  0  0  0  0
  2  1  1  0
  3  2  1  0
  3  4  1  1
  5  3  1  0
  6  5  2  0
  8  7  1  1
  8  9  1  0
 10  8  1  0
 11 10  1  6
 11 12  1  0
 12  5  1  0
 13 11  1  0
 14 13  2  0
 16 17  2  0
 16 15  1  0
 18 17  1  0
 19 18  2  0
 21 20  1  6
 20 19  1  0
 21 22  1  0
 22 13  1  0
 23 21  1  0
 23 24  1  0
 25 19  1  0
 25 26  2  0
 26 16  1  0
 27 23  2  0
M  END
$$$$
