SLY.pdb
     RDKit          3D

 27 27  0  0  1  0  0  0  0  0999 V2000
   23.5644  -13.1583  -21.1305 O   0  0  0  0  0  0  0  0  0  0  0  0
   23.8718  -12.3772  -20.0167 C   0  0  0  0  0  0  0  0  0  0  0  0
   23.4279  -13.0287  -18.7332 C   0  0  2  0  0  0  0  0  0  0  0  0
   22.0173  -13.3696  -18.7582 N   0  0  0  0  0  0  0  0  0  0  0  0
   23.7153  -12.1115  -17.6118 C   0  0  0  0  0  0  0  0  0  0  0  0
   23.3450  -12.3463  -16.4322 O   0  0  0  0  0  0  0  0  0  0  0  0
   28.6603  -10.1481  -17.0137 C   0  0  0  0  0  0  0  0  0  0  0  0
   27.2842  -10.5286  -16.5900 C   0  0  1  0  0  0  0  0  0  0  0  0
   27.2542  -10.8911  -15.0978 C   0  0  0  0  0  0  0  0  0  0  0  0
   26.1754   -9.6440  -16.9691 C   0  0  0  0  0  0  0  0  0  0  0  0
   24.7674   -9.9963  -16.7173 C   0  0  2  0  0  0  0  0  0  0  0  0
   24.4270  -10.9280  -17.8488 N   0  0  0  0  0  0  0  0  0  0  0  0
   23.7394   -8.9670  -16.7881 C   0  0  0  0  0  0  0  0  0  0  0  0
   23.5248   -8.3479  -17.8522 O   0  0  0  0  0  0  0  0  0  0  0  0
   17.8067  -12.5643  -15.1219 O   0  0  0  0  0  0  0  0  0  0  0  0
   18.5645  -11.4592  -15.5318 C   0  0  0  0  0  0  0  0  0  0  0  0
   19.6044  -11.5868  -16.4334 C   0  0  0  0  0  0  0  0  0  0  0  0
   20.3647  -10.5155  -16.8524 C   0  0  0  0  0  0  0  0  0  0  0  0
   20.0832   -9.2626  -16.3570 C   0  0  0  0  0  0  0  0  0  0  0  0
   20.8967   -8.1247  -16.8052 C   0  0  0  0  0  0  0  0  0  0  0  0
   21.8613   -7.6109  -15.7640 C   0  0  2  0  0  0  0  0  0  0  0  0
   22.9181   -8.6025  -15.6567 N   0  0  0  0  0  0  0  0  0  0  0  0
   21.2574   -7.3592  -14.4552 C   0  0  0  0  0  0  0  0  0  0  0  0
   21.6992   -8.0220  -13.3190 O   0  0  0  0  0  0  0  0  0  0  0  0
   19.0606   -9.0869  -15.4600 C   0  0  0  0  0  0  0  0  0  0  0  0
   18.3237  -10.1840  -15.0660 C   0  0  0  0  0  0  0  0  0  0  0  0
   20.3191   -6.5350  -14.3158 O   0  0  0  0  0  0  0  0  0  0  0  0
  2  1  1  0
  3  2  1  0
  3  4  1  6
  5  3  1  0
  6  5  2  0
  8  7  1  1
  8  9  1  0
 10  8  1  0
 11 10  1  6
 11 12  1  0
 12  5  1  0
 13 11  1  0
 14 13  2  0
 16 17  2  0
 16 15  1  0
 18 17  1  0
 19 18  2  0
 21 20  1  6
 20 19  1  0
 21 22  1  0
 22 13  1  0
 23 21  1  0
 23 24  1  0
 25 19  1  0
 25 26  2  0
 26 16  1  0
 27 23  2  0
M  END
$$$$
