SLY.pdb
     RDKit          3D

 27 27  0  0  1  0  0  0  0  0999 V2000
   25.9044  -17.2957  -16.1042 O   0  0  0  0  0  0  0  0  0  0  0  0
   26.0411  -18.6537  -15.8172 C   0  0  0  0  0  0  0  0  0  0  0  0
   27.4869  -19.0655  -15.7220 C   0  0  2  0  0  0  0  0  0  0  0  0
   28.0722  -19.2948  -17.0302 N   0  0  0  0  0  0  0  0  0  0  0  0
   27.5787  -20.2869  -14.8967 C   0  0  0  0  0  0  0  0  0  0  0  0
   27.6156  -21.4413  -15.3962 O   0  0  0  0  0  0  0  0  0  0  0  0
   31.2542  -20.6090  -11.2342 C   0  0  0  0  0  0  0  0  0  0  0  0
   30.2118  -21.0684  -12.1935 C   0  0  1  0  0  0  0  0  0  0  0  0
   30.6475  -22.3651  -12.8918 C   0  0  0  0  0  0  0  0  0  0  0  0
   28.8214  -21.1296  -11.7257 C   0  0  0  0  0  0  0  0  0  0  0  0
   27.6974  -21.4081  -12.6361 C   0  0  2  0  0  0  0  0  0  0  0  0
   27.6278  -20.1784  -13.5005 N   0  0  0  0  0  0  0  0  0  0  0  0
   26.3485  -21.5395  -12.1026 C   0  0  0  0  0  0  0  0  0  0  0  0
   26.0483  -22.4878  -11.3461 O   0  0  0  0  0  0  0  0  0  0  0  0
   26.6107  -20.5483   -5.9772 O   0  0  0  0  0  0  0  0  0  0  0  0
   25.9304  -20.3072   -7.1783 C   0  0  0  0  0  0  0  0  0  0  0  0
   24.8010  -21.0228   -7.5287 C   0  0  0  0  0  0  0  0  0  0  0  0
   24.1140  -20.8047   -8.7042 C   0  0  0  0  0  0  0  0  0  0  0  0
   24.5650  -19.8354   -9.5710 C   0  0  0  0  0  0  0  0  0  0  0  0
   23.8307  -19.6076  -10.8227 C   0  0  0  0  0  0  0  0  0  0  0  0
   23.9656  -20.7265  -11.8267 C   0  0  2  0  0  0  0  0  0  0  0  0
   25.2922  -20.6018  -12.4067 N   0  0  0  0  0  0  0  0  0  0  0  0
   22.9441  -20.7227  -12.8742 C   0  0  0  0  0  0  0  0  0  0  0  0
   21.6196  -21.0229  -12.5893 O   0  0  0  0  0  0  0  0  0  0  0  0
   25.6816  -19.0997   -9.2661 C   0  0  0  0  0  0  0  0  0  0  0  0
   26.3405  -19.3485   -8.0804 C   0  0  0  0  0  0  0  0  0  0  0  0
   23.2311  -20.4476  -14.0663 O   0  0  0  0  0  0  0  0  0  0  0  0
  2  1  1  0
  3  2  1  0
  3  4  1  6
  5  3  1  0
  6  5  2  0
  8  7  1  1
  8  9  1  0
 10  8  1  0
 11 10  1  1
 11 12  1  0
 12  5  1  0
 13 11  1  0
 14 13  2  0
 16 17  2  0
 16 15  1  0
 18 17  1  0
 19 18  2  0
 21 20  1  1
 20 19  1  0
 21 22  1  0
 22 13  1  0
 23 21  1  0
 23 24  1  0
 25 19  1  0
 25 26  2  0
 26 16  1  0
 27 23  2  0
M  END
$$$$
