VWN.pdb
     RDKit          3D

 30 31  0  0  1  0  0  0  0  0999 V2000
    9.3790  -19.2370   19.7446 C   0  0  0  0  0  0  0  0  0  0  0  0
    9.3525  -18.1944   18.6832 C   0  0  1  0  0  0  0  0  0  0  0  0
    9.1796  -18.8426   17.3440 C   0  0  0  0  0  0  0  0  0  0  0  0
    8.3796  -17.0655   18.9151 C   0  0  2  0  0  0  0  0  0  0  0  0
    8.6303  -16.0726   17.8556 N   0  0  0  0  0  0  0  0  0  0  0  0
    8.6104  -16.3939   20.2101 C   0  0  0  0  0  0  0  0  0  0  0  0
    9.6265  -15.6091   20.3119 O   0  0  0  0  0  0  0  0  0  0  0  0
    7.7832  -16.5588   21.3429 N   0  0  0  0  0  0  0  0  0  0  0  0
    8.1202  -15.8829   22.5812 C   0  0  1  0  0  0  0  0  0  0  0  0
    6.9033  -15.6948   23.4339 C   0  0  0  0  0  0  0  0  0  0  0  0
    7.1277  -15.1933   24.7826 C   0  0  0  0  0  0  0  0  0  0  0  0
    7.5549  -15.9936   25.8530 C   0  0  0  0  0  0  0  0  0  0  0  0
    7.6768  -15.1730   26.8947 N   0  0  0  0  0  0  0  0  0  0  0  0
    7.3575  -13.8920   26.5763 C   0  0  0  0  0  0  0  0  0  0  0  0
    7.3238  -12.7176   27.3033 C   0  0  0  0  0  0  0  0  0  0  0  0
    6.9463  -11.5281   26.7353 C   0  0  0  0  0  0  0  0  0  0  0  0
    6.5954  -11.5229   25.4053 C   0  0  0  0  0  0  0  0  0  0  0  0
    6.6343  -12.7044   24.6918 C   0  0  0  0  0  0  0  0  0  0  0  0
    7.0144  -13.9225   25.2471 C   0  0  0  0  0  0  0  0  0  0  0  0
    9.2930  -16.4900   23.1911 C   0  0  0  0  0  0  0  0  0  0  0  0
    9.3131  -17.7727   23.2400 O   0  0  0  0  0  0  0  0  0  0  0  0
   14.1635  -17.7613   23.7942 N   0  0  0  0  0  0  0  0  0  0  0  0
   14.0249  -16.3346   24.0147 C   0  0  0  0  0  0  0  0  0  0  0  0
   14.9908  -15.6877   24.4552 O   0  0  0  0  0  0  0  0  0  0  0  0
   12.7523  -15.7098   23.7094 C   0  0  0  0  0  0  0  0  0  0  0  0
   11.5871  -16.6005   24.1020 C   0  0  2  0  0  0  0  0  0  0  0  0
   10.4026  -15.7961   23.7221 N   0  0  0  0  0  0  0  0  0  0  0  0
   11.5500  -16.8605   25.5468 C   0  0  0  0  0  0  0  0  0  0  0  0
   12.0102  -18.0800   26.0599 O   0  0  0  0  0  0  0  0  0  0  0  0
   11.1157  -16.0266   26.3563 O   0  0  0  0  0  0  0  0  0  0  0  0
  2  1  1  1
  2  3  1  0
  4  2  1  0
  4  5  1  6
  6  7  2  0
  6  4  1  0
  8  6  1  0
  9  8  1  0
  9 10  1  1
 10 11  1  0
 11 19  1  0
 11 12  2  0
 12 13  1  0
 13 14  1  0
 14 15  2  0
 16 15  1  0
 17 16  2  0
 18 19  2  0
 18 17  1  0
 19 14  1  0
 20 21  2  0
 20  9  1  0
 23 22  1  0
 23 25  1  0
 24 23  2  0
 26 25  1  1
 26 27  1  0
 27 20  1  0
 28 26  1  0
 29 28  1  0
 30 28  2  0
M  END
$$$$
