VWN.pdb
     RDKit          3D

 30 31  0  0  1  0  0  0  0  0999 V2000
    9.0005  -16.3099   19.6613 C   0  0  0  0  0  0  0  0  0  0  0  0
    8.3513  -14.9728   19.7332 C   0  0  1  0  0  0  0  0  0  0  0  0
    7.6433  -14.6863   18.4447 C   0  0  0  0  0  0  0  0  0  0  0  0
    7.4780  -14.7463   20.9418 C   0  0  2  0  0  0  0  0  0  0  0  0
    6.8969  -13.4006   20.7921 N   0  0  0  0  0  0  0  0  0  0  0  0
    8.2578  -14.7512   22.1961 C   0  0  0  0  0  0  0  0  0  0  0  0
    8.9138  -13.6866   22.5046 O   0  0  0  0  0  0  0  0  0  0  0  0
    8.3259  -15.8517   23.0785 N   0  0  0  0  0  0  0  0  0  0  0  0
    9.1420  -15.7624   24.2743 C   0  0  1  0  0  0  0  0  0  0  0  0
    8.3079  -15.9505   25.5040 C   0  0  0  0  0  0  0  0  0  0  0  0
    7.2830  -14.9461   25.7524 C   0  0  0  0  0  0  0  0  0  0  0  0
    5.9053  -15.2091   25.7135 C   0  0  0  0  0  0  0  0  0  0  0  0
    5.3070  -14.0612   26.0260 N   0  0  0  0  0  0  0  0  0  0  0  0
    6.2010  -13.0674   26.2654 C   0  0  0  0  0  0  0  0  0  0  0  0
    6.0650  -11.7358   26.6077 C   0  0  0  0  0  0  0  0  0  0  0  0
    7.1539  -10.9219   26.7864 C   0  0  0  0  0  0  0  0  0  0  0  0
    8.4071  -11.4629   26.6164 C   0  0  0  0  0  0  0  0  0  0  0  0
    8.5271  -12.7953   26.2745 C   0  0  0  0  0  0  0  0  0  0  0  0
    7.4366  -13.6396   26.0886 C   0  0  0  0  0  0  0  0  0  0  0  0
   10.3426  -16.5715   24.1345 C   0  0  0  0  0  0  0  0  0  0  0  0
   10.8979  -16.9640   25.2235 O   0  0  0  0  0  0  0  0  0  0  0  0
   10.4262  -18.5325   20.0750 N   0  0  0  0  0  0  0  0  0  0  0  0
   11.1125  -18.9892   21.2681 C   0  0  0  0  0  0  0  0  0  0  0  0
   10.6243  -19.9167   21.9366 O   0  0  0  0  0  0  0  0  0  0  0  0
   12.3551  -18.3408   21.6401 C   0  0  0  0  0  0  0  0  0  0  0  0
   12.2442  -17.6605   22.9929 C   0  0  2  0  0  0  0  0  0  0  0  0
   10.9391  -16.9638   22.9160 N   0  0  0  0  0  0  0  0  0  0  0  0
   13.3076  -16.6700   23.2045 C   0  0  0  0  0  0  0  0  0  0  0  0
   12.9906  -15.3186   23.3925 O   0  0  0  0  0  0  0  0  0  0  0  0
   14.5077  -16.9842   23.2230 O   0  0  0  0  0  0  0  0  0  0  0  0
  2  1  1  6
  2  3  1  0
  4  2  1  0
  4  5  1  6
  6  7  2  0
  6  4  1  0
  8  6  1  0
  9  8  1  0
  9 10  1  1
 10 11  1  0
 11 19  1  0
 11 12  2  0
 12 13  1  0
 13 14  1  0
 14 15  2  0
 16 15  1  0
 17 16  2  0
 18 19  2  0
 18 17  1  0
 19 14  1  0
 20 21  2  0
 20  9  1  0
 23 22  1  0
 23 25  1  0
 24 23  2  0
 26 25  1  6
 26 27  1  0
 27 20  1  0
 28 26  1  0
 29 28  1  0
 30 28  2  0
M  END
$$$$
