VWN.pdb
     RDKit          3D

 30 31  0  0  1  0  0  0  0  0999 V2000
   10.3688  -20.5261   21.4429 C   0  0  0  0  0  0  0  0  0  0  0  0
   10.2149  -19.9775   20.0682 C   0  0  1  0  0  0  0  0  0  0  0  0
   10.1562  -21.1019   19.0804 C   0  0  0  0  0  0  0  0  0  0  0  0
    9.0905  -18.9876   19.8932 C   0  0  2  0  0  0  0  0  0  0  0  0
    9.1363  -18.5464   18.4881 N   0  0  0  0  0  0  0  0  0  0  0  0
    9.2731  -17.7888   20.7363 C   0  0  0  0  0  0  0  0  0  0  0  0
   10.2394  -16.9877   20.4476 O   0  0  0  0  0  0  0  0  0  0  0  0
    8.4510  -17.4669   21.8386 N   0  0  0  0  0  0  0  0  0  0  0  0
    8.7313  -16.2764   22.6184 C   0  0  1  0  0  0  0  0  0  0  0  0
    7.4939  -15.4510   22.7943 C   0  0  0  0  0  0  0  0  0  0  0  0
    7.6430  -14.2097   23.5411 C   0  0  0  0  0  0  0  0  0  0  0  0
    8.2876  -13.0686   23.0398 C   0  0  0  0  0  0  0  0  0  0  0  0
    8.1862  -12.1450   23.9938 N   0  0  0  0  0  0  0  0  0  0  0  0
    7.5197  -12.6066   25.0833 C   0  0  0  0  0  0  0  0  0  0  0  0
    7.1804  -12.0368   26.2954 C   0  0  0  0  0  0  0  0  0  0  0  0
    6.4970  -12.7373   27.2558 C   0  0  0  0  0  0  0  0  0  0  0  0
    6.1481  -14.0406   26.9878 C   0  0  0  0  0  0  0  0  0  0  0  0
    6.4939  -14.5961   25.7720 C   0  0  0  0  0  0  0  0  0  0  0  0
    7.1866  -13.9043   24.7829 C   0  0  0  0  0  0  0  0  0  0  0  0
    9.5005  -16.6135   23.8060 C   0  0  0  0  0  0  0  0  0  0  0  0
    9.1438  -17.6732   24.4368 O   0  0  0  0  0  0  0  0  0  0  0  0
   13.7834  -15.7270   22.9652 N   0  0  0  0  0  0  0  0  0  0  0  0
   13.4229  -16.5658   24.0920 C   0  0  0  0  0  0  0  0  0  0  0  0
   13.6844  -17.7807   24.0577 O   0  0  0  0  0  0  0  0  0  0  0  0
   12.7649  -15.9497   25.2279 C   0  0  0  0  0  0  0  0  0  0  0  0
   11.3637  -16.5004   25.4249 C   0  0  2  0  0  0  0  0  0  0  0  0
   10.5990  -15.8861   24.3148 N   0  0  0  0  0  0  0  0  0  0  0  0
   10.7776  -16.0807   26.7042 C   0  0  0  0  0  0  0  0  0  0  0  0
   11.1012  -16.7562   27.8879 O   0  0  0  0  0  0  0  0  0  0  0  0
    9.9853  -15.1295   26.7865 O   0  0  0  0  0  0  0  0  0  0  0  0
  2  1  1  1
  2  3  1  0
  4  2  1  0
  4  5  1  6
  6  7  2  0
  6  4  1  0
  8  6  1  0
  9  8  1  0
  9 10  1  1
 10 11  1  0
 11 19  1  0
 11 12  2  0
 12 13  1  0
 13 14  1  0
 14 15  2  0
 16 15  1  0
 17 16  2  0
 18 19  2  0
 18 17  1  0
 19 14  1  0
 20 21  2  0
 20  9  1  0
 23 22  1  0
 23 25  1  0
 24 23  2  0
 26 25  1  1
 26 27  1  0
 27 20  1  0
 28 26  1  0
 29 28  1  0
 30 28  2  0
M  END
$$$$
