VWN.pdb
     RDKit          3D

 30 31  0  0  1  0  0  0  0  0999 V2000
    8.5865  -12.3548   20.2264 C   0  0  0  0  0  0  0  0  0  0  0  0
    7.6662  -13.5195   20.3297 C   0  0  1  0  0  0  0  0  0  0  0  0
    6.6679  -13.4738   19.2140 C   0  0  0  0  0  0  0  0  0  0  0  0
    8.3406  -14.8628   20.4546 C   0  0  2  0  0  0  0  0  0  0  0  0
    7.2642  -15.8655   20.5369 N   0  0  0  0  0  0  0  0  0  0  0  0
    9.1358  -14.9690   21.6947 C   0  0  0  0  0  0  0  0  0  0  0  0
   10.2013  -14.2523   21.7931 O   0  0  0  0  0  0  0  0  0  0  0  0
    8.7973  -15.8073   22.7796 N   0  0  0  0  0  0  0  0  0  0  0  0
    9.5957  -15.7709   23.9901 C   0  0  1  0  0  0  0  0  0  0  0  0
    8.7697  -16.1376   25.1845 C   0  0  0  0  0  0  0  0  0  0  0  0
    7.6616  -15.2485   25.5044 C   0  0  0  0  0  0  0  0  0  0  0  0
    6.3174  -15.6504   25.5228 C   0  0  0  0  0  0  0  0  0  0  0  0
    5.6216  -14.5761   25.8905 N   0  0  0  0  0  0  0  0  0  0  0  0
    6.4208  -13.5008   26.1125 C   0  0  0  0  0  0  0  0  0  0  0  0
    6.1672  -12.1971   26.4931 C   0  0  0  0  0  0  0  0  0  0  0  0
    7.1755  -11.2797   26.6411 C   0  0  0  0  0  0  0  0  0  0  0  0
    8.4673  -11.6860   26.4001 C   0  0  0  0  0  0  0  0  0  0  0  0
    8.7050  -12.9921   26.0207 C   0  0  0  0  0  0  0  0  0  0  0  0
    7.6980  -13.9399   25.8649 C   0  0  0  0  0  0  0  0  0  0  0  0
   10.8556  -16.4701   23.7917 C   0  0  0  0  0  0  0  0  0  0  0  0
   10.8027  -17.5665   23.1259 O   0  0  0  0  0  0  0  0  0  0  0  0
   16.1911  -16.3735   22.0873 N   0  0  0  0  0  0  0  0  0  0  0  0
   15.6768  -16.4534   23.4409 C   0  0  0  0  0  0  0  0  0  0  0  0
   16.3355  -17.0493   24.3107 O   0  0  0  0  0  0  0  0  0  0  0  0
   14.4011  -15.8284   23.7322 C   0  0  0  0  0  0  0  0  0  0  0  0
   13.2945  -16.8594   23.8661 C   0  0  2  0  0  0  0  0  0  0  0  0
   12.1196  -16.0466   24.2581 N   0  0  0  0  0  0  0  0  0  0  0  0
   13.5756  -17.8408   24.9218 C   0  0  0  0  0  0  0  0  0  0  0  0
   14.1343  -19.0850   24.6026 O   0  0  0  0  0  0  0  0  0  0  0  0
   13.3323  -17.6124   26.1167 O   0  0  0  0  0  0  0  0  0  0  0  0
  2  1  1  6
  2  3  1  0
  4  2  1  0
  4  5  1  1
  6  7  2  0
  6  4  1  0
  8  6  1  0
  9  8  1  0
  9 10  1  1
 10 11  1  0
 11 19  1  0
 11 12  2  0
 12 13  1  0
 13 14  1  0
 14 15  2  0
 16 15  1  0
 17 16  2  0
 18 19  2  0
 18 17  1  0
 19 14  1  0
 20 21  2  0
 20  9  1  0
 23 22  1  0
 23 25  1  0
 24 23  2  0
 26 25  1  1
 26 27  1  0
 27 20  1  0
 28 26  1  0
 29 28  1  0
 30 28  2  0
M  END
$$$$
