VWN.pdb
     RDKit          3D

 30 31  0  0  1  0  0  0  0  0999 V2000
    8.6971  -17.9933   20.0763 C   0  0  0  0  0  0  0  0  0  0  0  0
    8.2058  -16.6491   19.6687 C   0  0  1  0  0  0  0  0  0  0  0  0
    7.4285  -16.7619   18.3932 C   0  0  0  0  0  0  0  0  0  0  0  0
    7.4660  -15.8837   20.7371 C   0  0  2  0  0  0  0  0  0  0  0  0
    7.1216  -14.5758   20.1526 N   0  0  0  0  0  0  0  0  0  0  0  0
    8.3125  -15.6272   21.9199 C   0  0  0  0  0  0  0  0  0  0  0  0
    9.2085  -14.7061   21.8341 O   0  0  0  0  0  0  0  0  0  0  0  0
    8.1974  -16.3295   23.1398 N   0  0  0  0  0  0  0  0  0  0  0  0
    9.1325  -16.0572   24.2147 C   0  0  1  0  0  0  0  0  0  0  0  0
    8.4355  -16.0591   25.5405 C   0  0  0  0  0  0  0  0  0  0  0  0
    7.3797  -15.0722   25.7195 C   0  0  0  0  0  0  0  0  0  0  0  0
    6.0107  -15.3680   25.6342 C   0  0  0  0  0  0  0  0  0  0  0  0
    5.3753  -14.2260   25.8899 N   0  0  0  0  0  0  0  0  0  0  0  0
    6.2369  -13.2055   26.1357 C   0  0  0  0  0  0  0  0  0  0  0  0
    6.0581  -11.8685   26.4341 C   0  0  0  0  0  0  0  0  0  0  0  0
    7.1208  -11.0250   26.6321 C   0  0  0  0  0  0  0  0  0  0  0  0
    8.3914  -11.5413   26.5269 C   0  0  0  0  0  0  0  0  0  0  0  0
    8.5542  -12.8795   26.2283 C   0  0  0  0  0  0  0  0  0  0  0  0
    7.4909  -13.7537   26.0240 C   0  0  0  0  0  0  0  0  0  0  0  0
   10.3272  -16.8744   24.0713 C   0  0  0  0  0  0  0  0  0  0  0  0
   10.3242  -17.7288   23.1131 O   0  0  0  0  0  0  0  0  0  0  0  0
   14.0373  -15.5625   21.0390 N   0  0  0  0  0  0  0  0  0  0  0  0
   13.1866  -16.3797   21.8825 C   0  0  0  0  0  0  0  0  0  0  0  0
   12.7773  -17.4747   21.4594 O   0  0  0  0  0  0  0  0  0  0  0  0
   12.8423  -15.8845   23.2012 C   0  0  0  0  0  0  0  0  0  0  0  0
   12.7898  -17.0081   24.2211 C   0  0  2  0  0  0  0  0  0  0  0  0
   11.4805  -16.8039   24.8833 N   0  0  0  0  0  0  0  0  0  0  0  0
   13.8586  -16.8989   25.2221 C   0  0  0  0  0  0  0  0  0  0  0  0
   15.1511  -17.3546   24.9320 O   0  0  0  0  0  0  0  0  0  0  0  0
   13.6632  -16.4093   26.3452 O   0  0  0  0  0  0  0  0  0  0  0  0
  2  1  1  1
  2  3  1  0
  4  2  1  0
  4  5  1  6
  6  7  2  0
  6  4  1  0
  8  6  1  0
  9  8  1  0
  9 10  1  1
 10 11  1  0
 11 19  1  0
 11 12  2  0
 12 13  1  0
 13 14  1  0
 14 15  2  0
 16 15  1  0
 17 16  2  0
 18 19  2  0
 18 17  1  0
 19 14  1  0
 20 21  2  0
 20  9  1  0
 23 22  1  0
 23 25  1  0
 24 23  2  0
 26 25  1  6
 26 27  1  0
 27 20  1  0
 28 26  1  0
 29 28  1  0
 30 28  2  0
M  END
$$$$
