VWN.pdb
     RDKit          3D

 30 31  0  0  1  0  0  0  0  0999 V2000
    8.3325  -12.5039   20.0930 C   0  0  0  0  0  0  0  0  0  0  0  0
    7.5478  -13.7630   20.2077 C   0  0  1  0  0  0  0  0  0  0  0  0
    6.5943  -13.8694   19.0574 C   0  0  0  0  0  0  0  0  0  0  0  0
    8.3659  -15.0146   20.4052 C   0  0  2  0  0  0  0  0  0  0  0  0
    7.4097  -16.1338   20.4693 N   0  0  0  0  0  0  0  0  0  0  0  0
    9.1062  -14.9953   21.6830 C   0  0  0  0  0  0  0  0  0  0  0  0
   10.0687  -14.1493   21.8117 O   0  0  0  0  0  0  0  0  0  0  0  0
    8.8212  -15.8470   22.7730 N   0  0  0  0  0  0  0  0  0  0  0  0
    9.6429  -15.7834   23.9665 C   0  0  1  0  0  0  0  0  0  0  0  0
    8.8315  -16.0846   25.1889 C   0  0  0  0  0  0  0  0  0  0  0  0
    7.6781  -15.2285   25.4288 C   0  0  0  0  0  0  0  0  0  0  0  0
    6.3477  -15.6539   25.2949 C   0  0  0  0  0  0  0  0  0  0  0  0
    5.5957  -14.6076   25.6315 N   0  0  0  0  0  0  0  0  0  0  0  0
    6.3455  -13.5287   25.9751 C   0  0  0  0  0  0  0  0  0  0  0  0
    6.0273  -12.2461   26.3783 C   0  0  0  0  0  0  0  0  0  0  0  0
    6.9957  -11.3183   26.6635 C   0  0  0  0  0  0  0  0  0  0  0  0
    8.3136  -11.6922   26.5395 C   0  0  0  0  0  0  0  0  0  0  0  0
    8.6160  -12.9775   26.1357 C   0  0  0  0  0  0  0  0  0  0  0  0
    7.6502  -13.9353   25.8416 C   0  0  0  0  0  0  0  0  0  0  0  0
   10.8825  -16.5195   23.7726 C   0  0  0  0  0  0  0  0  0  0  0  0
   10.7719  -17.7194   23.3297 O   0  0  0  0  0  0  0  0  0  0  0  0
   14.0375  -14.4130   21.5794 N   0  0  0  0  0  0  0  0  0  0  0  0
   14.1389  -15.8163   21.9311 C   0  0  0  0  0  0  0  0  0  0  0  0
   13.9836  -16.6797   21.0503 O   0  0  0  0  0  0  0  0  0  0  0  0
   14.4212  -16.1631   23.3106 C   0  0  0  0  0  0  0  0  0  0  0  0
   13.3031  -16.9937   23.9151 C   0  0  2  0  0  0  0  0  0  0  0  0
   12.1835  -16.0294   24.0206 N   0  0  0  0  0  0  0  0  0  0  0  0
   13.6419  -17.4876   25.2560 C   0  0  0  0  0  0  0  0  0  0  0  0
   12.9083  -17.0670   26.3727 O   0  0  0  0  0  0  0  0  0  0  0  0
   14.5756  -18.2811   25.4504 O   0  0  0  0  0  0  0  0  0  0  0  0
  2  1  1  6
  2  3  1  0
  4  2  1  0
  4  5  1  1
  6  7  2  0
  6  4  1  0
  8  6  1  0
  9  8  1  0
  9 10  1  1
 10 11  1  0
 11 19  1  0
 11 12  2  0
 12 13  1  0
 13 14  1  0
 14 15  2  0
 16 15  1  0
 17 16  2  0
 18 19  2  0
 18 17  1  0
 19 14  1  0
 20 21  2  0
 20  9  1  0
 23 22  1  0
 23 25  1  0
 24 23  2  0
 26 25  1  1
 26 27  1  0
 27 20  1  0
 28 26  1  0
 29 28  1  0
 30 28  2  0
M  END
$$$$
