VWN.pdb
     RDKit          3D

 30 31  0  0  1  0  0  0  0  0999 V2000
   10.6033  -19.6871   21.2097 C   0  0  0  0  0  0  0  0  0  0  0  0
    9.7852  -18.6366   20.5452 C   0  0  1  0  0  0  0  0  0  0  0  0
    9.4241  -19.0795   19.1606 C   0  0  0  0  0  0  0  0  0  0  0  0
    8.5929  -18.1556   21.3336 C   0  0  2  0  0  0  0  0  0  0  0  0
    7.9367  -17.1232   20.5122 N   0  0  0  0  0  0  0  0  0  0  0  0
    8.9913  -17.5180   22.6049 C   0  0  0  0  0  0  0  0  0  0  0  0
    9.6266  -16.3991   22.5472 O   0  0  0  0  0  0  0  0  0  0  0  0
    8.7162  -18.0600   23.8796 N   0  0  0  0  0  0  0  0  0  0  0  0
    9.2948  -17.4464   25.0597 C   0  0  1  0  0  0  0  0  0  0  0  0
    8.2397  -17.1612   26.0838 C   0  0  0  0  0  0  0  0  0  0  0  0
    7.3651  -16.0281   25.8157 C   0  0  0  0  0  0  0  0  0  0  0  0
    6.0691  -16.1479   25.2915 C   0  0  0  0  0  0  0  0  0  0  0  0
    5.5869  -14.9083   25.2268 N   0  0  0  0  0  0  0  0  0  0  0  0
    6.4808  -13.9882   25.6727 C   0  0  0  0  0  0  0  0  0  0  0  0
    6.4425  -12.6120   25.7886 C   0  0  0  0  0  0  0  0  0  0  0  0
    7.5092  -11.8988   26.2719 C   0  0  0  0  0  0  0  0  0  0  0  0
    8.6389  -12.5885   26.6463 C   0  0  0  0  0  0  0  0  0  0  0  0
    8.6621  -13.9637   26.5247 C   0  0  0  0  0  0  0  0  0  0  0  0
    7.5917  -14.7079   26.0377 C   0  0  0  0  0  0  0  0  0  0  0  0
   10.4790  -18.1757   25.4857 C   0  0  0  0  0  0  0  0  0  0  0  0
   10.3881  -19.4562   25.4993 O   0  0  0  0  0  0  0  0  0  0  0  0
   15.0852  -19.8290   26.8624 N   0  0  0  0  0  0  0  0  0  0  0  0
   15.2452  -18.5304   26.2369 C   0  0  0  0  0  0  0  0  0  0  0  0
   16.3878  -18.1102   25.9850 O   0  0  0  0  0  0  0  0  0  0  0  0
   14.0546  -17.7635   25.9251 C   0  0  0  0  0  0  0  0  0  0  0  0
   12.7918  -18.5277   26.2808 C   0  0  2  0  0  0  0  0  0  0  0  0
   11.7093  -17.6015   25.8745 N   0  0  0  0  0  0  0  0  0  0  0  0
   12.6882  -18.7873   27.7225 C   0  0  0  0  0  0  0  0  0  0  0  0
   11.6721  -18.1900   28.4793 O   0  0  0  0  0  0  0  0  0  0  0  0
   13.4831  -19.5311   28.3176 O   0  0  0  0  0  0  0  0  0  0  0  0
  2  1  1  1
  2  3  1  0
  4  2  1  0
  4  5  1  6
  6  7  2  0
  6  4  1  0
  8  6  1  0
  9  8  1  0
  9 10  1  1
 10 11  1  0
 11 19  1  0
 11 12  2  0
 12 13  1  0
 13 14  1  0
 14 15  2  0
 16 15  1  0
 17 16  2  0
 18 19  2  0
 18 17  1  0
 19 14  1  0
 20 21  2  0
 20  9  1  0
 23 22  1  0
 23 25  1  0
 24 23  2  0
 26 25  1  1
 26 27  1  0
 27 20  1  0
 28 26  1  0
 29 28  1  0
 30 28  2  0
M  END
$$$$
