VWN.pdb
     RDKit          3D

 30 31  0  0  1  0  0  0  0  0999 V2000
    6.5401  -16.6500   18.7169 C   0  0  0  0  0  0  0  0  0  0  0  0
    7.4729  -16.5252   19.8696 C   0  0  1  0  0  0  0  0  0  0  0  0
    8.8877  -16.5546   19.3786 C   0  0  0  0  0  0  0  0  0  0  0  0
    7.2002  -15.3657   20.7947 C   0  0  2  0  0  0  0  0  0  0  0  0
    7.3330  -14.1428   19.9835 N   0  0  0  0  0  0  0  0  0  0  0  0
    8.1948  -15.2811   21.8832 C   0  0  0  0  0  0  0  0  0  0  0  0
    9.2058  -14.5001   21.7195 O   0  0  0  0  0  0  0  0  0  0  0  0
    8.1034  -16.0033   23.0934 N   0  0  0  0  0  0  0  0  0  0  0  0
    9.1063  -15.8072   24.1228 C   0  0  1  0  0  0  0  0  0  0  0  0
    8.4804  -15.8080   25.4836 C   0  0  0  0  0  0  0  0  0  0  0  0
    7.4018  -14.8542   25.7018 C   0  0  0  0  0  0  0  0  0  0  0  0
    6.0402  -15.1903   25.6560 C   0  0  0  0  0  0  0  0  0  0  0  0
    5.3793  -14.0694   25.9392 N   0  0  0  0  0  0  0  0  0  0  0  0
    6.2174  -13.0252   26.1661 C   0  0  0  0  0  0  0  0  0  0  0  0
    6.0082  -11.6959   26.4795 C   0  0  0  0  0  0  0  0  0  0  0  0
    7.0510  -10.8224   26.6511 C   0  0  0  0  0  0  0  0  0  0  0  0
    8.3326  -11.2998   26.5036 C   0  0  0  0  0  0  0  0  0  0  0  0
    8.5258  -12.6307   26.1904 C   0  0  0  0  0  0  0  0  0  0  0  0
    7.4830  -13.5349   26.0123 C   0  0  0  0  0  0  0  0  0  0  0  0
   10.2474  -16.6804   23.8967 C   0  0  0  0  0  0  0  0  0  0  0  0
   10.1826  -17.4530   22.8734 O   0  0  0  0  0  0  0  0  0  0  0  0
   15.2275  -15.2795   22.4911 N   0  0  0  0  0  0  0  0  0  0  0  0
   14.1639  -16.2492   22.3135 C   0  0  0  0  0  0  0  0  0  0  0  0
   14.3424  -17.2206   21.5584 O   0  0  0  0  0  0  0  0  0  0  0  0
   12.9199  -16.0479   23.0310 C   0  0  0  0  0  0  0  0  0  0  0  0
   12.6669  -17.1635   24.0294 C   0  0  2  0  0  0  0  0  0  0  0  0
   11.4111  -16.7449   24.6944 N   0  0  0  0  0  0  0  0  0  0  0  0
   13.7342  -17.2620   25.0331 C   0  0  0  0  0  0  0  0  0  0  0  0
   13.4796  -16.9412   26.3727 O   0  0  0  0  0  0  0  0  0  0  0  0
   14.8839  -17.6250   24.7402 O   0  0  0  0  0  0  0  0  0  0  0  0
  2  1  1  6
  2  3  1  0
  4  2  1  0
  4  5  1  6
  6  7  2  0
  6  4  1  0
  8  6  1  0
  9  8  1  0
  9 10  1  1
 10 11  1  0
 11 19  1  0
 11 12  2  0
 12 13  1  0
 13 14  1  0
 14 15  2  0
 16 15  1  0
 17 16  2  0
 18 19  2  0
 18 17  1  0
 19 14  1  0
 20 21  2  0
 20  9  1  0
 23 22  1  0
 23 25  1  0
 24 23  2  0
 26 25  1  6
 26 27  1  0
 27 20  1  0
 28 26  1  0
 29 28  1  0
 30 28  2  0
M  END
$$$$
