VWN.pdb
     RDKit          3D

 30 31  0  0  1  0  0  0  0  0999 V2000
    8.7583  -16.5611   18.0103 C   0  0  0  0  0  0  0  0  0  0  0  0
    8.7840  -15.1345   17.5879 C   0  0  1  0  0  0  0  0  0  0  0  0
    8.5205  -15.0396   16.1164 C   0  0  0  0  0  0  0  0  0  0  0  0
    7.9118  -14.2082   18.3978 C   0  0  2  0  0  0  0  0  0  0  0  0
    8.2045  -12.8420   17.9302 N   0  0  0  0  0  0  0  0  0  0  0  0
    8.2382  -14.2593   19.8373 C   0  0  0  0  0  0  0  0  0  0  0  0
    9.3893  -13.8199   20.2124 O   0  0  0  0  0  0  0  0  0  0  0  0
    7.3639  -14.7591   20.8274 N   0  0  0  0  0  0  0  0  0  0  0  0
    7.7711  -14.7395   22.2194 C   0  0  1  0  0  0  0  0  0  0  0  0
    6.5796  -14.6436   23.1219 C   0  0  0  0  0  0  0  0  0  0  0  0
    6.8533  -14.5358   24.5482 C   0  0  0  0  0  0  0  0  0  0  0  0
    7.1548  -15.6316   25.3711 C   0  0  0  0  0  0  0  0  0  0  0  0
    7.3741  -15.1263   26.5836 N   0  0  0  0  0  0  0  0  0  0  0  0
    7.2354  -13.7756   26.6072 C   0  0  0  0  0  0  0  0  0  0  0  0
    7.3523  -12.8307   27.6085 C   0  0  0  0  0  0  0  0  0  0  0  0
    7.1467  -11.4964   27.3688 C   0  0  0  0  0  0  0  0  0  0  0  0
    6.8161  -11.1067   26.0918 C   0  0  0  0  0  0  0  0  0  0  0  0
    6.7031  -12.0625   25.1017 C   0  0  0  0  0  0  0  0  0  0  0  0
    6.9077  -13.4213   25.3218 C   0  0  0  0  0  0  0  0  0  0  0  0
    8.7424  -15.7900   22.4819 C   0  0  0  0  0  0  0  0  0  0  0  0
    8.7134  -16.8051   21.6964 O   0  0  0  0  0  0  0  0  0  0  0  0
   14.1159  -16.7314   22.5998 N   0  0  0  0  0  0  0  0  0  0  0  0
   12.8182  -17.2830   22.2609 C   0  0  0  0  0  0  0  0  0  0  0  0
   12.7340  -18.4698   21.9004 O   0  0  0  0  0  0  0  0  0  0  0  0
   11.6558  -16.4213   22.3570 C   0  0  0  0  0  0  0  0  0  0  0  0
   10.7348  -16.8534   23.4841 C   0  0  2  0  0  0  0  0  0  0  0  0
    9.7088  -15.7853   23.5117 N   0  0  0  0  0  0  0  0  0  0  0  0
   11.4247  -16.8929   24.7798 C   0  0  0  0  0  0  0  0  0  0  0  0
   10.9941  -16.0814   25.8373 O   0  0  0  0  0  0  0  0  0  0  0  0
   12.4001  -17.6315   24.9857 O   0  0  0  0  0  0  0  0  0  0  0  0
  2  1  1  1
  2  3  1  0
  4  2  1  0
  4  5  1  6
  6  7  2  0
  6  4  1  0
  8  6  1  0
  9  8  1  0
  9 10  1  1
 10 11  1  0
 11 19  1  0
 11 12  2  0
 12 13  1  0
 13 14  1  0
 14 15  2  0
 16 15  1  0
 17 16  2  0
 18 19  2  0
 18 17  1  0
 19 14  1  0
 20 21  2  0
 20  9  1  0
 23 22  1  0
 23 25  1  0
 24 23  2  0
 26 25  1  6
 26 27  1  0
 27 20  1  0
 28 26  1  0
 29 28  1  0
 30 28  2  0
M  END
$$$$
