DWE.pdb
     RDKit          3D

 32 33  0  0  1  0  0  0  0  0999 V2000
   24.4675  -20.2438  -20.0347 N   0  0  0  0  0  0  0  0  0  0  0  0
   23.6830  -19.3025  -19.2672 C   0  0  1  0  0  0  0  0  0  0  0  0
   22.7733  -18.5470  -20.1900 C   0  0  0  0  0  0  0  0  0  0  0  0
   23.4668  -17.6960  -21.1630 C   0  0  0  0  0  0  0  0  0  0  0  0
   24.1825  -16.7652  -20.7157 O   0  0  0  0  0  0  0  0  0  0  0  0
   22.9930  -19.9437  -18.1347 C   0  0  0  0  0  0  0  0  0  0  0  0
   22.5695  -21.1289  -18.2340 O   0  0  0  0  0  0  0  0  0  0  0  0
   23.3366  -17.9112  -22.5254 O   0  0  0  0  0  0  0  0  0  0  0  0
   22.8047  -19.2214  -16.9251 N   0  0  0  0  0  0  0  0  0  0  0  0
   22.0395  -19.7060  -15.8099 C   0  0  1  0  0  0  0  0  0  0  0  0
   22.4392  -18.9982  -14.5664 C   0  0  0  0  0  0  0  0  0  0  0  0
   21.7255  -19.4574  -13.3546 C   0  0  0  0  0  0  0  0  0  0  0  0
   22.0532  -20.5904  -12.5893 C   0  0  0  0  0  0  0  0  0  0  0  0
   21.2101  -20.6738  -11.5505 N   0  0  0  0  0  0  0  0  0  0  0  0
   20.3267  -19.6591  -11.5689 C   0  0  0  0  0  0  0  0  0  0  0  0
   19.2846  -19.3410  -10.7226 C   0  0  0  0  0  0  0  0  0  0  0  0
   18.5310  -18.2270  -11.0055 C   0  0  0  0  0  0  0  0  0  0  0  0
   18.8091  -17.4509  -12.1037 C   0  0  0  0  0  0  0  0  0  0  0  0
   19.8699  -17.8063  -12.9326 C   0  0  0  0  0  0  0  0  0  0  0  0
   20.6516  -18.9054  -12.6941 C   0  0  0  0  0  0  0  0  0  0  0  0
   20.5744  -19.6701  -16.0424 C   0  0  0  0  0  0  0  0  0  0  0  0
   20.0472  -18.7272  -16.6506 O   0  0  0  0  0  0  0  0  0  0  0  0
   19.8245  -20.7657  -15.5332 N   0  0  0  0  0  0  0  0  0  0  0  0
   18.3895  -20.7708  -15.6679 C   0  0  1  0  0  0  0  0  0  0  0  0
   17.9273  -21.5412  -16.9031 C   0  0  0  0  0  0  0  0  0  0  0  0
   18.4561  -22.9502  -16.8790 C   0  0  0  0  0  0  0  0  0  0  0  0
   17.3777  -23.8875  -16.5488 C   0  0  0  0  0  0  0  0  0  0  0  0
   16.4416  -24.0207  -17.4068 O   0  0  0  0  0  0  0  0  0  0  0  0
   17.7624  -21.4078  -14.4530 C   0  0  0  0  0  0  0  0  0  0  0  0
   18.5402  -22.1021  -13.5368 O   0  0  0  0  0  0  0  0  0  0  0  0
   17.2848  -24.6357  -15.3982 O   0  0  0  0  0  0  0  0  0  0  0  0
   16.5301  -21.3349  -14.2273 O   0  0  0  0  0  0  0  0  0  0  0  0
  2  1  1  6
  2  3  1  0
  4  3  1  0
  4  8  1  0
  5  4  2  0
  6  7  2  0
  6  2  1  0
  9  6  1  0
 10  9  1  0
 10 11  1  1
 11 12  1  0
 12 13  2  0
 12 20  1  0
 13 14  1  0
 14 15  1  0
 15 16  2  0
 16 17  1  0
 18 17  2  0
 19 18  1  0
 20 19  2  0
 20 15  1  0
 21 10  1  0
 22 21  2  0
 23 21  1  0
 24 25  1  6
 24 23  1  0
 26 27  1  0
 26 25  1  0
 27 28  2  0
 29 24  1  0
 30 29  1  0
 31 27  1  0
 32 29  2  0
M  END
$$$$
