DWE.pdb
     RDKit          3D

 32 33  0  0  1  0  0  0  0  0999 V2000
   27.8957  -33.2263   -8.1362 N   0  0  0  0  0  0  0  0  0  0  0  0
   26.7064  -34.0469   -8.1891 C   0  0  1  0  0  0  0  0  0  0  0  0
   26.7416  -35.0433   -7.0684 C   0  0  0  0  0  0  0  0  0  0  0  0
   27.8982  -35.9452   -7.0946 C   0  0  0  0  0  0  0  0  0  0  0  0
   28.0968  -36.6060   -8.1446 O   0  0  0  0  0  0  0  0  0  0  0  0
   25.4743  -33.2413   -8.2389 C   0  0  0  0  0  0  0  0  0  0  0  0
   25.3023  -32.2878   -7.4294 O   0  0  0  0  0  0  0  0  0  0  0  0
   28.7402  -36.0638   -6.0009 O   0  0  0  0  0  0  0  0  0  0  0  0
   24.4755  -33.5417   -9.2046 N   0  0  0  0  0  0  0  0  0  0  0  0
   23.2338  -32.8295   -9.3254 C   0  0  1  0  0  0  0  0  0  0  0  0
   22.9394  -32.5491  -10.7544 C   0  0  0  0  0  0  0  0  0  0  0  0
   21.6012  -31.9645  -10.9915 C   0  0  0  0  0  0  0  0  0  0  0  0
   21.3118  -30.5925  -11.0943 C   0  0  0  0  0  0  0  0  0  0  0  0
   20.0033  -30.4401  -11.3426 N   0  0  0  0  0  0  0  0  0  0  0  0
   19.3878  -31.6344  -11.4133 C   0  0  0  0  0  0  0  0  0  0  0  0
   18.0683  -31.9690  -11.6377 C   0  0  0  0  0  0  0  0  0  0  0  0
   17.7245  -33.2997  -11.6432 C   0  0  0  0  0  0  0  0  0  0  0  0
   18.6714  -34.2710  -11.4301 C   0  0  0  0  0  0  0  0  0  0  0  0
   19.9925  -33.8912  -11.2076 C   0  0  0  0  0  0  0  0  0  0  0  0
   20.3868  -32.5797  -11.1935 C   0  0  0  0  0  0  0  0  0  0  0  0
   22.1047  -33.4943   -8.6289 C   0  0  0  0  0  0  0  0  0  0  0  0
   21.6301  -34.5581   -9.0531 O   0  0  0  0  0  0  0  0  0  0  0  0
   21.6087  -32.8469   -7.4641 N   0  0  0  0  0  0  0  0  0  0  0  0
   20.5087  -33.4307   -6.7382 C   0  0  1  0  0  0  0  0  0  0  0  0
   20.9448  -34.0072   -5.3928 C   0  0  0  0  0  0  0  0  0  0  0  0
   21.6152  -32.9519   -4.5548 C   0  0  0  0  0  0  0  0  0  0  0  0
   22.0354  -33.5203   -3.2700 C   0  0  0  0  0  0  0  0  0  0  0  0
   22.8025  -32.8050   -2.5420 O   0  0  0  0  0  0  0  0  0  0  0  0
   19.4506  -32.3865   -6.4831 C   0  0  0  0  0  0  0  0  0  0  0  0
   19.6820  -31.0537   -6.7936 O   0  0  0  0  0  0  0  0  0  0  0  0
   21.6770  -34.7545   -2.7793 O   0  0  0  0  0  0  0  0  0  0  0  0
   18.3357  -32.6793   -5.9871 O   0  0  0  0  0  0  0  0  0  0  0  0
  2  1  1  1
  2  3  1  0
  4  3  1  0
  4  8  1  0
  5  4  2  0
  6  7  2  0
  6  2  1  0
  9  6  1  0
 10  9  1  0
 10 11  1  6
 11 12  1  0
 12 13  2  0
 12 20  1  0
 13 14  1  0
 14 15  1  0
 15 16  2  0
 16 17  1  0
 18 17  2  0
 19 18  1  0
 20 19  2  0
 20 15  1  0
 21 10  1  0
 22 21  2  0
 23 21  1  0
 24 25  1  1
 24 23  1  0
 26 27  1  0
 26 25  1  0
 27 28  2  0
 29 24  1  0
 30 29  1  0
 31 27  1  0
 32 29  2  0
M  END
$$$$
