DWE.pdb
     RDKit          3D

 32 33  0  0  1  0  0  0  0  0999 V2000
   19.8319  -21.6247  -11.8735 N   0  0  0  0  0  0  0  0  0  0  0  0
   19.2392  -21.2727  -13.1444 C   0  0  1  0  0  0  0  0  0  0  0  0
   17.9460  -22.0145  -13.3106 C   0  0  0  0  0  0  0  0  0  0  0  0
   18.0760  -23.4753  -13.2776 C   0  0  0  0  0  0  0  0  0  0  0  0
   17.8049  -24.0592  -12.1986 O   0  0  0  0  0  0  0  0  0  0  0  0
   19.1231  -19.8150  -13.3215 C   0  0  0  0  0  0  0  0  0  0  0  0
   18.3709  -19.1385  -12.5662 O   0  0  0  0  0  0  0  0  0  0  0  0
   18.4832  -24.1845  -14.3958 O   0  0  0  0  0  0  0  0  0  0  0  0
   19.8632  -19.1697  -14.3492 N   0  0  0  0  0  0  0  0  0  0  0  0
   19.8297  -17.7551  -14.5972 C   0  0  1  0  0  0  0  0  0  0  0  0
   21.0095  -17.3467  -15.4025 C   0  0  0  0  0  0  0  0  0  0  0  0
   21.0655  -15.8984  -15.6995 C   0  0  0  0  0  0  0  0  0  0  0  0
   21.0378  -14.8641  -14.7476 C   0  0  0  0  0  0  0  0  0  0  0  0
   21.1395  -13.6865  -15.3800 N   0  0  0  0  0  0  0  0  0  0  0  0
   21.2340  -13.8648  -16.7103 C   0  0  0  0  0  0  0  0  0  0  0  0
   21.3465  -12.9607  -17.7464 C   0  0  0  0  0  0  0  0  0  0  0  0
   21.4140  -13.4453  -19.0308 C   0  0  0  0  0  0  0  0  0  0  0  0
   21.3701  -14.7958  -19.2754 C   0  0  0  0  0  0  0  0  0  0  0  0
   21.2564  -15.6749  -18.2016 C   0  0  0  0  0  0  0  0  0  0  0  0
   21.1869  -15.2432  -16.9037 C   0  0  0  0  0  0  0  0  0  0  0  0
   18.5483  -17.2915  -15.1847 C   0  0  0  0  0  0  0  0  0  0  0  0
   18.0241  -17.8964  -16.1313 O   0  0  0  0  0  0  0  0  0  0  0  0
   17.9683  -16.1300  -14.6048 N   0  0  0  0  0  0  0  0  0  0  0  0
   16.7573  -15.5835  -15.1637 C   0  0  1  0  0  0  0  0  0  0  0  0
   16.0697  -14.6076  -14.2110 C   0  0  0  0  0  0  0  0  0  0  0  0
   14.8149  -14.0544  -14.8315 C   0  0  0  0  0  0  0  0  0  0  0  0
   14.1468  -13.1467  -13.8935 C   0  0  0  0  0  0  0  0  0  0  0  0
   13.0495  -12.6194  -14.2781 O   0  0  0  0  0  0  0  0  0  0  0  0
   17.0686  -14.8512  -16.4451 C   0  0  0  0  0  0  0  0  0  0  0  0
   18.0783  -13.9000  -16.4894 O   0  0  0  0  0  0  0  0  0  0  0  0
   14.5962  -12.8130  -12.6369 O   0  0  0  0  0  0  0  0  0  0  0  0
   16.4349  -15.0713  -17.5057 O   0  0  0  0  0  0  0  0  0  0  0  0
  2  1  1  1
  2  3  1  0
  4  3  1  0
  4  8  1  0
  5  4  2  0
  6  7  2  0
  6  2  1  0
  9  6  1  0
 10  9  1  0
 10 11  1  6
 11 12  1  0
 12 13  2  0
 12 20  1  0
 13 14  1  0
 14 15  1  0
 15 16  2  0
 16 17  1  0
 18 17  2  0
 19 18  1  0
 20 19  2  0
 20 15  1  0
 21 10  1  0
 22 21  2  0
 23 21  1  0
 24 25  1  1
 24 23  1  0
 26 27  1  0
 26 25  1  0
 27 28  2  0
 29 24  1  0
 30 29  1  0
 31 27  1  0
 32 29  2  0
M  END
$$$$
