DWE.pdb
     RDKit          3D

 32 33  0  0  1  0  0  0  0  0999 V2000
   42.8575  -10.8566   -6.4442 N   0  0  0  0  0  0  0  0  0  0  0  0
   42.6732   -9.4924   -6.8864 C   0  0  1  0  0  0  0  0  0  0  0  0
   43.9942   -8.9293   -7.3198 C   0  0  0  0  0  0  0  0  0  0  0  0
   45.0283   -8.9383   -6.2794 C   0  0  0  0  0  0  0  0  0  0  0  0
   44.7693   -8.3553   -5.1969 O   0  0  0  0  0  0  0  0  0  0  0  0
   41.6079   -9.3722   -7.8966 C   0  0  0  0  0  0  0  0  0  0  0  0
   41.5951  -10.1331   -8.9039 O   0  0  0  0  0  0  0  0  0  0  0  0
   46.2460   -9.5665   -6.4838 O   0  0  0  0  0  0  0  0  0  0  0  0
   40.5904   -8.3933   -7.7332 N   0  0  0  0  0  0  0  0  0  0  0  0
   39.5056   -8.1994   -8.6549 C   0  0  1  0  0  0  0  0  0  0  0  0
   38.2048   -8.4115   -7.9692 C   0  0  0  0  0  0  0  0  0  0  0  0
   37.8946   -9.8306   -7.6889 C   0  0  0  0  0  0  0  0  0  0  0  0
   37.8922  -10.4345   -6.4192 C   0  0  0  0  0  0  0  0  0  0  0  0
   37.5336  -11.7197   -6.5482 N   0  0  0  0  0  0  0  0  0  0  0  0
   37.2929  -12.0219   -7.8370 C   0  0  0  0  0  0  0  0  0  0  0  0
   36.9116  -13.2020   -8.4417 C   0  0  0  0  0  0  0  0  0  0  0  0
   36.7493  -13.2130   -9.8065 C   0  0  0  0  0  0  0  0  0  0  0  0
   36.9619  -12.0774  -10.5486 C   0  0  0  0  0  0  0  0  0  0  0  0
   37.3456  -10.9067   -9.8997 C   0  0  0  0  0  0  0  0  0  0  0  0
   37.5197  -10.8428   -8.5427 C   0  0  0  0  0  0  0  0  0  0  0  0
   39.5687   -6.9022   -9.3726 C   0  0  0  0  0  0  0  0  0  0  0  0
   39.8839   -5.8596   -8.7807 O   0  0  0  0  0  0  0  0  0  0  0  0
   39.2506   -6.9280  -10.7583 N   0  0  0  0  0  0  0  0  0  0  0  0
   39.3024   -5.7079  -11.5240 C   0  0  1  0  0  0  0  0  0  0  0  0
   39.0141   -5.9422  -13.0055 C   0  0  0  0  0  0  0  0  0  0  0  0
   38.9605   -4.6350  -13.7496 C   0  0  0  0  0  0  0  0  0  0  0  0
   38.6302   -4.8705  -15.1587 C   0  0  0  0  0  0  0  0  0  0  0  0
   38.5342   -6.0861  -15.5370 O   0  0  0  0  0  0  0  0  0  0  0  0
   38.2859   -4.7269  -10.9953 C   0  0  0  0  0  0  0  0  0  0  0  0
   36.9945   -5.1379  -10.6961 O   0  0  0  0  0  0  0  0  0  0  0  0
   38.4146   -3.8993  -16.1089 O   0  0  0  0  0  0  0  0  0  0  0  0
   38.5657   -3.5180  -10.8082 O   0  0  0  0  0  0  0  0  0  0  0  0
  2  1  1  6
  2  3  1  0
  4  3  1  0
  4  8  1  0
  5  4  2  0
  6  7  2  0
  6  2  1  0
  9  6  1  0
 10  9  1  0
 10 11  1  1
 11 12  1  0
 12 13  2  0
 12 20  1  0
 13 14  1  0
 14 15  1  0
 15 16  2  0
 16 17  1  0
 18 17  2  0
 19 18  1  0
 20 19  2  0
 20 15  1  0
 21 10  1  0
 22 21  2  0
 23 21  1  0
 24 25  1  6
 24 23  1  0
 26 27  1  0
 26 25  1  0
 27 28  2  0
 29 24  1  0
 30 29  1  0
 31 27  1  0
 32 29  2  0
M  END
$$$$
