DWE.pdb
     RDKit          3D

 32 33  0  0  1  0  0  0  0  0999 V2000
   29.1925  -21.7639  -14.5682 N   0  0  0  0  0  0  0  0  0  0  0  0
   27.8498  -21.2511  -14.7257 C   0  0  1  0  0  0  0  0  0  0  0  0
   27.2117  -21.8922  -15.9223 C   0  0  0  0  0  0  0  0  0  0  0  0
   28.0261  -21.8468  -17.1415 C   0  0  0  0  0  0  0  0  0  0  0  0
   28.2460  -22.9323  -17.7348 O   0  0  0  0  0  0  0  0  0  0  0  0
   27.0593  -21.3672  -13.4883 C   0  0  0  0  0  0  0  0  0  0  0  0
   25.8490  -21.7237  -13.5355 O   0  0  0  0  0  0  0  0  0  0  0  0
   28.5342  -20.6503  -17.6205 O   0  0  0  0  0  0  0  0  0  0  0  0
   27.6653  -21.0757  -12.2360 N   0  0  0  0  0  0  0  0  0  0  0  0
   26.9661  -21.0920  -10.9811 C   0  0  1  0  0  0  0  0  0  0  0  0
   27.9062  -20.8108   -9.8656 C   0  0  0  0  0  0  0  0  0  0  0  0
   27.2460  -20.5999   -8.5586 C   0  0  0  0  0  0  0  0  0  0  0  0
   25.8838  -20.8136   -8.2836 C   0  0  0  0  0  0  0  0  0  0  0  0
   25.6537  -20.5506   -6.9894 N   0  0  0  0  0  0  0  0  0  0  0  0
   26.7857  -20.1691   -6.3703 C   0  0  0  0  0  0  0  0  0  0  0  0
   27.0308  -19.7972   -5.0645 C   0  0  0  0  0  0  0  0  0  0  0  0
   28.3118  -19.4400   -4.7173 C   0  0  0  0  0  0  0  0  0  0  0  0
   29.3216  -19.4531   -5.6478 C   0  0  0  0  0  0  0  0  0  0  0  0
   29.0324  -19.8351   -6.9552 C   0  0  0  0  0  0  0  0  0  0  0  0
   27.7735  -20.2010   -7.3517 C   0  0  0  0  0  0  0  0  0  0  0  0
   25.7741  -20.2083  -10.9608 C   0  0  0  0  0  0  0  0  0  0  0  0
   25.8940  -18.9745  -10.9589 O   0  0  0  0  0  0  0  0  0  0  0  0
   24.5069  -20.8532  -10.9439 N   0  0  0  0  0  0  0  0  0  0  0  0
   23.3109  -20.0797  -11.1651 C   0  0  1  0  0  0  0  0  0  0  0  0
   23.2381  -19.5206  -12.5846 C   0  0  0  0  0  0  0  0  0  0  0  0
   22.6035  -20.5177  -13.5164 C   0  0  0  0  0  0  0  0  0  0  0  0
   21.7929  -19.8230  -14.5217 C   0  0  0  0  0  0  0  0  0  0  0  0
   22.0177  -18.5773  -14.6887 O   0  0  0  0  0  0  0  0  0  0  0  0
   22.0937  -20.9398  -10.9341 C   0  0  0  0  0  0  0  0  0  0  0  0
   22.1997  -22.3234  -10.9052 O   0  0  0  0  0  0  0  0  0  0  0  0
   20.8126  -20.3931  -15.3005 O   0  0  0  0  0  0  0  0  0  0  0  0
   20.9539  -20.4437  -10.7615 O   0  0  0  0  0  0  0  0  0  0  0  0
  2  1  1  1
  2  3  1  0
  4  3  1  0
  4  8  1  0
  5  4  2  0
  6  7  2  0
  6  2  1  0
  9  6  1  0
 10  9  1  0
 10 11  1  1
 11 12  1  0
 12 13  2  0
 12 20  1  0
 13 14  1  0
 14 15  1  0
 15 16  2  0
 16 17  1  0
 18 17  2  0
 19 18  1  0
 20 19  2  0
 20 15  1  0
 21 10  1  0
 22 21  2  0
 23 21  1  0
 24 25  1  6
 24 23  1  0
 26 27  1  0
 26 25  1  0
 27 28  2  0
 29 24  1  0
 30 29  1  0
 31 27  1  0
 32 29  2  0
M  END
$$$$
