DWE.pdb
     RDKit          3D

 32 33  0  0  1  0  0  0  0  0999 V2000
   28.2318  -23.2383  -16.0652 N   0  0  0  0  0  0  0  0  0  0  0  0
   27.4924  -22.0043  -15.9202 C   0  0  1  0  0  0  0  0  0  0  0  0
   26.7094  -21.7456  -17.1732 C   0  0  0  0  0  0  0  0  0  0  0  0
   27.5309  -21.5586  -18.3741 C   0  0  0  0  0  0  0  0  0  0  0  0
   27.3882  -22.3839  -19.3108 O   0  0  0  0  0  0  0  0  0  0  0  0
   26.6830  -21.9800  -14.6898 C   0  0  0  0  0  0  0  0  0  0  0  0
   25.9959  -22.9859  -14.3581 O   0  0  0  0  0  0  0  0  0  0  0  0
   28.4312  -20.5101  -18.4712 O   0  0  0  0  0  0  0  0  0  0  0  0
   26.6777  -20.8162  -13.8737 N   0  0  0  0  0  0  0  0  0  0  0  0
   25.8206  -20.6365  -12.7349 C   0  0  1  0  0  0  0  0  0  0  0  0
   26.4360  -19.6851  -11.7739 C   0  0  0  0  0  0  0  0  0  0  0  0
   27.4995  -20.2788  -10.9341 C   0  0  0  0  0  0  0  0  0  0  0  0
   28.6576  -20.9195  -11.4084 C   0  0  0  0  0  0  0  0  0  0  0  0
   29.4048  -21.3002  -10.3626 N   0  0  0  0  0  0  0  0  0  0  0  0
   28.8165  -20.9535   -9.2032 C   0  0  0  0  0  0  0  0  0  0  0  0
   29.2028  -21.1413   -7.8921 C   0  0  0  0  0  0  0  0  0  0  0  0
   28.3759  -20.6799   -6.8959 C   0  0  0  0  0  0  0  0  0  0  0  0
   27.1949  -20.0484   -7.1991 C   0  0  0  0  0  0  0  0  0  0  0  0
   26.8418  -19.8786   -8.5353 C   0  0  0  0  0  0  0  0  0  0  0  0
   27.6308  -20.3186   -9.5647 C   0  0  0  0  0  0  0  0  0  0  0  0
   24.4310  -20.2636  -13.0980 C   0  0  0  0  0  0  0  0  0  0  0  0
   24.1765  -19.7340  -14.1896 O   0  0  0  0  0  0  0  0  0  0  0  0
   23.4257  -20.5465  -12.1329 N   0  0  0  0  0  0  0  0  0  0  0  0
   22.0515  -20.6684  -12.5503 C   0  0  1  0  0  0  0  0  0  0  0  0
   21.8456  -21.8192  -13.5331 C   0  0  0  0  0  0  0  0  0  0  0  0
   21.2315  -21.3207  -14.8137 C   0  0  0  0  0  0  0  0  0  0  0  0
   20.9985  -22.4413  -15.7304 C   0  0  0  0  0  0  0  0  0  0  0  0
   21.3751  -23.5975  -15.3412 O   0  0  0  0  0  0  0  0  0  0  0  0
   21.1704  -20.9099  -11.3502 C   0  0  0  0  0  0  0  0  0  0  0  0
   19.7879  -20.8865  -11.4708 O   0  0  0  0  0  0  0  0  0  0  0  0
   20.4106  -22.3582  -16.9713 O   0  0  0  0  0  0  0  0  0  0  0  0
   21.6475  -21.1384  -10.2122 O   0  0  0  0  0  0  0  0  0  0  0  0
  2  1  1  6
  2  3  1  0
  4  3  1  0
  4  8  1  0
  5  4  2  0
  6  7  2  0
  6  2  1  0
  9  6  1  0
 10  9  1  0
 10 11  1  1
 11 12  1  0
 12 13  2  0
 12 20  1  0
 13 14  1  0
 14 15  1  0
 15 16  2  0
 16 17  1  0
 18 17  2  0
 19 18  1  0
 20 19  2  0
 20 15  1  0
 21 10  1  0
 22 21  2  0
 23 21  1  0
 24 25  1  6
 24 23  1  0
 26 27  1  0
 26 25  1  0
 27 28  2  0
 29 24  1  0
 30 29  1  0
 31 27  1  0
 32 29  2  0
M  END
$$$$
