DWE.pdb
     RDKit          3D

 32 33  0  0  1  0  0  0  0  0999 V2000
   28.5794  -21.2112  -16.1198 N   0  0  0  0  0  0  0  0  0  0  0  0
   27.9081  -20.3565  -15.1662 C   0  0  1  0  0  0  0  0  0  0  0  0
   27.5099  -19.0776  -15.8413 C   0  0  0  0  0  0  0  0  0  0  0  0
   28.6365  -18.2467  -16.2796 C   0  0  0  0  0  0  0  0  0  0  0  0
   29.2621  -18.6099  -17.3070 O   0  0  0  0  0  0  0  0  0  0  0  0
   26.8003  -21.0456  -14.4823 C   0  0  0  0  0  0  0  0  0  0  0  0
   25.8702  -21.5772  -15.1504 O   0  0  0  0  0  0  0  0  0  0  0  0
   28.9973  -17.1034  -15.5854 O   0  0  0  0  0  0  0  0  0  0  0  0
   26.7813  -21.1105  -13.0625 N   0  0  0  0  0  0  0  0  0  0  0  0
   25.7099  -21.6863  -12.2982 C   0  0  1  0  0  0  0  0  0  0  0  0
   26.2266  -22.2233  -11.0129 C   0  0  0  0  0  0  0  0  0  0  0  0
   26.3969  -21.2014   -9.9568 C   0  0  0  0  0  0  0  0  0  0  0  0
   25.4552  -20.2175   -9.6078 C   0  0  0  0  0  0  0  0  0  0  0  0
   25.9390  -19.4925   -8.5893 N   0  0  0  0  0  0  0  0  0  0  0  0
   27.1589  -19.9301   -8.2279 C   0  0  0  0  0  0  0  0  0  0  0  0
   28.0325  -19.4950   -7.2526 C   0  0  0  0  0  0  0  0  0  0  0  0
   29.2376  -20.1425   -7.1202 C   0  0  0  0  0  0  0  0  0  0  0  0
   29.5630  -21.1958   -7.9389 C   0  0  0  0  0  0  0  0  0  0  0  0
   28.6532  -21.6040   -8.9107 C   0  0  0  0  0  0  0  0  0  0  0  0
   27.4393  -20.9934   -9.0826 C   0  0  0  0  0  0  0  0  0  0  0  0
   24.5599  -20.7669  -12.1125 C   0  0  0  0  0  0  0  0  0  0  0  0
   24.7362  -19.5737  -11.8263 O   0  0  0  0  0  0  0  0  0  0  0  0
   23.2648  -21.3294  -12.2804 N   0  0  0  0  0  0  0  0  0  0  0  0
   22.1169  -20.4619  -12.3659 C   0  0  1  0  0  0  0  0  0  0  0  0
   22.1825  -19.5337  -13.5771 C   0  0  0  0  0  0  0  0  0  0  0  0
   22.0766  -20.3207  -14.8558 C   0  0  0  0  0  0  0  0  0  0  0  0
   22.0809  -19.4133  -16.0077 C   0  0  0  0  0  0  0  0  0  0  0  0
   23.1620  -19.3375  -16.6827 O   0  0  0  0  0  0  0  0  0  0  0  0
   20.8579  -21.2858  -12.4708 C   0  0  0  0  0  0  0  0  0  0  0  0
   20.9242  -22.6563  -12.6797 O   0  0  0  0  0  0  0  0  0  0  0  0
   21.0249  -18.6372  -16.4259 O   0  0  0  0  0  0  0  0  0  0  0  0
   19.7178  -20.7703  -12.3743 O   0  0  0  0  0  0  0  0  0  0  0  0
  2  1  1  6
  2  3  1  0
  4  3  1  0
  4  8  1  0
  5  4  2  0
  6  7  2  0
  6  2  1  0
  9  6  1  0
 10  9  1  0
 10 11  1  1
 11 12  1  0
 12 13  2  0
 12 20  1  0
 13 14  1  0
 14 15  1  0
 15 16  2  0
 16 17  1  0
 18 17  2  0
 19 18  1  0
 20 19  2  0
 20 15  1  0
 21 10  1  0
 22 21  2  0
 23 21  1  0
 24 25  1  6
 24 23  1  0
 26 27  1  0
 26 25  1  0
 27 28  2  0
 29 24  1  0
 30 29  1  0
 31 27  1  0
 32 29  2  0
M  END
$$$$
