DWE.pdb
     RDKit          3D

 32 33  0  0  1  0  0  0  0  0999 V2000
   15.7283  -20.6483    2.4325 N   0  0  0  0  0  0  0  0  0  0  0  0
   15.4118  -20.2888    3.7967 C   0  0  1  0  0  0  0  0  0  0  0  0
   14.6854  -21.4255    4.4528 C   0  0  0  0  0  0  0  0  0  0  0  0
   15.4869  -22.6429    4.6182 C   0  0  0  0  0  0  0  0  0  0  0  0
   16.0557  -22.8190    5.7246 O   0  0  0  0  0  0  0  0  0  0  0  0
   16.5949  -19.8225    4.5399 C   0  0  0  0  0  0  0  0  0  0  0  0
   17.7563  -20.0861    4.1208 O   0  0  0  0  0  0  0  0  0  0  0  0
   15.6119  -23.5643    3.5912 O   0  0  0  0  0  0  0  0  0  0  0  0
   16.4247  -19.0720    5.7349 N   0  0  0  0  0  0  0  0  0  0  0  0
   17.5100  -18.5952    6.5465 C   0  0  1  0  0  0  0  0  0  0  0  0
   17.4922  -17.1109    6.6075 C   0  0  0  0  0  0  0  0  0  0  0  0
   18.5965  -16.5261    7.3995 C   0  0  0  0  0  0  0  0  0  0  0  0
   18.4649  -15.5191    8.3718 C   0  0  0  0  0  0  0  0  0  0  0  0
   19.6694  -15.2654    8.9026 N   0  0  0  0  0  0  0  0  0  0  0  0
   20.6124  -16.0450    8.3431 C   0  0  0  0  0  0  0  0  0  0  0  0
   21.9723  -16.1307    8.5600 C   0  0  0  0  0  0  0  0  0  0  0  0
   22.6963  -17.0311    7.8156 C   0  0  0  0  0  0  0  0  0  0  0  0
   22.0806  -17.8249    6.8794 C   0  0  0  0  0  0  0  0  0  0  0  0
   20.7059  -17.7077    6.6914 C   0  0  0  0  0  0  0  0  0  0  0  0
   19.9393  -16.8274    7.4078 C   0  0  0  0  0  0  0  0  0  0  0  0
   17.5583  -19.2220    7.8907 C   0  0  0  0  0  0  0  0  0  0  0  0
   16.5192  -19.4451    8.5290 O   0  0  0  0  0  0  0  0  0  0  0  0
   18.8484  -19.5458    8.3934 N   0  0  0  0  0  0  0  0  0  0  0  0
   18.9694  -20.2418    9.6498 C   0  0  1  0  0  0  0  0  0  0  0  0
   20.0255  -21.3441    9.6009 C   0  0  0  0  0  0  0  0  0  0  0  0
   19.3755  -22.7012    9.5636 C   0  0  0  0  0  0  0  0  0  0  0  0
   20.2044  -23.6359    8.7957 C   0  0  0  0  0  0  0  0  0  0  0  0
   21.3693  -23.2365    8.4587 O   0  0  0  0  0  0  0  0  0  0  0  0
   19.3513  -19.2710   10.7392 C   0  0  0  0  0  0  0  0  0  0  0  0
   19.6226  -17.9430   10.4408 O   0  0  0  0  0  0  0  0  0  0  0  0
   19.8393  -24.9038    8.4065 O   0  0  0  0  0  0  0  0  0  0  0  0
   19.4369  -19.6225   11.9409 O   0  0  0  0  0  0  0  0  0  0  0  0
  2  1  1  6
  2  3  1  0
  4  3  1  0
  4  8  1  0
  5  4  2  0
  6  7  2  0
  6  2  1  0
  9  6  1  0
 10  9  1  0
 10 11  1  1
 11 12  1  0
 12 13  2  0
 12 20  1  0
 13 14  1  0
 14 15  1  0
 15 16  2  0
 16 17  1  0
 18 17  2  0
 19 18  1  0
 20 19  2  0
 20 15  1  0
 21 10  1  0
 22 21  2  0
 23 21  1  0
 24 25  1  6
 24 23  1  0
 26 27  1  0
 26 25  1  0
 27 28  2  0
 29 24  1  0
 30 29  1  0
 31 27  1  0
 32 29  2  0
M  END
$$$$
