DWE.pdb
     RDKit          3D

 32 33  0  0  1  0  0  0  0  0999 V2000
   20.9129  -19.8164   -9.8441 N   0  0  0  0  0  0  0  0  0  0  0  0
   21.9806  -20.6656   -9.3652 C   0  0  1  0  0  0  0  0  0  0  0  0
   21.5823  -22.1024   -9.5287 C   0  0  0  0  0  0  0  0  0  0  0  0
   20.6516  -22.3519  -10.6347 C   0  0  0  0  0  0  0  0  0  0  0  0
   21.1212  -22.8470  -11.6898 O   0  0  0  0  0  0  0  0  0  0  0  0
   23.2783  -20.3282   -9.9751 C   0  0  0  0  0  0  0  0  0  0  0  0
   23.3524  -19.4346  -10.8639 O   0  0  0  0  0  0  0  0  0  0  0  0
   19.3040  -22.0520  -10.5196 O   0  0  0  0  0  0  0  0  0  0  0  0
   24.4514  -21.0143   -9.5586 N   0  0  0  0  0  0  0  0  0  0  0  0
   25.7696  -20.7250  -10.0508 C   0  0  1  0  0  0  0  0  0  0  0  0
   26.7913  -21.1265   -9.0497 C   0  0  0  0  0  0  0  0  0  0  0  0
   27.0203  -20.1243   -7.9857 C   0  0  0  0  0  0  0  0  0  0  0  0
   26.4760  -18.8285   -7.9485 C   0  0  0  0  0  0  0  0  0  0  0  0
   26.8746  -18.2203   -6.8224 N   0  0  0  0  0  0  0  0  0  0  0  0
   27.6608  -19.0325   -6.0927 C   0  0  0  0  0  0  0  0  0  0  0  0
   28.2997  -18.8408   -4.8850 C   0  0  0  0  0  0  0  0  0  0  0  0
   29.0600  -19.8677   -4.3788 C   0  0  0  0  0  0  0  0  0  0  0  0
   29.1803  -21.0544   -5.0591 C   0  0  0  0  0  0  0  0  0  0  0  0
   28.5191  -21.2077   -6.2749 C   0  0  0  0  0  0  0  0  0  0  0  0
   27.7486  -20.2161   -6.8216 C   0  0  0  0  0  0  0  0  0  0  0  0
   26.0328  -21.2939  -11.3959 C   0  0  0  0  0  0  0  0  0  0  0  0
   25.9535  -22.5141  -11.5998 O   0  0  0  0  0  0  0  0  0  0  0  0
   26.3759  -20.3686  -12.4196 N   0  0  0  0  0  0  0  0  0  0  0  0
   26.3235  -20.7812  -13.7997 C   0  0  1  0  0  0  0  0  0  0  0  0
   26.1298  -19.6006  -14.7492 C   0  0  0  0  0  0  0  0  0  0  0  0
   26.1312  -20.0647  -16.1810 C   0  0  0  0  0  0  0  0  0  0  0  0
   25.9672  -18.9195  -17.0821 C   0  0  0  0  0  0  0  0  0  0  0  0
   25.6919  -17.7940  -16.5459 O   0  0  0  0  0  0  0  0  0  0  0  0
   27.6052  -21.4823  -14.1745 C   0  0  0  0  0  0  0  0  0  0  0  0
   28.7838  -21.2155  -13.4918 O   0  0  0  0  0  0  0  0  0  0  0  0
   26.0836  -18.9494  -18.4525 O   0  0  0  0  0  0  0  0  0  0  0  0
   27.6539  -22.3226  -15.1053 O   0  0  0  0  0  0  0  0  0  0  0  0
  2  1  1  6
  2  3  1  0
  4  3  1  0
  4  8  1  0
  5  4  2  0
  6  7  2  0
  6  2  1  0
  9  6  1  0
 10  9  1  0
 10 11  1  1
 11 12  1  0
 12 13  2  0
 12 20  1  0
 13 14  1  0
 14 15  1  0
 15 16  2  0
 16 17  1  0
 18 17  2  0
 19 18  1  0
 20 19  2  0
 20 15  1  0
 21 10  1  0
 22 21  2  0
 23 21  1  0
 24 25  1  6
 24 23  1  0
 26 27  1  0
 26 25  1  0
 27 28  2  0
 29 24  1  0
 30 29  1  0
 31 27  1  0
 32 29  2  0
M  END
$$$$
