DWE.pdb
     RDKit          3D

 32 33  0  0  1  0  0  0  0  0999 V2000
   27.4985  -24.1294  -15.7775 N   0  0  0  0  0  0  0  0  0  0  0  0
   26.6361  -22.9690  -15.7774 C   0  0  1  0  0  0  0  0  0  0  0  0
   25.6939  -23.0517  -16.9417 C   0  0  0  0  0  0  0  0  0  0  0  0
   25.2551  -21.7517  -17.4606 C   0  0  0  0  0  0  0  0  0  0  0  0
   26.1248  -20.8545  -17.5929 O   0  0  0  0  0  0  0  0  0  0  0  0
   25.9707  -22.7680  -14.4788 C   0  0  0  0  0  0  0  0  0  0  0  0
   25.4801  -23.7497  -13.8547 O   0  0  0  0  0  0  0  0  0  0  0  0
   23.9297  -21.5221  -17.7922 O   0  0  0  0  0  0  0  0  0  0  0  0
   25.8823  -21.4606  -13.9280 N   0  0  0  0  0  0  0  0  0  0  0  0
   25.1834  -21.1454  -12.7132 C   0  0  1  0  0  0  0  0  0  0  0  0
   25.8581  -20.0251  -12.0083 C   0  0  0  0  0  0  0  0  0  0  0  0
   27.0016  -20.4425  -11.1674 C   0  0  0  0  0  0  0  0  0  0  0  0
   28.2359  -20.9215  -11.6403 C   0  0  0  0  0  0  0  0  0  0  0  0
   29.0373  -21.1689  -10.5946 N   0  0  0  0  0  0  0  0  0  0  0  0
   28.4139  -20.8846   -9.4366 C   0  0  0  0  0  0  0  0  0  0  0  0
   28.8325  -20.9868   -8.1259 C   0  0  0  0  0  0  0  0  0  0  0  0
   27.9553  -20.6268   -7.1310 C   0  0  0  0  0  0  0  0  0  0  0  0
   26.6940  -20.1770   -7.4350 C   0  0  0  0  0  0  0  0  0  0  0  0
   26.3107  -20.0884   -8.7706 C   0  0  0  0  0  0  0  0  0  0  0  0
   27.1471  -20.4335   -9.7989 C   0  0  0  0  0  0  0  0  0  0  0  0
   23.7334  -20.9031  -12.9151 C   0  0  0  0  0  0  0  0  0  0  0  0
   23.3268  -20.2162  -13.8636 O   0  0  0  0  0  0  0  0  0  0  0  0
   22.8534  -21.4975  -11.9695 N   0  0  0  0  0  0  0  0  0  0  0  0
   21.4296  -21.3277  -12.1163 C   0  0  1  0  0  0  0  0  0  0  0  0
   20.6404  -22.1745  -11.1199 C   0  0  0  0  0  0  0  0  0  0  0  0
   19.1629  -21.9271  -11.2656 C   0  0  0  0  0  0  0  0  0  0  0  0
   18.6417  -22.6574  -12.4255 C   0  0  0  0  0  0  0  0  0  0  0  0
   18.8448  -22.1412  -13.5754 O   0  0  0  0  0  0  0  0  0  0  0  0
   21.0608  -19.8810  -11.9017 C   0  0  0  0  0  0  0  0  0  0  0  0
   19.9588  -19.3292  -12.5399 O   0  0  0  0  0  0  0  0  0  0  0  0
   17.9541  -23.8482  -12.3853 O   0  0  0  0  0  0  0  0  0  0  0  0
   21.7274  -19.1313  -11.1476 O   0  0  0  0  0  0  0  0  0  0  0  0
  2  1  1  1
  2  3  1  0
  4  3  1  0
  4  8  1  0
  5  4  2  0
  6  7  2  0
  6  2  1  0
  9  6  1  0
 10  9  1  0
 10 11  1  6
 11 12  1  0
 12 13  2  0
 12 20  1  0
 13 14  1  0
 14 15  1  0
 15 16  2  0
 16 17  1  0
 18 17  2  0
 19 18  1  0
 20 19  2  0
 20 15  1  0
 21 10  1  0
 22 21  2  0
 23 21  1  0
 24 25  1  1
 24 23  1  0
 26 27  1  0
 26 25  1  0
 27 28  2  0
 29 24  1  0
 30 29  1  0
 31 27  1  0
 32 29  2  0
M  END
$$$$
