DWE.pdb
     RDKit          3D

 32 33  0  0  1  0  0  0  0  0999 V2000
   28.3057  -24.3043  -16.9626 N   0  0  0  0  0  0  0  0  0  0  0  0
   28.0559  -22.8929  -16.7729 C   0  0  1  0  0  0  0  0  0  0  0  0
   27.6542  -22.2804  -18.0819 C   0  0  0  0  0  0  0  0  0  0  0  0
   28.7769  -21.9436  -18.9640 C   0  0  0  0  0  0  0  0  0  0  0  0
   29.2555  -22.8636  -19.6734 O   0  0  0  0  0  0  0  0  0  0  0  0
   27.1096  -22.6364  -15.6736 C   0  0  0  0  0  0  0  0  0  0  0  0
   26.3079  -23.5368  -15.2987 O   0  0  0  0  0  0  0  0  0  0  0  0
   29.2904  -20.6578  -19.0123 O   0  0  0  0  0  0  0  0  0  0  0  0
   27.1015  -21.3673  -15.0336 N   0  0  0  0  0  0  0  0  0  0  0  0
   26.2398  -21.0256  -13.9360 C   0  0  1  0  0  0  0  0  0  0  0  0
   26.8429  -19.9327  -13.1304 C   0  0  0  0  0  0  0  0  0  0  0  0
   26.7990  -20.1646  -11.6700 C   0  0  0  0  0  0  0  0  0  0  0  0
   25.6631  -20.0325  -10.8521 C   0  0  0  0  0  0  0  0  0  0  0  0
   25.9924  -20.3537   -9.5930 N   0  0  0  0  0  0  0  0  0  0  0  0
   27.2910  -20.6962   -9.5110 C   0  0  0  0  0  0  0  0  0  0  0  0
   28.0659  -21.0860   -8.4381 C   0  0  0  0  0  0  0  0  0  0  0  0
   29.3926  -21.3680   -8.6598 C   0  0  0  0  0  0  0  0  0  0  0  0
   29.9325  -21.2637   -9.9180 C   0  0  0  0  0  0  0  0  0  0  0  0
   29.1161  -20.8672  -10.9741 C   0  0  0  0  0  0  0  0  0  0  0  0
   27.7883  -20.5762  -10.8064 C   0  0  0  0  0  0  0  0  0  0  0  0
   24.8473  -20.7271  -14.3529 C   0  0  0  0  0  0  0  0  0  0  0  0
   24.6139  -19.9473  -15.2878 O   0  0  0  0  0  0  0  0  0  0  0  0
   23.8141  -21.3798  -13.6259 N   0  0  0  0  0  0  0  0  0  0  0  0
   22.4408  -21.2049  -14.0272 C   0  0  1  0  0  0  0  0  0  0  0  0
   21.5141  -22.2326  -13.3808 C   0  0  0  0  0  0  0  0  0  0  0  0
   21.0257  -21.7414  -12.0446 C   0  0  0  0  0  0  0  0  0  0  0  0
   19.6974  -22.2933  -11.7596 C   0  0  0  0  0  0  0  0  0  0  0  0
   19.2464  -23.1693  -12.5717 O   0  0  0  0  0  0  0  0  0  0  0  0
   21.9636  -19.8283  -13.6367 C   0  0  0  0  0  0  0  0  0  0  0  0
   20.9248  -19.2175  -14.3253 O   0  0  0  0  0  0  0  0  0  0  0  0
   18.8943  -21.9519  -10.6962 O   0  0  0  0  0  0  0  0  0  0  0  0
   22.4806  -19.1917  -12.6869 O   0  0  0  0  0  0  0  0  0  0  0  0
  2  1  1  6
  2  3  1  0
  4  3  1  0
  4  8  1  0
  5  4  2  0
  6  7  2  0
  6  2  1  0
  9  6  1  0
 10  9  1  0
 10 11  1  6
 11 12  1  0
 12 13  2  0
 12 20  1  0
 13 14  1  0
 14 15  1  0
 15 16  2  0
 16 17  1  0
 18 17  2  0
 19 18  1  0
 20 19  2  0
 20 15  1  0
 21 10  1  0
 22 21  2  0
 23 21  1  0
 24 25  1  1
 24 23  1  0
 26 27  1  0
 26 25  1  0
 27 28  2  0
 29 24  1  0
 30 29  1  0
 31 27  1  0
 32 29  2  0
M  END
$$$$
