DWE.pdb
     RDKit          3D

 32 33  0  0  1  0  0  0  0  0999 V2000
   28.4548  -23.0886  -16.7961 N   0  0  0  0  0  0  0  0  0  0  0  0
   27.6048  -21.9220  -16.7128 C   0  0  1  0  0  0  0  0  0  0  0  0
   26.8835  -21.7405  -18.0154 C   0  0  0  0  0  0  0  0  0  0  0  0
   27.5817  -20.8856  -18.9816 C   0  0  0  0  0  0  0  0  0  0  0  0
   27.9711  -19.7584  -18.5859 O   0  0  0  0  0  0  0  0  0  0  0  0
   26.7201  -21.9589  -15.5357 C   0  0  0  0  0  0  0  0  0  0  0  0
   26.0816  -23.0100  -15.2503 O   0  0  0  0  0  0  0  0  0  0  0  0
   27.8032  -21.3063  -20.2828 O   0  0  0  0  0  0  0  0  0  0  0  0
   26.5867  -20.8033  -14.7190 N   0  0  0  0  0  0  0  0  0  0  0  0
   25.7752  -20.7447  -13.5350 C   0  0  1  0  0  0  0  0  0  0  0  0
   26.3178  -19.7351  -12.5898 C   0  0  0  0  0  0  0  0  0  0  0  0
   27.3229  -20.2710  -11.6456 C   0  0  0  0  0  0  0  0  0  0  0  0
   28.5965  -20.7560  -11.9912 C   0  0  0  0  0  0  0  0  0  0  0  0
   29.2396  -21.1269  -10.8750 N   0  0  0  0  0  0  0  0  0  0  0  0
   28.4715  -20.9208   -9.7898 C   0  0  0  0  0  0  0  0  0  0  0  0
   28.7032  -21.1551   -8.4500 C   0  0  0  0  0  0  0  0  0  0  0  0
   27.7083  -20.8489   -7.5525 C   0  0  0  0  0  0  0  0  0  0  0  0
   26.5139  -20.3234   -7.9798 C   0  0  0  0  0  0  0  0  0  0  0  0
   26.3200  -20.1019   -9.3407 C   0  0  0  0  0  0  0  0  0  0  0  0
   27.2795  -20.3885  -10.2751 C   0  0  0  0  0  0  0  0  0  0  0  0
   24.3329  -20.5438  -13.8202 C   0  0  0  0  0  0  0  0  0  0  0  0
   23.9563  -19.6904  -14.6368 O   0  0  0  0  0  0  0  0  0  0  0  0
   23.4243  -21.3765  -13.1111 N   0  0  0  0  0  0  0  0  0  0  0  0
   22.0090  -21.2591  -13.3581 C   0  0  1  0  0  0  0  0  0  0  0  0
   21.3293  -22.6210  -13.4849 C   0  0  0  0  0  0  0  0  0  0  0  0
   19.8563  -22.4572  -13.7471 C   0  0  0  0  0  0  0  0  0  0  0  0
   19.1054  -23.5343  -13.0940 C   0  0  0  0  0  0  0  0  0  0  0  0
   17.9174  -23.2645  -12.7120 O   0  0  0  0  0  0  0  0  0  0  0  0
   21.3516  -20.5074  -12.2278 C   0  0  0  0  0  0  0  0  0  0  0  0
   21.8856  -20.5454  -10.9473 O   0  0  0  0  0  0  0  0  0  0  0  0
   19.5663  -24.8084  -12.8565 O   0  0  0  0  0  0  0  0  0  0  0  0
   20.3106  -19.8280  -12.4000 O   0  0  0  0  0  0  0  0  0  0  0  0
  2  1  1  6
  2  3  1  0
  4  3  1  0
  4  8  1  0
  5  4  2  0
  6  7  2  0
  6  2  1  0
  9  6  1  0
 10  9  1  0
 10 11  1  1
 11 12  1  0
 12 13  2  0
 12 20  1  0
 13 14  1  0
 14 15  1  0
 15 16  2  0
 16 17  1  0
 18 17  2  0
 19 18  1  0
 20 19  2  0
 20 15  1  0
 21 10  1  0
 22 21  2  0
 23 21  1  0
 24 25  1  1
 24 23  1  0
 26 27  1  0
 26 25  1  0
 27 28  2  0
 29 24  1  0
 30 29  1  0
 31 27  1  0
 32 29  2  0
M  END
$$$$
