DWE.pdb
     RDKit          3D

 32 33  0  0  1  0  0  0  0  0999 V2000
   27.5587  -19.6655  -18.0676 N   0  0  0  0  0  0  0  0  0  0  0  0
   26.4409  -19.1532  -17.3069 C   0  0  1  0  0  0  0  0  0  0  0  0
   25.2484  -19.0200  -18.2070 C   0  0  0  0  0  0  0  0  0  0  0  0
   25.3983  -18.0185  -19.2684 C   0  0  0  0  0  0  0  0  0  0  0  0
   25.6734  -16.8421  -18.9233 O   0  0  0  0  0  0  0  0  0  0  0  0
   26.1886  -19.9396  -16.0872 C   0  0  0  0  0  0  0  0  0  0  0  0
   25.7513  -21.1211  -16.1689 O   0  0  0  0  0  0  0  0  0  0  0  0
   25.2418  -18.3581  -20.6023 O   0  0  0  0  0  0  0  0  0  0  0  0
   26.4399  -19.3620  -14.8129 N   0  0  0  0  0  0  0  0  0  0  0  0
   26.1905  -20.0282  -13.5648 C   0  0  1  0  0  0  0  0  0  0  0  0
   26.9852  -19.3988  -12.4788 C   0  0  0  0  0  0  0  0  0  0  0  0
   27.2051  -20.2744  -11.3067 C   0  0  0  0  0  0  0  0  0  0  0  0
   27.6759  -21.5985  -11.3486 C   0  0  0  0  0  0  0  0  0  0  0  0
   27.7804  -22.0641  -10.0959 N   0  0  0  0  0  0  0  0  0  0  0  0
   27.4053  -21.1281   -9.2051 C   0  0  0  0  0  0  0  0  0  0  0  0
   27.3394  -21.1542   -7.8272 C   0  0  0  0  0  0  0  0  0  0  0  0
   26.8981  -20.0285   -7.1737 C   0  0  0  0  0  0  0  0  0  0  0  0
   26.5321  -18.9065   -7.8757 C   0  0  0  0  0  0  0  0  0  0  0  0
   26.6136  -18.9211   -9.2656 C   0  0  0  0  0  0  0  0  0  0  0  0
   27.0477  -20.0164   -9.9640 C   0  0  0  0  0  0  0  0  0  0  0  0
   24.7481  -20.1314  -13.2316 C   0  0  0  0  0  0  0  0  0  0  0  0
   23.9732  -19.1889  -13.4504 O   0  0  0  0  0  0  0  0  0  0  0  0
   24.3166  -21.3576  -12.6553 N   0  0  0  0  0  0  0  0  0  0  0  0
   22.9339  -21.5223  -12.2830 C   0  0  1  0  0  0  0  0  0  0  0  0
   22.2743  -20.1967  -11.9079 C   0  0  0  0  0  0  0  0  0  0  0  0
   21.2127  -19.8294  -12.9096 C   0  0  0  0  0  0  0  0  0  0  0  0
   20.3093  -18.8241  -12.3408 C   0  0  0  0  0  0  0  0  0  0  0  0
   20.6011  -17.5984  -12.5473 O   0  0  0  0  0  0  0  0  0  0  0  0
   22.1621  -22.1250  -13.4302 C   0  0  0  0  0  0  0  0  0  0  0  0
   22.7634  -22.3128  -14.6668 O   0  0  0  0  0  0  0  0  0  0  0  0
   19.1762  -19.0835  -11.6050 O   0  0  0  0  0  0  0  0  0  0  0  0
   20.9628  -22.4751  -13.3115 O   0  0  0  0  0  0  0  0  0  0  0  0
  2  1  1  6
  2  3  1  0
  4  3  1  0
  4  8  1  0
  5  4  2  0
  6  7  2  0
  6  2  1  0
  9  6  1  0
 10  9  1  0
 10 11  1  1
 11 12  1  0
 12 13  2  0
 12 20  1  0
 13 14  1  0
 14 15  1  0
 15 16  2  0
 16 17  1  0
 18 17  2  0
 19 18  1  0
 20 19  2  0
 20 15  1  0
 21 10  1  0
 22 21  2  0
 23 21  1  0
 24 25  1  6
 24 23  1  0
 26 27  1  0
 26 25  1  0
 27 28  2  0
 29 24  1  0
 30 29  1  0
 31 27  1  0
 32 29  2  0
M  END
$$$$
