DWE.pdb
     RDKit          3D

 32 33  0  0  1  0  0  0  0  0999 V2000
   19.6166  -13.7695  -17.1971 N   0  0  0  0  0  0  0  0  0  0  0  0
   18.6181  -12.8319  -16.7342 C   0  0  1  0  0  0  0  0  0  0  0  0
   18.0713  -13.2998  -15.4181 C   0  0  0  0  0  0  0  0  0  0  0  0
   17.2248  -14.4948  -15.5032 C   0  0  0  0  0  0  0  0  0  0  0  0
   16.6250  -14.7068  -16.5867 O   0  0  0  0  0  0  0  0  0  0  0  0
   19.1180  -11.4464  -16.7192 C   0  0  0  0  0  0  0  0  0  0  0  0
   20.2440  -11.1799  -16.2141 O   0  0  0  0  0  0  0  0  0  0  0  0
   17.0917  -15.3576  -14.4275 O   0  0  0  0  0  0  0  0  0  0  0  0
   18.3259  -10.4063  -17.2770 N   0  0  0  0  0  0  0  0  0  0  0  0
   18.7039   -9.0203  -17.2786 C   0  0  1  0  0  0  0  0  0  0  0  0
   18.1815   -8.3468  -18.4954 C   0  0  0  0  0  0  0  0  0  0  0  0
   18.9737   -8.6083  -19.7172 C   0  0  0  0  0  0  0  0  0  0  0  0
   19.7356   -9.7627  -19.9695 C   0  0  0  0  0  0  0  0  0  0  0  0
   20.2875   -9.6636  -21.1871 N   0  0  0  0  0  0  0  0  0  0  0  0
   19.9423   -8.5039  -21.7755 C   0  0  0  0  0  0  0  0  0  0  0  0
   20.2714   -7.9711  -23.0049 C   0  0  0  0  0  0  0  0  0  0  0  0
   19.7686   -6.7356  -23.3363 C   0  0  0  0  0  0  0  0  0  0  0  0
   18.9593   -6.0495  -22.4646 C   0  0  0  0  0  0  0  0  0  0  0  0
   18.6509   -6.6225  -21.2336 C   0  0  0  0  0  0  0  0  0  0  0  0
   19.1251   -7.8507  -20.8562 C   0  0  0  0  0  0  0  0  0  0  0  0
   18.3362   -8.3093  -16.0292 C   0  0  0  0  0  0  0  0  0  0  0  0
   17.1837   -8.3685  -15.5763 O   0  0  0  0  0  0  0  0  0  0  0  0
   19.3699   -7.5681  -15.3936 N   0  0  0  0  0  0  0  0  0  0  0  0
   19.0606   -6.7559  -14.2437 C   0  0  1  0  0  0  0  0  0  0  0  0
   20.3172   -6.2442  -13.5423 C   0  0  0  0  0  0  0  0  0  0  0  0
   21.0680   -5.2871  -14.4287 C   0  0  0  0  0  0  0  0  0  0  0  0
   22.2123   -4.7229  -13.7058 C   0  0  0  0  0  0  0  0  0  0  0  0
   22.2900   -4.9730  -12.4562 O   0  0  0  0  0  0  0  0  0  0  0  0
   18.2369   -5.5643  -14.6639 C   0  0  0  0  0  0  0  0  0  0  0  0
   17.5179   -4.8350  -13.7272 O   0  0  0  0  0  0  0  0  0  0  0  0
   23.2090   -3.9489  -14.2534 O   0  0  0  0  0  0  0  0  0  0  0  0
   18.1714   -5.1919  -15.8605 O   0  0  0  0  0  0  0  0  0  0  0  0
  2  1  1  1
  2  3  1  0
  4  3  1  0
  4  8  1  0
  5  4  2  0
  6  7  2  0
  6  2  1  0
  9  6  1  0
 10  9  1  0
 10 11  1  6
 11 12  1  0
 12 13  2  0
 12 20  1  0
 13 14  1  0
 14 15  1  0
 15 16  2  0
 16 17  1  0
 18 17  2  0
 19 18  1  0
 20 19  2  0
 20 15  1  0
 21 10  1  0
 22 21  2  0
 23 21  1  0
 24 25  1  6
 24 23  1  0
 26 27  1  0
 26 25  1  0
 27 28  2  0
 29 24  1  0
 30 29  1  0
 31 27  1  0
 32 29  2  0
M  END
$$$$
