GDH.pdb
     RDKit          3D

 23 23  0  0  1  0  0  0  0  0999 V2000
   15.4323  -18.7324   13.6023 N   0  0  0  0  0  0  0  0  0  0  0  0
   16.1607  -18.3247   14.7831 C   0  0  0  0  0  0  0  0  0  0  0  0
   15.8994  -19.2770   15.9387 C   0  0  0  0  0  0  0  0  0  0  0  0
   14.8364  -19.9212   15.9833 O   0  0  0  0  0  0  0  0  0  0  0  0
   16.9153  -19.3590   16.9034 N   0  0  0  0  0  0  0  0  0  0  0  0
   16.8523  -20.1122   18.1098 C   0  0  1  0  0  0  0  0  0  0  0  0
   18.1727  -20.4173   18.7828 C   0  0  0  0  0  0  0  0  0  0  0  0
   19.1378  -20.9018   17.7746 C   0  0  0  0  0  0  0  0  0  0  0  0
   18.8819  -21.8378   16.9462 O   0  0  0  0  0  0  0  0  0  0  0  0
   15.7498  -19.7892   19.0062 C   0  0  0  0  0  0  0  0  0  0  0  0
   15.4713  -18.5606   19.2538 O   0  0  0  0  0  0  0  0  0  0  0  0
   20.4161  -20.3556   17.6620 O   0  0  0  0  0  0  0  0  0  0  0  0
   14.9170  -20.7320   19.6598 N   0  0  0  0  0  0  0  0  0  0  0  0
   13.7468  -20.3592   20.4495 C   0  0  1  0  0  0  0  0  0  0  0  0
   12.6080  -21.2926   20.2278 C   0  0  0  0  0  0  0  0  0  0  0  0
   12.0551  -21.0910   18.8712 C   0  0  0  0  0  0  0  0  0  0  0  0
   11.2538  -20.0251   18.5209 C   0  0  0  0  0  0  0  0  0  0  0  0
   10.9393  -20.1667   17.2249 N   0  0  0  0  0  0  0  0  0  0  0  0
   11.5102  -21.2761   16.7520 C   0  0  0  0  0  0  0  0  0  0  0  0
   12.1866  -21.8332   17.7569 N   0  0  0  0  0  0  0  0  0  0  0  0
   14.0674  -20.1752   21.8594 C   0  0  0  0  0  0  0  0  0  0  0  0
   13.3172  -19.5117   22.8075 O   0  0  0  0  0  0  0  0  0  0  0  0
   15.1655  -20.6770   22.2866 O   0  0  0  0  0  0  0  0  0  0  0  0
  2  1  1  0
  3  2  1  0
  4  3  2  0
  5  3  1  0
  6 10  1  0
  6  5  1  0
  7  8  1  0
  6  7  1  1
  8  9  2  0
  8 12  1  0
 10 13  1  0
 11 10  2  0
 13 14  1  0
 14 15  1  1
 15 16  1  0
 16 17  2  0
 18 17  1  0
 19 18  1  0
 20 19  2  0
 20 16  1  0
 21 14  1  0
 21 22  1  0
 23 21  2  0
M  END
$$$$
