GDH.pdb
     RDKit          3D

 23 23  0  0  1  0  0  0  0  0999 V2000
   12.8341  -14.1792   17.9782 N   0  0  0  0  0  0  0  0  0  0  0  0
   13.2506  -15.5120   18.3539 C   0  0  0  0  0  0  0  0  0  0  0  0
   12.3249  -16.0931   19.4103 C   0  0  0  0  0  0  0  0  0  0  0  0
   11.5247  -15.3526   20.0089 O   0  0  0  0  0  0  0  0  0  0  0  0
   12.4490  -17.4723   19.6383 N   0  0  0  0  0  0  0  0  0  0  0  0
   11.7471  -18.2136   20.6304 C   0  0  1  0  0  0  0  0  0  0  0  0
   11.6659  -19.7100   20.4210 C   0  0  0  0  0  0  0  0  0  0  0  0
   11.1121  -19.9892   19.0801 C   0  0  0  0  0  0  0  0  0  0  0  0
    9.9126  -19.7161   18.7417 O   0  0  0  0  0  0  0  0  0  0  0  0
   11.9448  -17.7816   22.0080 C   0  0  0  0  0  0  0  0  0  0  0  0
   13.1280  -17.5082   22.4245 O   0  0  0  0  0  0  0  0  0  0  0  0
   11.8811  -20.5812   18.0785 O   0  0  0  0  0  0  0  0  0  0  0  0
   10.9215  -17.6243   22.9763 N   0  0  0  0  0  0  0  0  0  0  0  0
   11.1783  -17.2439   24.3624 C   0  0  1  0  0  0  0  0  0  0  0  0
    9.9686  -16.6687   25.0128 C   0  0  0  0  0  0  0  0  0  0  0  0
    9.3772  -15.6332   24.1383 C   0  0  0  0  0  0  0  0  0  0  0  0
    9.9899  -15.1482   23.0024 C   0  0  0  0  0  0  0  0  0  0  0  0
    9.1745  -14.2279   22.4668 N   0  0  0  0  0  0  0  0  0  0  0  0
    8.0791  -14.1181   23.2208 C   0  0  0  0  0  0  0  0  0  0  0  0
    8.2082  -14.9743   24.2347 N   0  0  0  0  0  0  0  0  0  0  0  0
   11.7783  -18.3275   25.1308 C   0  0  0  0  0  0  0  0  0  0  0  0
   12.0126  -19.6200   24.7106 O   0  0  0  0  0  0  0  0  0  0  0  0
   12.1338  -18.0727   26.3344 O   0  0  0  0  0  0  0  0  0  0  0  0
  2  1  1  0
  3  2  1  0
  4  3  2  0
  5  3  1  0
  6 10  1  0
  6  5  1  0
  7  8  1  0
  6  7  1  1
  8  9  2  0
  8 12  1  0
 10 13  1  0
 11 10  2  0
 13 14  1  0
 14 15  1  1
 15 16  1  0
 16 17  2  0
 18 17  1  0
 19 18  1  0
 20 19  2  0
 20 16  1  0
 21 14  1  0
 21 22  1  0
 23 21  2  0
M  END
$$$$
