GDH.pdb
     RDKit          3D

 23 23  0  0  1  0  0  0  0  0999 V2000
    4.7508  -18.4058   20.3049 N   0  0  0  0  0  0  0  0  0  0  0  0
    5.1451  -17.1145   20.8228 C   0  0  0  0  0  0  0  0  0  0  0  0
    6.3516  -17.2417   21.7388 C   0  0  0  0  0  0  0  0  0  0  0  0
    6.2392  -17.8161   22.8362 O   0  0  0  0  0  0  0  0  0  0  0  0
    7.5444  -16.6796   21.2584 N   0  0  0  0  0  0  0  0  0  0  0  0
    8.7836  -16.6447   21.9581 C   0  0  1  0  0  0  0  0  0  0  0  0
   10.0171  -16.3595   21.1293 C   0  0  0  0  0  0  0  0  0  0  0  0
   11.2247  -16.6200   21.9397 C   0  0  0  0  0  0  0  0  0  0  0  0
   11.3953  -17.6790   22.6305 O   0  0  0  0  0  0  0  0  0  0  0  0
    8.7544  -16.0234   23.2759 C   0  0  0  0  0  0  0  0  0  0  0  0
    8.8376  -14.7464   23.3782 O   0  0  0  0  0  0  0  0  0  0  0  0
   12.2763  -15.7061   22.0021 O   0  0  0  0  0  0  0  0  0  0  0  0
    8.6373  -16.7133   24.5088 N   0  0  0  0  0  0  0  0  0  0  0  0
    8.5439  -16.0396   25.8008 C   0  0  1  0  0  0  0  0  0  0  0  0
    7.1297  -15.7979   26.1992 C   0  0  0  0  0  0  0  0  0  0  0  0
    6.8562  -14.3446   26.2100 C   0  0  0  0  0  0  0  0  0  0  0  0
    7.8013  -13.3849   25.9153 C   0  0  0  0  0  0  0  0  0  0  0  0
    7.2072  -12.1876   26.0258 N   0  0  0  0  0  0  0  0  0  0  0  0
    5.9316  -12.3599   26.3773 C   0  0  0  0  0  0  0  0  0  0  0  0
    5.7245  -13.6723   26.4877 N   0  0  0  0  0  0  0  0  0  0  0  0
    9.3199  -16.7149   26.8335 C   0  0  0  0  0  0  0  0  0  0  0  0
    9.8337  -16.1630   27.9882 O   0  0  0  0  0  0  0  0  0  0  0  0
    9.5648  -17.9611   26.6692 O   0  0  0  0  0  0  0  0  0  0  0  0
  2  1  1  0
  3  2  1  0
  4  3  2  0
  5  3  1  0
  6 10  1  0
  6  5  1  0
  7  8  1  0
  6  7  1  6
  8  9  2  0
  8 12  1  0
 10 13  1  0
 11 10  2  0
 13 14  1  0
 14 15  1  1
 15 16  1  0
 16 17  2  0
 18 17  1  0
 19 18  1  0
 20 19  2  0
 20 16  1  0
 21 14  1  0
 21 22  1  0
 23 21  2  0
M  END
$$$$
