GDH.pdb
     RDKit          3D

 23 23  0  0  1  0  0  0  0  0999 V2000
    4.7142  -26.5064   19.3552 N   0  0  0  0  0  0  0  0  0  0  0  0
    4.0563  -26.0823   20.5711 C   0  0  0  0  0  0  0  0  0  0  0  0
    4.4747  -24.6714   20.9517 C   0  0  0  0  0  0  0  0  0  0  0  0
    5.4592  -24.1468   20.4016 O   0  0  0  0  0  0  0  0  0  0  0  0
    3.6892  -24.0454   21.9318 N   0  0  0  0  0  0  0  0  0  0  0  0
    3.9329  -22.7590   22.4907 C   0  0  1  0  0  0  0  0  0  0  0  0
    2.7186  -21.9879   22.9602 C   0  0  0  0  0  0  0  0  0  0  0  0
    1.6587  -22.0679   21.9341 C   0  0  0  0  0  0  0  0  0  0  0  0
    1.7678  -21.5645   20.7668 O   0  0  0  0  0  0  0  0  0  0  0  0
    5.1154  -22.6440   23.3344 C   0  0  0  0  0  0  0  0  0  0  0  0
    5.2583  -23.4310   24.3386 O   0  0  0  0  0  0  0  0  0  0  0  0
    0.4467  -22.7119   22.1815 O   0  0  0  0  0  0  0  0  0  0  0  0
    6.1695  -21.7139   23.1520 N   0  0  0  0  0  0  0  0  0  0  0  0
    7.3446  -21.6514   24.0163 C   0  0  1  0  0  0  0  0  0  0  0  0
    8.6054  -21.5449   23.2313 C   0  0  0  0  0  0  0  0  0  0  0  0
    8.7967  -22.7709   22.4267 C   0  0  0  0  0  0  0  0  0  0  0  0
    7.9733  -23.8741   22.5035 C   0  0  0  0  0  0  0  0  0  0  0  0
    8.4442  -24.7886   21.6429 N   0  0  0  0  0  0  0  0  0  0  0  0
    9.5267  -24.3025   21.0327 C   0  0  0  0  0  0  0  0  0  0  0  0
    9.7358  -23.0765   21.5131 N   0  0  0  0  0  0  0  0  0  0  0  0
    7.2224  -20.6225   25.0415 C   0  0  0  0  0  0  0  0  0  0  0  0
    6.2246  -19.6783   25.1634 O   0  0  0  0  0  0  0  0  0  0  0  0
    8.1345  -20.5706   25.9390 O   0  0  0  0  0  0  0  0  0  0  0  0
  2  1  1  0
  3  2  1  0
  4  3  2  0
  5  3  1  0
  6 10  1  0
  6  5  1  0
  7  8  1  0
  6  7  1  1
  8  9  2  0
  8 12  1  0
 10 13  1  0
 11 10  2  0
 13 14  1  0
 14 15  1  6
 15 16  1  0
 16 17  2  0
 18 17  1  0
 19 18  1  0
 20 19  2  0
 20 16  1  0
 21 14  1  0
 21 22  1  0
 23 21  2  0
M  END
$$$$
