GDH.pdb
     RDKit          3D

 23 23  0  0  1  0  0  0  0  0999 V2000
    9.0970  -15.0106   14.7977 N   0  0  0  0  0  0  0  0  0  0  0  0
   10.4943  -14.8184   15.1162 C   0  0  0  0  0  0  0  0  0  0  0  0
   10.8366  -15.4435   16.4589 C   0  0  0  0  0  0  0  0  0  0  0  0
    9.9308  -15.8957   17.1814 O   0  0  0  0  0  0  0  0  0  0  0  0
   12.1994  -15.4625   16.7935 N   0  0  0  0  0  0  0  0  0  0  0  0
   12.7455  -15.9541   18.0127 C   0  0  1  0  0  0  0  0  0  0  0  0
   14.2064  -16.3475   17.9859 C   0  0  0  0  0  0  0  0  0  0  0  0
   14.3358  -17.7213   17.4578 C   0  0  0  0  0  0  0  0  0  0  0  0
   13.8593  -18.7496   18.0437 O   0  0  0  0  0  0  0  0  0  0  0  0
   12.2968  -15.2860   19.2275 C   0  0  0  0  0  0  0  0  0  0  0  0
   12.8261  -14.1677   19.5701 O   0  0  0  0  0  0  0  0  0  0  0  0
   15.0005  -17.9865   16.2609 O   0  0  0  0  0  0  0  0  0  0  0  0
   11.2925  -15.7636   20.1066 N   0  0  0  0  0  0  0  0  0  0  0  0
   10.8943  -15.0666   21.3263 C   0  0  1  0  0  0  0  0  0  0  0  0
    9.4136  -14.9746   21.4542 C   0  0  0  0  0  0  0  0  0  0  0  0
    8.8586  -14.2346   20.3004 C   0  0  0  0  0  0  0  0  0  0  0  0
    9.6327  -13.6555   19.3173 C   0  0  0  0  0  0  0  0  0  0  0  0
    8.8012  -13.0733   18.4408 N   0  0  0  0  0  0  0  0  0  0  0  0
    7.5411  -13.2645   18.8357 C   0  0  0  0  0  0  0  0  0  0  0  0
    7.5825  -13.9706   19.9660 N   0  0  0  0  0  0  0  0  0  0  0  0
   11.5360  -15.6187   22.5128 C   0  0  0  0  0  0  0  0  0  0  0  0
   12.3339  -16.7412   22.5858 O   0  0  0  0  0  0  0  0  0  0  0  0
   11.3500  -15.0091   23.6236 O   0  0  0  0  0  0  0  0  0  0  0  0
  2  1  1  0
  3  2  1  0
  4  3  2  0
  5  3  1  0
  6 10  1  0
  6  5  1  0
  7  8  1  0
  6  7  1  6
  8  9  2  0
  8 12  1  0
 10 13  1  0
 11 10  2  0
 13 14  1  0
 14 15  1  1
 15 16  1  0
 16 17  2  0
 18 17  1  0
 19 18  1  0
 20 19  2  0
 20 16  1  0
 21 14  1  0
 21 22  1  0
 23 21  2  0
M  END
$$$$
