GDH.pdb
     RDKit          3D

 23 23  0  0  1  0  0  0  0  0999 V2000
    9.1378  -15.6542   15.5329 N   0  0  0  0  0  0  0  0  0  0  0  0
   10.5491  -15.3417   15.5709 C   0  0  0  0  0  0  0  0  0  0  0  0
   11.1486  -15.6987   16.9214 C   0  0  0  0  0  0  0  0  0  0  0  0
   10.6770  -16.6432   17.5791 O   0  0  0  0  0  0  0  0  0  0  0  0
   12.2283  -14.9053   17.3387 N   0  0  0  0  0  0  0  0  0  0  0  0
   12.9443  -15.0578   18.5597 C   0  0  1  0  0  0  0  0  0  0  0  0
   14.3852  -14.5959   18.5575 C   0  0  0  0  0  0  0  0  0  0  0  0
   15.1944  -15.5141   17.7299 C   0  0  0  0  0  0  0  0  0  0  0  0
   16.4669  -15.5826   17.7914 O   0  0  0  0  0  0  0  0  0  0  0  0
   12.1956  -14.7752   19.7774 C   0  0  0  0  0  0  0  0  0  0  0  0
   12.4637  -13.7199   20.4576 O   0  0  0  0  0  0  0  0  0  0  0  0
   14.6064  -16.3821   16.8102 O   0  0  0  0  0  0  0  0  0  0  0  0
   11.1566  -15.5791   20.3103 N   0  0  0  0  0  0  0  0  0  0  0  0
   10.4111  -15.2329   21.5170 C   0  0  1  0  0  0  0  0  0  0  0  0
    8.9400  -15.2702   21.2898 C   0  0  0  0  0  0  0  0  0  0  0  0
    8.6072  -14.5273   20.0552 C   0  0  0  0  0  0  0  0  0  0  0  0
    8.7479  -13.1623   19.9208 C   0  0  0  0  0  0  0  0  0  0  0  0
    8.3529  -12.8371   18.6811 N   0  0  0  0  0  0  0  0  0  0  0  0
    7.9716  -13.9414   18.0366 C   0  0  0  0  0  0  0  0  0  0  0  0
    8.1284  -14.9649   18.8766 N   0  0  0  0  0  0  0  0  0  0  0  0
   10.8302  -16.0195   22.6703 C   0  0  0  0  0  0  0  0  0  0  0  0
   10.4057  -15.8815   23.9751 O   0  0  0  0  0  0  0  0  0  0  0  0
   11.6900  -16.9477   22.4721 O   0  0  0  0  0  0  0  0  0  0  0  0
  2  1  1  0
  3  2  1  0
  4  3  2  0
  5  3  1  0
  6 10  1  0
  6  5  1  0
  7  8  1  0
  6  7  1  6
  8  9  2  0
  8 12  1  0
 10 13  1  0
 11 10  2  0
 13 14  1  0
 14 15  1  6
 15 16  1  0
 16 17  2  0
 18 17  1  0
 19 18  1  0
 20 19  2  0
 20 16  1  0
 21 14  1  0
 21 22  1  0
 23 21  2  0
M  END
$$$$
