GDH.pdb
     RDKit          3D

 23 23  0  0  1  0  0  0  0  0999 V2000
    5.8035  -16.1100   19.6626 N   0  0  0  0  0  0  0  0  0  0  0  0
    6.2312  -15.1845   20.6880 C   0  0  0  0  0  0  0  0  0  0  0  0
    7.1609  -15.8642   21.6801 C   0  0  0  0  0  0  0  0  0  0  0  0
    6.7240  -16.7564   22.4286 O   0  0  0  0  0  0  0  0  0  0  0  0
    8.4908  -15.4159   21.6760 N   0  0  0  0  0  0  0  0  0  0  0  0
    9.5105  -15.8416   22.5735 C   0  0  1  0  0  0  0  0  0  0  0  0
   10.9355  -15.7242   22.0781 C   0  0  0  0  0  0  0  0  0  0  0  0
   11.1625  -16.7058   20.9975 C   0  0  0  0  0  0  0  0  0  0  0  0
   10.8959  -17.9487   21.1065 O   0  0  0  0  0  0  0  0  0  0  0  0
    9.3038  -15.5096   23.9772 C   0  0  0  0  0  0  0  0  0  0  0  0
    8.8907  -14.3373   24.2986 O   0  0  0  0  0  0  0  0  0  0  0  0
   11.6936  -16.3283   19.7644 O   0  0  0  0  0  0  0  0  0  0  0  0
    9.5199  -16.3854   25.0707 N   0  0  0  0  0  0  0  0  0  0  0  0
    9.1320  -16.0692   26.4424 C   0  0  1  0  0  0  0  0  0  0  0  0
    7.6821  -15.7474   26.5485 C   0  0  0  0  0  0  0  0  0  0  0  0
    7.4973  -14.2804   26.5701 C   0  0  0  0  0  0  0  0  0  0  0  0
    6.6741  -13.5988   25.6990 C   0  0  0  0  0  0  0  0  0  0  0  0
    6.7541  -12.2957   26.0058 N   0  0  0  0  0  0  0  0  0  0  0  0
    7.5927  -12.1355   27.0312 C   0  0  0  0  0  0  0  0  0  0  0  0
    8.0409  -13.3448   27.3695 N   0  0  0  0  0  0  0  0  0  0  0  0
    9.5597  -17.0931   27.3875 C   0  0  0  0  0  0  0  0  0  0  0  0
    9.6430  -16.9816   28.7596 O   0  0  0  0  0  0  0  0  0  0  0  0
    9.9025  -18.2314   26.9113 O   0  0  0  0  0  0  0  0  0  0  0  0
  2  1  1  0
  3  2  1  0
  4  3  2  0
  5  3  1  0
  6 10  1  0
  6  5  1  0
  7  8  1  0
  6  7  1  6
  8  9  2  0
  8 12  1  0
 10 13  1  0
 11 10  2  0
 13 14  1  0
 14 15  1  6
 15 16  1  0
 16 17  2  0
 18 17  1  0
 19 18  1  0
 20 19  2  0
 20 16  1  0
 21 14  1  0
 21 22  1  0
 23 21  2  0
M  END
$$$$
