GDH.pdb
     RDKit          3D

 23 23  0  0  1  0  0  0  0  0999 V2000
    5.6995  -15.5770   20.1245 N   0  0  0  0  0  0  0  0  0  0  0  0
    6.8880  -14.8784   20.5610 C   0  0  0  0  0  0  0  0  0  0  0  0
    7.8578  -15.8296   21.2432 C   0  0  0  0  0  0  0  0  0  0  0  0
    7.5483  -17.0241   21.3996 O   0  0  0  0  0  0  0  0  0  0  0  0
    9.0734  -15.2661   21.6606 N   0  0  0  0  0  0  0  0  0  0  0  0
   10.0984  -15.9464   22.3769 C   0  0  1  0  0  0  0  0  0  0  0  0
   11.4790  -15.9271   21.7579 C   0  0  0  0  0  0  0  0  0  0  0  0
   12.3111  -16.9776   22.3798 C   0  0  0  0  0  0  0  0  0  0  0  0
   13.2451  -16.7352   23.2145 O   0  0  0  0  0  0  0  0  0  0  0  0
   10.0582  -15.8137   23.8275 C   0  0  0  0  0  0  0  0  0  0  0  0
   10.8482  -14.9877   24.4121 O   0  0  0  0  0  0  0  0  0  0  0  0
   12.1247  -18.3285   22.0880 O   0  0  0  0  0  0  0  0  0  0  0  0
    9.1991  -16.5326   24.6963 N   0  0  0  0  0  0  0  0  0  0  0  0
    9.1990  -16.3642   26.1467 C   0  0  1  0  0  0  0  0  0  0  0  0
    7.8322  -16.0979   26.6740 C   0  0  0  0  0  0  0  0  0  0  0  0
    7.3588  -14.7829   26.1905 C   0  0  0  0  0  0  0  0  0  0  0  0
    7.9050  -13.5798   26.5842 C   0  0  0  0  0  0  0  0  0  0  0  0
    7.2314  -12.6064   25.9538 N   0  0  0  0  0  0  0  0  0  0  0  0
    6.2879  -13.1515   25.1837 C   0  0  0  0  0  0  0  0  0  0  0  0
    6.3703  -14.4739   25.3318 N   0  0  0  0  0  0  0  0  0  0  0  0
    9.8701  -17.4627   26.8305 C   0  0  0  0  0  0  0  0  0  0  0  0
   10.5281  -18.5288   26.2539 O   0  0  0  0  0  0  0  0  0  0  0  0
    9.8580  -17.4576   28.1111 O   0  0  0  0  0  0  0  0  0  0  0  0
  2  1  1  0
  3  2  1  0
  4  3  2  0
  5  3  1  0
  6 10  1  0
  6  5  1  0
  7  8  1  0
  6  7  1  6
  8  9  2  0
  8 12  1  0
 10 13  1  0
 11 10  2  0
 13 14  1  0
 14 15  1  1
 15 16  1  0
 16 17  2  0
 18 17  1  0
 19 18  1  0
 20 19  2  0
 20 16  1  0
 21 14  1  0
 21 22  1  0
 23 21  2  0
M  END
$$$$
