GDH.pdb
     RDKit          3D

 23 23  0  0  1  0  0  0  0  0999 V2000
    9.1514  -20.5396   19.8896 N   0  0  0  0  0  0  0  0  0  0  0  0
   10.1761  -19.5385   20.0859 C   0  0  0  0  0  0  0  0  0  0  0  0
   11.0867  -19.9127   21.2442 C   0  0  0  0  0  0  0  0  0  0  0  0
   10.8259  -20.9093   21.9411 O   0  0  0  0  0  0  0  0  0  0  0  0
   12.1929  -19.0732   21.4467 N   0  0  0  0  0  0  0  0  0  0  0  0
   13.1880  -19.2428   22.4504 C   0  0  1  0  0  0  0  0  0  0  0  0
   14.4836  -19.8898   22.0117 C   0  0  0  0  0  0  0  0  0  0  0  0
   15.3360  -18.8820   21.3478 C   0  0  0  0  0  0  0  0  0  0  0  0
   16.4014  -18.4083   21.8657 O   0  0  0  0  0  0  0  0  0  0  0  0
   13.3229  -18.1506   23.4055 C   0  0  0  0  0  0  0  0  0  0  0  0
   14.3940  -18.0476   24.1058 O   0  0  0  0  0  0  0  0  0  0  0  0
   15.0236  -18.3743   20.0870 O   0  0  0  0  0  0  0  0  0  0  0  0
   12.3524  -17.1467   23.6505 N   0  0  0  0  0  0  0  0  0  0  0  0
   11.3104  -17.2672   24.6663 C   0  0  1  0  0  0  0  0  0  0  0  0
   10.0306  -17.7661   24.0914 C   0  0  0  0  0  0  0  0  0  0  0  0
    9.6674  -16.9581   22.9073 C   0  0  0  0  0  0  0  0  0  0  0  0
    9.9078  -15.6047   22.8002 C   0  0  0  0  0  0  0  0  0  0  0  0
    9.4486  -15.2077   21.6043 N   0  0  0  0  0  0  0  0  0  0  0  0
    8.9316  -16.2562   20.9610 C   0  0  0  0  0  0  0  0  0  0  0  0
    9.0675  -17.3166   21.7578 N   0  0  0  0  0  0  0  0  0  0  0  0
   11.7532  -18.0343   25.8238 C   0  0  0  0  0  0  0  0  0  0  0  0
   11.2734  -17.9524   27.1142 O   0  0  0  0  0  0  0  0  0  0  0  0
   12.6937  -18.8849   25.6450 O   0  0  0  0  0  0  0  0  0  0  0  0
  2  1  1  0
  3  2  1  0
  4  3  2  0
  5  3  1  0
  6 10  1  0
  6  5  1  0
  7  8  1  0
  6  7  1  6
  8  9  2  0
  8 12  1  0
 10 13  1  0
 11 10  2  0
 13 14  1  0
 14 15  1  6
 15 16  1  0
 16 17  2  0
 18 17  1  0
 19 18  1  0
 20 19  2  0
 20 16  1  0
 21 14  1  0
 21 22  1  0
 23 21  2  0
M  END
$$$$
