GDH.pdb
     RDKit          3D

 23 23  0  0  1  0  0  0  0  0999 V2000
   12.3305  -13.3997   19.7673 N   0  0  0  0  0  0  0  0  0  0  0  0
   12.5147  -14.8281   19.6370 C   0  0  0  0  0  0  0  0  0  0  0  0
   11.7112  -15.5776   20.6874 C   0  0  0  0  0  0  0  0  0  0  0  0
   10.6820  -15.0660   21.1628 O   0  0  0  0  0  0  0  0  0  0  0  0
   12.2111  -16.8365   21.0545 N   0  0  0  0  0  0  0  0  0  0  0  0
   11.6581  -17.6877   22.0526 C   0  0  1  0  0  0  0  0  0  0  0  0
   11.8866  -19.1727   21.8731 C   0  0  0  0  0  0  0  0  0  0  0  0
   11.1898  -19.9105   22.9468 C   0  0  0  0  0  0  0  0  0  0  0  0
    9.9196  -19.9834   23.0427 O   0  0  0  0  0  0  0  0  0  0  0  0
   11.7408  -17.2004   23.4234 C   0  0  0  0  0  0  0  0  0  0  0  0
   12.8802  -16.8652   23.9109 O   0  0  0  0  0  0  0  0  0  0  0  0
   11.8906  -20.5879   23.9443 O   0  0  0  0  0  0  0  0  0  0  0  0
   10.6458  -17.0506   24.3112 N   0  0  0  0  0  0  0  0  0  0  0  0
   10.7774  -16.5295   25.6688 C   0  0  1  0  0  0  0  0  0  0  0  0
    9.5906  -15.7254   26.0716 C   0  0  0  0  0  0  0  0  0  0  0  0
    9.8274  -15.1176   27.3988 C   0  0  0  0  0  0  0  0  0  0  0  0
   10.9991  -15.2640   28.1106 C   0  0  0  0  0  0  0  0  0  0  0  0
   10.8599  -14.5856   29.2591 N   0  0  0  0  0  0  0  0  0  0  0  0
    9.6507  -14.0225   29.2939 C   0  0  0  0  0  0  0  0  0  0  0  0
    9.0283  -14.3493   28.1610 N   0  0  0  0  0  0  0  0  0  0  0  0
   11.1133  -17.5718   26.6307 C   0  0  0  0  0  0  0  0  0  0  0  0
   11.8917  -17.4457   27.7621 O   0  0  0  0  0  0  0  0  0  0  0  0
   10.6444  -18.7447   26.4197 O   0  0  0  0  0  0  0  0  0  0  0  0
  2  1  1  0
  3  2  1  0
  4  3  2  0
  5  3  1  0
  6 10  1  0
  6  5  1  0
  7  8  1  0
  6  7  1  1
  8  9  2  0
  8 12  1  0
 10 13  1  0
 11 10  2  0
 13 14  1  0
 14 15  1  1
 15 16  1  0
 16 17  2  0
 18 17  1  0
 19 18  1  0
 20 19  2  0
 20 16  1  0
 21 14  1  0
 21 22  1  0
 23 21  2  0
M  END
$$$$
