GDH.pdb
     RDKit          3D

 23 23  0  0  1  0  0  0  0  0999 V2000
    7.8605  -21.2337   19.7236 N   0  0  0  0  0  0  0  0  0  0  0  0
    8.9826  -21.3038   20.6330 C   0  0  0  0  0  0  0  0  0  0  0  0
    8.5090  -21.3944   22.0746 C   0  0  0  0  0  0  0  0  0  0  0  0
    7.5633  -20.6856   22.4624 O   0  0  0  0  0  0  0  0  0  0  0  0
    9.2013  -22.3044   22.8883 N   0  0  0  0  0  0  0  0  0  0  0  0
    8.9584  -22.5274   24.2731 C   0  0  1  0  0  0  0  0  0  0  0  0
    9.2543  -23.9172   24.7933 C   0  0  0  0  0  0  0  0  0  0  0  0
    8.6984  -24.0610   26.1546 C   0  0  0  0  0  0  0  0  0  0  0  0
    9.3967  -23.9502   27.2167 O   0  0  0  0  0  0  0  0  0  0  0  0
    9.3135  -21.4328   25.1671 C   0  0  0  0  0  0  0  0  0  0  0  0
   10.4425  -20.8382   25.0262 O   0  0  0  0  0  0  0  0  0  0  0  0
    7.3475  -24.3325   26.3694 O   0  0  0  0  0  0  0  0  0  0  0  0
    8.5056  -20.9351   26.2203 N   0  0  0  0  0  0  0  0  0  0  0  0
    8.8665  -19.7754   27.0306 C   0  0  1  0  0  0  0  0  0  0  0  0
    7.7598  -18.7815   27.1001 C   0  0  0  0  0  0  0  0  0  0  0  0
    7.4508  -18.2837   25.7423 C   0  0  0  0  0  0  0  0  0  0  0  0
    8.3761  -17.6770   24.9196 C   0  0  0  0  0  0  0  0  0  0  0  0
    7.7501  -17.3559   23.7778 N   0  0  0  0  0  0  0  0  0  0  0  0
    6.4734  -17.7363   23.8536 C   0  0  0  0  0  0  0  0  0  0  0  0
    6.2978  -18.2993   25.0494 N   0  0  0  0  0  0  0  0  0  0  0  0
    9.3756  -20.1547   28.3426 C   0  0  0  0  0  0  0  0  0  0  0  0
    9.8506  -19.3165   29.3293 O   0  0  0  0  0  0  0  0  0  0  0  0
    9.3941  -21.4022   28.6318 O   0  0  0  0  0  0  0  0  0  0  0  0
  2  1  1  0
  3  2  1  0
  4  3  2  0
  5  3  1  0
  6 10  1  0
  6  5  1  0
  7  8  1  0
  6  7  1  1
  8  9  2  0
  8 12  1  0
 10 13  1  0
 11 10  2  0
 13 14  1  0
 14 15  1  1
 15 16  1  0
 16 17  2  0
 18 17  1  0
 19 18  1  0
 20 19  2  0
 20 16  1  0
 21 14  1  0
 21 22  1  0
 23 21  2  0
M  END
$$$$
