GDH.pdb
     RDKit          3D

 23 23  0  0  1  0  0  0  0  0999 V2000
    8.2681  -15.0563   15.2141 N   0  0  0  0  0  0  0  0  0  0  0  0
    9.4971  -14.9677   15.9708 C   0  0  0  0  0  0  0  0  0  0  0  0
    9.4084  -15.7853   17.2492 C   0  0  0  0  0  0  0  0  0  0  0  0
    8.3654  -15.7662   17.9265 O   0  0  0  0  0  0  0  0  0  0  0  0
   10.5532  -16.5264   17.5802 N   0  0  0  0  0  0  0  0  0  0  0  0
   10.7947  -17.1623   18.8308 C   0  0  1  0  0  0  0  0  0  0  0  0
   11.8907  -18.2052   18.8554 C   0  0  0  0  0  0  0  0  0  0  0  0
   11.6518  -19.1945   17.7844 C   0  0  0  0  0  0  0  0  0  0  0  0
   10.6916  -20.0345   17.8018 O   0  0  0  0  0  0  0  0  0  0  0  0
   10.7154  -16.3061   20.0072 C   0  0  0  0  0  0  0  0  0  0  0  0
   11.5864  -15.3786   20.1778 O   0  0  0  0  0  0  0  0  0  0  0  0
   12.4777  -19.2746   16.6634 O   0  0  0  0  0  0  0  0  0  0  0  0
    9.7328  -16.3949   21.0253 N   0  0  0  0  0  0  0  0  0  0  0  0
    9.7672  -15.5962   22.2471 C   0  0  1  0  0  0  0  0  0  0  0  0
    8.4909  -14.8607   22.4648 C   0  0  0  0  0  0  0  0  0  0  0  0
    8.2386  -13.9521   21.3256 C   0  0  0  0  0  0  0  0  0  0  0  0
    7.0151  -13.8257   20.7027 C   0  0  0  0  0  0  0  0  0  0  0  0
    7.1549  -12.9236   19.7202 N   0  0  0  0  0  0  0  0  0  0  0  0
    8.4140  -12.4823   19.7036 C   0  0  0  0  0  0  0  0  0  0  0  0
    9.0674  -13.1108   20.6812 N   0  0  0  0  0  0  0  0  0  0  0  0
   10.1803  -16.3772   23.4063 C   0  0  0  0  0  0  0  0  0  0  0  0
   10.4451  -15.9111   24.6770 O   0  0  0  0  0  0  0  0  0  0  0  0
   10.3206  -17.6404   23.2490 O   0  0  0  0  0  0  0  0  0  0  0  0
  2  1  1  0
  3  2  1  0
  4  3  2  0
  5  3  1  0
  6 10  1  0
  6  5  1  0
  7  8  1  0
  6  7  1  6
  8  9  2  0
  8 12  1  0
 10 13  1  0
 11 10  2  0
 13 14  1  0
 14 15  1  1
 15 16  1  0
 16 17  2  0
 18 17  1  0
 19 18  1  0
 20 19  2  0
 20 16  1  0
 21 14  1  0
 21 22  1  0
 23 21  2  0
M  END
$$$$
