GDH.pdb
     RDKit          3D

 23 23  0  0  1  0  0  0  0  0999 V2000
    7.1275  -17.0892   18.5889 N   0  0  0  0  0  0  0  0  0  0  0  0
    8.1709  -16.3178   19.2273 C   0  0  0  0  0  0  0  0  0  0  0  0
    8.7531  -17.0687   20.4139 C   0  0  0  0  0  0  0  0  0  0  0  0
    7.9957  -17.6364   21.2208 O   0  0  0  0  0  0  0  0  0  0  0  0
   10.1530  -17.0630   20.5123 N   0  0  0  0  0  0  0  0  0  0  0  0
   10.9084  -17.5834   21.6009 C   0  0  1  0  0  0  0  0  0  0  0  0
   12.3165  -18.0394   21.2865 C   0  0  0  0  0  0  0  0  0  0  0  0
   12.2956  -18.9128   20.0950 C   0  0  0  0  0  0  0  0  0  0  0  0
   11.7074  -20.0444   20.0605 O   0  0  0  0  0  0  0  0  0  0  0  0
   10.7388  -16.9022   22.8779 C   0  0  0  0  0  0  0  0  0  0  0  0
   11.2600  -15.7421   23.0532 O   0  0  0  0  0  0  0  0  0  0  0  0
   12.9306  -18.5481   18.9081 O   0  0  0  0  0  0  0  0  0  0  0  0
   10.0262  -17.4096   23.9934 N   0  0  0  0  0  0  0  0  0  0  0  0
    9.8589  -16.6730   25.2429 C   0  0  1  0  0  0  0  0  0  0  0  0
    8.4326  -16.3297   25.4975 C   0  0  0  0  0  0  0  0  0  0  0  0
    8.0028  -15.2632   24.5676 C   0  0  0  0  0  0  0  0  0  0  0  0
    8.8275  -14.6943   23.6203 C   0  0  0  0  0  0  0  0  0  0  0  0
    8.1104  -13.7695   22.9654 N   0  0  0  0  0  0  0  0  0  0  0  0
    6.8732  -13.7371   23.4643 C   0  0  0  0  0  0  0  0  0  0  0  0
    6.8142  -14.6467   24.4373 N   0  0  0  0  0  0  0  0  0  0  0  0
   10.4938  -17.3450   26.3698 C   0  0  0  0  0  0  0  0  0  0  0  0
   11.0781  -18.5942   26.3768 O   0  0  0  0  0  0  0  0  0  0  0  0
   10.5218  -16.7239   27.4893 O   0  0  0  0  0  0  0  0  0  0  0  0
  2  1  1  0
  3  2  1  0
  4  3  2  0
  5  3  1  0
  6 10  1  0
  6  5  1  0
  7  8  1  0
  6  7  1  6
  8  9  2  0
  8 12  1  0
 10 13  1  0
 11 10  2  0
 13 14  1  0
 14 15  1  1
 15 16  1  0
 16 17  2  0
 18 17  1  0
 19 18  1  0
 20 19  2  0
 20 16  1  0
 21 14  1  0
 21 22  1  0
 23 21  2  0
M  END
$$$$
