GDH.pdb
     RDKit          3D

 23 23  0  0  1  0  0  0  0  0999 V2000
    8.5030  -16.3050   15.2097 N   0  0  0  0  0  0  0  0  0  0  0  0
    9.8818  -16.0884   15.5878 C   0  0  0  0  0  0  0  0  0  0  0  0
   10.1198  -16.4975   17.0324 C   0  0  0  0  0  0  0  0  0  0  0  0
    9.1699  -16.5209   17.8349 O   0  0  0  0  0  0  0  0  0  0  0  0
   11.4429  -16.8292   17.3625 N   0  0  0  0  0  0  0  0  0  0  0  0
   11.8928  -17.2638   18.6413 C   0  0  1  0  0  0  0  0  0  0  0  0
   13.2548  -17.9214   18.6882 C   0  0  0  0  0  0  0  0  0  0  0  0
   13.2564  -19.1113   17.8124 C   0  0  0  0  0  0  0  0  0  0  0  0
   12.3727  -20.0298   17.8691 O   0  0  0  0  0  0  0  0  0  0  0  0
   11.5810  -16.3836   19.7599 C   0  0  0  0  0  0  0  0  0  0  0  0
   12.3595  -15.3992   20.0299 O   0  0  0  0  0  0  0  0  0  0  0  0
   14.2444  -19.3101   16.8484 O   0  0  0  0  0  0  0  0  0  0  0  0
   10.4581  -16.5070   20.6163 N   0  0  0  0  0  0  0  0  0  0  0  0
   10.2022  -15.6107   21.7402 C   0  0  1  0  0  0  0  0  0  0  0  0
    8.7713  -15.2050   21.8113 C   0  0  0  0  0  0  0  0  0  0  0  0
    8.4310  -14.3702   20.6391 C   0  0  0  0  0  0  0  0  0  0  0  0
    9.3241  -14.0563   19.6367 C   0  0  0  0  0  0  0  0  0  0  0  0
    8.6775  -13.2885   18.7473 N   0  0  0  0  0  0  0  0  0  0  0  0
    7.4189  -13.1099   19.1527 C   0  0  0  0  0  0  0  0  0  0  0  0
    7.2753  -13.7694   20.3025 N   0  0  0  0  0  0  0  0  0  0  0  0
   10.7068  -16.1450   22.9990 C   0  0  0  0  0  0  0  0  0  0  0  0
   10.7858  -15.4933   24.2118 O   0  0  0  0  0  0  0  0  0  0  0  0
   11.1309  -17.3533   23.0009 O   0  0  0  0  0  0  0  0  0  0  0  0
  2  1  1  0
  3  2  1  0
  4  3  2  0
  5  3  1  0
  6 10  1  0
  6  5  1  0
  7  8  1  0
  6  7  1  6
  8  9  2  0
  8 12  1  0
 10 13  1  0
 11 10  2  0
 13 14  1  0
 14 15  1  1
 15 16  1  0
 16 17  2  0
 18 17  1  0
 19 18  1  0
 20 19  2  0
 20 16  1  0
 21 14  1  0
 21 22  1  0
 23 21  2  0
M  END
$$$$
