GDH.pdb
     RDKit          3D

 23 23  0  0  1  0  0  0  0  0999 V2000
    8.7602  -15.4962   14.3905 N   0  0  0  0  0  0  0  0  0  0  0  0
    9.9582  -14.8366   14.8603 C   0  0  0  0  0  0  0  0  0  0  0  0
   10.4229  -15.4295   16.1806 C   0  0  0  0  0  0  0  0  0  0  0  0
    9.6045  -15.9900   16.9310 O   0  0  0  0  0  0  0  0  0  0  0  0
   11.7909  -15.2936   16.4627 N   0  0  0  0  0  0  0  0  0  0  0  0
   12.4565  -15.8193   17.6060 C   0  0  1  0  0  0  0  0  0  0  0  0
   13.9380  -16.0892   17.4578 C   0  0  0  0  0  0  0  0  0  0  0  0
   14.3870  -16.9787   18.5487 C   0  0  0  0  0  0  0  0  0  0  0  0
   13.8760  -18.1247   18.7795 O   0  0  0  0  0  0  0  0  0  0  0  0
   12.0428  -15.2731   18.8920 C   0  0  0  0  0  0  0  0  0  0  0  0
   12.5162  -14.1465   19.2857 O   0  0  0  0  0  0  0  0  0  0  0  0
   15.4192  -16.6146   19.4130 O   0  0  0  0  0  0  0  0  0  0  0  0
   11.1317  -15.8828   19.7907 N   0  0  0  0  0  0  0  0  0  0  0  0
   10.8517  -15.3640   21.1265 C   0  0  1  0  0  0  0  0  0  0  0  0
    9.3898  -15.2204   21.3704 C   0  0  0  0  0  0  0  0  0  0  0  0
    8.8504  -14.1250   20.5362 C   0  0  0  0  0  0  0  0  0  0  0  0
    9.6263  -13.3321   19.7174 C   0  0  0  0  0  0  0  0  0  0  0  0
    8.8106  -12.4508   19.1201 N   0  0  0  0  0  0  0  0  0  0  0  0
    7.5589  -12.6603   19.5319 C   0  0  0  0  0  0  0  0  0  0  0  0
    7.5895  -13.6786   20.3920 N   0  0  0  0  0  0  0  0  0  0  0  0
   11.5318  -16.1237   22.1680 C   0  0  0  0  0  0  0  0  0  0  0  0
   11.6128  -15.8153   23.5098 O   0  0  0  0  0  0  0  0  0  0  0  0
   12.1292  -17.2015   21.8195 O   0  0  0  0  0  0  0  0  0  0  0  0
  2  1  1  0
  3  2  1  0
  4  3  2  0
  5  3  1  0
  6 10  1  0
  6  5  1  0
  7  8  1  0
  6  7  1  6
  8  9  2  0
  8 12  1  0
 10 13  1  0
 11 10  2  0
 13 14  1  0
 14 15  1  1
 15 16  1  0
 16 17  2  0
 18 17  1  0
 19 18  1  0
 20 19  2  0
 20 16  1  0
 21 14  1  0
 21 22  1  0
 23 21  2  0
M  END
$$$$
