GDH.pdb
     RDKit          3D

 23 23  0  0  1  0  0  0  0  0999 V2000
    9.3601  -20.3839   16.0260 N   0  0  0  0  0  0  0  0  0  0  0  0
   10.7140  -19.9934   15.7012 C   0  0  0  0  0  0  0  0  0  0  0  0
   11.5955  -20.0072   16.9396 C   0  0  0  0  0  0  0  0  0  0  0  0
   11.0852  -20.1690   18.0623 O   0  0  0  0  0  0  0  0  0  0  0  0
   12.9689  -19.8290   16.7130 N   0  0  0  0  0  0  0  0  0  0  0  0
   13.9717  -19.7574   17.7209 C   0  0  1  0  0  0  0  0  0  0  0  0
   15.4072  -19.8374   17.2493 C   0  0  0  0  0  0  0  0  0  0  0  0
   15.5896  -21.0561   16.4343 C   0  0  0  0  0  0  0  0  0  0  0  0
   15.0931  -22.1905   16.7414 O   0  0  0  0  0  0  0  0  0  0  0  0
   13.7182  -18.8194   18.8069 C   0  0  0  0  0  0  0  0  0  0  0  0
   13.1527  -17.6945   18.5558 O   0  0  0  0  0  0  0  0  0  0  0  0
   16.3313  -21.0435   15.2533 O   0  0  0  0  0  0  0  0  0  0  0  0
   14.0445  -19.0308   20.1701 N   0  0  0  0  0  0  0  0  0  0  0  0
   13.4686  -18.2539   21.2641 C   0  0  1  0  0  0  0  0  0  0  0  0
   12.0517  -18.6299   21.5253 C   0  0  0  0  0  0  0  0  0  0  0  0
   11.4496  -17.6730   22.4785 C   0  0  0  0  0  0  0  0  0  0  0  0
   11.7819  -16.3361   22.5350 C   0  0  0  0  0  0  0  0  0  0  0  0
   11.0482  -15.7797   23.5101 N   0  0  0  0  0  0  0  0  0  0  0  0
   10.2725  -16.7132   24.0645 C   0  0  0  0  0  0  0  0  0  0  0  0
   10.5209  -17.8612   23.4335 N   0  0  0  0  0  0  0  0  0  0  0  0
   14.2979  -18.2878   22.4623 C   0  0  0  0  0  0  0  0  0  0  0  0
   15.0390  -19.3500   22.9361 O   0  0  0  0  0  0  0  0  0  0  0  0
   14.3580  -17.2224   23.1702 O   0  0  0  0  0  0  0  0  0  0  0  0
  2  1  1  0
  3  2  1  0
  4  3  2  0
  5  3  1  0
  6 10  1  0
  6  5  1  0
  7  8  1  0
  6  7  1  6
  8  9  2  0
  8 12  1  0
 10 13  1  0
 11 10  2  0
 13 14  1  0
 14 15  1  1
 15 16  1  0
 16 17  2  0
 18 17  1  0
 19 18  1  0
 20 19  2  0
 20 16  1  0
 21 14  1  0
 21 22  1  0
 23 21  2  0
M  END
$$$$
