GDH.pdb
     RDKit          3D

 23 23  0  0  1  0  0  0  0  0999 V2000
    1.5992  -22.8407   22.6372 N   0  0  0  0  0  0  0  0  0  0  0  0
    2.7345  -21.9513   22.7424 C   0  0  0  0  0  0  0  0  0  0  0  0
    3.8469  -22.5847   23.5622 C   0  0  0  0  0  0  0  0  0  0  0  0
    3.6289  -23.6295   24.2009 O   0  0  0  0  0  0  0  0  0  0  0  0
    5.0809  -21.9168   23.5352 N   0  0  0  0  0  0  0  0  0  0  0  0
    6.2515  -22.3119   24.2424 C   0  0  1  0  0  0  0  0  0  0  0  0
    7.5709  -21.8196   23.6887 C   0  0  0  0  0  0  0  0  0  0  0  0
    7.6119  -22.0581   22.2313 C   0  0  0  0  0  0  0  0  0  0  0  0
    7.7108  -21.1251   21.3666 O   0  0  0  0  0  0  0  0  0  0  0  0
    6.1450  -22.3239   25.6956 C   0  0  0  0  0  0  0  0  0  0  0  0
    5.8656  -21.2381   26.3211 O   0  0  0  0  0  0  0  0  0  0  0  0
    7.5438  -23.3446   21.6972 O   0  0  0  0  0  0  0  0  0  0  0  0
    6.3246  -23.4596   26.5248 N   0  0  0  0  0  0  0  0  0  0  0  0
    6.2021  -23.4201   27.9792 C   0  0  1  0  0  0  0  0  0  0  0  0
    5.2878  -24.4797   28.4877 C   0  0  0  0  0  0  0  0  0  0  0  0
    3.9082  -24.2104   28.0282 C   0  0  0  0  0  0  0  0  0  0  0  0
    3.0113  -23.4219   28.7172 C   0  0  0  0  0  0  0  0  0  0  0  0
    1.8693  -23.4027   28.0141 N   0  0  0  0  0  0  0  0  0  0  0  0
    2.0159  -24.1461   26.9159 C   0  0  0  0  0  0  0  0  0  0  0  0
    3.2566  -24.6341   26.9301 N   0  0  0  0  0  0  0  0  0  0  0  0
    7.4996  -23.4195   28.6432 C   0  0  0  0  0  0  0  0  0  0  0  0
    7.7544  -23.1956   29.9800 O   0  0  0  0  0  0  0  0  0  0  0  0
    8.5329  -23.6492   27.9225 O   0  0  0  0  0  0  0  0  0  0  0  0
  2  1  1  0
  3  2  1  0
  4  3  2  0
  5  3  1  0
  6 10  1  0
  6  5  1  0
  7  8  1  0
  6  7  1  1
  8  9  2  0
  8 12  1  0
 10 13  1  0
 11 10  2  0
 13 14  1  0
 14 15  1  1
 15 16  1  0
 16 17  2  0
 18 17  1  0
 19 18  1  0
 20 19  2  0
 20 16  1  0
 21 14  1  0
 21 22  1  0
 23 21  2  0
M  END
$$$$
