GDH.pdb
     RDKit          3D

 23 23  0  0  1  0  0  0  0  0999 V2000
    8.9044  -17.5576   15.2341 N   0  0  0  0  0  0  0  0  0  0  0  0
    9.6669  -16.6377   16.0485 C   0  0  0  0  0  0  0  0  0  0  0  0
    9.4932  -16.9480   17.5265 C   0  0  0  0  0  0  0  0  0  0  0  0
    8.4182  -16.6838   18.0935 O   0  0  0  0  0  0  0  0  0  0  0  0
   10.6009  -17.5300   18.1620 N   0  0  0  0  0  0  0  0  0  0  0  0
   10.7307  -17.7494   19.5625 C   0  0  1  0  0  0  0  0  0  0  0  0
   11.8039  -18.7247   19.9947 C   0  0  0  0  0  0  0  0  0  0  0  0
   11.6365  -19.9962   19.2613 C   0  0  0  0  0  0  0  0  0  0  0  0
   10.6100  -20.7455   19.3740 O   0  0  0  0  0  0  0  0  0  0  0  0
   10.5714  -16.5744   20.4095 C   0  0  0  0  0  0  0  0  0  0  0  0
   11.4390  -15.6296   20.3550 O   0  0  0  0  0  0  0  0  0  0  0  0
   12.6100  -20.4679   18.3810 O   0  0  0  0  0  0  0  0  0  0  0  0
    9.5113  -16.3573   21.3253 N   0  0  0  0  0  0  0  0  0  0  0  0
    9.4206  -15.1809   22.1854 C   0  0  1  0  0  0  0  0  0  0  0  0
    8.1220  -14.4714   22.0193 C   0  0  0  0  0  0  0  0  0  0  0  0
    7.9390  -14.0920   20.6017 C   0  0  0  0  0  0  0  0  0  0  0  0
    8.4494  -12.9385   20.0451 C   0  0  0  0  0  0  0  0  0  0  0  0
    8.0892  -12.9212   18.7534 N   0  0  0  0  0  0  0  0  0  0  0  0
    7.3752  -14.0150   18.4808 C   0  0  0  0  0  0  0  0  0  0  0  0
    7.2875  -14.7222   19.6076 N   0  0  0  0  0  0  0  0  0  0  0  0
    9.7287  -15.4883   23.5764 C   0  0  0  0  0  0  0  0  0  0  0  0
    9.8871  -14.5945   24.6147 O   0  0  0  0  0  0  0  0  0  0  0  0
    9.8743  -16.7210   23.8914 O   0  0  0  0  0  0  0  0  0  0  0  0
  2  1  1  0
  3  2  1  0
  4  3  2  0
  5  3  1  0
  6 10  1  0
  6  5  1  0
  7  8  1  0
  6  7  1  6
  8  9  2  0
  8 12  1  0
 10 13  1  0
 11 10  2  0
 13 14  1  0
 14 15  1  1
 15 16  1  0
 16 17  2  0
 18 17  1  0
 19 18  1  0
 20 19  2  0
 20 16  1  0
 21 14  1  0
 21 22  1  0
 23 21  2  0
M  END
$$$$
