HVP.pdb
     RDKit          3D

 25 26  0  0  1  0  0  0  0  0999 V2000
   28.2346  -19.0494  -16.3073 N   0  0  0  0  0  0  0  0  0  0  0  0
   27.2369  -18.6274  -15.3656 C   0  0  1  0  0  0  0  0  0  0  0  0
   26.2618  -17.6811  -16.0125 C   0  0  0  0  0  0  0  0  0  0  0  0
   26.9773  -16.3982  -16.2462 C   0  0  0  0  0  0  0  0  0  0  0  0
   27.1258  -15.4101  -15.2784 C   0  0  0  0  0  0  0  0  0  0  0  0
   27.8120  -14.4140  -15.8321 N   0  0  0  0  0  0  0  0  0  0  0  0
   28.0988  -14.7349  -17.1023 C   0  0  0  0  0  0  0  0  0  0  0  0
   27.5863  -15.9543  -17.3580 N   0  0  0  0  0  0  0  0  0  0  0  0
   26.5663  -19.8084  -14.7630 C   0  0  0  0  0  0  0  0  0  0  0  0
   26.3662  -20.8371  -15.4486 O   0  0  0  0  0  0  0  0  0  0  0  0
   27.2699  -21.2688  -11.4827 C   0  0  0  0  0  0  0  0  0  0  0  0
   25.7404  -21.1307  -11.4479 C   0  0  1  0  0  0  0  0  0  0  0  0
   25.3812  -19.9402  -10.5957 C   0  0  0  0  0  0  0  0  0  0  0  0
   25.3339  -20.9253  -12.8973 C   0  0  2  0  0  0  0  0  0  0  0  0
   26.1441  -19.7953  -13.4152 N   0  0  0  0  0  0  0  0  0  0  0  0
   23.8965  -20.6206  -13.0699 C   0  0  0  0  0  0  0  0  0  0  0  0
   23.5100  -19.4819  -12.6070 O   0  0  0  0  0  0  0  0  0  0  0  0
   22.9176  -21.4083  -13.6692 N   0  0  0  0  0  0  0  0  0  0  0  0
   23.2127  -22.7435  -14.2290 C   0  0  0  0  0  0  0  0  0  0  0  0
   21.8896  -23.4377  -14.0060 C   0  0  0  0  0  0  0  0  0  0  0  0
   20.9693  -22.3717  -14.6219 C   0  0  0  0  0  0  0  0  0  0  0  0
   21.5140  -21.1463  -13.8480 C   0  0  1  0  0  0  0  0  0  0  0  0
   20.7640  -21.1257  -12.5570 C   0  0  0  0  0  0  0  0  0  0  0  0
   21.2181  -21.6111  -11.5038 O   0  0  0  0  0  0  0  0  0  0  0  0
   19.5020  -20.5489  -12.4878 O   0  0  0  0  0  0  0  0  0  0  0  0
  2  9  1  0
  2  1  1  6
  3  2  1  0
  4  3  1  0
  5  4  2  0
  6  7  1  0
  6  5  1  0
  7  8  2  0
  8  4  1  0
  9 10  2  0
 12 11  1  6
 12 14  1  0
 12 13  1  0
 14 15  1  1
 15  9  1  0
 16 14  1  0
 16 17  2  0
 18 16  1  0
 19 18  1  0
 20 19  1  0
 21 20  1  0
 22 21  1  0
 22 18  1  0
 22 23  1  1
 24 23  2  0
 25 23  1  0
M  END
$$$$
