HVP.pdb
     RDKit          3D

 25 26  0  0  1  0  0  0  0  0999 V2000
   20.5186  -12.6293  -18.2809 N   0  0  0  0  0  0  0  0  0  0  0  0
   20.0610  -11.8792  -17.1459 C   0  0  1  0  0  0  0  0  0  0  0  0
   20.3049  -12.6415  -15.8715 C   0  0  0  0  0  0  0  0  0  0  0  0
   19.3560  -13.7868  -15.8511 C   0  0  0  0  0  0  0  0  0  0  0  0
   18.0028  -13.6625  -15.5537 C   0  0  0  0  0  0  0  0  0  0  0  0
   17.4679  -14.8781  -15.6291 N   0  0  0  0  0  0  0  0  0  0  0  0
   18.4258  -15.7565  -15.9603 C   0  0  0  0  0  0  0  0  0  0  0  0
   19.5867  -15.0869  -16.0969 N   0  0  0  0  0  0  0  0  0  0  0  0
   20.6903  -10.5334  -17.1313 C   0  0  0  0  0  0  0  0  0  0  0  0
   21.9376  -10.4214  -17.1224 O   0  0  0  0  0  0  0  0  0  0  0  0
   20.7719   -8.2612  -19.5586 C   0  0  0  0  0  0  0  0  0  0  0  0
   20.1695   -7.3709  -18.4613 C   0  0  1  0  0  0  0  0  0  0  0  0
   18.6722   -7.3368  -18.6333 C   0  0  0  0  0  0  0  0  0  0  0  0
   20.5684   -8.0371  -17.1553 C   0  0  2  0  0  0  0  0  0  0  0  0
   19.9011   -9.3620  -17.1270 N   0  0  0  0  0  0  0  0  0  0  0  0
   20.1798   -7.2640  -15.9554 C   0  0  0  0  0  0  0  0  0  0  0  0
   18.9351   -7.3322  -15.6290 O   0  0  0  0  0  0  0  0  0  0  0  0
   20.9900   -6.4786  -15.1401 N   0  0  0  0  0  0  0  0  0  0  0  0
   22.4190   -6.2469  -15.4363 C   0  0  0  0  0  0  0  0  0  0  0  0
   22.6032   -4.8645  -14.8557 C   0  0  0  0  0  0  0  0  0  0  0  0
   21.9864   -5.1178  -13.4707 C   0  0  0  0  0  0  0  0  0  0  0  0
   20.6561   -5.7543  -13.9424 C   0  0  1  0  0  0  0  0  0  0  0  0
   19.7364   -4.6070  -14.2021 C   0  0  0  0  0  0  0  0  0  0  0  0
   19.5192   -4.1599  -15.3440 O   0  0  0  0  0  0  0  0  0  0  0  0
   19.0759   -3.9850  -13.1498 O   0  0  0  0  0  0  0  0  0  0  0  0
  2  9  1  0
  2  1  1  6
  3  2  1  0
  4  3  1  0
  5  4  2  0
  6  7  1  0
  6  5  1  0
  7  8  2  0
  8  4  1  0
  9 10  2  0
 12 11  1  6
 12 14  1  0
 12 13  1  0
 14 15  1  1
 15  9  1  0
 16 14  1  0
 16 17  2  0
 18 16  1  0
 19 18  1  0
 20 19  1  0
 21 20  1  0
 22 21  1  0
 22 18  1  0
 22 23  1  6
 24 23  2  0
 25 23  1  0
M  END
$$$$
