HVP.pdb
     RDKit          3D

 25 26  0  0  1  0  0  0  0  0999 V2000
   17.8885  -12.4915  -16.0455 N   0  0  0  0  0  0  0  0  0  0  0  0
   18.3858  -11.3293  -16.7256 C   0  0  1  0  0  0  0  0  0  0  0  0
   17.2591  -10.3943  -17.0736 C   0  0  0  0  0  0  0  0  0  0  0  0
   16.4429  -11.0557  -18.1266 C   0  0  0  0  0  0  0  0  0  0  0  0
   16.9030  -11.3077  -19.4149 C   0  0  0  0  0  0  0  0  0  0  0  0
   15.9161  -11.9048  -20.0777 N   0  0  0  0  0  0  0  0  0  0  0  0
   14.8602  -12.0374  -19.2616 C   0  0  0  0  0  0  0  0  0  0  0  0
   15.1827  -11.5159  -18.0621 N   0  0  0  0  0  0  0  0  0  0  0  0
   19.4399  -10.6695  -15.9125 C   0  0  0  0  0  0  0  0  0  0  0  0
   19.2294  -10.3993  -14.7079 O   0  0  0  0  0  0  0  0  0  0  0  0
   24.0829   -9.5655  -15.1366 C   0  0  0  0  0  0  0  0  0  0  0  0
   23.0255  -10.4001  -15.8749 C   0  0  1  0  0  0  0  0  0  0  0  0
   23.0073  -11.7881  -15.2869 C   0  0  0  0  0  0  0  0  0  0  0  0
   21.7143   -9.6717  -15.6326 C   0  0  2  0  0  0  0  0  0  0  0  0
   20.6910  -10.3361  -16.4769 N   0  0  0  0  0  0  0  0  0  0  0  0
   21.7687   -8.2314  -15.9660 C   0  0  0  0  0  0  0  0  0  0  0  0
   21.9938   -7.9555  -17.2044 O   0  0  0  0  0  0  0  0  0  0  0  0
   21.6055   -7.1451  -15.1108 N   0  0  0  0  0  0  0  0  0  0  0  0
   21.2915   -7.3104  -13.6765 C   0  0  0  0  0  0  0  0  0  0  0  0
   21.9692   -6.0893  -13.1005 C   0  0  0  0  0  0  0  0  0  0  0  0
   21.3780   -5.0348  -14.0497 C   0  0  0  0  0  0  0  0  0  0  0  0
   21.7167   -5.7374  -15.3872 C   0  0  1  0  0  0  0  0  0  0  0  0
   23.1145   -5.3238  -15.7109 C   0  0  0  0  0  0  0  0  0  0  0  0
   24.1130   -5.9715  -15.3443 O   0  0  0  0  0  0  0  0  0  0  0  0
   23.3519   -4.1724  -16.4512 O   0  0  0  0  0  0  0  0  0  0  0  0
  2  9  1  0
  2  1  1  1
  3  2  1  0
  4  3  1  0
  5  4  2  0
  6  7  1  0
  6  5  1  0
  7  8  2  0
  8  4  1  0
  9 10  2  0
 12 11  1  1
 12 14  1  0
 12 13  1  0
 14 15  1  6
 15  9  1  0
 16 14  1  0
 16 17  2  0
 18 16  1  0
 19 18  1  0
 20 19  1  0
 21 20  1  0
 22 21  1  0
 22 18  1  0
 22 23  1  1
 24 23  2  0
 25 23  1  0
M  END
$$$$
