HVP.pdb
     RDKit          3D

 25 26  0  0  1  0  0  0  0  0999 V2000
   27.4702  -22.4648  -17.5911 N   0  0  0  0  0  0  0  0  0  0  0  0
   26.9987  -23.0027  -16.3467 C   0  0  1  0  0  0  0  0  0  0  0  0
   28.0339  -23.9053  -15.7315 C   0  0  0  0  0  0  0  0  0  0  0  0
   28.1001  -25.1362  -16.5638 C   0  0  0  0  0  0  0  0  0  0  0  0
   27.2218  -26.2066  -16.4296 C   0  0  0  0  0  0  0  0  0  0  0  0
   27.5746  -27.1227  -17.3273 N   0  0  0  0  0  0  0  0  0  0  0  0
   28.6337  -26.6732  -18.0163 C   0  0  0  0  0  0  0  0  0  0  0  0
   28.9577  -25.4523  -17.5480 N   0  0  0  0  0  0  0  0  0  0  0  0
   26.5894  -21.9042  -15.4338 C   0  0  0  0  0  0  0  0  0  0  0  0
   27.4019  -21.0002  -15.1321 O   0  0  0  0  0  0  0  0  0  0  0  0
   25.7040  -19.2320  -15.7160 C   0  0  0  0  0  0  0  0  0  0  0  0
   24.4667  -19.5889  -14.8787 C   0  0  1  0  0  0  0  0  0  0  0  0
   23.3559  -20.0048  -15.8091 C   0  0  0  0  0  0  0  0  0  0  0  0
   24.9141  -20.7382  -13.9913 C   0  0  2  0  0  0  0  0  0  0  0  0
   25.2859  -21.8572  -14.8919 N   0  0  0  0  0  0  0  0  0  0  0  0
   23.8725  -21.1931  -13.0443 C   0  0  0  0  0  0  0  0  0  0  0  0
   22.8832  -21.8298  -13.5697 O   0  0  0  0  0  0  0  0  0  0  0  0
   23.8324  -21.0199  -11.6636 N   0  0  0  0  0  0  0  0  0  0  0  0
   24.9199  -20.3502  -10.9205 C   0  0  0  0  0  0  0  0  0  0  0  0
   24.1407  -19.7322   -9.7834 C   0  0  0  0  0  0  0  0  0  0  0  0
   23.3637  -20.9812   -9.3376 C   0  0  0  0  0  0  0  0  0  0  0  0
   22.8095  -21.3939  -10.7232 C   0  0  1  0  0  0  0  0  0  0  0  0
   21.5521  -20.6079  -10.8988 C   0  0  0  0  0  0  0  0  0  0  0  0
   21.4959  -19.5656  -11.5781 O   0  0  0  0  0  0  0  0  0  0  0  0
   20.3732  -21.0256  -10.2936 O   0  0  0  0  0  0  0  0  0  0  0  0
  2  9  1  0
  2  1  1  6
  3  2  1  0
  4  3  1  0
  5  4  2  0
  6  7  1  0
  6  5  1  0
  7  8  2  0
  8  4  1  0
  9 10  2  0
 12 11  1  6
 12 14  1  0
 12 13  1  0
 14 15  1  6
 15  9  1  0
 16 14  1  0
 16 17  2  0
 18 16  1  0
 19 18  1  0
 20 19  1  0
 21 20  1  0
 22 21  1  0
 22 18  1  0
 22 23  1  6
 24 23  2  0
 25 23  1  0
M  END
$$$$
