HVP.pdb
     RDKit          3D

 25 26  0  0  1  0  0  0  0  0999 V2000
   22.6889  -20.6656  -18.7104 N   0  0  0  0  0  0  0  0  0  0  0  0
   22.4405  -20.3601  -17.3301 C   0  0  1  0  0  0  0  0  0  0  0  0
   21.3349  -21.2235  -16.7851 C   0  0  0  0  0  0  0  0  0  0  0  0
   20.0552  -20.7103  -17.3430 C   0  0  0  0  0  0  0  0  0  0  0  0
   19.2038  -21.4660  -18.1424 C   0  0  0  0  0  0  0  0  0  0  0  0
   18.1666  -20.6942  -18.4557 N   0  0  0  0  0  0  0  0  0  0  0  0
   18.3315  -19.4903  -17.8882 C   0  0  0  0  0  0  0  0  0  0  0  0
   19.4919  -19.4989  -17.2041 N   0  0  0  0  0  0  0  0  0  0  0  0
   23.6948  -20.4807  -16.5430 C   0  0  0  0  0  0  0  0  0  0  0  0
   24.3871  -21.5218  -16.6166 O   0  0  0  0  0  0  0  0  0  0  0  0
   25.2589  -17.2190  -14.5091 C   0  0  0  0  0  0  0  0  0  0  0  0
   26.1725  -18.3252  -15.0578 C   0  0  1  0  0  0  0  0  0  0  0  0
   27.4362  -18.3612  -14.2366 C   0  0  0  0  0  0  0  0  0  0  0  0
   25.3691  -19.6059  -14.9064 C   0  0  2  0  0  0  0  0  0  0  0  0
   24.1289  -19.4321  -15.7021 N   0  0  0  0  0  0  0  0  0  0  0  0
   25.0152  -19.9185  -13.5044 C   0  0  0  0  0  0  0  0  0  0  0  0
   24.0044  -19.2759  -13.0295 O   0  0  0  0  0  0  0  0  0  0  0  0
   25.6360  -20.8179  -12.6420 N   0  0  0  0  0  0  0  0  0  0  0  0
   26.8256  -21.5991  -13.0394 C   0  0  0  0  0  0  0  0  0  0  0  0
   27.5245  -21.7391  -11.7075 C   0  0  0  0  0  0  0  0  0  0  0  0
   26.3328  -22.2465  -10.8799 C   0  0  0  0  0  0  0  0  0  0  0  0
   25.3133  -21.1521  -11.2801 C   0  0  1  0  0  0  0  0  0  0  0  0
   25.5552  -20.0195  -10.3376 C   0  0  0  0  0  0  0  0  0  0  0  0
   26.2777  -19.0459  -10.6222 O   0  0  0  0  0  0  0  0  0  0  0  0
   24.9660  -20.0157   -9.0794 O   0  0  0  0  0  0  0  0  0  0  0  0
  2  9  1  0
  2  1  1  6
  3  2  1  0
  4  3  1  0
  5  4  2  0
  6  7  1  0
  6  5  1  0
  7  8  2  0
  8  4  1  0
  9 10  2  0
 12 11  1  1
 12 14  1  0
 12 13  1  0
 14 15  1  6
 15  9  1  0
 16 14  1  0
 16 17  2  0
 18 16  1  0
 19 18  1  0
 20 19  1  0
 21 20  1  0
 22 21  1  0
 22 18  1  0
 22 23  1  1
 24 23  2  0
 25 23  1  0
M  END
$$$$
