HVP.pdb
     RDKit          3D

 25 26  0  0  1  0  0  0  0  0999 V2000
   17.8218  -25.2053   -6.5312 N   0  0  0  0  0  0  0  0  0  0  0  0
   16.8634  -25.5567   -5.5222 C   0  0  1  0  0  0  0  0  0  0  0  0
   15.7300  -26.3476   -6.1178 C   0  0  0  0  0  0  0  0  0  0  0  0
   14.9276  -25.4135   -6.9520 C   0  0  0  0  0  0  0  0  0  0  0  0
   14.0061  -24.5110   -6.4309 C   0  0  0  0  0  0  0  0  0  0  0  0
   13.4815  -23.8451   -7.4561 N   0  0  0  0  0  0  0  0  0  0  0  0
   14.0335  -24.2907   -8.5943 C   0  0  0  0  0  0  0  0  0  0  0  0
   14.9225  -25.2547   -8.2857 N   0  0  0  0  0  0  0  0  0  0  0  0
   17.5315  -26.2751   -4.4063 C   0  0  0  0  0  0  0  0  0  0  0  0
   18.5801  -26.9271   -4.6153 O   0  0  0  0  0  0  0  0  0  0  0  0
   15.9636  -26.0277   -0.6013 C   0  0  0  0  0  0  0  0  0  0  0  0
   17.4927  -26.0635   -0.7426 C   0  0  1  0  0  0  0  0  0  0  0  0
   18.0771  -26.7170    0.4838 C   0  0  0  0  0  0  0  0  0  0  0  0
   17.7500  -26.8874   -1.9930 C   0  0  2  0  0  0  0  0  0  0  0  0
   17.0019  -26.2378   -3.0975 N   0  0  0  0  0  0  0  0  0  0  0  0
   17.3204  -28.2976   -1.8695 C   0  0  0  0  0  0  0  0  0  0  0  0
   16.0497  -28.4999   -1.9385 O   0  0  0  0  0  0  0  0  0  0  0  0
   18.1166  -29.4255   -1.6912 N   0  0  0  0  0  0  0  0  0  0  0  0
   19.5913  -29.3500   -1.6388 C   0  0  0  0  0  0  0  0  0  0  0  0
   19.8965  -30.5025   -0.7110 C   0  0  0  0  0  0  0  0  0  0  0  0
   19.0614  -31.5847   -1.4138 C   0  0  0  0  0  0  0  0  0  0  0  0
   17.7303  -30.7996   -1.5084 C   0  0  1  0  0  0  0  0  0  0  0  0
   17.0372  -31.0335   -0.2066 C   0  0  0  0  0  0  0  0  0  0  0  0
   17.0606  -30.2116    0.7288 O   0  0  0  0  0  0  0  0  0  0  0  0
   16.3250  -32.2070    0.0082 O   0  0  0  0  0  0  0  0  0  0  0  0
  2  9  1  0
  2  1  1  6
  3  2  1  0
  4  3  1  0
  5  4  2  0
  6  7  1  0
  6  5  1  0
  7  8  2  0
  8  4  1  0
  9 10  2  0
 12 11  1  1
 12 14  1  0
 12 13  1  0
 14 15  1  6
 15  9  1  0
 16 14  1  0
 16 17  2  0
 18 16  1  0
 19 18  1  0
 20 19  1  0
 21 20  1  0
 22 21  1  0
 22 18  1  0
 22 23  1  1
 24 23  2  0
 25 23  1  0
M  END
$$$$
