HVP.pdb
     RDKit          3D

 25 26  0  0  1  0  0  0  0  0999 V2000
   17.8254  -10.5593  -18.5052 N   0  0  0  0  0  0  0  0  0  0  0  0
   18.1726   -9.9507  -17.2525 C   0  0  1  0  0  0  0  0  0  0  0  0
   19.2735  -10.7208  -16.5743 C   0  0  0  0  0  0  0  0  0  0  0  0
   18.7722  -12.1023  -16.3451 C   0  0  0  0  0  0  0  0  0  0  0  0
   17.6704  -12.4014  -15.5504 C   0  0  0  0  0  0  0  0  0  0  0  0
   17.5133  -13.7222  -15.5728 N   0  0  0  0  0  0  0  0  0  0  0  0
   18.4673  -14.2620  -16.3456 C   0  0  0  0  0  0  0  0  0  0  0  0
   19.2417  -13.2673  -16.8208 N   0  0  0  0  0  0  0  0  0  0  0  0
   18.5220   -8.5208  -17.4547 C   0  0  0  0  0  0  0  0  0  0  0  0
   19.1918   -8.1713  -18.4535 O   0  0  0  0  0  0  0  0  0  0  0  0
   16.5051   -5.6594  -15.3500 C   0  0  0  0  0  0  0  0  0  0  0  0
   17.0260   -5.3926  -16.7702 C   0  0  1  0  0  0  0  0  0  0  0  0
   17.1772   -3.9046  -16.9589 C   0  0  0  0  0  0  0  0  0  0  0  0
   18.3667   -6.1046  -16.8344 C   0  0  2  0  0  0  0  0  0  0  0  0
   18.1092   -7.5342  -16.5321 N   0  0  0  0  0  0  0  0  0  0  0  0
   19.3646   -5.5714  -15.8813 C   0  0  0  0  0  0  0  0  0  0  0  0
   19.5956   -4.3067  -15.9676 O   0  0  0  0  0  0  0  0  0  0  0  0
   20.0782   -6.2647  -14.9076 N   0  0  0  0  0  0  0  0  0  0  0  0
   20.1940   -7.7378  -14.9133 C   0  0  0  0  0  0  0  0  0  0  0  0
   21.5545   -7.9127  -14.2804 C   0  0  0  0  0  0  0  0  0  0  0  0
   21.3468   -7.0172  -13.0486 C   0  0  0  0  0  0  0  0  0  0  0  0
   20.8226   -5.7598  -13.7845 C   0  0  1  0  0  0  0  0  0  0  0  0
   22.0420   -5.0029  -14.1965 C   0  0  0  0  0  0  0  0  0  0  0  0
   22.5207   -5.0657  -15.3445 O   0  0  0  0  0  0  0  0  0  0  0  0
   22.6990   -4.1824  -13.2879 O   0  0  0  0  0  0  0  0  0  0  0  0
  2  9  1  0
  2  1  1  6
  3  2  1  0
  4  3  1  0
  5  4  2  0
  6  7  1  0
  6  5  1  0
  7  8  2  0
  8  4  1  0
  9 10  2  0
 12 11  1  1
 12 14  1  0
 12 13  1  0
 14 15  1  1
 15  9  1  0
 16 14  1  0
 16 17  2  0
 18 16  1  0
 19 18  1  0
 20 19  1  0
 21 20  1  0
 22 21  1  0
 22 18  1  0
 22 23  1  6
 24 23  2  0
 25 23  1  0
M  END
$$$$
