HVP.pdb
     RDKit          3D

 25 26  0  0  1  0  0  0  0  0999 V2000
   16.9218  -25.0895   -6.2011 N   0  0  0  0  0  0  0  0  0  0  0  0
   16.2407  -25.7647   -5.1331 C   0  0  1  0  0  0  0  0  0  0  0  0
   15.4179  -26.9068   -5.6653 C   0  0  0  0  0  0  0  0  0  0  0  0
   14.2425  -26.3196   -6.3625 C   0  0  0  0  0  0  0  0  0  0  0  0
   13.0913  -25.8929   -5.7084 C   0  0  0  0  0  0  0  0  0  0  0  0
   12.2584  -25.4287   -6.6360 N   0  0  0  0  0  0  0  0  0  0  0  0
   12.8371  -25.5460   -7.8402 C   0  0  0  0  0  0  0  0  0  0  0  0
   14.0567  -26.0935   -7.6733 N   0  0  0  0  0  0  0  0  0  0  0  0
   17.2129  -26.2003   -4.0974 C   0  0  0  0  0  0  0  0  0  0  0  0
   18.4174  -26.3697   -4.3957 O   0  0  0  0  0  0  0  0  0  0  0  0
   15.9837  -26.7796   -0.1576 C   0  0  0  0  0  0  0  0  0  0  0  0
   17.3333  -26.1010   -0.4365 C   0  0  1  0  0  0  0  0  0  0  0  0
   18.2677  -26.3921    0.7102 C   0  0  0  0  0  0  0  0  0  0  0  0
   17.8241  -26.7259   -1.7316 C   0  0  2  0  0  0  0  0  0  0  0  0
   16.8020  -26.4305   -2.7658 N   0  0  0  0  0  0  0  0  0  0  0  0
   18.0260  -28.1887   -1.6419 C   0  0  0  0  0  0  0  0  0  0  0  0
   16.9506  -28.8953   -1.5743 O   0  0  0  0  0  0  0  0  0  0  0  0
   19.2283  -28.8902   -1.6240 N   0  0  0  0  0  0  0  0  0  0  0  0
   20.5358  -28.2189   -1.7754 C   0  0  0  0  0  0  0  0  0  0  0  0
   21.4135  -29.1287   -0.9483 C   0  0  0  0  0  0  0  0  0  0  0  0
   20.9977  -30.4706   -1.5718 C   0  0  0  0  0  0  0  0  0  0  0  0
   19.4641  -30.2985   -1.4464 C   0  0  1  0  0  0  0  0  0  0  0  0
   19.1223  -30.7697   -0.0713 C   0  0  0  0  0  0  0  0  0  0  0  0
   18.9649  -29.9932    0.8895 O   0  0  0  0  0  0  0  0  0  0  0  0
   18.9646  -32.1257    0.1868 O   0  0  0  0  0  0  0  0  0  0  0  0
  2  9  1  0
  2  1  1  6
  3  2  1  0
  4  3  1  0
  5  4  2  0
  6  7  1  0
  6  5  1  0
  7  8  2  0
  8  4  1  0
  9 10  2  0
 12 11  1  1
 12 14  1  0
 12 13  1  0
 14 15  1  6
 15  9  1  0
 16 14  1  0
 16 17  2  0
 18 16  1  0
 19 18  1  0
 20 19  1  0
 21 20  1  0
 22 21  1  0
 22 18  1  0
 22 23  1  1
 24 23  2  0
 25 23  1  0
M  END
$$$$
