HVP.pdb
     RDKit          3D

 25 26  0  0  1  0  0  0  0  0999 V2000
   19.7707  -13.5448  -18.9234 N   0  0  0  0  0  0  0  0  0  0  0  0
   19.9076  -12.1171  -18.8669 C   0  0  1  0  0  0  0  0  0  0  0  0
   18.6371  -11.4433  -19.3103 C   0  0  0  0  0  0  0  0  0  0  0  0
   18.5668  -11.5597  -20.7915 C   0  0  0  0  0  0  0  0  0  0  0  0
   18.1784  -12.7179  -21.4568 C   0  0  0  0  0  0  0  0  0  0  0  0
   18.2323  -12.4618  -22.7611 N   0  0  0  0  0  0  0  0  0  0  0  0
   18.6369  -11.1958  -22.9408 C   0  0  0  0  0  0  0  0  0  0  0  0
   18.8428  -10.6403  -21.7309 N   0  0  0  0  0  0  0  0  0  0  0  0
   20.3288  -11.6943  -17.5062 C   0  0  0  0  0  0  0  0  0  0  0  0
   19.7456  -12.1504  -16.4962 O   0  0  0  0  0  0  0  0  0  0  0  0
   23.9710   -9.8586  -16.8767 C   0  0  0  0  0  0  0  0  0  0  0  0
   23.2793  -10.7450  -15.8301 C   0  0  1  0  0  0  0  0  0  0  0  0
   23.8205  -10.3967  -14.4669 C   0  0  0  0  0  0  0  0  0  0  0  0
   21.8022  -10.4094  -15.9490 C   0  0  2  0  0  0  0  0  0  0  0  0
   21.3873  -10.7768  -17.3254 N   0  0  0  0  0  0  0  0  0  0  0  0
   21.5000   -8.9814  -15.7079 C   0  0  0  0  0  0  0  0  0  0  0  0
   21.9393   -8.1618  -16.5999 O   0  0  0  0  0  0  0  0  0  0  0  0
   20.8018   -8.4193  -14.6428 N   0  0  0  0  0  0  0  0  0  0  0  0
   20.2065   -9.2405  -13.5684 C   0  0  0  0  0  0  0  0  0  0  0  0
   20.3084   -8.2877  -12.4006 C   0  0  0  0  0  0  0  0  0  0  0  0
   19.6775   -7.0521  -13.0623 C   0  0  0  0  0  0  0  0  0  0  0  0
   20.5388   -7.0354  -14.3488 C   0  0  1  0  0  0  0  0  0  0  0  0
   21.7752   -6.2790  -13.9898 C   0  0  0  0  0  0  0  0  0  0  0  0
   21.8070   -5.0369  -13.9052 O   0  0  0  0  0  0  0  0  0  0  0  0
   22.9613   -6.9550  -13.7319 O   0  0  0  0  0  0  0  0  0  0  0  0
  2  9  1  0
  2  1  1  1
  3  2  1  0
  4  3  1  0
  5  4  2  0
  6  7  1  0
  6  5  1  0
  7  8  2  0
  8  4  1  0
  9 10  2  0
 12 11  1  6
 12 14  1  0
 12 13  1  0
 14 15  1  6
 15  9  1  0
 16 14  1  0
 16 17  2  0
 18 16  1  0
 19 18  1  0
 20 19  1  0
 21 20  1  0
 22 21  1  0
 22 18  1  0
 22 23  1  1
 24 23  2  0
 25 23  1  0
M  END
$$$$
