HVP.pdb
     RDKit          3D

 25 26  0  0  1  0  0  0  0  0999 V2000
   16.8222  -11.1449  -16.8264 N   0  0  0  0  0  0  0  0  0  0  0  0
   16.9654   -9.7178  -16.8815 C   0  0  1  0  0  0  0  0  0  0  0  0
   15.8709   -9.0430  -16.0996 C   0  0  0  0  0  0  0  0  0  0  0  0
   14.6028   -9.2390  -16.8519 C   0  0  0  0  0  0  0  0  0  0  0  0
   14.4166   -8.8333  -18.1694 C   0  0  0  0  0  0  0  0  0  0  0  0
   13.1756   -9.1661  -18.5141 N   0  0  0  0  0  0  0  0  0  0  0  0
   12.5779   -9.7613  -17.4715 C   0  0  0  0  0  0  0  0  0  0  0  0
   13.4541   -9.8067  -16.4492 N   0  0  0  0  0  0  0  0  0  0  0  0
   18.3204   -9.3188  -16.4208 C   0  0  0  0  0  0  0  0  0  0  0  0
   18.7242   -9.6567  -15.2844 O   0  0  0  0  0  0  0  0  0  0  0  0
   21.0326   -7.7847  -19.1108 C   0  0  0  0  0  0  0  0  0  0  0  0
   21.4924   -8.6256  -17.9103 C   0  0  1  0  0  0  0  0  0  0  0  0
   22.9198   -8.2659  -17.5856 C   0  0  0  0  0  0  0  0  0  0  0  0
   20.5482   -8.2448  -16.7825 C   0  0  2  0  0  0  0  0  0  0  0  0
   19.1743   -8.5564  -17.2482 N   0  0  0  0  0  0  0  0  0  0  0  0
   20.6277   -6.8173  -16.4025 C   0  0  0  0  0  0  0  0  0  0  0  0
   20.1788   -5.9835  -17.2762 O   0  0  0  0  0  0  0  0  0  0  0  0
   21.1234   -6.2690  -15.2228 N   0  0  0  0  0  0  0  0  0  0  0  0
   21.6133   -7.1063  -14.1083 C   0  0  0  0  0  0  0  0  0  0  0  0
   22.6744   -6.2023  -13.5262 C   0  0  0  0  0  0  0  0  0  0  0  0
   21.8361   -4.9196  -13.4055 C   0  0  0  0  0  0  0  0  0  0  0  0
   21.2843   -4.8880  -14.8517 C   0  0  1  0  0  0  0  0  0  0  0  0
   22.3294   -4.1934  -15.6610 C   0  0  0  0  0  0  0  0  0  0  0  0
   23.2489   -4.8005  -16.2416 O   0  0  0  0  0  0  0  0  0  0  0  0
   22.3087   -2.8108  -15.7958 O   0  0  0  0  0  0  0  0  0  0  0  0
  2  9  1  0
  2  1  1  1
  3  2  1  0
  4  3  1  0
  5  4  2  0
  6  7  1  0
  6  5  1  0
  7  8  2  0
  8  4  1  0
  9 10  2  0
 12 11  1  6
 12 14  1  0
 12 13  1  0
 14 15  1  6
 15  9  1  0
 16 14  1  0
 16 17  2  0
 18 16  1  0
 19 18  1  0
 20 19  1  0
 21 20  1  0
 22 21  1  0
 22 18  1  0
 22 23  1  6
 24 23  2  0
 25 23  1  0
M  END
$$$$
