HVP.pdb
     RDKit          3D

 25 26  0  0  1  0  0  0  0  0999 V2000
   23.1304   -9.1300  -16.6096 N   0  0  0  0  0  0  0  0  0  0  0  0
   22.5701   -9.7191  -15.4266 C   0  0  1  0  0  0  0  0  0  0  0  0
   23.6298   -9.9116  -14.3755 C   0  0  0  0  0  0  0  0  0  0  0  0
   24.5827  -10.9323  -14.8880 C   0  0  0  0  0  0  0  0  0  0  0  0
   24.5191  -12.2821  -14.5574 C   0  0  0  0  0  0  0  0  0  0  0  0
   25.5176  -12.8918  -15.1905 N   0  0  0  0  0  0  0  0  0  0  0  0
   26.2023  -11.9840  -15.9017 C   0  0  0  0  0  0  0  0  0  0  0  0
   25.6286  -10.7793  -15.7166 N   0  0  0  0  0  0  0  0  0  0  0  0
   21.4278   -8.9044  -14.9380 C   0  0  0  0  0  0  0  0  0  0  0  0
   21.4745   -7.6543  -14.9979 O   0  0  0  0  0  0  0  0  0  0  0  0
   18.2603   -9.3351  -16.2913 C   0  0  0  0  0  0  0  0  0  0  0  0
   18.6084   -8.1116  -15.4303 C   0  0  1  0  0  0  0  0  0  0  0  0
   17.3687   -7.2709  -15.2601 C   0  0  0  0  0  0  0  0  0  0  0  0
   19.0809   -8.6877  -14.1062 C   0  0  2  0  0  0  0  0  0  0  0  0
   20.2749   -9.5180  -14.4001 N   0  0  0  0  0  0  0  0  0  0  0  0
   18.0611   -9.5150  -13.4248 C   0  0  0  0  0  0  0  0  0  0  0  0
   17.6589  -10.5508  -14.0772 O   0  0  0  0  0  0  0  0  0  0  0  0
   17.4884   -9.3131  -12.1721 N   0  0  0  0  0  0  0  0  0  0  0  0
   17.8015   -8.1311  -11.3427 C   0  0  0  0  0  0  0  0  0  0  0  0
   16.4954   -7.9549  -10.6045 C   0  0  0  0  0  0  0  0  0  0  0  0
   16.3205   -9.3990  -10.1081 C   0  0  0  0  0  0  0  0  0  0  0  0
   16.5283  -10.1175  -11.4638 C   0  0  1  0  0  0  0  0  0  0  0  0
   15.1873  -10.1234  -12.1205 C   0  0  0  0  0  0  0  0  0  0  0  0
   14.8219   -9.2403  -12.9189 O   0  0  0  0  0  0  0  0  0  0  0  0
   14.2802  -11.1416  -11.8544 O   0  0  0  0  0  0  0  0  0  0  0  0
  2  9  1  0
  2  1  1  6
  3  2  1  0
  4  3  1  0
  5  4  2  0
  6  7  1  0
  6  5  1  0
  7  8  2  0
  8  4  1  0
  9 10  2  0
 12 11  1  6
 12 14  1  0
 12 13  1  0
 14 15  1  6
 15  9  1  0
 16 14  1  0
 16 17  2  0
 18 16  1  0
 19 18  1  0
 20 19  1  0
 21 20  1  0
 22 21  1  0
 22 18  1  0
 22 23  1  6
 24 23  2  0
 25 23  1  0
M  END
$$$$
