HVP.pdb
     RDKit          3D

 25 26  0  0  1  0  0  0  0  0999 V2000
   15.5731  -20.9807    0.7999 N   0  0  0  0  0  0  0  0  0  0  0  0
   15.2154  -19.9920    1.7770 C   0  0  1  0  0  0  0  0  0  0  0  0
   14.3163  -20.5845    2.8283 C   0  0  0  0  0  0  0  0  0  0  0  0
   13.0029  -20.8580    2.1859 C   0  0  0  0  0  0  0  0  0  0  0  0
   12.6088  -22.1155    1.7407 C   0  0  0  0  0  0  0  0  0  0  0  0
   11.3887  -21.9884    1.2258 N   0  0  0  0  0  0  0  0  0  0  0  0
   11.0028  -20.7081    1.3293 C   0  0  0  0  0  0  0  0  0  0  0  0
   11.9941  -20.0124    1.9192 N   0  0  0  0  0  0  0  0  0  0  0  0
   16.4371  -19.3764    2.3568 C   0  0  0  0  0  0  0  0  0  0  0  0
   17.4578  -20.0731    2.5600 O   0  0  0  0  0  0  0  0  0  0  0  0
   16.4931  -15.3429    3.4401 C   0  0  0  0  0  0  0  0  0  0  0  0
   17.7546  -15.9656    2.8231 C   0  0  1  0  0  0  0  0  0  0  0  0
   18.9645  -15.2560    3.3753 C   0  0  0  0  0  0  0  0  0  0  0  0
   17.7179  -17.4239    3.2481 C   0  0  2  0  0  0  0  0  0  0  0  0
   16.4722  -18.0038    2.6880 N   0  0  0  0  0  0  0  0  0  0  0  0
   17.7324  -17.6118    4.7154 C   0  0  0  0  0  0  0  0  0  0  0  0
   16.6218  -17.3618    5.3191 O   0  0  0  0  0  0  0  0  0  0  0  0
   18.7923  -18.0250    5.5179 N   0  0  0  0  0  0  0  0  0  0  0  0
   20.1295  -18.3255    4.9658 C   0  0  0  0  0  0  0  0  0  0  0  0
   21.0062  -17.9414    6.1346 C   0  0  0  0  0  0  0  0  0  0  0  0
   20.2736  -18.7275    7.2336 C   0  0  0  0  0  0  0  0  0  0  0  0
   18.8412  -18.2165    6.9432 C   0  0  1  0  0  0  0  0  0  0  0  0
   18.7150  -16.9355    7.7000 C   0  0  0  0  0  0  0  0  0  0  0  0
   18.8238  -15.8183    7.1605 O   0  0  0  0  0  0  0  0  0  0  0  0
   18.4654  -16.9496    9.0667 O   0  0  0  0  0  0  0  0  0  0  0  0
  2  9  1  0
  2  1  1  6
  3  2  1  0
  4  3  1  0
  5  4  2  0
  6  7  1  0
  6  5  1  0
  7  8  2  0
  8  4  1  0
  9 10  2  0
 12 11  1  1
 12 14  1  0
 12 13  1  0
 14 15  1  1
 15  9  1  0
 16 14  1  0
 16 17  2  0
 18 16  1  0
 19 18  1  0
 20 19  1  0
 21 20  1  0
 22 21  1  0
 22 18  1  0
 22 23  1  1
 24 23  2  0
 25 23  1  0
M  END
$$$$
