HVP.pdb
     RDKit          3D

 25 26  0  0  1  0  0  0  0  0999 V2000
   18.1237  -11.6766  -15.0578 N   0  0  0  0  0  0  0  0  0  0  0  0
   17.7379  -10.3086  -15.2575 C   0  0  1  0  0  0  0  0  0  0  0  0
   16.2469  -10.1961  -15.4275 C   0  0  0  0  0  0  0  0  0  0  0  0
   15.9000  -10.8272  -16.7289 C   0  0  0  0  0  0  0  0  0  0  0  0
   16.3508  -10.3581  -17.9585 C   0  0  0  0  0  0  0  0  0  0  0  0
   15.8485  -11.1579  -18.8953 N   0  0  0  0  0  0  0  0  0  0  0  0
   15.1042  -12.1057  -18.3067 C   0  0  0  0  0  0  0  0  0  0  0  0
   15.1351  -11.9034  -16.9752 N   0  0  0  0  0  0  0  0  0  0  0  0
   18.2476   -9.4632  -14.1471 C   0  0  0  0  0  0  0  0  0  0  0  0
   17.9603   -9.7417  -12.9603 O   0  0  0  0  0  0  0  0  0  0  0  0
   20.9294   -6.6023  -15.0189 C   0  0  0  0  0  0  0  0  0  0  0  0
   20.9393   -7.0833  -13.5601 C   0  0  1  0  0  0  0  0  0  0  0  0
   21.3842   -5.9447  -12.6780 C   0  0  0  0  0  0  0  0  0  0  0  0
   19.5031   -7.4870  -13.2724 C   0  0  2  0  0  0  0  0  0  0  0  0
   19.0602   -8.3371  -14.4049 N   0  0  0  0  0  0  0  0  0  0  0  0
   18.5836   -6.3367  -13.1307 C   0  0  0  0  0  0  0  0  0  0  0  0
   18.3416   -5.6817  -14.2136 O   0  0  0  0  0  0  0  0  0  0  0  0
   17.9507   -5.8800  -11.9780 N   0  0  0  0  0  0  0  0  0  0  0  0
   18.1682   -6.5065  -10.6576 C   0  0  0  0  0  0  0  0  0  0  0  0
   17.9839   -5.3134   -9.7495 C   0  0  0  0  0  0  0  0  0  0  0  0
   16.6458   -4.8072  -10.3114 C   0  0  0  0  0  0  0  0  0  0  0  0
   17.0396   -4.7792  -11.8085 C   0  0  1  0  0  0  0  0  0  0  0  0
   17.6931   -3.4539  -12.0231 C   0  0  0  0  0  0  0  0  0  0  0  0
   18.9290   -3.3111  -12.0802 O   0  0  0  0  0  0  0  0  0  0  0  0
   16.9226   -2.3072  -12.1700 O   0  0  0  0  0  0  0  0  0  0  0  0
  2  9  1  0
  2  1  1  1
  3  2  1  0
  4  3  1  0
  5  4  2  0
  6  7  1  0
  6  5  1  0
  7  8  2  0
  8  4  1  0
  9 10  2  0
 12 11  1  6
 12 14  1  0
 12 13  1  0
 14 15  1  6
 15  9  1  0
 16 14  1  0
 16 17  2  0
 18 16  1  0
 19 18  1  0
 20 19  1  0
 21 20  1  0
 22 21  1  0
 22 18  1  0
 22 23  1  1
 24 23  2  0
 25 23  1  0
M  END
$$$$
