HVP.pdb
     RDKit          3D

 25 26  0  0  1  0  0  0  0  0999 V2000
   19.7094  -15.4949  -18.7921 N   0  0  0  0  0  0  0  0  0  0  0  0
   19.4940  -14.7380  -17.5917 C   0  0  1  0  0  0  0  0  0  0  0  0
   20.0644  -15.4580  -16.3996 C   0  0  0  0  0  0  0  0  0  0  0  0
   19.2806  -16.7093  -16.2203 C   0  0  0  0  0  0  0  0  0  0  0  0
   18.0655  -16.7687  -15.5456 C   0  0  0  0  0  0  0  0  0  0  0  0
   17.6552  -18.0337  -15.5804 N   0  0  0  0  0  0  0  0  0  0  0  0
   18.5589  -18.7674  -16.2464 C   0  0  0  0  0  0  0  0  0  0  0  0
   19.5584  -17.9545  -16.6402 N   0  0  0  0  0  0  0  0  0  0  0  0
   20.0447  -13.3664  -17.7428 C   0  0  0  0  0  0  0  0  0  0  0  0
   21.1831  -13.1955  -18.2362 O   0  0  0  0  0  0  0  0  0  0  0  0
   17.5366  -10.3569  -18.2325 C   0  0  0  0  0  0  0  0  0  0  0  0
   18.9780  -10.3176  -18.7620 C   0  0  1  0  0  0  0  0  0  0  0  0
   19.3415   -8.8876  -19.0711 C   0  0  0  0  0  0  0  0  0  0  0  0
   19.8244  -10.8792  -17.6321 C   0  0  2  0  0  0  0  0  0  0  0  0
   19.3017  -12.2360  -17.3366 N   0  0  0  0  0  0  0  0  0  0  0  0
   19.7869  -10.0580  -16.4020 C   0  0  0  0  0  0  0  0  0  0  0  0
   18.6413   -9.9852  -15.8168 O   0  0  0  0  0  0  0  0  0  0  0  0
   20.8322   -9.3607  -15.8027 N   0  0  0  0  0  0  0  0  0  0  0  0
   22.1871   -9.3118  -16.3901 C   0  0  0  0  0  0  0  0  0  0  0  0
   22.6448   -7.9505  -15.9217 C   0  0  0  0  0  0  0  0  0  0  0  0
   22.2999   -8.0974  -14.4311 C   0  0  0  0  0  0  0  0  0  0  0  0
   20.8367   -8.5761  -14.5965 C   0  0  1  0  0  0  0  0  0  0  0  0
   20.0221   -7.3306  -14.7180 C   0  0  0  0  0  0  0  0  0  0  0  0
   19.6916   -6.6407  -13.7352 O   0  0  0  0  0  0  0  0  0  0  0  0
   19.5955   -6.8899  -15.9646 O   0  0  0  0  0  0  0  0  0  0  0  0
  2  9  1  0
  2  1  1  6
  3  2  1  0
  4  3  1  0
  5  4  2  0
  6  7  1  0
  6  5  1  0
  7  8  2  0
  8  4  1  0
  9 10  2  0
 12 11  1  1
 12 14  1  0
 12 13  1  0
 14 15  1  1
 15  9  1  0
 16 14  1  0
 16 17  2  0
 18 16  1  0
 19 18  1  0
 20 19  1  0
 21 20  1  0
 22 21  1  0
 22 18  1  0
 22 23  1  6
 24 23  2  0
 25 23  1  0
M  END
$$$$
