VQG.pdb
     RDKit          3D

 21 20  0  0  1  0  0  0  0  0999 V2000
    7.1151  -12.9009   19.0497 C   0  0  0  0  0  0  0  0  0  0  0  0
    8.2556  -13.7228   19.6063 C   0  0  2  0  0  0  0  0  0  0  0  0
    9.2270  -12.7727   20.3003 C   0  0  0  0  0  0  0  0  0  0  0  0
    8.9921  -14.3538   18.4477 C   0  0  2  0  0  0  0  0  0  0  0  0
    8.1156  -15.1828   17.6517 N   0  0  0  0  0  0  0  0  0  0  0  0
   10.1919  -15.0919   18.8531 C   0  0  0  0  0  0  0  0  0  0  0  0
   10.2864  -16.3324   18.9166 O   0  0  0  0  0  0  0  0  0  0  0  0
   15.5690  -13.7067   17.0891 N   0  0  0  0  0  0  0  0  0  0  0  0
   15.9524  -14.5243   18.1787 C   0  0  0  0  0  0  0  0  0  0  0  0
   17.0596  -15.1018   18.1367 O   0  0  0  0  0  0  0  0  0  0  0  0
   15.0779  -14.7002   19.3420 C   0  0  0  0  0  0  0  0  0  0  0  0
   13.7471  -14.0442   19.1973 C   0  0  0  0  0  0  0  0  0  0  0  0
   12.6201  -15.0073   19.4933 C   0  0  2  0  0  0  0  0  0  0  0  0
   11.3615  -14.3448   19.2091 N   0  0  0  0  0  0  0  0  0  0  0  0
   12.6725  -15.3704   20.9404 C   0  0  0  0  0  0  0  0  0  0  0  0
   13.7163  -15.9121   21.4117 O   0  0  0  0  0  0  0  0  0  0  0  0
   11.6092  -15.1424   21.8316 N   0  0  0  0  0  0  0  0  0  0  0  0
   11.8023  -15.2655   23.2615 C   0  0  0  0  0  0  0  0  0  0  0  0
   11.6884  -16.6692   23.6865 C   0  0  0  0  0  0  0  0  0  0  0  0
   11.5491  -17.5888   22.8424 O   0  0  0  0  0  0  0  0  0  0  0  0
   11.7350  -16.9843   25.0387 O   0  0  0  0  0  0  0  0  0  0  0  0
  2  1  1  6
  2  3  1  0
  4  2  1  0
  4  5  1  1
  6  4  1  0
  7  6  2  0
  8  9  1  0
  9 11  1  0
 10  9  2  0
 11 12  1  0
 13 12  1  1
 13 14  1  0
 13 15  1  0
 14  6  1  0
 15 16  2  0
 15 17  1  0
 17 18  1  0
 18 19  1  0
 19 21  1  0
 20 19  2  0
M  END
$$$$
