VQG.pdb
     RDKit          3D

 21 20  0  0  1  0  0  0  0  0999 V2000
    7.1329  -13.4297   18.8777 C   0  0  0  0  0  0  0  0  0  0  0  0
    7.2255  -13.3326   20.3837 C   0  0  2  0  0  0  0  0  0  0  0  0
    7.8687  -11.9934   20.7314 C   0  0  0  0  0  0  0  0  0  0  0  0
    8.1554  -14.4194   20.8706 C   0  0  2  0  0  0  0  0  0  0  0  0
    7.6457  -15.7339   20.5523 N   0  0  0  0  0  0  0  0  0  0  0  0
    8.4821  -14.3110   22.2954 C   0  0  0  0  0  0  0  0  0  0  0  0
    9.0616  -13.3461   22.8294 O   0  0  0  0  0  0  0  0  0  0  0  0
    6.7376  -11.8727   25.6622 N   0  0  0  0  0  0  0  0  0  0  0  0
    6.6299  -13.2066   26.1223 C   0  0  0  0  0  0  0  0  0  0  0  0
    6.8502  -13.4462   27.3287 O   0  0  0  0  0  0  0  0  0  0  0  0
    6.2676  -14.2978   25.2130 C   0  0  0  0  0  0  0  0  0  0  0  0
    7.1293  -15.5063   25.3520 C   0  0  0  0  0  0  0  0  0  0  0  0
    8.4197  -15.3580   24.5786 C   0  0  2  0  0  0  0  0  0  0  0  0
    8.1136  -15.3914   23.1612 N   0  0  0  0  0  0  0  0  0  0  0  0
    9.3129  -16.5048   24.9191 C   0  0  0  0  0  0  0  0  0  0  0  0
    9.1284  -17.6277   24.3623 O   0  0  0  0  0  0  0  0  0  0  0  0
   10.3700  -16.4114   25.8413 N   0  0  0  0  0  0  0  0  0  0  0  0
   11.7193  -16.7736   25.4601 C   0  0  0  0  0  0  0  0  0  0  0  0
   11.9700  -18.2007   25.7138 C   0  0  0  0  0  0  0  0  0  0  0  0
   13.1344  -18.6233   25.9224 O   0  0  0  0  0  0  0  0  0  0  0  0
   10.9068  -19.0948   25.7233 O   0  0  0  0  0  0  0  0  0  0  0  0
  2  1  1  6
  2  3  1  0
  4  2  1  0
  4  5  1  1
  6  4  1  0
  7  6  2  0
  8  9  1  0
  9 11  1  0
 10  9  2  0
 11 12  1  0
 13 12  1  1
 13 14  1  0
 13 15  1  0
 14  6  1  0
 15 16  2  0
 15 17  1  0
 17 18  1  0
 18 19  1  0
 19 21  1  0
 20 19  2  0
M  END
$$$$
