VQG.pdb
     RDKit          3D

 21 20  0  0  1  0  0  0  0  0999 V2000
    7.5565  -19.1075   22.5847 C   0  0  0  0  0  0  0  0  0  0  0  0
    6.3405  -18.2711   22.2563 C   0  0  2  0  0  0  0  0  0  0  0  0
    5.1029  -19.1432   22.4457 C   0  0  0  0  0  0  0  0  0  0  0  0
    6.4074  -17.8945   20.7946 C   0  0  2  0  0  0  0  0  0  0  0  0
    6.3901  -19.0639   19.9453 N   0  0  0  0  0  0  0  0  0  0  0  0
    7.5402  -17.0230   20.4692 C   0  0  0  0  0  0  0  0  0  0  0  0
    8.5758  -17.3803   19.8761 O   0  0  0  0  0  0  0  0  0  0  0  0
    9.2072  -13.2198   17.8965 N   0  0  0  0  0  0  0  0  0  0  0  0
    7.7930  -13.2515   17.9358 C   0  0  0  0  0  0  0  0  0  0  0  0
    7.1626  -13.3058   16.8584 O   0  0  0  0  0  0  0  0  0  0  0  0
    7.0668  -13.2218   19.2088 C   0  0  0  0  0  0  0  0  0  0  0  0
    7.9486  -13.3320   20.4058 C   0  0  0  0  0  0  0  0  0  0  0  0
    8.5384  -14.7181   20.5331 C   0  0  2  0  0  0  0  0  0  0  0  0
    7.4706  -15.6452   20.8558 N   0  0  0  0  0  0  0  0  0  0  0  0
    9.5382  -14.7096   21.6417 C   0  0  0  0  0  0  0  0  0  0  0  0
   10.6097  -14.0461   21.5122 O   0  0  0  0  0  0  0  0  0  0  0  0
    9.3582  -15.4092   22.8479 N   0  0  0  0  0  0  0  0  0  0  0  0
   10.3785  -15.3886   23.8752 C   0  0  0  0  0  0  0  0  0  0  0  0
   11.3245  -16.5008   23.6964 C   0  0  0  0  0  0  0  0  0  0  0  0
   11.2107  -17.2944   22.7294 O   0  0  0  0  0  0  0  0  0  0  0  0
   12.3580  -16.6780   24.6076 O   0  0  0  0  0  0  0  0  0  0  0  0
  2  1  1  6
  2  3  1  0
  4  2  1  0
  4  5  1  6
  6  4  1  0
  7  6  2  0
  8  9  1  0
  9 11  1  0
 10  9  2  0
 11 12  1  0
 13 12  1  1
 13 14  1  0
 13 15  1  0
 14  6  1  0
 15 16  2  0
 15 17  1  0
 17 18  1  0
 18 19  1  0
 19 21  1  0
 20 19  2  0
M  END
$$$$
