VQG.pdb
     RDKit          3D

 21 20  0  0  1  0  0  0  0  0999 V2000
    7.5625  -12.2970   20.7717 C   0  0  0  0  0  0  0  0  0  0  0  0
    8.3580  -13.1703   19.8280 C   0  0  2  0  0  0  0  0  0  0  0  0
    7.5946  -13.2581   18.5099 C   0  0  0  0  0  0  0  0  0  0  0  0
    8.4152  -14.5637   20.4096 C   0  0  2  0  0  0  0  0  0  0  0  0
    7.1137  -15.1923   20.4069 N   0  0  0  0  0  0  0  0  0  0  0  0
    9.0223  -14.6136   21.7428 C   0  0  0  0  0  0  0  0  0  0  0  0
   10.2124  -14.3520   22.0018 O   0  0  0  0  0  0  0  0  0  0  0  0
    5.6473  -13.3241   26.8076 N   0  0  0  0  0  0  0  0  0  0  0  0
    6.6564  -12.4769   26.2913 C   0  0  0  0  0  0  0  0  0  0  0  0
    6.6547  -11.2710   26.6188 O   0  0  0  0  0  0  0  0  0  0  0  0
    7.6910  -12.9894   25.3882 C   0  0  0  0  0  0  0  0  0  0  0  0
    7.5757  -14.4494   25.1101 C   0  0  0  0  0  0  0  0  0  0  0  0
    8.6929  -14.9320   24.2133 C   0  0  2  0  0  0  0  0  0  0  0  0
    8.1973  -14.9917   22.8515 N   0  0  0  0  0  0  0  0  0  0  0  0
    9.0984  -16.3000   24.6528 C   0  0  0  0  0  0  0  0  0  0  0  0
    8.2083  -17.1687   24.8936 O   0  0  0  0  0  0  0  0  0  0  0  0
   10.4387  -16.6908   24.8192 N   0  0  0  0  0  0  0  0  0  0  0  0
   10.7690  -18.0132   25.3080 C   0  0  0  0  0  0  0  0  0  0  0  0
   12.2206  -18.1526   25.5016 C   0  0  0  0  0  0  0  0  0  0  0  0
   13.0043  -17.2207   25.1931 O   0  0  0  0  0  0  0  0  0  0  0  0
   12.7338  -19.3293   26.0325 O   0  0  0  0  0  0  0  0  0  0  0  0
  2  1  1  1
  2  3  1  0
  4  2  1  0
  4  5  1  1
  6  4  1  0
  7  6  2  0
  8  9  1  0
  9 11  1  0
 10  9  2  0
 11 12  1  0
 13 12  1  1
 13 14  1  0
 13 15  1  0
 14  6  1  0
 15 16  2  0
 15 17  1  0
 17 18  1  0
 18 19  1  0
 19 21  1  0
 20 19  2  0
M  END
$$$$
