VQG.pdb
     RDKit          3D

 21 20  0  0  1  0  0  0  0  0999 V2000
   11.5109  -17.4503   18.8489 C   0  0  0  0  0  0  0  0  0  0  0  0
   11.2681  -18.7436   19.5935 C   0  0  2  0  0  0  0  0  0  0  0  0
   10.8986  -19.8143   18.5712 C   0  0  0  0  0  0  0  0  0  0  0  0
   10.0723  -18.5509   20.4968 C   0  0  2  0  0  0  0  0  0  0  0  0
    8.8471  -18.4441   19.7375 N   0  0  0  0  0  0  0  0  0  0  0  0
   10.2184  -17.4248   21.4238 C   0  0  0  0  0  0  0  0  0  0  0  0
    9.9147  -16.2428   21.1736 O   0  0  0  0  0  0  0  0  0  0  0  0
    8.4404  -17.3247   27.0458 N   0  0  0  0  0  0  0  0  0  0  0  0
    7.8979  -16.8197   25.8403 C   0  0  0  0  0  0  0  0  0  0  0  0
    6.6704  -16.5938   25.7815 O   0  0  0  0  0  0  0  0  0  0  0  0
    8.7471  -16.5615   24.6737 C   0  0  0  0  0  0  0  0  0  0  0  0
   10.1924  -16.8402   24.9096 C   0  0  0  0  0  0  0  0  0  0  0  0
   11.0126  -16.6042   23.6618 C   0  0  2  0  0  0  0  0  0  0  0  0
   10.7517  -17.6831   22.7282 N   0  0  0  0  0  0  0  0  0  0  0  0
   12.4582  -16.6110   24.0345 C   0  0  0  0  0  0  0  0  0  0  0  0
   12.9725  -17.6598   24.5250 O   0  0  0  0  0  0  0  0  0  0  0  0
   13.3021  -15.4985   23.8701 N   0  0  0  0  0  0  0  0  0  0  0  0
   14.6716  -15.5323   24.3395 C   0  0  0  0  0  0  0  0  0  0  0  0
   15.5752  -16.0163   23.2845 C   0  0  0  0  0  0  0  0  0  0  0  0
   16.3120  -15.2199   22.6516 O   0  0  0  0  0  0  0  0  0  0  0  0
   15.6159  -17.3716   22.9823 O   0  0  0  0  0  0  0  0  0  0  0  0
  2  1  1  6
  2  3  1  0
  4  2  1  0
  4  5  1  6
  6  4  1  0
  7  6  2  0
  8  9  1  0
  9 11  1  0
 10  9  2  0
 11 12  1  0
 13 12  1  1
 13 14  1  0
 13 15  1  0
 14  6  1  0
 15 16  2  0
 15 17  1  0
 17 18  1  0
 18 19  1  0
 19 21  1  0
 20 19  2  0
M  END
$$$$
