VQG.pdb
     RDKit          3D

 21 20  0  0  1  0  0  0  0  0999 V2000
   10.0777  -20.0741   19.3780 C   0  0  0  0  0  0  0  0  0  0  0  0
    8.7763  -19.4395   18.9424 C   0  0  2  0  0  0  0  0  0  0  0  0
    8.0468  -20.4306   18.0404 C   0  0  0  0  0  0  0  0  0  0  0  0
    9.1007  -18.2233   18.1066 C   0  0  2  0  0  0  0  0  0  0  0  0
    9.6829  -18.5939   16.8365 N   0  0  0  0  0  0  0  0  0  0  0  0
    9.9379  -17.2434   18.8048 C   0  0  0  0  0  0  0  0  0  0  0  0
   11.1742  -17.1417   18.6902 O   0  0  0  0  0  0  0  0  0  0  0  0
    7.4663  -11.9459   21.0518 N   0  0  0  0  0  0  0  0  0  0  0  0
    7.1478  -13.2020   21.6203 C   0  0  0  0  0  0  0  0  0  0  0  0
    6.1371  -13.2931   22.3493 O   0  0  0  0  0  0  0  0  0  0  0  0
    7.9782  -14.3833   21.3681 C   0  0  0  0  0  0  0  0  0  0  0  0
    9.2198  -14.0909   20.5966 C   0  0  0  0  0  0  0  0  0  0  0  0
   10.0705  -15.3290   20.4266 C   0  0  2  0  0  0  0  0  0  0  0  0
    9.3024  -16.3188   19.6958 N   0  0  0  0  0  0  0  0  0  0  0  0
   10.4075  -15.8639   21.7790 C   0  0  0  0  0  0  0  0  0  0  0  0
    9.7348  -16.8255   22.2564 O   0  0  0  0  0  0  0  0  0  0  0  0
   11.4498  -15.3532   22.5725 N   0  0  0  0  0  0  0  0  0  0  0  0
   11.7271  -15.9116   23.8795 C   0  0  0  0  0  0  0  0  0  0  0  0
   13.0577  -16.5383   23.9097 C   0  0  0  0  0  0  0  0  0  0  0  0
   13.7047  -16.7282   22.8500 O   0  0  0  0  0  0  0  0  0  0  0  0
   13.6078  -16.9261   25.1249 O   0  0  0  0  0  0  0  0  0  0  0  0
  2  1  1  6
  2  3  1  0
  4  2  1  0
  4  5  1  6
  6  4  1  0
  7  6  2  0
  8  9  1  0
  9 11  1  0
 10  9  2  0
 11 12  1  0
 13 12  1  1
 13 14  1  0
 13 15  1  0
 14  6  1  0
 15 16  2  0
 15 17  1  0
 17 18  1  0
 18 19  1  0
 19 21  1  0
 20 19  2  0
M  END
$$$$
