VQG.pdb
     RDKit          3D

 21 20  0  0  1  0  0  0  0  0999 V2000
    6.5227  -14.6304   21.3556 C   0  0  0  0  0  0  0  0  0  0  0  0
    6.7831  -16.1139   21.2227 C   0  0  2  0  0  0  0  0  0  0  0  0
    5.6070  -16.7342   20.4744 C   0  0  0  0  0  0  0  0  0  0  0  0
    6.8036  -16.7155   22.6086 C   0  0  2  0  0  0  0  0  0  0  0  0
    5.5135  -16.6081   23.2514 N   0  0  0  0  0  0  0  0  0  0  0  0
    7.8651  -16.1745   23.4625 C   0  0  0  0  0  0  0  0  0  0  0  0
    7.6907  -15.4078   24.4288 O   0  0  0  0  0  0  0  0  0  0  0  0
   11.1167  -18.3033   27.6095 N   0  0  0  0  0  0  0  0  0  0  0  0
   10.9915  -16.8962   27.6941 C   0  0  0  0  0  0  0  0  0  0  0  0
   11.2971  -16.3287   28.7645 O   0  0  0  0  0  0  0  0  0  0  0  0
   10.5137  -16.1056   26.5560 C   0  0  0  0  0  0  0  0  0  0  0  0
   10.0810  -16.9299   25.3917 C   0  0  0  0  0  0  0  0  0  0  0  0
   10.2991  -16.2006   24.0856 C   0  0  2  0  0  0  0  0  0  0  0  0
    9.2199  -16.5452   23.1798 N   0  0  0  0  0  0  0  0  0  0  0  0
   11.5977  -16.6491   23.5014 C   0  0  0  0  0  0  0  0  0  0  0  0
   11.6084  -17.5806   22.6427 O   0  0  0  0  0  0  0  0  0  0  0  0
   12.8372  -16.0874   23.8548 N   0  0  0  0  0  0  0  0  0  0  0  0
   14.0455  -16.4550   23.1465 C   0  0  0  0  0  0  0  0  0  0  0  0
   15.2163  -15.7723   23.7186 C   0  0  0  0  0  0  0  0  0  0  0  0
   15.0862  -14.9461   24.6557 O   0  0  0  0  0  0  0  0  0  0  0  0
   16.4833  -16.0431   23.2174 O   0  0  0  0  0  0  0  0  0  0  0  0
  2  1  1  1
  2  3  1  0
  4  2  1  0
  4  5  1  1
  6  4  1  0
  7  6  2  0
  8  9  1  0
  9 11  1  0
 10  9  2  0
 11 12  1  0
 13 12  1  1
 13 14  1  0
 13 15  1  0
 14  6  1  0
 15 16  2  0
 15 17  1  0
 17 18  1  0
 18 19  1  0
 19 21  1  0
 20 19  2  0
M  END
$$$$
