VQG.pdb
     RDKit          3D

 21 20  0  0  1  0  0  0  0  0999 V2000
    7.1670  -12.4084   20.8755 C   0  0  0  0  0  0  0  0  0  0  0  0
    8.0843  -13.2833   20.0514 C   0  0  2  0  0  0  0  0  0  0  0  0
    7.4051  -13.5483   18.7111 C   0  0  0  0  0  0  0  0  0  0  0  0
    8.2268  -14.6126   20.7553 C   0  0  2  0  0  0  0  0  0  0  0  0
    6.9978  -15.3718   20.7066 N   0  0  0  0  0  0  0  0  0  0  0  0
    8.7189  -14.4932   22.1309 C   0  0  0  0  0  0  0  0  0  0  0  0
    9.8071  -13.9868   22.4644 O   0  0  0  0  0  0  0  0  0  0  0  0
    7.7947  -12.8731   27.2568 N   0  0  0  0  0  0  0  0  0  0  0  0
    6.7997  -12.6280   26.2810 C   0  0  0  0  0  0  0  0  0  0  0  0
    6.2603  -11.5016   26.2419 O   0  0  0  0  0  0  0  0  0  0  0  0
    6.3984  -13.6659   25.3268 C   0  0  0  0  0  0  0  0  0  0  0  0
    7.1511  -14.9438   25.4779 C   0  0  0  0  0  0  0  0  0  0  0  0
    8.3575  -14.9867   24.5679 C   0  0  2  0  0  0  0  0  0  0  0  0
    7.8969  -14.9932   23.1925 N   0  0  0  0  0  0  0  0  0  0  0  0
    9.1156  -16.2432   24.8419 C   0  0  0  0  0  0  0  0  0  0  0  0
    8.4860  -17.2988   25.1491 O   0  0  0  0  0  0  0  0  0  0  0  0
   10.5175  -16.3275   24.7780 N   0  0  0  0  0  0  0  0  0  0  0  0
   11.1969  -17.5787   25.0423 C   0  0  0  0  0  0  0  0  0  0  0  0
   12.6564  -17.3956   25.0273 C   0  0  0  0  0  0  0  0  0  0  0  0
   13.1634  -16.2835   24.7377 O   0  0  0  0  0  0  0  0  0  0  0  0
   13.4870  -18.4652   25.3370 O   0  0  0  0  0  0  0  0  0  0  0  0
  2  1  1  1
  2  3  1  0
  4  2  1  0
  4  5  1  1
  6  4  1  0
  7  6  2  0
  8  9  1  0
  9 11  1  0
 10  9  2  0
 11 12  1  0
 13 12  1  1
 13 14  1  0
 13 15  1  0
 14  6  1  0
 15 16  2  0
 15 17  1  0
 17 18  1  0
 18 19  1  0
 19 21  1  0
 20 19  2  0
M  END
$$$$
