VQG.pdb
     RDKit          3D

 21 20  0  0  1  0  0  0  0  0999 V2000
    6.2843  -13.8323   21.1579 C   0  0  0  0  0  0  0  0  0  0  0  0
    7.5483  -13.3301   20.4974 C   0  0  2  0  0  0  0  0  0  0  0  0
    7.3318  -13.3513   18.9872 C   0  0  0  0  0  0  0  0  0  0  0  0
    8.6616  -14.3035   20.8071 C   0  0  2  0  0  0  0  0  0  0  0  0
    8.3562  -15.6295   20.3194 N   0  0  0  0  0  0  0  0  0  0  0  0
    9.0297  -14.3350   22.2256 C   0  0  0  0  0  0  0  0  0  0  0  0
    9.3567  -13.3442   22.9062 O   0  0  0  0  0  0  0  0  0  0  0  0
    6.5100  -17.9986   26.5957 N   0  0  0  0  0  0  0  0  0  0  0  0
    6.8959  -18.4553   25.3132 C   0  0  0  0  0  0  0  0  0  0  0  0
    6.4892  -19.5710   24.9246 O   0  0  0  0  0  0  0  0  0  0  0  0
    7.7564  -17.6462   24.4450 C   0  0  0  0  0  0  0  0  0  0  0  0
    8.0679  -16.2970   24.9974 C   0  0  0  0  0  0  0  0  0  0  0  0
    9.2791  -15.6903   24.3265 C   0  0  2  0  0  0  0  0  0  0  0  0
    9.0189  -15.5976   22.9026 N   0  0  0  0  0  0  0  0  0  0  0  0
   10.4502  -16.5868   24.5582 C   0  0  0  0  0  0  0  0  0  0  0  0
   10.8525  -16.7967   25.7410 O   0  0  0  0  0  0  0  0  0  0  0  0
   11.1490  -17.2265   23.5194 N   0  0  0  0  0  0  0  0  0  0  0  0
   12.2647  -16.5742   22.8661 C   0  0  0  0  0  0  0  0  0  0  0  0
   13.5063  -16.7693   23.6306 C   0  0  0  0  0  0  0  0  0  0  0  0
   13.4857  -17.3019   24.7680 O   0  0  0  0  0  0  0  0  0  0  0  0
   14.7186  -16.3600   23.0897 O   0  0  0  0  0  0  0  0  0  0  0  0
  2  1  1  1
  2  3  1  0
  4  2  1  0
  4  5  1  1
  6  4  1  0
  7  6  2  0
  8  9  1  0
  9 11  1  0
 10  9  2  0
 11 12  1  0
 13 12  1  1
 13 14  1  0
 13 15  1  0
 14  6  1  0
 15 16  2  0
 15 17  1  0
 17 18  1  0
 18 19  1  0
 19 21  1  0
 20 19  2  0
M  END
$$$$
