VQG.pdb
     RDKit          3D

 21 20  0  0  1  0  0  0  0  0999 V2000
    7.5486  -12.0730   18.8922 C   0  0  0  0  0  0  0  0  0  0  0  0
    7.7341  -13.4179   19.5578 C   0  0  2  0  0  0  0  0  0  0  0  0
    8.5958  -13.2144   20.8004 C   0  0  0  0  0  0  0  0  0  0  0  0
    8.5072  -14.3091   18.6139 C   0  0  2  0  0  0  0  0  0  0  0  0
    7.7991  -14.5019   17.3686 N   0  0  0  0  0  0  0  0  0  0  0  0
    8.8893  -15.5936   19.2077 C   0  0  0  0  0  0  0  0  0  0  0  0
    8.2467  -16.6554   19.1006 O   0  0  0  0  0  0  0  0  0  0  0  0
   13.1760  -20.2488   18.4573 N   0  0  0  0  0  0  0  0  0  0  0  0
   13.3795  -19.2180   19.4052 C   0  0  0  0  0  0  0  0  0  0  0  0
   14.5320  -18.7601   19.5575 O   0  0  0  0  0  0  0  0  0  0  0  0
   12.2690  -18.6870   20.2013 C   0  0  0  0  0  0  0  0  0  0  0  0
   11.6825  -17.4316   19.6512 C   0  0  0  0  0  0  0  0  0  0  0  0
   10.5725  -16.9065   20.5329 C   0  0  2  0  0  0  0  0  0  0  0  0
   10.0963  -15.6542   19.9773 N   0  0  0  0  0  0  0  0  0  0  0  0
   11.1244  -16.6639   21.8987 C   0  0  0  0  0  0  0  0  0  0  0  0
   11.9148  -15.6924   22.0901 O   0  0  0  0  0  0  0  0  0  0  0  0
   10.8128  -17.4666   23.0101 N   0  0  0  0  0  0  0  0  0  0  0  0
   11.2028  -17.0654   24.3458 C   0  0  0  0  0  0  0  0  0  0  0  0
   12.4237  -17.7687   24.7685 C   0  0  0  0  0  0  0  0  0  0  0  0
   12.9879  -18.5941   24.0081 O   0  0  0  0  0  0  0  0  0  0  0  0
   12.9617  -17.5184   26.0245 O   0  0  0  0  0  0  0  0  0  0  0  0
  2  1  1  6
  2  3  1  0
  4  2  1  0
  4  5  1  6
  6  4  1  0
  7  6  2  0
  8  9  1  0
  9 11  1  0
 10  9  2  0
 11 12  1  0
 13 12  1  6
 13 14  1  0
 13 15  1  0
 14  6  1  0
 15 16  2  0
 15 17  1  0
 17 18  1  0
 18 19  1  0
 19 21  1  0
 20 19  2  0
M  END
$$$$
