VQG.pdb
     RDKit          3D

 21 20  0  0  1  0  0  0  0  0999 V2000
   11.0556  -20.0878   20.1408 C   0  0  0  0  0  0  0  0  0  0  0  0
    9.5536  -19.9678   20.0159 C   0  0  2  0  0  0  0  0  0  0  0  0
    9.0435  -21.1920   19.2616 C   0  0  0  0  0  0  0  0  0  0  0  0
    9.2458  -18.7554   19.1684 C   0  0  2  0  0  0  0  0  0  0  0  0
    9.7764  -18.8957   17.8313 N   0  0  0  0  0  0  0  0  0  0  0  0
    9.6779  -17.4942   19.7777 C   0  0  0  0  0  0  0  0  0  0  0  0
   10.7410  -16.8978   19.5205 O   0  0  0  0  0  0  0  0  0  0  0  0
    8.7780  -12.7703   20.0477 N   0  0  0  0  0  0  0  0  0  0  0  0
    7.6238  -13.4830   19.6449 C   0  0  0  0  0  0  0  0  0  0  0  0
    7.0528  -13.1525   18.5838 O   0  0  0  0  0  0  0  0  0  0  0  0
    7.0958  -14.5908   20.4467 C   0  0  0  0  0  0  0  0  0  0  0  0
    7.8868  -14.8704   21.6790 C   0  0  0  0  0  0  0  0  0  0  0  0
    9.1658  -15.6105   21.3596 C   0  0  2  0  0  0  0  0  0  0  0  0
    8.8229  -16.8812   20.7502 N   0  0  0  0  0  0  0  0  0  0  0  0
    9.9042  -15.8558   22.6337 C   0  0  0  0  0  0  0  0  0  0  0  0
    9.4445  -16.6864   23.4727 O   0  0  0  0  0  0  0  0  0  0  0  0
   11.1059  -15.2061   22.9659 N   0  0  0  0  0  0  0  0  0  0  0  0
   11.8228  -15.5489   24.1765 C   0  0  0  0  0  0  0  0  0  0  0  0
   12.9453  -16.4530   23.8824 C   0  0  0  0  0  0  0  0  0  0  0  0
   12.7403  -17.6276   23.4875 O   0  0  0  0  0  0  0  0  0  0  0  0
   14.2502  -16.0040   24.0426 O   0  0  0  0  0  0  0  0  0  0  0  0
  2  1  1  6
  2  3  1  0
  4  2  1  0
  4  5  1  6
  6  4  1  0
  7  6  2  0
  8  9  1  0
  9 11  1  0
 10  9  2  0
 11 12  1  0
 13 12  1  1
 13 14  1  0
 13 15  1  0
 14  6  1  0
 15 16  2  0
 15 17  1  0
 17 18  1  0
 18 19  1  0
 19 21  1  0
 20 19  2  0
M  END
$$$$
