VQG.pdb
     RDKit          3D

 21 20  0  0  1  0  0  0  0  0999 V2000
    7.8101  -16.6792   19.8984 C   0  0  0  0  0  0  0  0  0  0  0  0
    6.7864  -15.5665   19.9032 C   0  0  2  0  0  0  0  0  0  0  0  0
    6.1499  -15.5049   18.5179 C   0  0  0  0  0  0  0  0  0  0  0  0
    7.5111  -14.2593   20.1249 C   0  0  2  0  0  0  0  0  0  0  0  0
    8.4455  -13.9844   19.0570 N   0  0  0  0  0  0  0  0  0  0  0  0
    8.1651  -14.1709   21.4338 C   0  0  0  0  0  0  0  0  0  0  0  0
    9.3692  -14.4025   21.6537 O   0  0  0  0  0  0  0  0  0  0  0  0
    5.1719  -12.0645   26.7625 N   0  0  0  0  0  0  0  0  0  0  0  0
    6.5166  -12.3021   27.1339 C   0  0  0  0  0  0  0  0  0  0  0  0
    6.8842  -11.9980   28.2887 O   0  0  0  0  0  0  0  0  0  0  0  0
    7.4723  -12.8933   26.1927 C   0  0  0  0  0  0  0  0  0  0  0  0
    6.9366  -13.0468   24.8100 C   0  0  0  0  0  0  0  0  0  0  0  0
    7.9550  -13.6789   23.8888 C   0  0  2  0  0  0  0  0  0  0  0  0
    7.3729  -13.7888   22.5648 N   0  0  0  0  0  0  0  0  0  0  0  0
    8.2786  -15.0430   24.4019 C   0  0  0  0  0  0  0  0  0  0  0  0
    7.3554  -15.9031   24.5165 O   0  0  0  0  0  0  0  0  0  0  0  0
    9.5751  -15.4394   24.7740 N   0  0  0  0  0  0  0  0  0  0  0  0
    9.8120  -16.7438   25.3567 C   0  0  0  0  0  0  0  0  0  0  0  0
   11.2451  -16.9481   25.6185 C   0  0  0  0  0  0  0  0  0  0  0  0
   11.6535  -17.9884   26.1917 O   0  0  0  0  0  0  0  0  0  0  0  0
   12.1606  -15.9792   25.2277 O   0  0  0  0  0  0  0  0  0  0  0  0
  2  1  1  6
  2  3  1  0
  4  2  1  0
  4  5  1  6
  6  4  1  0
  7  6  2  0
  8  9  1  0
  9 11  1  0
 10  9  2  0
 11 12  1  0
 13 12  1  1
 13 14  1  0
 13 15  1  0
 14  6  1  0
 15 16  2  0
 15 17  1  0
 17 18  1  0
 18 19  1  0
 19 21  1  0
 20 19  2  0
M  END
$$$$
