VQG.pdb
     RDKit          3D

 21 20  0  0  1  0  0  0  0  0999 V2000
    6.8632  -18.8032   17.0985 C   0  0  0  0  0  0  0  0  0  0  0  0
    7.5287  -17.6892   17.8745 C   0  0  2  0  0  0  0  0  0  0  0  0
    8.9070  -17.4485   17.2661 C   0  0  0  0  0  0  0  0  0  0  0  0
    7.7388  -18.1627   19.2939 C   0  0  2  0  0  0  0  0  0  0  0  0
    6.4908  -18.5459   19.9142 N   0  0  0  0  0  0  0  0  0  0  0  0
    8.4684  -17.2018   20.1263 C   0  0  0  0  0  0  0  0  0  0  0  0
    9.6329  -16.8101   19.9205 O   0  0  0  0  0  0  0  0  0  0  0  0
    5.8117  -14.0927   25.1279 N   0  0  0  0  0  0  0  0  0  0  0  0
    7.1258  -13.5842   24.9972 C   0  0  0  0  0  0  0  0  0  0  0  0
    7.4703  -12.6179   25.7104 O   0  0  0  0  0  0  0  0  0  0  0  0
    8.0766  -14.1694   24.0473 C   0  0  0  0  0  0  0  0  0  0  0  0
    7.4862  -15.2321   23.1845 C   0  0  0  0  0  0  0  0  0  0  0  0
    8.4850  -15.7393   22.1693 C   0  0  2  0  0  0  0  0  0  0  0  0
    7.8064  -16.6570   21.2742 N   0  0  0  0  0  0  0  0  0  0  0  0
    9.5710  -16.4653   22.8922 C   0  0  0  0  0  0  0  0  0  0  0  0
    9.2825  -17.4704   23.6073 O   0  0  0  0  0  0  0  0  0  0  0  0
   10.9249  -16.0921   22.8254 N   0  0  0  0  0  0  0  0  0  0  0  0
   11.9194  -16.7661   23.6339 C   0  0  0  0  0  0  0  0  0  0  0  0
   13.2359  -16.1270   23.4855 C   0  0  0  0  0  0  0  0  0  0  0  0
   13.4109  -15.1958   22.6609 O   0  0  0  0  0  0  0  0  0  0  0  0
   14.3012  -16.5571   24.2665 O   0  0  0  0  0  0  0  0  0  0  0  0
  2  1  1  6
  2  3  1  0
  4  2  1  0
  4  5  1  1
  6  4  1  0
  7  6  2  0
  8  9  1  0
  9 11  1  0
 10  9  2  0
 11 12  1  0
 13 12  1  1
 13 14  1  0
 13 15  1  0
 14  6  1  0
 15 16  2  0
 15 17  1  0
 17 18  1  0
 18 19  1  0
 19 21  1  0
 20 19  2  0
M  END
$$$$
